
  -OEChem-05262214473D

 64 63  0     1  0  0  0  0  0999 V2000
   -3.0551    3.3021    6.6358 C   0  0  0  0  0  0  0  0  0  0  0  0
   -4.2352    3.0434    6.4302 O   0  0  0  0  0  0  0  0  0  0  0  0
   -2.6966    4.4495    7.5208 C   0  0  0  0  0  0  0  0  0  0  0  0
   -2.5898    5.3936    6.9628 H   0  0  0  0  0  0  0  0  0  0  0  0
   -3.4659    4.6479    8.2843 H   0  0  0  0  0  0  0  0  0  0  0  0
   -1.7549    4.3360    8.0813 H   0  0  0  0  0  0  0  0  0  0  0  0
   -1.9655    2.6217    6.1203 N   0  0  0  0  0  0  0  0  0  0  0  0
   -2.0855    1.4828    5.2457 C   0  0  2  0  0  0  0  0  0  0  0  0
   -0.9475    0.5086    5.5433 C   0  0  0  0  0  0  0  0  0  0  0  0
   -0.0347    0.7642    6.3262 O   0  0  0  0  0  0  0  0  0  0  0  0
   -2.1690    1.8864    3.7715 C   0  0  0  0  0  0  0  0  0  0  0  0
   -0.6763    2.7322    3.1559 S   0  0  0  0  0  0  0  0  0  0  0  0
   -1.0329    2.9419    6.3715 H   0  0  0  0  0  0  0  0  0  0  0  0
   -3.0246    0.9913    5.5290 H   0  0  0  0  0  0  0  0  0  0  0  0
   -2.3303    1.0063    3.1406 H   0  0  0  0  0  0  0  0  0  0  0  0
   -3.0163    2.5632    3.6174 H   0  0  0  0  0  0  0  0  0  0  0  0
   -1.0584   -0.6667    4.8140 N   0  0  0  0  0  0  0  0  0  0  0  0
   -0.0891   -1.7337    4.9038 C   0  0  0  0  0  0  0  0  0  0  0  0
   -1.8701   -0.8125    4.2212 H   0  0  0  0  0  0  0  0  0  0  0  0
    0.6733   -1.6039    4.1216 H   0  0  0  0  0  0  0  0  0  0  0  0
    0.3923   -1.7092    5.8925 H   0  0  0  0  0  0  0  0  0  0  0  0
   -0.5948   -2.7008    4.7660 H   0  0  0  0  0  0  0  0  0  0  0  0
   -6.7256    2.0330   -0.2766 C   0  0  0  0  0  0  0  0  0  0  0  0
   -7.1824    1.1039   -0.9322 O   0  0  0  0  0  0  0  0  0  0  0  0
   -7.5276    2.6077    0.8435 C   0  0  0  0  0  0  0  0  0  0  0  0
   -8.1775    3.4344    0.5145 H   0  0  0  0  0  0  0  0  0  0  0  0
   -8.2057    1.8676    1.2980 H   0  0  0  0  0  0  0  0  0  0  0  0
   -6.9411    3.0162    1.6819 H   0  0  0  0  0  0  0  0  0  0  0  0
   -5.4935    2.6382   -0.4627 N   0  0  0  0  0  0  0  0  0  0  0  0
   -4.5619    2.2388   -1.4845 C   0  0  2  0  0  0  0  0  0  0  0  0
   -3.1535    2.4674   -0.9521 C   0  0  0  0  0  0  0  0  0  0  0  0
   -2.8634    3.3945   -0.1987 O   0  0  0  0  0  0  0  0  0  0  0  0
   -4.7883    3.0138   -2.7732 C   0  0  0  0  0  0  0  0  0  0  0  0
   -5.2337    3.4049    0.1551 H   0  0  0  0  0  0  0  0  0  0  0  0
   -4.7192    1.1682   -1.6549 H   0  0  0  0  0  0  0  0  0  0  0  0
   -4.6352    4.0886   -2.6221 H   0  0  0  0  0  0  0  0  0  0  0  0
   -4.0976    2.6887   -3.5582 H   0  0  0  0  0  0  0  0  0  0  0  0
   -5.8111    2.8719   -3.1387 H   0  0  0  0  0  0  0  0  0  0  0  0
   -2.2466    1.5400   -1.4507 N   0  0  0  0  0  0  0  0  0  0  0  0
   -0.8424    1.5707   -1.1286 C   0  0  2  0  0  0  0  0  0  0  0  0
   -0.1458    0.4143   -1.8428 C   0  0  0  0  0  0  0  0  0  0  0  0
   -0.7446   -0.3949   -2.5485 O   0  0  0  0  0  0  0  0  0  0  0  0
   -0.5913    1.5911    0.3812 C   0  0  0  0  0  0  0  0  0  0  0  0
   -1.1911    3.0887    1.1998 S   0  0  0  0  0  0  0  0  0  0  0  0
   -2.5850    0.7815   -2.0381 H   0  0  0  0  0  0  0  0  0  0  0  0
   -0.4613    2.5044   -1.5606 H   0  0  0  0  0  0  0  0  0  0  0  0
   -1.0781    0.7371    0.8634 H   0  0  0  0  0  0  0  0  0  0  0  0
    0.4829    1.5157    0.5819 H   0  0  0  0  0  0  0  0  0  0  0  0
    1.2161    0.3786   -1.5792 N   0  0  0  0  0  0  0  0  0  0  0  0
    2.0881   -0.6374   -2.1206 C   0  0  2  0  0  0  0  0  0  0  0  0
    3.1936   -0.8978   -1.1060 C   0  0  0  0  0  0  0  0  0  0  0  0
    3.6634   -0.0195   -0.3857 O   0  0  0  0  0  0  0  0  0  0  0  0
    2.6688   -0.2117   -3.4601 C   0  0  0  0  0  0  0  0  0  0  0  0
    1.6362    1.1140   -1.0184 H   0  0  0  0  0  0  0  0  0  0  0  0
    1.4824   -1.5421   -2.2419 H   0  0  0  0  0  0  0  0  0  0  0  0
    3.2789    0.6932   -3.3586 H   0  0  0  0  0  0  0  0  0  0  0  0
    3.3070   -0.9948   -3.8827 H   0  0  0  0  0  0  0  0  0  0  0  0
    1.8716    0.0038   -4.1797 H   0  0  0  0  0  0  0  0  0  0  0  0
    3.6238   -2.2171   -1.1299 N   0  0  0  0  0  0  0  0  0  0  0  0
    4.6934   -2.7037   -0.2902 C   0  0  0  0  0  0  0  0  0  0  0  0
    3.1505   -2.8862   -1.7300 H   0  0  0  0  0  0  0  0  0  0  0  0
    5.6477   -2.6320   -0.8326 H   0  0  0  0  0  0  0  0  0  0  0  0
    4.7457   -2.0964    0.6255 H   0  0  0  0  0  0  0  0  0  0  0  0
    4.5013   -3.7535   -0.0234 H   0  0  0  0  0  0  0  0  0  0  0  0
  1  3  1  0  0  0  0
  1  7  1  0  0  0  0
  1  2  2  0  0  0  0
 23 25  1  0  0  0  0
 23 29  1  0  0  0  0
 23 24  2  0  0  0  0
 50 51  1  0  0  0  0
 51 59  1  0  0  0  0
 51 52  2  0  0  0  0
  8  9  1  0  0  0  0
  9 17  1  0  0  0  0
  9 10  2  0  0  0  0
 30 31  1  0  0  0  0
 31 39  1  0  0  0  0
 31 32  2  0  0  0  0
 40 41  1  0  0  0  0
 41 49  1  0  0  0  0
 41 42  2  0  0  0  0
 50 53  1  0  0  0  0
 30 33  1  0  0  0  0
 59 60  1  0  0  0  0
 17 18  1  0  0  0  0
  8 11  1  0  0  0  0
 11 12  1  0  0  0  0
 40 43  1  0  0  0  0
 43 44  1  0  0  0  0
 49 50  1  0  0  0  0
  7  8  1  0  0  0  0
 29 30  1  0  0  0  0
 39 40  1  0  0  0  0
 12 44  1  0  0  0  0
  3  4  1  0  0  0  0
  3  5  1  0  0  0  0
  3  6  1  0  0  0  0
 25 26  1  0  0  0  0
 25 27  1  0  0  0  0
 25 28  1  0  0  0  0
 53 56  1  0  0  0  0
 53 57  1  0  0  0  0
 53 58  1  0  0  0  0
 33 36  1  0  0  0  0
 33 37  1  0  0  0  0
 33 38  1  0  0  0  0
 60 62  1  0  0  0  0
 60 63  1  0  0  0  0
 60 64  1  0  0  0  0
 18 20  1  0  0  0  0
 18 21  1  0  0  0  0
 18 22  1  0  0  0  0
 11 15  1  0  0  0  0
 11 16  1  0  0  0  0
 43 47  1  0  0  0  0
 43 48  1  0  0  0  0
 50 55  1  0  0  0  0
  8 14  1  0  0  0  0
 30 35  1  0  0  0  0
 40 46  1  0  0  0  0
 59 61  1  0  0  0  0
 17 19  1  0  0  0  0
  7 13  1  0  0  0  0
 29 34  1  0  0  0  0
 49 54  1  0  0  0  0
 39 45  1  0  0  0  0
M  END
$$$$

  -OEChem-05262214473D

 64 63  0     1  0  0  0  0  0999 V2000
   -3.0551    3.3021    6.6358 C   0  0  0  0  0  0  0  0  0  0  0  0
   -4.2352    3.0434    6.4302 O   0  0  0  0  0  0  0  0  0  0  0  0
   -2.6966    4.4495    7.5208 C   0  0  0  0  0  0  0  0  0  0  0  0
   -2.5898    5.3936    6.9628 H   0  0  0  0  0  0  0  0  0  0  0  0
   -3.4659    4.6479    8.2843 H   0  0  0  0  0  0  0  0  0  0  0  0
   -1.7549    4.3360    8.0813 H   0  0  0  0  0  0  0  0  0  0  0  0
   -1.9655    2.6217    6.1203 N   0  0  0  0  0  0  0  0  0  0  0  0
   -2.0855    1.4828    5.2457 C   0  0  2  0  0  0  0  0  0  0  0  0
   -0.9475    0.5086    5.5433 C   0  0  0  0  0  0  0  0  0  0  0  0
   -0.0347    0.7642    6.3262 O   0  0  0  0  0  0  0  0  0  0  0  0
   -2.1690    1.8864    3.7715 C   0  0  0  0  0  0  0  0  0  0  0  0
   -0.6763    2.7322    3.1559 S   0  0  0  0  0  0  0  0  0  0  0  0
   -1.0329    2.9419    6.3715 H   0  0  0  0  0  0  0  0  0  0  0  0
   -3.0246    0.9913    5.5290 H   0  0  0  0  0  0  0  0  0  0  0  0
   -2.3303    1.0063    3.1406 H   0  0  0  0  0  0  0  0  0  0  0  0
   -3.0163    2.5632    3.6174 H   0  0  0  0  0  0  0  0  0  0  0  0
   -1.0584   -0.6667    4.8140 N   0  0  0  0  0  0  0  0  0  0  0  0
   -0.0891   -1.7337    4.9038 C   0  0  0  0  0  0  0  0  0  0  0  0
   -1.8701   -0.8125    4.2212 H   0  0  0  0  0  0  0  0  0  0  0  0
    0.6733   -1.6039    4.1216 H   0  0  0  0  0  0  0  0  0  0  0  0
    0.3923   -1.7092    5.8925 H   0  0  0  0  0  0  0  0  0  0  0  0
   -0.5948   -2.7008    4.7660 H   0  0  0  0  0  0  0  0  0  0  0  0
   -6.7256    2.0330   -0.2766 C   0  0  0  0  0  0  0  0  0  0  0  0
   -7.1824    1.1039   -0.9322 O   0  0  0  0  0  0  0  0  0  0  0  0
   -7.5276    2.6077    0.8435 C   0  0  0  0  0  0  0  0  0  0  0  0
   -8.1775    3.4344    0.5145 H   0  0  0  0  0  0  0  0  0  0  0  0
   -8.2057    1.8676    1.2980 H   0  0  0  0  0  0  0  0  0  0  0  0
   -6.9411    3.0162    1.6819 H   0  0  0  0  0  0  0  0  0  0  0  0
   -5.4935    2.6382   -0.4627 N   0  0  0  0  0  0  0  0  0  0  0  0
   -4.5619    2.2388   -1.4845 C   0  0  2  0  0  0  0  0  0  0  0  0
   -3.1535    2.4674   -0.9521 C   0  0  0  0  0  0  0  0  0  0  0  0
   -2.8634    3.3945   -0.1987 O   0  0  0  0  0  0  0  0  0  0  0  0
   -4.7883    3.0138   -2.7732 C   0  0  0  0  0  0  0  0  0  0  0  0
   -5.2337    3.4049    0.1551 H   0  0  0  0  0  0  0  0  0  0  0  0
   -4.7192    1.1682   -1.6549 H   0  0  0  0  0  0  0  0  0  0  0  0
   -4.6352    4.0886   -2.6221 H   0  0  0  0  0  0  0  0  0  0  0  0
   -4.0976    2.6887   -3.5582 H   0  0  0  0  0  0  0  0  0  0  0  0
   -5.8111    2.8719   -3.1387 H   0  0  0  0  0  0  0  0  0  0  0  0
   -2.2466    1.5400   -1.4507 N   0  0  0  0  0  0  0  0  0  0  0  0
   -0.8424    1.5707   -1.1286 C   0  0  2  0  0  0  0  0  0  0  0  0
   -0.1458    0.4143   -1.8428 C   0  0  0  0  0  0  0  0  0  0  0  0
   -0.6734   -0.2288   -2.7480 O   0  0  0  0  0  0  0  0  0  0  0  0
   -0.5913    1.5911    0.3812 C   0  0  0  0  0  0  0  0  0  0  0  0
   -1.1911    3.0887    1.1998 S   0  0  0  0  0  0  0  0  0  0  0  0
   -2.5850    0.7815   -2.0381 H   0  0  0  0  0  0  0  0  0  0  0  0
   -0.4613    2.5044   -1.5606 H   0  0  0  0  0  0  0  0  0  0  0  0
   -1.0781    0.7371    0.8634 H   0  0  0  0  0  0  0  0  0  0  0  0
    0.4829    1.5157    0.5819 H   0  0  0  0  0  0  0  0  0  0  0  0
    1.1219    0.1704   -1.3338 N   0  0  0  0  0  0  0  0  0  0  0  0
    1.9693   -0.8893   -1.8285 C   0  0  2  0  0  0  0  0  0  0  0  0
    2.8104   -1.4003   -0.6662 C   0  0  0  0  0  0  0  0  0  0  0  0
    3.2171   -0.6735    0.2379 O   0  0  0  0  0  0  0  0  0  0  0  0
    2.8531   -0.4050   -2.9674 C   0  0  0  0  0  0  0  0  0  0  0  0
    1.4970    0.7798   -0.6130 H   0  0  0  0  0  0  0  0  0  0  0  0
    1.3058   -1.6876   -2.1786 H   0  0  0  0  0  0  0  0  0  0  0  0
    3.5250    0.3950   -2.6357 H   0  0  0  0  0  0  0  0  0  0  0  0
    3.4744   -1.2166   -3.3602 H   0  0  0  0  0  0  0  0  0  0  0  0
    2.2473   -0.0104   -3.7902 H   0  0  0  0  0  0  0  0  0  0  0  0
    3.0897   -2.7550   -0.7799 N   0  0  0  0  0  0  0  0  0  0  0  0
    3.9066   -3.4656    0.1759 C   0  0  0  0  0  0  0  0  0  0  0  0
    2.6780   -3.2879   -1.5404 H   0  0  0  0  0  0  0  0  0  0  0  0
    4.9531   -3.4642   -0.1626 H   0  0  0  0  0  0  0  0  0  0  0  0
    3.8378   -2.9711    1.1561 H   0  0  0  0  0  0  0  0  0  0  0  0
    3.5508   -4.5028    0.2628 H   0  0  0  0  0  0  0  0  0  0  0  0
  1  3  1  0  0  0  0
  1  7  1  0  0  0  0
  1  2  2  0  0  0  0
 23 25  1  0  0  0  0
 23 29  1  0  0  0  0
 23 24  2  0  0  0  0
 50 51  1  0  0  0  0
 51 59  1  0  0  0  0
 51 52  2  0  0  0  0
  8  9  1  0  0  0  0
  9 17  1  0  0  0  0
  9 10  2  0  0  0  0
 30 31  1  0  0  0  0
 31 39  1  0  0  0  0
 31 32  2  0  0  0  0
 40 41  1  0  0  0  0
 41 49  1  0  0  0  0
 41 42  2  0  0  0  0
 50 53  1  0  0  0  0
 30 33  1  0  0  0  0
 59 60  1  0  0  0  0
 17 18  1  0  0  0  0
  8 11  1  0  0  0  0
 11 12  1  0  0  0  0
 40 43  1  0  0  0  0
 43 44  1  0  0  0  0
 49 50  1  0  0  0  0
  7  8  1  0  0  0  0
 29 30  1  0  0  0  0
 39 40  1  0  0  0  0
 12 44  1  0  0  0  0
  3  4  1  0  0  0  0
  3  5  1  0  0  0  0
  3  6  1  0  0  0  0
 25 26  1  0  0  0  0
 25 27  1  0  0  0  0
 25 28  1  0  0  0  0
 53 56  1  0  0  0  0
 53 57  1  0  0  0  0
 53 58  1  0  0  0  0
 33 36  1  0  0  0  0
 33 37  1  0  0  0  0
 33 38  1  0  0  0  0
 60 62  1  0  0  0  0
 60 63  1  0  0  0  0
 60 64  1  0  0  0  0
 18 20  1  0  0  0  0
 18 21  1  0  0  0  0
 18 22  1  0  0  0  0
 11 15  1  0  0  0  0
 11 16  1  0  0  0  0
 43 47  1  0  0  0  0
 43 48  1  0  0  0  0
 50 55  1  0  0  0  0
  8 14  1  0  0  0  0
 30 35  1  0  0  0  0
 40 46  1  0  0  0  0
 59 61  1  0  0  0  0
 17 19  1  0  0  0  0
  7 13  1  0  0  0  0
 29 34  1  0  0  0  0
 49 54  1  0  0  0  0
 39 45  1  0  0  0  0
M  END
$$$$

  -OEChem-05262214473D

 64 63  0     1  0  0  0  0  0999 V2000
   -3.0551    3.3021    6.6358 C   0  0  0  0  0  0  0  0  0  0  0  0
   -4.2352    3.0434    6.4302 O   0  0  0  0  0  0  0  0  0  0  0  0
   -2.6966    4.4495    7.5208 C   0  0  0  0  0  0  0  0  0  0  0  0
   -2.5898    5.3936    6.9628 H   0  0  0  0  0  0  0  0  0  0  0  0
   -3.4659    4.6479    8.2843 H   0  0  0  0  0  0  0  0  0  0  0  0
   -1.7549    4.3360    8.0813 H   0  0  0  0  0  0  0  0  0  0  0  0
   -1.9655    2.6217    6.1203 N   0  0  0  0  0  0  0  0  0  0  0  0
   -2.0855    1.4828    5.2457 C   0  0  2  0  0  0  0  0  0  0  0  0
   -0.9475    0.5086    5.5433 C   0  0  0  0  0  0  0  0  0  0  0  0
   -0.0347    0.7642    6.3262 O   0  0  0  0  0  0  0  0  0  0  0  0
   -2.1690    1.8864    3.7715 C   0  0  0  0  0  0  0  0  0  0  0  0
   -0.6763    2.7322    3.1559 S   0  0  0  0  0  0  0  0  0  0  0  0
   -1.0329    2.9419    6.3715 H   0  0  0  0  0  0  0  0  0  0  0  0
   -3.0246    0.9913    5.5290 H   0  0  0  0  0  0  0  0  0  0  0  0
   -2.3303    1.0063    3.1406 H   0  0  0  0  0  0  0  0  0  0  0  0
   -3.0163    2.5632    3.6174 H   0  0  0  0  0  0  0  0  0  0  0  0
   -1.0584   -0.6667    4.8140 N   0  0  0  0  0  0  0  0  0  0  0  0
   -0.0891   -1.7337    4.9038 C   0  0  0  0  0  0  0  0  0  0  0  0
   -1.8701   -0.8125    4.2212 H   0  0  0  0  0  0  0  0  0  0  0  0
    0.6733   -1.6039    4.1216 H   0  0  0  0  0  0  0  0  0  0  0  0
    0.3923   -1.7092    5.8925 H   0  0  0  0  0  0  0  0  0  0  0  0
   -0.5948   -2.7008    4.7660 H   0  0  0  0  0  0  0  0  0  0  0  0
   -6.7256    2.0330   -0.2766 C   0  0  0  0  0  0  0  0  0  0  0  0
   -7.1824    1.1039   -0.9322 O   0  0  0  0  0  0  0  0  0  0  0  0
   -7.5276    2.6077    0.8435 C   0  0  0  0  0  0  0  0  0  0  0  0
   -8.1775    3.4344    0.5145 H   0  0  0  0  0  0  0  0  0  0  0  0
   -8.2057    1.8676    1.2980 H   0  0  0  0  0  0  0  0  0  0  0  0
   -6.9411    3.0162    1.6819 H   0  0  0  0  0  0  0  0  0  0  0  0
   -5.4935    2.6382   -0.4627 N   0  0  0  0  0  0  0  0  0  0  0  0
   -4.5619    2.2388   -1.4845 C   0  0  2  0  0  0  0  0  0  0  0  0
   -3.1535    2.4674   -0.9521 C   0  0  0  0  0  0  0  0  0  0  0  0
   -2.8634    3.3945   -0.1987 O   0  0  0  0  0  0  0  0  0  0  0  0
   -4.7883    3.0138   -2.7732 C   0  0  0  0  0  0  0  0  0  0  0  0
   -5.2337    3.4049    0.1551 H   0  0  0  0  0  0  0  0  0  0  0  0
   -4.7192    1.1682   -1.6549 H   0  0  0  0  0  0  0  0  0  0  0  0
   -4.6352    4.0886   -2.6221 H   0  0  0  0  0  0  0  0  0  0  0  0
   -4.0976    2.6887   -3.5582 H   0  0  0  0  0  0  0  0  0  0  0  0
   -5.8111    2.8719   -3.1387 H   0  0  0  0  0  0  0  0  0  0  0  0
   -2.2466    1.5400   -1.4507 N   0  0  0  0  0  0  0  0  0  0  0  0
   -0.8424    1.5707   -1.1286 C   0  0  2  0  0  0  0  0  0  0  0  0
   -0.1458    0.4143   -1.8428 C   0  0  0  0  0  0  0  0  0  0  0  0
   -0.5455   -0.0535   -2.9071 O   0  0  0  0  0  0  0  0  0  0  0  0
   -0.5913    1.5911    0.3812 C   0  0  0  0  0  0  0  0  0  0  0  0
   -1.1911    3.0887    1.1998 S   0  0  0  0  0  0  0  0  0  0  0  0
   -2.5850    0.7815   -2.0381 H   0  0  0  0  0  0  0  0  0  0  0  0
   -0.4613    2.5044   -1.5606 H   0  0  0  0  0  0  0  0  0  0  0  0
   -1.0781    0.7371    0.8634 H   0  0  0  0  0  0  0  0  0  0  0  0
    0.4829    1.5157    0.5819 H   0  0  0  0  0  0  0  0  0  0  0  0
    0.9576   -0.0484   -1.1399 N   0  0  0  0  0  0  0  0  0  0  0  0
    1.7669   -1.1528   -1.5994 C   0  0  2  0  0  0  0  0  0  0  0  0
    2.2932   -1.8912   -0.3758 C   0  0  0  0  0  0  0  0  0  0  0  0
    2.5846   -1.3248    0.6756 O   0  0  0  0  0  0  0  0  0  0  0  0
    2.9112   -0.6722   -2.4781 C   0  0  0  0  0  0  0  0  0  0  0  0
    1.2427    0.4259   -0.2882 H   0  0  0  0  0  0  0  0  0  0  0  0
    1.1052   -1.8142   -2.1692 H   0  0  0  0  0  0  0  0  0  0  0  0
    3.5850   -0.0081   -1.9244 H   0  0  0  0  0  0  0  0  0  0  0  0
    3.5069   -1.5129   -2.8489 H   0  0  0  0  0  0  0  0  0  0  0  0
    2.5321   -0.1157   -3.3420 H   0  0  0  0  0  0  0  0  0  0  0  0
    2.4400   -3.2512   -0.6101 N   0  0  0  0  0  0  0  0  0  0  0  0
    2.9630   -4.1613    0.3821 C   0  0  0  0  0  0  0  0  0  0  0  0
    2.1359   -3.6411   -1.4973 H   0  0  0  0  0  0  0  0  0  0  0  0
    4.0503   -4.2630    0.2502 H   0  0  0  0  0  0  0  0  0  0  0  0
    2.7509   -3.7687    1.3875 H   0  0  0  0  0  0  0  0  0  0  0  0
    2.4858   -5.1454    0.2645 H   0  0  0  0  0  0  0  0  0  0  0  0
  1  3  1  0  0  0  0
  1  7  1  0  0  0  0
  1  2  2  0  0  0  0
 23 25  1  0  0  0  0
 23 29  1  0  0  0  0
 23 24  2  0  0  0  0
 50 51  1  0  0  0  0
 51 59  1  0  0  0  0
 51 52  2  0  0  0  0
  8  9  1  0  0  0  0
  9 17  1  0  0  0  0
  9 10  2  0  0  0  0
 30 31  1  0  0  0  0
 31 39  1  0  0  0  0
 31 32  2  0  0  0  0
 40 41  1  0  0  0  0
 41 49  1  0  0  0  0
 41 42  2  0  0  0  0
 50 53  1  0  0  0  0
 30 33  1  0  0  0  0
 59 60  1  0  0  0  0
 17 18  1  0  0  0  0
  8 11  1  0  0  0  0
 11 12  1  0  0  0  0
 40 43  1  0  0  0  0
 43 44  1  0  0  0  0
 49 50  1  0  0  0  0
  7  8  1  0  0  0  0
 29 30  1  0  0  0  0
 39 40  1  0  0  0  0
 12 44  1  0  0  0  0
  3  4  1  0  0  0  0
  3  5  1  0  0  0  0
  3  6  1  0  0  0  0
 25 26  1  0  0  0  0
 25 27  1  0  0  0  0
 25 28  1  0  0  0  0
 53 56  1  0  0  0  0
 53 57  1  0  0  0  0
 53 58  1  0  0  0  0
 33 36  1  0  0  0  0
 33 37  1  0  0  0  0
 33 38  1  0  0  0  0
 60 62  1  0  0  0  0
 60 63  1  0  0  0  0
 60 64  1  0  0  0  0
 18 20  1  0  0  0  0
 18 21  1  0  0  0  0
 18 22  1  0  0  0  0
 11 15  1  0  0  0  0
 11 16  1  0  0  0  0
 43 47  1  0  0  0  0
 43 48  1  0  0  0  0
 50 55  1  0  0  0  0
  8 14  1  0  0  0  0
 30 35  1  0  0  0  0
 40 46  1  0  0  0  0
 59 61  1  0  0  0  0
 17 19  1  0  0  0  0
  7 13  1  0  0  0  0
 29 34  1  0  0  0  0
 49 54  1  0  0  0  0
 39 45  1  0  0  0  0
M  END
$$$$

  -OEChem-05262214473D

 64 63  0     1  0  0  0  0  0999 V2000
   -3.0551    3.3021    6.6358 C   0  0  0  0  0  0  0  0  0  0  0  0
   -4.2352    3.0434    6.4302 O   0  0  0  0  0  0  0  0  0  0  0  0
   -2.6966    4.4495    7.5208 C   0  0  0  0  0  0  0  0  0  0  0  0
   -2.5898    5.3936    6.9628 H   0  0  0  0  0  0  0  0  0  0  0  0
   -3.4659    4.6479    8.2843 H   0  0  0  0  0  0  0  0  0  0  0  0
   -1.7549    4.3360    8.0813 H   0  0  0  0  0  0  0  0  0  0  0  0
   -1.9655    2.6217    6.1203 N   0  0  0  0  0  0  0  0  0  0  0  0
   -2.0855    1.4828    5.2457 C   0  0  2  0  0  0  0  0  0  0  0  0
   -0.9475    0.5086    5.5433 C   0  0  0  0  0  0  0  0  0  0  0  0
   -0.0347    0.7642    6.3262 O   0  0  0  0  0  0  0  0  0  0  0  0
   -2.1690    1.8864    3.7715 C   0  0  0  0  0  0  0  0  0  0  0  0
   -0.6763    2.7322    3.1559 S   0  0  0  0  0  0  0  0  0  0  0  0
   -1.0329    2.9419    6.3715 H   0  0  0  0  0  0  0  0  0  0  0  0
   -3.0246    0.9913    5.5290 H   0  0  0  0  0  0  0  0  0  0  0  0
   -2.3303    1.0063    3.1406 H   0  0  0  0  0  0  0  0  0  0  0  0
   -3.0163    2.5632    3.6174 H   0  0  0  0  0  0  0  0  0  0  0  0
   -1.0584   -0.6667    4.8140 N   0  0  0  0  0  0  0  0  0  0  0  0
   -0.0891   -1.7337    4.9038 C   0  0  0  0  0  0  0  0  0  0  0  0
   -1.8701   -0.8125    4.2212 H   0  0  0  0  0  0  0  0  0  0  0  0
    0.6733   -1.6039    4.1216 H   0  0  0  0  0  0  0  0  0  0  0  0
    0.3923   -1.7092    5.8925 H   0  0  0  0  0  0  0  0  0  0  0  0
   -0.5948   -2.7008    4.7660 H   0  0  0  0  0  0  0  0  0  0  0  0
   -6.7256    2.0330   -0.2766 C   0  0  0  0  0  0  0  0  0  0  0  0
   -7.1824    1.1039   -0.9322 O   0  0  0  0  0  0  0  0  0  0  0  0
   -7.5276    2.6077    0.8435 C   0  0  0  0  0  0  0  0  0  0  0  0
   -8.1775    3.4344    0.5145 H   0  0  0  0  0  0  0  0  0  0  0  0
   -8.2057    1.8676    1.2980 H   0  0  0  0  0  0  0  0  0  0  0  0
   -6.9411    3.0162    1.6819 H   0  0  0  0  0  0  0  0  0  0  0  0
   -5.4935    2.6382   -0.4627 N   0  0  0  0  0  0  0  0  0  0  0  0
   -4.5619    2.2388   -1.4845 C   0  0  2  0  0  0  0  0  0  0  0  0
   -3.1535    2.4674   -0.9521 C   0  0  0  0  0  0  0  0  0  0  0  0
   -2.8634    3.3945   -0.1987 O   0  0  0  0  0  0  0  0  0  0  0  0
   -4.7883    3.0138   -2.7732 C   0  0  0  0  0  0  0  0  0  0  0  0
   -5.2337    3.4049    0.1551 H   0  0  0  0  0  0  0  0  0  0  0  0
   -4.7192    1.1682   -1.6549 H   0  0  0  0  0  0  0  0  0  0  0  0
   -4.6352    4.0886   -2.6221 H   0  0  0  0  0  0  0  0  0  0  0  0
   -4.0976    2.6887   -3.5582 H   0  0  0  0  0  0  0  0  0  0  0  0
   -5.8111    2.8719   -3.1387 H   0  0  0  0  0  0  0  0  0  0  0  0
   -2.2466    1.5400   -1.4507 N   0  0  0  0  0  0  0  0  0  0  0  0
   -0.8424    1.5707   -1.1286 C   0  0  2  0  0  0  0  0  0  0  0  0
   -0.1458    0.4143   -1.8428 C   0  0  0  0  0  0  0  0  0  0  0  0
   -0.3695    0.1192   -3.0151 O   0  0  0  0  0  0  0  0  0  0  0  0
   -0.5913    1.5911    0.3812 C   0  0  0  0  0  0  0  0  0  0  0  0
   -1.1911    3.0887    1.1998 S   0  0  0  0  0  0  0  0  0  0  0  0
   -2.5850    0.7815   -2.0381 H   0  0  0  0  0  0  0  0  0  0  0  0
   -0.4613    2.5044   -1.5606 H   0  0  0  0  0  0  0  0  0  0  0  0
   -1.0781    0.7371    0.8634 H   0  0  0  0  0  0  0  0  0  0  0  0
    0.4829    1.5157    0.5819 H   0  0  0  0  0  0  0  0  0  0  0  0
    0.7344   -0.2627   -1.0106 N   0  0  0  0  0  0  0  0  0  0  0  0
    1.4946   -1.4098   -1.4488 C   0  0  2  0  0  0  0  0  0  0  0  0
    1.6773   -2.3370   -0.2546 C   0  0  0  0  0  0  0  0  0  0  0  0
    1.8091   -1.9290    0.8975 O   0  0  0  0  0  0  0  0  0  0  0  0
    2.8392   -0.9950   -2.0257 C   0  0  0  0  0  0  0  0  0  0  0  0
    0.8905    0.0766   -0.0661 H   0  0  0  0  0  0  0  0  0  0  0  0
    0.8943   -1.9134   -2.2144 H   0  0  0  0  0  0  0  0  0  0  0  0
    3.4547   -0.4888   -1.2732 H   0  0  0  0  0  0  0  0  0  0  0  0
    3.4022   -1.8633   -2.3836 H   0  0  0  0  0  0  0  0  0  0  0  0
    2.7066   -0.3047   -2.8658 H   0  0  0  0  0  0  0  0  0  0  0  0
    1.7192   -3.6720   -0.6319 N   0  0  0  0  0  0  0  0  0  0  0  0
    1.9270   -4.7434    0.3141 C   0  0  0  0  0  0  0  0  0  0  0  0
    1.5610   -3.9218   -1.6036 H   0  0  0  0  0  0  0  0  0  0  0  0
    3.0006   -4.9741    0.3777 H   0  0  0  0  0  0  0  0  0  0  0  0
    1.5591   -4.4349    1.3038 H   0  0  0  0  0  0  0  0  0  0  0  0
    1.3790   -5.6374   -0.0184 H   0  0  0  0  0  0  0  0  0  0  0  0
  1  3  1  0  0  0  0
  1  7  1  0  0  0  0
  1  2  2  0  0  0  0
 23 25  1  0  0  0  0
 23 29  1  0  0  0  0
 23 24  2  0  0  0  0
 50 51  1  0  0  0  0
 51 59  1  0  0  0  0
 51 52  2  0  0  0  0
  8  9  1  0  0  0  0
  9 17  1  0  0  0  0
  9 10  2  0  0  0  0
 30 31  1  0  0  0  0
 31 39  1  0  0  0  0
 31 32  2  0  0  0  0
 40 41  1  0  0  0  0
 41 49  1  0  0  0  0
 41 42  2  0  0  0  0
 50 53  1  0  0  0  0
 30 33  1  0  0  0  0
 59 60  1  0  0  0  0
 17 18  1  0  0  0  0
  8 11  1  0  0  0  0
 11 12  1  0  0  0  0
 40 43  1  0  0  0  0
 43 44  1  0  0  0  0
 49 50  1  0  0  0  0
  7  8  1  0  0  0  0
 29 30  1  0  0  0  0
 39 40  1  0  0  0  0
 12 44  1  0  0  0  0
  3  4  1  0  0  0  0
  3  5  1  0  0  0  0
  3  6  1  0  0  0  0
 25 26  1  0  0  0  0
 25 27  1  0  0  0  0
 25 28  1  0  0  0  0
 53 56  1  0  0  0  0
 53 57  1  0  0  0  0
 53 58  1  0  0  0  0
 33 36  1  0  0  0  0
 33 37  1  0  0  0  0
 33 38  1  0  0  0  0
 60 62  1  0  0  0  0
 60 63  1  0  0  0  0
 60 64  1  0  0  0  0
 18 20  1  0  0  0  0
 18 21  1  0  0  0  0
 18 22  1  0  0  0  0
 11 15  1  0  0  0  0
 11 16  1  0  0  0  0
 43 47  1  0  0  0  0
 43 48  1  0  0  0  0
 50 55  1  0  0  0  0
  8 14  1  0  0  0  0
 30 35  1  0  0  0  0
 40 46  1  0  0  0  0
 59 61  1  0  0  0  0
 17 19  1  0  0  0  0
  7 13  1  0  0  0  0
 29 34  1  0  0  0  0
 49 54  1  0  0  0  0
 39 45  1  0  0  0  0
M  END
$$$$

  -OEChem-05262214473D

 64 63  0     1  0  0  0  0  0999 V2000
   -3.0551    3.3021    6.6358 C   0  0  0  0  0  0  0  0  0  0  0  0
   -4.2352    3.0434    6.4302 O   0  0  0  0  0  0  0  0  0  0  0  0
   -2.6966    4.4495    7.5208 C   0  0  0  0  0  0  0  0  0  0  0  0
   -2.5898    5.3936    6.9628 H   0  0  0  0  0  0  0  0  0  0  0  0
   -3.4659    4.6479    8.2843 H   0  0  0  0  0  0  0  0  0  0  0  0
   -1.7549    4.3360    8.0813 H   0  0  0  0  0  0  0  0  0  0  0  0
   -1.9655    2.6217    6.1203 N   0  0  0  0  0  0  0  0  0  0  0  0
   -2.0855    1.4828    5.2457 C   0  0  2  0  0  0  0  0  0  0  0  0
   -0.9475    0.5086    5.5433 C   0  0  0  0  0  0  0  0  0  0  0  0
   -0.0347    0.7642    6.3262 O   0  0  0  0  0  0  0  0  0  0  0  0
   -2.1690    1.8864    3.7715 C   0  0  0  0  0  0  0  0  0  0  0  0
   -0.6763    2.7322    3.1559 S   0  0  0  0  0  0  0  0  0  0  0  0
   -1.0329    2.9419    6.3715 H   0  0  0  0  0  0  0  0  0  0  0  0
   -3.0246    0.9913    5.5290 H   0  0  0  0  0  0  0  0  0  0  0  0
   -2.3303    1.0063    3.1406 H   0  0  0  0  0  0  0  0  0  0  0  0
   -3.0163    2.5632    3.6174 H   0  0  0  0  0  0  0  0  0  0  0  0
   -1.0584   -0.6667    4.8140 N   0  0  0  0  0  0  0  0  0  0  0  0
   -0.0891   -1.7337    4.9038 C   0  0  0  0  0  0  0  0  0  0  0  0
   -1.8701   -0.8125    4.2212 H   0  0  0  0  0  0  0  0  0  0  0  0
    0.6733   -1.6039    4.1216 H   0  0  0  0  0  0  0  0  0  0  0  0
    0.3923   -1.7092    5.8925 H   0  0  0  0  0  0  0  0  0  0  0  0
   -0.5948   -2.7008    4.7660 H   0  0  0  0  0  0  0  0  0  0  0  0
   -6.7256    2.0330   -0.2766 C   0  0  0  0  0  0  0  0  0  0  0  0
   -7.1824    1.1039   -0.9322 O   0  0  0  0  0  0  0  0  0  0  0  0
   -7.5276    2.6077    0.8435 C   0  0  0  0  0  0  0  0  0  0  0  0
   -8.1775    3.4344    0.5145 H   0  0  0  0  0  0  0  0  0  0  0  0
   -8.2057    1.8676    1.2980 H   0  0  0  0  0  0  0  0  0  0  0  0
   -6.9411    3.0162    1.6819 H   0  0  0  0  0  0  0  0  0  0  0  0
   -5.4935    2.6382   -0.4627 N   0  0  0  0  0  0  0  0  0  0  0  0
   -4.5619    2.2388   -1.4845 C   0  0  2  0  0  0  0  0  0  0  0  0
   -3.1535    2.4674   -0.9521 C   0  0  0  0  0  0  0  0  0  0  0  0
   -2.8634    3.3945   -0.1987 O   0  0  0  0  0  0  0  0  0  0  0  0
   -4.7883    3.0138   -2.7732 C   0  0  0  0  0  0  0  0  0  0  0  0
   -5.2337    3.4049    0.1551 H   0  0  0  0  0  0  0  0  0  0  0  0
   -4.7192    1.1682   -1.6549 H   0  0  0  0  0  0  0  0  0  0  0  0
   -4.6352    4.0886   -2.6221 H   0  0  0  0  0  0  0  0  0  0  0  0
   -4.0976    2.6887   -3.5582 H   0  0  0  0  0  0  0  0  0  0  0  0
   -5.8111    2.8719   -3.1387 H   0  0  0  0  0  0  0  0  0  0  0  0
   -2.2466    1.5400   -1.4507 N   0  0  0  0  0  0  0  0  0  0  0  0
   -0.8424    1.5707   -1.1286 C   0  0  2  0  0  0  0  0  0  0  0  0
   -0.1458    0.4143   -1.8428 C   0  0  0  0  0  0  0  0  0  0  0  0
   -0.1574    0.2774   -3.0645 O   0  0  0  0  0  0  0  0  0  0  0  0
   -0.5913    1.5911    0.3812 C   0  0  0  0  0  0  0  0  0  0  0  0
   -1.1911    3.0887    1.1998 S   0  0  0  0  0  0  0  0  0  0  0  0
   -2.5850    0.7815   -2.0381 H   0  0  0  0  0  0  0  0  0  0  0  0
   -0.4613    2.5044   -1.5606 H   0  0  0  0  0  0  0  0  0  0  0  0
   -1.0781    0.7371    0.8634 H   0  0  0  0  0  0  0  0  0  0  0  0
    0.4829    1.5157    0.5819 H   0  0  0  0  0  0  0  0  0  0  0  0
    0.4675   -0.4579   -0.9548 N   0  0  0  0  0  0  0  0  0  0  0  0
    1.1709   -1.6429   -1.3871 C   0  0  2  0  0  0  0  0  0  0  0  0
    1.0047   -2.7075   -0.3108 C   0  0  0  0  0  0  0  0  0  0  0  0
    0.9434   -2.4450    0.8885 O   0  0  0  0  0  0  0  0  0  0  0  0
    2.6418   -1.3516   -1.6410 C   0  0  0  0  0  0  0  0  0  0  0  0
    0.4646   -0.2444    0.0383 H   0  0  0  0  0  0  0  0  0  0  0  0
    0.6874   -1.9783   -2.3111 H   0  0  0  0  0  0  0  0  0  0  0  0
    3.1431   -1.0142   -0.7265 H   0  0  0  0  0  0  0  0  0  0  0  0
    3.1675   -2.2441   -1.9960 H   0  0  0  0  0  0  0  0  0  0  0  0
    2.7590   -0.5646   -2.3938 H   0  0  0  0  0  0  0  0  0  0  0  0
    0.9763   -3.9886   -0.8439 N   0  0  0  0  0  0  0  0  0  0  0  0
    0.8691   -5.1723   -0.0233 C   0  0  0  0  0  0  0  0  0  0  0  0
    0.9925   -4.1107   -1.8521 H   0  0  0  0  0  0  0  0  0  0  0  0
    1.8757   -5.5489    0.2112 H   0  0  0  0  0  0  0  0  0  0  0  0
    0.3438   -4.9243    0.9109 H   0  0  0  0  0  0  0  0  0  0  0  0
    0.3059   -5.9452   -0.5667 H   0  0  0  0  0  0  0  0  0  0  0  0
  1  3  1  0  0  0  0
  1  7  1  0  0  0  0
  1  2  2  0  0  0  0
 23 25  1  0  0  0  0
 23 29  1  0  0  0  0
 23 24  2  0  0  0  0
 50 51  1  0  0  0  0
 51 59  1  0  0  0  0
 51 52  2  0  0  0  0
  8  9  1  0  0  0  0
  9 17  1  0  0  0  0
  9 10  2  0  0  0  0
 30 31  1  0  0  0  0
 31 39  1  0  0  0  0
 31 32  2  0  0  0  0
 40 41  1  0  0  0  0
 41 49  1  0  0  0  0
 41 42  2  0  0  0  0
 50 53  1  0  0  0  0
 30 33  1  0  0  0  0
 59 60  1  0  0  0  0
 17 18  1  0  0  0  0
  8 11  1  0  0  0  0
 11 12  1  0  0  0  0
 40 43  1  0  0  0  0
 43 44  1  0  0  0  0
 49 50  1  0  0  0  0
  7  8  1  0  0  0  0
 29 30  1  0  0  0  0
 39 40  1  0  0  0  0
 12 44  1  0  0  0  0
  3  4  1  0  0  0  0
  3  5  1  0  0  0  0
  3  6  1  0  0  0  0
 25 26  1  0  0  0  0
 25 27  1  0  0  0  0
 25 28  1  0  0  0  0
 53 56  1  0  0  0  0
 53 57  1  0  0  0  0
 53 58  1  0  0  0  0
 33 36  1  0  0  0  0
 33 37  1  0  0  0  0
 33 38  1  0  0  0  0
 60 62  1  0  0  0  0
 60 63  1  0  0  0  0
 60 64  1  0  0  0  0
 18 20  1  0  0  0  0
 18 21  1  0  0  0  0
 18 22  1  0  0  0  0
 11 15  1  0  0  0  0
 11 16  1  0  0  0  0
 43 47  1  0  0  0  0
 43 48  1  0  0  0  0
 50 55  1  0  0  0  0
  8 14  1  0  0  0  0
 30 35  1  0  0  0  0
 40 46  1  0  0  0  0
 59 61  1  0  0  0  0
 17 19  1  0  0  0  0
  7 13  1  0  0  0  0
 29 34  1  0  0  0  0
 49 54  1  0  0  0  0
 39 45  1  0  0  0  0
M  END
$$$$

  -OEChem-05262214473D

 64 63  0     1  0  0  0  0  0999 V2000
   -3.0551    3.3021    6.6358 C   0  0  0  0  0  0  0  0  0  0  0  0
   -4.2352    3.0434    6.4302 O   0  0  0  0  0  0  0  0  0  0  0  0
   -2.6966    4.4495    7.5208 C   0  0  0  0  0  0  0  0  0  0  0  0
   -2.5898    5.3936    6.9628 H   0  0  0  0  0  0  0  0  0  0  0  0
   -3.4659    4.6479    8.2843 H   0  0  0  0  0  0  0  0  0  0  0  0
   -1.7549    4.3360    8.0813 H   0  0  0  0  0  0  0  0  0  0  0  0
   -1.9655    2.6217    6.1203 N   0  0  0  0  0  0  0  0  0  0  0  0
   -2.0855    1.4828    5.2457 C   0  0  2  0  0  0  0  0  0  0  0  0
   -0.9475    0.5086    5.5433 C   0  0  0  0  0  0  0  0  0  0  0  0
   -0.0347    0.7642    6.3262 O   0  0  0  0  0  0  0  0  0  0  0  0
   -2.1690    1.8864    3.7715 C   0  0  0  0  0  0  0  0  0  0  0  0
   -0.6763    2.7322    3.1559 S   0  0  0  0  0  0  0  0  0  0  0  0
   -1.0329    2.9419    6.3715 H   0  0  0  0  0  0  0  0  0  0  0  0
   -3.0246    0.9913    5.5290 H   0  0  0  0  0  0  0  0  0  0  0  0
   -2.3303    1.0063    3.1406 H   0  0  0  0  0  0  0  0  0  0  0  0
   -3.0163    2.5632    3.6174 H   0  0  0  0  0  0  0  0  0  0  0  0
   -1.0584   -0.6667    4.8140 N   0  0  0  0  0  0  0  0  0  0  0  0
   -0.0891   -1.7337    4.9038 C   0  0  0  0  0  0  0  0  0  0  0  0
   -1.8701   -0.8125    4.2212 H   0  0  0  0  0  0  0  0  0  0  0  0
    0.6733   -1.6039    4.1216 H   0  0  0  0  0  0  0  0  0  0  0  0
    0.3923   -1.7092    5.8925 H   0  0  0  0  0  0  0  0  0  0  0  0
   -0.5948   -2.7008    4.7660 H   0  0  0  0  0  0  0  0  0  0  0  0
   -6.7256    2.0330   -0.2766 C   0  0  0  0  0  0  0  0  0  0  0  0
   -7.1824    1.1039   -0.9322 O   0  0  0  0  0  0  0  0  0  0  0  0
   -7.5276    2.6077    0.8435 C   0  0  0  0  0  0  0  0  0  0  0  0
   -8.1775    3.4344    0.5145 H   0  0  0  0  0  0  0  0  0  0  0  0
   -8.2057    1.8676    1.2980 H   0  0  0  0  0  0  0  0  0  0  0  0
   -6.9411    3.0162    1.6819 H   0  0  0  0  0  0  0  0  0  0  0  0
   -5.4935    2.6382   -0.4627 N   0  0  0  0  0  0  0  0  0  0  0  0
   -4.5619    2.2388   -1.4845 C   0  0  2  0  0  0  0  0  0  0  0  0
   -3.1535    2.4674   -0.9521 C   0  0  0  0  0  0  0  0  0  0  0  0
   -2.8634    3.3945   -0.1987 O   0  0  0  0  0  0  0  0  0  0  0  0
   -4.7883    3.0138   -2.7732 C   0  0  0  0  0  0  0  0  0  0  0  0
   -5.2337    3.4049    0.1551 H   0  0  0  0  0  0  0  0  0  0  0  0
   -4.7192    1.1682   -1.6549 H   0  0  0  0  0  0  0  0  0  0  0  0
   -4.6352    4.0886   -2.6221 H   0  0  0  0  0  0  0  0  0  0  0  0
   -4.0976    2.6887   -3.5582 H   0  0  0  0  0  0  0  0  0  0  0  0
   -5.8111    2.8719   -3.1387 H   0  0  0  0  0  0  0  0  0  0  0  0
   -2.2466    1.5400   -1.4507 N   0  0  0  0  0  0  0  0  0  0  0  0
   -0.8424    1.5707   -1.1286 C   0  0  2  0  0  0  0  0  0  0  0  0
   -0.1458    0.4143   -1.8428 C   0  0  0  0  0  0  0  0  0  0  0  0
    0.0762    0.4104   -3.0520 O   0  0  0  0  0  0  0  0  0  0  0  0
   -0.5913    1.5911    0.3812 C   0  0  0  0  0  0  0  0  0  0  0  0
   -1.1911    3.0887    1.1998 S   0  0  0  0  0  0  0  0  0  0  0  0
   -2.5850    0.7815   -2.0381 H   0  0  0  0  0  0  0  0  0  0  0  0
   -0.4613    2.5044   -1.5606 H   0  0  0  0  0  0  0  0  0  0  0  0
   -1.0781    0.7371    0.8634 H   0  0  0  0  0  0  0  0  0  0  0  0
    0.4829    1.5157    0.5819 H   0  0  0  0  0  0  0  0  0  0  0  0
    0.1752   -0.6208   -0.9761 N   0  0  0  0  0  0  0  0  0  0  0  0
    0.8180   -1.8361   -1.4185 C   0  0  2  0  0  0  0  0  0  0  0  0
    0.3212   -2.9773   -0.5407 C   0  0  0  0  0  0  0  0  0  0  0  0
    0.0465   -2.8375    0.6493 O   0  0  0  0  0  0  0  0  0  0  0  0
    2.3326   -1.7175   -1.3501 C   0  0  0  0  0  0  0  0  0  0  0  0
   -0.0062   -0.5152    0.0176 H   0  0  0  0  0  0  0  0  0  0  0  0
    0.4986   -2.0045   -2.4527 H   0  0  0  0  0  0  0  0  0  0  0  0
    2.6714   -1.5485   -0.3214 H   0  0  0  0  0  0  0  0  0  0  0  0
    2.8188   -2.6292   -1.7126 H   0  0  0  0  0  0  0  0  0  0  0  0
    2.6856   -0.8778   -1.9584 H   0  0  0  0  0  0  0  0  0  0  0  0
    0.2619   -4.1794   -1.2316 N   0  0  0  0  0  0  0  0  0  0  0  0
   -0.1385   -5.4187   -0.6071 C   0  0  0  0  0  0  0  0  0  0  0  0
    0.4693   -4.1951   -2.2258 H   0  0  0  0  0  0  0  0  0  0  0  0
    0.7521   -5.9483   -0.2379 H   0  0  0  0  0  0  0  0  0  0  0  0
   -0.8124   -5.2036    0.2353 H   0  0  0  0  0  0  0  0  0  0  0  0
   -0.6605   -6.0480   -1.3429 H   0  0  0  0  0  0  0  0  0  0  0  0
  1  3  1  0  0  0  0
  1  7  1  0  0  0  0
  1  2  2  0  0  0  0
 23 25  1  0  0  0  0
 23 29  1  0  0  0  0
 23 24  2  0  0  0  0
 50 51  1  0  0  0  0
 51 59  1  0  0  0  0
 51 52  2  0  0  0  0
  8  9  1  0  0  0  0
  9 17  1  0  0  0  0
  9 10  2  0  0  0  0
 30 31  1  0  0  0  0
 31 39  1  0  0  0  0
 31 32  2  0  0  0  0
 40 41  1  0  0  0  0
 41 49  1  0  0  0  0
 41 42  2  0  0  0  0
 50 53  1  0  0  0  0
 30 33  1  0  0  0  0
 59 60  1  0  0  0  0
 17 18  1  0  0  0  0
  8 11  1  0  0  0  0
 11 12  1  0  0  0  0
 40 43  1  0  0  0  0
 43 44  1  0  0  0  0
 49 50  1  0  0  0  0
  7  8  1  0  0  0  0
 29 30  1  0  0  0  0
 39 40  1  0  0  0  0
 12 44  1  0  0  0  0
  3  4  1  0  0  0  0
  3  5  1  0  0  0  0
  3  6  1  0  0  0  0
 25 26  1  0  0  0  0
 25 27  1  0  0  0  0
 25 28  1  0  0  0  0
 53 56  1  0  0  0  0
 53 57  1  0  0  0  0
 53 58  1  0  0  0  0
 33 36  1  0  0  0  0
 33 37  1  0  0  0  0
 33 38  1  0  0  0  0
 60 62  1  0  0  0  0
 60 63  1  0  0  0  0
 60 64  1  0  0  0  0
 18 20  1  0  0  0  0
 18 21  1  0  0  0  0
 18 22  1  0  0  0  0
 11 15  1  0  0  0  0
 11 16  1  0  0  0  0
 43 47  1  0  0  0  0
 43 48  1  0  0  0  0
 50 55  1  0  0  0  0
  8 14  1  0  0  0  0
 30 35  1  0  0  0  0
 40 46  1  0  0  0  0
 59 61  1  0  0  0  0
 17 19  1  0  0  0  0
  7 13  1  0  0  0  0
 29 34  1  0  0  0  0
 49 54  1  0  0  0  0
 39 45  1  0  0  0  0
M  END
$$$$

  -OEChem-05262214473D

 64 63  0     1  0  0  0  0  0999 V2000
   -3.0551    3.3021    6.6358 C   0  0  0  0  0  0  0  0  0  0  0  0
   -4.2352    3.0434    6.4302 O   0  0  0  0  0  0  0  0  0  0  0  0
   -2.6966    4.4495    7.5208 C   0  0  0  0  0  0  0  0  0  0  0  0
   -2.5898    5.3936    6.9628 H   0  0  0  0  0  0  0  0  0  0  0  0
   -3.4659    4.6479    8.2843 H   0  0  0  0  0  0  0  0  0  0  0  0
   -1.7549    4.3360    8.0813 H   0  0  0  0  0  0  0  0  0  0  0  0
   -1.9655    2.6217    6.1203 N   0  0  0  0  0  0  0  0  0  0  0  0
   -2.0855    1.4828    5.2457 C   0  0  2  0  0  0  0  0  0  0  0  0
   -0.9475    0.5086    5.5433 C   0  0  0  0  0  0  0  0  0  0  0  0
   -0.0347    0.7642    6.3262 O   0  0  0  0  0  0  0  0  0  0  0  0
   -2.1690    1.8864    3.7715 C   0  0  0  0  0  0  0  0  0  0  0  0
   -0.6763    2.7322    3.1559 S   0  0  0  0  0  0  0  0  0  0  0  0
   -1.0329    2.9419    6.3715 H   0  0  0  0  0  0  0  0  0  0  0  0
   -3.0246    0.9913    5.5290 H   0  0  0  0  0  0  0  0  0  0  0  0
   -2.3303    1.0063    3.1406 H   0  0  0  0  0  0  0  0  0  0  0  0
   -3.0163    2.5632    3.6174 H   0  0  0  0  0  0  0  0  0  0  0  0
   -1.0584   -0.6667    4.8140 N   0  0  0  0  0  0  0  0  0  0  0  0
   -0.0891   -1.7337    4.9038 C   0  0  0  0  0  0  0  0  0  0  0  0
   -1.8701   -0.8125    4.2212 H   0  0  0  0  0  0  0  0  0  0  0  0
    0.6733   -1.6039    4.1216 H   0  0  0  0  0  0  0  0  0  0  0  0
    0.3923   -1.7092    5.8925 H   0  0  0  0  0  0  0  0  0  0  0  0
   -0.5948   -2.7008    4.7660 H   0  0  0  0  0  0  0  0  0  0  0  0
   -6.7256    2.0330   -0.2766 C   0  0  0  0  0  0  0  0  0  0  0  0
   -7.1824    1.1039   -0.9322 O   0  0  0  0  0  0  0  0  0  0  0  0
   -7.5276    2.6077    0.8435 C   0  0  0  0  0  0  0  0  0  0  0  0
   -8.1775    3.4344    0.5145 H   0  0  0  0  0  0  0  0  0  0  0  0
   -8.2057    1.8676    1.2980 H   0  0  0  0  0  0  0  0  0  0  0  0
   -6.9411    3.0162    1.6819 H   0  0  0  0  0  0  0  0  0  0  0  0
   -5.4935    2.6382   -0.4627 N   0  0  0  0  0  0  0  0  0  0  0  0
   -4.5619    2.2388   -1.4845 C   0  0  2  0  0  0  0  0  0  0  0  0
   -3.1535    2.4674   -0.9521 C   0  0  0  0  0  0  0  0  0  0  0  0
   -2.8634    3.3945   -0.1987 O   0  0  0  0  0  0  0  0  0  0  0  0
   -4.7883    3.0138   -2.7732 C   0  0  0  0  0  0  0  0  0  0  0  0
   -5.2337    3.4049    0.1551 H   0  0  0  0  0  0  0  0  0  0  0  0
   -4.7192    1.1682   -1.6549 H   0  0  0  0  0  0  0  0  0  0  0  0
   -4.6352    4.0886   -2.6221 H   0  0  0  0  0  0  0  0  0  0  0  0
   -4.0976    2.6887   -3.5582 H   0  0  0  0  0  0  0  0  0  0  0  0
   -5.8111    2.8719   -3.1387 H   0  0  0  0  0  0  0  0  0  0  0  0
   -2.2466    1.5400   -1.4507 N   0  0  0  0  0  0  0  0  0  0  0  0
   -0.8424    1.5707   -1.1286 C   0  0  2  0  0  0  0  0  0  0  0  0
   -0.1458    0.4143   -1.8428 C   0  0  0  0  0  0  0  0  0  0  0  0
    0.3155    0.5092   -2.9784 O   0  0  0  0  0  0  0  0  0  0  0  0
   -0.5913    1.5911    0.3812 C   0  0  0  0  0  0  0  0  0  0  0  0
   -1.1911    3.0887    1.1998 S   0  0  0  0  0  0  0  0  0  0  0  0
   -2.5850    0.7815   -2.0381 H   0  0  0  0  0  0  0  0  0  0  0  0
   -0.4613    2.5044   -1.5606 H   0  0  0  0  0  0  0  0  0  0  0  0
   -1.0781    0.7371    0.8634 H   0  0  0  0  0  0  0  0  0  0  0  0
    0.4829    1.5157    0.5819 H   0  0  0  0  0  0  0  0  0  0  0  0
   -0.1227   -0.7403   -1.0733 N   0  0  0  0  0  0  0  0  0  0  0  0
    0.4599   -1.9764   -1.5407 C   0  0  2  0  0  0  0  0  0  0  0  0
   -0.3266   -3.1280   -0.9285 C   0  0  0  0  0  0  0  0  0  0  0  0
   -0.8205   -3.0799    0.1962 O   0  0  0  0  0  0  0  0  0  0  0  0
    1.9326   -2.0678   -1.1729 C   0  0  0  0  0  0  0  0  0  0  0  0
   -0.4896   -0.7175   -0.1265 H   0  0  0  0  0  0  0  0  0  0  0  0
    0.3409   -1.9903   -2.6296 H   0  0  0  0  0  0  0  0  0  0  0  0
    2.0717   -2.0553   -0.0857 H   0  0  0  0  0  0  0  0  0  0  0  0
    2.3798   -2.9924   -1.5527 H   0  0  0  0  0  0  0  0  0  0  0  0
    2.4915   -1.2227   -1.5892 H   0  0  0  0  0  0  0  0  0  0  0  0
   -0.3753   -4.2316   -1.7686 N   0  0  0  0  0  0  0  0  0  0  0  0
   -1.0272   -5.4658   -1.3975 C   0  0  0  0  0  0  0  0  0  0  0  0
    0.0268   -4.1692   -2.6993 H   0  0  0  0  0  0  0  0  0  0  0  0
   -0.2935   -6.1452   -0.9391 H   0  0  0  0  0  0  0  0  0  0  0  0
   -1.8306   -5.2536   -0.6768 H   0  0  0  0  0  0  0  0  0  0  0  0
   -1.4544   -5.9387   -2.2941 H   0  0  0  0  0  0  0  0  0  0  0  0
  1  3  1  0  0  0  0
  1  7  1  0  0  0  0
  1  2  2  0  0  0  0
 23 25  1  0  0  0  0
 23 29  1  0  0  0  0
 23 24  2  0  0  0  0
 50 51  1  0  0  0  0
 51 59  1  0  0  0  0
 51 52  2  0  0  0  0
  8  9  1  0  0  0  0
  9 17  1  0  0  0  0
  9 10  2  0  0  0  0
 30 31  1  0  0  0  0
 31 39  1  0  0  0  0
 31 32  2  0  0  0  0
 40 41  1  0  0  0  0
 41 49  1  0  0  0  0
 41 42  2  0  0  0  0
 50 53  1  0  0  0  0
 30 33  1  0  0  0  0
 59 60  1  0  0  0  0
 17 18  1  0  0  0  0
  8 11  1  0  0  0  0
 11 12  1  0  0  0  0
 40 43  1  0  0  0  0
 43 44  1  0  0  0  0
 49 50  1  0  0  0  0
  7  8  1  0  0  0  0
 29 30  1  0  0  0  0
 39 40  1  0  0  0  0
 12 44  1  0  0  0  0
  3  4  1  0  0  0  0
  3  5  1  0  0  0  0
  3  6  1  0  0  0  0
 25 26  1  0  0  0  0
 25 27  1  0  0  0  0
 25 28  1  0  0  0  0
 53 56  1  0  0  0  0
 53 57  1  0  0  0  0
 53 58  1  0  0  0  0
 33 36  1  0  0  0  0
 33 37  1  0  0  0  0
 33 38  1  0  0  0  0
 60 62  1  0  0  0  0
 60 63  1  0  0  0  0
 60 64  1  0  0  0  0
 18 20  1  0  0  0  0
 18 21  1  0  0  0  0
 18 22  1  0  0  0  0
 11 15  1  0  0  0  0
 11 16  1  0  0  0  0
 43 47  1  0  0  0  0
 43 48  1  0  0  0  0
 50 55  1  0  0  0  0
  8 14  1  0  0  0  0
 30 35  1  0  0  0  0
 40 46  1  0  0  0  0
 59 61  1  0  0  0  0
 17 19  1  0  0  0  0
  7 13  1  0  0  0  0
 29 34  1  0  0  0  0
 49 54  1  0  0  0  0
 39 45  1  0  0  0  0
M  END
$$$$

  -OEChem-05262214473D

 64 63  0     1  0  0  0  0  0999 V2000
   -3.0551    3.3021    6.6358 C   0  0  0  0  0  0  0  0  0  0  0  0
   -4.2352    3.0434    6.4302 O   0  0  0  0  0  0  0  0  0  0  0  0
   -2.6966    4.4495    7.5208 C   0  0  0  0  0  0  0  0  0  0  0  0
   -2.5898    5.3936    6.9628 H   0  0  0  0  0  0  0  0  0  0  0  0
   -3.4659    4.6479    8.2843 H   0  0  0  0  0  0  0  0  0  0  0  0
   -1.7549    4.3360    8.0813 H   0  0  0  0  0  0  0  0  0  0  0  0
   -1.9655    2.6217    6.1203 N   0  0  0  0  0  0  0  0  0  0  0  0
   -2.0855    1.4828    5.2457 C   0  0  2  0  0  0  0  0  0  0  0  0
   -0.9475    0.5086    5.5433 C   0  0  0  0  0  0  0  0  0  0  0  0
   -0.0347    0.7642    6.3262 O   0  0  0  0  0  0  0  0  0  0  0  0
   -2.1690    1.8864    3.7715 C   0  0  0  0  0  0  0  0  0  0  0  0
   -0.6763    2.7322    3.1559 S   0  0  0  0  0  0  0  0  0  0  0  0
   -1.0329    2.9419    6.3715 H   0  0  0  0  0  0  0  0  0  0  0  0
   -3.0246    0.9913    5.5290 H   0  0  0  0  0  0  0  0  0  0  0  0
   -2.3303    1.0063    3.1406 H   0  0  0  0  0  0  0  0  0  0  0  0
   -3.0163    2.5632    3.6174 H   0  0  0  0  0  0  0  0  0  0  0  0
   -1.0584   -0.6667    4.8140 N   0  0  0  0  0  0  0  0  0  0  0  0
   -0.0891   -1.7337    4.9038 C   0  0  0  0  0  0  0  0  0  0  0  0
   -1.8701   -0.8125    4.2212 H   0  0  0  0  0  0  0  0  0  0  0  0
    0.6733   -1.6039    4.1216 H   0  0  0  0  0  0  0  0  0  0  0  0
    0.3923   -1.7092    5.8925 H   0  0  0  0  0  0  0  0  0  0  0  0
   -0.5948   -2.7008    4.7660 H   0  0  0  0  0  0  0  0  0  0  0  0
   -6.7256    2.0330   -0.2766 C   0  0  0  0  0  0  0  0  0  0  0  0
   -7.1824    1.1039   -0.9322 O   0  0  0  0  0  0  0  0  0  0  0  0
   -7.5276    2.6077    0.8435 C   0  0  0  0  0  0  0  0  0  0  0  0
   -8.1775    3.4344    0.5145 H   0  0  0  0  0  0  0  0  0  0  0  0
   -8.2057    1.8676    1.2980 H   0  0  0  0  0  0  0  0  0  0  0  0
   -6.9411    3.0162    1.6819 H   0  0  0  0  0  0  0  0  0  0  0  0
   -5.4935    2.6382   -0.4627 N   0  0  0  0  0  0  0  0  0  0  0  0
   -4.5619    2.2388   -1.4845 C   0  0  2  0  0  0  0  0  0  0  0  0
   -3.1535    2.4674   -0.9521 C   0  0  0  0  0  0  0  0  0  0  0  0
   -2.8634    3.3945   -0.1987 O   0  0  0  0  0  0  0  0  0  0  0  0
   -4.7883    3.0138   -2.7732 C   0  0  0  0  0  0  0  0  0  0  0  0
   -5.2337    3.4049    0.1551 H   0  0  0  0  0  0  0  0  0  0  0  0
   -4.7192    1.1682   -1.6549 H   0  0  0  0  0  0  0  0  0  0  0  0
   -4.6352    4.0886   -2.6221 H   0  0  0  0  0  0  0  0  0  0  0  0
   -4.0976    2.6887   -3.5582 H   0  0  0  0  0  0  0  0  0  0  0  0
   -5.8111    2.8719   -3.1387 H   0  0  0  0  0  0  0  0  0  0  0  0
   -2.2466    1.5400   -1.4507 N   0  0  0  0  0  0  0  0  0  0  0  0
   -0.8424    1.5707   -1.1286 C   0  0  2  0  0  0  0  0  0  0  0  0
   -0.1458    0.4143   -1.8428 C   0  0  0  0  0  0  0  0  0  0  0  0
    0.5442    0.5669   -2.8487 O   0  0  0  0  0  0  0  0  0  0  0  0
   -0.5913    1.5911    0.3812 C   0  0  0  0  0  0  0  0  0  0  0  0
   -1.1911    3.0887    1.1998 S   0  0  0  0  0  0  0  0  0  0  0  0
   -2.5850    0.7815   -2.0381 H   0  0  0  0  0  0  0  0  0  0  0  0
   -0.4613    2.5044   -1.5606 H   0  0  0  0  0  0  0  0  0  0  0  0
   -1.0781    0.7371    0.8634 H   0  0  0  0  0  0  0  0  0  0  0  0
    0.4829    1.5157    0.5819 H   0  0  0  0  0  0  0  0  0  0  0  0
   -0.4058   -0.8081   -1.2397 N   0  0  0  0  0  0  0  0  0  0  0  0
    0.1209   -2.0541   -1.7455 C   0  0  2  0  0  0  0  0  0  0  0  0
   -0.8946   -3.1494   -1.4478 C   0  0  0  0  0  0  0  0  0  0  0  0
   -1.5985   -3.1556   -0.4401 O   0  0  0  0  0  0  0  0  0  0  0  0
    1.4692   -2.3788   -1.1215 C   0  0  0  0  0  0  0  0  0  0  0  0
   -0.9528   -0.8372   -0.3843 H   0  0  0  0  0  0  0  0  0  0  0  0
    0.2249   -1.9366   -2.8296 H   0  0  0  0  0  0  0  0  0  0  0  0
    1.3849   -2.5001   -0.0354 H   0  0  0  0  0  0  0  0  0  0  0  0
    1.8804   -3.3091   -1.5271 H   0  0  0  0  0  0  0  0  0  0  0  0
    2.1899   -1.5760   -1.3112 H   0  0  0  0  0  0  0  0  0  0  0  0
   -0.8918   -4.1414   -2.4184 N   0  0  0  0  0  0  0  0  0  0  0  0
   -1.7364   -5.3104   -2.3407 C   0  0  0  0  0  0  0  0  0  0  0  0
   -0.3046   -4.0347   -3.2403 H   0  0  0  0  0  0  0  0  0  0  0  0
   -1.1899   -6.1260   -1.8445 H   0  0  0  0  0  0  0  0  0  0  0  0
   -2.6414   -5.0710   -1.7632 H   0  0  0  0  0  0  0  0  0  0  0  0
   -2.0215   -5.6247   -3.3556 H   0  0  0  0  0  0  0  0  0  0  0  0
  1  3  1  0  0  0  0
  1  7  1  0  0  0  0
  1  2  2  0  0  0  0
 23 25  1  0  0  0  0
 23 29  1  0  0  0  0
 23 24  2  0  0  0  0
 50 51  1  0  0  0  0
 51 59  1  0  0  0  0
 51 52  2  0  0  0  0
  8  9  1  0  0  0  0
  9 17  1  0  0  0  0
  9 10  2  0  0  0  0
 30 31  1  0  0  0  0
 31 39  1  0  0  0  0
 31 32  2  0  0  0  0
 40 41  1  0  0  0  0
 41 49  1  0  0  0  0
 41 42  2  0  0  0  0
 50 53  1  0  0  0  0
 30 33  1  0  0  0  0
 59 60  1  0  0  0  0
 17 18  1  0  0  0  0
  8 11  1  0  0  0  0
 11 12  1  0  0  0  0
 40 43  1  0  0  0  0
 43 44  1  0  0  0  0
 49 50  1  0  0  0  0
  7  8  1  0  0  0  0
 29 30  1  0  0  0  0
 39 40  1  0  0  0  0
 12 44  1  0  0  0  0
  3  4  1  0  0  0  0
  3  5  1  0  0  0  0
  3  6  1  0  0  0  0
 25 26  1  0  0  0  0
 25 27  1  0  0  0  0
 25 28  1  0  0  0  0
 53 56  1  0  0  0  0
 53 57  1  0  0  0  0
 53 58  1  0  0  0  0
 33 36  1  0  0  0  0
 33 37  1  0  0  0  0
 33 38  1  0  0  0  0
 60 62  1  0  0  0  0
 60 63  1  0  0  0  0
 60 64  1  0  0  0  0
 18 20  1  0  0  0  0
 18 21  1  0  0  0  0
 18 22  1  0  0  0  0
 11 15  1  0  0  0  0
 11 16  1  0  0  0  0
 43 47  1  0  0  0  0
 43 48  1  0  0  0  0
 50 55  1  0  0  0  0
  8 14  1  0  0  0  0
 30 35  1  0  0  0  0
 40 46  1  0  0  0  0
 59 61  1  0  0  0  0
 17 19  1  0  0  0  0
  7 13  1  0  0  0  0
 29 34  1  0  0  0  0
 49 54  1  0  0  0  0
 39 45  1  0  0  0  0
M  END
$$$$

  -OEChem-05262214473D

 64 63  0     1  0  0  0  0  0999 V2000
   -3.0551    3.3021    6.6358 C   0  0  0  0  0  0  0  0  0  0  0  0
   -4.2352    3.0434    6.4302 O   0  0  0  0  0  0  0  0  0  0  0  0
   -2.6966    4.4495    7.5208 C   0  0  0  0  0  0  0  0  0  0  0  0
   -2.5898    5.3936    6.9628 H   0  0  0  0  0  0  0  0  0  0  0  0
   -3.4659    4.6479    8.2843 H   0  0  0  0  0  0  0  0  0  0  0  0
   -1.7549    4.3360    8.0813 H   0  0  0  0  0  0  0  0  0  0  0  0
   -1.9655    2.6217    6.1203 N   0  0  0  0  0  0  0  0  0  0  0  0
   -2.0855    1.4828    5.2457 C   0  0  2  0  0  0  0  0  0  0  0  0
   -0.9475    0.5086    5.5433 C   0  0  0  0  0  0  0  0  0  0  0  0
   -0.0347    0.7642    6.3262 O   0  0  0  0  0  0  0  0  0  0  0  0
   -2.1690    1.8864    3.7715 C   0  0  0  0  0  0  0  0  0  0  0  0
   -0.6763    2.7322    3.1559 S   0  0  0  0  0  0  0  0  0  0  0  0
   -1.0329    2.9419    6.3715 H   0  0  0  0  0  0  0  0  0  0  0  0
   -3.0246    0.9913    5.5290 H   0  0  0  0  0  0  0  0  0  0  0  0
   -2.3303    1.0063    3.1406 H   0  0  0  0  0  0  0  0  0  0  0  0
   -3.0163    2.5632    3.6174 H   0  0  0  0  0  0  0  0  0  0  0  0
   -1.0584   -0.6667    4.8140 N   0  0  0  0  0  0  0  0  0  0  0  0
   -0.0891   -1.7337    4.9038 C   0  0  0  0  0  0  0  0  0  0  0  0
   -1.8701   -0.8125    4.2212 H   0  0  0  0  0  0  0  0  0  0  0  0
    0.6733   -1.6039    4.1216 H   0  0  0  0  0  0  0  0  0  0  0  0
    0.3923   -1.7092    5.8925 H   0  0  0  0  0  0  0  0  0  0  0  0
   -0.5948   -2.7008    4.7660 H   0  0  0  0  0  0  0  0  0  0  0  0
   -6.7256    2.0330   -0.2766 C   0  0  0  0  0  0  0  0  0  0  0  0
   -7.1824    1.1039   -0.9322 O   0  0  0  0  0  0  0  0  0  0  0  0
   -7.5276    2.6077    0.8435 C   0  0  0  0  0  0  0  0  0  0  0  0
   -8.1775    3.4344    0.5145 H   0  0  0  0  0  0  0  0  0  0  0  0
   -8.2057    1.8676    1.2980 H   0  0  0  0  0  0  0  0  0  0  0  0
   -6.9411    3.0162    1.6819 H   0  0  0  0  0  0  0  0  0  0  0  0
   -5.4935    2.6382   -0.4627 N   0  0  0  0  0  0  0  0  0  0  0  0
   -4.5619    2.2388   -1.4845 C   0  0  2  0  0  0  0  0  0  0  0  0
   -3.1535    2.4674   -0.9521 C   0  0  0  0  0  0  0  0  0  0  0  0
   -2.8634    3.3945   -0.1987 O   0  0  0  0  0  0  0  0  0  0  0  0
   -4.7883    3.0138   -2.7732 C   0  0  0  0  0  0  0  0  0  0  0  0
   -5.2337    3.4049    0.1551 H   0  0  0  0  0  0  0  0  0  0  0  0
   -4.7192    1.1682   -1.6549 H   0  0  0  0  0  0  0  0  0  0  0  0
   -4.6352    4.0886   -2.6221 H   0  0  0  0  0  0  0  0  0  0  0  0
   -4.0976    2.6887   -3.5582 H   0  0  0  0  0  0  0  0  0  0  0  0
   -5.8111    2.8719   -3.1387 H   0  0  0  0  0  0  0  0  0  0  0  0
   -2.2466    1.5400   -1.4507 N   0  0  0  0  0  0  0  0  0  0  0  0
   -0.8424    1.5707   -1.1286 C   0  0  2  0  0  0  0  0  0  0  0  0
   -0.1458    0.4143   -1.8428 C   0  0  0  0  0  0  0  0  0  0  0  0
    0.7467    0.5796   -2.6719 O   0  0  0  0  0  0  0  0  0  0  0  0
   -0.5913    1.5911    0.3812 C   0  0  0  0  0  0  0  0  0  0  0  0
   -1.1911    3.0887    1.1998 S   0  0  0  0  0  0  0  0  0  0  0  0
   -2.5850    0.7815   -2.0381 H   0  0  0  0  0  0  0  0  0  0  0  0
   -0.4613    2.5044   -1.5606 H   0  0  0  0  0  0  0  0  0  0  0  0
   -1.0781    0.7371    0.8634 H   0  0  0  0  0  0  0  0  0  0  0  0
    0.4829    1.5157    0.5819 H   0  0  0  0  0  0  0  0  0  0  0  0
   -0.6550   -0.8197   -1.4638 N   0  0  0  0  0  0  0  0  0  0  0  0
   -0.1758   -2.0639   -2.0189 C   0  0  2  0  0  0  0  0  0  0  0  0
   -1.3440   -3.0400   -2.0633 C   0  0  0  0  0  0  0  0  0  0  0  0
   -2.2344   -3.0594   -1.2160 O   0  0  0  0  0  0  0  0  0  0  0  0
    0.9738   -2.6291   -1.1993 C   0  0  0  0  0  0  0  0  0  0  0  0
   -1.3642   -0.8664   -0.7382 H   0  0  0  0  0  0  0  0  0  0  0  0
    0.1586   -1.8470   -3.0393 H   0  0  0  0  0  0  0  0  0  0  0  0
    0.6578   -2.8526   -0.1738 H   0  0  0  0  0  0  0  0  0  0  0  0
    1.3547   -3.5575   -1.6376 H   0  0  0  0  0  0  0  0  0  0  0  0
    1.8014   -1.9136   -1.1436 H   0  0  0  0  0  0  0  0  0  0  0  0
   -1.2525   -3.9151   -3.1366 N   0  0  0  0  0  0  0  0  0  0  0  0
   -2.2178   -4.9632   -3.3725 C   0  0  0  0  0  0  0  0  0  0  0  0
   -0.5024   -3.8008   -3.8119 H   0  0  0  0  0  0  0  0  0  0  0  0
   -1.8760   -5.8920   -2.8924 H   0  0  0  0  0  0  0  0  0  0  0  0
   -3.1896   -4.6683   -2.9499 H   0  0  0  0  0  0  0  0  0  0  0  0
   -2.3233   -5.1274   -4.4550 H   0  0  0  0  0  0  0  0  0  0  0  0
  1  3  1  0  0  0  0
  1  7  1  0  0  0  0
  1  2  2  0  0  0  0
 23 25  1  0  0  0  0
 23 29  1  0  0  0  0
 23 24  2  0  0  0  0
 50 51  1  0  0  0  0
 51 59  1  0  0  0  0
 51 52  2  0  0  0  0
  8  9  1  0  0  0  0
  9 17  1  0  0  0  0
  9 10  2  0  0  0  0
 30 31  1  0  0  0  0
 31 39  1  0  0  0  0
 31 32  2  0  0  0  0
 40 41  1  0  0  0  0
 41 49  1  0  0  0  0
 41 42  2  0  0  0  0
 50 53  1  0  0  0  0
 30 33  1  0  0  0  0
 59 60  1  0  0  0  0
 17 18  1  0  0  0  0
  8 11  1  0  0  0  0
 11 12  1  0  0  0  0
 40 43  1  0  0  0  0
 43 44  1  0  0  0  0
 49 50  1  0  0  0  0
  7  8  1  0  0  0  0
 29 30  1  0  0  0  0
 39 40  1  0  0  0  0
 12 44  1  0  0  0  0
  3  4  1  0  0  0  0
  3  5  1  0  0  0  0
  3  6  1  0  0  0  0
 25 26  1  0  0  0  0
 25 27  1  0  0  0  0
 25 28  1  0  0  0  0
 53 56  1  0  0  0  0
 53 57  1  0  0  0  0
 53 58  1  0  0  0  0
 33 36  1  0  0  0  0
 33 37  1  0  0  0  0
 33 38  1  0  0  0  0
 60 62  1  0  0  0  0
 60 63  1  0  0  0  0
 60 64  1  0  0  0  0
 18 20  1  0  0  0  0
 18 21  1  0  0  0  0
 18 22  1  0  0  0  0
 11 15  1  0  0  0  0
 11 16  1  0  0  0  0
 43 47  1  0  0  0  0
 43 48  1  0  0  0  0
 50 55  1  0  0  0  0
  8 14  1  0  0  0  0
 30 35  1  0  0  0  0
 40 46  1  0  0  0  0
 59 61  1  0  0  0  0
 17 19  1  0  0  0  0
  7 13  1  0  0  0  0
 29 34  1  0  0  0  0
 49 54  1  0  0  0  0
 39 45  1  0  0  0  0
M  END
$$$$

  -OEChem-05262214473D

 64 63  0     1  0  0  0  0  0999 V2000
   -3.0551    3.3021    6.6358 C   0  0  0  0  0  0  0  0  0  0  0  0
   -4.2352    3.0434    6.4302 O   0  0  0  0  0  0  0  0  0  0  0  0
   -2.6966    4.4495    7.5208 C   0  0  0  0  0  0  0  0  0  0  0  0
   -2.5898    5.3936    6.9628 H   0  0  0  0  0  0  0  0  0  0  0  0
   -3.4659    4.6479    8.2843 H   0  0  0  0  0  0  0  0  0  0  0  0
   -1.7549    4.3360    8.0813 H   0  0  0  0  0  0  0  0  0  0  0  0
   -1.9655    2.6217    6.1203 N   0  0  0  0  0  0  0  0  0  0  0  0
   -2.0855    1.4828    5.2457 C   0  0  2  0  0  0  0  0  0  0  0  0
   -0.9475    0.5086    5.5433 C   0  0  0  0  0  0  0  0  0  0  0  0
   -0.0347    0.7642    6.3262 O   0  0  0  0  0  0  0  0  0  0  0  0
   -2.1690    1.8864    3.7715 C   0  0  0  0  0  0  0  0  0  0  0  0
   -0.6763    2.7322    3.1559 S   0  0  0  0  0  0  0  0  0  0  0  0
   -1.0329    2.9419    6.3715 H   0  0  0  0  0  0  0  0  0  0  0  0
   -3.0246    0.9913    5.5290 H   0  0  0  0  0  0  0  0  0  0  0  0
   -2.3303    1.0063    3.1406 H   0  0  0  0  0  0  0  0  0  0  0  0
   -3.0163    2.5632    3.6174 H   0  0  0  0  0  0  0  0  0  0  0  0
   -1.0584   -0.6667    4.8140 N   0  0  0  0  0  0  0  0  0  0  0  0
   -0.0891   -1.7337    4.9038 C   0  0  0  0  0  0  0  0  0  0  0  0
   -1.8701   -0.8125    4.2212 H   0  0  0  0  0  0  0  0  0  0  0  0
    0.6733   -1.6039    4.1216 H   0  0  0  0  0  0  0  0  0  0  0  0
    0.3923   -1.7092    5.8925 H   0  0  0  0  0  0  0  0  0  0  0  0
   -0.5948   -2.7008    4.7660 H   0  0  0  0  0  0  0  0  0  0  0  0
   -6.7256    2.0330   -0.2766 C   0  0  0  0  0  0  0  0  0  0  0  0
   -7.1824    1.1039   -0.9322 O   0  0  0  0  0  0  0  0  0  0  0  0
   -7.5276    2.6077    0.8435 C   0  0  0  0  0  0  0  0  0  0  0  0
   -8.1775    3.4344    0.5145 H   0  0  0  0  0  0  0  0  0  0  0  0
   -8.2057    1.8676    1.2980 H   0  0  0  0  0  0  0  0  0  0  0  0
   -6.9411    3.0162    1.6819 H   0  0  0  0  0  0  0  0  0  0  0  0
   -5.4935    2.6382   -0.4627 N   0  0  0  0  0  0  0  0  0  0  0  0
   -4.5619    2.2388   -1.4845 C   0  0  2  0  0  0  0  0  0  0  0  0
   -3.1535    2.4674   -0.9521 C   0  0  0  0  0  0  0  0  0  0  0  0
   -2.8634    3.3945   -0.1987 O   0  0  0  0  0  0  0  0  0  0  0  0
   -4.7883    3.0138   -2.7732 C   0  0  0  0  0  0  0  0  0  0  0  0
   -5.2337    3.4049    0.1551 H   0  0  0  0  0  0  0  0  0  0  0  0
   -4.7192    1.1682   -1.6549 H   0  0  0  0  0  0  0  0  0  0  0  0
   -4.6352    4.0886   -2.6221 H   0  0  0  0  0  0  0  0  0  0  0  0
   -4.0976    2.6887   -3.5582 H   0  0  0  0  0  0  0  0  0  0  0  0
   -5.8111    2.8719   -3.1387 H   0  0  0  0  0  0  0  0  0  0  0  0
   -2.2466    1.5400   -1.4507 N   0  0  0  0  0  0  0  0  0  0  0  0
   -0.8424    1.5707   -1.1286 C   0  0  2  0  0  0  0  0  0  0  0  0
   -0.1458    0.4143   -1.8428 C   0  0  0  0  0  0  0  0  0  0  0  0
    0.9092    0.5466   -2.4599 O   0  0  0  0  0  0  0  0  0  0  0  0
   -0.5913    1.5911    0.3812 C   0  0  0  0  0  0  0  0  0  0  0  0
   -1.1911    3.0887    1.1998 S   0  0  0  0  0  0  0  0  0  0  0  0
   -2.5850    0.7815   -2.0381 H   0  0  0  0  0  0  0  0  0  0  0  0
   -0.4613    2.5044   -1.5606 H   0  0  0  0  0  0  0  0  0  0  0  0
   -1.0781    0.7371    0.8634 H   0  0  0  0  0  0  0  0  0  0  0  0
    0.4829    1.5157    0.5819 H   0  0  0  0  0  0  0  0  0  0  0  0
   -0.8531   -0.7743   -1.7306 N   0  0  0  0  0  0  0  0  0  0  0  0
   -0.4100   -2.0052   -2.3423 C   0  0  2  0  0  0  0  0  0  0  0  0
   -1.6443   -2.8072   -2.7330 C   0  0  0  0  0  0  0  0  0  0  0  0
   -2.6850   -2.7980   -2.0788 O   0  0  0  0  0  0  0  0  0  0  0  0
    0.4803   -2.8017   -1.4012 C   0  0  0  0  0  0  0  0  0  0  0  0
   -1.6957   -0.8031   -1.1642 H   0  0  0  0  0  0  0  0  0  0  0  0
    0.1465   -1.7278   -3.2442 H   0  0  0  0  0  0  0  0  0  0  0  0
   -0.0600   -3.0887   -0.4917 H   0  0  0  0  0  0  0  0  0  0  0  0
    0.8385   -3.7207   -1.8767 H   0  0  0  0  0  0  0  0  0  0  0  0
    1.3524   -2.2125   -1.0977 H   0  0  0  0  0  0  0  0  0  0  0  0
   -1.4327   -3.5681   -3.8743 N   0  0  0  0  0  0  0  0  0  0  0  0
   -2.4386   -4.4477   -4.4224 C   0  0  0  0  0  0  0  0  0  0  0  0
   -0.5532   -3.4835   -4.3752 H   0  0  0  0  0  0  0  0  0  0  0  0
   -2.3051   -5.4593   -4.0115 H   0  0  0  0  0  0  0  0  0  0  0  0
   -3.4378   -4.0728   -4.1561 H   0  0  0  0  0  0  0  0  0  0  0  0
   -2.3392   -4.4808   -5.5174 H   0  0  0  0  0  0  0  0  0  0  0  0
  1  3  1  0  0  0  0
  1  7  1  0  0  0  0
  1  2  2  0  0  0  0
 23 25  1  0  0  0  0
 23 29  1  0  0  0  0
 23 24  2  0  0  0  0
 50 51  1  0  0  0  0
 51 59  1  0  0  0  0
 51 52  2  0  0  0  0
  8  9  1  0  0  0  0
  9 17  1  0  0  0  0
  9 10  2  0  0  0  0
 30 31  1  0  0  0  0
 31 39  1  0  0  0  0
 31 32  2  0  0  0  0
 40 41  1  0  0  0  0
 41 49  1  0  0  0  0
 41 42  2  0  0  0  0
 50 53  1  0  0  0  0
 30 33  1  0  0  0  0
 59 60  1  0  0  0  0
 17 18  1  0  0  0  0
  8 11  1  0  0  0  0
 11 12  1  0  0  0  0
 40 43  1  0  0  0  0
 43 44  1  0  0  0  0
 49 50  1  0  0  0  0
  7  8  1  0  0  0  0
 29 30  1  0  0  0  0
 39 40  1  0  0  0  0
 12 44  1  0  0  0  0
  3  4  1  0  0  0  0
  3  5  1  0  0  0  0
  3  6  1  0  0  0  0
 25 26  1  0  0  0  0
 25 27  1  0  0  0  0
 25 28  1  0  0  0  0
 53 56  1  0  0  0  0
 53 57  1  0  0  0  0
 53 58  1  0  0  0  0
 33 36  1  0  0  0  0
 33 37  1  0  0  0  0
 33 38  1  0  0  0  0
 60 62  1  0  0  0  0
 60 63  1  0  0  0  0
 60 64  1  0  0  0  0
 18 20  1  0  0  0  0
 18 21  1  0  0  0  0
 18 22  1  0  0  0  0
 11 15  1  0  0  0  0
 11 16  1  0  0  0  0
 43 47  1  0  0  0  0
 43 48  1  0  0  0  0
 50 55  1  0  0  0  0
  8 14  1  0  0  0  0
 30 35  1  0  0  0  0
 40 46  1  0  0  0  0
 59 61  1  0  0  0  0
 17 19  1  0  0  0  0
  7 13  1  0  0  0  0
 29 34  1  0  0  0  0
 49 54  1  0  0  0  0
 39 45  1  0  0  0  0
M  END
$$$$

  -OEChem-05262214473D

 64 63  0     1  0  0  0  0  0999 V2000
   -3.0551    3.3021    6.6358 C   0  0  0  0  0  0  0  0  0  0  0  0
   -4.2352    3.0434    6.4302 O   0  0  0  0  0  0  0  0  0  0  0  0
   -2.6966    4.4495    7.5208 C   0  0  0  0  0  0  0  0  0  0  0  0
   -2.5898    5.3936    6.9628 H   0  0  0  0  0  0  0  0  0  0  0  0
   -3.4659    4.6479    8.2843 H   0  0  0  0  0  0  0  0  0  0  0  0
   -1.7549    4.3360    8.0813 H   0  0  0  0  0  0  0  0  0  0  0  0
   -1.9655    2.6217    6.1203 N   0  0  0  0  0  0  0  0  0  0  0  0
   -2.0855    1.4828    5.2457 C   0  0  2  0  0  0  0  0  0  0  0  0
   -0.9475    0.5086    5.5433 C   0  0  0  0  0  0  0  0  0  0  0  0
   -0.0347    0.7642    6.3262 O   0  0  0  0  0  0  0  0  0  0  0  0
   -2.1690    1.8864    3.7715 C   0  0  0  0  0  0  0  0  0  0  0  0
   -0.6763    2.7322    3.1559 S   0  0  0  0  0  0  0  0  0  0  0  0
   -1.0329    2.9419    6.3715 H   0  0  0  0  0  0  0  0  0  0  0  0
   -3.0246    0.9913    5.5290 H   0  0  0  0  0  0  0  0  0  0  0  0
   -2.3303    1.0063    3.1406 H   0  0  0  0  0  0  0  0  0  0  0  0
   -3.0163    2.5632    3.6174 H   0  0  0  0  0  0  0  0  0  0  0  0
   -1.0584   -0.6667    4.8140 N   0  0  0  0  0  0  0  0  0  0  0  0
   -0.0891   -1.7337    4.9038 C   0  0  0  0  0  0  0  0  0  0  0  0
   -1.8701   -0.8125    4.2212 H   0  0  0  0  0  0  0  0  0  0  0  0
    0.6733   -1.6039    4.1216 H   0  0  0  0  0  0  0  0  0  0  0  0
    0.3923   -1.7092    5.8925 H   0  0  0  0  0  0  0  0  0  0  0  0
   -0.5948   -2.7008    4.7660 H   0  0  0  0  0  0  0  0  0  0  0  0
   -6.7256    2.0330   -0.2766 C   0  0  0  0  0  0  0  0  0  0  0  0
   -7.1824    1.1039   -0.9322 O   0  0  0  0  0  0  0  0  0  0  0  0
   -7.5276    2.6077    0.8435 C   0  0  0  0  0  0  0  0  0  0  0  0
   -8.1775    3.4344    0.5145 H   0  0  0  0  0  0  0  0  0  0  0  0
   -8.2057    1.8676    1.2980 H   0  0  0  0  0  0  0  0  0  0  0  0
   -6.9411    3.0162    1.6819 H   0  0  0  0  0  0  0  0  0  0  0  0
   -5.4935    2.6382   -0.4627 N   0  0  0  0  0  0  0  0  0  0  0  0
   -4.5619    2.2388   -1.4845 C   0  0  2  0  0  0  0  0  0  0  0  0
   -3.1535    2.4674   -0.9521 C   0  0  0  0  0  0  0  0  0  0  0  0
   -2.8634    3.3945   -0.1987 O   0  0  0  0  0  0  0  0  0  0  0  0
   -4.7883    3.0138   -2.7732 C   0  0  0  0  0  0  0  0  0  0  0  0
   -5.2337    3.4049    0.1551 H   0  0  0  0  0  0  0  0  0  0  0  0
   -4.7192    1.1682   -1.6549 H   0  0  0  0  0  0  0  0  0  0  0  0
   -4.6352    4.0886   -2.6221 H   0  0  0  0  0  0  0  0  0  0  0  0
   -4.0976    2.6887   -3.5582 H   0  0  0  0  0  0  0  0  0  0  0  0
   -5.8111    2.8719   -3.1387 H   0  0  0  0  0  0  0  0  0  0  0  0
   -2.2466    1.5400   -1.4507 N   0  0  0  0  0  0  0  0  0  0  0  0
   -0.8424    1.5707   -1.1286 C   0  0  2  0  0  0  0  0  0  0  0  0
   -0.1458    0.4143   -1.8428 C   0  0  0  0  0  0  0  0  0  0  0  0
    1.0206    0.4699   -2.2272 O   0  0  0  0  0  0  0  0  0  0  0  0
   -0.5913    1.5911    0.3812 C   0  0  0  0  0  0  0  0  0  0  0  0
   -1.1911    3.0887    1.1998 S   0  0  0  0  0  0  0  0  0  0  0  0
   -2.5850    0.7815   -2.0381 H   0  0  0  0  0  0  0  0  0  0  0  0
   -0.4613    2.5044   -1.5606 H   0  0  0  0  0  0  0  0  0  0  0  0
   -1.0781    0.7371    0.8634 H   0  0  0  0  0  0  0  0  0  0  0  0
    0.4829    1.5157    0.5819 H   0  0  0  0  0  0  0  0  0  0  0  0
   -0.9867   -0.6750   -2.0217 N   0  0  0  0  0  0  0  0  0  0  0  0
   -0.5657   -1.8820   -2.6937 C   0  0  2  0  0  0  0  0  0  0  0  0
   -1.7750   -2.4671   -3.4112 C   0  0  0  0  0  0  0  0  0  0  0  0
   -2.9195   -2.3891   -2.9696 O   0  0  0  0  0  0  0  0  0  0  0  0
    0.0223   -2.8849   -1.7132 C   0  0  0  0  0  0  0  0  0  0  0  0
   -1.9249   -0.6515   -1.6331 H   0  0  0  0  0  0  0  0  0  0  0  0
    0.1894   -1.5869   -3.4304 H   0  0  0  0  0  0  0  0  0  0  0  0
   -0.7197   -3.1924   -0.9673 H   0  0  0  0  0  0  0  0  0  0  0  0
    0.3670   -3.7877   -2.2280 H   0  0  0  0  0  0  0  0  0  0  0  0
    0.8735   -2.4522   -1.1766 H   0  0  0  0  0  0  0  0  0  0  0  0
   -1.4203   -3.1240   -4.5812 N   0  0  0  0  0  0  0  0  0  0  0  0
   -2.3837   -3.7992   -5.4190 C   0  0  0  0  0  0  0  0  0  0  0  0
   -0.4534   -3.1043   -4.8918 H   0  0  0  0  0  0  0  0  0  0  0  0
   -2.4479   -4.8573   -5.1254 H   0  0  0  0  0  0  0  0  0  0  0  0
   -3.3692   -3.3252   -5.2996 H   0  0  0  0  0  0  0  0  0  0  0  0
   -2.0680   -3.7289   -6.4704 H   0  0  0  0  0  0  0  0  0  0  0  0
  1  3  1  0  0  0  0
  1  7  1  0  0  0  0
  1  2  2  0  0  0  0
 23 25  1  0  0  0  0
 23 29  1  0  0  0  0
 23 24  2  0  0  0  0
 50 51  1  0  0  0  0
 51 59  1  0  0  0  0
 51 52  2  0  0  0  0
  8  9  1  0  0  0  0
  9 17  1  0  0  0  0
  9 10  2  0  0  0  0
 30 31  1  0  0  0  0
 31 39  1  0  0  0  0
 31 32  2  0  0  0  0
 40 41  1  0  0  0  0
 41 49  1  0  0  0  0
 41 42  2  0  0  0  0
 50 53  1  0  0  0  0
 30 33  1  0  0  0  0
 59 60  1  0  0  0  0
 17 18  1  0  0  0  0
  8 11  1  0  0  0  0
 11 12  1  0  0  0  0
 40 43  1  0  0  0  0
 43 44  1  0  0  0  0
 49 50  1  0  0  0  0
  7  8  1  0  0  0  0
 29 30  1  0  0  0  0
 39 40  1  0  0  0  0
 12 44  1  0  0  0  0
  3  4  1  0  0  0  0
  3  5  1  0  0  0  0
  3  6  1  0  0  0  0
 25 26  1  0  0  0  0
 25 27  1  0  0  0  0
 25 28  1  0  0  0  0
 53 56  1  0  0  0  0
 53 57  1  0  0  0  0
 53 58  1  0  0  0  0
 33 36  1  0  0  0  0
 33 37  1  0  0  0  0
 33 38  1  0  0  0  0
 60 62  1  0  0  0  0
 60 63  1  0  0  0  0
 60 64  1  0  0  0  0
 18 20  1  0  0  0  0
 18 21  1  0  0  0  0
 18 22  1  0  0  0  0
 11 15  1  0  0  0  0
 11 16  1  0  0  0  0
 43 47  1  0  0  0  0
 43 48  1  0  0  0  0
 50 55  1  0  0  0  0
  8 14  1  0  0  0  0
 30 35  1  0  0  0  0
 40 46  1  0  0  0  0
 59 61  1  0  0  0  0
 17 19  1  0  0  0  0
  7 13  1  0  0  0  0
 29 34  1  0  0  0  0
 49 54  1  0  0  0  0
 39 45  1  0  0  0  0
M  END
$$$$

  -OEChem-05262214473D

 64 63  0     1  0  0  0  0  0999 V2000
   -3.0551    3.3021    6.6358 C   0  0  0  0  0  0  0  0  0  0  0  0
   -4.2352    3.0434    6.4302 O   0  0  0  0  0  0  0  0  0  0  0  0
   -2.6966    4.4495    7.5208 C   0  0  0  0  0  0  0  0  0  0  0  0
   -2.5898    5.3936    6.9628 H   0  0  0  0  0  0  0  0  0  0  0  0
   -3.4659    4.6479    8.2843 H   0  0  0  0  0  0  0  0  0  0  0  0
   -1.7549    4.3360    8.0813 H   0  0  0  0  0  0  0  0  0  0  0  0
   -1.9655    2.6217    6.1203 N   0  0  0  0  0  0  0  0  0  0  0  0
   -2.0855    1.4828    5.2457 C   0  0  2  0  0  0  0  0  0  0  0  0
   -0.9475    0.5086    5.5433 C   0  0  0  0  0  0  0  0  0  0  0  0
   -0.0347    0.7642    6.3262 O   0  0  0  0  0  0  0  0  0  0  0  0
   -2.1690    1.8864    3.7715 C   0  0  0  0  0  0  0  0  0  0  0  0
   -0.6763    2.7322    3.1559 S   0  0  0  0  0  0  0  0  0  0  0  0
   -1.0329    2.9419    6.3715 H   0  0  0  0  0  0  0  0  0  0  0  0
   -3.0246    0.9913    5.5290 H   0  0  0  0  0  0  0  0  0  0  0  0
   -2.3303    1.0063    3.1406 H   0  0  0  0  0  0  0  0  0  0  0  0
   -3.0163    2.5632    3.6174 H   0  0  0  0  0  0  0  0  0  0  0  0
   -1.0584   -0.6667    4.8140 N   0  0  0  0  0  0  0  0  0  0  0  0
   -0.0891   -1.7337    4.9038 C   0  0  0  0  0  0  0  0  0  0  0  0
   -1.8701   -0.8125    4.2212 H   0  0  0  0  0  0  0  0  0  0  0  0
    0.6733   -1.6039    4.1216 H   0  0  0  0  0  0  0  0  0  0  0  0
    0.3923   -1.7092    5.8925 H   0  0  0  0  0  0  0  0  0  0  0  0
   -0.5948   -2.7008    4.7660 H   0  0  0  0  0  0  0  0  0  0  0  0
   -6.7256    2.0330   -0.2766 C   0  0  0  0  0  0  0  0  0  0  0  0
   -7.1824    1.1039   -0.9322 O   0  0  0  0  0  0  0  0  0  0  0  0
   -7.5276    2.6077    0.8435 C   0  0  0  0  0  0  0  0  0  0  0  0
   -8.1775    3.4344    0.5145 H   0  0  0  0  0  0  0  0  0  0  0  0
   -8.2057    1.8676    1.2980 H   0  0  0  0  0  0  0  0  0  0  0  0
   -6.9411    3.0162    1.6819 H   0  0  0  0  0  0  0  0  0  0  0  0
   -5.4935    2.6382   -0.4627 N   0  0  0  0  0  0  0  0  0  0  0  0
   -4.5619    2.2388   -1.4845 C   0  0  2  0  0  0  0  0  0  0  0  0
   -3.1535    2.4674   -0.9521 C   0  0  0  0  0  0  0  0  0  0  0  0
   -2.8634    3.3945   -0.1987 O   0  0  0  0  0  0  0  0  0  0  0  0
   -4.7883    3.0138   -2.7732 C   0  0  0  0  0  0  0  0  0  0  0  0
   -5.2337    3.4049    0.1551 H   0  0  0  0  0  0  0  0  0  0  0  0
   -4.7192    1.1682   -1.6549 H   0  0  0  0  0  0  0  0  0  0  0  0
   -4.6352    4.0886   -2.6221 H   0  0  0  0  0  0  0  0  0  0  0  0
   -4.0976    2.6887   -3.5582 H   0  0  0  0  0  0  0  0  0  0  0  0
   -5.8111    2.8719   -3.1387 H   0  0  0  0  0  0  0  0  0  0  0  0
   -2.2466    1.5400   -1.4507 N   0  0  0  0  0  0  0  0  0  0  0  0
   -0.8424    1.5707   -1.1286 C   0  0  2  0  0  0  0  0  0  0  0  0
   -0.1458    0.4143   -1.8428 C   0  0  0  0  0  0  0  0  0  0  0  0
    1.0733    0.3550   -1.9896 O   0  0  0  0  0  0  0  0  0  0  0  0
   -0.5913    1.5911    0.3812 C   0  0  0  0  0  0  0  0  0  0  0  0
   -1.1911    3.0887    1.1998 S   0  0  0  0  0  0  0  0  0  0  0  0
   -2.5850    0.7815   -2.0381 H   0  0  0  0  0  0  0  0  0  0  0  0
   -0.4613    2.5044   -1.5606 H   0  0  0  0  0  0  0  0  0  0  0  0
   -1.0781    0.7371    0.8634 H   0  0  0  0  0  0  0  0  0  0  0  0
    0.4829    1.5157    0.5819 H   0  0  0  0  0  0  0  0  0  0  0  0
   -1.0467   -0.5285   -2.3173 N   0  0  0  0  0  0  0  0  0  0  0  0
   -0.6323   -1.7027   -3.0490 C   0  0  2  0  0  0  0  0  0  0  0  0
   -1.7271   -2.0426   -4.0518 C   0  0  0  0  0  0  0  0  0  0  0  0
   -2.9220   -1.8605   -3.8277 O   0  0  0  0  0  0  0  0  0  0  0  0
   -0.3691   -2.8730   -2.1142 C   0  0  0  0  0  0  0  0  0  0  0  0
   -2.0359   -0.4219   -2.1131 H   0  0  0  0  0  0  0  0  0  0  0  0
    0.2843   -1.4341   -3.5853 H   0  0  0  0  0  0  0  0  0  0  0  0
   -1.2762   -3.1565   -1.5681 H   0  0  0  0  0  0  0  0  0  0  0  0
   -0.0276   -3.7539   -2.6677 H   0  0  0  0  0  0  0  0  0  0  0  0
    0.3974   -2.6165   -1.3750 H   0  0  0  0  0  0  0  0  0  0  0  0
   -1.2160   -2.6131   -5.2091 N   0  0  0  0  0  0  0  0  0  0  0  0
   -2.0569   -3.0617   -6.2943 C   0  0  0  0  0  0  0  0  0  0  0  0
   -0.2099   -2.6892   -5.3265 H   0  0  0  0  0  0  0  0  0  0  0  0
   -2.2946   -4.1270   -6.1583 H   0  0  0  0  0  0  0  0  0  0  0  0
   -2.9882   -2.4764   -6.3024 H   0  0  0  0  0  0  0  0  0  0  0  0
   -1.5284   -2.9230   -7.2490 H   0  0  0  0  0  0  0  0  0  0  0  0
  1  3  1  0  0  0  0
  1  7  1  0  0  0  0
  1  2  2  0  0  0  0
 23 25  1  0  0  0  0
 23 29  1  0  0  0  0
 23 24  2  0  0  0  0
 50 51  1  0  0  0  0
 51 59  1  0  0  0  0
 51 52  2  0  0  0  0
  8  9  1  0  0  0  0
  9 17  1  0  0  0  0
  9 10  2  0  0  0  0
 30 31  1  0  0  0  0
 31 39  1  0  0  0  0
 31 32  2  0  0  0  0
 40 41  1  0  0  0  0
 41 49  1  0  0  0  0
 41 42  2  0  0  0  0
 50 53  1  0  0  0  0
 30 33  1  0  0  0  0
 59 60  1  0  0  0  0
 17 18  1  0  0  0  0
  8 11  1  0  0  0  0
 11 12  1  0  0  0  0
 40 43  1  0  0  0  0
 43 44  1  0  0  0  0
 49 50  1  0  0  0  0
  7  8  1  0  0  0  0
 29 30  1  0  0  0  0
 39 40  1  0  0  0  0
 12 44  1  0  0  0  0
  3  4  1  0  0  0  0
  3  5  1  0  0  0  0
  3  6  1  0  0  0  0
 25 26  1  0  0  0  0
 25 27  1  0  0  0  0
 25 28  1  0  0  0  0
 53 56  1  0  0  0  0
 53 57  1  0  0  0  0
 53 58  1  0  0  0  0
 33 36  1  0  0  0  0
 33 37  1  0  0  0  0
 33 38  1  0  0  0  0
 60 62  1  0  0  0  0
 60 63  1  0  0  0  0
 60 64  1  0  0  0  0
 18 20  1  0  0  0  0
 18 21  1  0  0  0  0
 18 22  1  0  0  0  0
 11 15  1  0  0  0  0
 11 16  1  0  0  0  0
 43 47  1  0  0  0  0
 43 48  1  0  0  0  0
 50 55  1  0  0  0  0
  8 14  1  0  0  0  0
 30 35  1  0  0  0  0
 40 46  1  0  0  0  0
 59 61  1  0  0  0  0
 17 19  1  0  0  0  0
  7 13  1  0  0  0  0
 29 34  1  0  0  0  0
 49 54  1  0  0  0  0
 39 45  1  0  0  0  0
M  END
$$$$

  -OEChem-05262214473D

 64 63  0     1  0  0  0  0  0999 V2000
   -3.0551    3.3021    6.6358 C   0  0  0  0  0  0  0  0  0  0  0  0
   -4.2352    3.0434    6.4302 O   0  0  0  0  0  0  0  0  0  0  0  0
   -2.6966    4.4495    7.5208 C   0  0  0  0  0  0  0  0  0  0  0  0
   -2.5898    5.3936    6.9628 H   0  0  0  0  0  0  0  0  0  0  0  0
   -3.4659    4.6479    8.2843 H   0  0  0  0  0  0  0  0  0  0  0  0
   -1.7549    4.3360    8.0813 H   0  0  0  0  0  0  0  0  0  0  0  0
   -1.9655    2.6217    6.1203 N   0  0  0  0  0  0  0  0  0  0  0  0
   -2.0855    1.4828    5.2457 C   0  0  2  0  0  0  0  0  0  0  0  0
   -0.9475    0.5086    5.5433 C   0  0  0  0  0  0  0  0  0  0  0  0
   -0.0347    0.7642    6.3262 O   0  0  0  0  0  0  0  0  0  0  0  0
   -2.1690    1.8864    3.7715 C   0  0  0  0  0  0  0  0  0  0  0  0
   -0.6763    2.7322    3.1559 S   0  0  0  0  0  0  0  0  0  0  0  0
   -1.0329    2.9419    6.3715 H   0  0  0  0  0  0  0  0  0  0  0  0
   -3.0246    0.9913    5.5290 H   0  0  0  0  0  0  0  0  0  0  0  0
   -2.3303    1.0063    3.1406 H   0  0  0  0  0  0  0  0  0  0  0  0
   -3.0163    2.5632    3.6174 H   0  0  0  0  0  0  0  0  0  0  0  0
   -1.0584   -0.6667    4.8140 N   0  0  0  0  0  0  0  0  0  0  0  0
   -0.0891   -1.7337    4.9038 C   0  0  0  0  0  0  0  0  0  0  0  0
   -1.8701   -0.8125    4.2212 H   0  0  0  0  0  0  0  0  0  0  0  0
    0.6733   -1.6039    4.1216 H   0  0  0  0  0  0  0  0  0  0  0  0
    0.3923   -1.7092    5.8925 H   0  0  0  0  0  0  0  0  0  0  0  0
   -0.5948   -2.7008    4.7660 H   0  0  0  0  0  0  0  0  0  0  0  0
   -6.7256    2.0330   -0.2766 C   0  0  0  0  0  0  0  0  0  0  0  0
   -7.1824    1.1039   -0.9322 O   0  0  0  0  0  0  0  0  0  0  0  0
   -7.5276    2.6077    0.8435 C   0  0  0  0  0  0  0  0  0  0  0  0
   -8.1775    3.4344    0.5145 H   0  0  0  0  0  0  0  0  0  0  0  0
   -8.2057    1.8676    1.2980 H   0  0  0  0  0  0  0  0  0  0  0  0
   -6.9411    3.0162    1.6819 H   0  0  0  0  0  0  0  0  0  0  0  0
   -5.4935    2.6382   -0.4627 N   0  0  0  0  0  0  0  0  0  0  0  0
   -4.5619    2.2388   -1.4845 C   0  0  2  0  0  0  0  0  0  0  0  0
   -3.1535    2.4674   -0.9521 C   0  0  0  0  0  0  0  0  0  0  0  0
   -2.8634    3.3945   -0.1987 O   0  0  0  0  0  0  0  0  0  0  0  0
   -4.7883    3.0138   -2.7732 C   0  0  0  0  0  0  0  0  0  0  0  0
   -5.2337    3.4049    0.1551 H   0  0  0  0  0  0  0  0  0  0  0  0
   -4.7192    1.1682   -1.6549 H   0  0  0  0  0  0  0  0  0  0  0  0
   -4.6352    4.0886   -2.6221 H   0  0  0  0  0  0  0  0  0  0  0  0
   -4.0976    2.6887   -3.5582 H   0  0  0  0  0  0  0  0  0  0  0  0
   -5.8111    2.8719   -3.1387 H   0  0  0  0  0  0  0  0  0  0  0  0
   -2.2466    1.5400   -1.4507 N   0  0  0  0  0  0  0  0  0  0  0  0
   -0.8424    1.5707   -1.1286 C   0  0  2  0  0  0  0  0  0  0  0  0
   -0.1458    0.4143   -1.8428 C   0  0  0  0  0  0  0  0  0  0  0  0
    1.0638    0.2095   -1.7633 O   0  0  0  0  0  0  0  0  0  0  0  0
   -0.5913    1.5911    0.3812 C   0  0  0  0  0  0  0  0  0  0  0  0
   -1.1911    3.0887    1.1998 S   0  0  0  0  0  0  0  0  0  0  0  0
   -2.5850    0.7815   -2.0381 H   0  0  0  0  0  0  0  0  0  0  0  0
   -0.4613    2.5044   -1.5606 H   0  0  0  0  0  0  0  0  0  0  0  0
   -1.0781    0.7371    0.8634 H   0  0  0  0  0  0  0  0  0  0  0  0
    0.4829    1.5157    0.5819 H   0  0  0  0  0  0  0  0  0  0  0  0
   -1.0289   -0.3449   -2.5973 N   0  0  0  0  0  0  0  0  0  0  0  0
   -0.6054   -1.4795   -3.3842 C   0  0  2  0  0  0  0  0  0  0  0  0
   -1.5039   -1.5627   -4.6110 C   0  0  0  0  0  0  0  0  0  0  0  0
   -2.6922   -1.2484   -4.5947 O   0  0  0  0  0  0  0  0  0  0  0  0
   -0.6671   -2.7668   -2.5768 C   0  0  0  0  0  0  0  0  0  0  0  0
   -2.0213   -0.1301   -2.5713 H   0  0  0  0  0  0  0  0  0  0  0  0
    0.4249   -1.2796   -3.6982 H   0  0  0  0  0  0  0  0  0  0  0  0
   -1.6917   -2.9836   -2.2533 H   0  0  0  0  0  0  0  0  0  0  0  0
   -0.3186   -3.6216   -3.1658 H   0  0  0  0  0  0  0  0  0  0  0  0
   -0.0435   -2.6942   -1.6793 H   0  0  0  0  0  0  0  0  0  0  0  0
   -0.8337   -2.0702   -5.7153 N   0  0  0  0  0  0  0  0  0  0  0  0
   -1.4804   -2.2856   -6.9887 C   0  0  0  0  0  0  0  0  0  0  0  0
    0.1607   -2.2663   -5.6496 H   0  0  0  0  0  0  0  0  0  0  0  0
   -1.8558   -3.3183   -7.0398 H   0  0  0  0  0  0  0  0  0  0  0  0
   -2.3211   -1.5843   -7.0961 H   0  0  0  0  0  0  0  0  0  0  0  0
   -0.7570   -2.1179   -7.8002 H   0  0  0  0  0  0  0  0  0  0  0  0
  1  3  1  0  0  0  0
  1  7  1  0  0  0  0
  1  2  2  0  0  0  0
 23 25  1  0  0  0  0
 23 29  1  0  0  0  0
 23 24  2  0  0  0  0
 50 51  1  0  0  0  0
 51 59  1  0  0  0  0
 51 52  2  0  0  0  0
  8  9  1  0  0  0  0
  9 17  1  0  0  0  0
  9 10  2  0  0  0  0
 30 31  1  0  0  0  0
 31 39  1  0  0  0  0
 31 32  2  0  0  0  0
 40 41  1  0  0  0  0
 41 49  1  0  0  0  0
 41 42  2  0  0  0  0
 50 53  1  0  0  0  0
 30 33  1  0  0  0  0
 59 60  1  0  0  0  0
 17 18  1  0  0  0  0
  8 11  1  0  0  0  0
 11 12  1  0  0  0  0
 40 43  1  0  0  0  0
 43 44  1  0  0  0  0
 49 50  1  0  0  0  0
  7  8  1  0  0  0  0
 29 30  1  0  0  0  0
 39 40  1  0  0  0  0
 12 44  1  0  0  0  0
  3  4  1  0  0  0  0
  3  5  1  0  0  0  0
  3  6  1  0  0  0  0
 25 26  1  0  0  0  0
 25 27  1  0  0  0  0
 25 28  1  0  0  0  0
 53 56  1  0  0  0  0
 53 57  1  0  0  0  0
 53 58  1  0  0  0  0
 33 36  1  0  0  0  0
 33 37  1  0  0  0  0
 33 38  1  0  0  0  0
 60 62  1  0  0  0  0
 60 63  1  0  0  0  0
 60 64  1  0  0  0  0
 18 20  1  0  0  0  0
 18 21  1  0  0  0  0
 18 22  1  0  0  0  0
 11 15  1  0  0  0  0
 11 16  1  0  0  0  0
 43 47  1  0  0  0  0
 43 48  1  0  0  0  0
 50 55  1  0  0  0  0
  8 14  1  0  0  0  0
 30 35  1  0  0  0  0
 40 46  1  0  0  0  0
 59 61  1  0  0  0  0
 17 19  1  0  0  0  0
  7 13  1  0  0  0  0
 29 34  1  0  0  0  0
 49 54  1  0  0  0  0
 39 45  1  0  0  0  0
M  END
$$$$

  -OEChem-05262214473D

 64 63  0     1  0  0  0  0  0999 V2000
   -3.0551    3.3021    6.6358 C   0  0  0  0  0  0  0  0  0  0  0  0
   -4.2352    3.0434    6.4302 O   0  0  0  0  0  0  0  0  0  0  0  0
   -2.6966    4.4495    7.5208 C   0  0  0  0  0  0  0  0  0  0  0  0
   -2.5898    5.3936    6.9628 H   0  0  0  0  0  0  0  0  0  0  0  0
   -3.4659    4.6479    8.2843 H   0  0  0  0  0  0  0  0  0  0  0  0
   -1.7549    4.3360    8.0813 H   0  0  0  0  0  0  0  0  0  0  0  0
   -1.9655    2.6217    6.1203 N   0  0  0  0  0  0  0  0  0  0  0  0
   -2.0855    1.4828    5.2457 C   0  0  2  0  0  0  0  0  0  0  0  0
   -0.9475    0.5086    5.5433 C   0  0  0  0  0  0  0  0  0  0  0  0
   -0.0347    0.7642    6.3262 O   0  0  0  0  0  0  0  0  0  0  0  0
   -2.1690    1.8864    3.7715 C   0  0  0  0  0  0  0  0  0  0  0  0
   -0.6763    2.7322    3.1559 S   0  0  0  0  0  0  0  0  0  0  0  0
   -1.0329    2.9419    6.3715 H   0  0  0  0  0  0  0  0  0  0  0  0
   -3.0246    0.9913    5.5290 H   0  0  0  0  0  0  0  0  0  0  0  0
   -2.3303    1.0063    3.1406 H   0  0  0  0  0  0  0  0  0  0  0  0
   -3.0163    2.5632    3.6174 H   0  0  0  0  0  0  0  0  0  0  0  0
   -1.0584   -0.6667    4.8140 N   0  0  0  0  0  0  0  0  0  0  0  0
   -0.0891   -1.7337    4.9038 C   0  0  0  0  0  0  0  0  0  0  0  0
   -1.8701   -0.8125    4.2212 H   0  0  0  0  0  0  0  0  0  0  0  0
    0.6733   -1.6039    4.1216 H   0  0  0  0  0  0  0  0  0  0  0  0
    0.3923   -1.7092    5.8925 H   0  0  0  0  0  0  0  0  0  0  0  0
   -0.5948   -2.7008    4.7660 H   0  0  0  0  0  0  0  0  0  0  0  0
   -6.7256    2.0330   -0.2766 C   0  0  0  0  0  0  0  0  0  0  0  0
   -7.1824    1.1039   -0.9322 O   0  0  0  0  0  0  0  0  0  0  0  0
   -7.5276    2.6077    0.8435 C   0  0  0  0  0  0  0  0  0  0  0  0
   -8.1775    3.4344    0.5145 H   0  0  0  0  0  0  0  0  0  0  0  0
   -8.2057    1.8676    1.2980 H   0  0  0  0  0  0  0  0  0  0  0  0
   -6.9411    3.0162    1.6819 H   0  0  0  0  0  0  0  0  0  0  0  0
   -5.4935    2.6382   -0.4627 N   0  0  0  0  0  0  0  0  0  0  0  0
   -4.5619    2.2388   -1.4845 C   0  0  2  0  0  0  0  0  0  0  0  0
   -3.1535    2.4674   -0.9521 C   0  0  0  0  0  0  0  0  0  0  0  0
   -2.8634    3.3945   -0.1987 O   0  0  0  0  0  0  0  0  0  0  0  0
   -4.7883    3.0138   -2.7732 C   0  0  0  0  0  0  0  0  0  0  0  0
   -5.2337    3.4049    0.1551 H   0  0  0  0  0  0  0  0  0  0  0  0
   -4.7192    1.1682   -1.6549 H   0  0  0  0  0  0  0  0  0  0  0  0
   -4.6352    4.0886   -2.6221 H   0  0  0  0  0  0  0  0  0  0  0  0
   -4.0976    2.6887   -3.5582 H   0  0  0  0  0  0  0  0  0  0  0  0
   -5.8111    2.8719   -3.1387 H   0  0  0  0  0  0  0  0  0  0  0  0
   -2.2466    1.5400   -1.4507 N   0  0  0  0  0  0  0  0  0  0  0  0
   -0.8424    1.5707   -1.1286 C   0  0  2  0  0  0  0  0  0  0  0  0
   -0.1458    0.4143   -1.8428 C   0  0  0  0  0  0  0  0  0  0  0  0
    0.9926    0.0434   -1.5639 O   0  0  0  0  0  0  0  0  0  0  0  0
   -0.5913    1.5911    0.3812 C   0  0  0  0  0  0  0  0  0  0  0  0
   -1.1911    3.0887    1.1998 S   0  0  0  0  0  0  0  0  0  0  0  0
   -2.5850    0.7815   -2.0381 H   0  0  0  0  0  0  0  0  0  0  0  0
   -0.4613    2.5044   -1.5606 H   0  0  0  0  0  0  0  0  0  0  0  0
   -1.0781    0.7371    0.8634 H   0  0  0  0  0  0  0  0  0  0  0  0
    0.4829    1.5157    0.5819 H   0  0  0  0  0  0  0  0  0  0  0  0
   -0.9347   -0.1366   -2.8427 N   0  0  0  0  0  0  0  0  0  0  0  0
   -0.4866   -1.2276   -3.6763 C   0  0  2  0  0  0  0  0  0  0  0  0
   -1.1207   -1.0603   -5.0508 C   0  0  0  0  0  0  0  0  0  0  0  0
   -2.2459   -0.5944   -5.2183 O   0  0  0  0  0  0  0  0  0  0  0  0
   -0.8514   -2.5735   -3.0696 C   0  0  0  0  0  0  0  0  0  0  0  0
   -1.8821    0.2041   -2.9767 H   0  0  0  0  0  0  0  0  0  0  0  0
    0.6015   -1.1341   -3.7616 H   0  0  0  0  0  0  0  0  0  0  0  0
   -1.9378   -2.6854   -2.9762 H   0  0  0  0  0  0  0  0  0  0  0  0
   -0.4861   -3.3997   -3.6883 H   0  0  0  0  0  0  0  0  0  0  0  0
   -0.4192   -2.6799   -2.0687 H   0  0  0  0  0  0  0  0  0  0  0  0
   -0.2996   -1.5323   -6.0653 N   0  0  0  0  0  0  0  0  0  0  0  0
   -0.6936   -1.5237   -7.4548 C   0  0  0  0  0  0  0  0  0  0  0  0
    0.6332   -1.8646   -5.8392 H   0  0  0  0  0  0  0  0  0  0  0  0
   -1.1613   -2.4861   -7.7098 H   0  0  0  0  0  0  0  0  0  0  0  0
   -1.4131   -0.7096   -7.6268 H   0  0  0  0  0  0  0  0  0  0  0  0
    0.1935   -1.3685   -8.0864 H   0  0  0  0  0  0  0  0  0  0  0  0
  1  3  1  0  0  0  0
  1  7  1  0  0  0  0
  1  2  2  0  0  0  0
 23 25  1  0  0  0  0
 23 29  1  0  0  0  0
 23 24  2  0  0  0  0
 50 51  1  0  0  0  0
 51 59  1  0  0  0  0
 51 52  2  0  0  0  0
  8  9  1  0  0  0  0
  9 17  1  0  0  0  0
  9 10  2  0  0  0  0
 30 31  1  0  0  0  0
 31 39  1  0  0  0  0
 31 32  2  0  0  0  0
 40 41  1  0  0  0  0
 41 49  1  0  0  0  0
 41 42  2  0  0  0  0
 50 53  1  0  0  0  0
 30 33  1  0  0  0  0
 59 60  1  0  0  0  0
 17 18  1  0  0  0  0
  8 11  1  0  0  0  0
 11 12  1  0  0  0  0
 40 43  1  0  0  0  0
 43 44  1  0  0  0  0
 49 50  1  0  0  0  0
  7  8  1  0  0  0  0
 29 30  1  0  0  0  0
 39 40  1  0  0  0  0
 12 44  1  0  0  0  0
  3  4  1  0  0  0  0
  3  5  1  0  0  0  0
  3  6  1  0  0  0  0
 25 26  1  0  0  0  0
 25 27  1  0  0  0  0
 25 28  1  0  0  0  0
 53 56  1  0  0  0  0
 53 57  1  0  0  0  0
 53 58  1  0  0  0  0
 33 36  1  0  0  0  0
 33 37  1  0  0  0  0
 33 38  1  0  0  0  0
 60 62  1  0  0  0  0
 60 63  1  0  0  0  0
 60 64  1  0  0  0  0
 18 20  1  0  0  0  0
 18 21  1  0  0  0  0
 18 22  1  0  0  0  0
 11 15  1  0  0  0  0
 11 16  1  0  0  0  0
 43 47  1  0  0  0  0
 43 48  1  0  0  0  0
 50 55  1  0  0  0  0
  8 14  1  0  0  0  0
 30 35  1  0  0  0  0
 40 46  1  0  0  0  0
 59 61  1  0  0  0  0
 17 19  1  0  0  0  0
  7 13  1  0  0  0  0
 29 34  1  0  0  0  0
 49 54  1  0  0  0  0
 39 45  1  0  0  0  0
M  END
$$$$

  -OEChem-05262214473D

 64 63  0     1  0  0  0  0  0999 V2000
   -3.0551    3.3021    6.6358 C   0  0  0  0  0  0  0  0  0  0  0  0
   -4.2352    3.0434    6.4302 O   0  0  0  0  0  0  0  0  0  0  0  0
   -2.6966    4.4495    7.5208 C   0  0  0  0  0  0  0  0  0  0  0  0
   -2.5898    5.3936    6.9628 H   0  0  0  0  0  0  0  0  0  0  0  0
   -3.4659    4.6479    8.2843 H   0  0  0  0  0  0  0  0  0  0  0  0
   -1.7549    4.3360    8.0813 H   0  0  0  0  0  0  0  0  0  0  0  0
   -1.9655    2.6217    6.1203 N   0  0  0  0  0  0  0  0  0  0  0  0
   -2.0855    1.4828    5.2457 C   0  0  2  0  0  0  0  0  0  0  0  0
   -0.9475    0.5086    5.5433 C   0  0  0  0  0  0  0  0  0  0  0  0
   -0.0347    0.7642    6.3262 O   0  0  0  0  0  0  0  0  0  0  0  0
   -2.1690    1.8864    3.7715 C   0  0  0  0  0  0  0  0  0  0  0  0
   -0.6763    2.7322    3.1559 S   0  0  0  0  0  0  0  0  0  0  0  0
   -1.0329    2.9419    6.3715 H   0  0  0  0  0  0  0  0  0  0  0  0
   -3.0246    0.9913    5.5290 H   0  0  0  0  0  0  0  0  0  0  0  0
   -2.3303    1.0063    3.1406 H   0  0  0  0  0  0  0  0  0  0  0  0
   -3.0163    2.5632    3.6174 H   0  0  0  0  0  0  0  0  0  0  0  0
   -1.0584   -0.6667    4.8140 N   0  0  0  0  0  0  0  0  0  0  0  0
   -0.0891   -1.7337    4.9038 C   0  0  0  0  0  0  0  0  0  0  0  0
   -1.8701   -0.8125    4.2212 H   0  0  0  0  0  0  0  0  0  0  0  0
    0.6733   -1.6039    4.1216 H   0  0  0  0  0  0  0  0  0  0  0  0
    0.3923   -1.7092    5.8925 H   0  0  0  0  0  0  0  0  0  0  0  0
   -0.5948   -2.7008    4.7660 H   0  0  0  0  0  0  0  0  0  0  0  0
   -6.7256    2.0330   -0.2766 C   0  0  0  0  0  0  0  0  0  0  0  0
   -7.1824    1.1039   -0.9322 O   0  0  0  0  0  0  0  0  0  0  0  0
   -7.5276    2.6077    0.8435 C   0  0  0  0  0  0  0  0  0  0  0  0
   -8.1775    3.4344    0.5145 H   0  0  0  0  0  0  0  0  0  0  0  0
   -8.2057    1.8676    1.2980 H   0  0  0  0  0  0  0  0  0  0  0  0
   -6.9411    3.0162    1.6819 H   0  0  0  0  0  0  0  0  0  0  0  0
   -5.4935    2.6382   -0.4627 N   0  0  0  0  0  0  0  0  0  0  0  0
   -4.5619    2.2388   -1.4845 C   0  0  2  0  0  0  0  0  0  0  0  0
   -3.1535    2.4674   -0.9521 C   0  0  0  0  0  0  0  0  0  0  0  0
   -2.8634    3.3945   -0.1987 O   0  0  0  0  0  0  0  0  0  0  0  0
   -4.7883    3.0138   -2.7732 C   0  0  0  0  0  0  0  0  0  0  0  0
   -5.2337    3.4049    0.1551 H   0  0  0  0  0  0  0  0  0  0  0  0
   -4.7192    1.1682   -1.6549 H   0  0  0  0  0  0  0  0  0  0  0  0
   -4.6352    4.0886   -2.6221 H   0  0  0  0  0  0  0  0  0  0  0  0
   -4.0976    2.6887   -3.5582 H   0  0  0  0  0  0  0  0  0  0  0  0
   -5.8111    2.8719   -3.1387 H   0  0  0  0  0  0  0  0  0  0  0  0
   -2.2466    1.5400   -1.4507 N   0  0  0  0  0  0  0  0  0  0  0  0
   -0.8424    1.5707   -1.1286 C   0  0  2  0  0  0  0  0  0  0  0  0
   -0.1458    0.4143   -1.8428 C   0  0  0  0  0  0  0  0  0  0  0  0
    0.8647   -0.1320   -1.4047 O   0  0  0  0  0  0  0  0  0  0  0  0
   -0.5913    1.5911    0.3812 C   0  0  0  0  0  0  0  0  0  0  0  0
   -1.1911    3.0887    1.1998 S   0  0  0  0  0  0  0  0  0  0  0  0
   -2.5850    0.7815   -2.0381 H   0  0  0  0  0  0  0  0  0  0  0  0
   -0.4613    2.5044   -1.5606 H   0  0  0  0  0  0  0  0  0  0  0  0
   -1.0781    0.7371    0.8634 H   0  0  0  0  0  0  0  0  0  0  0  0
    0.4829    1.5157    0.5819 H   0  0  0  0  0  0  0  0  0  0  0  0
   -0.7704    0.0821   -3.0366 N   0  0  0  0  0  0  0  0  0  0  0  0
   -0.2842   -0.9641   -3.9054 C   0  0  2  0  0  0  0  0  0  0  0  0
   -0.6035   -0.5693   -5.3412 C   0  0  0  0  0  0  0  0  0  0  0  0
   -1.6134    0.0569   -5.6560 O   0  0  0  0  0  0  0  0  0  0  0  0
   -0.9095   -2.3063   -3.5588 C   0  0  0  0  0  0  0  0  0  0  0  0
   -1.6278    0.5579   -3.3015 H   0  0  0  0  0  0  0  0  0  0  0  0
    0.8021   -1.0075   -3.7709 H   0  0  0  0  0  0  0  0  0  0  0  0
   -1.9978   -2.2822   -3.6875 H   0  0  0  0  0  0  0  0  0  0  0  0
   -0.5186   -3.1035   -4.1996 H   0  0  0  0  0  0  0  0  0  0  0  0
   -0.7040   -2.5746   -2.5169 H   0  0  0  0  0  0  0  0  0  0  0  0
    0.3500   -1.0360   -6.2352 N   0  0  0  0  0  0  0  0  0  0  0  0
    0.2500   -0.8280   -7.6609 C   0  0  0  0  0  0  0  0  0  0  0  0
    1.1754   -1.5114   -5.8823 H   0  0  0  0  0  0  0  0  0  0  0  0
   -0.2584   -1.6873   -8.1226 H   0  0  0  0  0  0  0  0  0  0  0  0
   -0.3262    0.0880   -7.8581 H   0  0  0  0  0  0  0  0  0  0  0  0
    1.2585   -0.7260   -8.0881 H   0  0  0  0  0  0  0  0  0  0  0  0
  1  3  1  0  0  0  0
  1  7  1  0  0  0  0
  1  2  2  0  0  0  0
 23 25  1  0  0  0  0
 23 29  1  0  0  0  0
 23 24  2  0  0  0  0
 50 51  1  0  0  0  0
 51 59  1  0  0  0  0
 51 52  2  0  0  0  0
  8  9  1  0  0  0  0
  9 17  1  0  0  0  0
  9 10  2  0  0  0  0
 30 31  1  0  0  0  0
 31 39  1  0  0  0  0
 31 32  2  0  0  0  0
 40 41  1  0  0  0  0
 41 49  1  0  0  0  0
 41 42  2  0  0  0  0
 50 53  1  0  0  0  0
 30 33  1  0  0  0  0
 59 60  1  0  0  0  0
 17 18  1  0  0  0  0
  8 11  1  0  0  0  0
 11 12  1  0  0  0  0
 40 43  1  0  0  0  0
 43 44  1  0  0  0  0
 49 50  1  0  0  0  0
  7  8  1  0  0  0  0
 29 30  1  0  0  0  0
 39 40  1  0  0  0  0
 12 44  1  0  0  0  0
  3  4  1  0  0  0  0
  3  5  1  0  0  0  0
  3  6  1  0  0  0  0
 25 26  1  0  0  0  0
 25 27  1  0  0  0  0
 25 28  1  0  0  0  0
 53 56  1  0  0  0  0
 53 57  1  0  0  0  0
 53 58  1  0  0  0  0
 33 36  1  0  0  0  0
 33 37  1  0  0  0  0
 33 38  1  0  0  0  0
 60 62  1  0  0  0  0
 60 63  1  0  0  0  0
 60 64  1  0  0  0  0
 18 20  1  0  0  0  0
 18 21  1  0  0  0  0
 18 22  1  0  0  0  0
 11 15  1  0  0  0  0
 11 16  1  0  0  0  0
 43 47  1  0  0  0  0
 43 48  1  0  0  0  0
 50 55  1  0  0  0  0
  8 14  1  0  0  0  0
 30 35  1  0  0  0  0
 40 46  1  0  0  0  0
 59 61  1  0  0  0  0
 17 19  1  0  0  0  0
  7 13  1  0  0  0  0
 29 34  1  0  0  0  0
 49 54  1  0  0  0  0
 39 45  1  0  0  0  0
M  END
$$$$

  -OEChem-05262214473D

 64 63  0     1  0  0  0  0  0999 V2000
   -3.0551    3.3021    6.6358 C   0  0  0  0  0  0  0  0  0  0  0  0
   -4.2352    3.0434    6.4302 O   0  0  0  0  0  0  0  0  0  0  0  0
   -2.6966    4.4495    7.5208 C   0  0  0  0  0  0  0  0  0  0  0  0
   -2.5898    5.3936    6.9628 H   0  0  0  0  0  0  0  0  0  0  0  0
   -3.4659    4.6479    8.2843 H   0  0  0  0  0  0  0  0  0  0  0  0
   -1.7549    4.3360    8.0813 H   0  0  0  0  0  0  0  0  0  0  0  0
   -1.9655    2.6217    6.1203 N   0  0  0  0  0  0  0  0  0  0  0  0
   -2.0855    1.4828    5.2457 C   0  0  2  0  0  0  0  0  0  0  0  0
   -0.9475    0.5086    5.5433 C   0  0  0  0  0  0  0  0  0  0  0  0
   -0.0347    0.7642    6.3262 O   0  0  0  0  0  0  0  0  0  0  0  0
   -2.1690    1.8864    3.7715 C   0  0  0  0  0  0  0  0  0  0  0  0
   -0.6763    2.7322    3.1559 S   0  0  0  0  0  0  0  0  0  0  0  0
   -1.0329    2.9419    6.3715 H   0  0  0  0  0  0  0  0  0  0  0  0
   -3.0246    0.9913    5.5290 H   0  0  0  0  0  0  0  0  0  0  0  0
   -2.3303    1.0063    3.1406 H   0  0  0  0  0  0  0  0  0  0  0  0
   -3.0163    2.5632    3.6174 H   0  0  0  0  0  0  0  0  0  0  0  0
   -1.0584   -0.6667    4.8140 N   0  0  0  0  0  0  0  0  0  0  0  0
   -0.0891   -1.7337    4.9038 C   0  0  0  0  0  0  0  0  0  0  0  0
   -1.8701   -0.8125    4.2212 H   0  0  0  0  0  0  0  0  0  0  0  0
    0.6733   -1.6039    4.1216 H   0  0  0  0  0  0  0  0  0  0  0  0
    0.3923   -1.7092    5.8925 H   0  0  0  0  0  0  0  0  0  0  0  0
   -0.5948   -2.7008    4.7660 H   0  0  0  0  0  0  0  0  0  0  0  0
   -6.7256    2.0330   -0.2766 C   0  0  0  0  0  0  0  0  0  0  0  0
   -7.1824    1.1039   -0.9322 O   0  0  0  0  0  0  0  0  0  0  0  0
   -7.5276    2.6077    0.8435 C   0  0  0  0  0  0  0  0  0  0  0  0
   -8.1775    3.4344    0.5145 H   0  0  0  0  0  0  0  0  0  0  0  0
   -8.2057    1.8676    1.2980 H   0  0  0  0  0  0  0  0  0  0  0  0
   -6.9411    3.0162    1.6819 H   0  0  0  0  0  0  0  0  0  0  0  0
   -5.4935    2.6382   -0.4627 N   0  0  0  0  0  0  0  0  0  0  0  0
   -4.5619    2.2388   -1.4845 C   0  0  2  0  0  0  0  0  0  0  0  0
   -3.1535    2.4674   -0.9521 C   0  0  0  0  0  0  0  0  0  0  0  0
   -2.8634    3.3945   -0.1987 O   0  0  0  0  0  0  0  0  0  0  0  0
   -4.7883    3.0138   -2.7732 C   0  0  0  0  0  0  0  0  0  0  0  0
   -5.2337    3.4049    0.1551 H   0  0  0  0  0  0  0  0  0  0  0  0
   -4.7192    1.1682   -1.6549 H   0  0  0  0  0  0  0  0  0  0  0  0
   -4.6352    4.0886   -2.6221 H   0  0  0  0  0  0  0  0  0  0  0  0
   -4.0976    2.6887   -3.5582 H   0  0  0  0  0  0  0  0  0  0  0  0
   -5.8111    2.8719   -3.1387 H   0  0  0  0  0  0  0  0  0  0  0  0
   -2.2466    1.5400   -1.4507 N   0  0  0  0  0  0  0  0  0  0  0  0
   -0.8424    1.5707   -1.1286 C   0  0  2  0  0  0  0  0  0  0  0  0
   -0.1458    0.4143   -1.8428 C   0  0  0  0  0  0  0  0  0  0  0  0
    0.6887   -0.3046   -1.2968 O   0  0  0  0  0  0  0  0  0  0  0  0
   -0.5913    1.5911    0.3812 C   0  0  0  0  0  0  0  0  0  0  0  0
   -1.1911    3.0887    1.1998 S   0  0  0  0  0  0  0  0  0  0  0  0
   -2.5850    0.7815   -2.0381 H   0  0  0  0  0  0  0  0  0  0  0  0
   -0.4613    2.5044   -1.5606 H   0  0  0  0  0  0  0  0  0  0  0  0
   -1.0781    0.7371    0.8634 H   0  0  0  0  0  0  0  0  0  0  0  0
    0.4829    1.5157    0.5819 H   0  0  0  0  0  0  0  0  0  0  0  0
   -0.5472    0.2964   -3.1659 N   0  0  0  0  0  0  0  0  0  0  0  0
   -0.0119   -0.7071   -4.0559 C   0  0  2  0  0  0  0  0  0  0  0  0
    0.0123   -0.1235   -5.4625 C   0  0  0  0  0  0  0  0  0  0  0  0
   -0.8379    0.6611   -5.8779 O   0  0  0  0  0  0  0  0  0  0  0  0
   -0.8374   -1.9835   -4.0112 C   0  0  0  0  0  0  0  0  0  0  0  0
   -1.2757    0.9072   -3.5236 H   0  0  0  0  0  0  0  0  0  0  0  0
    1.0130   -0.9084   -3.7257 H   0  0  0  0  0  0  0  0  0  0  0  0
   -1.8676   -1.8015   -4.3387 H   0  0  0  0  0  0  0  0  0  0  0  0
   -0.4139   -2.7531   -4.6649 H   0  0  0  0  0  0  0  0  0  0  0  0
   -0.8785   -2.3856   -2.9932 H   0  0  0  0  0  0  0  0  0  0  0  0
    1.0709   -0.6153   -6.2134 N   0  0  0  0  0  0  0  0  0  0  0  0
    1.2860   -0.2459   -7.5930 C   0  0  0  0  0  0  0  0  0  0  0  0
    1.7503   -1.2307   -5.7760 H   0  0  0  0  0  0  0  0  0  0  0  0
    0.7913   -0.9763   -8.2501 H   0  0  0  0  0  0  0  0  0  0  0  0
    0.8656    0.7543   -7.7745 H   0  0  0  0  0  0  0  0  0  0  0  0
    2.3653   -0.2340   -7.8052 H   0  0  0  0  0  0  0  0  0  0  0  0
  1  3  1  0  0  0  0
  1  7  1  0  0  0  0
  1  2  2  0  0  0  0
 23 25  1  0  0  0  0
 23 29  1  0  0  0  0
 23 24  2  0  0  0  0
 50 51  1  0  0  0  0
 51 59  1  0  0  0  0
 51 52  2  0  0  0  0
  8  9  1  0  0  0  0
  9 17  1  0  0  0  0
  9 10  2  0  0  0  0
 30 31  1  0  0  0  0
 31 39  1  0  0  0  0
 31 32  2  0  0  0  0
 40 41  1  0  0  0  0
 41 49  1  0  0  0  0
 41 42  2  0  0  0  0
 50 53  1  0  0  0  0
 30 33  1  0  0  0  0
 59 60  1  0  0  0  0
 17 18  1  0  0  0  0
  8 11  1  0  0  0  0
 11 12  1  0  0  0  0
 40 43  1  0  0  0  0
 43 44  1  0  0  0  0
 49 50  1  0  0  0  0
  7  8  1  0  0  0  0
 29 30  1  0  0  0  0
 39 40  1  0  0  0  0
 12 44  1  0  0  0  0
  3  4  1  0  0  0  0
  3  5  1  0  0  0  0
  3  6  1  0  0  0  0
 25 26  1  0  0  0  0
 25 27  1  0  0  0  0
 25 28  1  0  0  0  0
 53 56  1  0  0  0  0
 53 57  1  0  0  0  0
 53 58  1  0  0  0  0
 33 36  1  0  0  0  0
 33 37  1  0  0  0  0
 33 38  1  0  0  0  0
 60 62  1  0  0  0  0
 60 63  1  0  0  0  0
 60 64  1  0  0  0  0
 18 20  1  0  0  0  0
 18 21  1  0  0  0  0
 18 22  1  0  0  0  0
 11 15  1  0  0  0  0
 11 16  1  0  0  0  0
 43 47  1  0  0  0  0
 43 48  1  0  0  0  0
 50 55  1  0  0  0  0
  8 14  1  0  0  0  0
 30 35  1  0  0  0  0
 40 46  1  0  0  0  0
 59 61  1  0  0  0  0
 17 19  1  0  0  0  0
  7 13  1  0  0  0  0
 29 34  1  0  0  0  0
 49 54  1  0  0  0  0
 39 45  1  0  0  0  0
M  END
$$$$

  -OEChem-05262214473D

 64 63  0     1  0  0  0  0  0999 V2000
   -3.0551    3.3021    6.6358 C   0  0  0  0  0  0  0  0  0  0  0  0
   -4.2352    3.0434    6.4302 O   0  0  0  0  0  0  0  0  0  0  0  0
   -2.6966    4.4495    7.5208 C   0  0  0  0  0  0  0  0  0  0  0  0
   -2.5898    5.3936    6.9628 H   0  0  0  0  0  0  0  0  0  0  0  0
   -3.4659    4.6479    8.2843 H   0  0  0  0  0  0  0  0  0  0  0  0
   -1.7549    4.3360    8.0813 H   0  0  0  0  0  0  0  0  0  0  0  0
   -1.9655    2.6217    6.1203 N   0  0  0  0  0  0  0  0  0  0  0  0
   -2.0855    1.4828    5.2457 C   0  0  2  0  0  0  0  0  0  0  0  0
   -0.9475    0.5086    5.5433 C   0  0  0  0  0  0  0  0  0  0  0  0
   -0.0347    0.7642    6.3262 O   0  0  0  0  0  0  0  0  0  0  0  0
   -2.1690    1.8864    3.7715 C   0  0  0  0  0  0  0  0  0  0  0  0
   -0.6763    2.7322    3.1559 S   0  0  0  0  0  0  0  0  0  0  0  0
   -1.0329    2.9419    6.3715 H   0  0  0  0  0  0  0  0  0  0  0  0
   -3.0246    0.9913    5.5290 H   0  0  0  0  0  0  0  0  0  0  0  0
   -2.3303    1.0063    3.1406 H   0  0  0  0  0  0  0  0  0  0  0  0
   -3.0163    2.5632    3.6174 H   0  0  0  0  0  0  0  0  0  0  0  0
   -1.0584   -0.6667    4.8140 N   0  0  0  0  0  0  0  0  0  0  0  0
   -0.0891   -1.7337    4.9038 C   0  0  0  0  0  0  0  0  0  0  0  0
   -1.8701   -0.8125    4.2212 H   0  0  0  0  0  0  0  0  0  0  0  0
    0.6733   -1.6039    4.1216 H   0  0  0  0  0  0  0  0  0  0  0  0
    0.3923   -1.7092    5.8925 H   0  0  0  0  0  0  0  0  0  0  0  0
   -0.5948   -2.7008    4.7660 H   0  0  0  0  0  0  0  0  0  0  0  0
   -6.7256    2.0330   -0.2766 C   0  0  0  0  0  0  0  0  0  0  0  0
   -7.1824    1.1039   -0.9322 O   0  0  0  0  0  0  0  0  0  0  0  0
   -7.5276    2.6077    0.8435 C   0  0  0  0  0  0  0  0  0  0  0  0
   -8.1775    3.4344    0.5145 H   0  0  0  0  0  0  0  0  0  0  0  0
   -8.2057    1.8676    1.2980 H   0  0  0  0  0  0  0  0  0  0  0  0
   -6.9411    3.0162    1.6819 H   0  0  0  0  0  0  0  0  0  0  0  0
   -5.4935    2.6382   -0.4627 N   0  0  0  0  0  0  0  0  0  0  0  0
   -4.5619    2.2388   -1.4845 C   0  0  2  0  0  0  0  0  0  0  0  0
   -3.1535    2.4674   -0.9521 C   0  0  0  0  0  0  0  0  0  0  0  0
   -2.8634    3.3945   -0.1987 O   0  0  0  0  0  0  0  0  0  0  0  0
   -4.7883    3.0138   -2.7732 C   0  0  0  0  0  0  0  0  0  0  0  0
   -5.2337    3.4049    0.1551 H   0  0  0  0  0  0  0  0  0  0  0  0
   -4.7192    1.1682   -1.6549 H   0  0  0  0  0  0  0  0  0  0  0  0
   -4.6352    4.0886   -2.6221 H   0  0  0  0  0  0  0  0  0  0  0  0
   -4.0976    2.6887   -3.5582 H   0  0  0  0  0  0  0  0  0  0  0  0
   -5.8111    2.8719   -3.1387 H   0  0  0  0  0  0  0  0  0  0  0  0
   -2.2466    1.5400   -1.4507 N   0  0  0  0  0  0  0  0  0  0  0  0
   -0.8424    1.5707   -1.1286 C   0  0  2  0  0  0  0  0  0  0  0  0
   -0.1458    0.4143   -1.8428 C   0  0  0  0  0  0  0  0  0  0  0  0
    0.4766   -0.4629   -1.2474 O   0  0  0  0  0  0  0  0  0  0  0  0
   -0.5913    1.5911    0.3812 C   0  0  0  0  0  0  0  0  0  0  0  0
   -1.1911    3.0887    1.1998 S   0  0  0  0  0  0  0  0  0  0  0  0
   -2.5850    0.7815   -2.0381 H   0  0  0  0  0  0  0  0  0  0  0  0
   -0.4613    2.5044   -1.5606 H   0  0  0  0  0  0  0  0  0  0  0  0
   -1.0781    0.7371    0.8634 H   0  0  0  0  0  0  0  0  0  0  0  0
    0.4829    1.5157    0.5819 H   0  0  0  0  0  0  0  0  0  0  0  0
   -0.2804    0.4917   -3.2217 N   0  0  0  0  0  0  0  0  0  0  0  0
    0.3117   -0.4740   -4.1177 C   0  0  2  0  0  0  0  0  0  0  0  0
    0.6850    0.2470   -5.4062 C   0  0  0  0  0  0  0  0  0  0  0  0
    0.0278    1.1771   -5.8689 O   0  0  0  0  0  0  0  0  0  0  0  0
   -0.6401   -1.6270   -4.3960 C   0  0  0  0  0  0  0  0  0  0  0  0
   -0.8497    1.2282   -3.6280 H   0  0  0  0  0  0  0  0  0  0  0  0
    1.2199   -0.8435   -3.6290 H   0  0  0  0  0  0  0  0  0  0  0  0
   -1.5560   -1.2761   -4.8855 H   0  0  0  0  0  0  0  0  0  0  0  0
   -0.1792   -2.3723   -5.0525 H   0  0  0  0  0  0  0  0  0  0  0  0
   -0.9309   -2.1257   -3.4651 H   0  0  0  0  0  0  0  0  0  0  0  0
    1.8138   -0.2987   -6.0014 N   0  0  0  0  0  0  0  0  0  0  0  0
    2.3439    0.1830   -7.2556 C   0  0  0  0  0  0  0  0  0  0  0  0
    2.3188   -1.0418   -5.5275 H   0  0  0  0  0  0  0  0  0  0  0  0
    1.9162   -0.4014   -8.0836 H   0  0  0  0  0  0  0  0  0  0  0  0
    2.0809    1.2437   -7.3815 H   0  0  0  0  0  0  0  0  0  0  0  0
    3.4384    0.0739   -7.2570 H   0  0  0  0  0  0  0  0  0  0  0  0
  1  3  1  0  0  0  0
  1  7  1  0  0  0  0
  1  2  2  0  0  0  0
 23 25  1  0  0  0  0
 23 29  1  0  0  0  0
 23 24  2  0  0  0  0
 50 51  1  0  0  0  0
 51 59  1  0  0  0  0
 51 52  2  0  0  0  0
  8  9  1  0  0  0  0
  9 17  1  0  0  0  0
  9 10  2  0  0  0  0
 30 31  1  0  0  0  0
 31 39  1  0  0  0  0
 31 32  2  0  0  0  0
 40 41  1  0  0  0  0
 41 49  1  0  0  0  0
 41 42  2  0  0  0  0
 50 53  1  0  0  0  0
 30 33  1  0  0  0  0
 59 60  1  0  0  0  0
 17 18  1  0  0  0  0
  8 11  1  0  0  0  0
 11 12  1  0  0  0  0
 40 43  1  0  0  0  0
 43 44  1  0  0  0  0
 49 50  1  0  0  0  0
  7  8  1  0  0  0  0
 29 30  1  0  0  0  0
 39 40  1  0  0  0  0
 12 44  1  0  0  0  0
  3  4  1  0  0  0  0
  3  5  1  0  0  0  0
  3  6  1  0  0  0  0
 25 26  1  0  0  0  0
 25 27  1  0  0  0  0
 25 28  1  0  0  0  0
 53 56  1  0  0  0  0
 53 57  1  0  0  0  0
 53 58  1  0  0  0  0
 33 36  1  0  0  0  0
 33 37  1  0  0  0  0
 33 38  1  0  0  0  0
 60 62  1  0  0  0  0
 60 63  1  0  0  0  0
 60 64  1  0  0  0  0
 18 20  1  0  0  0  0
 18 21  1  0  0  0  0
 18 22  1  0  0  0  0
 11 15  1  0  0  0  0
 11 16  1  0  0  0  0
 43 47  1  0  0  0  0
 43 48  1  0  0  0  0
 50 55  1  0  0  0  0
  8 14  1  0  0  0  0
 30 35  1  0  0  0  0
 40 46  1  0  0  0  0
 59 61  1  0  0  0  0
 17 19  1  0  0  0  0
  7 13  1  0  0  0  0
 29 34  1  0  0  0  0
 49 54  1  0  0  0  0
 39 45  1  0  0  0  0
M  END
$$$$

  -OEChem-05262214473D

 64 63  0     1  0  0  0  0  0999 V2000
   -3.0551    3.3021    6.6358 C   0  0  0  0  0  0  0  0  0  0  0  0
   -4.2352    3.0434    6.4302 O   0  0  0  0  0  0  0  0  0  0  0  0
   -2.6966    4.4495    7.5208 C   0  0  0  0  0  0  0  0  0  0  0  0
   -2.5898    5.3936    6.9628 H   0  0  0  0  0  0  0  0  0  0  0  0
   -3.4659    4.6479    8.2843 H   0  0  0  0  0  0  0  0  0  0  0  0
   -1.7549    4.3360    8.0813 H   0  0  0  0  0  0  0  0  0  0  0  0
   -1.9655    2.6217    6.1203 N   0  0  0  0  0  0  0  0  0  0  0  0
   -2.0855    1.4828    5.2457 C   0  0  2  0  0  0  0  0  0  0  0  0
   -0.9475    0.5086    5.5433 C   0  0  0  0  0  0  0  0  0  0  0  0
   -0.0347    0.7642    6.3262 O   0  0  0  0  0  0  0  0  0  0  0  0
   -2.1690    1.8864    3.7715 C   0  0  0  0  0  0  0  0  0  0  0  0
   -0.6763    2.7322    3.1559 S   0  0  0  0  0  0  0  0  0  0  0  0
   -1.0329    2.9419    6.3715 H   0  0  0  0  0  0  0  0  0  0  0  0
   -3.0246    0.9913    5.5290 H   0  0  0  0  0  0  0  0  0  0  0  0
   -2.3303    1.0063    3.1406 H   0  0  0  0  0  0  0  0  0  0  0  0
   -3.0163    2.5632    3.6174 H   0  0  0  0  0  0  0  0  0  0  0  0
   -1.0584   -0.6667    4.8140 N   0  0  0  0  0  0  0  0  0  0  0  0
   -0.0891   -1.7337    4.9038 C   0  0  0  0  0  0  0  0  0  0  0  0
   -1.8701   -0.8125    4.2212 H   0  0  0  0  0  0  0  0  0  0  0  0
    0.6733   -1.6039    4.1216 H   0  0  0  0  0  0  0  0  0  0  0  0
    0.3923   -1.7092    5.8925 H   0  0  0  0  0  0  0  0  0  0  0  0
   -0.5948   -2.7008    4.7660 H   0  0  0  0  0  0  0  0  0  0  0  0
   -6.7256    2.0330   -0.2766 C   0  0  0  0  0  0  0  0  0  0  0  0
   -7.1824    1.1039   -0.9322 O   0  0  0  0  0  0  0  0  0  0  0  0
   -7.5276    2.6077    0.8435 C   0  0  0  0  0  0  0  0  0  0  0  0
   -8.1775    3.4344    0.5145 H   0  0  0  0  0  0  0  0  0  0  0  0
   -8.2057    1.8676    1.2980 H   0  0  0  0  0  0  0  0  0  0  0  0
   -6.9411    3.0162    1.6819 H   0  0  0  0  0  0  0  0  0  0  0  0
   -5.4935    2.6382   -0.4627 N   0  0  0  0  0  0  0  0  0  0  0  0
   -4.5619    2.2388   -1.4845 C   0  0  2  0  0  0  0  0  0  0  0  0
   -3.1535    2.4674   -0.9521 C   0  0  0  0  0  0  0  0  0  0  0  0
   -2.8634    3.3945   -0.1987 O   0  0  0  0  0  0  0  0  0  0  0  0
   -4.7883    3.0138   -2.7732 C   0  0  0  0  0  0  0  0  0  0  0  0
   -5.2337    3.4049    0.1551 H   0  0  0  0  0  0  0  0  0  0  0  0
   -4.7192    1.1682   -1.6549 H   0  0  0  0  0  0  0  0  0  0  0  0
   -4.6352    4.0886   -2.6221 H   0  0  0  0  0  0  0  0  0  0  0  0
   -4.0976    2.6887   -3.5582 H   0  0  0  0  0  0  0  0  0  0  0  0
   -5.8111    2.8719   -3.1387 H   0  0  0  0  0  0  0  0  0  0  0  0
   -2.2466    1.5400   -1.4507 N   0  0  0  0  0  0  0  0  0  0  0  0
   -0.8424    1.5707   -1.1286 C   0  0  2  0  0  0  0  0  0  0  0  0
   -0.1458    0.4143   -1.8428 C   0  0  0  0  0  0  0  0  0  0  0  0
    0.2430   -0.5959   -1.2599 O   0  0  0  0  0  0  0  0  0  0  0  0
   -0.5913    1.5911    0.3812 C   0  0  0  0  0  0  0  0  0  0  0  0
   -1.1911    3.0887    1.1998 S   0  0  0  0  0  0  0  0  0  0  0  0
   -2.5850    0.7815   -2.0381 H   0  0  0  0  0  0  0  0  0  0  0  0
   -0.4613    2.5044   -1.5606 H   0  0  0  0  0  0  0  0  0  0  0  0
   -1.0781    0.7371    0.8634 H   0  0  0  0  0  0  0  0  0  0  0  0
    0.4829    1.5157    0.5819 H   0  0  0  0  0  0  0  0  0  0  0  0
    0.0120    0.6546   -3.2004 N   0  0  0  0  0  0  0  0  0  0  0  0
    0.6647   -0.2808   -4.0863 C   0  0  2  0  0  0  0  0  0  0  0  0
    1.3685    0.5167   -5.1764 C   0  0  0  0  0  0  0  0  0  0  0  0
    0.9247    1.5696   -5.6297 O   0  0  0  0  0  0  0  0  0  0  0  0
   -0.3309   -1.2610   -4.6869 C   0  0  0  0  0  0  0  0  0  0  0  0
   -0.3790    1.4991   -3.6074 H   0  0  0  0  0  0  0  0  0  0  0  0
    1.4086   -0.8173   -3.4874 H   0  0  0  0  0  0  0  0  0  0  0  0
   -1.0842   -0.7418   -5.2905 H   0  0  0  0  0  0  0  0  0  0  0  0
    0.1696   -1.9872   -5.3359 H   0  0  0  0  0  0  0  0  0  0  0  0
   -0.8575   -1.8126   -3.9005 H   0  0  0  0  0  0  0  0  0  0  0  0
    2.5282   -0.1078   -5.6137 N   0  0  0  0  0  0  0  0  0  0  0  0
    3.3515    0.4294   -6.6718 C   0  0  0  0  0  0  0  0  0  0  0  0
    2.8420   -0.9574   -5.1538 H   0  0  0  0  0  0  0  0  0  0  0  0
    3.0398   -0.0020   -7.6345 H   0  0  0  0  0  0  0  0  0  0  0  0
    3.2371    1.5229   -6.7059 H   0  0  0  0  0  0  0  0  0  0  0  0
    4.4049    0.1766   -6.4808 H   0  0  0  0  0  0  0  0  0  0  0  0
  1  3  1  0  0  0  0
  1  7  1  0  0  0  0
  1  2  2  0  0  0  0
 23 25  1  0  0  0  0
 23 29  1  0  0  0  0
 23 24  2  0  0  0  0
 50 51  1  0  0  0  0
 51 59  1  0  0  0  0
 51 52  2  0  0  0  0
  8  9  1  0  0  0  0
  9 17  1  0  0  0  0
  9 10  2  0  0  0  0
 30 31  1  0  0  0  0
 31 39  1  0  0  0  0
 31 32  2  0  0  0  0
 40 41  1  0  0  0  0
 41 49  1  0  0  0  0
 41 42  2  0  0  0  0
 50 53  1  0  0  0  0
 30 33  1  0  0  0  0
 59 60  1  0  0  0  0
 17 18  1  0  0  0  0
  8 11  1  0  0  0  0
 11 12  1  0  0  0  0
 40 43  1  0  0  0  0
 43 44  1  0  0  0  0
 49 50  1  0  0  0  0
  7  8  1  0  0  0  0
 29 30  1  0  0  0  0
 39 40  1  0  0  0  0
 12 44  1  0  0  0  0
  3  4  1  0  0  0  0
  3  5  1  0  0  0  0
  3  6  1  0  0  0  0
 25 26  1  0  0  0  0
 25 27  1  0  0  0  0
 25 28  1  0  0  0  0
 53 56  1  0  0  0  0
 53 57  1  0  0  0  0
 53 58  1  0  0  0  0
 33 36  1  0  0  0  0
 33 37  1  0  0  0  0
 33 38  1  0  0  0  0
 60 62  1  0  0  0  0
 60 63  1  0  0  0  0
 60 64  1  0  0  0  0
 18 20  1  0  0  0  0
 18 21  1  0  0  0  0
 18 22  1  0  0  0  0
 11 15  1  0  0  0  0
 11 16  1  0  0  0  0
 43 47  1  0  0  0  0
 43 48  1  0  0  0  0
 50 55  1  0  0  0  0
  8 14  1  0  0  0  0
 30 35  1  0  0  0  0
 40 46  1  0  0  0  0
 59 61  1  0  0  0  0
 17 19  1  0  0  0  0
  7 13  1  0  0  0  0
 29 34  1  0  0  0  0
 49 54  1  0  0  0  0
 39 45  1  0  0  0  0
M  END
$$$$

  -OEChem-05262214473D

 64 63  0     1  0  0  0  0  0999 V2000
   -3.0551    3.3021    6.6358 C   0  0  0  0  0  0  0  0  0  0  0  0
   -4.2352    3.0434    6.4302 O   0  0  0  0  0  0  0  0  0  0  0  0
   -2.6966    4.4495    7.5208 C   0  0  0  0  0  0  0  0  0  0  0  0
   -2.5898    5.3936    6.9628 H   0  0  0  0  0  0  0  0  0  0  0  0
   -3.4659    4.6479    8.2843 H   0  0  0  0  0  0  0  0  0  0  0  0
   -1.7549    4.3360    8.0813 H   0  0  0  0  0  0  0  0  0  0  0  0
   -1.9655    2.6217    6.1203 N   0  0  0  0  0  0  0  0  0  0  0  0
   -2.0855    1.4828    5.2457 C   0  0  2  0  0  0  0  0  0  0  0  0
   -0.9475    0.5086    5.5433 C   0  0  0  0  0  0  0  0  0  0  0  0
   -0.0347    0.7642    6.3262 O   0  0  0  0  0  0  0  0  0  0  0  0
   -2.1690    1.8864    3.7715 C   0  0  0  0  0  0  0  0  0  0  0  0
   -0.6763    2.7322    3.1559 S   0  0  0  0  0  0  0  0  0  0  0  0
   -1.0329    2.9419    6.3715 H   0  0  0  0  0  0  0  0  0  0  0  0
   -3.0246    0.9913    5.5290 H   0  0  0  0  0  0  0  0  0  0  0  0
   -2.3303    1.0063    3.1406 H   0  0  0  0  0  0  0  0  0  0  0  0
   -3.0163    2.5632    3.6174 H   0  0  0  0  0  0  0  0  0  0  0  0
   -1.0584   -0.6667    4.8140 N   0  0  0  0  0  0  0  0  0  0  0  0
   -0.0891   -1.7337    4.9038 C   0  0  0  0  0  0  0  0  0  0  0  0
   -1.8701   -0.8125    4.2212 H   0  0  0  0  0  0  0  0  0  0  0  0
    0.6733   -1.6039    4.1216 H   0  0  0  0  0  0  0  0  0  0  0  0
    0.3923   -1.7092    5.8925 H   0  0  0  0  0  0  0  0  0  0  0  0
   -0.5948   -2.7008    4.7660 H   0  0  0  0  0  0  0  0  0  0  0  0
   -6.7256    2.0330   -0.2766 C   0  0  0  0  0  0  0  0  0  0  0  0
   -7.1824    1.1039   -0.9322 O   0  0  0  0  0  0  0  0  0  0  0  0
   -7.5276    2.6077    0.8435 C   0  0  0  0  0  0  0  0  0  0  0  0
   -8.1775    3.4344    0.5145 H   0  0  0  0  0  0  0  0  0  0  0  0
   -8.2057    1.8676    1.2980 H   0  0  0  0  0  0  0  0  0  0  0  0
   -6.9411    3.0162    1.6819 H   0  0  0  0  0  0  0  0  0  0  0  0
   -5.4935    2.6382   -0.4627 N   0  0  0  0  0  0  0  0  0  0  0  0
   -4.5619    2.2388   -1.4845 C   0  0  2  0  0  0  0  0  0  0  0  0
   -3.1535    2.4674   -0.9521 C   0  0  0  0  0  0  0  0  0  0  0  0
   -2.8634    3.3945   -0.1987 O   0  0  0  0  0  0  0  0  0  0  0  0
   -4.7883    3.0138   -2.7732 C   0  0  0  0  0  0  0  0  0  0  0  0
   -5.2337    3.4049    0.1551 H   0  0  0  0  0  0  0  0  0  0  0  0
   -4.7192    1.1682   -1.6549 H   0  0  0  0  0  0  0  0  0  0  0  0
   -4.6352    4.0886   -2.6221 H   0  0  0  0  0  0  0  0  0  0  0  0
   -4.0976    2.6887   -3.5582 H   0  0  0  0  0  0  0  0  0  0  0  0
   -5.8111    2.8719   -3.1387 H   0  0  0  0  0  0  0  0  0  0  0  0
   -2.2466    1.5400   -1.4507 N   0  0  0  0  0  0  0  0  0  0  0  0
   -0.8424    1.5707   -1.1286 C   0  0  2  0  0  0  0  0  0  0  0  0
   -0.1458    0.4143   -1.8428 C   0  0  0  0  0  0  0  0  0  0  0  0
    0.0037   -0.6946   -1.3335 O   0  0  0  0  0  0  0  0  0  0  0  0
   -0.5913    1.5911    0.3812 C   0  0  0  0  0  0  0  0  0  0  0  0
   -1.1911    3.0887    1.1998 S   0  0  0  0  0  0  0  0  0  0  0  0
   -2.5850    0.7815   -2.0381 H   0  0  0  0  0  0  0  0  0  0  0  0
   -0.4613    2.5044   -1.5606 H   0  0  0  0  0  0  0  0  0  0  0  0
   -1.0781    0.7371    0.8634 H   0  0  0  0  0  0  0  0  0  0  0  0
    0.4829    1.5157    0.5819 H   0  0  0  0  0  0  0  0  0  0  0  0
    0.3099    0.7740   -3.1032 N   0  0  0  0  0  0  0  0  0  0  0  0
    1.0228   -0.1405   -3.9641 C   0  0  2  0  0  0  0  0  0  0  0  0
    2.0163    0.6674   -4.7886 C   0  0  0  0  0  0  0  0  0  0  0  0
    1.7917    1.8120   -5.1766 O   0  0  0  0  0  0  0  0  0  0  0  0
    0.0691   -0.9107   -4.8640 C   0  0  0  0  0  0  0  0  0  0  0  0
    0.1045    1.7013   -3.4632 H   0  0  0  0  0  0  0  0  0  0  0  0
    1.5664   -0.8315   -3.3105 H   0  0  0  0  0  0  0  0  0  0  0  0
   -0.4845   -0.2350   -5.5262 H   0  0  0  0  0  0  0  0  0  0  0  0
    0.6086   -1.6240   -5.4959 H   0  0  0  0  0  0  0  0  0  0  0  0
   -0.6634   -1.4676   -4.2698 H   0  0  0  0  0  0  0  0  0  0  0  0
    3.1653   -0.0557   -5.0766 N   0  0  0  0  0  0  0  0  0  0  0  0
    4.2401    0.4765   -5.8813 C   0  0  0  0  0  0  0  0  0  0  0  0
    3.2844   -0.9833   -4.6804 H   0  0  0  0  0  0  0  0  0  0  0  0
    4.0854    0.1948   -6.9333 H   0  0  0  0  0  0  0  0  0  0  0  0
    4.2553    1.5729   -5.7939 H   0  0  0  0  0  0  0  0  0  0  0  0
    5.1987    0.0673   -5.5295 H   0  0  0  0  0  0  0  0  0  0  0  0
  1  3  1  0  0  0  0
  1  7  1  0  0  0  0
  1  2  2  0  0  0  0
 23 25  1  0  0  0  0
 23 29  1  0  0  0  0
 23 24  2  0  0  0  0
 50 51  1  0  0  0  0
 51 59  1  0  0  0  0
 51 52  2  0  0  0  0
  8  9  1  0  0  0  0
  9 17  1  0  0  0  0
  9 10  2  0  0  0  0
 30 31  1  0  0  0  0
 31 39  1  0  0  0  0
 31 32  2  0  0  0  0
 40 41  1  0  0  0  0
 41 49  1  0  0  0  0
 41 42  2  0  0  0  0
 50 53  1  0  0  0  0
 30 33  1  0  0  0  0
 59 60  1  0  0  0  0
 17 18  1  0  0  0  0
  8 11  1  0  0  0  0
 11 12  1  0  0  0  0
 40 43  1  0  0  0  0
 43 44  1  0  0  0  0
 49 50  1  0  0  0  0
  7  8  1  0  0  0  0
 29 30  1  0  0  0  0
 39 40  1  0  0  0  0
 12 44  1  0  0  0  0
  3  4  1  0  0  0  0
  3  5  1  0  0  0  0
  3  6  1  0  0  0  0
 25 26  1  0  0  0  0
 25 27  1  0  0  0  0
 25 28  1  0  0  0  0
 53 56  1  0  0  0  0
 53 57  1  0  0  0  0
 53 58  1  0  0  0  0
 33 36  1  0  0  0  0
 33 37  1  0  0  0  0
 33 38  1  0  0  0  0
 60 62  1  0  0  0  0
 60 63  1  0  0  0  0
 60 64  1  0  0  0  0
 18 20  1  0  0  0  0
 18 21  1  0  0  0  0
 18 22  1  0  0  0  0
 11 15  1  0  0  0  0
 11 16  1  0  0  0  0
 43 47  1  0  0  0  0
 43 48  1  0  0  0  0
 50 55  1  0  0  0  0
  8 14  1  0  0  0  0
 30 35  1  0  0  0  0
 40 46  1  0  0  0  0
 59 61  1  0  0  0  0
 17 19  1  0  0  0  0
  7 13  1  0  0  0  0
 29 34  1  0  0  0  0
 49 54  1  0  0  0  0
 39 45  1  0  0  0  0
M  END
$$$$

  -OEChem-05262214473D

 64 63  0     1  0  0  0  0  0999 V2000
   -3.0551    3.3021    6.6358 C   0  0  0  0  0  0  0  0  0  0  0  0
   -4.2352    3.0434    6.4302 O   0  0  0  0  0  0  0  0  0  0  0  0
   -2.6966    4.4495    7.5208 C   0  0  0  0  0  0  0  0  0  0  0  0
   -2.5898    5.3936    6.9628 H   0  0  0  0  0  0  0  0  0  0  0  0
   -3.4659    4.6479    8.2843 H   0  0  0  0  0  0  0  0  0  0  0  0
   -1.7549    4.3360    8.0813 H   0  0  0  0  0  0  0  0  0  0  0  0
   -1.9655    2.6217    6.1203 N   0  0  0  0  0  0  0  0  0  0  0  0
   -2.0855    1.4828    5.2457 C   0  0  2  0  0  0  0  0  0  0  0  0
   -0.9475    0.5086    5.5433 C   0  0  0  0  0  0  0  0  0  0  0  0
   -0.0347    0.7642    6.3262 O   0  0  0  0  0  0  0  0  0  0  0  0
   -2.1690    1.8864    3.7715 C   0  0  0  0  0  0  0  0  0  0  0  0
   -0.6763    2.7322    3.1559 S   0  0  0  0  0  0  0  0  0  0  0  0
   -1.0329    2.9419    6.3715 H   0  0  0  0  0  0  0  0  0  0  0  0
   -3.0246    0.9913    5.5290 H   0  0  0  0  0  0  0  0  0  0  0  0
   -2.3303    1.0063    3.1406 H   0  0  0  0  0  0  0  0  0  0  0  0
   -3.0163    2.5632    3.6174 H   0  0  0  0  0  0  0  0  0  0  0  0
   -1.0584   -0.6667    4.8140 N   0  0  0  0  0  0  0  0  0  0  0  0
   -0.0891   -1.7337    4.9038 C   0  0  0  0  0  0  0  0  0  0  0  0
   -1.8701   -0.8125    4.2212 H   0  0  0  0  0  0  0  0  0  0  0  0
    0.6733   -1.6039    4.1216 H   0  0  0  0  0  0  0  0  0  0  0  0
    0.3923   -1.7092    5.8925 H   0  0  0  0  0  0  0  0  0  0  0  0
   -0.5948   -2.7008    4.7660 H   0  0  0  0  0  0  0  0  0  0  0  0
   -6.7256    2.0330   -0.2766 C   0  0  0  0  0  0  0  0  0  0  0  0
   -7.1824    1.1039   -0.9322 O   0  0  0  0  0  0  0  0  0  0  0  0
   -7.5276    2.6077    0.8435 C   0  0  0  0  0  0  0  0  0  0  0  0
   -8.1775    3.4344    0.5145 H   0  0  0  0  0  0  0  0  0  0  0  0
   -8.2057    1.8676    1.2980 H   0  0  0  0  0  0  0  0  0  0  0  0
   -6.9411    3.0162    1.6819 H   0  0  0  0  0  0  0  0  0  0  0  0
   -5.4935    2.6382   -0.4627 N   0  0  0  0  0  0  0  0  0  0  0  0
   -4.5619    2.2388   -1.4845 C   0  0  2  0  0  0  0  0  0  0  0  0
   -3.1535    2.4674   -0.9521 C   0  0  0  0  0  0  0  0  0  0  0  0
   -2.8634    3.3945   -0.1987 O   0  0  0  0  0  0  0  0  0  0  0  0
   -4.7883    3.0138   -2.7732 C   0  0  0  0  0  0  0  0  0  0  0  0
   -5.2337    3.4049    0.1551 H   0  0  0  0  0  0  0  0  0  0  0  0
   -4.7192    1.1682   -1.6549 H   0  0  0  0  0  0  0  0  0  0  0  0
   -4.6352    4.0886   -2.6221 H   0  0  0  0  0  0  0  0  0  0  0  0
   -4.0976    2.6887   -3.5582 H   0  0  0  0  0  0  0  0  0  0  0  0
   -5.8111    2.8719   -3.1387 H   0  0  0  0  0  0  0  0  0  0  0  0
   -2.2466    1.5400   -1.4507 N   0  0  0  0  0  0  0  0  0  0  0  0
   -0.8424    1.5707   -1.1286 C   0  0  2  0  0  0  0  0  0  0  0  0
   -0.1458    0.4143   -1.8428 C   0  0  0  0  0  0  0  0  0  0  0  0
   -0.2250   -0.7523   -1.4631 O   0  0  0  0  0  0  0  0  0  0  0  0
   -0.5913    1.5911    0.3812 C   0  0  0  0  0  0  0  0  0  0  0  0
   -1.1911    3.0887    1.1998 S   0  0  0  0  0  0  0  0  0  0  0  0
   -2.5850    0.7815   -2.0381 H   0  0  0  0  0  0  0  0  0  0  0  0
   -0.4613    2.5044   -1.5606 H   0  0  0  0  0  0  0  0  0  0  0  0
   -1.0781    0.7371    0.8634 H   0  0  0  0  0  0  0  0  0  0  0  0
    0.4829    1.5157    0.5819 H   0  0  0  0  0  0  0  0  0  0  0  0
    0.5930    0.8418   -2.9368 N   0  0  0  0  0  0  0  0  0  0  0  0
    1.3618   -0.0628   -3.7593 C   0  0  2  0  0  0  0  0  0  0  0  0
    2.5843    0.6888   -4.2692 C   0  0  0  0  0  0  0  0  0  0  0  0
    2.5697    1.8877   -4.5403 O   0  0  0  0  0  0  0  0  0  0  0  0
    0.5325   -0.5997   -4.9155 C   0  0  0  0  0  0  0  0  0  0  0  0
    0.5677    1.8211   -3.2054 H   0  0  0  0  0  0  0  0  0  0  0  0
    1.6823   -0.8852   -3.1105 H   0  0  0  0  0  0  0  0  0  0  0  0
    0.2022    0.2098   -5.5765 H   0  0  0  0  0  0  0  0  0  0  0  0
    1.1079   -1.3073   -5.5215 H   0  0  0  0  0  0  0  0  0  0  0  0
   -0.3618   -1.1143   -4.5477 H   0  0  0  0  0  0  0  0  0  0  0  0
    3.6818   -0.1458   -4.4269 N   0  0  0  0  0  0  0  0  0  0  0  0
    4.9494    0.3212   -4.9381 C   0  0  0  0  0  0  0  0  0  0  0  0
    3.6158   -1.1178   -4.1394 H   0  0  0  0  0  0  0  0  0  0  0  0
    4.9818    0.1756   -6.0279 H   0  0  0  0  0  0  0  0  0  0  0  0
    5.0661    1.3903   -4.7074 H   0  0  0  0  0  0  0  0  0  0  0  0
    5.7658   -0.2467   -4.4680 H   0  0  0  0  0  0  0  0  0  0  0  0
  1  3  1  0  0  0  0
  1  7  1  0  0  0  0
  1  2  2  0  0  0  0
 23 25  1  0  0  0  0
 23 29  1  0  0  0  0
 23 24  2  0  0  0  0
 50 51  1  0  0  0  0
 51 59  1  0  0  0  0
 51 52  2  0  0  0  0
  8  9  1  0  0  0  0
  9 17  1  0  0  0  0
  9 10  2  0  0  0  0
 30 31  1  0  0  0  0
 31 39  1  0  0  0  0
 31 32  2  0  0  0  0
 40 41  1  0  0  0  0
 41 49  1  0  0  0  0
 41 42  2  0  0  0  0
 50 53  1  0  0  0  0
 30 33  1  0  0  0  0
 59 60  1  0  0  0  0
 17 18  1  0  0  0  0
  8 11  1  0  0  0  0
 11 12  1  0  0  0  0
 40 43  1  0  0  0  0
 43 44  1  0  0  0  0
 49 50  1  0  0  0  0
  7  8  1  0  0  0  0
 29 30  1  0  0  0  0
 39 40  1  0  0  0  0
 12 44  1  0  0  0  0
  3  4  1  0  0  0  0
  3  5  1  0  0  0  0
  3  6  1  0  0  0  0
 25 26  1  0  0  0  0
 25 27  1  0  0  0  0
 25 28  1  0  0  0  0
 53 56  1  0  0  0  0
 53 57  1  0  0  0  0
 53 58  1  0  0  0  0
 33 36  1  0  0  0  0
 33 37  1  0  0  0  0
 33 38  1  0  0  0  0
 60 62  1  0  0  0  0
 60 63  1  0  0  0  0
 60 64  1  0  0  0  0
 18 20  1  0  0  0  0
 18 21  1  0  0  0  0
 18 22  1  0  0  0  0
 11 15  1  0  0  0  0
 11 16  1  0  0  0  0
 43 47  1  0  0  0  0
 43 48  1  0  0  0  0
 50 55  1  0  0  0  0
  8 14  1  0  0  0  0
 30 35  1  0  0  0  0
 40 46  1  0  0  0  0
 59 61  1  0  0  0  0
 17 19  1  0  0  0  0
  7 13  1  0  0  0  0
 29 34  1  0  0  0  0
 49 54  1  0  0  0  0
 39 45  1  0  0  0  0
M  END
$$$$

  -OEChem-05262214473D

 64 63  0     1  0  0  0  0  0999 V2000
   -3.0551    3.3021    6.6358 C   0  0  0  0  0  0  0  0  0  0  0  0
   -4.2352    3.0434    6.4302 O   0  0  0  0  0  0  0  0  0  0  0  0
   -2.6966    4.4495    7.5208 C   0  0  0  0  0  0  0  0  0  0  0  0
   -2.5898    5.3936    6.9628 H   0  0  0  0  0  0  0  0  0  0  0  0
   -3.4659    4.6479    8.2843 H   0  0  0  0  0  0  0  0  0  0  0  0
   -1.7549    4.3360    8.0813 H   0  0  0  0  0  0  0  0  0  0  0  0
   -1.9655    2.6217    6.1203 N   0  0  0  0  0  0  0  0  0  0  0  0
   -2.0855    1.4828    5.2457 C   0  0  2  0  0  0  0  0  0  0  0  0
   -0.9475    0.5086    5.5433 C   0  0  0  0  0  0  0  0  0  0  0  0
   -0.0347    0.7642    6.3262 O   0  0  0  0  0  0  0  0  0  0  0  0
   -2.1690    1.8864    3.7715 C   0  0  0  0  0  0  0  0  0  0  0  0
   -0.6763    2.7322    3.1559 S   0  0  0  0  0  0  0  0  0  0  0  0
   -1.0329    2.9419    6.3715 H   0  0  0  0  0  0  0  0  0  0  0  0
   -3.0246    0.9913    5.5290 H   0  0  0  0  0  0  0  0  0  0  0  0
   -2.3303    1.0063    3.1406 H   0  0  0  0  0  0  0  0  0  0  0  0
   -3.0163    2.5632    3.6174 H   0  0  0  0  0  0  0  0  0  0  0  0
   -1.0584   -0.6667    4.8140 N   0  0  0  0  0  0  0  0  0  0  0  0
   -0.0891   -1.7337    4.9038 C   0  0  0  0  0  0  0  0  0  0  0  0
   -1.8701   -0.8125    4.2212 H   0  0  0  0  0  0  0  0  0  0  0  0
    0.6733   -1.6039    4.1216 H   0  0  0  0  0  0  0  0  0  0  0  0
    0.3923   -1.7092    5.8925 H   0  0  0  0  0  0  0  0  0  0  0  0
   -0.5948   -2.7008    4.7660 H   0  0  0  0  0  0  0  0  0  0  0  0
   -6.7256    2.0330   -0.2766 C   0  0  0  0  0  0  0  0  0  0  0  0
   -7.1824    1.1039   -0.9322 O   0  0  0  0  0  0  0  0  0  0  0  0
   -7.5276    2.6077    0.8435 C   0  0  0  0  0  0  0  0  0  0  0  0
   -8.1775    3.4344    0.5145 H   0  0  0  0  0  0  0  0  0  0  0  0
   -8.2057    1.8676    1.2980 H   0  0  0  0  0  0  0  0  0  0  0  0
   -6.9411    3.0162    1.6819 H   0  0  0  0  0  0  0  0  0  0  0  0
   -5.4935    2.6382   -0.4627 N   0  0  0  0  0  0  0  0  0  0  0  0
   -4.5619    2.2388   -1.4845 C   0  0  2  0  0  0  0  0  0  0  0  0
   -3.1535    2.4674   -0.9521 C   0  0  0  0  0  0  0  0  0  0  0  0
   -2.8634    3.3945   -0.1987 O   0  0  0  0  0  0  0  0  0  0  0  0
   -4.7883    3.0138   -2.7732 C   0  0  0  0  0  0  0  0  0  0  0  0
   -5.2337    3.4049    0.1551 H   0  0  0  0  0  0  0  0  0  0  0  0
   -4.7192    1.1682   -1.6549 H   0  0  0  0  0  0  0  0  0  0  0  0
   -4.6352    4.0886   -2.6221 H   0  0  0  0  0  0  0  0  0  0  0  0
   -4.0976    2.6887   -3.5582 H   0  0  0  0  0  0  0  0  0  0  0  0
   -5.8111    2.8719   -3.1387 H   0  0  0  0  0  0  0  0  0  0  0  0
   -2.2466    1.5400   -1.4507 N   0  0  0  0  0  0  0  0  0  0  0  0
   -0.8424    1.5707   -1.1286 C   0  0  2  0  0  0  0  0  0  0  0  0
   -0.1458    0.4143   -1.8428 C   0  0  0  0  0  0  0  0  0  0  0  0
   -0.4275   -0.7651   -1.6400 O   0  0  0  0  0  0  0  0  0  0  0  0
   -0.5913    1.5911    0.3812 C   0  0  0  0  0  0  0  0  0  0  0  0
   -1.1911    3.0887    1.1998 S   0  0  0  0  0  0  0  0  0  0  0  0
   -2.5850    0.7815   -2.0381 H   0  0  0  0  0  0  0  0  0  0  0  0
   -0.4613    2.5044   -1.5606 H   0  0  0  0  0  0  0  0  0  0  0  0
   -1.0781    0.7371    0.8634 H   0  0  0  0  0  0  0  0  0  0  0  0
    0.4829    1.5157    0.5819 H   0  0  0  0  0  0  0  0  0  0  0  0
    0.8421    0.8534   -2.7127 N   0  0  0  0  0  0  0  0  0  0  0  0
    1.6585   -0.0530   -3.4859 C   0  0  2  0  0  0  0  0  0  0  0  0
    3.0337    0.5794   -3.6537 C   0  0  0  0  0  0  0  0  0  0  0  0
    3.2057    1.7916   -3.7644 O   0  0  0  0  0  0  0  0  0  0  0  0
    1.0279   -0.3494   -4.8376 C   0  0  0  0  0  0  0  0  0  0  0  0
    0.9791    1.8503   -2.8515 H   0  0  0  0  0  0  0  0  0  0  0  0
    1.7486   -0.9747   -2.9008 H   0  0  0  0  0  0  0  0  0  0  0  0
    0.9293    0.5623   -5.4381 H   0  0  0  0  0  0  0  0  0  0  0  0
    1.6336   -1.0589   -5.4110 H   0  0  0  0  0  0  0  0  0  0  0  0
    0.0267   -0.7767   -4.7153 H   0  0  0  0  0  0  0  0  0  0  0  0
    4.0425   -0.3721   -3.7087 N   0  0  0  0  0  0  0  0  0  0  0  0
    5.4308   -0.0261   -3.9064 C   0  0  0  0  0  0  0  0  0  0  0  0
    3.8137   -1.3517   -3.5677 H   0  0  0  0  0  0  0  0  0  0  0  0
    5.6679   -0.0583   -4.9800 H   0  0  0  0  0  0  0  0  0  0  0  0
    5.6143    0.9876   -3.5207 H   0  0  0  0  0  0  0  0  0  0  0  0
    6.0676   -0.7439   -3.3686 H   0  0  0  0  0  0  0  0  0  0  0  0
  1  3  1  0  0  0  0
  1  7  1  0  0  0  0
  1  2  2  0  0  0  0
 23 25  1  0  0  0  0
 23 29  1  0  0  0  0
 23 24  2  0  0  0  0
 50 51  1  0  0  0  0
 51 59  1  0  0  0  0
 51 52  2  0  0  0  0
  8  9  1  0  0  0  0
  9 17  1  0  0  0  0
  9 10  2  0  0  0  0
 30 31  1  0  0  0  0
 31 39  1  0  0  0  0
 31 32  2  0  0  0  0
 40 41  1  0  0  0  0
 41 49  1  0  0  0  0
 41 42  2  0  0  0  0
 50 53  1  0  0  0  0
 30 33  1  0  0  0  0
 59 60  1  0  0  0  0
 17 18  1  0  0  0  0
  8 11  1  0  0  0  0
 11 12  1  0  0  0  0
 40 43  1  0  0  0  0
 43 44  1  0  0  0  0
 49 50  1  0  0  0  0
  7  8  1  0  0  0  0
 29 30  1  0  0  0  0
 39 40  1  0  0  0  0
 12 44  1  0  0  0  0
  3  4  1  0  0  0  0
  3  5  1  0  0  0  0
  3  6  1  0  0  0  0
 25 26  1  0  0  0  0
 25 27  1  0  0  0  0
 25 28  1  0  0  0  0
 53 56  1  0  0  0  0
 53 57  1  0  0  0  0
 53 58  1  0  0  0  0
 33 36  1  0  0  0  0
 33 37  1  0  0  0  0
 33 38  1  0  0  0  0
 60 62  1  0  0  0  0
 60 63  1  0  0  0  0
 60 64  1  0  0  0  0
 18 20  1  0  0  0  0
 18 21  1  0  0  0  0
 18 22  1  0  0  0  0
 11 15  1  0  0  0  0
 11 16  1  0  0  0  0
 43 47  1  0  0  0  0
 43 48  1  0  0  0  0
 50 55  1  0  0  0  0
  8 14  1  0  0  0  0
 30 35  1  0  0  0  0
 40 46  1  0  0  0  0
 59 61  1  0  0  0  0
 17 19  1  0  0  0  0
  7 13  1  0  0  0  0
 29 34  1  0  0  0  0
 49 54  1  0  0  0  0
 39 45  1  0  0  0  0
M  END
$$$$

  -OEChem-05262214473D

 64 63  0     1  0  0  0  0  0999 V2000
   -3.0551    3.3021    6.6358 C   0  0  0  0  0  0  0  0  0  0  0  0
   -4.2352    3.0434    6.4302 O   0  0  0  0  0  0  0  0  0  0  0  0
   -2.6966    4.4495    7.5208 C   0  0  0  0  0  0  0  0  0  0  0  0
   -2.5898    5.3936    6.9628 H   0  0  0  0  0  0  0  0  0  0  0  0
   -3.4659    4.6479    8.2843 H   0  0  0  0  0  0  0  0  0  0  0  0
   -1.7549    4.3360    8.0813 H   0  0  0  0  0  0  0  0  0  0  0  0
   -1.9655    2.6217    6.1203 N   0  0  0  0  0  0  0  0  0  0  0  0
   -2.0855    1.4828    5.2457 C   0  0  2  0  0  0  0  0  0  0  0  0
   -0.9475    0.5086    5.5433 C   0  0  0  0  0  0  0  0  0  0  0  0
   -0.0347    0.7642    6.3262 O   0  0  0  0  0  0  0  0  0  0  0  0
   -2.1690    1.8864    3.7715 C   0  0  0  0  0  0  0  0  0  0  0  0
   -0.6763    2.7322    3.1559 S   0  0  0  0  0  0  0  0  0  0  0  0
   -1.0329    2.9419    6.3715 H   0  0  0  0  0  0  0  0  0  0  0  0
   -3.0246    0.9913    5.5290 H   0  0  0  0  0  0  0  0  0  0  0  0
   -2.3303    1.0063    3.1406 H   0  0  0  0  0  0  0  0  0  0  0  0
   -3.0163    2.5632    3.6174 H   0  0  0  0  0  0  0  0  0  0  0  0
   -1.0584   -0.6667    4.8140 N   0  0  0  0  0  0  0  0  0  0  0  0
   -0.0891   -1.7337    4.9038 C   0  0  0  0  0  0  0  0  0  0  0  0
   -1.8701   -0.8125    4.2212 H   0  0  0  0  0  0  0  0  0  0  0  0
    0.6733   -1.6039    4.1216 H   0  0  0  0  0  0  0  0  0  0  0  0
    0.3923   -1.7092    5.8925 H   0  0  0  0  0  0  0  0  0  0  0  0
   -0.5948   -2.7008    4.7660 H   0  0  0  0  0  0  0  0  0  0  0  0
   -6.7256    2.0330   -0.2766 C   0  0  0  0  0  0  0  0  0  0  0  0
   -7.1824    1.1039   -0.9322 O   0  0  0  0  0  0  0  0  0  0  0  0
   -7.5276    2.6077    0.8435 C   0  0  0  0  0  0  0  0  0  0  0  0
   -8.1775    3.4344    0.5145 H   0  0  0  0  0  0  0  0  0  0  0  0
   -8.2057    1.8676    1.2980 H   0  0  0  0  0  0  0  0  0  0  0  0
   -6.9411    3.0162    1.6819 H   0  0  0  0  0  0  0  0  0  0  0  0
   -5.4935    2.6382   -0.4627 N   0  0  0  0  0  0  0  0  0  0  0  0
   -4.5619    2.2388   -1.4845 C   0  0  2  0  0  0  0  0  0  0  0  0
   -3.1535    2.4674   -0.9521 C   0  0  0  0  0  0  0  0  0  0  0  0
   -2.8634    3.3945   -0.1987 O   0  0  0  0  0  0  0  0  0  0  0  0
   -4.7883    3.0138   -2.7732 C   0  0  0  0  0  0  0  0  0  0  0  0
   -5.2337    3.4049    0.1551 H   0  0  0  0  0  0  0  0  0  0  0  0
   -4.7192    1.1682   -1.6549 H   0  0  0  0  0  0  0  0  0  0  0  0
   -4.6352    4.0886   -2.6221 H   0  0  0  0  0  0  0  0  0  0  0  0
   -4.0976    2.6887   -3.5582 H   0  0  0  0  0  0  0  0  0  0  0  0
   -5.8111    2.8719   -3.1387 H   0  0  0  0  0  0  0  0  0  0  0  0
   -2.2466    1.5400   -1.4507 N   0  0  0  0  0  0  0  0  0  0  0  0
   -0.8424    1.5707   -1.1286 C   0  0  2  0  0  0  0  0  0  0  0  0
   -0.1458    0.4143   -1.8428 C   0  0  0  0  0  0  0  0  0  0  0  0
   -0.5900   -0.7320   -1.8520 O   0  0  0  0  0  0  0  0  0  0  0  0
   -0.5913    1.5911    0.3812 C   0  0  0  0  0  0  0  0  0  0  0  0
   -1.1911    3.0887    1.1998 S   0  0  0  0  0  0  0  0  0  0  0  0
   -2.5850    0.7815   -2.0381 H   0  0  0  0  0  0  0  0  0  0  0  0
   -0.4613    2.5044   -1.5606 H   0  0  0  0  0  0  0  0  0  0  0  0
   -1.0781    0.7371    0.8634 H   0  0  0  0  0  0  0  0  0  0  0  0
    0.4829    1.5157    0.5819 H   0  0  0  0  0  0  0  0  0  0  0  0
    1.0403    0.8080   -2.4459 N   0  0  0  0  0  0  0  0  0  0  0  0
    1.8926   -0.1117   -3.1625 C   0  0  2  0  0  0  0  0  0  0  0  0
    3.3340    0.3467   -2.9840 C   0  0  0  0  0  0  0  0  0  0  0  0
    3.6562    1.5301   -2.9016 O   0  0  0  0  0  0  0  0  0  0  0  0
    1.5214   -0.1768   -4.6358 C   0  0  0  0  0  0  0  0  0  0  0  0
    1.3106    1.7869   -2.4255 H   0  0  0  0  0  0  0  0  0  0  0  0
    1.7608   -1.0940   -2.6959 H   0  0  0  0  0  0  0  0  0  0  0  0
    1.6472    0.7984   -5.1202 H   0  0  0  0  0  0  0  0  0  0  0  0
    2.1498   -0.8957   -5.1719 H   0  0  0  0  0  0  0  0  0  0  0  0
    0.4757   -0.4778   -4.7613 H   0  0  0  0  0  0  0  0  0  0  0  0
    4.2228   -0.7192   -2.9710 N   0  0  0  0  0  0  0  0  0  0  0  0
    5.6515   -0.5416   -2.8564 C   0  0  0  0  0  0  0  0  0  0  0  0
    3.8644   -1.6690   -3.0044 H   0  0  0  0  0  0  0  0  0  0  0  0
    6.0970   -0.4910   -3.8609 H   0  0  0  0  0  0  0  0  0  0  0  0
    5.8625    0.3921   -2.3145 H   0  0  0  0  0  0  0  0  0  0  0  0
    6.0835   -1.3905   -2.3062 H   0  0  0  0  0  0  0  0  0  0  0  0
  1  3  1  0  0  0  0
  1  7  1  0  0  0  0
  1  2  2  0  0  0  0
 23 25  1  0  0  0  0
 23 29  1  0  0  0  0
 23 24  2  0  0  0  0
 50 51  1  0  0  0  0
 51 59  1  0  0  0  0
 51 52  2  0  0  0  0
  8  9  1  0  0  0  0
  9 17  1  0  0  0  0
  9 10  2  0  0  0  0
 30 31  1  0  0  0  0
 31 39  1  0  0  0  0
 31 32  2  0  0  0  0
 40 41  1  0  0  0  0
 41 49  1  0  0  0  0
 41 42  2  0  0  0  0
 50 53  1  0  0  0  0
 30 33  1  0  0  0  0
 59 60  1  0  0  0  0
 17 18  1  0  0  0  0
  8 11  1  0  0  0  0
 11 12  1  0  0  0  0
 40 43  1  0  0  0  0
 43 44  1  0  0  0  0
 49 50  1  0  0  0  0
  7  8  1  0  0  0  0
 29 30  1  0  0  0  0
 39 40  1  0  0  0  0
 12 44  1  0  0  0  0
  3  4  1  0  0  0  0
  3  5  1  0  0  0  0
  3  6  1  0  0  0  0
 25 26  1  0  0  0  0
 25 27  1  0  0  0  0
 25 28  1  0  0  0  0
 53 56  1  0  0  0  0
 53 57  1  0  0  0  0
 53 58  1  0  0  0  0
 33 36  1  0  0  0  0
 33 37  1  0  0  0  0
 33 38  1  0  0  0  0
 60 62  1  0  0  0  0
 60 63  1  0  0  0  0
 60 64  1  0  0  0  0
 18 20  1  0  0  0  0
 18 21  1  0  0  0  0
 18 22  1  0  0  0  0
 11 15  1  0  0  0  0
 11 16  1  0  0  0  0
 43 47  1  0  0  0  0
 43 48  1  0  0  0  0
 50 55  1  0  0  0  0
  8 14  1  0  0  0  0
 30 35  1  0  0  0  0
 40 46  1  0  0  0  0
 59 61  1  0  0  0  0
 17 19  1  0  0  0  0
  7 13  1  0  0  0  0
 29 34  1  0  0  0  0
 49 54  1  0  0  0  0
 39 45  1  0  0  0  0
M  END
$$$$

  -OEChem-05262214473D

 64 63  0     1  0  0  0  0  0999 V2000
   -3.0551    3.3021    6.6358 C   0  0  0  0  0  0  0  0  0  0  0  0
   -4.2352    3.0434    6.4302 O   0  0  0  0  0  0  0  0  0  0  0  0
   -2.6966    4.4495    7.5208 C   0  0  0  0  0  0  0  0  0  0  0  0
   -2.5898    5.3936    6.9628 H   0  0  0  0  0  0  0  0  0  0  0  0
   -3.4659    4.6479    8.2843 H   0  0  0  0  0  0  0  0  0  0  0  0
   -1.7549    4.3360    8.0813 H   0  0  0  0  0  0  0  0  0  0  0  0
   -1.9655    2.6217    6.1203 N   0  0  0  0  0  0  0  0  0  0  0  0
   -2.0855    1.4828    5.2457 C   0  0  2  0  0  0  0  0  0  0  0  0
   -0.9475    0.5086    5.5433 C   0  0  0  0  0  0  0  0  0  0  0  0
   -0.0347    0.7642    6.3262 O   0  0  0  0  0  0  0  0  0  0  0  0
   -2.1690    1.8864    3.7715 C   0  0  0  0  0  0  0  0  0  0  0  0
   -0.6763    2.7322    3.1559 S   0  0  0  0  0  0  0  0  0  0  0  0
   -1.0329    2.9419    6.3715 H   0  0  0  0  0  0  0  0  0  0  0  0
   -3.0246    0.9913    5.5290 H   0  0  0  0  0  0  0  0  0  0  0  0
   -2.3303    1.0063    3.1406 H   0  0  0  0  0  0  0  0  0  0  0  0
   -3.0163    2.5632    3.6174 H   0  0  0  0  0  0  0  0  0  0  0  0
   -1.0584   -0.6667    4.8140 N   0  0  0  0  0  0  0  0  0  0  0  0
   -0.0891   -1.7337    4.9038 C   0  0  0  0  0  0  0  0  0  0  0  0
   -1.8701   -0.8125    4.2212 H   0  0  0  0  0  0  0  0  0  0  0  0
    0.6733   -1.6039    4.1216 H   0  0  0  0  0  0  0  0  0  0  0  0
    0.3923   -1.7092    5.8925 H   0  0  0  0  0  0  0  0  0  0  0  0
   -0.5948   -2.7008    4.7660 H   0  0  0  0  0  0  0  0  0  0  0  0
   -6.7256    2.0330   -0.2766 C   0  0  0  0  0  0  0  0  0  0  0  0
   -7.1824    1.1039   -0.9322 O   0  0  0  0  0  0  0  0  0  0  0  0
   -7.5276    2.6077    0.8435 C   0  0  0  0  0  0  0  0  0  0  0  0
   -8.1775    3.4344    0.5145 H   0  0  0  0  0  0  0  0  0  0  0  0
   -8.2057    1.8676    1.2980 H   0  0  0  0  0  0  0  0  0  0  0  0
   -6.9411    3.0162    1.6819 H   0  0  0  0  0  0  0  0  0  0  0  0
   -5.4935    2.6382   -0.4627 N   0  0  0  0  0  0  0  0  0  0  0  0
   -4.5619    2.2388   -1.4845 C   0  0  2  0  0  0  0  0  0  0  0  0
   -3.1535    2.4674   -0.9521 C   0  0  0  0  0  0  0  0  0  0  0  0
   -2.8634    3.3945   -0.1987 O   0  0  0  0  0  0  0  0  0  0  0  0
   -4.7883    3.0138   -2.7732 C   0  0  0  0  0  0  0  0  0  0  0  0
   -5.2337    3.4049    0.1551 H   0  0  0  0  0  0  0  0  0  0  0  0
   -4.7192    1.1682   -1.6549 H   0  0  0  0  0  0  0  0  0  0  0  0
   -4.6352    4.0886   -2.6221 H   0  0  0  0  0  0  0  0  0  0  0  0
   -4.0976    2.6887   -3.5582 H   0  0  0  0  0  0  0  0  0  0  0  0
   -5.8111    2.8719   -3.1387 H   0  0  0  0  0  0  0  0  0  0  0  0
   -2.2466    1.5400   -1.4507 N   0  0  0  0  0  0  0  0  0  0  0  0
   -0.8424    1.5707   -1.1286 C   0  0  2  0  0  0  0  0  0  0  0  0
   -0.1458    0.4143   -1.8428 C   0  0  0  0  0  0  0  0  0  0  0  0
   -0.7014   -0.6554   -2.0847 O   0  0  0  0  0  0  0  0  0  0  0  0
   -0.5913    1.5911    0.3812 C   0  0  0  0  0  0  0  0  0  0  0  0
   -1.1911    3.0887    1.1998 S   0  0  0  0  0  0  0  0  0  0  0  0
   -2.5850    0.7815   -2.0381 H   0  0  0  0  0  0  0  0  0  0  0  0
   -0.4613    2.5044   -1.5606 H   0  0  0  0  0  0  0  0  0  0  0  0
   -1.0781    0.7371    0.8634 H   0  0  0  0  0  0  0  0  0  0  0  0
    0.4829    1.5157    0.5819 H   0  0  0  0  0  0  0  0  0  0  0  0
    1.1738    0.7087   -2.1548 N   0  0  0  0  0  0  0  0  0  0  0  0
    2.0484   -0.2349   -2.8111 C   0  0  2  0  0  0  0  0  0  0  0  0
    3.4647    0.0065   -2.3058 C   0  0  0  0  0  0  0  0  0  0  0  0
    3.8908    1.1212   -2.0108 O   0  0  0  0  0  0  0  0  0  0  0  0
    1.9794   -0.0936   -4.3237 C   0  0  0  0  0  0  0  0  0  0  0  0
    1.5397    1.6353   -1.9566 H   0  0  0  0  0  0  0  0  0  0  0  0
    1.7179   -1.2348   -2.5097 H   0  0  0  0  0  0  0  0  0  0  0  0
    2.3068    0.9020   -4.6447 H   0  0  0  0  0  0  0  0  0  0  0  0
    2.6213   -0.8286   -4.8205 H   0  0  0  0  0  0  0  0  0  0  0  0
    0.9546   -0.2381   -4.6824 H   0  0  0  0  0  0  0  0  0  0  0  0
    4.2103   -1.1633   -2.2641 N   0  0  0  0  0  0  0  0  0  0  0  0
    5.5966   -1.1901   -1.8599 C   0  0  0  0  0  0  0  0  0  0  0  0
    3.7647   -2.0482   -2.4879 H   0  0  0  0  0  0  0  0  0  0  0  0
    6.2398   -1.0930   -2.7470 H   0  0  0  0  0  0  0  0  0  0  0  0
    5.7938   -0.3555   -1.1710 H   0  0  0  0  0  0  0  0  0  0  0  0
    5.8123   -2.1424   -1.3532 H   0  0  0  0  0  0  0  0  0  0  0  0
  1  3  1  0  0  0  0
  1  7  1  0  0  0  0
  1  2  2  0  0  0  0
 23 25  1  0  0  0  0
 23 29  1  0  0  0  0
 23 24  2  0  0  0  0
 50 51  1  0  0  0  0
 51 59  1  0  0  0  0
 51 52  2  0  0  0  0
  8  9  1  0  0  0  0
  9 17  1  0  0  0  0
  9 10  2  0  0  0  0
 30 31  1  0  0  0  0
 31 39  1  0  0  0  0
 31 32  2  0  0  0  0
 40 41  1  0  0  0  0
 41 49  1  0  0  0  0
 41 42  2  0  0  0  0
 50 53  1  0  0  0  0
 30 33  1  0  0  0  0
 59 60  1  0  0  0  0
 17 18  1  0  0  0  0
  8 11  1  0  0  0  0
 11 12  1  0  0  0  0
 40 43  1  0  0  0  0
 43 44  1  0  0  0  0
 49 50  1  0  0  0  0
  7  8  1  0  0  0  0
 29 30  1  0  0  0  0
 39 40  1  0  0  0  0
 12 44  1  0  0  0  0
  3  4  1  0  0  0  0
  3  5  1  0  0  0  0
  3  6  1  0  0  0  0
 25 26  1  0  0  0  0
 25 27  1  0  0  0  0
 25 28  1  0  0  0  0
 53 56  1  0  0  0  0
 53 57  1  0  0  0  0
 53 58  1  0  0  0  0
 33 36  1  0  0  0  0
 33 37  1  0  0  0  0
 33 38  1  0  0  0  0
 60 62  1  0  0  0  0
 60 63  1  0  0  0  0
 60 64  1  0  0  0  0
 18 20  1  0  0  0  0
 18 21  1  0  0  0  0
 18 22  1  0  0  0  0
 11 15  1  0  0  0  0
 11 16  1  0  0  0  0
 43 47  1  0  0  0  0
 43 48  1  0  0  0  0
 50 55  1  0  0  0  0
  8 14  1  0  0  0  0
 30 35  1  0  0  0  0
 40 46  1  0  0  0  0
 59 61  1  0  0  0  0
 17 19  1  0  0  0  0
  7 13  1  0  0  0  0
 29 34  1  0  0  0  0
 49 54  1  0  0  0  0
 39 45  1  0  0  0  0
M  END
$$$$

  -OEChem-05262214473D

 64 63  0     1  0  0  0  0  0999 V2000
   -3.0551    3.3021    6.6358 C   0  0  0  0  0  0  0  0  0  0  0  0
   -4.2352    3.0434    6.4302 O   0  0  0  0  0  0  0  0  0  0  0  0
   -2.6966    4.4495    7.5208 C   0  0  0  0  0  0  0  0  0  0  0  0
   -2.5898    5.3936    6.9628 H   0  0  0  0  0  0  0  0  0  0  0  0
   -3.4659    4.6479    8.2843 H   0  0  0  0  0  0  0  0  0  0  0  0
   -1.7549    4.3360    8.0813 H   0  0  0  0  0  0  0  0  0  0  0  0
   -1.9655    2.6217    6.1203 N   0  0  0  0  0  0  0  0  0  0  0  0
   -2.0855    1.4828    5.2457 C   0  0  2  0  0  0  0  0  0  0  0  0
   -0.9475    0.5086    5.5433 C   0  0  0  0  0  0  0  0  0  0  0  0
   -0.0347    0.7642    6.3262 O   0  0  0  0  0  0  0  0  0  0  0  0
   -2.1690    1.8864    3.7715 C   0  0  0  0  0  0  0  0  0  0  0  0
   -0.6763    2.7322    3.1559 S   0  0  0  0  0  0  0  0  0  0  0  0
   -1.0329    2.9419    6.3715 H   0  0  0  0  0  0  0  0  0  0  0  0
   -3.0246    0.9913    5.5290 H   0  0  0  0  0  0  0  0  0  0  0  0
   -2.3303    1.0063    3.1406 H   0  0  0  0  0  0  0  0  0  0  0  0
   -3.0163    2.5632    3.6174 H   0  0  0  0  0  0  0  0  0  0  0  0
   -1.0584   -0.6667    4.8140 N   0  0  0  0  0  0  0  0  0  0  0  0
   -0.0891   -1.7337    4.9038 C   0  0  0  0  0  0  0  0  0  0  0  0
   -1.8701   -0.8125    4.2212 H   0  0  0  0  0  0  0  0  0  0  0  0
    0.6733   -1.6039    4.1216 H   0  0  0  0  0  0  0  0  0  0  0  0
    0.3923   -1.7092    5.8925 H   0  0  0  0  0  0  0  0  0  0  0  0
   -0.5948   -2.7008    4.7660 H   0  0  0  0  0  0  0  0  0  0  0  0
   -6.7256    2.0330   -0.2766 C   0  0  0  0  0  0  0  0  0  0  0  0
   -7.1824    1.1039   -0.9322 O   0  0  0  0  0  0  0  0  0  0  0  0
   -7.5276    2.6077    0.8435 C   0  0  0  0  0  0  0  0  0  0  0  0
   -8.1775    3.4344    0.5145 H   0  0  0  0  0  0  0  0  0  0  0  0
   -8.2057    1.8676    1.2980 H   0  0  0  0  0  0  0  0  0  0  0  0
   -6.9411    3.0162    1.6819 H   0  0  0  0  0  0  0  0  0  0  0  0
   -5.4935    2.6382   -0.4627 N   0  0  0  0  0  0  0  0  0  0  0  0
   -4.5619    2.2388   -1.4845 C   0  0  2  0  0  0  0  0  0  0  0  0
   -3.1535    2.4674   -0.9521 C   0  0  0  0  0  0  0  0  0  0  0  0
   -2.8634    3.3945   -0.1987 O   0  0  0  0  0  0  0  0  0  0  0  0
   -4.7883    3.0138   -2.7732 C   0  0  0  0  0  0  0  0  0  0  0  0
   -5.2337    3.4049    0.1551 H   0  0  0  0  0  0  0  0  0  0  0  0
   -4.7192    1.1682   -1.6549 H   0  0  0  0  0  0  0  0  0  0  0  0
   -4.6352    4.0886   -2.6221 H   0  0  0  0  0  0  0  0  0  0  0  0
   -4.0976    2.6887   -3.5582 H   0  0  0  0  0  0  0  0  0  0  0  0
   -5.8111    2.8719   -3.1387 H   0  0  0  0  0  0  0  0  0  0  0  0
   -2.2466    1.5400   -1.4507 N   0  0  0  0  0  0  0  0  0  0  0  0
   -0.8424    1.5707   -1.1286 C   0  0  2  0  0  0  0  0  0  0  0  0
   -0.1458    0.4143   -1.8428 C   0  0  0  0  0  0  0  0  0  0  0  0
   -0.7541   -0.5404   -2.3223 O   0  0  0  0  0  0  0  0  0  0  0  0
   -0.5913    1.5911    0.3812 C   0  0  0  0  0  0  0  0  0  0  0  0
   -1.1911    3.0887    1.1998 S   0  0  0  0  0  0  0  0  0  0  0  0
   -2.5850    0.7815   -2.0381 H   0  0  0  0  0  0  0  0  0  0  0  0
   -0.4613    2.5044   -1.5606 H   0  0  0  0  0  0  0  0  0  0  0  0
   -1.0781    0.7371    0.8634 H   0  0  0  0  0  0  0  0  0  0  0  0
    0.4829    1.5157    0.5819 H   0  0  0  0  0  0  0  0  0  0  0  0
    1.2338    0.5623   -1.8592 N   0  0  0  0  0  0  0  0  0  0  0  0
    2.1150   -0.4142   -2.4557 C   0  0  2  0  0  0  0  0  0  0  0  0
    3.4168   -0.4180   -1.6653 C   0  0  0  0  0  0  0  0  0  0  0  0
    3.8932    0.5927   -1.1527 O   0  0  0  0  0  0  0  0  0  0  0  0
    2.3708   -0.1055   -3.9227 C   0  0  0  0  0  0  0  0  0  0  0  0
    1.6508    1.4058   -1.4766 H   0  0  0  0  0  0  0  0  0  0  0  0
    1.6229   -1.3877   -2.3548 H   0  0  0  0  0  0  0  0  0  0  0  0
    2.8634    0.8662   -4.0438 H   0  0  0  0  0  0  0  0  0  0  0  0
    3.0160   -0.8625   -4.3808 H   0  0  0  0  0  0  0  0  0  0  0  0
    1.4307   -0.0738   -4.4840 H   0  0  0  0  0  0  0  0  0  0  0  0
    4.0060   -1.6742   -1.6361 N   0  0  0  0  0  0  0  0  0  0  0  0
    5.2698   -1.9276   -0.9846 C   0  0  0  0  0  0  0  0  0  0  0  0
    3.5212   -2.4633   -2.0532 H   0  0  0  0  0  0  0  0  0  0  0  0
    6.0865   -1.8233   -1.7141 H   0  0  0  0  0  0  0  0  0  0  0  0
    5.4129   -1.2043   -0.1683 H   0  0  0  0  0  0  0  0  0  0  0  0
    5.2727   -2.9484   -0.5746 H   0  0  0  0  0  0  0  0  0  0  0  0
  1  3  1  0  0  0  0
  1  7  1  0  0  0  0
  1  2  2  0  0  0  0
 23 25  1  0  0  0  0
 23 29  1  0  0  0  0
 23 24  2  0  0  0  0
 50 51  1  0  0  0  0
 51 59  1  0  0  0  0
 51 52  2  0  0  0  0
  8  9  1  0  0  0  0
  9 17  1  0  0  0  0
  9 10  2  0  0  0  0
 30 31  1  0  0  0  0
 31 39  1  0  0  0  0
 31 32  2  0  0  0  0
 40 41  1  0  0  0  0
 41 49  1  0  0  0  0
 41 42  2  0  0  0  0
 50 53  1  0  0  0  0
 30 33  1  0  0  0  0
 59 60  1  0  0  0  0
 17 18  1  0  0  0  0
  8 11  1  0  0  0  0
 11 12  1  0  0  0  0
 40 43  1  0  0  0  0
 43 44  1  0  0  0  0
 49 50  1  0  0  0  0
  7  8  1  0  0  0  0
 29 30  1  0  0  0  0
 39 40  1  0  0  0  0
 12 44  1  0  0  0  0
  3  4  1  0  0  0  0
  3  5  1  0  0  0  0
  3  6  1  0  0  0  0
 25 26  1  0  0  0  0
 25 27  1  0  0  0  0
 25 28  1  0  0  0  0
 53 56  1  0  0  0  0
 53 57  1  0  0  0  0
 53 58  1  0  0  0  0
 33 36  1  0  0  0  0
 33 37  1  0  0  0  0
 33 38  1  0  0  0  0
 60 62  1  0  0  0  0
 60 63  1  0  0  0  0
 60 64  1  0  0  0  0
 18 20  1  0  0  0  0
 18 21  1  0  0  0  0
 18 22  1  0  0  0  0
 11 15  1  0  0  0  0
 11 16  1  0  0  0  0
 43 47  1  0  0  0  0
 43 48  1  0  0  0  0
 50 55  1  0  0  0  0
  8 14  1  0  0  0  0
 30 35  1  0  0  0  0
 40 46  1  0  0  0  0
 59 61  1  0  0  0  0
 17 19  1  0  0  0  0
  7 13  1  0  0  0  0
 29 34  1  0  0  0  0
 49 54  1  0  0  0  0
 39 45  1  0  0  0  0
M  END
$$$$

  -OEChem-05262214473D

 64 63  0     1  0  0  0  0  0999 V2000
   -3.0498    1.1566    6.8171 C   0  0  0  0  0  0  0  0  0  0  0  0
   -4.2157    0.8894    6.5507 O   0  0  0  0  0  0  0  0  0  0  0  0
   -2.7461    2.0628    7.9638 C   0  0  0  0  0  0  0  0  0  0  0  0
   -2.7006    3.1216    7.6623 H   0  0  0  0  0  0  0  0  0  0  0  0
   -3.5154    2.0170    8.7512 H   0  0  0  0  0  0  0  0  0  0  0  0
   -1.7922    1.8671    8.4793 H   0  0  0  0  0  0  0  0  0  0  0  0
   -1.9298    0.6931    6.1487 N   0  0  0  0  0  0  0  0  0  0  0  0
   -1.9959   -0.1936    5.0147 C   0  0  2  0  0  0  0  0  0  0  0  0
   -0.8003   -1.1430    5.0591 C   0  0  0  0  0  0  0  0  0  0  0  0
    0.1064   -1.0400    5.8829 O   0  0  0  0  0  0  0  0  0  0  0  0
   -2.1214    0.5629    3.6900 C   0  0  0  0  0  0  0  0  0  0  0  0
   -0.6875    1.6225    3.3107 S   0  0  0  0  0  0  0  0  0  0  0  0
   -1.0139    0.9937    6.4744 H   0  0  0  0  0  0  0  0  0  0  0  0
   -2.9016   -0.7947    5.1631 H   0  0  0  0  0  0  0  0  0  0  0  0
   -2.2403   -0.1377    2.8571 H   0  0  0  0  0  0  0  0  0  0  0  0
   -3.0079    1.2059    3.7101 H   0  0  0  0  0  0  0  0  0  0  0  0
   -0.8533   -2.1010    4.0566 N   0  0  0  0  0  0  0  0  0  0  0  0
    0.1764   -3.0974    3.8760 C   0  0  0  0  0  0  0  0  0  0  0  0
   -1.6630   -2.1399    3.4446 H   0  0  0  0  0  0  0  0  0  0  0  0
    0.9200   -2.7303    3.1533 H   0  0  0  0  0  0  0  0  0  0  0  0
    0.6685   -3.2949    4.8399 H   0  0  0  0  0  0  0  0  0  0  0  0
   -0.2748   -4.0265    3.4976 H   0  0  0  0  0  0  0  0  0  0  0  0
   -6.7256    2.0330   -0.2766 C   0  0  0  0  0  0  0  0  0  0  0  0
   -7.1824    1.1039   -0.9322 O   0  0  0  0  0  0  0  0  0  0  0  0
   -7.5276    2.6077    0.8435 C   0  0  0  0  0  0  0  0  0  0  0  0
   -8.1775    3.4344    0.5145 H   0  0  0  0  0  0  0  0  0  0  0  0
   -8.2057    1.8676    1.2980 H   0  0  0  0  0  0  0  0  0  0  0  0
   -6.9411    3.0162    1.6819 H   0  0  0  0  0  0  0  0  0  0  0  0
   -5.4935    2.6382   -0.4627 N   0  0  0  0  0  0  0  0  0  0  0  0
   -4.5619    2.2388   -1.4845 C   0  0  2  0  0  0  0  0  0  0  0  0
   -3.1535    2.4674   -0.9521 C   0  0  0  0  0  0  0  0  0  0  0  0
   -2.8634    3.3945   -0.1987 O   0  0  0  0  0  0  0  0  0  0  0  0
   -4.7883    3.0138   -2.7732 C   0  0  0  0  0  0  0  0  0  0  0  0
   -5.2337    3.4049    0.1551 H   0  0  0  0  0  0  0  0  0  0  0  0
   -4.7192    1.1682   -1.6549 H   0  0  0  0  0  0  0  0  0  0  0  0
   -4.6352    4.0886   -2.6221 H   0  0  0  0  0  0  0  0  0  0  0  0
   -4.0976    2.6887   -3.5582 H   0  0  0  0  0  0  0  0  0  0  0  0
   -5.8111    2.8719   -3.1387 H   0  0  0  0  0  0  0  0  0  0  0  0
   -2.2466    1.5400   -1.4507 N   0  0  0  0  0  0  0  0  0  0  0  0
   -0.8424    1.5707   -1.1286 C   0  0  2  0  0  0  0  0  0  0  0  0
   -0.0902    0.6745   -2.1102 C   0  0  0  0  0  0  0  0  0  0  0  0
   -0.6508    0.0357   -2.9984 O   0  0  0  0  0  0  0  0  0  0  0  0
   -0.5734    1.2246    0.3380 C   0  0  0  0  0  0  0  0  0  0  0  0
   -1.2472    2.4297    1.5069 S   0  0  0  0  0  0  0  0  0  0  0  0
   -2.5850    0.7815   -2.0381 H   0  0  0  0  0  0  0  0  0  0  0  0
   -0.5209    2.6038   -1.3103 H   0  0  0  0  0  0  0  0  0  0  0  0
   -1.0043    0.2496    0.5881 H   0  0  0  0  0  0  0  0  0  0  0  0
    0.5058    1.1640    0.5152 H   0  0  0  0  0  0  0  0  0  0  0  0
    1.2749    0.6534   -1.8615 N   0  0  0  0  0  0  0  0  0  0  0  0
    2.1964   -0.1405   -2.6402 C   0  0  2  0  0  0  0  0  0  0  0  0
    3.3281   -0.5830   -1.7220 C   0  0  0  0  0  0  0  0  0  0  0  0
    3.7562    0.1113   -0.8024 O   0  0  0  0  0  0  0  0  0  0  0  0
    2.7345    0.6423   -3.8278 C   0  0  0  0  0  0  0  0  0  0  0  0
    1.6595    1.2469   -1.1325 H   0  0  0  0  0  0  0  0  0  0  0  0
    1.6419   -1.0193   -2.9870 H   0  0  0  0  0  0  0  0  0  0  0  0
    3.2931    1.5266   -3.5000 H   0  0  0  0  0  0  0  0  0  0  0  0
    3.4108    0.0298   -4.4331 H   0  0  0  0  0  0  0  0  0  0  0  0
    1.9170    0.9852   -4.4712 H   0  0  0  0  0  0  0  0  0  0  0  0
    3.8326   -1.8262   -2.0773 N   0  0  0  0  0  0  0  0  0  0  0  0
    4.9390   -2.4452   -1.3855 C   0  0  0  0  0  0  0  0  0  0  0  0
    3.3906   -2.3489   -2.8277 H   0  0  0  0  0  0  0  0  0  0  0  0
    5.8805   -2.1834   -1.8905 H   0  0  0  0  0  0  0  0  0  0  0  0
    4.9684   -2.0863   -0.3461 H   0  0  0  0  0  0  0  0  0  0  0  0
    4.8107   -3.5377   -1.3927 H   0  0  0  0  0  0  0  0  0  0  0  0
  1  3  1  0  0  0  0
  1  7  1  0  0  0  0
  1  2  2  0  0  0  0
 23 25  1  0  0  0  0
 23 29  1  0  0  0  0
 23 24  2  0  0  0  0
 50 51  1  0  0  0  0
 51 59  1  0  0  0  0
 51 52  2  0  0  0  0
  8  9  1  0  0  0  0
  9 17  1  0  0  0  0
  9 10  2  0  0  0  0
 30 31  1  0  0  0  0
 31 39  1  0  0  0  0
 31 32  2  0  0  0  0
 40 41  1  0  0  0  0
 41 49  1  0  0  0  0
 41 42  2  0  0  0  0
 50 53  1  0  0  0  0
 30 33  1  0  0  0  0
 59 60  1  0  0  0  0
 17 18  1  0  0  0  0
  8 11  1  0  0  0  0
 11 12  1  0  0  0  0
 40 43  1  0  0  0  0
 43 44  1  0  0  0  0
 49 50  1  0  0  0  0
  7  8  1  0  0  0  0
 29 30  1  0  0  0  0
 39 40  1  0  0  0  0
 12 44  1  0  0  0  0
  3  4  1  0  0  0  0
  3  5  1  0  0  0  0
  3  6  1  0  0  0  0
 25 26  1  0  0  0  0
 25 27  1  0  0  0  0
 25 28  1  0  0  0  0
 53 56  1  0  0  0  0
 53 57  1  0  0  0  0
 53 58  1  0  0  0  0
 33 36  1  0  0  0  0
 33 37  1  0  0  0  0
 33 38  1  0  0  0  0
 60 62  1  0  0  0  0
 60 63  1  0  0  0  0
 60 64  1  0  0  0  0
 18 20  1  0  0  0  0
 18 21  1  0  0  0  0
 18 22  1  0  0  0  0
 11 15  1  0  0  0  0
 11 16  1  0  0  0  0
 43 47  1  0  0  0  0
 43 48  1  0  0  0  0
 50 55  1  0  0  0  0
  8 14  1  0  0  0  0
 30 35  1  0  0  0  0
 40 46  1  0  0  0  0
 59 61  1  0  0  0  0
 17 19  1  0  0  0  0
  7 13  1  0  0  0  0
 29 34  1  0  0  0  0
 49 54  1  0  0  0  0
 39 45  1  0  0  0  0
M  END
$$$$

  -OEChem-05262214473D

 64 63  0     1  0  0  0  0  0999 V2000
   -3.0498    1.1566    6.8171 C   0  0  0  0  0  0  0  0  0  0  0  0
   -4.2157    0.8894    6.5507 O   0  0  0  0  0  0  0  0  0  0  0  0
   -2.7461    2.0628    7.9638 C   0  0  0  0  0  0  0  0  0  0  0  0
   -2.7006    3.1216    7.6623 H   0  0  0  0  0  0  0  0  0  0  0  0
   -3.5154    2.0170    8.7512 H   0  0  0  0  0  0  0  0  0  0  0  0
   -1.7922    1.8671    8.4793 H   0  0  0  0  0  0  0  0  0  0  0  0
   -1.9298    0.6931    6.1487 N   0  0  0  0  0  0  0  0  0  0  0  0
   -1.9959   -0.1936    5.0147 C   0  0  2  0  0  0  0  0  0  0  0  0
   -0.8003   -1.1430    5.0591 C   0  0  0  0  0  0  0  0  0  0  0  0
    0.1064   -1.0400    5.8829 O   0  0  0  0  0  0  0  0  0  0  0  0
   -2.1214    0.5629    3.6900 C   0  0  0  0  0  0  0  0  0  0  0  0
   -0.6875    1.6225    3.3107 S   0  0  0  0  0  0  0  0  0  0  0  0
   -1.0139    0.9937    6.4744 H   0  0  0  0  0  0  0  0  0  0  0  0
   -2.9016   -0.7947    5.1631 H   0  0  0  0  0  0  0  0  0  0  0  0
   -2.2403   -0.1377    2.8571 H   0  0  0  0  0  0  0  0  0  0  0  0
   -3.0079    1.2059    3.7101 H   0  0  0  0  0  0  0  0  0  0  0  0
   -0.8533   -2.1010    4.0566 N   0  0  0  0  0  0  0  0  0  0  0  0
    0.1764   -3.0974    3.8760 C   0  0  0  0  0  0  0  0  0  0  0  0
   -1.6630   -2.1399    3.4446 H   0  0  0  0  0  0  0  0  0  0  0  0
    0.9200   -2.7303    3.1533 H   0  0  0  0  0  0  0  0  0  0  0  0
    0.6685   -3.2949    4.8399 H   0  0  0  0  0  0  0  0  0  0  0  0
   -0.2748   -4.0265    3.4976 H   0  0  0  0  0  0  0  0  0  0  0  0
   -6.7256    2.0330   -0.2766 C   0  0  0  0  0  0  0  0  0  0  0  0
   -7.1824    1.1039   -0.9322 O   0  0  0  0  0  0  0  0  0  0  0  0
   -7.5276    2.6077    0.8435 C   0  0  0  0  0  0  0  0  0  0  0  0
   -8.1775    3.4344    0.5145 H   0  0  0  0  0  0  0  0  0  0  0  0
   -8.2057    1.8676    1.2980 H   0  0  0  0  0  0  0  0  0  0  0  0
   -6.9411    3.0162    1.6819 H   0  0  0  0  0  0  0  0  0  0  0  0
   -5.4935    2.6382   -0.4627 N   0  0  0  0  0  0  0  0  0  0  0  0
   -4.5619    2.2388   -1.4845 C   0  0  2  0  0  0  0  0  0  0  0  0
   -3.1535    2.4674   -0.9521 C   0  0  0  0  0  0  0  0  0  0  0  0
   -2.8634    3.3945   -0.1987 O   0  0  0  0  0  0  0  0  0  0  0  0
   -4.7883    3.0138   -2.7732 C   0  0  0  0  0  0  0  0  0  0  0  0
   -5.2337    3.4049    0.1551 H   0  0  0  0  0  0  0  0  0  0  0  0
   -4.7192    1.1682   -1.6549 H   0  0  0  0  0  0  0  0  0  0  0  0
   -4.6352    4.0886   -2.6221 H   0  0  0  0  0  0  0  0  0  0  0  0
   -4.0976    2.6887   -3.5582 H   0  0  0  0  0  0  0  0  0  0  0  0
   -5.8111    2.8719   -3.1387 H   0  0  0  0  0  0  0  0  0  0  0  0
   -2.2466    1.5400   -1.4507 N   0  0  0  0  0  0  0  0  0  0  0  0
   -0.8424    1.5707   -1.1286 C   0  0  2  0  0  0  0  0  0  0  0  0
   -0.0902    0.6745   -2.1102 C   0  0  0  0  0  0  0  0  0  0  0  0
   -0.5918    0.2505   -3.1494 O   0  0  0  0  0  0  0  0  0  0  0  0
   -0.5734    1.2246    0.3380 C   0  0  0  0  0  0  0  0  0  0  0  0
   -1.2472    2.4297    1.5069 S   0  0  0  0  0  0  0  0  0  0  0  0
   -2.5850    0.7815   -2.0381 H   0  0  0  0  0  0  0  0  0  0  0  0
   -0.5209    2.6038   -1.3103 H   0  0  0  0  0  0  0  0  0  0  0  0
   -1.0043    0.2496    0.5881 H   0  0  0  0  0  0  0  0  0  0  0  0
    0.5058    1.1640    0.5152 H   0  0  0  0  0  0  0  0  0  0  0  0
    1.1959    0.3848   -1.6769 N   0  0  0  0  0  0  0  0  0  0  0  0
    2.0960   -0.4645   -2.4213 C   0  0  2  0  0  0  0  0  0  0  0  0
    2.9799   -1.2017   -1.4240 C   0  0  0  0  0  0  0  0  0  0  0  0
    3.3561   -0.7037   -0.3649 O   0  0  0  0  0  0  0  0  0  0  0  0
    2.9359    0.3422   -3.3994 C   0  0  0  0  0  0  0  0  0  0  0  0
    1.5449    0.8138   -0.8248 H   0  0  0  0  0  0  0  0  0  0  0  0
    1.4747   -1.1862   -2.9628 H   0  0  0  0  0  0  0  0  0  0  0  0
    3.5652    1.0707   -2.8753 H   0  0  0  0  0  0  0  0  0  0  0  0
    3.5974   -0.3064   -3.9832 H   0  0  0  0  0  0  0  0  0  0  0  0
    2.2979    0.8952   -4.0972 H   0  0  0  0  0  0  0  0  0  0  0  0
    3.3346   -2.4652   -1.8754 N   0  0  0  0  0  0  0  0  0  0  0  0
    4.2031   -3.3447   -1.1282 C   0  0  0  0  0  0  0  0  0  0  0  0
    2.9443   -2.8124   -2.7466 H   0  0  0  0  0  0  0  0  0  0  0  0
    5.2434   -3.1968   -1.4535 H   0  0  0  0  0  0  0  0  0  0  0  0
    4.1188   -3.1182   -0.0551 H   0  0  0  0  0  0  0  0  0  0  0  0
    3.9083   -4.3894   -1.3067 H   0  0  0  0  0  0  0  0  0  0  0  0
  1  3  1  0  0  0  0
  1  7  1  0  0  0  0
  1  2  2  0  0  0  0
 23 25  1  0  0  0  0
 23 29  1  0  0  0  0
 23 24  2  0  0  0  0
 50 51  1  0  0  0  0
 51 59  1  0  0  0  0
 51 52  2  0  0  0  0
  8  9  1  0  0  0  0
  9 17  1  0  0  0  0
  9 10  2  0  0  0  0
 30 31  1  0  0  0  0
 31 39  1  0  0  0  0
 31 32  2  0  0  0  0
 40 41  1  0  0  0  0
 41 49  1  0  0  0  0
 41 42  2  0  0  0  0
 50 53  1  0  0  0  0
 30 33  1  0  0  0  0
 59 60  1  0  0  0  0
 17 18  1  0  0  0  0
  8 11  1  0  0  0  0
 11 12  1  0  0  0  0
 40 43  1  0  0  0  0
 43 44  1  0  0  0  0
 49 50  1  0  0  0  0
  7  8  1  0  0  0  0
 29 30  1  0  0  0  0
 39 40  1  0  0  0  0
 12 44  1  0  0  0  0
  3  4  1  0  0  0  0
  3  5  1  0  0  0  0
  3  6  1  0  0  0  0
 25 26  1  0  0  0  0
 25 27  1  0  0  0  0
 25 28  1  0  0  0  0
 53 56  1  0  0  0  0
 53 57  1  0  0  0  0
 53 58  1  0  0  0  0
 33 36  1  0  0  0  0
 33 37  1  0  0  0  0
 33 38  1  0  0  0  0
 60 62  1  0  0  0  0
 60 63  1  0  0  0  0
 60 64  1  0  0  0  0
 18 20  1  0  0  0  0
 18 21  1  0  0  0  0
 18 22  1  0  0  0  0
 11 15  1  0  0  0  0
 11 16  1  0  0  0  0
 43 47  1  0  0  0  0
 43 48  1  0  0  0  0
 50 55  1  0  0  0  0
  8 14  1  0  0  0  0
 30 35  1  0  0  0  0
 40 46  1  0  0  0  0
 59 61  1  0  0  0  0
 17 19  1  0  0  0  0
  7 13  1  0  0  0  0
 29 34  1  0  0  0  0
 49 54  1  0  0  0  0
 39 45  1  0  0  0  0
M  END
$$$$

  -OEChem-05262214473D

 64 63  0     1  0  0  0  0  0999 V2000
   -3.0498    1.1566    6.8171 C   0  0  0  0  0  0  0  0  0  0  0  0
   -4.2157    0.8894    6.5507 O   0  0  0  0  0  0  0  0  0  0  0  0
   -2.7461    2.0628    7.9638 C   0  0  0  0  0  0  0  0  0  0  0  0
   -2.7006    3.1216    7.6623 H   0  0  0  0  0  0  0  0  0  0  0  0
   -3.5154    2.0170    8.7512 H   0  0  0  0  0  0  0  0  0  0  0  0
   -1.7922    1.8671    8.4793 H   0  0  0  0  0  0  0  0  0  0  0  0
   -1.9298    0.6931    6.1487 N   0  0  0  0  0  0  0  0  0  0  0  0
   -1.9959   -0.1936    5.0147 C   0  0  2  0  0  0  0  0  0  0  0  0
   -0.8003   -1.1430    5.0591 C   0  0  0  0  0  0  0  0  0  0  0  0
    0.1064   -1.0400    5.8829 O   0  0  0  0  0  0  0  0  0  0  0  0
   -2.1214    0.5629    3.6900 C   0  0  0  0  0  0  0  0  0  0  0  0
   -0.6875    1.6225    3.3107 S   0  0  0  0  0  0  0  0  0  0  0  0
   -1.0139    0.9937    6.4744 H   0  0  0  0  0  0  0  0  0  0  0  0
   -2.9016   -0.7947    5.1631 H   0  0  0  0  0  0  0  0  0  0  0  0
   -2.2403   -0.1377    2.8571 H   0  0  0  0  0  0  0  0  0  0  0  0
   -3.0079    1.2059    3.7101 H   0  0  0  0  0  0  0  0  0  0  0  0
   -0.8533   -2.1010    4.0566 N   0  0  0  0  0  0  0  0  0  0  0  0
    0.1764   -3.0974    3.8760 C   0  0  0  0  0  0  0  0  0  0  0  0
   -1.6630   -2.1399    3.4446 H   0  0  0  0  0  0  0  0  0  0  0  0
    0.9200   -2.7303    3.1533 H   0  0  0  0  0  0  0  0  0  0  0  0
    0.6685   -3.2949    4.8399 H   0  0  0  0  0  0  0  0  0  0  0  0
   -0.2748   -4.0265    3.4976 H   0  0  0  0  0  0  0  0  0  0  0  0
   -6.7256    2.0330   -0.2766 C   0  0  0  0  0  0  0  0  0  0  0  0
   -7.1824    1.1039   -0.9322 O   0  0  0  0  0  0  0  0  0  0  0  0
   -7.5276    2.6077    0.8435 C   0  0  0  0  0  0  0  0  0  0  0  0
   -8.1775    3.4344    0.5145 H   0  0  0  0  0  0  0  0  0  0  0  0
   -8.2057    1.8676    1.2980 H   0  0  0  0  0  0  0  0  0  0  0  0
   -6.9411    3.0162    1.6819 H   0  0  0  0  0  0  0  0  0  0  0  0
   -5.4935    2.6382   -0.4627 N   0  0  0  0  0  0  0  0  0  0  0  0
   -4.5619    2.2388   -1.4845 C   0  0  2  0  0  0  0  0  0  0  0  0
   -3.1535    2.4674   -0.9521 C   0  0  0  0  0  0  0  0  0  0  0  0
   -2.8634    3.3945   -0.1987 O   0  0  0  0  0  0  0  0  0  0  0  0
   -4.7883    3.0138   -2.7732 C   0  0  0  0  0  0  0  0  0  0  0  0
   -5.2337    3.4049    0.1551 H   0  0  0  0  0  0  0  0  0  0  0  0
   -4.7192    1.1682   -1.6549 H   0  0  0  0  0  0  0  0  0  0  0  0
   -4.6352    4.0886   -2.6221 H   0  0  0  0  0  0  0  0  0  0  0  0
   -4.0976    2.6887   -3.5582 H   0  0  0  0  0  0  0  0  0  0  0  0
   -5.8111    2.8719   -3.1387 H   0  0  0  0  0  0  0  0  0  0  0  0
   -2.2466    1.5400   -1.4507 N   0  0  0  0  0  0  0  0  0  0  0  0
   -0.8424    1.5707   -1.1286 C   0  0  2  0  0  0  0  0  0  0  0  0
   -0.0902    0.6745   -2.1102 C   0  0  0  0  0  0  0  0  0  0  0  0
   -0.4762    0.4675   -3.2589 O   0  0  0  0  0  0  0  0  0  0  0  0
   -0.5734    1.2246    0.3380 C   0  0  0  0  0  0  0  0  0  0  0  0
   -1.2472    2.4297    1.5069 S   0  0  0  0  0  0  0  0  0  0  0  0
   -2.5850    0.7815   -2.0381 H   0  0  0  0  0  0  0  0  0  0  0  0
   -0.5209    2.6038   -1.3103 H   0  0  0  0  0  0  0  0  0  0  0  0
   -1.0043    0.2496    0.5881 H   0  0  0  0  0  0  0  0  0  0  0  0
    0.5058    1.1640    0.5152 H   0  0  0  0  0  0  0  0  0  0  0  0
    1.0469    0.1150   -1.5447 N   0  0  0  0  0  0  0  0  0  0  0  0
    1.9120   -0.7885   -2.2665 C   0  0  2  0  0  0  0  0  0  0  0  0
    2.4954   -1.7794   -1.2678 C   0  0  0  0  0  0  0  0  0  0  0  0
    2.7676   -1.4802   -0.1070 O   0  0  0  0  0  0  0  0  0  0  0  0
    3.0155   -0.0358   -2.9933 C   0  0  0  0  0  0  0  0  0  0  0  0
    1.3154    0.3752   -0.6003 H   0  0  0  0  0  0  0  0  0  0  0  0
    1.2818   -1.3226   -2.9860 H   0  0  0  0  0  0  0  0  0  0  0  0
    3.6573    0.5055   -2.2886 H   0  0  0  0  0  0  0  0  0  0  0  0
    3.6534   -0.7195   -3.5631 H   0  0  0  0  0  0  0  0  0  0  0  0
    2.5940    0.6973   -3.6895 H   0  0  0  0  0  0  0  0  0  0  0  0
    2.7167   -3.0254   -1.8375 N   0  0  0  0  0  0  0  0  0  0  0  0
    3.3036   -4.1239   -1.1062 C   0  0  0  0  0  0  0  0  0  0  0  0
    2.4238   -3.1962   -2.7950 H   0  0  0  0  0  0  0  0  0  0  0  0
    4.3931   -4.1253   -1.2574 H   0  0  0  0  0  0  0  0  0  0  0  0
    3.0824   -4.0106   -0.0346 H   0  0  0  0  0  0  0  0  0  0  0  0
    2.8819   -5.0728   -1.4692 H   0  0  0  0  0  0  0  0  0  0  0  0
  1  3  1  0  0  0  0
  1  7  1  0  0  0  0
  1  2  2  0  0  0  0
 23 25  1  0  0  0  0
 23 29  1  0  0  0  0
 23 24  2  0  0  0  0
 50 51  1  0  0  0  0
 51 59  1  0  0  0  0
 51 52  2  0  0  0  0
  8  9  1  0  0  0  0
  9 17  1  0  0  0  0
  9 10  2  0  0  0  0
 30 31  1  0  0  0  0
 31 39  1  0  0  0  0
 31 32  2  0  0  0  0
 40 41  1  0  0  0  0
 41 49  1  0  0  0  0
 41 42  2  0  0  0  0
 50 53  1  0  0  0  0
 30 33  1  0  0  0  0
 59 60  1  0  0  0  0
 17 18  1  0  0  0  0
  8 11  1  0  0  0  0
 11 12  1  0  0  0  0
 40 43  1  0  0  0  0
 43 44  1  0  0  0  0
 49 50  1  0  0  0  0
  7  8  1  0  0  0  0
 29 30  1  0  0  0  0
 39 40  1  0  0  0  0
 12 44  1  0  0  0  0
  3  4  1  0  0  0  0
  3  5  1  0  0  0  0
  3  6  1  0  0  0  0
 25 26  1  0  0  0  0
 25 27  1  0  0  0  0
 25 28  1  0  0  0  0
 53 56  1  0  0  0  0
 53 57  1  0  0  0  0
 53 58  1  0  0  0  0
 33 36  1  0  0  0  0
 33 37  1  0  0  0  0
 33 38  1  0  0  0  0
 60 62  1  0  0  0  0
 60 63  1  0  0  0  0
 60 64  1  0  0  0  0
 18 20  1  0  0  0  0
 18 21  1  0  0  0  0
 18 22  1  0  0  0  0
 11 15  1  0  0  0  0
 11 16  1  0  0  0  0
 43 47  1  0  0  0  0
 43 48  1  0  0  0  0
 50 55  1  0  0  0  0
  8 14  1  0  0  0  0
 30 35  1  0  0  0  0
 40 46  1  0  0  0  0
 59 61  1  0  0  0  0
 17 19  1  0  0  0  0
  7 13  1  0  0  0  0
 29 34  1  0  0  0  0
 49 54  1  0  0  0  0
 39 45  1  0  0  0  0
M  END
$$$$

  -OEChem-05262214473D

 64 63  0     1  0  0  0  0  0999 V2000
   -3.0498    1.1566    6.8171 C   0  0  0  0  0  0  0  0  0  0  0  0
   -4.2157    0.8894    6.5507 O   0  0  0  0  0  0  0  0  0  0  0  0
   -2.7461    2.0628    7.9638 C   0  0  0  0  0  0  0  0  0  0  0  0
   -2.7006    3.1216    7.6623 H   0  0  0  0  0  0  0  0  0  0  0  0
   -3.5154    2.0170    8.7512 H   0  0  0  0  0  0  0  0  0  0  0  0
   -1.7922    1.8671    8.4793 H   0  0  0  0  0  0  0  0  0  0  0  0
   -1.9298    0.6931    6.1487 N   0  0  0  0  0  0  0  0  0  0  0  0
   -1.9959   -0.1936    5.0147 C   0  0  2  0  0  0  0  0  0  0  0  0
   -0.8003   -1.1430    5.0591 C   0  0  0  0  0  0  0  0  0  0  0  0
    0.1064   -1.0400    5.8829 O   0  0  0  0  0  0  0  0  0  0  0  0
   -2.1214    0.5629    3.6900 C   0  0  0  0  0  0  0  0  0  0  0  0
   -0.6875    1.6225    3.3107 S   0  0  0  0  0  0  0  0  0  0  0  0
   -1.0139    0.9937    6.4744 H   0  0  0  0  0  0  0  0  0  0  0  0
   -2.9016   -0.7947    5.1631 H   0  0  0  0  0  0  0  0  0  0  0  0
   -2.2403   -0.1377    2.8571 H   0  0  0  0  0  0  0  0  0  0  0  0
   -3.0079    1.2059    3.7101 H   0  0  0  0  0  0  0  0  0  0  0  0
   -0.8533   -2.1010    4.0566 N   0  0  0  0  0  0  0  0  0  0  0  0
    0.1764   -3.0974    3.8760 C   0  0  0  0  0  0  0  0  0  0  0  0
   -1.6630   -2.1399    3.4446 H   0  0  0  0  0  0  0  0  0  0  0  0
    0.9200   -2.7303    3.1533 H   0  0  0  0  0  0  0  0  0  0  0  0
    0.6685   -3.2949    4.8399 H   0  0  0  0  0  0  0  0  0  0  0  0
   -0.2748   -4.0265    3.4976 H   0  0  0  0  0  0  0  0  0  0  0  0
   -6.7256    2.0330   -0.2766 C   0  0  0  0  0  0  0  0  0  0  0  0
   -7.1824    1.1039   -0.9322 O   0  0  0  0  0  0  0  0  0  0  0  0
   -7.5276    2.6077    0.8435 C   0  0  0  0  0  0  0  0  0  0  0  0
   -8.1775    3.4344    0.5145 H   0  0  0  0  0  0  0  0  0  0  0  0
   -8.2057    1.8676    1.2980 H   0  0  0  0  0  0  0  0  0  0  0  0
   -6.9411    3.0162    1.6819 H   0  0  0  0  0  0  0  0  0  0  0  0
   -5.4935    2.6382   -0.4627 N   0  0  0  0  0  0  0  0  0  0  0  0
   -4.5619    2.2388   -1.4845 C   0  0  2  0  0  0  0  0  0  0  0  0
   -3.1535    2.4674   -0.9521 C   0  0  0  0  0  0  0  0  0  0  0  0
   -2.8634    3.3945   -0.1987 O   0  0  0  0  0  0  0  0  0  0  0  0
   -4.7883    3.0138   -2.7732 C   0  0  0  0  0  0  0  0  0  0  0  0
   -5.2337    3.4049    0.1551 H   0  0  0  0  0  0  0  0  0  0  0  0
   -4.7192    1.1682   -1.6549 H   0  0  0  0  0  0  0  0  0  0  0  0
   -4.6352    4.0886   -2.6221 H   0  0  0  0  0  0  0  0  0  0  0  0
   -4.0976    2.6887   -3.5582 H   0  0  0  0  0  0  0  0  0  0  0  0
   -5.8111    2.8719   -3.1387 H   0  0  0  0  0  0  0  0  0  0  0  0
   -2.2466    1.5400   -1.4507 N   0  0  0  0  0  0  0  0  0  0  0  0
   -0.8424    1.5707   -1.1286 C   0  0  2  0  0  0  0  0  0  0  0  0
   -0.0902    0.6745   -2.1102 C   0  0  0  0  0  0  0  0  0  0  0  0
   -0.3118    0.6718   -3.3194 O   0  0  0  0  0  0  0  0  0  0  0  0
   -0.5734    1.2246    0.3380 C   0  0  0  0  0  0  0  0  0  0  0  0
   -1.2472    2.4297    1.5069 S   0  0  0  0  0  0  0  0  0  0  0  0
   -2.5850    0.7815   -2.0381 H   0  0  0  0  0  0  0  0  0  0  0  0
   -0.5209    2.6038   -1.3103 H   0  0  0  0  0  0  0  0  0  0  0  0
   -1.0043    0.2496    0.5881 H   0  0  0  0  0  0  0  0  0  0  0  0
    0.5058    1.1640    0.5152 H   0  0  0  0  0  0  0  0  0  0  0  0
    0.8380   -0.1376   -1.4741 N   0  0  0  0  0  0  0  0  0  0  0  0
    1.6568   -1.0907   -2.1862 C   0  0  2  0  0  0  0  0  0  0  0  0
    1.9076   -2.2767   -1.2642 C   0  0  0  0  0  0  0  0  0  0  0  0
    2.0308   -2.1652   -0.0463 O   0  0  0  0  0  0  0  0  0  0  0  0
    2.9679   -0.4659   -2.6372 C   0  0  0  0  0  0  0  0  0  0  0  0
    0.9867   -0.0388   -0.4742 H   0  0  0  0  0  0  0  0  0  0  0  0
    1.0763   -1.4193   -3.0552 H   0  0  0  0  0  0  0  0  0  0  0  0
    3.5632   -0.1305   -1.7801 H   0  0  0  0  0  0  0  0  0  0  0  0
    3.5749   -1.1814   -3.2015 H   0  0  0  0  0  0  0  0  0  0  0  0
    2.7852    0.4049   -3.2761 H   0  0  0  0  0  0  0  0  0  0  0  0
    2.0209   -3.4686   -1.9662 N   0  0  0  0  0  0  0  0  0  0  0  0
    2.3017   -4.7298   -1.3208 C   0  0  0  0  0  0  0  0  0  0  0  0
    1.8646   -3.4742   -2.9698 H   0  0  0  0  0  0  0  0  0  0  0  0
    3.3875   -4.9057   -1.3155 H   0  0  0  0  0  0  0  0  0  0  0  0
    1.9297   -4.7028   -0.2860 H   0  0  0  0  0  0  0  0  0  0  0  0
    1.8015   -5.5416   -1.8692 H   0  0  0  0  0  0  0  0  0  0  0  0
  1  3  1  0  0  0  0
  1  7  1  0  0  0  0
  1  2  2  0  0  0  0
 23 25  1  0  0  0  0
 23 29  1  0  0  0  0
 23 24  2  0  0  0  0
 50 51  1  0  0  0  0
 51 59  1  0  0  0  0
 51 52  2  0  0  0  0
  8  9  1  0  0  0  0
  9 17  1  0  0  0  0
  9 10  2  0  0  0  0
 30 31  1  0  0  0  0
 31 39  1  0  0  0  0
 31 32  2  0  0  0  0
 40 41  1  0  0  0  0
 41 49  1  0  0  0  0
 41 42  2  0  0  0  0
 50 53  1  0  0  0  0
 30 33  1  0  0  0  0
 59 60  1  0  0  0  0
 17 18  1  0  0  0  0
  8 11  1  0  0  0  0
 11 12  1  0  0  0  0
 40 43  1  0  0  0  0
 43 44  1  0  0  0  0
 49 50  1  0  0  0  0
  7  8  1  0  0  0  0
 29 30  1  0  0  0  0
 39 40  1  0  0  0  0
 12 44  1  0  0  0  0
  3  4  1  0  0  0  0
  3  5  1  0  0  0  0
  3  6  1  0  0  0  0
 25 26  1  0  0  0  0
 25 27  1  0  0  0  0
 25 28  1  0  0  0  0
 53 56  1  0  0  0  0
 53 57  1  0  0  0  0
 53 58  1  0  0  0  0
 33 36  1  0  0  0  0
 33 37  1  0  0  0  0
 33 38  1  0  0  0  0
 60 62  1  0  0  0  0
 60 63  1  0  0  0  0
 60 64  1  0  0  0  0
 18 20  1  0  0  0  0
 18 21  1  0  0  0  0
 18 22  1  0  0  0  0
 11 15  1  0  0  0  0
 11 16  1  0  0  0  0
 43 47  1  0  0  0  0
 43 48  1  0  0  0  0
 50 55  1  0  0  0  0
  8 14  1  0  0  0  0
 30 35  1  0  0  0  0
 40 46  1  0  0  0  0
 59 61  1  0  0  0  0
 17 19  1  0  0  0  0
  7 13  1  0  0  0  0
 29 34  1  0  0  0  0
 49 54  1  0  0  0  0
 39 45  1  0  0  0  0
M  END
$$$$

  -OEChem-05262214473D

 64 63  0     1  0  0  0  0  0999 V2000
   -3.0498    1.1566    6.8171 C   0  0  0  0  0  0  0  0  0  0  0  0
   -4.2157    0.8894    6.5507 O   0  0  0  0  0  0  0  0  0  0  0  0
   -2.7461    2.0628    7.9638 C   0  0  0  0  0  0  0  0  0  0  0  0
   -2.7006    3.1216    7.6623 H   0  0  0  0  0  0  0  0  0  0  0  0
   -3.5154    2.0170    8.7512 H   0  0  0  0  0  0  0  0  0  0  0  0
   -1.7922    1.8671    8.4793 H   0  0  0  0  0  0  0  0  0  0  0  0
   -1.9298    0.6931    6.1487 N   0  0  0  0  0  0  0  0  0  0  0  0
   -1.9959   -0.1936    5.0147 C   0  0  2  0  0  0  0  0  0  0  0  0
   -0.8003   -1.1430    5.0591 C   0  0  0  0  0  0  0  0  0  0  0  0
    0.1064   -1.0400    5.8829 O   0  0  0  0  0  0  0  0  0  0  0  0
   -2.1214    0.5629    3.6900 C   0  0  0  0  0  0  0  0  0  0  0  0
   -0.6875    1.6225    3.3107 S   0  0  0  0  0  0  0  0  0  0  0  0
   -1.0139    0.9937    6.4744 H   0  0  0  0  0  0  0  0  0  0  0  0
   -2.9016   -0.7947    5.1631 H   0  0  0  0  0  0  0  0  0  0  0  0
   -2.2403   -0.1377    2.8571 H   0  0  0  0  0  0  0  0  0  0  0  0
   -3.0079    1.2059    3.7101 H   0  0  0  0  0  0  0  0  0  0  0  0
   -0.8533   -2.1010    4.0566 N   0  0  0  0  0  0  0  0  0  0  0  0
    0.1764   -3.0974    3.8760 C   0  0  0  0  0  0  0  0  0  0  0  0
   -1.6630   -2.1399    3.4446 H   0  0  0  0  0  0  0  0  0  0  0  0
    0.9200   -2.7303    3.1533 H   0  0  0  0  0  0  0  0  0  0  0  0
    0.6685   -3.2949    4.8399 H   0  0  0  0  0  0  0  0  0  0  0  0
   -0.2748   -4.0265    3.4976 H   0  0  0  0  0  0  0  0  0  0  0  0
   -6.7256    2.0330   -0.2766 C   0  0  0  0  0  0  0  0  0  0  0  0
   -7.1824    1.1039   -0.9322 O   0  0  0  0  0  0  0  0  0  0  0  0
   -7.5276    2.6077    0.8435 C   0  0  0  0  0  0  0  0  0  0  0  0
   -8.1775    3.4344    0.5145 H   0  0  0  0  0  0  0  0  0  0  0  0
   -8.2057    1.8676    1.2980 H   0  0  0  0  0  0  0  0  0  0  0  0
   -6.9411    3.0162    1.6819 H   0  0  0  0  0  0  0  0  0  0  0  0
   -5.4935    2.6382   -0.4627 N   0  0  0  0  0  0  0  0  0  0  0  0
   -4.5619    2.2388   -1.4845 C   0  0  2  0  0  0  0  0  0  0  0  0
   -3.1535    2.4674   -0.9521 C   0  0  0  0  0  0  0  0  0  0  0  0
   -2.8634    3.3945   -0.1987 O   0  0  0  0  0  0  0  0  0  0  0  0
   -4.7883    3.0138   -2.7732 C   0  0  0  0  0  0  0  0  0  0  0  0
   -5.2337    3.4049    0.1551 H   0  0  0  0  0  0  0  0  0  0  0  0
   -4.7192    1.1682   -1.6549 H   0  0  0  0  0  0  0  0  0  0  0  0
   -4.6352    4.0886   -2.6221 H   0  0  0  0  0  0  0  0  0  0  0  0
   -4.0976    2.6887   -3.5582 H   0  0  0  0  0  0  0  0  0  0  0  0
   -5.8111    2.8719   -3.1387 H   0  0  0  0  0  0  0  0  0  0  0  0
   -2.2466    1.5400   -1.4507 N   0  0  0  0  0  0  0  0  0  0  0  0
   -0.8424    1.5707   -1.1286 C   0  0  2  0  0  0  0  0  0  0  0  0
   -0.0902    0.6745   -2.1102 C   0  0  0  0  0  0  0  0  0  0  0  0
   -0.1098    0.8495   -3.3269 O   0  0  0  0  0  0  0  0  0  0  0  0
   -0.5734    1.2246    0.3380 C   0  0  0  0  0  0  0  0  0  0  0  0
   -1.2472    2.4297    1.5069 S   0  0  0  0  0  0  0  0  0  0  0  0
   -2.5850    0.7815   -2.0381 H   0  0  0  0  0  0  0  0  0  0  0  0
   -0.5209    2.6038   -1.3103 H   0  0  0  0  0  0  0  0  0  0  0  0
   -1.0043    0.2496    0.5881 H   0  0  0  0  0  0  0  0  0  0  0  0
    0.5058    1.1640    0.5152 H   0  0  0  0  0  0  0  0  0  0  0  0
    0.5835   -0.3559   -1.4699 N   0  0  0  0  0  0  0  0  0  0  0  0
    1.3478   -1.3504   -2.1859 C   0  0  2  0  0  0  0  0  0  0  0  0
    1.2566   -2.6597   -1.4134 C   0  0  0  0  0  0  0  0  0  0  0  0
    1.1959   -2.7120   -0.1868 O   0  0  0  0  0  0  0  0  0  0  0  0
    2.7962   -0.9188   -2.3552 C   0  0  0  0  0  0  0  0  0  0  0  0
    0.5812   -0.4001   -0.4551 H   0  0  0  0  0  0  0  0  0  0  0  0
    0.8723   -1.4697   -3.1656 H   0  0  0  0  0  0  0  0  0  0  0  0
    3.2892   -0.7941   -1.3842 H   0  0  0  0  0  0  0  0  0  0  0  0
    3.3674   -1.6607   -2.9230 H   0  0  0  0  0  0  0  0  0  0  0  0
    2.8584    0.0379   -2.8849 H   0  0  0  0  0  0  0  0  0  0  0  0
    1.2946   -3.7645   -2.2526 N   0  0  0  0  0  0  0  0  0  0  0  0
    1.2658   -5.1210   -1.7575 C   0  0  0  0  0  0  0  0  0  0  0  0
    1.3047   -3.6274   -3.2590 H   0  0  0  0  0  0  0  0  0  0  0  0
    2.2952   -5.4849   -1.6238 H   0  0  0  0  0  0  0  0  0  0  0  0
    0.7393   -5.1477   -0.7921 H   0  0  0  0  0  0  0  0  0  0  0  0
    0.7407   -5.7636   -2.4795 H   0  0  0  0  0  0  0  0  0  0  0  0
  1  3  1  0  0  0  0
  1  7  1  0  0  0  0
  1  2  2  0  0  0  0
 23 25  1  0  0  0  0
 23 29  1  0  0  0  0
 23 24  2  0  0  0  0
 50 51  1  0  0  0  0
 51 59  1  0  0  0  0
 51 52  2  0  0  0  0
  8  9  1  0  0  0  0
  9 17  1  0  0  0  0
  9 10  2  0  0  0  0
 30 31  1  0  0  0  0
 31 39  1  0  0  0  0
 31 32  2  0  0  0  0
 40 41  1  0  0  0  0
 41 49  1  0  0  0  0
 41 42  2  0  0  0  0
 50 53  1  0  0  0  0
 30 33  1  0  0  0  0
 59 60  1  0  0  0  0
 17 18  1  0  0  0  0
  8 11  1  0  0  0  0
 11 12  1  0  0  0  0
 40 43  1  0  0  0  0
 43 44  1  0  0  0  0
 49 50  1  0  0  0  0
  7  8  1  0  0  0  0
 29 30  1  0  0  0  0
 39 40  1  0  0  0  0
 12 44  1  0  0  0  0
  3  4  1  0  0  0  0
  3  5  1  0  0  0  0
  3  6  1  0  0  0  0
 25 26  1  0  0  0  0
 25 27  1  0  0  0  0
 25 28  1  0  0  0  0
 53 56  1  0  0  0  0
 53 57  1  0  0  0  0
 53 58  1  0  0  0  0
 33 36  1  0  0  0  0
 33 37  1  0  0  0  0
 33 38  1  0  0  0  0
 60 62  1  0  0  0  0
 60 63  1  0  0  0  0
 60 64  1  0  0  0  0
 18 20  1  0  0  0  0
 18 21  1  0  0  0  0
 18 22  1  0  0  0  0
 11 15  1  0  0  0  0
 11 16  1  0  0  0  0
 43 47  1  0  0  0  0
 43 48  1  0  0  0  0
 50 55  1  0  0  0  0
  8 14  1  0  0  0  0
 30 35  1  0  0  0  0
 40 46  1  0  0  0  0
 59 61  1  0  0  0  0
 17 19  1  0  0  0  0
  7 13  1  0  0  0  0
 29 34  1  0  0  0  0
 49 54  1  0  0  0  0
 39 45  1  0  0  0  0
M  END
$$$$

  -OEChem-05262214473D

 64 63  0     1  0  0  0  0  0999 V2000
   -3.0498    1.1566    6.8171 C   0  0  0  0  0  0  0  0  0  0  0  0
   -4.2157    0.8894    6.5507 O   0  0  0  0  0  0  0  0  0  0  0  0
   -2.7461    2.0628    7.9638 C   0  0  0  0  0  0  0  0  0  0  0  0
   -2.7006    3.1216    7.6623 H   0  0  0  0  0  0  0  0  0  0  0  0
   -3.5154    2.0170    8.7512 H   0  0  0  0  0  0  0  0  0  0  0  0
   -1.7922    1.8671    8.4793 H   0  0  0  0  0  0  0  0  0  0  0  0
   -1.9298    0.6931    6.1487 N   0  0  0  0  0  0  0  0  0  0  0  0
   -1.9959   -0.1936    5.0147 C   0  0  2  0  0  0  0  0  0  0  0  0
   -0.8003   -1.1430    5.0591 C   0  0  0  0  0  0  0  0  0  0  0  0
    0.1064   -1.0400    5.8829 O   0  0  0  0  0  0  0  0  0  0  0  0
   -2.1214    0.5629    3.6900 C   0  0  0  0  0  0  0  0  0  0  0  0
   -0.6875    1.6225    3.3107 S   0  0  0  0  0  0  0  0  0  0  0  0
   -1.0139    0.9937    6.4744 H   0  0  0  0  0  0  0  0  0  0  0  0
   -2.9016   -0.7947    5.1631 H   0  0  0  0  0  0  0  0  0  0  0  0
   -2.2403   -0.1377    2.8571 H   0  0  0  0  0  0  0  0  0  0  0  0
   -3.0079    1.2059    3.7101 H   0  0  0  0  0  0  0  0  0  0  0  0
   -0.8533   -2.1010    4.0566 N   0  0  0  0  0  0  0  0  0  0  0  0
    0.1764   -3.0974    3.8760 C   0  0  0  0  0  0  0  0  0  0  0  0
   -1.6630   -2.1399    3.4446 H   0  0  0  0  0  0  0  0  0  0  0  0
    0.9200   -2.7303    3.1533 H   0  0  0  0  0  0  0  0  0  0  0  0
    0.6685   -3.2949    4.8399 H   0  0  0  0  0  0  0  0  0  0  0  0
   -0.2748   -4.0265    3.4976 H   0  0  0  0  0  0  0  0  0  0  0  0
   -6.7256    2.0330   -0.2766 C   0  0  0  0  0  0  0  0  0  0  0  0
   -7.1824    1.1039   -0.9322 O   0  0  0  0  0  0  0  0  0  0  0  0
   -7.5276    2.6077    0.8435 C   0  0  0  0  0  0  0  0  0  0  0  0
   -8.1775    3.4344    0.5145 H   0  0  0  0  0  0  0  0  0  0  0  0
   -8.2057    1.8676    1.2980 H   0  0  0  0  0  0  0  0  0  0  0  0
   -6.9411    3.0162    1.6819 H   0  0  0  0  0  0  0  0  0  0  0  0
   -5.4935    2.6382   -0.4627 N   0  0  0  0  0  0  0  0  0  0  0  0
   -4.5619    2.2388   -1.4845 C   0  0  2  0  0  0  0  0  0  0  0  0
   -3.1535    2.4674   -0.9521 C   0  0  0  0  0  0  0  0  0  0  0  0
   -2.8634    3.3945   -0.1987 O   0  0  0  0  0  0  0  0  0  0  0  0
   -4.7883    3.0138   -2.7732 C   0  0  0  0  0  0  0  0  0  0  0  0
   -5.2337    3.4049    0.1551 H   0  0  0  0  0  0  0  0  0  0  0  0
   -4.7192    1.1682   -1.6549 H   0  0  0  0  0  0  0  0  0  0  0  0
   -4.6352    4.0886   -2.6221 H   0  0  0  0  0  0  0  0  0  0  0  0
   -4.0976    2.6887   -3.5582 H   0  0  0  0  0  0  0  0  0  0  0  0
   -5.8111    2.8719   -3.1387 H   0  0  0  0  0  0  0  0  0  0  0  0
   -2.2466    1.5400   -1.4507 N   0  0  0  0  0  0  0  0  0  0  0  0
   -0.8424    1.5707   -1.1286 C   0  0  2  0  0  0  0  0  0  0  0  0
   -0.0902    0.6745   -2.1102 C   0  0  0  0  0  0  0  0  0  0  0  0
    0.1161    0.9886   -3.2808 O   0  0  0  0  0  0  0  0  0  0  0  0
   -0.5734    1.2246    0.3380 C   0  0  0  0  0  0  0  0  0  0  0  0
   -1.2472    2.4297    1.5069 S   0  0  0  0  0  0  0  0  0  0  0  0
   -2.5850    0.7815   -2.0381 H   0  0  0  0  0  0  0  0  0  0  0  0
   -0.5209    2.6038   -1.3103 H   0  0  0  0  0  0  0  0  0  0  0  0
   -1.0043    0.2496    0.5881 H   0  0  0  0  0  0  0  0  0  0  0  0
    0.5058    1.1640    0.5152 H   0  0  0  0  0  0  0  0  0  0  0  0
    0.3007   -0.5250   -1.5322 N   0  0  0  0  0  0  0  0  0  0  0  0
    1.0061   -1.5498   -2.2657 C   0  0  2  0  0  0  0  0  0  0  0  0
    0.5867   -2.9024   -1.7052 C   0  0  0  0  0  0  0  0  0  0  0  0
    0.3199   -3.0834   -0.5190 O   0  0  0  0  0  0  0  0  0  0  0  0
    2.5122   -1.3637   -2.1667 C   0  0  0  0  0  0  0  0  0  0  0  0
    0.1264   -0.6841   -0.5443 H   0  0  0  0  0  0  0  0  0  0  0  0
    0.6835   -1.4704   -3.3096 H   0  0  0  0  0  0  0  0  0  0  0  0
    2.8541   -1.4399   -1.1280 H   0  0  0  0  0  0  0  0  0  0  0  0
    3.0450   -2.1245   -2.7467 H   0  0  0  0  0  0  0  0  0  0  0  0
    2.8087   -0.3786   -2.5427 H   0  0  0  0  0  0  0  0  0  0  0  0
    0.5873   -3.8930   -2.6773 N   0  0  0  0  0  0  0  0  0  0  0  0
    0.2665   -5.2708   -2.3865 C   0  0  0  0  0  0  0  0  0  0  0  0
    0.7823   -3.6454   -3.6429 H   0  0  0  0  0  0  0  0  0  0  0  0
    1.1906   -5.8234   -2.1613 H   0  0  0  0  0  0  0  0  0  0  0  0
   -0.4077   -5.3149   -1.5184 H   0  0  0  0  0  0  0  0  0  0  0  0
   -0.2282   -5.7238   -3.2583 H   0  0  0  0  0  0  0  0  0  0  0  0
  1  3  1  0  0  0  0
  1  7  1  0  0  0  0
  1  2  2  0  0  0  0
 23 25  1  0  0  0  0
 23 29  1  0  0  0  0
 23 24  2  0  0  0  0
 50 51  1  0  0  0  0
 51 59  1  0  0  0  0
 51 52  2  0  0  0  0
  8  9  1  0  0  0  0
  9 17  1  0  0  0  0
  9 10  2  0  0  0  0
 30 31  1  0  0  0  0
 31 39  1  0  0  0  0
 31 32  2  0  0  0  0
 40 41  1  0  0  0  0
 41 49  1  0  0  0  0
 41 42  2  0  0  0  0
 50 53  1  0  0  0  0
 30 33  1  0  0  0  0
 59 60  1  0  0  0  0
 17 18  1  0  0  0  0
  8 11  1  0  0  0  0
 11 12  1  0  0  0  0
 40 43  1  0  0  0  0
 43 44  1  0  0  0  0
 49 50  1  0  0  0  0
  7  8  1  0  0  0  0
 29 30  1  0  0  0  0
 39 40  1  0  0  0  0
 12 44  1  0  0  0  0
  3  4  1  0  0  0  0
  3  5  1  0  0  0  0
  3  6  1  0  0  0  0
 25 26  1  0  0  0  0
 25 27  1  0  0  0  0
 25 28  1  0  0  0  0
 53 56  1  0  0  0  0
 53 57  1  0  0  0  0
 53 58  1  0  0  0  0
 33 36  1  0  0  0  0
 33 37  1  0  0  0  0
 33 38  1  0  0  0  0
 60 62  1  0  0  0  0
 60 63  1  0  0  0  0
 60 64  1  0  0  0  0
 18 20  1  0  0  0  0
 18 21  1  0  0  0  0
 18 22  1  0  0  0  0
 11 15  1  0  0  0  0
 11 16  1  0  0  0  0
 43 47  1  0  0  0  0
 43 48  1  0  0  0  0
 50 55  1  0  0  0  0
  8 14  1  0  0  0  0
 30 35  1  0  0  0  0
 40 46  1  0  0  0  0
 59 61  1  0  0  0  0
 17 19  1  0  0  0  0
  7 13  1  0  0  0  0
 29 34  1  0  0  0  0
 49 54  1  0  0  0  0
 39 45  1  0  0  0  0
M  END
$$$$

  -OEChem-05262214473D

 64 63  0     1  0  0  0  0  0999 V2000
   -3.0498    1.1566    6.8171 C   0  0  0  0  0  0  0  0  0  0  0  0
   -4.2157    0.8894    6.5507 O   0  0  0  0  0  0  0  0  0  0  0  0
   -2.7461    2.0628    7.9638 C   0  0  0  0  0  0  0  0  0  0  0  0
   -2.7006    3.1216    7.6623 H   0  0  0  0  0  0  0  0  0  0  0  0
   -3.5154    2.0170    8.7512 H   0  0  0  0  0  0  0  0  0  0  0  0
   -1.7922    1.8671    8.4793 H   0  0  0  0  0  0  0  0  0  0  0  0
   -1.9298    0.6931    6.1487 N   0  0  0  0  0  0  0  0  0  0  0  0
   -1.9959   -0.1936    5.0147 C   0  0  2  0  0  0  0  0  0  0  0  0
   -0.8003   -1.1430    5.0591 C   0  0  0  0  0  0  0  0  0  0  0  0
    0.1064   -1.0400    5.8829 O   0  0  0  0  0  0  0  0  0  0  0  0
   -2.1214    0.5629    3.6900 C   0  0  0  0  0  0  0  0  0  0  0  0
   -0.6875    1.6225    3.3107 S   0  0  0  0  0  0  0  0  0  0  0  0
   -1.0139    0.9937    6.4744 H   0  0  0  0  0  0  0  0  0  0  0  0
   -2.9016   -0.7947    5.1631 H   0  0  0  0  0  0  0  0  0  0  0  0
   -2.2403   -0.1377    2.8571 H   0  0  0  0  0  0  0  0  0  0  0  0
   -3.0079    1.2059    3.7101 H   0  0  0  0  0  0  0  0  0  0  0  0
   -0.8533   -2.1010    4.0566 N   0  0  0  0  0  0  0  0  0  0  0  0
    0.1764   -3.0974    3.8760 C   0  0  0  0  0  0  0  0  0  0  0  0
   -1.6630   -2.1399    3.4446 H   0  0  0  0  0  0  0  0  0  0  0  0
    0.9200   -2.7303    3.1533 H   0  0  0  0  0  0  0  0  0  0  0  0
    0.6685   -3.2949    4.8399 H   0  0  0  0  0  0  0  0  0  0  0  0
   -0.2748   -4.0265    3.4976 H   0  0  0  0  0  0  0  0  0  0  0  0
   -6.7256    2.0330   -0.2766 C   0  0  0  0  0  0  0  0  0  0  0  0
   -7.1824    1.1039   -0.9322 O   0  0  0  0  0  0  0  0  0  0  0  0
   -7.5276    2.6077    0.8435 C   0  0  0  0  0  0  0  0  0  0  0  0
   -8.1775    3.4344    0.5145 H   0  0  0  0  0  0  0  0  0  0  0  0
   -8.2057    1.8676    1.2980 H   0  0  0  0  0  0  0  0  0  0  0  0
   -6.9411    3.0162    1.6819 H   0  0  0  0  0  0  0  0  0  0  0  0
   -5.4935    2.6382   -0.4627 N   0  0  0  0  0  0  0  0  0  0  0  0
   -4.5619    2.2388   -1.4845 C   0  0  2  0  0  0  0  0  0  0  0  0
   -3.1535    2.4674   -0.9521 C   0  0  0  0  0  0  0  0  0  0  0  0
   -2.8634    3.3945   -0.1987 O   0  0  0  0  0  0  0  0  0  0  0  0
   -4.7883    3.0138   -2.7732 C   0  0  0  0  0  0  0  0  0  0  0  0
   -5.2337    3.4049    0.1551 H   0  0  0  0  0  0  0  0  0  0  0  0
   -4.7192    1.1682   -1.6549 H   0  0  0  0  0  0  0  0  0  0  0  0
   -4.6352    4.0886   -2.6221 H   0  0  0  0  0  0  0  0  0  0  0  0
   -4.0976    2.6887   -3.5582 H   0  0  0  0  0  0  0  0  0  0  0  0
   -5.8111    2.8719   -3.1387 H   0  0  0  0  0  0  0  0  0  0  0  0
   -2.2466    1.5400   -1.4507 N   0  0  0  0  0  0  0  0  0  0  0  0
   -0.8424    1.5707   -1.1286 C   0  0  2  0  0  0  0  0  0  0  0  0
   -0.0902    0.6745   -2.1102 C   0  0  0  0  0  0  0  0  0  0  0  0
    0.3503    1.0794   -3.1842 O   0  0  0  0  0  0  0  0  0  0  0  0
   -0.5734    1.2246    0.3380 C   0  0  0  0  0  0  0  0  0  0  0  0
   -1.2472    2.4297    1.5069 S   0  0  0  0  0  0  0  0  0  0  0  0
   -2.5850    0.7815   -2.0381 H   0  0  0  0  0  0  0  0  0  0  0  0
   -0.5209    2.6038   -1.3103 H   0  0  0  0  0  0  0  0  0  0  0  0
   -1.0043    0.2496    0.5881 H   0  0  0  0  0  0  0  0  0  0  0  0
    0.5058    1.1640    0.5152 H   0  0  0  0  0  0  0  0  0  0  0  0
    0.0089   -0.6333   -1.6570 N   0  0  0  0  0  0  0  0  0  0  0  0
    0.6550   -1.6754   -2.4200 C   0  0  2  0  0  0  0  0  0  0  0  0
   -0.0564   -2.9882   -2.1198 C   0  0  0  0  0  0  0  0  0  0  0  0
   -0.5376   -3.2541   -1.0203 O   0  0  0  0  0  0  0  0  0  0  0  0
    2.1352   -1.7702   -2.0844 C   0  0  0  0  0  0  0  0  0  0  0  0
   -0.3465   -0.8714   -0.7357 H   0  0  0  0  0  0  0  0  0  0  0  0
    0.5230   -1.4214   -3.4774 H   0  0  0  0  0  0  0  0  0  0  0  0
    2.2874   -2.0240   -1.0290 H   0  0  0  0  0  0  0  0  0  0  0  0
    2.6295   -2.5414   -2.6844 H   0  0  0  0  0  0  0  0  0  0  0  0
    2.6395   -0.8162   -2.2729 H   0  0  0  0  0  0  0  0  0  0  0  0
   -0.0527   -3.8453   -3.2113 N   0  0  0  0  0  0  0  0  0  0  0  0
   -0.6282   -5.1692   -3.1650 C   0  0  0  0  0  0  0  0  0  0  0  0
    0.3331   -3.5269   -4.0954 H   0  0  0  0  0  0  0  0  0  0  0  0
    0.1490   -5.8980   -2.8914 H   0  0  0  0  0  0  0  0  0  0  0  0
   -1.4331   -5.1929   -2.4155 H   0  0  0  0  0  0  0  0  0  0  0  0
   -1.0392   -5.4250   -4.1527 H   0  0  0  0  0  0  0  0  0  0  0  0
  1  3  1  0  0  0  0
  1  7  1  0  0  0  0
  1  2  2  0  0  0  0
 23 25  1  0  0  0  0
 23 29  1  0  0  0  0
 23 24  2  0  0  0  0
 50 51  1  0  0  0  0
 51 59  1  0  0  0  0
 51 52  2  0  0  0  0
  8  9  1  0  0  0  0
  9 17  1  0  0  0  0
  9 10  2  0  0  0  0
 30 31  1  0  0  0  0
 31 39  1  0  0  0  0
 31 32  2  0  0  0  0
 40 41  1  0  0  0  0
 41 49  1  0  0  0  0
 41 42  2  0  0  0  0
 50 53  1  0  0  0  0
 30 33  1  0  0  0  0
 59 60  1  0  0  0  0
 17 18  1  0  0  0  0
  8 11  1  0  0  0  0
 11 12  1  0  0  0  0
 40 43  1  0  0  0  0
 43 44  1  0  0  0  0
 49 50  1  0  0  0  0
  7  8  1  0  0  0  0
 29 30  1  0  0  0  0
 39 40  1  0  0  0  0
 12 44  1  0  0  0  0
  3  4  1  0  0  0  0
  3  5  1  0  0  0  0
  3  6  1  0  0  0  0
 25 26  1  0  0  0  0
 25 27  1  0  0  0  0
 25 28  1  0  0  0  0
 53 56  1  0  0  0  0
 53 57  1  0  0  0  0
 53 58  1  0  0  0  0
 33 36  1  0  0  0  0
 33 37  1  0  0  0  0
 33 38  1  0  0  0  0
 60 62  1  0  0  0  0
 60 63  1  0  0  0  0
 60 64  1  0  0  0  0
 18 20  1  0  0  0  0
 18 21  1  0  0  0  0
 18 22  1  0  0  0  0
 11 15  1  0  0  0  0
 11 16  1  0  0  0  0
 43 47  1  0  0  0  0
 43 48  1  0  0  0  0
 50 55  1  0  0  0  0
  8 14  1  0  0  0  0
 30 35  1  0  0  0  0
 40 46  1  0  0  0  0
 59 61  1  0  0  0  0
 17 19  1  0  0  0  0
  7 13  1  0  0  0  0
 29 34  1  0  0  0  0
 49 54  1  0  0  0  0
 39 45  1  0  0  0  0
M  END
$$$$

  -OEChem-05262214473D

 64 63  0     1  0  0  0  0  0999 V2000
   -3.0498    1.1566    6.8171 C   0  0  0  0  0  0  0  0  0  0  0  0
   -4.2157    0.8894    6.5507 O   0  0  0  0  0  0  0  0  0  0  0  0
   -2.7461    2.0628    7.9638 C   0  0  0  0  0  0  0  0  0  0  0  0
   -2.7006    3.1216    7.6623 H   0  0  0  0  0  0  0  0  0  0  0  0
   -3.5154    2.0170    8.7512 H   0  0  0  0  0  0  0  0  0  0  0  0
   -1.7922    1.8671    8.4793 H   0  0  0  0  0  0  0  0  0  0  0  0
   -1.9298    0.6931    6.1487 N   0  0  0  0  0  0  0  0  0  0  0  0
   -1.9959   -0.1936    5.0147 C   0  0  2  0  0  0  0  0  0  0  0  0
   -0.8003   -1.1430    5.0591 C   0  0  0  0  0  0  0  0  0  0  0  0
    0.1064   -1.0400    5.8829 O   0  0  0  0  0  0  0  0  0  0  0  0
   -2.1214    0.5629    3.6900 C   0  0  0  0  0  0  0  0  0  0  0  0
   -0.6875    1.6225    3.3107 S   0  0  0  0  0  0  0  0  0  0  0  0
   -1.0139    0.9937    6.4744 H   0  0  0  0  0  0  0  0  0  0  0  0
   -2.9016   -0.7947    5.1631 H   0  0  0  0  0  0  0  0  0  0  0  0
   -2.2403   -0.1377    2.8571 H   0  0  0  0  0  0  0  0  0  0  0  0
   -3.0079    1.2059    3.7101 H   0  0  0  0  0  0  0  0  0  0  0  0
   -0.8533   -2.1010    4.0566 N   0  0  0  0  0  0  0  0  0  0  0  0
    0.1764   -3.0974    3.8760 C   0  0  0  0  0  0  0  0  0  0  0  0
   -1.6630   -2.1399    3.4446 H   0  0  0  0  0  0  0  0  0  0  0  0
    0.9200   -2.7303    3.1533 H   0  0  0  0  0  0  0  0  0  0  0  0
    0.6685   -3.2949    4.8399 H   0  0  0  0  0  0  0  0  0  0  0  0
   -0.2748   -4.0265    3.4976 H   0  0  0  0  0  0  0  0  0  0  0  0
   -6.7256    2.0330   -0.2766 C   0  0  0  0  0  0  0  0  0  0  0  0
   -7.1824    1.1039   -0.9322 O   0  0  0  0  0  0  0  0  0  0  0  0
   -7.5276    2.6077    0.8435 C   0  0  0  0  0  0  0  0  0  0  0  0
   -8.1775    3.4344    0.5145 H   0  0  0  0  0  0  0  0  0  0  0  0
   -8.2057    1.8676    1.2980 H   0  0  0  0  0  0  0  0  0  0  0  0
   -6.9411    3.0162    1.6819 H   0  0  0  0  0  0  0  0  0  0  0  0
   -5.4935    2.6382   -0.4627 N   0  0  0  0  0  0  0  0  0  0  0  0
   -4.5619    2.2388   -1.4845 C   0  0  2  0  0  0  0  0  0  0  0  0
   -3.1535    2.4674   -0.9521 C   0  0  0  0  0  0  0  0  0  0  0  0
   -2.8634    3.3945   -0.1987 O   0  0  0  0  0  0  0  0  0  0  0  0
   -4.7883    3.0138   -2.7732 C   0  0  0  0  0  0  0  0  0  0  0  0
   -5.2337    3.4049    0.1551 H   0  0  0  0  0  0  0  0  0  0  0  0
   -4.7192    1.1682   -1.6549 H   0  0  0  0  0  0  0  0  0  0  0  0
   -4.6352    4.0886   -2.6221 H   0  0  0  0  0  0  0  0  0  0  0  0
   -4.0976    2.6887   -3.5582 H   0  0  0  0  0  0  0  0  0  0  0  0
   -5.8111    2.8719   -3.1387 H   0  0  0  0  0  0  0  0  0  0  0  0
   -2.2466    1.5400   -1.4507 N   0  0  0  0  0  0  0  0  0  0  0  0
   -0.8424    1.5707   -1.1286 C   0  0  2  0  0  0  0  0  0  0  0  0
   -0.0902    0.6745   -2.1102 C   0  0  0  0  0  0  0  0  0  0  0  0
    0.5770    1.1158   -3.0437 O   0  0  0  0  0  0  0  0  0  0  0  0
   -0.5734    1.2246    0.3380 C   0  0  0  0  0  0  0  0  0  0  0  0
   -1.2472    2.4297    1.5069 S   0  0  0  0  0  0  0  0  0  0  0  0
   -2.5850    0.7815   -2.0381 H   0  0  0  0  0  0  0  0  0  0  0  0
   -0.5209    2.6038   -1.3103 H   0  0  0  0  0  0  0  0  0  0  0  0
   -1.0043    0.2496    0.5881 H   0  0  0  0  0  0  0  0  0  0  0  0
    0.5058    1.1640    0.5152 H   0  0  0  0  0  0  0  0  0  0  0  0
   -0.2721   -0.6735   -1.8356 N   0  0  0  0  0  0  0  0  0  0  0  0
    0.3184   -1.7187   -2.6385 C   0  0  2  0  0  0  0  0  0  0  0  0
   -0.6289   -2.9112   -2.6288 C   0  0  0  0  0  0  0  0  0  0  0  0
   -1.3182   -3.2124   -1.6566 O   0  0  0  0  0  0  0  0  0  0  0  0
    1.6910   -2.1107   -2.1140 C   0  0  0  0  0  0  0  0  0  0  0  0
   -0.8054   -0.9493   -1.0163 H   0  0  0  0  0  0  0  0  0  0  0  0
    0.4015   -1.3258   -3.6577 H   0  0  0  0  0  0  0  0  0  0  0  0
    1.6279   -2.5066   -1.0939 H   0  0  0  0  0  0  0  0  0  0  0  0
    2.1495   -2.8829   -2.7405 H   0  0  0  0  0  0  0  0  0  0  0  0
    2.3622   -1.2452   -2.0937 H   0  0  0  0  0  0  0  0  0  0  0  0
   -0.5819   -3.6247   -3.8183 N   0  0  0  0  0  0  0  0  0  0  0  0
   -1.3573   -4.8229   -4.0398 C   0  0  0  0  0  0  0  0  0  0  0  0
   -0.0125   -3.2800   -4.5855 H   0  0  0  0  0  0  0  0  0  0  0  0
   -0.7587   -5.7037   -3.7644 H   0  0  0  0  0  0  0  0  0  0  0  0
   -2.2670   -4.7902   -3.4223 H   0  0  0  0  0  0  0  0  0  0  0  0
   -1.6371   -4.8873   -5.1017 H   0  0  0  0  0  0  0  0  0  0  0  0
  1  3  1  0  0  0  0
  1  7  1  0  0  0  0
  1  2  2  0  0  0  0
 23 25  1  0  0  0  0
 23 29  1  0  0  0  0
 23 24  2  0  0  0  0
 50 51  1  0  0  0  0
 51 59  1  0  0  0  0
 51 52  2  0  0  0  0
  8  9  1  0  0  0  0
  9 17  1  0  0  0  0
  9 10  2  0  0  0  0
 30 31  1  0  0  0  0
 31 39  1  0  0  0  0
 31 32  2  0  0  0  0
 40 41  1  0  0  0  0
 41 49  1  0  0  0  0
 41 42  2  0  0  0  0
 50 53  1  0  0  0  0
 30 33  1  0  0  0  0
 59 60  1  0  0  0  0
 17 18  1  0  0  0  0
  8 11  1  0  0  0  0
 11 12  1  0  0  0  0
 40 43  1  0  0  0  0
 43 44  1  0  0  0  0
 49 50  1  0  0  0  0
  7  8  1  0  0  0  0
 29 30  1  0  0  0  0
 39 40  1  0  0  0  0
 12 44  1  0  0  0  0
  3  4  1  0  0  0  0
  3  5  1  0  0  0  0
  3  6  1  0  0  0  0
 25 26  1  0  0  0  0
 25 27  1  0  0  0  0
 25 28  1  0  0  0  0
 53 56  1  0  0  0  0
 53 57  1  0  0  0  0
 53 58  1  0  0  0  0
 33 36  1  0  0  0  0
 33 37  1  0  0  0  0
 33 38  1  0  0  0  0
 60 62  1  0  0  0  0
 60 63  1  0  0  0  0
 60 64  1  0  0  0  0
 18 20  1  0  0  0  0
 18 21  1  0  0  0  0
 18 22  1  0  0  0  0
 11 15  1  0  0  0  0
 11 16  1  0  0  0  0
 43 47  1  0  0  0  0
 43 48  1  0  0  0  0
 50 55  1  0  0  0  0
  8 14  1  0  0  0  0
 30 35  1  0  0  0  0
 40 46  1  0  0  0  0
 59 61  1  0  0  0  0
 17 19  1  0  0  0  0
  7 13  1  0  0  0  0
 29 34  1  0  0  0  0
 49 54  1  0  0  0  0
 39 45  1  0  0  0  0
M  END
$$$$

  -OEChem-05262214473D

 64 63  0     1  0  0  0  0  0999 V2000
   -3.0498    1.1566    6.8171 C   0  0  0  0  0  0  0  0  0  0  0  0
   -4.2157    0.8894    6.5507 O   0  0  0  0  0  0  0  0  0  0  0  0
   -2.7461    2.0628    7.9638 C   0  0  0  0  0  0  0  0  0  0  0  0
   -2.7006    3.1216    7.6623 H   0  0  0  0  0  0  0  0  0  0  0  0
   -3.5154    2.0170    8.7512 H   0  0  0  0  0  0  0  0  0  0  0  0
   -1.7922    1.8671    8.4793 H   0  0  0  0  0  0  0  0  0  0  0  0
   -1.9298    0.6931    6.1487 N   0  0  0  0  0  0  0  0  0  0  0  0
   -1.9959   -0.1936    5.0147 C   0  0  2  0  0  0  0  0  0  0  0  0
   -0.8003   -1.1430    5.0591 C   0  0  0  0  0  0  0  0  0  0  0  0
    0.1064   -1.0400    5.8829 O   0  0  0  0  0  0  0  0  0  0  0  0
   -2.1214    0.5629    3.6900 C   0  0  0  0  0  0  0  0  0  0  0  0
   -0.6875    1.6225    3.3107 S   0  0  0  0  0  0  0  0  0  0  0  0
   -1.0139    0.9937    6.4744 H   0  0  0  0  0  0  0  0  0  0  0  0
   -2.9016   -0.7947    5.1631 H   0  0  0  0  0  0  0  0  0  0  0  0
   -2.2403   -0.1377    2.8571 H   0  0  0  0  0  0  0  0  0  0  0  0
   -3.0079    1.2059    3.7101 H   0  0  0  0  0  0  0  0  0  0  0  0
   -0.8533   -2.1010    4.0566 N   0  0  0  0  0  0  0  0  0  0  0  0
    0.1764   -3.0974    3.8760 C   0  0  0  0  0  0  0  0  0  0  0  0
   -1.6630   -2.1399    3.4446 H   0  0  0  0  0  0  0  0  0  0  0  0
    0.9200   -2.7303    3.1533 H   0  0  0  0  0  0  0  0  0  0  0  0
    0.6685   -3.2949    4.8399 H   0  0  0  0  0  0  0  0  0  0  0  0
   -0.2748   -4.0265    3.4976 H   0  0  0  0  0  0  0  0  0  0  0  0
   -6.7256    2.0330   -0.2766 C   0  0  0  0  0  0  0  0  0  0  0  0
   -7.1824    1.1039   -0.9322 O   0  0  0  0  0  0  0  0  0  0  0  0
   -7.5276    2.6077    0.8435 C   0  0  0  0  0  0  0  0  0  0  0  0
   -8.1775    3.4344    0.5145 H   0  0  0  0  0  0  0  0  0  0  0  0
   -8.2057    1.8676    1.2980 H   0  0  0  0  0  0  0  0  0  0  0  0
   -6.9411    3.0162    1.6819 H   0  0  0  0  0  0  0  0  0  0  0  0
   -5.4935    2.6382   -0.4627 N   0  0  0  0  0  0  0  0  0  0  0  0
   -4.5619    2.2388   -1.4845 C   0  0  2  0  0  0  0  0  0  0  0  0
   -3.1535    2.4674   -0.9521 C   0  0  0  0  0  0  0  0  0  0  0  0
   -2.8634    3.3945   -0.1987 O   0  0  0  0  0  0  0  0  0  0  0  0
   -4.7883    3.0138   -2.7732 C   0  0  0  0  0  0  0  0  0  0  0  0
   -5.2337    3.4049    0.1551 H   0  0  0  0  0  0  0  0  0  0  0  0
   -4.7192    1.1682   -1.6549 H   0  0  0  0  0  0  0  0  0  0  0  0
   -4.6352    4.0886   -2.6221 H   0  0  0  0  0  0  0  0  0  0  0  0
   -4.0976    2.6887   -3.5582 H   0  0  0  0  0  0  0  0  0  0  0  0
   -5.8111    2.8719   -3.1387 H   0  0  0  0  0  0  0  0  0  0  0  0
   -2.2466    1.5400   -1.4507 N   0  0  0  0  0  0  0  0  0  0  0  0
   -0.8424    1.5707   -1.1286 C   0  0  2  0  0  0  0  0  0  0  0  0
   -0.0902    0.6745   -2.1102 C   0  0  0  0  0  0  0  0  0  0  0  0
    0.7807    1.0954   -2.8690 O   0  0  0  0  0  0  0  0  0  0  0  0
   -0.5734    1.2246    0.3380 C   0  0  0  0  0  0  0  0  0  0  0  0
   -1.2472    2.4297    1.5069 S   0  0  0  0  0  0  0  0  0  0  0  0
   -2.5850    0.7815   -2.0381 H   0  0  0  0  0  0  0  0  0  0  0  0
   -0.5209    2.6038   -1.3103 H   0  0  0  0  0  0  0  0  0  0  0  0
   -1.0043    0.2496    0.5881 H   0  0  0  0  0  0  0  0  0  0  0  0
    0.5058    1.1640    0.5152 H   0  0  0  0  0  0  0  0  0  0  0  0
   -0.5230   -0.6428   -2.0559 N   0  0  0  0  0  0  0  0  0  0  0  0
    0.0193   -1.6767   -2.9061 C   0  0  2  0  0  0  0  0  0  0  0  0
   -1.0918   -2.6767   -3.1976 C   0  0  0  0  0  0  0  0  0  0  0  0
   -1.9686   -2.9612   -2.3843 O   0  0  0  0  0  0  0  0  0  0  0  0
    1.2098   -2.3618   -2.2535 C   0  0  0  0  0  0  0  0  0  0  0  0
   -1.2190   -0.9124   -1.3669 H   0  0  0  0  0  0  0  0  0  0  0  0
    0.3275   -1.1904   -3.8381 H   0  0  0  0  0  0  0  0  0  0  0  0
    0.9204   -2.8547   -1.3182 H   0  0  0  0  0  0  0  0  0  0  0  0
    1.6374   -3.1258   -2.9111 H   0  0  0  0  0  0  0  0  0  0  0  0
    1.9958   -1.6363   -2.0174 H   0  0  0  0  0  0  0  0  0  0  0  0
   -0.9642   -3.2462   -4.4568 N   0  0  0  0  0  0  0  0  0  0  0  0
   -1.8710   -4.2556   -4.9514 C   0  0  0  0  0  0  0  0  0  0  0  0
   -0.2307   -2.9216   -5.0800 H   0  0  0  0  0  0  0  0  0  0  0  0
   -1.4706   -5.2538   -4.7207 H   0  0  0  0  0  0  0  0  0  0  0  0
   -2.8526   -4.1342   -4.4700 H   0  0  0  0  0  0  0  0  0  0  0  0
   -1.9810   -4.1476   -6.0406 H   0  0  0  0  0  0  0  0  0  0  0  0
  1  3  1  0  0  0  0
  1  7  1  0  0  0  0
  1  2  2  0  0  0  0
 23 25  1  0  0  0  0
 23 29  1  0  0  0  0
 23 24  2  0  0  0  0
 50 51  1  0  0  0  0
 51 59  1  0  0  0  0
 51 52  2  0  0  0  0
  8  9  1  0  0  0  0
  9 17  1  0  0  0  0
  9 10  2  0  0  0  0
 30 31  1  0  0  0  0
 31 39  1  0  0  0  0
 31 32  2  0  0  0  0
 40 41  1  0  0  0  0
 41 49  1  0  0  0  0
 41 42  2  0  0  0  0
 50 53  1  0  0  0  0
 30 33  1  0  0  0  0
 59 60  1  0  0  0  0
 17 18  1  0  0  0  0
  8 11  1  0  0  0  0
 11 12  1  0  0  0  0
 40 43  1  0  0  0  0
 43 44  1  0  0  0  0
 49 50  1  0  0  0  0
  7  8  1  0  0  0  0
 29 30  1  0  0  0  0
 39 40  1  0  0  0  0
 12 44  1  0  0  0  0
  3  4  1  0  0  0  0
  3  5  1  0  0  0  0
  3  6  1  0  0  0  0
 25 26  1  0  0  0  0
 25 27  1  0  0  0  0
 25 28  1  0  0  0  0
 53 56  1  0  0  0  0
 53 57  1  0  0  0  0
 53 58  1  0  0  0  0
 33 36  1  0  0  0  0
 33 37  1  0  0  0  0
 33 38  1  0  0  0  0
 60 62  1  0  0  0  0
 60 63  1  0  0  0  0
 60 64  1  0  0  0  0
 18 20  1  0  0  0  0
 18 21  1  0  0  0  0
 18 22  1  0  0  0  0
 11 15  1  0  0  0  0
 11 16  1  0  0  0  0
 43 47  1  0  0  0  0
 43 48  1  0  0  0  0
 50 55  1  0  0  0  0
  8 14  1  0  0  0  0
 30 35  1  0  0  0  0
 40 46  1  0  0  0  0
 59 61  1  0  0  0  0
 17 19  1  0  0  0  0
  7 13  1  0  0  0  0
 29 34  1  0  0  0  0
 49 54  1  0  0  0  0
 39 45  1  0  0  0  0
M  END
$$$$

  -OEChem-05262214473D

 64 63  0     1  0  0  0  0  0999 V2000
   -3.0498    1.1566    6.8171 C   0  0  0  0  0  0  0  0  0  0  0  0
   -4.2157    0.8894    6.5507 O   0  0  0  0  0  0  0  0  0  0  0  0
   -2.7461    2.0628    7.9638 C   0  0  0  0  0  0  0  0  0  0  0  0
   -2.7006    3.1216    7.6623 H   0  0  0  0  0  0  0  0  0  0  0  0
   -3.5154    2.0170    8.7512 H   0  0  0  0  0  0  0  0  0  0  0  0
   -1.7922    1.8671    8.4793 H   0  0  0  0  0  0  0  0  0  0  0  0
   -1.9298    0.6931    6.1487 N   0  0  0  0  0  0  0  0  0  0  0  0
   -1.9959   -0.1936    5.0147 C   0  0  2  0  0  0  0  0  0  0  0  0
   -0.8003   -1.1430    5.0591 C   0  0  0  0  0  0  0  0  0  0  0  0
    0.1064   -1.0400    5.8829 O   0  0  0  0  0  0  0  0  0  0  0  0
   -2.1214    0.5629    3.6900 C   0  0  0  0  0  0  0  0  0  0  0  0
   -0.6875    1.6225    3.3107 S   0  0  0  0  0  0  0  0  0  0  0  0
   -1.0139    0.9937    6.4744 H   0  0  0  0  0  0  0  0  0  0  0  0
   -2.9016   -0.7947    5.1631 H   0  0  0  0  0  0  0  0  0  0  0  0
   -2.2403   -0.1377    2.8571 H   0  0  0  0  0  0  0  0  0  0  0  0
   -3.0079    1.2059    3.7101 H   0  0  0  0  0  0  0  0  0  0  0  0
   -0.8533   -2.1010    4.0566 N   0  0  0  0  0  0  0  0  0  0  0  0
    0.1764   -3.0974    3.8760 C   0  0  0  0  0  0  0  0  0  0  0  0
   -1.6630   -2.1399    3.4446 H   0  0  0  0  0  0  0  0  0  0  0  0
    0.9200   -2.7303    3.1533 H   0  0  0  0  0  0  0  0  0  0  0  0
    0.6685   -3.2949    4.8399 H   0  0  0  0  0  0  0  0  0  0  0  0
   -0.2748   -4.0265    3.4976 H   0  0  0  0  0  0  0  0  0  0  0  0
   -6.7256    2.0330   -0.2766 C   0  0  0  0  0  0  0  0  0  0  0  0
   -7.1824    1.1039   -0.9322 O   0  0  0  0  0  0  0  0  0  0  0  0
   -7.5276    2.6077    0.8435 C   0  0  0  0  0  0  0  0  0  0  0  0
   -8.1775    3.4344    0.5145 H   0  0  0  0  0  0  0  0  0  0  0  0
   -8.2057    1.8676    1.2980 H   0  0  0  0  0  0  0  0  0  0  0  0
   -6.9411    3.0162    1.6819 H   0  0  0  0  0  0  0  0  0  0  0  0
   -5.4935    2.6382   -0.4627 N   0  0  0  0  0  0  0  0  0  0  0  0
   -4.5619    2.2388   -1.4845 C   0  0  2  0  0  0  0  0  0  0  0  0
   -3.1535    2.4674   -0.9521 C   0  0  0  0  0  0  0  0  0  0  0  0
   -2.8634    3.3945   -0.1987 O   0  0  0  0  0  0  0  0  0  0  0  0
   -4.7883    3.0138   -2.7732 C   0  0  0  0  0  0  0  0  0  0  0  0
   -5.2337    3.4049    0.1551 H   0  0  0  0  0  0  0  0  0  0  0  0
   -4.7192    1.1682   -1.6549 H   0  0  0  0  0  0  0  0  0  0  0  0
   -4.6352    4.0886   -2.6221 H   0  0  0  0  0  0  0  0  0  0  0  0
   -4.0976    2.6887   -3.5582 H   0  0  0  0  0  0  0  0  0  0  0  0
   -5.8111    2.8719   -3.1387 H   0  0  0  0  0  0  0  0  0  0  0  0
   -2.2466    1.5400   -1.4507 N   0  0  0  0  0  0  0  0  0  0  0  0
   -0.8424    1.5707   -1.1286 C   0  0  2  0  0  0  0  0  0  0  0  0
   -0.0902    0.6745   -2.1102 C   0  0  0  0  0  0  0  0  0  0  0  0
    0.9475    1.0196   -2.6719 O   0  0  0  0  0  0  0  0  0  0  0  0
   -0.5734    1.2246    0.3380 C   0  0  0  0  0  0  0  0  0  0  0  0
   -1.2472    2.4297    1.5069 S   0  0  0  0  0  0  0  0  0  0  0  0
   -2.5850    0.7815   -2.0381 H   0  0  0  0  0  0  0  0  0  0  0  0
   -0.5209    2.6038   -1.3103 H   0  0  0  0  0  0  0  0  0  0  0  0
   -1.0043    0.2496    0.5881 H   0  0  0  0  0  0  0  0  0  0  0  0
    0.5058    1.1640    0.5152 H   0  0  0  0  0  0  0  0  0  0  0  0
   -0.7268   -0.5433   -2.3029 N   0  0  0  0  0  0  0  0  0  0  0  0
   -0.2220   -1.5522   -3.2047 C   0  0  2  0  0  0  0  0  0  0  0  0
   -1.4135   -2.3007   -3.7874 C   0  0  0  0  0  0  0  0  0  0  0  0
   -2.4445   -2.5176   -3.1541 O   0  0  0  0  0  0  0  0  0  0  0  0
    0.7244   -2.5066   -2.4933 C   0  0  0  0  0  0  0  0  0  0  0  0
   -1.5591   -0.7632   -1.7637 H   0  0  0  0  0  0  0  0  0  0  0  0
    0.3059   -1.0243   -4.0063 H   0  0  0  0  0  0  0  0  0  0  0  0
    0.2132   -3.0447   -1.6867 H   0  0  0  0  0  0  0  0  0  0  0  0
    1.1284   -3.2535   -3.1846 H   0  0  0  0  0  0  0  0  0  0  0  0
    1.5652   -1.9629   -2.0493 H   0  0  0  0  0  0  0  0  0  0  0  0
   -1.1735   -2.7356   -5.0834 N   0  0  0  0  0  0  0  0  0  0  0  0
   -2.1345   -3.5060   -5.8377 C   0  0  0  0  0  0  0  0  0  0  0  0
   -0.3068   -2.4761   -5.5451 H   0  0  0  0  0  0  0  0  0  0  0  0
   -1.9381   -4.5789   -5.6951 H   0  0  0  0  0  0  0  0  0  0  0  0
   -3.1500   -3.2695   -5.4874 H   0  0  0  0  0  0  0  0  0  0  0  0
   -2.0475   -3.2562   -6.9054 H   0  0  0  0  0  0  0  0  0  0  0  0
  1  3  1  0  0  0  0
  1  7  1  0  0  0  0
  1  2  2  0  0  0  0
 23 25  1  0  0  0  0
 23 29  1  0  0  0  0
 23 24  2  0  0  0  0
 50 51  1  0  0  0  0
 51 59  1  0  0  0  0
 51 52  2  0  0  0  0
  8  9  1  0  0  0  0
  9 17  1  0  0  0  0
  9 10  2  0  0  0  0
 30 31  1  0  0  0  0
 31 39  1  0  0  0  0
 31 32  2  0  0  0  0
 40 41  1  0  0  0  0
 41 49  1  0  0  0  0
 41 42  2  0  0  0  0
 50 53  1  0  0  0  0
 30 33  1  0  0  0  0
 59 60  1  0  0  0  0
 17 18  1  0  0  0  0
  8 11  1  0  0  0  0
 11 12  1  0  0  0  0
 40 43  1  0  0  0  0
 43 44  1  0  0  0  0
 49 50  1  0  0  0  0
  7  8  1  0  0  0  0
 29 30  1  0  0  0  0
 39 40  1  0  0  0  0
 12 44  1  0  0  0  0
  3  4  1  0  0  0  0
  3  5  1  0  0  0  0
  3  6  1  0  0  0  0
 25 26  1  0  0  0  0
 25 27  1  0  0  0  0
 25 28  1  0  0  0  0
 53 56  1  0  0  0  0
 53 57  1  0  0  0  0
 53 58  1  0  0  0  0
 33 36  1  0  0  0  0
 33 37  1  0  0  0  0
 33 38  1  0  0  0  0
 60 62  1  0  0  0  0
 60 63  1  0  0  0  0
 60 64  1  0  0  0  0
 18 20  1  0  0  0  0
 18 21  1  0  0  0  0
 18 22  1  0  0  0  0
 11 15  1  0  0  0  0
 11 16  1  0  0  0  0
 43 47  1  0  0  0  0
 43 48  1  0  0  0  0
 50 55  1  0  0  0  0
  8 14  1  0  0  0  0
 30 35  1  0  0  0  0
 40 46  1  0  0  0  0
 59 61  1  0  0  0  0
 17 19  1  0  0  0  0
  7 13  1  0  0  0  0
 29 34  1  0  0  0  0
 49 54  1  0  0  0  0
 39 45  1  0  0  0  0
M  END
$$$$

  -OEChem-05262214473D

 64 63  0     1  0  0  0  0  0999 V2000
   -3.0498    1.1566    6.8171 C   0  0  0  0  0  0  0  0  0  0  0  0
   -4.2157    0.8894    6.5507 O   0  0  0  0  0  0  0  0  0  0  0  0
   -2.7461    2.0628    7.9638 C   0  0  0  0  0  0  0  0  0  0  0  0
   -2.7006    3.1216    7.6623 H   0  0  0  0  0  0  0  0  0  0  0  0
   -3.5154    2.0170    8.7512 H   0  0  0  0  0  0  0  0  0  0  0  0
   -1.7922    1.8671    8.4793 H   0  0  0  0  0  0  0  0  0  0  0  0
   -1.9298    0.6931    6.1487 N   0  0  0  0  0  0  0  0  0  0  0  0
   -1.9959   -0.1936    5.0147 C   0  0  2  0  0  0  0  0  0  0  0  0
   -0.8003   -1.1430    5.0591 C   0  0  0  0  0  0  0  0  0  0  0  0
    0.1064   -1.0400    5.8829 O   0  0  0  0  0  0  0  0  0  0  0  0
   -2.1214    0.5629    3.6900 C   0  0  0  0  0  0  0  0  0  0  0  0
   -0.6875    1.6225    3.3107 S   0  0  0  0  0  0  0  0  0  0  0  0
   -1.0139    0.9937    6.4744 H   0  0  0  0  0  0  0  0  0  0  0  0
   -2.9016   -0.7947    5.1631 H   0  0  0  0  0  0  0  0  0  0  0  0
   -2.2403   -0.1377    2.8571 H   0  0  0  0  0  0  0  0  0  0  0  0
   -3.0079    1.2059    3.7101 H   0  0  0  0  0  0  0  0  0  0  0  0
   -0.8533   -2.1010    4.0566 N   0  0  0  0  0  0  0  0  0  0  0  0
    0.1764   -3.0974    3.8760 C   0  0  0  0  0  0  0  0  0  0  0  0
   -1.6630   -2.1399    3.4446 H   0  0  0  0  0  0  0  0  0  0  0  0
    0.9200   -2.7303    3.1533 H   0  0  0  0  0  0  0  0  0  0  0  0
    0.6685   -3.2949    4.8399 H   0  0  0  0  0  0  0  0  0  0  0  0
   -0.2748   -4.0265    3.4976 H   0  0  0  0  0  0  0  0  0  0  0  0
   -6.7256    2.0330   -0.2766 C   0  0  0  0  0  0  0  0  0  0  0  0
   -7.1824    1.1039   -0.9322 O   0  0  0  0  0  0  0  0  0  0  0  0
   -7.5276    2.6077    0.8435 C   0  0  0  0  0  0  0  0  0  0  0  0
   -8.1775    3.4344    0.5145 H   0  0  0  0  0  0  0  0  0  0  0  0
   -8.2057    1.8676    1.2980 H   0  0  0  0  0  0  0  0  0  0  0  0
   -6.9411    3.0162    1.6819 H   0  0  0  0  0  0  0  0  0  0  0  0
   -5.4935    2.6382   -0.4627 N   0  0  0  0  0  0  0  0  0  0  0  0
   -4.5619    2.2388   -1.4845 C   0  0  2  0  0  0  0  0  0  0  0  0
   -3.1535    2.4674   -0.9521 C   0  0  0  0  0  0  0  0  0  0  0  0
   -2.8634    3.3945   -0.1987 O   0  0  0  0  0  0  0  0  0  0  0  0
   -4.7883    3.0138   -2.7732 C   0  0  0  0  0  0  0  0  0  0  0  0
   -5.2337    3.4049    0.1551 H   0  0  0  0  0  0  0  0  0  0  0  0
   -4.7192    1.1682   -1.6549 H   0  0  0  0  0  0  0  0  0  0  0  0
   -4.6352    4.0886   -2.6221 H   0  0  0  0  0  0  0  0  0  0  0  0
   -4.0976    2.6887   -3.5582 H   0  0  0  0  0  0  0  0  0  0  0  0
   -5.8111    2.8719   -3.1387 H   0  0  0  0  0  0  0  0  0  0  0  0
   -2.2466    1.5400   -1.4507 N   0  0  0  0  0  0  0  0  0  0  0  0
   -0.8424    1.5707   -1.1286 C   0  0  2  0  0  0  0  0  0  0  0  0
   -0.0902    0.6745   -2.1102 C   0  0  0  0  0  0  0  0  0  0  0  0
    1.0661    0.8934   -2.4658 O   0  0  0  0  0  0  0  0  0  0  0  0
   -0.5734    1.2246    0.3380 C   0  0  0  0  0  0  0  0  0  0  0  0
   -1.2472    2.4297    1.5069 S   0  0  0  0  0  0  0  0  0  0  0  0
   -2.5850    0.7815   -2.0381 H   0  0  0  0  0  0  0  0  0  0  0  0
   -0.5209    2.6038   -1.3103 H   0  0  0  0  0  0  0  0  0  0  0  0
   -1.0043    0.2496    0.5881 H   0  0  0  0  0  0  0  0  0  0  0  0
    0.5058    1.1640    0.5152 H   0  0  0  0  0  0  0  0  0  0  0  0
   -0.8696   -0.3819   -2.5598 N   0  0  0  0  0  0  0  0  0  0  0  0
   -0.3891   -1.3538   -3.5139 C   0  0  2  0  0  0  0  0  0  0  0  0
   -1.5722   -1.8088   -4.3581 C   0  0  0  0  0  0  0  0  0  0  0  0
   -2.7135   -1.9118   -3.9133 O   0  0  0  0  0  0  0  0  0  0  0  0
    0.2678   -2.5351   -2.8171 C   0  0  0  0  0  0  0  0  0  0  0  0
   -1.8025   -0.5120   -2.1797 H   0  0  0  0  0  0  0  0  0  0  0  0
    0.3383   -0.8388   -4.1509 H   0  0  0  0  0  0  0  0  0  0  0  0
   -0.4456   -3.0636   -2.1743 H   0  0  0  0  0  0  0  0  0  0  0  0
    0.6570   -3.2573   -3.5425 H   0  0  0  0  0  0  0  0  0  0  0  0
    1.0998   -2.2026   -2.1870 H   0  0  0  0  0  0  0  0  0  0  0  0
   -1.1956   -2.1277   -5.6553 N   0  0  0  0  0  0  0  0  0  0  0  0
   -2.1297   -2.6251   -6.6382 C   0  0  0  0  0  0  0  0  0  0  0  0
   -0.2356   -1.9738   -5.9491 H   0  0  0  0  0  0  0  0  0  0  0  0
   -2.1294   -3.7250   -6.6214 H   0  0  0  0  0  0  0  0  0  0  0  0
   -3.1390   -2.2552   -6.4050 H   0  0  0  0  0  0  0  0  0  0  0  0
   -1.8322   -2.2738   -7.6373 H   0  0  0  0  0  0  0  0  0  0  0  0
  1  3  1  0  0  0  0
  1  7  1  0  0  0  0
  1  2  2  0  0  0  0
 23 25  1  0  0  0  0
 23 29  1  0  0  0  0
 23 24  2  0  0  0  0
 50 51  1  0  0  0  0
 51 59  1  0  0  0  0
 51 52  2  0  0  0  0
  8  9  1  0  0  0  0
  9 17  1  0  0  0  0
  9 10  2  0  0  0  0
 30 31  1  0  0  0  0
 31 39  1  0  0  0  0
 31 32  2  0  0  0  0
 40 41  1  0  0  0  0
 41 49  1  0  0  0  0
 41 42  2  0  0  0  0
 50 53  1  0  0  0  0
 30 33  1  0  0  0  0
 59 60  1  0  0  0  0
 17 18  1  0  0  0  0
  8 11  1  0  0  0  0
 11 12  1  0  0  0  0
 40 43  1  0  0  0  0
 43 44  1  0  0  0  0
 49 50  1  0  0  0  0
  7  8  1  0  0  0  0
 29 30  1  0  0  0  0
 39 40  1  0  0  0  0
 12 44  1  0  0  0  0
  3  4  1  0  0  0  0
  3  5  1  0  0  0  0
  3  6  1  0  0  0  0
 25 26  1  0  0  0  0
 25 27  1  0  0  0  0
 25 28  1  0  0  0  0
 53 56  1  0  0  0  0
 53 57  1  0  0  0  0
 53 58  1  0  0  0  0
 33 36  1  0  0  0  0
 33 37  1  0  0  0  0
 33 38  1  0  0  0  0
 60 62  1  0  0  0  0
 60 63  1  0  0  0  0
 60 64  1  0  0  0  0
 18 20  1  0  0  0  0
 18 21  1  0  0  0  0
 18 22  1  0  0  0  0
 11 15  1  0  0  0  0
 11 16  1  0  0  0  0
 43 47  1  0  0  0  0
 43 48  1  0  0  0  0
 50 55  1  0  0  0  0
  8 14  1  0  0  0  0
 30 35  1  0  0  0  0
 40 46  1  0  0  0  0
 59 61  1  0  0  0  0
 17 19  1  0  0  0  0
  7 13  1  0  0  0  0
 29 34  1  0  0  0  0
 49 54  1  0  0  0  0
 39 45  1  0  0  0  0
M  END
$$$$

  -OEChem-05262214473D

 64 63  0     1  0  0  0  0  0999 V2000
   -3.0498    1.1566    6.8171 C   0  0  0  0  0  0  0  0  0  0  0  0
   -4.2157    0.8894    6.5507 O   0  0  0  0  0  0  0  0  0  0  0  0
   -2.7461    2.0628    7.9638 C   0  0  0  0  0  0  0  0  0  0  0  0
   -2.7006    3.1216    7.6623 H   0  0  0  0  0  0  0  0  0  0  0  0
   -3.5154    2.0170    8.7512 H   0  0  0  0  0  0  0  0  0  0  0  0
   -1.7922    1.8671    8.4793 H   0  0  0  0  0  0  0  0  0  0  0  0
   -1.9298    0.6931    6.1487 N   0  0  0  0  0  0  0  0  0  0  0  0
   -1.9959   -0.1936    5.0147 C   0  0  2  0  0  0  0  0  0  0  0  0
   -0.8003   -1.1430    5.0591 C   0  0  0  0  0  0  0  0  0  0  0  0
    0.1064   -1.0400    5.8829 O   0  0  0  0  0  0  0  0  0  0  0  0
   -2.1214    0.5629    3.6900 C   0  0  0  0  0  0  0  0  0  0  0  0
   -0.6875    1.6225    3.3107 S   0  0  0  0  0  0  0  0  0  0  0  0
   -1.0139    0.9937    6.4744 H   0  0  0  0  0  0  0  0  0  0  0  0
   -2.9016   -0.7947    5.1631 H   0  0  0  0  0  0  0  0  0  0  0  0
   -2.2403   -0.1377    2.8571 H   0  0  0  0  0  0  0  0  0  0  0  0
   -3.0079    1.2059    3.7101 H   0  0  0  0  0  0  0  0  0  0  0  0
   -0.8533   -2.1010    4.0566 N   0  0  0  0  0  0  0  0  0  0  0  0
    0.1764   -3.0974    3.8760 C   0  0  0  0  0  0  0  0  0  0  0  0
   -1.6630   -2.1399    3.4446 H   0  0  0  0  0  0  0  0  0  0  0  0
    0.9200   -2.7303    3.1533 H   0  0  0  0  0  0  0  0  0  0  0  0
    0.6685   -3.2949    4.8399 H   0  0  0  0  0  0  0  0  0  0  0  0
   -0.2748   -4.0265    3.4976 H   0  0  0  0  0  0  0  0  0  0  0  0
   -6.7256    2.0330   -0.2766 C   0  0  0  0  0  0  0  0  0  0  0  0
   -7.1824    1.1039   -0.9322 O   0  0  0  0  0  0  0  0  0  0  0  0
   -7.5276    2.6077    0.8435 C   0  0  0  0  0  0  0  0  0  0  0  0
   -8.1775    3.4344    0.5145 H   0  0  0  0  0  0  0  0  0  0  0  0
   -8.2057    1.8676    1.2980 H   0  0  0  0  0  0  0  0  0  0  0  0
   -6.9411    3.0162    1.6819 H   0  0  0  0  0  0  0  0  0  0  0  0
   -5.4935    2.6382   -0.4627 N   0  0  0  0  0  0  0  0  0  0  0  0
   -4.5619    2.2388   -1.4845 C   0  0  2  0  0  0  0  0  0  0  0  0
   -3.1535    2.4674   -0.9521 C   0  0  0  0  0  0  0  0  0  0  0  0
   -2.8634    3.3945   -0.1987 O   0  0  0  0  0  0  0  0  0  0  0  0
   -4.7883    3.0138   -2.7732 C   0  0  0  0  0  0  0  0  0  0  0  0
   -5.2337    3.4049    0.1551 H   0  0  0  0  0  0  0  0  0  0  0  0
   -4.7192    1.1682   -1.6549 H   0  0  0  0  0  0  0  0  0  0  0  0
   -4.6352    4.0886   -2.6221 H   0  0  0  0  0  0  0  0  0  0  0  0
   -4.0976    2.6887   -3.5582 H   0  0  0  0  0  0  0  0  0  0  0  0
   -5.8111    2.8719   -3.1387 H   0  0  0  0  0  0  0  0  0  0  0  0
   -2.2466    1.5400   -1.4507 N   0  0  0  0  0  0  0  0  0  0  0  0
   -0.8424    1.5707   -1.1286 C   0  0  2  0  0  0  0  0  0  0  0  0
   -0.0902    0.6745   -2.1102 C   0  0  0  0  0  0  0  0  0  0  0  0
    1.1284    0.7256   -2.2649 O   0  0  0  0  0  0  0  0  0  0  0  0
   -0.5734    1.2246    0.3380 C   0  0  0  0  0  0  0  0  0  0  0  0
   -1.2472    2.4297    1.5069 S   0  0  0  0  0  0  0  0  0  0  0  0
   -2.5850    0.7815   -2.0381 H   0  0  0  0  0  0  0  0  0  0  0  0
   -0.5209    2.6038   -1.3103 H   0  0  0  0  0  0  0  0  0  0  0  0
   -1.0043    0.2496    0.5881 H   0  0  0  0  0  0  0  0  0  0  0  0
    0.5058    1.1640    0.5152 H   0  0  0  0  0  0  0  0  0  0  0  0
   -0.9417   -0.1694   -2.8090 N   0  0  0  0  0  0  0  0  0  0  0  0
   -0.4705   -1.0949   -3.8126 C   0  0  2  0  0  0  0  0  0  0  0  0
   -1.5569   -1.2345   -4.8707 C   0  0  0  0  0  0  0  0  0  0  0  0
   -2.7572   -1.1851   -4.6103 O   0  0  0  0  0  0  0  0  0  0  0  0
   -0.1287   -2.4455   -3.2029 C   0  0  0  0  0  0  0  0  0  0  0  0
   -1.9327   -0.1758   -2.5864 H   0  0  0  0  0  0  0  0  0  0  0  0
    0.4223   -0.6465   -4.2620 H   0  0  0  0  0  0  0  0  0  0  0  0
   -1.0110   -2.9101   -2.7477 H   0  0  0  0  0  0  0  0  0  0  0  0
    0.2553   -3.1369   -3.9601 H   0  0  0  0  0  0  0  0  0  0  0  0
    0.6314   -2.3392   -2.4213 H   0  0  0  0  0  0  0  0  0  0  0  0
   -1.0290   -1.4640   -6.1336 N   0  0  0  0  0  0  0  0  0  0  0  0
   -1.8569   -1.6730   -7.2985 C   0  0  0  0  0  0  0  0  0  0  0  0
   -0.0218   -1.4490   -6.2644 H   0  0  0  0  0  0  0  0  0  0  0  0
   -2.0316   -2.7503   -7.4362 H   0  0  0  0  0  0  0  0  0  0  0  0
   -2.8202   -1.1602   -7.1603 H   0  0  0  0  0  0  0  0  0  0  0  0
   -1.3496   -1.2675   -8.1863 H   0  0  0  0  0  0  0  0  0  0  0  0
  1  3  1  0  0  0  0
  1  7  1  0  0  0  0
  1  2  2  0  0  0  0
 23 25  1  0  0  0  0
 23 29  1  0  0  0  0
 23 24  2  0  0  0  0
 50 51  1  0  0  0  0
 51 59  1  0  0  0  0
 51 52  2  0  0  0  0
  8  9  1  0  0  0  0
  9 17  1  0  0  0  0
  9 10  2  0  0  0  0
 30 31  1  0  0  0  0
 31 39  1  0  0  0  0
 31 32  2  0  0  0  0
 40 41  1  0  0  0  0
 41 49  1  0  0  0  0
 41 42  2  0  0  0  0
 50 53  1  0  0  0  0
 30 33  1  0  0  0  0
 59 60  1  0  0  0  0
 17 18  1  0  0  0  0
  8 11  1  0  0  0  0
 11 12  1  0  0  0  0
 40 43  1  0  0  0  0
 43 44  1  0  0  0  0
 49 50  1  0  0  0  0
  7  8  1  0  0  0  0
 29 30  1  0  0  0  0
 39 40  1  0  0  0  0
 12 44  1  0  0  0  0
  3  4  1  0  0  0  0
  3  5  1  0  0  0  0
  3  6  1  0  0  0  0
 25 26  1  0  0  0  0
 25 27  1  0  0  0  0
 25 28  1  0  0  0  0
 53 56  1  0  0  0  0
 53 57  1  0  0  0  0
 53 58  1  0  0  0  0
 33 36  1  0  0  0  0
 33 37  1  0  0  0  0
 33 38  1  0  0  0  0
 60 62  1  0  0  0  0
 60 63  1  0  0  0  0
 60 64  1  0  0  0  0
 18 20  1  0  0  0  0
 18 21  1  0  0  0  0
 18 22  1  0  0  0  0
 11 15  1  0  0  0  0
 11 16  1  0  0  0  0
 43 47  1  0  0  0  0
 43 48  1  0  0  0  0
 50 55  1  0  0  0  0
  8 14  1  0  0  0  0
 30 35  1  0  0  0  0
 40 46  1  0  0  0  0
 59 61  1  0  0  0  0
 17 19  1  0  0  0  0
  7 13  1  0  0  0  0
 29 34  1  0  0  0  0
 49 54  1  0  0  0  0
 39 45  1  0  0  0  0
M  END
$$$$

  -OEChem-05262214473D

 64 63  0     1  0  0  0  0  0999 V2000
   -3.0498    1.1566    6.8171 C   0  0  0  0  0  0  0  0  0  0  0  0
   -4.2157    0.8894    6.5507 O   0  0  0  0  0  0  0  0  0  0  0  0
   -2.7461    2.0628    7.9638 C   0  0  0  0  0  0  0  0  0  0  0  0
   -2.7006    3.1216    7.6623 H   0  0  0  0  0  0  0  0  0  0  0  0
   -3.5154    2.0170    8.7512 H   0  0  0  0  0  0  0  0  0  0  0  0
   -1.7922    1.8671    8.4793 H   0  0  0  0  0  0  0  0  0  0  0  0
   -1.9298    0.6931    6.1487 N   0  0  0  0  0  0  0  0  0  0  0  0
   -1.9959   -0.1936    5.0147 C   0  0  2  0  0  0  0  0  0  0  0  0
   -0.8003   -1.1430    5.0591 C   0  0  0  0  0  0  0  0  0  0  0  0
    0.1064   -1.0400    5.8829 O   0  0  0  0  0  0  0  0  0  0  0  0
   -2.1214    0.5629    3.6900 C   0  0  0  0  0  0  0  0  0  0  0  0
   -0.6875    1.6225    3.3107 S   0  0  0  0  0  0  0  0  0  0  0  0
   -1.0139    0.9937    6.4744 H   0  0  0  0  0  0  0  0  0  0  0  0
   -2.9016   -0.7947    5.1631 H   0  0  0  0  0  0  0  0  0  0  0  0
   -2.2403   -0.1377    2.8571 H   0  0  0  0  0  0  0  0  0  0  0  0
   -3.0079    1.2059    3.7101 H   0  0  0  0  0  0  0  0  0  0  0  0
   -0.8533   -2.1010    4.0566 N   0  0  0  0  0  0  0  0  0  0  0  0
    0.1764   -3.0974    3.8760 C   0  0  0  0  0  0  0  0  0  0  0  0
   -1.6630   -2.1399    3.4446 H   0  0  0  0  0  0  0  0  0  0  0  0
    0.9200   -2.7303    3.1533 H   0  0  0  0  0  0  0  0  0  0  0  0
    0.6685   -3.2949    4.8399 H   0  0  0  0  0  0  0  0  0  0  0  0
   -0.2748   -4.0265    3.4976 H   0  0  0  0  0  0  0  0  0  0  0  0
   -6.7256    2.0330   -0.2766 C   0  0  0  0  0  0  0  0  0  0  0  0
   -7.1824    1.1039   -0.9322 O   0  0  0  0  0  0  0  0  0  0  0  0
   -7.5276    2.6077    0.8435 C   0  0  0  0  0  0  0  0  0  0  0  0
   -8.1775    3.4344    0.5145 H   0  0  0  0  0  0  0  0  0  0  0  0
   -8.2057    1.8676    1.2980 H   0  0  0  0  0  0  0  0  0  0  0  0
   -6.9411    3.0162    1.6819 H   0  0  0  0  0  0  0  0  0  0  0  0
   -5.4935    2.6382   -0.4627 N   0  0  0  0  0  0  0  0  0  0  0  0
   -4.5619    2.2388   -1.4845 C   0  0  2  0  0  0  0  0  0  0  0  0
   -3.1535    2.4674   -0.9521 C   0  0  0  0  0  0  0  0  0  0  0  0
   -2.8634    3.3945   -0.1987 O   0  0  0  0  0  0  0  0  0  0  0  0
   -4.7883    3.0138   -2.7732 C   0  0  0  0  0  0  0  0  0  0  0  0
   -5.2337    3.4049    0.1551 H   0  0  0  0  0  0  0  0  0  0  0  0
   -4.7192    1.1682   -1.6549 H   0  0  0  0  0  0  0  0  0  0  0  0
   -4.6352    4.0886   -2.6221 H   0  0  0  0  0  0  0  0  0  0  0  0
   -4.0976    2.6887   -3.5582 H   0  0  0  0  0  0  0  0  0  0  0  0
   -5.8111    2.8719   -3.1387 H   0  0  0  0  0  0  0  0  0  0  0  0
   -2.2466    1.5400   -1.4507 N   0  0  0  0  0  0  0  0  0  0  0  0
   -0.8424    1.5707   -1.1286 C   0  0  2  0  0  0  0  0  0  0  0  0
   -0.0902    0.6745   -2.1102 C   0  0  0  0  0  0  0  0  0  0  0  0
    1.1301    0.5275   -2.0827 O   0  0  0  0  0  0  0  0  0  0  0  0
   -0.5734    1.2246    0.3380 C   0  0  0  0  0  0  0  0  0  0  0  0
   -1.2472    2.4297    1.5069 S   0  0  0  0  0  0  0  0  0  0  0  0
   -2.5850    0.7815   -2.0381 H   0  0  0  0  0  0  0  0  0  0  0  0
   -0.5209    2.6038   -1.3103 H   0  0  0  0  0  0  0  0  0  0  0  0
   -1.0043    0.2496    0.5881 H   0  0  0  0  0  0  0  0  0  0  0  0
    0.5058    1.1640    0.5152 H   0  0  0  0  0  0  0  0  0  0  0  0
   -0.9381    0.0796   -3.0336 N   0  0  0  0  0  0  0  0  0  0  0  0
   -0.4606   -0.7932   -4.0805 C   0  0  2  0  0  0  0  0  0  0  0  0
   -1.3688   -0.6170   -5.2903 C   0  0  0  0  0  0  0  0  0  0  0  0
   -2.5728   -0.3871   -5.1975 O   0  0  0  0  0  0  0  0  0  0  0  0
   -0.4383   -2.2437   -3.6243 C   0  0  0  0  0  0  0  0  0  0  0  0
   -1.9408    0.2224   -2.9561 H   0  0  0  0  0  0  0  0  0  0  0  0
    0.5524   -0.4607   -4.3320 H   0  0  0  0  0  0  0  0  0  0  0  0
   -1.4445   -2.5947   -3.3679 H   0  0  0  0  0  0  0  0  0  0  0  0
   -0.0491   -2.9006   -4.4092 H   0  0  0  0  0  0  0  0  0  0  0  0
    0.1917   -2.3633   -2.7362 H   0  0  0  0  0  0  0  0  0  0  0  0
   -0.6850   -0.7896   -6.4857 N   0  0  0  0  0  0  0  0  0  0  0  0
   -1.3347   -0.7146   -7.7734 C   0  0  0  0  0  0  0  0  0  0  0  0
    0.3198   -0.9374   -6.4697 H   0  0  0  0  0  0  0  0  0  0  0  0
   -1.6511   -1.7212   -8.0842 H   0  0  0  0  0  0  0  0  0  0  0  0
   -2.2154   -0.0593   -7.7020 H   0  0  0  0  0  0  0  0  0  0  0  0
   -0.6327   -0.3057   -8.5149 H   0  0  0  0  0  0  0  0  0  0  0  0
  1  3  1  0  0  0  0
  1  7  1  0  0  0  0
  1  2  2  0  0  0  0
 23 25  1  0  0  0  0
 23 29  1  0  0  0  0
 23 24  2  0  0  0  0
 50 51  1  0  0  0  0
 51 59  1  0  0  0  0
 51 52  2  0  0  0  0
  8  9  1  0  0  0  0
  9 17  1  0  0  0  0
  9 10  2  0  0  0  0
 30 31  1  0  0  0  0
 31 39  1  0  0  0  0
 31 32  2  0  0  0  0
 40 41  1  0  0  0  0
 41 49  1  0  0  0  0
 41 42  2  0  0  0  0
 50 53  1  0  0  0  0
 30 33  1  0  0  0  0
 59 60  1  0  0  0  0
 17 18  1  0  0  0  0
  8 11  1  0  0  0  0
 11 12  1  0  0  0  0
 40 43  1  0  0  0  0
 43 44  1  0  0  0  0
 49 50  1  0  0  0  0
  7  8  1  0  0  0  0
 29 30  1  0  0  0  0
 39 40  1  0  0  0  0
 12 44  1  0  0  0  0
  3  4  1  0  0  0  0
  3  5  1  0  0  0  0
  3  6  1  0  0  0  0
 25 26  1  0  0  0  0
 25 27  1  0  0  0  0
 25 28  1  0  0  0  0
 53 56  1  0  0  0  0
 53 57  1  0  0  0  0
 53 58  1  0  0  0  0
 33 36  1  0  0  0  0
 33 37  1  0  0  0  0
 33 38  1  0  0  0  0
 60 62  1  0  0  0  0
 60 63  1  0  0  0  0
 60 64  1  0  0  0  0
 18 20  1  0  0  0  0
 18 21  1  0  0  0  0
 18 22  1  0  0  0  0
 11 15  1  0  0  0  0
 11 16  1  0  0  0  0
 43 47  1  0  0  0  0
 43 48  1  0  0  0  0
 50 55  1  0  0  0  0
  8 14  1  0  0  0  0
 30 35  1  0  0  0  0
 40 46  1  0  0  0  0
 59 61  1  0  0  0  0
 17 19  1  0  0  0  0
  7 13  1  0  0  0  0
 29 34  1  0  0  0  0
 49 54  1  0  0  0  0
 39 45  1  0  0  0  0
M  END
$$$$

  -OEChem-05262214473D

 64 63  0     1  0  0  0  0  0999 V2000
   -3.0498    1.1566    6.8171 C   0  0  0  0  0  0  0  0  0  0  0  0
   -4.2157    0.8894    6.5507 O   0  0  0  0  0  0  0  0  0  0  0  0
   -2.7461    2.0628    7.9638 C   0  0  0  0  0  0  0  0  0  0  0  0
   -2.7006    3.1216    7.6623 H   0  0  0  0  0  0  0  0  0  0  0  0
   -3.5154    2.0170    8.7512 H   0  0  0  0  0  0  0  0  0  0  0  0
   -1.7922    1.8671    8.4793 H   0  0  0  0  0  0  0  0  0  0  0  0
   -1.9298    0.6931    6.1487 N   0  0  0  0  0  0  0  0  0  0  0  0
   -1.9959   -0.1936    5.0147 C   0  0  2  0  0  0  0  0  0  0  0  0
   -0.8003   -1.1430    5.0591 C   0  0  0  0  0  0  0  0  0  0  0  0
    0.1064   -1.0400    5.8829 O   0  0  0  0  0  0  0  0  0  0  0  0
   -2.1214    0.5629    3.6900 C   0  0  0  0  0  0  0  0  0  0  0  0
   -0.6875    1.6225    3.3107 S   0  0  0  0  0  0  0  0  0  0  0  0
   -1.0139    0.9937    6.4744 H   0  0  0  0  0  0  0  0  0  0  0  0
   -2.9016   -0.7947    5.1631 H   0  0  0  0  0  0  0  0  0  0  0  0
   -2.2403   -0.1377    2.8571 H   0  0  0  0  0  0  0  0  0  0  0  0
   -3.0079    1.2059    3.7101 H   0  0  0  0  0  0  0  0  0  0  0  0
   -0.8533   -2.1010    4.0566 N   0  0  0  0  0  0  0  0  0  0  0  0
    0.1764   -3.0974    3.8760 C   0  0  0  0  0  0  0  0  0  0  0  0
   -1.6630   -2.1399    3.4446 H   0  0  0  0  0  0  0  0  0  0  0  0
    0.9200   -2.7303    3.1533 H   0  0  0  0  0  0  0  0  0  0  0  0
    0.6685   -3.2949    4.8399 H   0  0  0  0  0  0  0  0  0  0  0  0
   -0.2748   -4.0265    3.4976 H   0  0  0  0  0  0  0  0  0  0  0  0
   -6.7256    2.0330   -0.2766 C   0  0  0  0  0  0  0  0  0  0  0  0
   -7.1824    1.1039   -0.9322 O   0  0  0  0  0  0  0  0  0  0  0  0
   -7.5276    2.6077    0.8435 C   0  0  0  0  0  0  0  0  0  0  0  0
   -8.1775    3.4344    0.5145 H   0  0  0  0  0  0  0  0  0  0  0  0
   -8.2057    1.8676    1.2980 H   0  0  0  0  0  0  0  0  0  0  0  0
   -6.9411    3.0162    1.6819 H   0  0  0  0  0  0  0  0  0  0  0  0
   -5.4935    2.6382   -0.4627 N   0  0  0  0  0  0  0  0  0  0  0  0
   -4.5619    2.2388   -1.4845 C   0  0  2  0  0  0  0  0  0  0  0  0
   -3.1535    2.4674   -0.9521 C   0  0  0  0  0  0  0  0  0  0  0  0
   -2.8634    3.3945   -0.1987 O   0  0  0  0  0  0  0  0  0  0  0  0
   -4.7883    3.0138   -2.7732 C   0  0  0  0  0  0  0  0  0  0  0  0
   -5.2337    3.4049    0.1551 H   0  0  0  0  0  0  0  0  0  0  0  0
   -4.7192    1.1682   -1.6549 H   0  0  0  0  0  0  0  0  0  0  0  0
   -4.6352    4.0886   -2.6221 H   0  0  0  0  0  0  0  0  0  0  0  0
   -4.0976    2.6887   -3.5582 H   0  0  0  0  0  0  0  0  0  0  0  0
   -5.8111    2.8719   -3.1387 H   0  0  0  0  0  0  0  0  0  0  0  0
   -2.2466    1.5400   -1.4507 N   0  0  0  0  0  0  0  0  0  0  0  0
   -0.8424    1.5707   -1.1286 C   0  0  2  0  0  0  0  0  0  0  0  0
   -0.0902    0.6745   -2.1102 C   0  0  0  0  0  0  0  0  0  0  0  0
    1.0711    0.3126   -1.9317 O   0  0  0  0  0  0  0  0  0  0  0  0
   -0.5734    1.2246    0.3380 C   0  0  0  0  0  0  0  0  0  0  0  0
   -1.2472    2.4297    1.5069 S   0  0  0  0  0  0  0  0  0  0  0  0
   -2.5850    0.7815   -2.0381 H   0  0  0  0  0  0  0  0  0  0  0  0
   -0.5209    2.6038   -1.3103 H   0  0  0  0  0  0  0  0  0  0  0  0
   -1.0043    0.2496    0.5881 H   0  0  0  0  0  0  0  0  0  0  0  0
    0.5058    1.1640    0.5152 H   0  0  0  0  0  0  0  0  0  0  0  0
   -0.8592    0.3482   -3.2182 N   0  0  0  0  0  0  0  0  0  0  0  0
   -0.3603   -0.4693   -4.2993 C   0  0  2  0  0  0  0  0  0  0  0  0
   -1.0206    0.0017   -5.5884 C   0  0  0  0  0  0  0  0  0  0  0  0
   -2.1726    0.4280   -5.6350 O   0  0  0  0  0  0  0  0  0  0  0  0
   -0.6397   -1.9436   -4.0526 C   0  0  0  0  0  0  0  0  0  0  0  0
   -1.8262    0.6555   -3.2638 H   0  0  0  0  0  0  0  0  0  0  0  0
    0.7195   -0.2938   -4.3562 H   0  0  0  0  0  0  0  0  0  0  0  0
   -1.7166   -2.1389   -3.9926 H   0  0  0  0  0  0  0  0  0  0  0  0
   -0.2357   -2.5644   -4.8592 H   0  0  0  0  0  0  0  0  0  0  0  0
   -0.1891   -2.2733   -3.1102 H   0  0  0  0  0  0  0  0  0  0  0  0
   -0.1871   -0.1505   -6.6876 N   0  0  0  0  0  0  0  0  0  0  0  0
   -0.5988    0.1849   -8.0307 C   0  0  0  0  0  0  0  0  0  0  0  0
    0.7661   -0.4739   -6.5509 H   0  0  0  0  0  0  0  0  0  0  0  0
   -1.0140   -0.7079   -8.5212 H   0  0  0  0  0  0  0  0  0  0  0  0
   -1.3658    0.9725   -7.9930 H   0  0  0  0  0  0  0  0  0  0  0  0
    0.2697    0.5459   -8.6009 H   0  0  0  0  0  0  0  0  0  0  0  0
  1  3  1  0  0  0  0
  1  7  1  0  0  0  0
  1  2  2  0  0  0  0
 23 25  1  0  0  0  0
 23 29  1  0  0  0  0
 23 24  2  0  0  0  0
 50 51  1  0  0  0  0
 51 59  1  0  0  0  0
 51 52  2  0  0  0  0
  8  9  1  0  0  0  0
  9 17  1  0  0  0  0
  9 10  2  0  0  0  0
 30 31  1  0  0  0  0
 31 39  1  0  0  0  0
 31 32  2  0  0  0  0
 40 41  1  0  0  0  0
 41 49  1  0  0  0  0
 41 42  2  0  0  0  0
 50 53  1  0  0  0  0
 30 33  1  0  0  0  0
 59 60  1  0  0  0  0
 17 18  1  0  0  0  0
  8 11  1  0  0  0  0
 11 12  1  0  0  0  0
 40 43  1  0  0  0  0
 43 44  1  0  0  0  0
 49 50  1  0  0  0  0
  7  8  1  0  0  0  0
 29 30  1  0  0  0  0
 39 40  1  0  0  0  0
 12 44  1  0  0  0  0
  3  4  1  0  0  0  0
  3  5  1  0  0  0  0
  3  6  1  0  0  0  0
 25 26  1  0  0  0  0
 25 27  1  0  0  0  0
 25 28  1  0  0  0  0
 53 56  1  0  0  0  0
 53 57  1  0  0  0  0
 53 58  1  0  0  0  0
 33 36  1  0  0  0  0
 33 37  1  0  0  0  0
 33 38  1  0  0  0  0
 60 62  1  0  0  0  0
 60 63  1  0  0  0  0
 60 64  1  0  0  0  0
 18 20  1  0  0  0  0
 18 21  1  0  0  0  0
 18 22  1  0  0  0  0
 11 15  1  0  0  0  0
 11 16  1  0  0  0  0
 43 47  1  0  0  0  0
 43 48  1  0  0  0  0
 50 55  1  0  0  0  0
  8 14  1  0  0  0  0
 30 35  1  0  0  0  0
 40 46  1  0  0  0  0
 59 61  1  0  0  0  0
 17 19  1  0  0  0  0
  7 13  1  0  0  0  0
 29 34  1  0  0  0  0
 49 54  1  0  0  0  0
 39 45  1  0  0  0  0
M  END
$$$$

  -OEChem-05262214473D

 64 63  0     1  0  0  0  0  0999 V2000
   -3.0498    1.1566    6.8171 C   0  0  0  0  0  0  0  0  0  0  0  0
   -4.2157    0.8894    6.5507 O   0  0  0  0  0  0  0  0  0  0  0  0
   -2.7461    2.0628    7.9638 C   0  0  0  0  0  0  0  0  0  0  0  0
   -2.7006    3.1216    7.6623 H   0  0  0  0  0  0  0  0  0  0  0  0
   -3.5154    2.0170    8.7512 H   0  0  0  0  0  0  0  0  0  0  0  0
   -1.7922    1.8671    8.4793 H   0  0  0  0  0  0  0  0  0  0  0  0
   -1.9298    0.6931    6.1487 N   0  0  0  0  0  0  0  0  0  0  0  0
   -1.9959   -0.1936    5.0147 C   0  0  2  0  0  0  0  0  0  0  0  0
   -0.8003   -1.1430    5.0591 C   0  0  0  0  0  0  0  0  0  0  0  0
    0.1064   -1.0400    5.8829 O   0  0  0  0  0  0  0  0  0  0  0  0
   -2.1214    0.5629    3.6900 C   0  0  0  0  0  0  0  0  0  0  0  0
   -0.6875    1.6225    3.3107 S   0  0  0  0  0  0  0  0  0  0  0  0
   -1.0139    0.9937    6.4744 H   0  0  0  0  0  0  0  0  0  0  0  0
   -2.9016   -0.7947    5.1631 H   0  0  0  0  0  0  0  0  0  0  0  0
   -2.2403   -0.1377    2.8571 H   0  0  0  0  0  0  0  0  0  0  0  0
   -3.0079    1.2059    3.7101 H   0  0  0  0  0  0  0  0  0  0  0  0
   -0.8533   -2.1010    4.0566 N   0  0  0  0  0  0  0  0  0  0  0  0
    0.1764   -3.0974    3.8760 C   0  0  0  0  0  0  0  0  0  0  0  0
   -1.6630   -2.1399    3.4446 H   0  0  0  0  0  0  0  0  0  0  0  0
    0.9200   -2.7303    3.1533 H   0  0  0  0  0  0  0  0  0  0  0  0
    0.6685   -3.2949    4.8399 H   0  0  0  0  0  0  0  0  0  0  0  0
   -0.2748   -4.0265    3.4976 H   0  0  0  0  0  0  0  0  0  0  0  0
   -6.7256    2.0330   -0.2766 C   0  0  0  0  0  0  0  0  0  0  0  0
   -7.1824    1.1039   -0.9322 O   0  0  0  0  0  0  0  0  0  0  0  0
   -7.5276    2.6077    0.8435 C   0  0  0  0  0  0  0  0  0  0  0  0
   -8.1775    3.4344    0.5145 H   0  0  0  0  0  0  0  0  0  0  0  0
   -8.2057    1.8676    1.2980 H   0  0  0  0  0  0  0  0  0  0  0  0
   -6.9411    3.0162    1.6819 H   0  0  0  0  0  0  0  0  0  0  0  0
   -5.4935    2.6382   -0.4627 N   0  0  0  0  0  0  0  0  0  0  0  0
   -4.5619    2.2388   -1.4845 C   0  0  2  0  0  0  0  0  0  0  0  0
   -3.1535    2.4674   -0.9521 C   0  0  0  0  0  0  0  0  0  0  0  0
   -2.8634    3.3945   -0.1987 O   0  0  0  0  0  0  0  0  0  0  0  0
   -4.7883    3.0138   -2.7732 C   0  0  0  0  0  0  0  0  0  0  0  0
   -5.2337    3.4049    0.1551 H   0  0  0  0  0  0  0  0  0  0  0  0
   -4.7192    1.1682   -1.6549 H   0  0  0  0  0  0  0  0  0  0  0  0
   -4.6352    4.0886   -2.6221 H   0  0  0  0  0  0  0  0  0  0  0  0
   -4.0976    2.6887   -3.5582 H   0  0  0  0  0  0  0  0  0  0  0  0
   -5.8111    2.8719   -3.1387 H   0  0  0  0  0  0  0  0  0  0  0  0
   -2.2466    1.5400   -1.4507 N   0  0  0  0  0  0  0  0  0  0  0  0
   -0.8424    1.5707   -1.1286 C   0  0  2  0  0  0  0  0  0  0  0  0
   -0.0902    0.6745   -2.1102 C   0  0  0  0  0  0  0  0  0  0  0  0
    0.9555    0.0956   -1.8222 O   0  0  0  0  0  0  0  0  0  0  0  0
   -0.5734    1.2246    0.3380 C   0  0  0  0  0  0  0  0  0  0  0  0
   -1.2472    2.4297    1.5069 S   0  0  0  0  0  0  0  0  0  0  0  0
   -2.5850    0.7815   -2.0381 H   0  0  0  0  0  0  0  0  0  0  0  0
   -0.5209    2.6038   -1.3103 H   0  0  0  0  0  0  0  0  0  0  0  0
   -1.0043    0.2496    0.5881 H   0  0  0  0  0  0  0  0  0  0  0  0
    0.5058    1.1640    0.5152 H   0  0  0  0  0  0  0  0  0  0  0  0
   -0.7101    0.6180   -3.3504 N   0  0  0  0  0  0  0  0  0  0  0  0
   -0.1762   -0.1452   -4.4541 C   0  0  2  0  0  0  0  0  0  0  0  0
   -0.5361    0.5793   -5.7445 C   0  0  0  0  0  0  0  0  0  0  0  0
   -1.5841    1.2044   -5.8929 O   0  0  0  0  0  0  0  0  0  0  0  0
   -0.7193   -1.5657   -4.4587 C   0  0  0  0  0  0  0  0  0  0  0  0
   -1.5967    1.0941   -3.4883 H   0  0  0  0  0  0  0  0  0  0  0  0
    0.9124   -0.1574   -4.3329 H   0  0  0  0  0  0  0  0  0  0  0  0
   -1.8087   -1.5737   -4.5792 H   0  0  0  0  0  0  0  0  0  0  0  0
   -0.2917   -2.1513   -5.2792 H   0  0  0  0  0  0  0  0  0  0  0  0
   -0.4853   -2.0754   -3.5179 H   0  0  0  0  0  0  0  0  0  0  0  0
    0.4309    0.4097   -6.7254 N   0  0  0  0  0  0  0  0  0  0  0  0
    0.3007    0.9641   -8.0527 C   0  0  0  0  0  0  0  0  0  0  0  0
    1.2866   -0.0901   -6.5024 H   0  0  0  0  0  0  0  0  0  0  0  0
   -0.1637    0.2207   -8.7173 H   0  0  0  0  0  0  0  0  0  0  0  0
   -0.3294    1.8649   -8.0135 H   0  0  0  0  0  0  0  0  0  0  0  0
    1.2961    1.2294   -8.4384 H   0  0  0  0  0  0  0  0  0  0  0  0
  1  3  1  0  0  0  0
  1  7  1  0  0  0  0
  1  2  2  0  0  0  0
 23 25  1  0  0  0  0
 23 29  1  0  0  0  0
 23 24  2  0  0  0  0
 50 51  1  0  0  0  0
 51 59  1  0  0  0  0
 51 52  2  0  0  0  0
  8  9  1  0  0  0  0
  9 17  1  0  0  0  0
  9 10  2  0  0  0  0
 30 31  1  0  0  0  0
 31 39  1  0  0  0  0
 31 32  2  0  0  0  0
 40 41  1  0  0  0  0
 41 49  1  0  0  0  0
 41 42  2  0  0  0  0
 50 53  1  0  0  0  0
 30 33  1  0  0  0  0
 59 60  1  0  0  0  0
 17 18  1  0  0  0  0
  8 11  1  0  0  0  0
 11 12  1  0  0  0  0
 40 43  1  0  0  0  0
 43 44  1  0  0  0  0
 49 50  1  0  0  0  0
  7  8  1  0  0  0  0
 29 30  1  0  0  0  0
 39 40  1  0  0  0  0
 12 44  1  0  0  0  0
  3  4  1  0  0  0  0
  3  5  1  0  0  0  0
  3  6  1  0  0  0  0
 25 26  1  0  0  0  0
 25 27  1  0  0  0  0
 25 28  1  0  0  0  0
 53 56  1  0  0  0  0
 53 57  1  0  0  0  0
 53 58  1  0  0  0  0
 33 36  1  0  0  0  0
 33 37  1  0  0  0  0
 33 38  1  0  0  0  0
 60 62  1  0  0  0  0
 60 63  1  0  0  0  0
 60 64  1  0  0  0  0
 18 20  1  0  0  0  0
 18 21  1  0  0  0  0
 18 22  1  0  0  0  0
 11 15  1  0  0  0  0
 11 16  1  0  0  0  0
 43 47  1  0  0  0  0
 43 48  1  0  0  0  0
 50 55  1  0  0  0  0
  8 14  1  0  0  0  0
 30 35  1  0  0  0  0
 40 46  1  0  0  0  0
 59 61  1  0  0  0  0
 17 19  1  0  0  0  0
  7 13  1  0  0  0  0
 29 34  1  0  0  0  0
 49 54  1  0  0  0  0
 39 45  1  0  0  0  0
M  END
$$$$

  -OEChem-05262214473D

 64 63  0     1  0  0  0  0  0999 V2000
   -3.0498    1.1566    6.8171 C   0  0  0  0  0  0  0  0  0  0  0  0
   -4.2157    0.8894    6.5507 O   0  0  0  0  0  0  0  0  0  0  0  0
   -2.7461    2.0628    7.9638 C   0  0  0  0  0  0  0  0  0  0  0  0
   -2.7006    3.1216    7.6623 H   0  0  0  0  0  0  0  0  0  0  0  0
   -3.5154    2.0170    8.7512 H   0  0  0  0  0  0  0  0  0  0  0  0
   -1.7922    1.8671    8.4793 H   0  0  0  0  0  0  0  0  0  0  0  0
   -1.9298    0.6931    6.1487 N   0  0  0  0  0  0  0  0  0  0  0  0
   -1.9959   -0.1936    5.0147 C   0  0  2  0  0  0  0  0  0  0  0  0
   -0.8003   -1.1430    5.0591 C   0  0  0  0  0  0  0  0  0  0  0  0
    0.1064   -1.0400    5.8829 O   0  0  0  0  0  0  0  0  0  0  0  0
   -2.1214    0.5629    3.6900 C   0  0  0  0  0  0  0  0  0  0  0  0
   -0.6875    1.6225    3.3107 S   0  0  0  0  0  0  0  0  0  0  0  0
   -1.0139    0.9937    6.4744 H   0  0  0  0  0  0  0  0  0  0  0  0
   -2.9016   -0.7947    5.1631 H   0  0  0  0  0  0  0  0  0  0  0  0
   -2.2403   -0.1377    2.8571 H   0  0  0  0  0  0  0  0  0  0  0  0
   -3.0079    1.2059    3.7101 H   0  0  0  0  0  0  0  0  0  0  0  0
   -0.8533   -2.1010    4.0566 N   0  0  0  0  0  0  0  0  0  0  0  0
    0.1764   -3.0974    3.8760 C   0  0  0  0  0  0  0  0  0  0  0  0
   -1.6630   -2.1399    3.4446 H   0  0  0  0  0  0  0  0  0  0  0  0
    0.9200   -2.7303    3.1533 H   0  0  0  0  0  0  0  0  0  0  0  0
    0.6685   -3.2949    4.8399 H   0  0  0  0  0  0  0  0  0  0  0  0
   -0.2748   -4.0265    3.4976 H   0  0  0  0  0  0  0  0  0  0  0  0
   -6.7256    2.0330   -0.2766 C   0  0  0  0  0  0  0  0  0  0  0  0
   -7.1824    1.1039   -0.9322 O   0  0  0  0  0  0  0  0  0  0  0  0
   -7.5276    2.6077    0.8435 C   0  0  0  0  0  0  0  0  0  0  0  0
   -8.1775    3.4344    0.5145 H   0  0  0  0  0  0  0  0  0  0  0  0
   -8.2057    1.8676    1.2980 H   0  0  0  0  0  0  0  0  0  0  0  0
   -6.9411    3.0162    1.6819 H   0  0  0  0  0  0  0  0  0  0  0  0
   -5.4935    2.6382   -0.4627 N   0  0  0  0  0  0  0  0  0  0  0  0
   -4.5619    2.2388   -1.4845 C   0  0  2  0  0  0  0  0  0  0  0  0
   -3.1535    2.4674   -0.9521 C   0  0  0  0  0  0  0  0  0  0  0  0
   -2.8634    3.3945   -0.1987 O   0  0  0  0  0  0  0  0  0  0  0  0
   -4.7883    3.0138   -2.7732 C   0  0  0  0  0  0  0  0  0  0  0  0
   -5.2337    3.4049    0.1551 H   0  0  0  0  0  0  0  0  0  0  0  0
   -4.7192    1.1682   -1.6549 H   0  0  0  0  0  0  0  0  0  0  0  0
   -4.6352    4.0886   -2.6221 H   0  0  0  0  0  0  0  0  0  0  0  0
   -4.0976    2.6887   -3.5582 H   0  0  0  0  0  0  0  0  0  0  0  0
   -5.8111    2.8719   -3.1387 H   0  0  0  0  0  0  0  0  0  0  0  0
   -2.2466    1.5400   -1.4507 N   0  0  0  0  0  0  0  0  0  0  0  0
   -0.8424    1.5707   -1.1286 C   0  0  2  0  0  0  0  0  0  0  0  0
   -0.0902    0.6745   -2.1102 C   0  0  0  0  0  0  0  0  0  0  0  0
    0.7911   -0.1087   -1.7617 O   0  0  0  0  0  0  0  0  0  0  0  0
   -0.5734    1.2246    0.3380 C   0  0  0  0  0  0  0  0  0  0  0  0
   -1.2472    2.4297    1.5069 S   0  0  0  0  0  0  0  0  0  0  0  0
   -2.5850    0.7815   -2.0381 H   0  0  0  0  0  0  0  0  0  0  0  0
   -0.5209    2.6038   -1.3103 H   0  0  0  0  0  0  0  0  0  0  0  0
   -1.0043    0.2496    0.5881 H   0  0  0  0  0  0  0  0  0  0  0  0
    0.5058    1.1640    0.5152 H   0  0  0  0  0  0  0  0  0  0  0  0
   -0.5013    0.8706   -3.4210 N   0  0  0  0  0  0  0  0  0  0  0  0
    0.0790    0.1570   -4.5344 C   0  0  2  0  0  0  0  0  0  0  0  0
    0.0516    1.0766   -5.7481 C   0  0  0  0  0  0  0  0  0  0  0  0
   -0.8473    1.8894   -5.9537 O   0  0  0  0  0  0  0  0  0  0  0  0
   -0.6716   -1.1356   -4.8149 C   0  0  0  0  0  0  0  0  0  0  0  0
   -1.2680    1.5081   -3.6144 H   0  0  0  0  0  0  0  0  0  0  0  0
    1.1179   -0.0607   -4.2638 H   0  0  0  0  0  0  0  0  0  0  0  0
   -1.7146   -0.9376   -5.0878 H   0  0  0  0  0  0  0  0  0  0  0  0
   -0.2133   -1.6894   -5.6408 H   0  0  0  0  0  0  0  0  0  0  0  0
   -0.6764   -1.7830   -3.9313 H   0  0  0  0  0  0  0  0  0  0  0  0
    1.1267    0.8529   -6.5968 N   0  0  0  0  0  0  0  0  0  0  0  0
    1.3025    1.5700   -7.8381 C   0  0  0  0  0  0  0  0  0  0  0  0
    1.8458    0.1879   -6.3276 H   0  0  0  0  0  0  0  0  0  0  0  0
    0.8419    1.0011   -8.6592 H   0  0  0  0  0  0  0  0  0  0  0  0
    0.8233    2.5572   -7.7621 H   0  0  0  0  0  0  0  0  0  0  0  0
    2.3765    1.6982   -8.0384 H   0  0  0  0  0  0  0  0  0  0  0  0
  1  3  1  0  0  0  0
  1  7  1  0  0  0  0
  1  2  2  0  0  0  0
 23 25  1  0  0  0  0
 23 29  1  0  0  0  0
 23 24  2  0  0  0  0
 50 51  1  0  0  0  0
 51 59  1  0  0  0  0
 51 52  2  0  0  0  0
  8  9  1  0  0  0  0
  9 17  1  0  0  0  0
  9 10  2  0  0  0  0
 30 31  1  0  0  0  0
 31 39  1  0  0  0  0
 31 32  2  0  0  0  0
 40 41  1  0  0  0  0
 41 49  1  0  0  0  0
 41 42  2  0  0  0  0
 50 53  1  0  0  0  0
 30 33  1  0  0  0  0
 59 60  1  0  0  0  0
 17 18  1  0  0  0  0
  8 11  1  0  0  0  0
 11 12  1  0  0  0  0
 40 43  1  0  0  0  0
 43 44  1  0  0  0  0
 49 50  1  0  0  0  0
  7  8  1  0  0  0  0
 29 30  1  0  0  0  0
 39 40  1  0  0  0  0
 12 44  1  0  0  0  0
  3  4  1  0  0  0  0
  3  5  1  0  0  0  0
  3  6  1  0  0  0  0
 25 26  1  0  0  0  0
 25 27  1  0  0  0  0
 25 28  1  0  0  0  0
 53 56  1  0  0  0  0
 53 57  1  0  0  0  0
 53 58  1  0  0  0  0
 33 36  1  0  0  0  0
 33 37  1  0  0  0  0
 33 38  1  0  0  0  0
 60 62  1  0  0  0  0
 60 63  1  0  0  0  0
 60 64  1  0  0  0  0
 18 20  1  0  0  0  0
 18 21  1  0  0  0  0
 18 22  1  0  0  0  0
 11 15  1  0  0  0  0
 11 16  1  0  0  0  0
 43 47  1  0  0  0  0
 43 48  1  0  0  0  0
 50 55  1  0  0  0  0
  8 14  1  0  0  0  0
 30 35  1  0  0  0  0
 40 46  1  0  0  0  0
 59 61  1  0  0  0  0
 17 19  1  0  0  0  0
  7 13  1  0  0  0  0
 29 34  1  0  0  0  0
 49 54  1  0  0  0  0
 39 45  1  0  0  0  0
M  END
$$$$

  -OEChem-05262214473D

 64 63  0     1  0  0  0  0  0999 V2000
   -3.0498    1.1566    6.8171 C   0  0  0  0  0  0  0  0  0  0  0  0
   -4.2157    0.8894    6.5507 O   0  0  0  0  0  0  0  0  0  0  0  0
   -2.7461    2.0628    7.9638 C   0  0  0  0  0  0  0  0  0  0  0  0
   -2.7006    3.1216    7.6623 H   0  0  0  0  0  0  0  0  0  0  0  0
   -3.5154    2.0170    8.7512 H   0  0  0  0  0  0  0  0  0  0  0  0
   -1.7922    1.8671    8.4793 H   0  0  0  0  0  0  0  0  0  0  0  0
   -1.9298    0.6931    6.1487 N   0  0  0  0  0  0  0  0  0  0  0  0
   -1.9959   -0.1936    5.0147 C   0  0  2  0  0  0  0  0  0  0  0  0
   -0.8003   -1.1430    5.0591 C   0  0  0  0  0  0  0  0  0  0  0  0
    0.1064   -1.0400    5.8829 O   0  0  0  0  0  0  0  0  0  0  0  0
   -2.1214    0.5629    3.6900 C   0  0  0  0  0  0  0  0  0  0  0  0
   -0.6875    1.6225    3.3107 S   0  0  0  0  0  0  0  0  0  0  0  0
   -1.0139    0.9937    6.4744 H   0  0  0  0  0  0  0  0  0  0  0  0
   -2.9016   -0.7947    5.1631 H   0  0  0  0  0  0  0  0  0  0  0  0
   -2.2403   -0.1377    2.8571 H   0  0  0  0  0  0  0  0  0  0  0  0
   -3.0079    1.2059    3.7101 H   0  0  0  0  0  0  0  0  0  0  0  0
   -0.8533   -2.1010    4.0566 N   0  0  0  0  0  0  0  0  0  0  0  0
    0.1764   -3.0974    3.8760 C   0  0  0  0  0  0  0  0  0  0  0  0
   -1.6630   -2.1399    3.4446 H   0  0  0  0  0  0  0  0  0  0  0  0
    0.9200   -2.7303    3.1533 H   0  0  0  0  0  0  0  0  0  0  0  0
    0.6685   -3.2949    4.8399 H   0  0  0  0  0  0  0  0  0  0  0  0
   -0.2748   -4.0265    3.4976 H   0  0  0  0  0  0  0  0  0  0  0  0
   -6.7256    2.0330   -0.2766 C   0  0  0  0  0  0  0  0  0  0  0  0
   -7.1824    1.1039   -0.9322 O   0  0  0  0  0  0  0  0  0  0  0  0
   -7.5276    2.6077    0.8435 C   0  0  0  0  0  0  0  0  0  0  0  0
   -8.1775    3.4344    0.5145 H   0  0  0  0  0  0  0  0  0  0  0  0
   -8.2057    1.8676    1.2980 H   0  0  0  0  0  0  0  0  0  0  0  0
   -6.9411    3.0162    1.6819 H   0  0  0  0  0  0  0  0  0  0  0  0
   -5.4935    2.6382   -0.4627 N   0  0  0  0  0  0  0  0  0  0  0  0
   -4.5619    2.2388   -1.4845 C   0  0  2  0  0  0  0  0  0  0  0  0
   -3.1535    2.4674   -0.9521 C   0  0  0  0  0  0  0  0  0  0  0  0
   -2.8634    3.3945   -0.1987 O   0  0  0  0  0  0  0  0  0  0  0  0
   -4.7883    3.0138   -2.7732 C   0  0  0  0  0  0  0  0  0  0  0  0
   -5.2337    3.4049    0.1551 H   0  0  0  0  0  0  0  0  0  0  0  0
   -4.7192    1.1682   -1.6549 H   0  0  0  0  0  0  0  0  0  0  0  0
   -4.6352    4.0886   -2.6221 H   0  0  0  0  0  0  0  0  0  0  0  0
   -4.0976    2.6887   -3.5582 H   0  0  0  0  0  0  0  0  0  0  0  0
   -5.8111    2.8719   -3.1387 H   0  0  0  0  0  0  0  0  0  0  0  0
   -2.2466    1.5400   -1.4507 N   0  0  0  0  0  0  0  0  0  0  0  0
   -0.8424    1.5707   -1.1286 C   0  0  2  0  0  0  0  0  0  0  0  0
   -0.0902    0.6745   -2.1102 C   0  0  0  0  0  0  0  0  0  0  0  0
    0.5891   -0.2864   -1.7542 O   0  0  0  0  0  0  0  0  0  0  0  0
   -0.5734    1.2246    0.3380 C   0  0  0  0  0  0  0  0  0  0  0  0
   -1.2472    2.4297    1.5069 S   0  0  0  0  0  0  0  0  0  0  0  0
   -2.5850    0.7815   -2.0381 H   0  0  0  0  0  0  0  0  0  0  0  0
   -0.5209    2.6038   -1.3103 H   0  0  0  0  0  0  0  0  0  0  0  0
   -1.0043    0.2496    0.5881 H   0  0  0  0  0  0  0  0  0  0  0  0
    0.5058    1.1640    0.5152 H   0  0  0  0  0  0  0  0  0  0  0  0
   -0.2468    1.0889   -3.4252 N   0  0  0  0  0  0  0  0  0  0  0  0
    0.3879    0.4166   -4.5347 C   0  0  2  0  0  0  0  0  0  0  0  0
    0.7026    1.4597   -5.5989 C   0  0  0  0  0  0  0  0  0  0  0  0
   -0.0125    2.4363   -5.8132 O   0  0  0  0  0  0  0  0  0  0  0  0
   -0.5000   -0.6827   -5.0968 C   0  0  0  0  0  0  0  0  0  0  0  0
   -0.8625    1.8694   -3.6335 H   0  0  0  0  0  0  0  0  0  0  0  0
    1.3220   -0.0103   -4.1534 H   0  0  0  0  0  0  0  0  0  0  0  0
   -1.4406   -0.2741   -5.4837 H   0  0  0  0  0  0  0  0  0  0  0  0
   -0.0057   -1.2102   -5.9193 H   0  0  0  0  0  0  0  0  0  0  0  0
   -0.7497   -1.4160   -4.3225 H   0  0  0  0  0  0  0  0  0  0  0  0
    1.8530    1.1487   -6.3104 N   0  0  0  0  0  0  0  0  0  0  0  0
    2.3384    1.9611   -7.4014 C   0  0  0  0  0  0  0  0  0  0  0  0
    2.4057    0.3411   -6.0384 H   0  0  0  0  0  0  0  0  0  0  0  0
    1.9342    1.5803   -8.3509 H   0  0  0  0  0  0  0  0  0  0  0  0
    2.0137    3.0020   -7.2560 H   0  0  0  0  0  0  0  0  0  0  0  0
    3.4373    1.9202   -7.4282 H   0  0  0  0  0  0  0  0  0  0  0  0
  1  3  1  0  0  0  0
  1  7  1  0  0  0  0
  1  2  2  0  0  0  0
 23 25  1  0  0  0  0
 23 29  1  0  0  0  0
 23 24  2  0  0  0  0
 50 51  1  0  0  0  0
 51 59  1  0  0  0  0
 51 52  2  0  0  0  0
  8  9  1  0  0  0  0
  9 17  1  0  0  0  0
  9 10  2  0  0  0  0
 30 31  1  0  0  0  0
 31 39  1  0  0  0  0
 31 32  2  0  0  0  0
 40 41  1  0  0  0  0
 41 49  1  0  0  0  0
 41 42  2  0  0  0  0
 50 53  1  0  0  0  0
 30 33  1  0  0  0  0
 59 60  1  0  0  0  0
 17 18  1  0  0  0  0
  8 11  1  0  0  0  0
 11 12  1  0  0  0  0
 40 43  1  0  0  0  0
 43 44  1  0  0  0  0
 49 50  1  0  0  0  0
  7  8  1  0  0  0  0
 29 30  1  0  0  0  0
 39 40  1  0  0  0  0
 12 44  1  0  0  0  0
  3  4  1  0  0  0  0
  3  5  1  0  0  0  0
  3  6  1  0  0  0  0
 25 26  1  0  0  0  0
 25 27  1  0  0  0  0
 25 28  1  0  0  0  0
 53 56  1  0  0  0  0
 53 57  1  0  0  0  0
 53 58  1  0  0  0  0
 33 36  1  0  0  0  0
 33 37  1  0  0  0  0
 33 38  1  0  0  0  0
 60 62  1  0  0  0  0
 60 63  1  0  0  0  0
 60 64  1  0  0  0  0
 18 20  1  0  0  0  0
 18 21  1  0  0  0  0
 18 22  1  0  0  0  0
 11 15  1  0  0  0  0
 11 16  1  0  0  0  0
 43 47  1  0  0  0  0
 43 48  1  0  0  0  0
 50 55  1  0  0  0  0
  8 14  1  0  0  0  0
 30 35  1  0  0  0  0
 40 46  1  0  0  0  0
 59 61  1  0  0  0  0
 17 19  1  0  0  0  0
  7 13  1  0  0  0  0
 29 34  1  0  0  0  0
 49 54  1  0  0  0  0
 39 45  1  0  0  0  0
M  END
$$$$

  -OEChem-05262214473D

 64 63  0     1  0  0  0  0  0999 V2000
   -3.0498    1.1566    6.8171 C   0  0  0  0  0  0  0  0  0  0  0  0
   -4.2157    0.8894    6.5507 O   0  0  0  0  0  0  0  0  0  0  0  0
   -2.7461    2.0628    7.9638 C   0  0  0  0  0  0  0  0  0  0  0  0
   -2.7006    3.1216    7.6623 H   0  0  0  0  0  0  0  0  0  0  0  0
   -3.5154    2.0170    8.7512 H   0  0  0  0  0  0  0  0  0  0  0  0
   -1.7922    1.8671    8.4793 H   0  0  0  0  0  0  0  0  0  0  0  0
   -1.9298    0.6931    6.1487 N   0  0  0  0  0  0  0  0  0  0  0  0
   -1.9959   -0.1936    5.0147 C   0  0  2  0  0  0  0  0  0  0  0  0
   -0.8003   -1.1430    5.0591 C   0  0  0  0  0  0  0  0  0  0  0  0
    0.1064   -1.0400    5.8829 O   0  0  0  0  0  0  0  0  0  0  0  0
   -2.1214    0.5629    3.6900 C   0  0  0  0  0  0  0  0  0  0  0  0
   -0.6875    1.6225    3.3107 S   0  0  0  0  0  0  0  0  0  0  0  0
   -1.0139    0.9937    6.4744 H   0  0  0  0  0  0  0  0  0  0  0  0
   -2.9016   -0.7947    5.1631 H   0  0  0  0  0  0  0  0  0  0  0  0
   -2.2403   -0.1377    2.8571 H   0  0  0  0  0  0  0  0  0  0  0  0
   -3.0079    1.2059    3.7101 H   0  0  0  0  0  0  0  0  0  0  0  0
   -0.8533   -2.1010    4.0566 N   0  0  0  0  0  0  0  0  0  0  0  0
    0.1764   -3.0974    3.8760 C   0  0  0  0  0  0  0  0  0  0  0  0
   -1.6630   -2.1399    3.4446 H   0  0  0  0  0  0  0  0  0  0  0  0
    0.9200   -2.7303    3.1533 H   0  0  0  0  0  0  0  0  0  0  0  0
    0.6685   -3.2949    4.8399 H   0  0  0  0  0  0  0  0  0  0  0  0
   -0.2748   -4.0265    3.4976 H   0  0  0  0  0  0  0  0  0  0  0  0
   -6.7256    2.0330   -0.2766 C   0  0  0  0  0  0  0  0  0  0  0  0
   -7.1824    1.1039   -0.9322 O   0  0  0  0  0  0  0  0  0  0  0  0
   -7.5276    2.6077    0.8435 C   0  0  0  0  0  0  0  0  0  0  0  0
   -8.1775    3.4344    0.5145 H   0  0  0  0  0  0  0  0  0  0  0  0
   -8.2057    1.8676    1.2980 H   0  0  0  0  0  0  0  0  0  0  0  0
   -6.9411    3.0162    1.6819 H   0  0  0  0  0  0  0  0  0  0  0  0
   -5.4935    2.6382   -0.4627 N   0  0  0  0  0  0  0  0  0  0  0  0
   -4.5619    2.2388   -1.4845 C   0  0  2  0  0  0  0  0  0  0  0  0
   -3.1535    2.4674   -0.9521 C   0  0  0  0  0  0  0  0  0  0  0  0
   -2.8634    3.3945   -0.1987 O   0  0  0  0  0  0  0  0  0  0  0  0
   -4.7883    3.0138   -2.7732 C   0  0  0  0  0  0  0  0  0  0  0  0
   -5.2337    3.4049    0.1551 H   0  0  0  0  0  0  0  0  0  0  0  0
   -4.7192    1.1682   -1.6549 H   0  0  0  0  0  0  0  0  0  0  0  0
   -4.6352    4.0886   -2.6221 H   0  0  0  0  0  0  0  0  0  0  0  0
   -4.0976    2.6887   -3.5582 H   0  0  0  0  0  0  0  0  0  0  0  0
   -5.8111    2.8719   -3.1387 H   0  0  0  0  0  0  0  0  0  0  0  0
   -2.2466    1.5400   -1.4507 N   0  0  0  0  0  0  0  0  0  0  0  0
   -0.8424    1.5707   -1.1286 C   0  0  2  0  0  0  0  0  0  0  0  0
   -0.0902    0.6745   -2.1102 C   0  0  0  0  0  0  0  0  0  0  0  0
    0.3633   -0.4254   -1.8004 O   0  0  0  0  0  0  0  0  0  0  0  0
   -0.5734    1.2246    0.3380 C   0  0  0  0  0  0  0  0  0  0  0  0
   -1.2472    2.4297    1.5069 S   0  0  0  0  0  0  0  0  0  0  0  0
   -2.5850    0.7815   -2.0381 H   0  0  0  0  0  0  0  0  0  0  0  0
   -0.5209    2.6038   -1.3103 H   0  0  0  0  0  0  0  0  0  0  0  0
   -1.0043    0.2496    0.5881 H   0  0  0  0  0  0  0  0  0  0  0  0
    0.5058    1.1640    0.5152 H   0  0  0  0  0  0  0  0  0  0  0  0
    0.0360    1.2580   -3.3629 N   0  0  0  0  0  0  0  0  0  0  0  0
    0.7296    0.6161   -4.4550 C   0  0  2  0  0  0  0  0  0  0  0  0
    1.3725    1.7023   -5.3071 C   0  0  0  0  0  0  0  0  0  0  0  0
    0.8635    2.8077   -5.4809 O   0  0  0  0  0  0  0  0  0  0  0  0
   -0.2160   -0.2378   -5.2853 C   0  0  0  0  0  0  0  0  0  0  0  0
   -0.4077    2.1534   -3.5443 H   0  0  0  0  0  0  0  0  0  0  0  0
    1.5107   -0.0096   -4.0094 H   0  0  0  0  0  0  0  0  0  0  0  0
   -1.0055    0.3718   -5.7398 H   0  0  0  0  0  0  0  0  0  0  0  0
    0.3167   -0.7463   -6.0957 H   0  0  0  0  0  0  0  0  0  0  0  0
   -0.7000   -0.9995   -4.6647 H   0  0  0  0  0  0  0  0  0  0  0  0
    2.5603    1.2772   -5.8857 N   0  0  0  0  0  0  0  0  0  0  0  0
    3.3378    2.1110   -6.7724 C   0  0  0  0  0  0  0  0  0  0  0  0
    2.9281    0.3591   -5.6545 H   0  0  0  0  0  0  0  0  0  0  0  0
    3.0388    1.9187   -7.8134 H   0  0  0  0  0  0  0  0  0  0  0  0
    3.1607    3.1692   -6.5297 H   0  0  0  0  0  0  0  0  0  0  0  0
    4.4063    1.8804   -6.6493 H   0  0  0  0  0  0  0  0  0  0  0  0
  1  3  1  0  0  0  0
  1  7  1  0  0  0  0
  1  2  2  0  0  0  0
 23 25  1  0  0  0  0
 23 29  1  0  0  0  0
 23 24  2  0  0  0  0
 50 51  1  0  0  0  0
 51 59  1  0  0  0  0
 51 52  2  0  0  0  0
  8  9  1  0  0  0  0
  9 17  1  0  0  0  0
  9 10  2  0  0  0  0
 30 31  1  0  0  0  0
 31 39  1  0  0  0  0
 31 32  2  0  0  0  0
 40 41  1  0  0  0  0
 41 49  1  0  0  0  0
 41 42  2  0  0  0  0
 50 53  1  0  0  0  0
 30 33  1  0  0  0  0
 59 60  1  0  0  0  0
 17 18  1  0  0  0  0
  8 11  1  0  0  0  0
 11 12  1  0  0  0  0
 40 43  1  0  0  0  0
 43 44  1  0  0  0  0
 49 50  1  0  0  0  0
  7  8  1  0  0  0  0
 29 30  1  0  0  0  0
 39 40  1  0  0  0  0
 12 44  1  0  0  0  0
  3  4  1  0  0  0  0
  3  5  1  0  0  0  0
  3  6  1  0  0  0  0
 25 26  1  0  0  0  0
 25 27  1  0  0  0  0
 25 28  1  0  0  0  0
 53 56  1  0  0  0  0
 53 57  1  0  0  0  0
 53 58  1  0  0  0  0
 33 36  1  0  0  0  0
 33 37  1  0  0  0  0
 33 38  1  0  0  0  0
 60 62  1  0  0  0  0
 60 63  1  0  0  0  0
 60 64  1  0  0  0  0
 18 20  1  0  0  0  0
 18 21  1  0  0  0  0
 18 22  1  0  0  0  0
 11 15  1  0  0  0  0
 11 16  1  0  0  0  0
 43 47  1  0  0  0  0
 43 48  1  0  0  0  0
 50 55  1  0  0  0  0
  8 14  1  0  0  0  0
 30 35  1  0  0  0  0
 40 46  1  0  0  0  0
 59 61  1  0  0  0  0
 17 19  1  0  0  0  0
  7 13  1  0  0  0  0
 29 34  1  0  0  0  0
 49 54  1  0  0  0  0
 39 45  1  0  0  0  0
M  END
$$$$

  -OEChem-05262214473D

 64 63  0     1  0  0  0  0  0999 V2000
   -3.0498    1.1566    6.8171 C   0  0  0  0  0  0  0  0  0  0  0  0
   -4.2157    0.8894    6.5507 O   0  0  0  0  0  0  0  0  0  0  0  0
   -2.7461    2.0628    7.9638 C   0  0  0  0  0  0  0  0  0  0  0  0
   -2.7006    3.1216    7.6623 H   0  0  0  0  0  0  0  0  0  0  0  0
   -3.5154    2.0170    8.7512 H   0  0  0  0  0  0  0  0  0  0  0  0
   -1.7922    1.8671    8.4793 H   0  0  0  0  0  0  0  0  0  0  0  0
   -1.9298    0.6931    6.1487 N   0  0  0  0  0  0  0  0  0  0  0  0
   -1.9959   -0.1936    5.0147 C   0  0  2  0  0  0  0  0  0  0  0  0
   -0.8003   -1.1430    5.0591 C   0  0  0  0  0  0  0  0  0  0  0  0
    0.1064   -1.0400    5.8829 O   0  0  0  0  0  0  0  0  0  0  0  0
   -2.1214    0.5629    3.6900 C   0  0  0  0  0  0  0  0  0  0  0  0
   -0.6875    1.6225    3.3107 S   0  0  0  0  0  0  0  0  0  0  0  0
   -1.0139    0.9937    6.4744 H   0  0  0  0  0  0  0  0  0  0  0  0
   -2.9016   -0.7947    5.1631 H   0  0  0  0  0  0  0  0  0  0  0  0
   -2.2403   -0.1377    2.8571 H   0  0  0  0  0  0  0  0  0  0  0  0
   -3.0079    1.2059    3.7101 H   0  0  0  0  0  0  0  0  0  0  0  0
   -0.8533   -2.1010    4.0566 N   0  0  0  0  0  0  0  0  0  0  0  0
    0.1764   -3.0974    3.8760 C   0  0  0  0  0  0  0  0  0  0  0  0
   -1.6630   -2.1399    3.4446 H   0  0  0  0  0  0  0  0  0  0  0  0
    0.9200   -2.7303    3.1533 H   0  0  0  0  0  0  0  0  0  0  0  0
    0.6685   -3.2949    4.8399 H   0  0  0  0  0  0  0  0  0  0  0  0
   -0.2748   -4.0265    3.4976 H   0  0  0  0  0  0  0  0  0  0  0  0
   -6.7256    2.0330   -0.2766 C   0  0  0  0  0  0  0  0  0  0  0  0
   -7.1824    1.1039   -0.9322 O   0  0  0  0  0  0  0  0  0  0  0  0
   -7.5276    2.6077    0.8435 C   0  0  0  0  0  0  0  0  0  0  0  0
   -8.1775    3.4344    0.5145 H   0  0  0  0  0  0  0  0  0  0  0  0
   -8.2057    1.8676    1.2980 H   0  0  0  0  0  0  0  0  0  0  0  0
   -6.9411    3.0162    1.6819 H   0  0  0  0  0  0  0  0  0  0  0  0
   -5.4935    2.6382   -0.4627 N   0  0  0  0  0  0  0  0  0  0  0  0
   -4.5619    2.2388   -1.4845 C   0  0  2  0  0  0  0  0  0  0  0  0
   -3.1535    2.4674   -0.9521 C   0  0  0  0  0  0  0  0  0  0  0  0
   -2.8634    3.3945   -0.1987 O   0  0  0  0  0  0  0  0  0  0  0  0
   -4.7883    3.0138   -2.7732 C   0  0  0  0  0  0  0  0  0  0  0  0
   -5.2337    3.4049    0.1551 H   0  0  0  0  0  0  0  0  0  0  0  0
   -4.7192    1.1682   -1.6549 H   0  0  0  0  0  0  0  0  0  0  0  0
   -4.6352    4.0886   -2.6221 H   0  0  0  0  0  0  0  0  0  0  0  0
   -4.0976    2.6887   -3.5582 H   0  0  0  0  0  0  0  0  0  0  0  0
   -5.8111    2.8719   -3.1387 H   0  0  0  0  0  0  0  0  0  0  0  0
   -2.2466    1.5400   -1.4507 N   0  0  0  0  0  0  0  0  0  0  0  0
   -0.8424    1.5707   -1.1286 C   0  0  2  0  0  0  0  0  0  0  0  0
   -0.0902    0.6745   -2.1102 C   0  0  0  0  0  0  0  0  0  0  0  0
    0.1290   -0.5163   -1.8970 O   0  0  0  0  0  0  0  0  0  0  0  0
   -0.5734    1.2246    0.3380 C   0  0  0  0  0  0  0  0  0  0  0  0
   -1.2472    2.4297    1.5069 S   0  0  0  0  0  0  0  0  0  0  0  0
   -2.5850    0.7815   -2.0381 H   0  0  0  0  0  0  0  0  0  0  0  0
   -0.5209    2.6038   -1.3103 H   0  0  0  0  0  0  0  0  0  0  0  0
   -1.0043    0.2496    0.5881 H   0  0  0  0  0  0  0  0  0  0  0  0
    0.5058    1.1640    0.5152 H   0  0  0  0  0  0  0  0  0  0  0  0
    0.3279    1.3663   -3.2381 N   0  0  0  0  0  0  0  0  0  0  0  0
    1.0807    0.7417   -4.3006 C   0  0  2  0  0  0  0  0  0  0  0  0
    2.0156    1.7881   -4.8926 C   0  0  0  0  0  0  0  0  0  0  0  0
    1.7211    2.9784   -4.9796 O   0  0  0  0  0  0  0  0  0  0  0  0
    0.1610    0.1687   -5.3676 C   0  0  0  0  0  0  0  0  0  0  0  0
    0.0652    2.3407   -3.3529 H   0  0  0  0  0  0  0  0  0  0  0  0
    1.6713   -0.0586   -3.8416 H   0  0  0  0  0  0  0  0  0  0  0  0
   -0.4389    0.9559   -5.8389 H   0  0  0  0  0  0  0  0  0  0  0  0
    0.7322   -0.3294   -6.1580 H   0  0  0  0  0  0  0  0  0  0  0  0
   -0.5307   -0.5619   -4.9345 H   0  0  0  0  0  0  0  0  0  0  0  0
    3.2003    1.2295   -5.3516 N   0  0  0  0  0  0  0  0  0  0  0  0
    4.2325    2.0094   -5.9939 C   0  0  0  0  0  0  0  0  0  0  0  0
    3.3774    0.2406   -5.2021 H   0  0  0  0  0  0  0  0  0  0  0  0
    4.0805    1.9934   -7.0833 H   0  0  0  0  0  0  0  0  0  0  0  0
    4.1861    3.0473   -5.6326 H   0  0  0  0  0  0  0  0  0  0  0  0
    5.2173    1.5816   -5.7549 H   0  0  0  0  0  0  0  0  0  0  0  0
  1  3  1  0  0  0  0
  1  7  1  0  0  0  0
  1  2  2  0  0  0  0
 23 25  1  0  0  0  0
 23 29  1  0  0  0  0
 23 24  2  0  0  0  0
 50 51  1  0  0  0  0
 51 59  1  0  0  0  0
 51 52  2  0  0  0  0
  8  9  1  0  0  0  0
  9 17  1  0  0  0  0
  9 10  2  0  0  0  0
 30 31  1  0  0  0  0
 31 39  1  0  0  0  0
 31 32  2  0  0  0  0
 40 41  1  0  0  0  0
 41 49  1  0  0  0  0
 41 42  2  0  0  0  0
 50 53  1  0  0  0  0
 30 33  1  0  0  0  0
 59 60  1  0  0  0  0
 17 18  1  0  0  0  0
  8 11  1  0  0  0  0
 11 12  1  0  0  0  0
 40 43  1  0  0  0  0
 43 44  1  0  0  0  0
 49 50  1  0  0  0  0
  7  8  1  0  0  0  0
 29 30  1  0  0  0  0
 39 40  1  0  0  0  0
 12 44  1  0  0  0  0
  3  4  1  0  0  0  0
  3  5  1  0  0  0  0
  3  6  1  0  0  0  0
 25 26  1  0  0  0  0
 25 27  1  0  0  0  0
 25 28  1  0  0  0  0
 53 56  1  0  0  0  0
 53 57  1  0  0  0  0
 53 58  1  0  0  0  0
 33 36  1  0  0  0  0
 33 37  1  0  0  0  0
 33 38  1  0  0  0  0
 60 62  1  0  0  0  0
 60 63  1  0  0  0  0
 60 64  1  0  0  0  0
 18 20  1  0  0  0  0
 18 21  1  0  0  0  0
 18 22  1  0  0  0  0
 11 15  1  0  0  0  0
 11 16  1  0  0  0  0
 43 47  1  0  0  0  0
 43 48  1  0  0  0  0
 50 55  1  0  0  0  0
  8 14  1  0  0  0  0
 30 35  1  0  0  0  0
 40 46  1  0  0  0  0
 59 61  1  0  0  0  0
 17 19  1  0  0  0  0
  7 13  1  0  0  0  0
 29 34  1  0  0  0  0
 49 54  1  0  0  0  0
 39 45  1  0  0  0  0
M  END
$$$$

  -OEChem-05262214473D

 64 63  0     1  0  0  0  0  0999 V2000
   -3.0498    1.1566    6.8171 C   0  0  0  0  0  0  0  0  0  0  0  0
   -4.2157    0.8894    6.5507 O   0  0  0  0  0  0  0  0  0  0  0  0
   -2.7461    2.0628    7.9638 C   0  0  0  0  0  0  0  0  0  0  0  0
   -2.7006    3.1216    7.6623 H   0  0  0  0  0  0  0  0  0  0  0  0
   -3.5154    2.0170    8.7512 H   0  0  0  0  0  0  0  0  0  0  0  0
   -1.7922    1.8671    8.4793 H   0  0  0  0  0  0  0  0  0  0  0  0
   -1.9298    0.6931    6.1487 N   0  0  0  0  0  0  0  0  0  0  0  0
   -1.9959   -0.1936    5.0147 C   0  0  2  0  0  0  0  0  0  0  0  0
   -0.8003   -1.1430    5.0591 C   0  0  0  0  0  0  0  0  0  0  0  0
    0.1064   -1.0400    5.8829 O   0  0  0  0  0  0  0  0  0  0  0  0
   -2.1214    0.5629    3.6900 C   0  0  0  0  0  0  0  0  0  0  0  0
   -0.6875    1.6225    3.3107 S   0  0  0  0  0  0  0  0  0  0  0  0
   -1.0139    0.9937    6.4744 H   0  0  0  0  0  0  0  0  0  0  0  0
   -2.9016   -0.7947    5.1631 H   0  0  0  0  0  0  0  0  0  0  0  0
   -2.2403   -0.1377    2.8571 H   0  0  0  0  0  0  0  0  0  0  0  0
   -3.0079    1.2059    3.7101 H   0  0  0  0  0  0  0  0  0  0  0  0
   -0.8533   -2.1010    4.0566 N   0  0  0  0  0  0  0  0  0  0  0  0
    0.1764   -3.0974    3.8760 C   0  0  0  0  0  0  0  0  0  0  0  0
   -1.6630   -2.1399    3.4446 H   0  0  0  0  0  0  0  0  0  0  0  0
    0.9200   -2.7303    3.1533 H   0  0  0  0  0  0  0  0  0  0  0  0
    0.6685   -3.2949    4.8399 H   0  0  0  0  0  0  0  0  0  0  0  0
   -0.2748   -4.0265    3.4976 H   0  0  0  0  0  0  0  0  0  0  0  0
   -6.7256    2.0330   -0.2766 C   0  0  0  0  0  0  0  0  0  0  0  0
   -7.1824    1.1039   -0.9322 O   0  0  0  0  0  0  0  0  0  0  0  0
   -7.5276    2.6077    0.8435 C   0  0  0  0  0  0  0  0  0  0  0  0
   -8.1775    3.4344    0.5145 H   0  0  0  0  0  0  0  0  0  0  0  0
   -8.2057    1.8676    1.2980 H   0  0  0  0  0  0  0  0  0  0  0  0
   -6.9411    3.0162    1.6819 H   0  0  0  0  0  0  0  0  0  0  0  0
   -5.4935    2.6382   -0.4627 N   0  0  0  0  0  0  0  0  0  0  0  0
   -4.5619    2.2388   -1.4845 C   0  0  2  0  0  0  0  0  0  0  0  0
   -3.1535    2.4674   -0.9521 C   0  0  0  0  0  0  0  0  0  0  0  0
   -2.8634    3.3945   -0.1987 O   0  0  0  0  0  0  0  0  0  0  0  0
   -4.7883    3.0138   -2.7732 C   0  0  0  0  0  0  0  0  0  0  0  0
   -5.2337    3.4049    0.1551 H   0  0  0  0  0  0  0  0  0  0  0  0
   -4.7192    1.1682   -1.6549 H   0  0  0  0  0  0  0  0  0  0  0  0
   -4.6352    4.0886   -2.6221 H   0  0  0  0  0  0  0  0  0  0  0  0
   -4.0976    2.6887   -3.5582 H   0  0  0  0  0  0  0  0  0  0  0  0
   -5.8111    2.8719   -3.1387 H   0  0  0  0  0  0  0  0  0  0  0  0
   -2.2466    1.5400   -1.4507 N   0  0  0  0  0  0  0  0  0  0  0  0
   -0.8424    1.5707   -1.1286 C   0  0  2  0  0  0  0  0  0  0  0  0
   -0.0902    0.6745   -2.1102 C   0  0  0  0  0  0  0  0  0  0  0  0
   -0.0977   -0.5527   -2.0374 O   0  0  0  0  0  0  0  0  0  0  0  0
   -0.5734    1.2246    0.3380 C   0  0  0  0  0  0  0  0  0  0  0  0
   -1.2472    2.4297    1.5069 S   0  0  0  0  0  0  0  0  0  0  0  0
   -2.5850    0.7815   -2.0381 H   0  0  0  0  0  0  0  0  0  0  0  0
   -0.5209    2.6038   -1.3103 H   0  0  0  0  0  0  0  0  0  0  0  0
   -1.0043    0.2496    0.5881 H   0  0  0  0  0  0  0  0  0  0  0  0
    0.5058    1.1640    0.5152 H   0  0  0  0  0  0  0  0  0  0  0  0
    0.6088    1.4065   -3.0595 N   0  0  0  0  0  0  0  0  0  0  0  0
    1.4173    0.7850   -4.0822 C   0  0  2  0  0  0  0  0  0  0  0  0
    2.5882    1.7111   -4.3836 C   0  0  0  0  0  0  0  0  0  0  0  0
    2.5016    2.9367   -4.3434 O   0  0  0  0  0  0  0  0  0  0  0  0
    0.6052    0.5092   -5.3380 C   0  0  0  0  0  0  0  0  0  0  0  0
    0.5241    2.4186   -3.0723 H   0  0  0  0  0  0  0  0  0  0  0  0
    1.7927   -0.1542   -3.6613 H   0  0  0  0  0  0  0  0  0  0  0  0
    0.2207    1.4384   -5.7740 H   0  0  0  0  0  0  0  0  0  0  0  0
    1.2122    0.0121   -6.1019 H   0  0  0  0  0  0  0  0  0  0  0  0
   -0.2534   -0.1329   -5.1137 H   0  0  0  0  0  0  0  0  0  0  0  0
    3.7295    1.0089   -4.7447 N   0  0  0  0  0  0  0  0  0  0  0  0
    4.9615    1.6631   -5.1191 C   0  0  0  0  0  0  0  0  0  0  0  0
    3.7229   -0.0063   -4.7119 H   0  0  0  0  0  0  0  0  0  0  0  0
    4.9882    1.7991   -6.2103 H   0  0  0  0  0  0  0  0  0  0  0  0
    5.0200    2.6446   -4.6258 H   0  0  0  0  0  0  0  0  0  0  0  0
    5.8151    1.0439   -4.8059 H   0  0  0  0  0  0  0  0  0  0  0  0
  1  3  1  0  0  0  0
  1  7  1  0  0  0  0
  1  2  2  0  0  0  0
 23 25  1  0  0  0  0
 23 29  1  0  0  0  0
 23 24  2  0  0  0  0
 50 51  1  0  0  0  0
 51 59  1  0  0  0  0
 51 52  2  0  0  0  0
  8  9  1  0  0  0  0
  9 17  1  0  0  0  0
  9 10  2  0  0  0  0
 30 31  1  0  0  0  0
 31 39  1  0  0  0  0
 31 32  2  0  0  0  0
 40 41  1  0  0  0  0
 41 49  1  0  0  0  0
 41 42  2  0  0  0  0
 50 53  1  0  0  0  0
 30 33  1  0  0  0  0
 59 60  1  0  0  0  0
 17 18  1  0  0  0  0
  8 11  1  0  0  0  0
 11 12  1  0  0  0  0
 40 43  1  0  0  0  0
 43 44  1  0  0  0  0
 49 50  1  0  0  0  0
  7  8  1  0  0  0  0
 29 30  1  0  0  0  0
 39 40  1  0  0  0  0
 12 44  1  0  0  0  0
  3  4  1  0  0  0  0
  3  5  1  0  0  0  0
  3  6  1  0  0  0  0
 25 26  1  0  0  0  0
 25 27  1  0  0  0  0
 25 28  1  0  0  0  0
 53 56  1  0  0  0  0
 53 57  1  0  0  0  0
 53 58  1  0  0  0  0
 33 36  1  0  0  0  0
 33 37  1  0  0  0  0
 33 38  1  0  0  0  0
 60 62  1  0  0  0  0
 60 63  1  0  0  0  0
 60 64  1  0  0  0  0
 18 20  1  0  0  0  0
 18 21  1  0  0  0  0
 18 22  1  0  0  0  0
 11 15  1  0  0  0  0
 11 16  1  0  0  0  0
 43 47  1  0  0  0  0
 43 48  1  0  0  0  0
 50 55  1  0  0  0  0
  8 14  1  0  0  0  0
 30 35  1  0  0  0  0
 40 46  1  0  0  0  0
 59 61  1  0  0  0  0
 17 19  1  0  0  0  0
  7 13  1  0  0  0  0
 29 34  1  0  0  0  0
 49 54  1  0  0  0  0
 39 45  1  0  0  0  0
M  END
$$$$

  -OEChem-05262214473D

 64 63  0     1  0  0  0  0  0999 V2000
   -3.0498    1.1566    6.8171 C   0  0  0  0  0  0  0  0  0  0  0  0
   -4.2157    0.8894    6.5507 O   0  0  0  0  0  0  0  0  0  0  0  0
   -2.7461    2.0628    7.9638 C   0  0  0  0  0  0  0  0  0  0  0  0
   -2.7006    3.1216    7.6623 H   0  0  0  0  0  0  0  0  0  0  0  0
   -3.5154    2.0170    8.7512 H   0  0  0  0  0  0  0  0  0  0  0  0
   -1.7922    1.8671    8.4793 H   0  0  0  0  0  0  0  0  0  0  0  0
   -1.9298    0.6931    6.1487 N   0  0  0  0  0  0  0  0  0  0  0  0
   -1.9959   -0.1936    5.0147 C   0  0  2  0  0  0  0  0  0  0  0  0
   -0.8003   -1.1430    5.0591 C   0  0  0  0  0  0  0  0  0  0  0  0
    0.1064   -1.0400    5.8829 O   0  0  0  0  0  0  0  0  0  0  0  0
   -2.1214    0.5629    3.6900 C   0  0  0  0  0  0  0  0  0  0  0  0
   -0.6875    1.6225    3.3107 S   0  0  0  0  0  0  0  0  0  0  0  0
   -1.0139    0.9937    6.4744 H   0  0  0  0  0  0  0  0  0  0  0  0
   -2.9016   -0.7947    5.1631 H   0  0  0  0  0  0  0  0  0  0  0  0
   -2.2403   -0.1377    2.8571 H   0  0  0  0  0  0  0  0  0  0  0  0
   -3.0079    1.2059    3.7101 H   0  0  0  0  0  0  0  0  0  0  0  0
   -0.8533   -2.1010    4.0566 N   0  0  0  0  0  0  0  0  0  0  0  0
    0.1764   -3.0974    3.8760 C   0  0  0  0  0  0  0  0  0  0  0  0
   -1.6630   -2.1399    3.4446 H   0  0  0  0  0  0  0  0  0  0  0  0
    0.9200   -2.7303    3.1533 H   0  0  0  0  0  0  0  0  0  0  0  0
    0.6685   -3.2949    4.8399 H   0  0  0  0  0  0  0  0  0  0  0  0
   -0.2748   -4.0265    3.4976 H   0  0  0  0  0  0  0  0  0  0  0  0
   -6.7256    2.0330   -0.2766 C   0  0  0  0  0  0  0  0  0  0  0  0
   -7.1824    1.1039   -0.9322 O   0  0  0  0  0  0  0  0  0  0  0  0
   -7.5276    2.6077    0.8435 C   0  0  0  0  0  0  0  0  0  0  0  0
   -8.1775    3.4344    0.5145 H   0  0  0  0  0  0  0  0  0  0  0  0
   -8.2057    1.8676    1.2980 H   0  0  0  0  0  0  0  0  0  0  0  0
   -6.9411    3.0162    1.6819 H   0  0  0  0  0  0  0  0  0  0  0  0
   -5.4935    2.6382   -0.4627 N   0  0  0  0  0  0  0  0  0  0  0  0
   -4.5619    2.2388   -1.4845 C   0  0  2  0  0  0  0  0  0  0  0  0
   -3.1535    2.4674   -0.9521 C   0  0  0  0  0  0  0  0  0  0  0  0
   -2.8634    3.3945   -0.1987 O   0  0  0  0  0  0  0  0  0  0  0  0
   -4.7883    3.0138   -2.7732 C   0  0  0  0  0  0  0  0  0  0  0  0
   -5.2337    3.4049    0.1551 H   0  0  0  0  0  0  0  0  0  0  0  0
   -4.7192    1.1682   -1.6549 H   0  0  0  0  0  0  0  0  0  0  0  0
   -4.6352    4.0886   -2.6221 H   0  0  0  0  0  0  0  0  0  0  0  0
   -4.0976    2.6887   -3.5582 H   0  0  0  0  0  0  0  0  0  0  0  0
   -5.8111    2.8719   -3.1387 H   0  0  0  0  0  0  0  0  0  0  0  0
   -2.2466    1.5400   -1.4507 N   0  0  0  0  0  0  0  0  0  0  0  0
   -0.8424    1.5707   -1.1286 C   0  0  2  0  0  0  0  0  0  0  0  0
   -0.0902    0.6745   -2.1102 C   0  0  0  0  0  0  0  0  0  0  0  0
   -0.3014   -0.5323   -2.2121 O   0  0  0  0  0  0  0  0  0  0  0  0
   -0.5734    1.2246    0.3380 C   0  0  0  0  0  0  0  0  0  0  0  0
   -1.2472    2.4297    1.5069 S   0  0  0  0  0  0  0  0  0  0  0  0
   -2.5850    0.7815   -2.0381 H   0  0  0  0  0  0  0  0  0  0  0  0
   -0.5209    2.6038   -1.3103 H   0  0  0  0  0  0  0  0  0  0  0  0
   -1.0043    0.2496    0.5881 H   0  0  0  0  0  0  0  0  0  0  0  0
    0.5058    1.1640    0.5152 H   0  0  0  0  0  0  0  0  0  0  0  0
    0.8597    1.3758   -2.8392 N   0  0  0  0  0  0  0  0  0  0  0  0
    1.7165    0.7429   -3.8146 C   0  0  2  0  0  0  0  0  0  0  0  0
    3.0511    1.4767   -3.8147 C   0  0  0  0  0  0  0  0  0  0  0  0
    3.1520    2.6855   -3.6156 O   0  0  0  0  0  0  0  0  0  0  0  0
    1.0864    0.7603   -5.1986 C   0  0  0  0  0  0  0  0  0  0  0  0
    0.9377    2.3817   -2.7217 H   0  0  0  0  0  0  0  0  0  0  0  0
    1.8667   -0.2896   -3.4809 H   0  0  0  0  0  0  0  0  0  0  0  0
    0.9282    1.7866   -5.5497 H   0  0  0  0  0  0  0  0  0  0  0  0
    1.7242    0.2550   -5.9312 H   0  0  0  0  0  0  0  0  0  0  0  0
    0.1130    0.2582   -5.1900 H   0  0  0  0  0  0  0  0  0  0  0  0
    4.1118    0.6304   -4.1062 N   0  0  0  0  0  0  0  0  0  0  0  0
    5.4753    1.0958   -4.2074 C   0  0  0  0  0  0  0  0  0  0  0  0
    3.9411   -0.3647   -4.2174 H   0  0  0  0  0  0  0  0  0  0  0  0
    5.7000    1.3492   -5.2540 H   0  0  0  0  0  0  0  0  0  0  0  0
    5.6056    1.9885   -3.5781 H   0  0  0  0  0  0  0  0  0  0  0  0
    6.1590    0.3042   -3.8670 H   0  0  0  0  0  0  0  0  0  0  0  0
  1  3  1  0  0  0  0
  1  7  1  0  0  0  0
  1  2  2  0  0  0  0
 23 25  1  0  0  0  0
 23 29  1  0  0  0  0
 23 24  2  0  0  0  0
 50 51  1  0  0  0  0
 51 59  1  0  0  0  0
 51 52  2  0  0  0  0
  8  9  1  0  0  0  0
  9 17  1  0  0  0  0
  9 10  2  0  0  0  0
 30 31  1  0  0  0  0
 31 39  1  0  0  0  0
 31 32  2  0  0  0  0
 40 41  1  0  0  0  0
 41 49  1  0  0  0  0
 41 42  2  0  0  0  0
 50 53  1  0  0  0  0
 30 33  1  0  0  0  0
 59 60  1  0  0  0  0
 17 18  1  0  0  0  0
  8 11  1  0  0  0  0
 11 12  1  0  0  0  0
 40 43  1  0  0  0  0
 43 44  1  0  0  0  0
 49 50  1  0  0  0  0
  7  8  1  0  0  0  0
 29 30  1  0  0  0  0
 39 40  1  0  0  0  0
 12 44  1  0  0  0  0
  3  4  1  0  0  0  0
  3  5  1  0  0  0  0
  3  6  1  0  0  0  0
 25 26  1  0  0  0  0
 25 27  1  0  0  0  0
 25 28  1  0  0  0  0
 53 56  1  0  0  0  0
 53 57  1  0  0  0  0
 53 58  1  0  0  0  0
 33 36  1  0  0  0  0
 33 37  1  0  0  0  0
 33 38  1  0  0  0  0
 60 62  1  0  0  0  0
 60 63  1  0  0  0  0
 60 64  1  0  0  0  0
 18 20  1  0  0  0  0
 18 21  1  0  0  0  0
 18 22  1  0  0  0  0
 11 15  1  0  0  0  0
 11 16  1  0  0  0  0
 43 47  1  0  0  0  0
 43 48  1  0  0  0  0
 50 55  1  0  0  0  0
  8 14  1  0  0  0  0
 30 35  1  0  0  0  0
 40 46  1  0  0  0  0
 59 61  1  0  0  0  0
 17 19  1  0  0  0  0
  7 13  1  0  0  0  0
 29 34  1  0  0  0  0
 49 54  1  0  0  0  0
 39 45  1  0  0  0  0
M  END
$$$$

  -OEChem-05262214473D

 64 63  0     1  0  0  0  0  0999 V2000
   -3.0498    1.1566    6.8171 C   0  0  0  0  0  0  0  0  0  0  0  0
   -4.2157    0.8894    6.5507 O   0  0  0  0  0  0  0  0  0  0  0  0
   -2.7461    2.0628    7.9638 C   0  0  0  0  0  0  0  0  0  0  0  0
   -2.7006    3.1216    7.6623 H   0  0  0  0  0  0  0  0  0  0  0  0
   -3.5154    2.0170    8.7512 H   0  0  0  0  0  0  0  0  0  0  0  0
   -1.7922    1.8671    8.4793 H   0  0  0  0  0  0  0  0  0  0  0  0
   -1.9298    0.6931    6.1487 N   0  0  0  0  0  0  0  0  0  0  0  0
   -1.9959   -0.1936    5.0147 C   0  0  2  0  0  0  0  0  0  0  0  0
   -0.8003   -1.1430    5.0591 C   0  0  0  0  0  0  0  0  0  0  0  0
    0.1064   -1.0400    5.8829 O   0  0  0  0  0  0  0  0  0  0  0  0
   -2.1214    0.5629    3.6900 C   0  0  0  0  0  0  0  0  0  0  0  0
   -0.6875    1.6225    3.3107 S   0  0  0  0  0  0  0  0  0  0  0  0
   -1.0139    0.9937    6.4744 H   0  0  0  0  0  0  0  0  0  0  0  0
   -2.9016   -0.7947    5.1631 H   0  0  0  0  0  0  0  0  0  0  0  0
   -2.2403   -0.1377    2.8571 H   0  0  0  0  0  0  0  0  0  0  0  0
   -3.0079    1.2059    3.7101 H   0  0  0  0  0  0  0  0  0  0  0  0
   -0.8533   -2.1010    4.0566 N   0  0  0  0  0  0  0  0  0  0  0  0
    0.1764   -3.0974    3.8760 C   0  0  0  0  0  0  0  0  0  0  0  0
   -1.6630   -2.1399    3.4446 H   0  0  0  0  0  0  0  0  0  0  0  0
    0.9200   -2.7303    3.1533 H   0  0  0  0  0  0  0  0  0  0  0  0
    0.6685   -3.2949    4.8399 H   0  0  0  0  0  0  0  0  0  0  0  0
   -0.2748   -4.0265    3.4976 H   0  0  0  0  0  0  0  0  0  0  0  0
   -6.7256    2.0330   -0.2766 C   0  0  0  0  0  0  0  0  0  0  0  0
   -7.1824    1.1039   -0.9322 O   0  0  0  0  0  0  0  0  0  0  0  0
   -7.5276    2.6077    0.8435 C   0  0  0  0  0  0  0  0  0  0  0  0
   -8.1775    3.4344    0.5145 H   0  0  0  0  0  0  0  0  0  0  0  0
   -8.2057    1.8676    1.2980 H   0  0  0  0  0  0  0  0  0  0  0  0
   -6.9411    3.0162    1.6819 H   0  0  0  0  0  0  0  0  0  0  0  0
   -5.4935    2.6382   -0.4627 N   0  0  0  0  0  0  0  0  0  0  0  0
   -4.5619    2.2388   -1.4845 C   0  0  2  0  0  0  0  0  0  0  0  0
   -3.1535    2.4674   -0.9521 C   0  0  0  0  0  0  0  0  0  0  0  0
   -2.8634    3.3945   -0.1987 O   0  0  0  0  0  0  0  0  0  0  0  0
   -4.7883    3.0138   -2.7732 C   0  0  0  0  0  0  0  0  0  0  0  0
   -5.2337    3.4049    0.1551 H   0  0  0  0  0  0  0  0  0  0  0  0
   -4.7192    1.1682   -1.6549 H   0  0  0  0  0  0  0  0  0  0  0  0
   -4.6352    4.0886   -2.6221 H   0  0  0  0  0  0  0  0  0  0  0  0
   -4.0976    2.6887   -3.5582 H   0  0  0  0  0  0  0  0  0  0  0  0
   -5.8111    2.8719   -3.1387 H   0  0  0  0  0  0  0  0  0  0  0  0
   -2.2466    1.5400   -1.4507 N   0  0  0  0  0  0  0  0  0  0  0  0
   -0.8424    1.5707   -1.1286 C   0  0  2  0  0  0  0  0  0  0  0  0
   -0.0902    0.6745   -2.1102 C   0  0  0  0  0  0  0  0  0  0  0  0
   -0.4682   -0.4565   -2.4092 O   0  0  0  0  0  0  0  0  0  0  0  0
   -0.5734    1.2246    0.3380 C   0  0  0  0  0  0  0  0  0  0  0  0
   -1.2472    2.4297    1.5069 S   0  0  0  0  0  0  0  0  0  0  0  0
   -2.5850    0.7815   -2.0381 H   0  0  0  0  0  0  0  0  0  0  0  0
   -0.5209    2.6038   -1.3103 H   0  0  0  0  0  0  0  0  0  0  0  0
   -1.0043    0.2496    0.5881 H   0  0  0  0  0  0  0  0  0  0  0  0
    0.5058    1.1640    0.5152 H   0  0  0  0  0  0  0  0  0  0  0  0
    1.0636    1.2763   -2.5922 N   0  0  0  0  0  0  0  0  0  0  0  0
    1.9578    0.6185   -3.5160 C   0  0  2  0  0  0  0  0  0  0  0  0
    3.3728    1.1007   -3.2249 C   0  0  0  0  0  0  0  0  0  0  0  0
    3.6279    2.2419   -2.8459 O   0  0  0  0  0  0  0  0  0  0  0  0
    1.5718    0.9051   -4.9587 C   0  0  0  0  0  0  0  0  0  0  0  0
    1.2778    2.2325   -2.3249 H   0  0  0  0  0  0  0  0  0  0  0  0
    1.8883   -0.4557   -3.3127 H   0  0  0  0  0  0  0  0  0  0  0  0
    1.6354    1.9766   -5.1812 H   0  0  0  0  0  0  0  0  0  0  0  0
    2.2333    0.3827   -5.6577 H   0  0  0  0  0  0  0  0  0  0  0  0
    0.5435    0.5847   -5.1581 H   0  0  0  0  0  0  0  0  0  0  0  0
    4.3211    0.1199   -3.4796 N   0  0  0  0  0  0  0  0  0  0  0  0
    5.7387    0.3462   -3.3212 C   0  0  0  0  0  0  0  0  0  0  0  0
    4.0172   -0.8102   -3.7524 H   0  0  0  0  0  0  0  0  0  0  0  0
    6.1675    0.6743   -4.2795 H   0  0  0  0  0  0  0  0  0  0  0  0
    5.9030    1.1239   -2.5607 H   0  0  0  0  0  0  0  0  0  0  0  0
    6.2256   -0.5872   -3.0022 H   0  0  0  0  0  0  0  0  0  0  0  0
  1  3  1  0  0  0  0
  1  7  1  0  0  0  0
  1  2  2  0  0  0  0
 23 25  1  0  0  0  0
 23 29  1  0  0  0  0
 23 24  2  0  0  0  0
 50 51  1  0  0  0  0
 51 59  1  0  0  0  0
 51 52  2  0  0  0  0
  8  9  1  0  0  0  0
  9 17  1  0  0  0  0
  9 10  2  0  0  0  0
 30 31  1  0  0  0  0
 31 39  1  0  0  0  0
 31 32  2  0  0  0  0
 40 41  1  0  0  0  0
 41 49  1  0  0  0  0
 41 42  2  0  0  0  0
 50 53  1  0  0  0  0
 30 33  1  0  0  0  0
 59 60  1  0  0  0  0
 17 18  1  0  0  0  0
  8 11  1  0  0  0  0
 11 12  1  0  0  0  0
 40 43  1  0  0  0  0
 43 44  1  0  0  0  0
 49 50  1  0  0  0  0
  7  8  1  0  0  0  0
 29 30  1  0  0  0  0
 39 40  1  0  0  0  0
 12 44  1  0  0  0  0
  3  4  1  0  0  0  0
  3  5  1  0  0  0  0
  3  6  1  0  0  0  0
 25 26  1  0  0  0  0
 25 27  1  0  0  0  0
 25 28  1  0  0  0  0
 53 56  1  0  0  0  0
 53 57  1  0  0  0  0
 53 58  1  0  0  0  0
 33 36  1  0  0  0  0
 33 37  1  0  0  0  0
 33 38  1  0  0  0  0
 60 62  1  0  0  0  0
 60 63  1  0  0  0  0
 60 64  1  0  0  0  0
 18 20  1  0  0  0  0
 18 21  1  0  0  0  0
 18 22  1  0  0  0  0
 11 15  1  0  0  0  0
 11 16  1  0  0  0  0
 43 47  1  0  0  0  0
 43 48  1  0  0  0  0
 50 55  1  0  0  0  0
  8 14  1  0  0  0  0
 30 35  1  0  0  0  0
 40 46  1  0  0  0  0
 59 61  1  0  0  0  0
 17 19  1  0  0  0  0
  7 13  1  0  0  0  0
 29 34  1  0  0  0  0
 49 54  1  0  0  0  0
 39 45  1  0  0  0  0
M  END
$$$$

  -OEChem-05262214473D

 64 63  0     1  0  0  0  0  0999 V2000
   -3.0498    1.1566    6.8171 C   0  0  0  0  0  0  0  0  0  0  0  0
   -4.2157    0.8894    6.5507 O   0  0  0  0  0  0  0  0  0  0  0  0
   -2.7461    2.0628    7.9638 C   0  0  0  0  0  0  0  0  0  0  0  0
   -2.7006    3.1216    7.6623 H   0  0  0  0  0  0  0  0  0  0  0  0
   -3.5154    2.0170    8.7512 H   0  0  0  0  0  0  0  0  0  0  0  0
   -1.7922    1.8671    8.4793 H   0  0  0  0  0  0  0  0  0  0  0  0
   -1.9298    0.6931    6.1487 N   0  0  0  0  0  0  0  0  0  0  0  0
   -1.9959   -0.1936    5.0147 C   0  0  2  0  0  0  0  0  0  0  0  0
   -0.8003   -1.1430    5.0591 C   0  0  0  0  0  0  0  0  0  0  0  0
    0.1064   -1.0400    5.8829 O   0  0  0  0  0  0  0  0  0  0  0  0
   -2.1214    0.5629    3.6900 C   0  0  0  0  0  0  0  0  0  0  0  0
   -0.6875    1.6225    3.3107 S   0  0  0  0  0  0  0  0  0  0  0  0
   -1.0139    0.9937    6.4744 H   0  0  0  0  0  0  0  0  0  0  0  0
   -2.9016   -0.7947    5.1631 H   0  0  0  0  0  0  0  0  0  0  0  0
   -2.2403   -0.1377    2.8571 H   0  0  0  0  0  0  0  0  0  0  0  0
   -3.0079    1.2059    3.7101 H   0  0  0  0  0  0  0  0  0  0  0  0
   -0.8533   -2.1010    4.0566 N   0  0  0  0  0  0  0  0  0  0  0  0
    0.1764   -3.0974    3.8760 C   0  0  0  0  0  0  0  0  0  0  0  0
   -1.6630   -2.1399    3.4446 H   0  0  0  0  0  0  0  0  0  0  0  0
    0.9200   -2.7303    3.1533 H   0  0  0  0  0  0  0  0  0  0  0  0
    0.6685   -3.2949    4.8399 H   0  0  0  0  0  0  0  0  0  0  0  0
   -0.2748   -4.0265    3.4976 H   0  0  0  0  0  0  0  0  0  0  0  0
   -6.7256    2.0330   -0.2766 C   0  0  0  0  0  0  0  0  0  0  0  0
   -7.1824    1.1039   -0.9322 O   0  0  0  0  0  0  0  0  0  0  0  0
   -7.5276    2.6077    0.8435 C   0  0  0  0  0  0  0  0  0  0  0  0
   -8.1775    3.4344    0.5145 H   0  0  0  0  0  0  0  0  0  0  0  0
   -8.2057    1.8676    1.2980 H   0  0  0  0  0  0  0  0  0  0  0  0
   -6.9411    3.0162    1.6819 H   0  0  0  0  0  0  0  0  0  0  0  0
   -5.4935    2.6382   -0.4627 N   0  0  0  0  0  0  0  0  0  0  0  0
   -4.5619    2.2388   -1.4845 C   0  0  2  0  0  0  0  0  0  0  0  0
   -3.1535    2.4674   -0.9521 C   0  0  0  0  0  0  0  0  0  0  0  0
   -2.8634    3.3945   -0.1987 O   0  0  0  0  0  0  0  0  0  0  0  0
   -4.7883    3.0138   -2.7732 C   0  0  0  0  0  0  0  0  0  0  0  0
   -5.2337    3.4049    0.1551 H   0  0  0  0  0  0  0  0  0  0  0  0
   -4.7192    1.1682   -1.6549 H   0  0  0  0  0  0  0  0  0  0  0  0
   -4.6352    4.0886   -2.6221 H   0  0  0  0  0  0  0  0  0  0  0  0
   -4.0976    2.6887   -3.5582 H   0  0  0  0  0  0  0  0  0  0  0  0
   -5.8111    2.8719   -3.1387 H   0  0  0  0  0  0  0  0  0  0  0  0
   -2.2466    1.5400   -1.4507 N   0  0  0  0  0  0  0  0  0  0  0  0
   -0.8424    1.5707   -1.1286 C   0  0  2  0  0  0  0  0  0  0  0  0
   -0.0902    0.6745   -2.1102 C   0  0  0  0  0  0  0  0  0  0  0  0
   -0.5868   -0.3303   -2.6153 O   0  0  0  0  0  0  0  0  0  0  0  0
   -0.5734    1.2246    0.3380 C   0  0  0  0  0  0  0  0  0  0  0  0
   -1.2472    2.4297    1.5069 S   0  0  0  0  0  0  0  0  0  0  0  0
   -2.5850    0.7815   -2.0381 H   0  0  0  0  0  0  0  0  0  0  0  0
   -0.5209    2.6038   -1.3103 H   0  0  0  0  0  0  0  0  0  0  0  0
   -1.0043    0.2496    0.5881 H   0  0  0  0  0  0  0  0  0  0  0  0
    0.5058    1.1640    0.5152 H   0  0  0  0  0  0  0  0  0  0  0  0
    1.2064    1.1148   -2.3353 N   0  0  0  0  0  0  0  0  0  0  0  0
    2.1248    0.4200   -3.2068 C   0  0  2  0  0  0  0  0  0  0  0  0
    3.5314    0.6088   -2.6542 C   0  0  0  0  0  0  0  0  0  0  0  0
    3.8969    1.6361   -2.0867 O   0  0  0  0  0  0  0  0  0  0  0  0
    2.0284    0.9337   -4.6349 C   0  0  0  0  0  0  0  0  0  0  0  0
    1.5212    1.9813   -1.9089 H   0  0  0  0  0  0  0  0  0  0  0  0
    1.8560   -0.6412   -3.1681 H   0  0  0  0  0  0  0  0  0  0  0  0
    2.2942    1.9955   -4.6936 H   0  0  0  0  0  0  0  0  0  0  0  0
    2.7047    0.3865   -5.2999 H   0  0  0  0  0  0  0  0  0  0  0  0
    1.0089    0.8245   -5.0204 H   0  0  0  0  0  0  0  0  0  0  0  0
    4.3432   -0.4880   -2.9077 N   0  0  0  0  0  0  0  0  0  0  0  0
    5.7339   -0.5347   -2.5206 C   0  0  0  0  0  0  0  0  0  0  0  0
    3.9460   -1.3125   -3.3484 H   0  0  0  0  0  0  0  0  0  0  0  0
    6.3589   -0.1796   -3.3533 H   0  0  0  0  0  0  0  0  0  0  0  0
    5.8920    0.1095   -1.6431 H   0  0  0  0  0  0  0  0  0  0  0  0
    6.0102   -1.5696   -2.2703 H   0  0  0  0  0  0  0  0  0  0  0  0
  1  3  1  0  0  0  0
  1  7  1  0  0  0  0
  1  2  2  0  0  0  0
 23 25  1  0  0  0  0
 23 29  1  0  0  0  0
 23 24  2  0  0  0  0
 50 51  1  0  0  0  0
 51 59  1  0  0  0  0
 51 52  2  0  0  0  0
  8  9  1  0  0  0  0
  9 17  1  0  0  0  0
  9 10  2  0  0  0  0
 30 31  1  0  0  0  0
 31 39  1  0  0  0  0
 31 32  2  0  0  0  0
 40 41  1  0  0  0  0
 41 49  1  0  0  0  0
 41 42  2  0  0  0  0
 50 53  1  0  0  0  0
 30 33  1  0  0  0  0
 59 60  1  0  0  0  0
 17 18  1  0  0  0  0
  8 11  1  0  0  0  0
 11 12  1  0  0  0  0
 40 43  1  0  0  0  0
 43 44  1  0  0  0  0
 49 50  1  0  0  0  0
  7  8  1  0  0  0  0
 29 30  1  0  0  0  0
 39 40  1  0  0  0  0
 12 44  1  0  0  0  0
  3  4  1  0  0  0  0
  3  5  1  0  0  0  0
  3  6  1  0  0  0  0
 25 26  1  0  0  0  0
 25 27  1  0  0  0  0
 25 28  1  0  0  0  0
 53 56  1  0  0  0  0
 53 57  1  0  0  0  0
 53 58  1  0  0  0  0
 33 36  1  0  0  0  0
 33 37  1  0  0  0  0
 33 38  1  0  0  0  0
 60 62  1  0  0  0  0
 60 63  1  0  0  0  0
 60 64  1  0  0  0  0
 18 20  1  0  0  0  0
 18 21  1  0  0  0  0
 18 22  1  0  0  0  0
 11 15  1  0  0  0  0
 11 16  1  0  0  0  0
 43 47  1  0  0  0  0
 43 48  1  0  0  0  0
 50 55  1  0  0  0  0
  8 14  1  0  0  0  0
 30 35  1  0  0  0  0
 40 46  1  0  0  0  0
 59 61  1  0  0  0  0
 17 19  1  0  0  0  0
  7 13  1  0  0  0  0
 29 34  1  0  0  0  0
 49 54  1  0  0  0  0
 39 45  1  0  0  0  0
M  END
$$$$

  -OEChem-05262214473D

 64 63  0     1  0  0  0  0  0999 V2000
   -3.0498    1.1566    6.8171 C   0  0  0  0  0  0  0  0  0  0  0  0
   -4.2157    0.8894    6.5507 O   0  0  0  0  0  0  0  0  0  0  0  0
   -2.7461    2.0628    7.9638 C   0  0  0  0  0  0  0  0  0  0  0  0
   -2.7006    3.1216    7.6623 H   0  0  0  0  0  0  0  0  0  0  0  0
   -3.5154    2.0170    8.7512 H   0  0  0  0  0  0  0  0  0  0  0  0
   -1.7922    1.8671    8.4793 H   0  0  0  0  0  0  0  0  0  0  0  0
   -1.9298    0.6931    6.1487 N   0  0  0  0  0  0  0  0  0  0  0  0
   -1.9959   -0.1936    5.0147 C   0  0  2  0  0  0  0  0  0  0  0  0
   -0.8003   -1.1430    5.0591 C   0  0  0  0  0  0  0  0  0  0  0  0
    0.1064   -1.0400    5.8829 O   0  0  0  0  0  0  0  0  0  0  0  0
   -2.1214    0.5629    3.6900 C   0  0  0  0  0  0  0  0  0  0  0  0
   -0.6875    1.6225    3.3107 S   0  0  0  0  0  0  0  0  0  0  0  0
   -1.0139    0.9937    6.4744 H   0  0  0  0  0  0  0  0  0  0  0  0
   -2.9016   -0.7947    5.1631 H   0  0  0  0  0  0  0  0  0  0  0  0
   -2.2403   -0.1377    2.8571 H   0  0  0  0  0  0  0  0  0  0  0  0
   -3.0079    1.2059    3.7101 H   0  0  0  0  0  0  0  0  0  0  0  0
   -0.8533   -2.1010    4.0566 N   0  0  0  0  0  0  0  0  0  0  0  0
    0.1764   -3.0974    3.8760 C   0  0  0  0  0  0  0  0  0  0  0  0
   -1.6630   -2.1399    3.4446 H   0  0  0  0  0  0  0  0  0  0  0  0
    0.9200   -2.7303    3.1533 H   0  0  0  0  0  0  0  0  0  0  0  0
    0.6685   -3.2949    4.8399 H   0  0  0  0  0  0  0  0  0  0  0  0
   -0.2748   -4.0265    3.4976 H   0  0  0  0  0  0  0  0  0  0  0  0
   -6.7256    2.0330   -0.2766 C   0  0  0  0  0  0  0  0  0  0  0  0
   -7.1824    1.1039   -0.9322 O   0  0  0  0  0  0  0  0  0  0  0  0
   -7.5276    2.6077    0.8435 C   0  0  0  0  0  0  0  0  0  0  0  0
   -8.1775    3.4344    0.5145 H   0  0  0  0  0  0  0  0  0  0  0  0
   -8.2057    1.8676    1.2980 H   0  0  0  0  0  0  0  0  0  0  0  0
   -6.9411    3.0162    1.6819 H   0  0  0  0  0  0  0  0  0  0  0  0
   -5.4935    2.6382   -0.4627 N   0  0  0  0  0  0  0  0  0  0  0  0
   -4.5619    2.2388   -1.4845 C   0  0  2  0  0  0  0  0  0  0  0  0
   -3.1535    2.4674   -0.9521 C   0  0  0  0  0  0  0  0  0  0  0  0
   -2.8634    3.3945   -0.1987 O   0  0  0  0  0  0  0  0  0  0  0  0
   -4.7883    3.0138   -2.7732 C   0  0  0  0  0  0  0  0  0  0  0  0
   -5.2337    3.4049    0.1551 H   0  0  0  0  0  0  0  0  0  0  0  0
   -4.7192    1.1682   -1.6549 H   0  0  0  0  0  0  0  0  0  0  0  0
   -4.6352    4.0886   -2.6221 H   0  0  0  0  0  0  0  0  0  0  0  0
   -4.0976    2.6887   -3.5582 H   0  0  0  0  0  0  0  0  0  0  0  0
   -5.8111    2.8719   -3.1387 H   0  0  0  0  0  0  0  0  0  0  0  0
   -2.2466    1.5400   -1.4507 N   0  0  0  0  0  0  0  0  0  0  0  0
   -0.8424    1.5707   -1.1286 C   0  0  2  0  0  0  0  0  0  0  0  0
   -0.0902    0.6745   -2.1102 C   0  0  0  0  0  0  0  0  0  0  0  0
   -0.6491   -0.1624   -2.8163 O   0  0  0  0  0  0  0  0  0  0  0  0
   -0.5734    1.2246    0.3380 C   0  0  0  0  0  0  0  0  0  0  0  0
   -1.2472    2.4297    1.5069 S   0  0  0  0  0  0  0  0  0  0  0  0
   -2.5850    0.7815   -2.0381 H   0  0  0  0  0  0  0  0  0  0  0  0
   -0.5209    2.6038   -1.3103 H   0  0  0  0  0  0  0  0  0  0  0  0
   -1.0043    0.2496    0.5881 H   0  0  0  0  0  0  0  0  0  0  0  0
    0.5058    1.1640    0.5152 H   0  0  0  0  0  0  0  0  0  0  0  0
    1.2784    0.9024   -2.0861 N   0  0  0  0  0  0  0  0  0  0  0  0
    2.2062    0.1611   -2.9081 C   0  0  2  0  0  0  0  0  0  0  0  0
    3.5162    0.0345   -2.1416 C   0  0  0  0  0  0  0  0  0  0  0  0
    3.9407    0.9094   -1.3897 O   0  0  0  0  0  0  0  0  0  0  0  0
    2.4249    0.8440   -4.2492 C   0  0  0  0  0  0  0  0  0  0  0  0
    1.6514    1.6451   -1.5022 H   0  0  0  0  0  0  0  0  0  0  0  0
    1.7719   -0.8335   -3.0570 H   0  0  0  0  0  0  0  0  0  0  0  0
    2.8596    1.8420   -4.1202 H   0  0  0  0  0  0  0  0  0  0  0  0
    3.1063    0.2661   -4.8822 H   0  0  0  0  0  0  0  0  0  0  0  0
    1.4774    0.9611   -4.7861 H   0  0  0  0  0  0  0  0  0  0  0  0
    4.1766   -1.1518   -2.4294 N   0  0  0  0  0  0  0  0  0  0  0  0
    5.4611   -1.4868   -1.8604 C   0  0  0  0  0  0  0  0  0  0  0  0
    3.7323   -1.8373   -3.0330 H   0  0  0  0  0  0  0  0  0  0  0  0
    6.2610   -1.1543   -2.5384 H   0  0  0  0  0  0  0  0  0  0  0  0
    5.5732   -0.9854   -0.8877 H   0  0  0  0  0  0  0  0  0  0  0  0
    5.5276   -2.5759   -1.7214 H   0  0  0  0  0  0  0  0  0  0  0  0
  1  3  1  0  0  0  0
  1  7  1  0  0  0  0
  1  2  2  0  0  0  0
 23 25  1  0  0  0  0
 23 29  1  0  0  0  0
 23 24  2  0  0  0  0
 50 51  1  0  0  0  0
 51 59  1  0  0  0  0
 51 52  2  0  0  0  0
  8  9  1  0  0  0  0
  9 17  1  0  0  0  0
  9 10  2  0  0  0  0
 30 31  1  0  0  0  0
 31 39  1  0  0  0  0
 31 32  2  0  0  0  0
 40 41  1  0  0  0  0
 41 49  1  0  0  0  0
 41 42  2  0  0  0  0
 50 53  1  0  0  0  0
 30 33  1  0  0  0  0
 59 60  1  0  0  0  0
 17 18  1  0  0  0  0
  8 11  1  0  0  0  0
 11 12  1  0  0  0  0
 40 43  1  0  0  0  0
 43 44  1  0  0  0  0
 49 50  1  0  0  0  0
  7  8  1  0  0  0  0
 29 30  1  0  0  0  0
 39 40  1  0  0  0  0
 12 44  1  0  0  0  0
  3  4  1  0  0  0  0
  3  5  1  0  0  0  0
  3  6  1  0  0  0  0
 25 26  1  0  0  0  0
 25 27  1  0  0  0  0
 25 28  1  0  0  0  0
 53 56  1  0  0  0  0
 53 57  1  0  0  0  0
 53 58  1  0  0  0  0
 33 36  1  0  0  0  0
 33 37  1  0  0  0  0
 33 38  1  0  0  0  0
 60 62  1  0  0  0  0
 60 63  1  0  0  0  0
 60 64  1  0  0  0  0
 18 20  1  0  0  0  0
 18 21  1  0  0  0  0
 18 22  1  0  0  0  0
 11 15  1  0  0  0  0
 11 16  1  0  0  0  0
 43 47  1  0  0  0  0
 43 48  1  0  0  0  0
 50 55  1  0  0  0  0
  8 14  1  0  0  0  0
 30 35  1  0  0  0  0
 40 46  1  0  0  0  0
 59 61  1  0  0  0  0
 17 19  1  0  0  0  0
  7 13  1  0  0  0  0
 29 34  1  0  0  0  0
 49 54  1  0  0  0  0
 39 45  1  0  0  0  0
M  END
$$$$

  -OEChem-05262214473D

 64 63  0     1  0  0  0  0  0999 V2000
   -2.9196   -0.9613    6.4512 C   0  0  0  0  0  0  0  0  0  0  0  0
   -4.0717   -1.2205    6.1237 O   0  0  0  0  0  0  0  0  0  0  0  0
   -2.6533   -0.3572    7.7900 C   0  0  0  0  0  0  0  0  0  0  0  0
   -2.6724    0.7443    7.7656 H   0  0  0  0  0  0  0  0  0  0  0  0
   -3.4086   -0.6449    8.5389 H   0  0  0  0  0  0  0  0  0  0  0  0
   -1.6832   -0.6202    8.2412 H   0  0  0  0  0  0  0  0  0  0  0  0
   -1.7837   -1.1749    5.6896 N   0  0  0  0  0  0  0  0  0  0  0  0
   -1.8136   -1.7495    4.3684 C   0  0  2  0  0  0  0  0  0  0  0  0
   -0.5652   -2.6077    4.1740 C   0  0  0  0  0  0  0  0  0  0  0  0
    0.3447   -2.6627    4.9989 O   0  0  0  0  0  0  0  0  0  0  0  0
   -1.9992   -0.6922    3.2773 C   0  0  0  0  0  0  0  0  0  0  0  0
   -0.6333    0.5109    3.1803 S   0  0  0  0  0  0  0  0  0  0  0  0
   -0.8822   -0.9130    6.0823 H   0  0  0  0  0  0  0  0  0  0  0  0
   -2.6815   -2.4206    4.3585 H   0  0  0  0  0  0  0  0  0  0  0  0
   -2.0887   -1.1659    2.2943 H   0  0  0  0  0  0  0  0  0  0  0  0
   -2.9208   -0.1281    3.4573 H   0  0  0  0  0  0  0  0  0  0  0  0
   -0.5763   -3.2835    2.9621 N   0  0  0  0  0  0  0  0  0  0  0  0
    0.5062   -4.1402    2.5379 C   0  0  0  0  0  0  0  0  0  0  0  0
   -1.3903   -3.2142    2.3585 H   0  0  0  0  0  0  0  0  0  0  0  0
    1.2182   -3.5598    1.9326 H   0  0  0  0  0  0  0  0  0  0  0  0
    1.0212   -4.5450    3.4216 H   0  0  0  0  0  0  0  0  0  0  0  0
    0.1039   -4.9686    1.9364 H   0  0  0  0  0  0  0  0  0  0  0  0
   -6.7256    2.0330   -0.2766 C   0  0  0  0  0  0  0  0  0  0  0  0
   -7.1824    1.1039   -0.9322 O   0  0  0  0  0  0  0  0  0  0  0  0
   -7.5276    2.6077    0.8435 C   0  0  0  0  0  0  0  0  0  0  0  0
   -8.1775    3.4344    0.5145 H   0  0  0  0  0  0  0  0  0  0  0  0
   -8.2057    1.8676    1.2980 H   0  0  0  0  0  0  0  0  0  0  0  0
   -6.9411    3.0162    1.6819 H   0  0  0  0  0  0  0  0  0  0  0  0
   -5.4935    2.6382   -0.4627 N   0  0  0  0  0  0  0  0  0  0  0  0
   -4.5619    2.2388   -1.4845 C   0  0  2  0  0  0  0  0  0  0  0  0
   -3.1535    2.4674   -0.9521 C   0  0  0  0  0  0  0  0  0  0  0  0
   -2.8634    3.3945   -0.1987 O   0  0  0  0  0  0  0  0  0  0  0  0
   -4.7883    3.0138   -2.7732 C   0  0  0  0  0  0  0  0  0  0  0  0
   -5.2337    3.4049    0.1551 H   0  0  0  0  0  0  0  0  0  0  0  0
   -4.7192    1.1682   -1.6549 H   0  0  0  0  0  0  0  0  0  0  0  0
   -4.6352    4.0886   -2.6221 H   0  0  0  0  0  0  0  0  0  0  0  0
   -4.0976    2.6887   -3.5582 H   0  0  0  0  0  0  0  0  0  0  0  0
   -5.8111    2.8719   -3.1387 H   0  0  0  0  0  0  0  0  0  0  0  0
   -2.2466    1.5400   -1.4507 N   0  0  0  0  0  0  0  0  0  0  0  0
   -0.8424    1.5707   -1.1286 C   0  0  2  0  0  0  0  0  0  0  0  0
   -0.0529    0.9965   -2.3032 C   0  0  0  0  0  0  0  0  0  0  0  0
   -0.5876    0.5705   -3.3249 O   0  0  0  0  0  0  0  0  0  0  0  0
   -0.5351    0.8825    0.2037 C   0  0  0  0  0  0  0  0  0  0  0  0
   -1.2615    1.7125    1.6376 S   0  0  0  0  0  0  0  0  0  0  0  0
   -2.5850    0.7815   -2.0381 H   0  0  0  0  0  0  0  0  0  0  0  0
   -0.5829    2.6332   -1.0431 H   0  0  0  0  0  0  0  0  0  0  0  0
   -0.9063   -0.1476    0.1988 H   0  0  0  0  0  0  0  0  0  0  0  0
    0.5480    0.8426    0.3619 H   0  0  0  0  0  0  0  0  0  0  0  0
    1.3142    0.9933   -2.0652 N   0  0  0  0  0  0  0  0  0  0  0  0
    2.2694    0.4767   -3.0173 C   0  0  2  0  0  0  0  0  0  0  0  0
    3.4363   -0.1159   -2.2384 C   0  0  0  0  0  0  0  0  0  0  0  0
    3.8359    0.3482   -1.1725 O   0  0  0  0  0  0  0  0  0  0  0  0
    2.7465    1.5637   -3.9679 C   0  0  0  0  0  0  0  0  0  0  0  0
    1.6736    1.4054   -1.2093 H   0  0  0  0  0  0  0  0  0  0  0  0
    1.7616   -0.3172   -3.5757 H   0  0  0  0  0  0  0  0  0  0  0  0
    3.2578    2.3680   -3.4264 H   0  0  0  0  0  0  0  0  0  0  0  0
    3.4488    1.1642   -4.7069 H   0  0  0  0  0  0  0  0  0  0  0  0
    1.9025    2.0092   -4.5055 H   0  0  0  0  0  0  0  0  0  0  0  0
    4.0064   -1.1976   -2.8949 N   0  0  0  0  0  0  0  0  0  0  0  0
    5.1553   -1.9051   -2.3797 C   0  0  0  0  0  0  0  0  0  0  0  0
    3.5854   -1.5392   -3.7538 H   0  0  0  0  0  0  0  0  0  0  0  0
    6.0737   -1.4698   -2.8004 H   0  0  0  0  0  0  0  0  0  0  0  0
    5.1775   -1.8187   -1.2833 H   0  0  0  0  0  0  0  0  0  0  0  0
    5.0895   -2.9661   -2.6626 H   0  0  0  0  0  0  0  0  0  0  0  0
  1  3  1  0  0  0  0
  1  7  1  0  0  0  0
  1  2  2  0  0  0  0
 23 25  1  0  0  0  0
 23 29  1  0  0  0  0
 23 24  2  0  0  0  0
 50 51  1  0  0  0  0
 51 59  1  0  0  0  0
 51 52  2  0  0  0  0
  8  9  1  0  0  0  0
  9 17  1  0  0  0  0
  9 10  2  0  0  0  0
 30 31  1  0  0  0  0
 31 39  1  0  0  0  0
 31 32  2  0  0  0  0
 40 41  1  0  0  0  0
 41 49  1  0  0  0  0
 41 42  2  0  0  0  0
 50 53  1  0  0  0  0
 30 33  1  0  0  0  0
 59 60  1  0  0  0  0
 17 18  1  0  0  0  0
  8 11  1  0  0  0  0
 11 12  1  0  0  0  0
 40 43  1  0  0  0  0
 43 44  1  0  0  0  0
 49 50  1  0  0  0  0
  7  8  1  0  0  0  0
 29 30  1  0  0  0  0
 39 40  1  0  0  0  0
 12 44  1  0  0  0  0
  3  4  1  0  0  0  0
  3  5  1  0  0  0  0
  3  6  1  0  0  0  0
 25 26  1  0  0  0  0
 25 27  1  0  0  0  0
 25 28  1  0  0  0  0
 53 56  1  0  0  0  0
 53 57  1  0  0  0  0
 53 58  1  0  0  0  0
 33 36  1  0  0  0  0
 33 37  1  0  0  0  0
 33 38  1  0  0  0  0
 60 62  1  0  0  0  0
 60 63  1  0  0  0  0
 60 64  1  0  0  0  0
 18 20  1  0  0  0  0
 18 21  1  0  0  0  0
 18 22  1  0  0  0  0
 11 15  1  0  0  0  0
 11 16  1  0  0  0  0
 43 47  1  0  0  0  0
 43 48  1  0  0  0  0
 50 55  1  0  0  0  0
  8 14  1  0  0  0  0
 30 35  1  0  0  0  0
 40 46  1  0  0  0  0
 59 61  1  0  0  0  0
 17 19  1  0  0  0  0
  7 13  1  0  0  0  0
 29 34  1  0  0  0  0
 49 54  1  0  0  0  0
 39 45  1  0  0  0  0
M  END
$$$$

  -OEChem-05262214473D

 64 63  0     1  0  0  0  0  0999 V2000
   -2.9196   -0.9613    6.4512 C   0  0  0  0  0  0  0  0  0  0  0  0
   -4.0717   -1.2205    6.1237 O   0  0  0  0  0  0  0  0  0  0  0  0
   -2.6533   -0.3572    7.7900 C   0  0  0  0  0  0  0  0  0  0  0  0
   -2.6724    0.7443    7.7656 H   0  0  0  0  0  0  0  0  0  0  0  0
   -3.4086   -0.6449    8.5389 H   0  0  0  0  0  0  0  0  0  0  0  0
   -1.6832   -0.6202    8.2412 H   0  0  0  0  0  0  0  0  0  0  0  0
   -1.7837   -1.1749    5.6896 N   0  0  0  0  0  0  0  0  0  0  0  0
   -1.8136   -1.7495    4.3684 C   0  0  2  0  0  0  0  0  0  0  0  0
   -0.5652   -2.6077    4.1740 C   0  0  0  0  0  0  0  0  0  0  0  0
    0.3447   -2.6627    4.9989 O   0  0  0  0  0  0  0  0  0  0  0  0
   -1.9992   -0.6922    3.2773 C   0  0  0  0  0  0  0  0  0  0  0  0
   -0.6333    0.5109    3.1803 S   0  0  0  0  0  0  0  0  0  0  0  0
   -0.8822   -0.9130    6.0823 H   0  0  0  0  0  0  0  0  0  0  0  0
   -2.6815   -2.4206    4.3585 H   0  0  0  0  0  0  0  0  0  0  0  0
   -2.0887   -1.1659    2.2943 H   0  0  0  0  0  0  0  0  0  0  0  0
   -2.9208   -0.1281    3.4573 H   0  0  0  0  0  0  0  0  0  0  0  0
   -0.5763   -3.2835    2.9621 N   0  0  0  0  0  0  0  0  0  0  0  0
    0.5062   -4.1402    2.5379 C   0  0  0  0  0  0  0  0  0  0  0  0
   -1.3903   -3.2142    2.3585 H   0  0  0  0  0  0  0  0  0  0  0  0
    1.2182   -3.5598    1.9326 H   0  0  0  0  0  0  0  0  0  0  0  0
    1.0212   -4.5450    3.4216 H   0  0  0  0  0  0  0  0  0  0  0  0
    0.1039   -4.9686    1.9364 H   0  0  0  0  0  0  0  0  0  0  0  0
   -6.7256    2.0330   -0.2766 C   0  0  0  0  0  0  0  0  0  0  0  0
   -7.1824    1.1039   -0.9322 O   0  0  0  0  0  0  0  0  0  0  0  0
   -7.5276    2.6077    0.8435 C   0  0  0  0  0  0  0  0  0  0  0  0
   -8.1775    3.4344    0.5145 H   0  0  0  0  0  0  0  0  0  0  0  0
   -8.2057    1.8676    1.2980 H   0  0  0  0  0  0  0  0  0  0  0  0
   -6.9411    3.0162    1.6819 H   0  0  0  0  0  0  0  0  0  0  0  0
   -5.4935    2.6382   -0.4627 N   0  0  0  0  0  0  0  0  0  0  0  0
   -4.5619    2.2388   -1.4845 C   0  0  2  0  0  0  0  0  0  0  0  0
   -3.1535    2.4674   -0.9521 C   0  0  0  0  0  0  0  0  0  0  0  0
   -2.8634    3.3945   -0.1987 O   0  0  0  0  0  0  0  0  0  0  0  0
   -4.7883    3.0138   -2.7732 C   0  0  0  0  0  0  0  0  0  0  0  0
   -5.2337    3.4049    0.1551 H   0  0  0  0  0  0  0  0  0  0  0  0
   -4.7192    1.1682   -1.6549 H   0  0  0  0  0  0  0  0  0  0  0  0
   -4.6352    4.0886   -2.6221 H   0  0  0  0  0  0  0  0  0  0  0  0
   -4.0976    2.6887   -3.5582 H   0  0  0  0  0  0  0  0  0  0  0  0
   -5.8111    2.8719   -3.1387 H   0  0  0  0  0  0  0  0  0  0  0  0
   -2.2466    1.5400   -1.4507 N   0  0  0  0  0  0  0  0  0  0  0  0
   -0.8424    1.5707   -1.1286 C   0  0  2  0  0  0  0  0  0  0  0  0
   -0.0529    0.9965   -2.3032 C   0  0  0  0  0  0  0  0  0  0  0  0
   -0.5429    0.8195   -3.4167 O   0  0  0  0  0  0  0  0  0  0  0  0
   -0.5351    0.8825    0.2037 C   0  0  0  0  0  0  0  0  0  0  0  0
   -1.2615    1.7125    1.6376 S   0  0  0  0  0  0  0  0  0  0  0  0
   -2.5850    0.7815   -2.0381 H   0  0  0  0  0  0  0  0  0  0  0  0
   -0.5829    2.6332   -1.0431 H   0  0  0  0  0  0  0  0  0  0  0  0
   -0.9063   -0.1476    0.1988 H   0  0  0  0  0  0  0  0  0  0  0  0
    0.5480    0.8426    0.3619 H   0  0  0  0  0  0  0  0  0  0  0  0
    1.2531    0.6828   -1.9545 N   0  0  0  0  0  0  0  0  0  0  0  0
    2.1906    0.1028   -2.8875 C   0  0  2  0  0  0  0  0  0  0  0  0
    3.1279   -0.8090   -2.1068 C   0  0  0  0  0  0  0  0  0  0  0  0
    3.4887   -0.5728   -0.9556 O   0  0  0  0  0  0  0  0  0  0  0  0
    2.9703    1.1776   -3.6287 C   0  0  0  0  0  0  0  0  0  0  0  0
    1.5879    0.9028   -1.0212 H   0  0  0  0  0  0  0  0  0  0  0  0
    1.6046   -0.4943   -3.5947 H   0  0  0  0  0  0  0  0  0  0  0  0
    3.5636    1.7861   -2.9365 H   0  0  0  0  0  0  0  0  0  0  0  0
    3.6601    0.7370   -4.3560 H   0  0  0  0  0  0  0  0  0  0  0  0
    2.2927    1.8504   -4.1656 H   0  0  0  0  0  0  0  0  0  0  0  0
    3.5484   -1.8949   -2.8618 N   0  0  0  0  0  0  0  0  0  0  0  0
    4.4753   -2.8819   -2.3591 C   0  0  0  0  0  0  0  0  0  0  0  0
    3.1674   -2.0336   -3.7931 H   0  0  0  0  0  0  0  0  0  0  0  0
    5.5012   -2.5961   -2.6346 H   0  0  0  0  0  0  0  0  0  0  0  0
    4.3922   -2.9385   -1.2637 H   0  0  0  0  0  0  0  0  0  0  0  0
    4.2385   -3.8632   -2.7960 H   0  0  0  0  0  0  0  0  0  0  0  0
  1  3  1  0  0  0  0
  1  7  1  0  0  0  0
  1  2  2  0  0  0  0
 23 25  1  0  0  0  0
 23 29  1  0  0  0  0
 23 24  2  0  0  0  0
 50 51  1  0  0  0  0
 51 59  1  0  0  0  0
 51 52  2  0  0  0  0
  8  9  1  0  0  0  0
  9 17  1  0  0  0  0
  9 10  2  0  0  0  0
 30 31  1  0  0  0  0
 31 39  1  0  0  0  0
 31 32  2  0  0  0  0
 40 41  1  0  0  0  0
 41 49  1  0  0  0  0
 41 42  2  0  0  0  0
 50 53  1  0  0  0  0
 30 33  1  0  0  0  0
 59 60  1  0  0  0  0
 17 18  1  0  0  0  0
  8 11  1  0  0  0  0
 11 12  1  0  0  0  0
 40 43  1  0  0  0  0
 43 44  1  0  0  0  0
 49 50  1  0  0  0  0
  7  8  1  0  0  0  0
 29 30  1  0  0  0  0
 39 40  1  0  0  0  0
 12 44  1  0  0  0  0
  3  4  1  0  0  0  0
  3  5  1  0  0  0  0
  3  6  1  0  0  0  0
 25 26  1  0  0  0  0
 25 27  1  0  0  0  0
 25 28  1  0  0  0  0
 53 56  1  0  0  0  0
 53 57  1  0  0  0  0
 53 58  1  0  0  0  0
 33 36  1  0  0  0  0
 33 37  1  0  0  0  0
 33 38  1  0  0  0  0
 60 62  1  0  0  0  0
 60 63  1  0  0  0  0
 60 64  1  0  0  0  0
 18 20  1  0  0  0  0
 18 21  1  0  0  0  0
 18 22  1  0  0  0  0
 11 15  1  0  0  0  0
 11 16  1  0  0  0  0
 43 47  1  0  0  0  0
 43 48  1  0  0  0  0
 50 55  1  0  0  0  0
  8 14  1  0  0  0  0
 30 35  1  0  0  0  0
 40 46  1  0  0  0  0
 59 61  1  0  0  0  0
 17 19  1  0  0  0  0
  7 13  1  0  0  0  0
 29 34  1  0  0  0  0
 49 54  1  0  0  0  0
 39 45  1  0  0  0  0
M  END
$$$$

  -OEChem-05262214473D

 64 63  0     1  0  0  0  0  0999 V2000
   -2.9196   -0.9613    6.4512 C   0  0  0  0  0  0  0  0  0  0  0  0
   -4.0717   -1.2205    6.1237 O   0  0  0  0  0  0  0  0  0  0  0  0
   -2.6533   -0.3572    7.7900 C   0  0  0  0  0  0  0  0  0  0  0  0
   -2.6724    0.7443    7.7656 H   0  0  0  0  0  0  0  0  0  0  0  0
   -3.4086   -0.6449    8.5389 H   0  0  0  0  0  0  0  0  0  0  0  0
   -1.6832   -0.6202    8.2412 H   0  0  0  0  0  0  0  0  0  0  0  0
   -1.7837   -1.1749    5.6896 N   0  0  0  0  0  0  0  0  0  0  0  0
   -1.8136   -1.7495    4.3684 C   0  0  2  0  0  0  0  0  0  0  0  0
   -0.5652   -2.6077    4.1740 C   0  0  0  0  0  0  0  0  0  0  0  0
    0.3447   -2.6627    4.9989 O   0  0  0  0  0  0  0  0  0  0  0  0
   -1.9992   -0.6922    3.2773 C   0  0  0  0  0  0  0  0  0  0  0  0
   -0.6333    0.5109    3.1803 S   0  0  0  0  0  0  0  0  0  0  0  0
   -0.8822   -0.9130    6.0823 H   0  0  0  0  0  0  0  0  0  0  0  0
   -2.6815   -2.4206    4.3585 H   0  0  0  0  0  0  0  0  0  0  0  0
   -2.0887   -1.1659    2.2943 H   0  0  0  0  0  0  0  0  0  0  0  0
   -2.9208   -0.1281    3.4573 H   0  0  0  0  0  0  0  0  0  0  0  0
   -0.5763   -3.2835    2.9621 N   0  0  0  0  0  0  0  0  0  0  0  0
    0.5062   -4.1402    2.5379 C   0  0  0  0  0  0  0  0  0  0  0  0
   -1.3903   -3.2142    2.3585 H   0  0  0  0  0  0  0  0  0  0  0  0
    1.2182   -3.5598    1.9326 H   0  0  0  0  0  0  0  0  0  0  0  0
    1.0212   -4.5450    3.4216 H   0  0  0  0  0  0  0  0  0  0  0  0
    0.1039   -4.9686    1.9364 H   0  0  0  0  0  0  0  0  0  0  0  0
   -6.7256    2.0330   -0.2766 C   0  0  0  0  0  0  0  0  0  0  0  0
   -7.1824    1.1039   -0.9322 O   0  0  0  0  0  0  0  0  0  0  0  0
   -7.5276    2.6077    0.8435 C   0  0  0  0  0  0  0  0  0  0  0  0
   -8.1775    3.4344    0.5145 H   0  0  0  0  0  0  0  0  0  0  0  0
   -8.2057    1.8676    1.2980 H   0  0  0  0  0  0  0  0  0  0  0  0
   -6.9411    3.0162    1.6819 H   0  0  0  0  0  0  0  0  0  0  0  0
   -5.4935    2.6382   -0.4627 N   0  0  0  0  0  0  0  0  0  0  0  0
   -4.5619    2.2388   -1.4845 C   0  0  2  0  0  0  0  0  0  0  0  0
   -3.1535    2.4674   -0.9521 C   0  0  0  0  0  0  0  0  0  0  0  0
   -2.8634    3.3945   -0.1987 O   0  0  0  0  0  0  0  0  0  0  0  0
   -4.7883    3.0138   -2.7732 C   0  0  0  0  0  0  0  0  0  0  0  0
   -5.2337    3.4049    0.1551 H   0  0  0  0  0  0  0  0  0  0  0  0
   -4.7192    1.1682   -1.6549 H   0  0  0  0  0  0  0  0  0  0  0  0
   -4.6352    4.0886   -2.6221 H   0  0  0  0  0  0  0  0  0  0  0  0
   -4.0976    2.6887   -3.5582 H   0  0  0  0  0  0  0  0  0  0  0  0
   -5.8111    2.8719   -3.1387 H   0  0  0  0  0  0  0  0  0  0  0  0
   -2.2466    1.5400   -1.4507 N   0  0  0  0  0  0  0  0  0  0  0  0
   -0.8424    1.5707   -1.1286 C   0  0  2  0  0  0  0  0  0  0  0  0
   -0.0529    0.9965   -2.3032 C   0  0  0  0  0  0  0  0  0  0  0  0
   -0.4413    1.0635   -3.4677 O   0  0  0  0  0  0  0  0  0  0  0  0
   -0.5351    0.8825    0.2037 C   0  0  0  0  0  0  0  0  0  0  0  0
   -1.2615    1.7125    1.6376 S   0  0  0  0  0  0  0  0  0  0  0  0
   -2.5850    0.7815   -2.0381 H   0  0  0  0  0  0  0  0  0  0  0  0
   -0.5829    2.6332   -1.0431 H   0  0  0  0  0  0  0  0  0  0  0  0
   -0.9063   -0.1476    0.1988 H   0  0  0  0  0  0  0  0  0  0  0  0
    0.5480    0.8426    0.3619 H   0  0  0  0  0  0  0  0  0  0  0  0
    1.1214    0.3801   -1.8950 N   0  0  0  0  0  0  0  0  0  0  0  0
    2.0273   -0.2601   -2.8198 C   0  0  2  0  0  0  0  0  0  0  0  0
    2.6793   -1.4347   -2.1024 C   0  0  0  0  0  0  0  0  0  0  0  0
    2.9489   -1.4223   -0.9032 O   0  0  0  0  0  0  0  0  0  0  0  0
    3.0766    0.7149   -3.3310 C   0  0  0  0  0  0  0  0  0  0  0  0
    1.3868    0.4092   -0.9150 H   0  0  0  0  0  0  0  0  0  0  0  0
    1.4195   -0.6315   -3.6520 H   0  0  0  0  0  0  0  0  0  0  0  0
    3.6954    1.0977   -2.5113 H   0  0  0  0  0  0  0  0  0  0  0  0
    3.7451    0.2354   -4.0537 H   0  0  0  0  0  0  0  0  0  0  0  0
    2.6049    1.5738   -3.8205 H   0  0  0  0  0  0  0  0  0  0  0  0
    2.9641   -2.4818   -2.9677 N   0  0  0  0  0  0  0  0  0  0  0  0
    3.6222   -3.6928   -2.5361 C   0  0  0  0  0  0  0  0  0  0  0  0
    2.6691   -2.4226   -3.9379 H   0  0  0  0  0  0  0  0  0  0  0  0
    4.7080   -3.5922   -2.6807 H   0  0  0  0  0  0  0  0  0  0  0  0
    3.4088   -3.8664   -1.4711 H   0  0  0  0  0  0  0  0  0  0  0  0
    3.2508   -4.5426   -3.1277 H   0  0  0  0  0  0  0  0  0  0  0  0
  1  3  1  0  0  0  0
  1  7  1  0  0  0  0
  1  2  2  0  0  0  0
 23 25  1  0  0  0  0
 23 29  1  0  0  0  0
 23 24  2  0  0  0  0
 50 51  1  0  0  0  0
 51 59  1  0  0  0  0
 51 52  2  0  0  0  0
  8  9  1  0  0  0  0
  9 17  1  0  0  0  0
  9 10  2  0  0  0  0
 30 31  1  0  0  0  0
 31 39  1  0  0  0  0
 31 32  2  0  0  0  0
 40 41  1  0  0  0  0
 41 49  1  0  0  0  0
 41 42  2  0  0  0  0
 50 53  1  0  0  0  0
 30 33  1  0  0  0  0
 59 60  1  0  0  0  0
 17 18  1  0  0  0  0
  8 11  1  0  0  0  0
 11 12  1  0  0  0  0
 40 43  1  0  0  0  0
 43 44  1  0  0  0  0
 49 50  1  0  0  0  0
  7  8  1  0  0  0  0
 29 30  1  0  0  0  0
 39 40  1  0  0  0  0
 12 44  1  0  0  0  0
  3  4  1  0  0  0  0
  3  5  1  0  0  0  0
  3  6  1  0  0  0  0
 25 26  1  0  0  0  0
 25 27  1  0  0  0  0
 25 28  1  0  0  0  0
 53 56  1  0  0  0  0
 53 57  1  0  0  0  0
 53 58  1  0  0  0  0
 33 36  1  0  0  0  0
 33 37  1  0  0  0  0
 33 38  1  0  0  0  0
 60 62  1  0  0  0  0
 60 63  1  0  0  0  0
 60 64  1  0  0  0  0
 18 20  1  0  0  0  0
 18 21  1  0  0  0  0
 18 22  1  0  0  0  0
 11 15  1  0  0  0  0
 11 16  1  0  0  0  0
 43 47  1  0  0  0  0
 43 48  1  0  0  0  0
 50 55  1  0  0  0  0
  8 14  1  0  0  0  0
 30 35  1  0  0  0  0
 40 46  1  0  0  0  0
 59 61  1  0  0  0  0
 17 19  1  0  0  0  0
  7 13  1  0  0  0  0
 29 34  1  0  0  0  0
 49 54  1  0  0  0  0
 39 45  1  0  0  0  0
M  END
$$$$

  -OEChem-05262214473D

 64 63  0     1  0  0  0  0  0999 V2000
   -2.9196   -0.9613    6.4512 C   0  0  0  0  0  0  0  0  0  0  0  0
   -4.0717   -1.2205    6.1237 O   0  0  0  0  0  0  0  0  0  0  0  0
   -2.6533   -0.3572    7.7900 C   0  0  0  0  0  0  0  0  0  0  0  0
   -2.6724    0.7443    7.7656 H   0  0  0  0  0  0  0  0  0  0  0  0
   -3.4086   -0.6449    8.5389 H   0  0  0  0  0  0  0  0  0  0  0  0
   -1.6832   -0.6202    8.2412 H   0  0  0  0  0  0  0  0  0  0  0  0
   -1.7837   -1.1749    5.6896 N   0  0  0  0  0  0  0  0  0  0  0  0
   -1.8136   -1.7495    4.3684 C   0  0  2  0  0  0  0  0  0  0  0  0
   -0.5652   -2.6077    4.1740 C   0  0  0  0  0  0  0  0  0  0  0  0
    0.3447   -2.6627    4.9989 O   0  0  0  0  0  0  0  0  0  0  0  0
   -1.9992   -0.6922    3.2773 C   0  0  0  0  0  0  0  0  0  0  0  0
   -0.6333    0.5109    3.1803 S   0  0  0  0  0  0  0  0  0  0  0  0
   -0.8822   -0.9130    6.0823 H   0  0  0  0  0  0  0  0  0  0  0  0
   -2.6815   -2.4206    4.3585 H   0  0  0  0  0  0  0  0  0  0  0  0
   -2.0887   -1.1659    2.2943 H   0  0  0  0  0  0  0  0  0  0  0  0
   -2.9208   -0.1281    3.4573 H   0  0  0  0  0  0  0  0  0  0  0  0
   -0.5763   -3.2835    2.9621 N   0  0  0  0  0  0  0  0  0  0  0  0
    0.5062   -4.1402    2.5379 C   0  0  0  0  0  0  0  0  0  0  0  0
   -1.3903   -3.2142    2.3585 H   0  0  0  0  0  0  0  0  0  0  0  0
    1.2182   -3.5598    1.9326 H   0  0  0  0  0  0  0  0  0  0  0  0
    1.0212   -4.5450    3.4216 H   0  0  0  0  0  0  0  0  0  0  0  0
    0.1039   -4.9686    1.9364 H   0  0  0  0  0  0  0  0  0  0  0  0
   -6.7256    2.0330   -0.2766 C   0  0  0  0  0  0  0  0  0  0  0  0
   -7.1824    1.1039   -0.9322 O   0  0  0  0  0  0  0  0  0  0  0  0
   -7.5276    2.6077    0.8435 C   0  0  0  0  0  0  0  0  0  0  0  0
   -8.1775    3.4344    0.5145 H   0  0  0  0  0  0  0  0  0  0  0  0
   -8.2057    1.8676    1.2980 H   0  0  0  0  0  0  0  0  0  0  0  0
   -6.9411    3.0162    1.6819 H   0  0  0  0  0  0  0  0  0  0  0  0
   -5.4935    2.6382   -0.4627 N   0  0  0  0  0  0  0  0  0  0  0  0
   -4.5619    2.2388   -1.4845 C   0  0  2  0  0  0  0  0  0  0  0  0
   -3.1535    2.4674   -0.9521 C   0  0  0  0  0  0  0  0  0  0  0  0
   -2.8634    3.3945   -0.1987 O   0  0  0  0  0  0  0  0  0  0  0  0
   -4.7883    3.0138   -2.7732 C   0  0  0  0  0  0  0  0  0  0  0  0
   -5.2337    3.4049    0.1551 H   0  0  0  0  0  0  0  0  0  0  0  0
   -4.7192    1.1682   -1.6549 H   0  0  0  0  0  0  0  0  0  0  0  0
   -4.6352    4.0886   -2.6221 H   0  0  0  0  0  0  0  0  0  0  0  0
   -4.0976    2.6887   -3.5582 H   0  0  0  0  0  0  0  0  0  0  0  0
   -5.8111    2.8719   -3.1387 H   0  0  0  0  0  0  0  0  0  0  0  0
   -2.2466    1.5400   -1.4507 N   0  0  0  0  0  0  0  0  0  0  0  0
   -0.8424    1.5707   -1.1286 C   0  0  2  0  0  0  0  0  0  0  0  0
   -0.0529    0.9965   -2.3032 C   0  0  0  0  0  0  0  0  0  0  0  0
   -0.2896    1.2857   -3.4744 O   0  0  0  0  0  0  0  0  0  0  0  0
   -0.5351    0.8825    0.2037 C   0  0  0  0  0  0  0  0  0  0  0  0
   -1.2615    1.7125    1.6376 S   0  0  0  0  0  0  0  0  0  0  0  0
   -2.5850    0.7815   -2.0381 H   0  0  0  0  0  0  0  0  0  0  0  0
   -0.5829    2.6332   -1.0431 H   0  0  0  0  0  0  0  0  0  0  0  0
   -0.9063   -0.1476    0.1988 H   0  0  0  0  0  0  0  0  0  0  0  0
    0.5480    0.8426    0.3619 H   0  0  0  0  0  0  0  0  0  0  0  0
    0.9283    0.1061   -1.8909 N   0  0  0  0  0  0  0  0  0  0  0  0
    1.7909   -0.5871   -2.8189 C   0  0  2  0  0  0  0  0  0  0  0  0
    2.1210   -1.9504   -2.2256 C   0  0  0  0  0  0  0  0  0  0  0  0
    2.2534   -2.1425   -1.0186 O   0  0  0  0  0  0  0  0  0  0  0  0
    3.0582    0.2068   -3.0951 C   0  0  0  0  0  0  0  0  0  0  0  0
    1.0840   -0.0418   -0.8981 H   0  0  0  0  0  0  0  0  0  0  0  0
    1.2190   -0.7195   -3.7438 H   0  0  0  0  0  0  0  0  0  0  0  0
    3.6444    0.3496   -2.1799 H   0  0  0  0  0  0  0  0  0  0  0  0
    3.6978   -0.3065   -3.8205 H   0  0  0  0  0  0  0  0  0  0  0  0
    2.8178    1.1983   -3.4938 H   0  0  0  0  0  0  0  0  0  0  0  0
    2.2931   -2.9181   -3.2054 N   0  0  0  0  0  0  0  0  0  0  0  0
    2.6539   -4.2826   -2.8986 C   0  0  0  0  0  0  0  0  0  0  0  0
    2.1244   -2.6798   -4.1782 H   0  0  0  0  0  0  0  0  0  0  0  0
    3.7480   -4.3903   -2.9358 H   0  0  0  0  0  0  0  0  0  0  0  0
    2.2944   -4.5392   -1.8912 H   0  0  0  0  0  0  0  0  0  0  0  0
    2.1939   -4.9578   -3.6352 H   0  0  0  0  0  0  0  0  0  0  0  0
  1  3  1  0  0  0  0
  1  7  1  0  0  0  0
  1  2  2  0  0  0  0
 23 25  1  0  0  0  0
 23 29  1  0  0  0  0
 23 24  2  0  0  0  0
 50 51  1  0  0  0  0
 51 59  1  0  0  0  0
 51 52  2  0  0  0  0
  8  9  1  0  0  0  0
  9 17  1  0  0  0  0
  9 10  2  0  0  0  0
 30 31  1  0  0  0  0
 31 39  1  0  0  0  0
 31 32  2  0  0  0  0
 40 41  1  0  0  0  0
 41 49  1  0  0  0  0
 41 42  2  0  0  0  0
 50 53  1  0  0  0  0
 30 33  1  0  0  0  0
 59 60  1  0  0  0  0
 17 18  1  0  0  0  0
  8 11  1  0  0  0  0
 11 12  1  0  0  0  0
 40 43  1  0  0  0  0
 43 44  1  0  0  0  0
 49 50  1  0  0  0  0
  7  8  1  0  0  0  0
 29 30  1  0  0  0  0
 39 40  1  0  0  0  0
 12 44  1  0  0  0  0
  3  4  1  0  0  0  0
  3  5  1  0  0  0  0
  3  6  1  0  0  0  0
 25 26  1  0  0  0  0
 25 27  1  0  0  0  0
 25 28  1  0  0  0  0
 53 56  1  0  0  0  0
 53 57  1  0  0  0  0
 53 58  1  0  0  0  0
 33 36  1  0  0  0  0
 33 37  1  0  0  0  0
 33 38  1  0  0  0  0
 60 62  1  0  0  0  0
 60 63  1  0  0  0  0
 60 64  1  0  0  0  0
 18 20  1  0  0  0  0
 18 21  1  0  0  0  0
 18 22  1  0  0  0  0
 11 15  1  0  0  0  0
 11 16  1  0  0  0  0
 43 47  1  0  0  0  0
 43 48  1  0  0  0  0
 50 55  1  0  0  0  0
  8 14  1  0  0  0  0
 30 35  1  0  0  0  0
 40 46  1  0  0  0  0
 59 61  1  0  0  0  0
 17 19  1  0  0  0  0
  7 13  1  0  0  0  0
 29 34  1  0  0  0  0
 49 54  1  0  0  0  0
 39 45  1  0  0  0  0
M  END
$$$$

  -OEChem-05262214473D

 64 63  0     1  0  0  0  0  0999 V2000
   -2.9196   -0.9613    6.4512 C   0  0  0  0  0  0  0  0  0  0  0  0
   -4.0717   -1.2205    6.1237 O   0  0  0  0  0  0  0  0  0  0  0  0
   -2.6533   -0.3572    7.7900 C   0  0  0  0  0  0  0  0  0  0  0  0
   -2.6724    0.7443    7.7656 H   0  0  0  0  0  0  0  0  0  0  0  0
   -3.4086   -0.6449    8.5389 H   0  0  0  0  0  0  0  0  0  0  0  0
   -1.6832   -0.6202    8.2412 H   0  0  0  0  0  0  0  0  0  0  0  0
   -1.7837   -1.1749    5.6896 N   0  0  0  0  0  0  0  0  0  0  0  0
   -1.8136   -1.7495    4.3684 C   0  0  2  0  0  0  0  0  0  0  0  0
   -0.5652   -2.6077    4.1740 C   0  0  0  0  0  0  0  0  0  0  0  0
    0.3447   -2.6627    4.9989 O   0  0  0  0  0  0  0  0  0  0  0  0
   -1.9992   -0.6922    3.2773 C   0  0  0  0  0  0  0  0  0  0  0  0
   -0.6333    0.5109    3.1803 S   0  0  0  0  0  0  0  0  0  0  0  0
   -0.8822   -0.9130    6.0823 H   0  0  0  0  0  0  0  0  0  0  0  0
   -2.6815   -2.4206    4.3585 H   0  0  0  0  0  0  0  0  0  0  0  0
   -2.0887   -1.1659    2.2943 H   0  0  0  0  0  0  0  0  0  0  0  0
   -2.9208   -0.1281    3.4573 H   0  0  0  0  0  0  0  0  0  0  0  0
   -0.5763   -3.2835    2.9621 N   0  0  0  0  0  0  0  0  0  0  0  0
    0.5062   -4.1402    2.5379 C   0  0  0  0  0  0  0  0  0  0  0  0
   -1.3903   -3.2142    2.3585 H   0  0  0  0  0  0  0  0  0  0  0  0
    1.2182   -3.5598    1.9326 H   0  0  0  0  0  0  0  0  0  0  0  0
    1.0212   -4.5450    3.4216 H   0  0  0  0  0  0  0  0  0  0  0  0
    0.1039   -4.9686    1.9364 H   0  0  0  0  0  0  0  0  0  0  0  0
   -6.7256    2.0330   -0.2766 C   0  0  0  0  0  0  0  0  0  0  0  0
   -7.1824    1.1039   -0.9322 O   0  0  0  0  0  0  0  0  0  0  0  0
   -7.5276    2.6077    0.8435 C   0  0  0  0  0  0  0  0  0  0  0  0
   -8.1775    3.4344    0.5145 H   0  0  0  0  0  0  0  0  0  0  0  0
   -8.2057    1.8676    1.2980 H   0  0  0  0  0  0  0  0  0  0  0  0
   -6.9411    3.0162    1.6819 H   0  0  0  0  0  0  0  0  0  0  0  0
   -5.4935    2.6382   -0.4627 N   0  0  0  0  0  0  0  0  0  0  0  0
   -4.5619    2.2388   -1.4845 C   0  0  2  0  0  0  0  0  0  0  0  0
   -3.1535    2.4674   -0.9521 C   0  0  0  0  0  0  0  0  0  0  0  0
   -2.8634    3.3945   -0.1987 O   0  0  0  0  0  0  0  0  0  0  0  0
   -4.7883    3.0138   -2.7732 C   0  0  0  0  0  0  0  0  0  0  0  0
   -5.2337    3.4049    0.1551 H   0  0  0  0  0  0  0  0  0  0  0  0
   -4.7192    1.1682   -1.6549 H   0  0  0  0  0  0  0  0  0  0  0  0
   -4.6352    4.0886   -2.6221 H   0  0  0  0  0  0  0  0  0  0  0  0
   -4.0976    2.6887   -3.5582 H   0  0  0  0  0  0  0  0  0  0  0  0
   -5.8111    2.8719   -3.1387 H   0  0  0  0  0  0  0  0  0  0  0  0
   -2.2466    1.5400   -1.4507 N   0  0  0  0  0  0  0  0  0  0  0  0
   -0.8424    1.5707   -1.1286 C   0  0  2  0  0  0  0  0  0  0  0  0
   -0.0529    0.9965   -2.3032 C   0  0  0  0  0  0  0  0  0  0  0  0
   -0.0982    1.4711   -3.4363 O   0  0  0  0  0  0  0  0  0  0  0  0
   -0.5351    0.8825    0.2037 C   0  0  0  0  0  0  0  0  0  0  0  0
   -1.2615    1.7125    1.6376 S   0  0  0  0  0  0  0  0  0  0  0  0
   -2.5850    0.7815   -2.0381 H   0  0  0  0  0  0  0  0  0  0  0  0
   -0.5829    2.6332   -1.0431 H   0  0  0  0  0  0  0  0  0  0  0  0
   -0.9063   -0.1476    0.1988 H   0  0  0  0  0  0  0  0  0  0  0  0
    0.5480    0.8426    0.3619 H   0  0  0  0  0  0  0  0  0  0  0  0
    0.6867   -0.1208   -1.9423 N   0  0  0  0  0  0  0  0  0  0  0  0
    1.4973   -0.8561   -2.8847 C   0  0  2  0  0  0  0  0  0  0  0  0
    1.4911   -2.3209   -2.4678 C   0  0  0  0  0  0  0  0  0  0  0  0
    1.4494   -2.6841   -1.2942 O   0  0  0  0  0  0  0  0  0  0  0  0
    2.9163   -0.3118   -2.9369 C   0  0  0  0  0  0  0  0  0  0  0  0
    0.7001   -0.4194   -0.9716 H   0  0  0  0  0  0  0  0  0  0  0  0
    1.0167   -0.7523   -3.8637 H   0  0  0  0  0  0  0  0  0  0  0  0
    3.4139   -0.4071   -1.9649 H   0  0  0  0  0  0  0  0  0  0  0  0
    3.5216   -0.8518   -3.6724 H   0  0  0  0  0  0  0  0  0  0  0  0
    2.9170    0.7495   -3.2078 H   0  0  0  0  0  0  0  0  0  0  0  0
    1.5813   -3.1743   -3.5586 N   0  0  0  0  0  0  0  0  0  0  0  0
    1.6365   -4.6111   -3.4219 C   0  0  0  0  0  0  0  0  0  0  0  0
    1.5705   -2.7876   -4.4978 H   0  0  0  0  0  0  0  0  0  0  0  0
    2.6867   -4.9360   -3.3824 H   0  0  0  0  0  0  0  0  0  0  0  0
    1.1249   -4.9111   -2.4955 H   0  0  0  0  0  0  0  0  0  0  0  0
    1.1397   -5.0806   -4.2837 H   0  0  0  0  0  0  0  0  0  0  0  0
  1  3  1  0  0  0  0
  1  7  1  0  0  0  0
  1  2  2  0  0  0  0
 23 25  1  0  0  0  0
 23 29  1  0  0  0  0
 23 24  2  0  0  0  0
 50 51  1  0  0  0  0
 51 59  1  0  0  0  0
 51 52  2  0  0  0  0
  8  9  1  0  0  0  0
  9 17  1  0  0  0  0
  9 10  2  0  0  0  0
 30 31  1  0  0  0  0
 31 39  1  0  0  0  0
 31 32  2  0  0  0  0
 40 41  1  0  0  0  0
 41 49  1  0  0  0  0
 41 42  2  0  0  0  0
 50 53  1  0  0  0  0
 30 33  1  0  0  0  0
 59 60  1  0  0  0  0
 17 18  1  0  0  0  0
  8 11  1  0  0  0  0
 11 12  1  0  0  0  0
 40 43  1  0  0  0  0
 43 44  1  0  0  0  0
 49 50  1  0  0  0  0
  7  8  1  0  0  0  0
 29 30  1  0  0  0  0
 39 40  1  0  0  0  0
 12 44  1  0  0  0  0
  3  4  1  0  0  0  0
  3  5  1  0  0  0  0
  3  6  1  0  0  0  0
 25 26  1  0  0  0  0
 25 27  1  0  0  0  0
 25 28  1  0  0  0  0
 53 56  1  0  0  0  0
 53 57  1  0  0  0  0
 53 58  1  0  0  0  0
 33 36  1  0  0  0  0
 33 37  1  0  0  0  0
 33 38  1  0  0  0  0
 60 62  1  0  0  0  0
 60 63  1  0  0  0  0
 60 64  1  0  0  0  0
 18 20  1  0  0  0  0
 18 21  1  0  0  0  0
 18 22  1  0  0  0  0
 11 15  1  0  0  0  0
 11 16  1  0  0  0  0
 43 47  1  0  0  0  0
 43 48  1  0  0  0  0
 50 55  1  0  0  0  0
  8 14  1  0  0  0  0
 30 35  1  0  0  0  0
 40 46  1  0  0  0  0
 59 61  1  0  0  0  0
 17 19  1  0  0  0  0
  7 13  1  0  0  0  0
 29 34  1  0  0  0  0
 49 54  1  0  0  0  0
 39 45  1  0  0  0  0
M  END
$$$$

  -OEChem-05262214473D

 64 63  0     1  0  0  0  0  0999 V2000
   -2.9196   -0.9613    6.4512 C   0  0  0  0  0  0  0  0  0  0  0  0
   -4.0717   -1.2205    6.1237 O   0  0  0  0  0  0  0  0  0  0  0  0
   -2.6533   -0.3572    7.7900 C   0  0  0  0  0  0  0  0  0  0  0  0
   -2.6724    0.7443    7.7656 H   0  0  0  0  0  0  0  0  0  0  0  0
   -3.4086   -0.6449    8.5389 H   0  0  0  0  0  0  0  0  0  0  0  0
   -1.6832   -0.6202    8.2412 H   0  0  0  0  0  0  0  0  0  0  0  0
   -1.7837   -1.1749    5.6896 N   0  0  0  0  0  0  0  0  0  0  0  0
   -1.8136   -1.7495    4.3684 C   0  0  2  0  0  0  0  0  0  0  0  0
   -0.5652   -2.6077    4.1740 C   0  0  0  0  0  0  0  0  0  0  0  0
    0.3447   -2.6627    4.9989 O   0  0  0  0  0  0  0  0  0  0  0  0
   -1.9992   -0.6922    3.2773 C   0  0  0  0  0  0  0  0  0  0  0  0
   -0.6333    0.5109    3.1803 S   0  0  0  0  0  0  0  0  0  0  0  0
   -0.8822   -0.9130    6.0823 H   0  0  0  0  0  0  0  0  0  0  0  0
   -2.6815   -2.4206    4.3585 H   0  0  0  0  0  0  0  0  0  0  0  0
   -2.0887   -1.1659    2.2943 H   0  0  0  0  0  0  0  0  0  0  0  0
   -2.9208   -0.1281    3.4573 H   0  0  0  0  0  0  0  0  0  0  0  0
   -0.5763   -3.2835    2.9621 N   0  0  0  0  0  0  0  0  0  0  0  0
    0.5062   -4.1402    2.5379 C   0  0  0  0  0  0  0  0  0  0  0  0
   -1.3903   -3.2142    2.3585 H   0  0  0  0  0  0  0  0  0  0  0  0
    1.2182   -3.5598    1.9326 H   0  0  0  0  0  0  0  0  0  0  0  0
    1.0212   -4.5450    3.4216 H   0  0  0  0  0  0  0  0  0  0  0  0
    0.1039   -4.9686    1.9364 H   0  0  0  0  0  0  0  0  0  0  0  0
   -6.7256    2.0330   -0.2766 C   0  0  0  0  0  0  0  0  0  0  0  0
   -7.1824    1.1039   -0.9322 O   0  0  0  0  0  0  0  0  0  0  0  0
   -7.5276    2.6077    0.8435 C   0  0  0  0  0  0  0  0  0  0  0  0
   -8.1775    3.4344    0.5145 H   0  0  0  0  0  0  0  0  0  0  0  0
   -8.2057    1.8676    1.2980 H   0  0  0  0  0  0  0  0  0  0  0  0
   -6.9411    3.0162    1.6819 H   0  0  0  0  0  0  0  0  0  0  0  0
   -5.4935    2.6382   -0.4627 N   0  0  0  0  0  0  0  0  0  0  0  0
   -4.5619    2.2388   -1.4845 C   0  0  2  0  0  0  0  0  0  0  0  0
   -3.1535    2.4674   -0.9521 C   0  0  0  0  0  0  0  0  0  0  0  0
   -2.8634    3.3945   -0.1987 O   0  0  0  0  0  0  0  0  0  0  0  0
   -4.7883    3.0138   -2.7732 C   0  0  0  0  0  0  0  0  0  0  0  0
   -5.2337    3.4049    0.1551 H   0  0  0  0  0  0  0  0  0  0  0  0
   -4.7192    1.1682   -1.6549 H   0  0  0  0  0  0  0  0  0  0  0  0
   -4.6352    4.0886   -2.6221 H   0  0  0  0  0  0  0  0  0  0  0  0
   -4.0976    2.6887   -3.5582 H   0  0  0  0  0  0  0  0  0  0  0  0
   -5.8111    2.8719   -3.1387 H   0  0  0  0  0  0  0  0  0  0  0  0
   -2.2466    1.5400   -1.4507 N   0  0  0  0  0  0  0  0  0  0  0  0
   -0.8424    1.5707   -1.1286 C   0  0  2  0  0  0  0  0  0  0  0  0
   -0.0529    0.9965   -2.3032 C   0  0  0  0  0  0  0  0  0  0  0  0
    0.1198    1.6070   -3.3562 O   0  0  0  0  0  0  0  0  0  0  0  0
   -0.5351    0.8825    0.2037 C   0  0  0  0  0  0  0  0  0  0  0  0
   -1.2615    1.7125    1.6376 S   0  0  0  0  0  0  0  0  0  0  0  0
   -2.5850    0.7815   -2.0381 H   0  0  0  0  0  0  0  0  0  0  0  0
   -0.5829    2.6332   -1.0431 H   0  0  0  0  0  0  0  0  0  0  0  0
   -0.9063   -0.1476    0.1988 H   0  0  0  0  0  0  0  0  0  0  0  0
    0.5480    0.8426    0.3619 H   0  0  0  0  0  0  0  0  0  0  0  0
    0.4133   -0.2849   -2.0459 N   0  0  0  0  0  0  0  0  0  0  0  0
    1.1666   -1.0486   -3.0129 C   0  0  2  0  0  0  0  0  0  0  0  0
    0.8325   -2.5210   -2.8127 C   0  0  0  0  0  0  0  0  0  0  0  0
    0.5918   -3.0105   -1.7111 O   0  0  0  0  0  0  0  0  0  0  0  0
    2.6607   -0.8056   -2.8672 C   0  0  0  0  0  0  0  0  0  0  0  0
    0.2612   -0.6978   -1.1304 H   0  0  0  0  0  0  0  0  0  0  0  0
    0.8265   -0.7278   -4.0035 H   0  0  0  0  0  0  0  0  0  0  0  0
    3.0198   -1.1210   -1.8808 H   0  0  0  0  0  0  0  0  0  0  0  0
    3.2285   -1.3632   -3.6194 H   0  0  0  0  0  0  0  0  0  0  0  0
    2.8956    0.2581   -2.9819 H   0  0  0  0  0  0  0  0  0  0  0  0
    0.8771   -3.2328   -4.0033 N   0  0  0  0  0  0  0  0  0  0  0  0
    0.6393   -4.6558   -4.0703 C   0  0  0  0  0  0  0  0  0  0  0  0
    1.0451   -2.7388   -4.8748 H   0  0  0  0  0  0  0  0  0  0  0  0
    1.5963   -5.1922   -3.9900 H   0  0  0  0  0  0  0  0  0  0  0  0
   -0.0200   -4.9566   -3.2427 H   0  0  0  0  0  0  0  0  0  0  0  0
    0.1601   -4.9026   -5.0291 H   0  0  0  0  0  0  0  0  0  0  0  0
  1  3  1  0  0  0  0
  1  7  1  0  0  0  0
  1  2  2  0  0  0  0
 23 25  1  0  0  0  0
 23 29  1  0  0  0  0
 23 24  2  0  0  0  0
 50 51  1  0  0  0  0
 51 59  1  0  0  0  0
 51 52  2  0  0  0  0
  8  9  1  0  0  0  0
  9 17  1  0  0  0  0
  9 10  2  0  0  0  0
 30 31  1  0  0  0  0
 31 39  1  0  0  0  0
 31 32  2  0  0  0  0
 40 41  1  0  0  0  0
 41 49  1  0  0  0  0
 41 42  2  0  0  0  0
 50 53  1  0  0  0  0
 30 33  1  0  0  0  0
 59 60  1  0  0  0  0
 17 18  1  0  0  0  0
  8 11  1  0  0  0  0
 11 12  1  0  0  0  0
 40 43  1  0  0  0  0
 43 44  1  0  0  0  0
 49 50  1  0  0  0  0
  7  8  1  0  0  0  0
 29 30  1  0  0  0  0
 39 40  1  0  0  0  0
 12 44  1  0  0  0  0
  3  4  1  0  0  0  0
  3  5  1  0  0  0  0
  3  6  1  0  0  0  0
 25 26  1  0  0  0  0
 25 27  1  0  0  0  0
 25 28  1  0  0  0  0
 53 56  1  0  0  0  0
 53 57  1  0  0  0  0
 53 58  1  0  0  0  0
 33 36  1  0  0  0  0
 33 37  1  0  0  0  0
 33 38  1  0  0  0  0
 60 62  1  0  0  0  0
 60 63  1  0  0  0  0
 60 64  1  0  0  0  0
 18 20  1  0  0  0  0
 18 21  1  0  0  0  0
 18 22  1  0  0  0  0
 11 15  1  0  0  0  0
 11 16  1  0  0  0  0
 43 47  1  0  0  0  0
 43 48  1  0  0  0  0
 50 55  1  0  0  0  0
  8 14  1  0  0  0  0
 30 35  1  0  0  0  0
 40 46  1  0  0  0  0
 59 61  1  0  0  0  0
 17 19  1  0  0  0  0
  7 13  1  0  0  0  0
 29 34  1  0  0  0  0
 49 54  1  0  0  0  0
 39 45  1  0  0  0  0
M  END
$$$$

  -OEChem-05262214473D

 64 63  0     1  0  0  0  0  0999 V2000
   -2.9196   -0.9613    6.4512 C   0  0  0  0  0  0  0  0  0  0  0  0
   -4.0717   -1.2205    6.1237 O   0  0  0  0  0  0  0  0  0  0  0  0
   -2.6533   -0.3572    7.7900 C   0  0  0  0  0  0  0  0  0  0  0  0
   -2.6724    0.7443    7.7656 H   0  0  0  0  0  0  0  0  0  0  0  0
   -3.4086   -0.6449    8.5389 H   0  0  0  0  0  0  0  0  0  0  0  0
   -1.6832   -0.6202    8.2412 H   0  0  0  0  0  0  0  0  0  0  0  0
   -1.7837   -1.1749    5.6896 N   0  0  0  0  0  0  0  0  0  0  0  0
   -1.8136   -1.7495    4.3684 C   0  0  2  0  0  0  0  0  0  0  0  0
   -0.5652   -2.6077    4.1740 C   0  0  0  0  0  0  0  0  0  0  0  0
    0.3447   -2.6627    4.9989 O   0  0  0  0  0  0  0  0  0  0  0  0
   -1.9992   -0.6922    3.2773 C   0  0  0  0  0  0  0  0  0  0  0  0
   -0.6333    0.5109    3.1803 S   0  0  0  0  0  0  0  0  0  0  0  0
   -0.8822   -0.9130    6.0823 H   0  0  0  0  0  0  0  0  0  0  0  0
   -2.6815   -2.4206    4.3585 H   0  0  0  0  0  0  0  0  0  0  0  0
   -2.0887   -1.1659    2.2943 H   0  0  0  0  0  0  0  0  0  0  0  0
   -2.9208   -0.1281    3.4573 H   0  0  0  0  0  0  0  0  0  0  0  0
   -0.5763   -3.2835    2.9621 N   0  0  0  0  0  0  0  0  0  0  0  0
    0.5062   -4.1402    2.5379 C   0  0  0  0  0  0  0  0  0  0  0  0
   -1.3903   -3.2142    2.3585 H   0  0  0  0  0  0  0  0  0  0  0  0
    1.2182   -3.5598    1.9326 H   0  0  0  0  0  0  0  0  0  0  0  0
    1.0212   -4.5450    3.4216 H   0  0  0  0  0  0  0  0  0  0  0  0
    0.1039   -4.9686    1.9364 H   0  0  0  0  0  0  0  0  0  0  0  0
   -6.7256    2.0330   -0.2766 C   0  0  0  0  0  0  0  0  0  0  0  0
   -7.1824    1.1039   -0.9322 O   0  0  0  0  0  0  0  0  0  0  0  0
   -7.5276    2.6077    0.8435 C   0  0  0  0  0  0  0  0  0  0  0  0
   -8.1775    3.4344    0.5145 H   0  0  0  0  0  0  0  0  0  0  0  0
   -8.2057    1.8676    1.2980 H   0  0  0  0  0  0  0  0  0  0  0  0
   -6.9411    3.0162    1.6819 H   0  0  0  0  0  0  0  0  0  0  0  0
   -5.4935    2.6382   -0.4627 N   0  0  0  0  0  0  0  0  0  0  0  0
   -4.5619    2.2388   -1.4845 C   0  0  2  0  0  0  0  0  0  0  0  0
   -3.1535    2.4674   -0.9521 C   0  0  0  0  0  0  0  0  0  0  0  0
   -2.8634    3.3945   -0.1987 O   0  0  0  0  0  0  0  0  0  0  0  0
   -4.7883    3.0138   -2.7732 C   0  0  0  0  0  0  0  0  0  0  0  0
   -5.2337    3.4049    0.1551 H   0  0  0  0  0  0  0  0  0  0  0  0
   -4.7192    1.1682   -1.6549 H   0  0  0  0  0  0  0  0  0  0  0  0
   -4.6352    4.0886   -2.6221 H   0  0  0  0  0  0  0  0  0  0  0  0
   -4.0976    2.6887   -3.5582 H   0  0  0  0  0  0  0  0  0  0  0  0
   -5.8111    2.8719   -3.1387 H   0  0  0  0  0  0  0  0  0  0  0  0
   -2.2466    1.5400   -1.4507 N   0  0  0  0  0  0  0  0  0  0  0  0
   -0.8424    1.5707   -1.1286 C   0  0  2  0  0  0  0  0  0  0  0  0
   -0.0529    0.9965   -2.3032 C   0  0  0  0  0  0  0  0  0  0  0  0
    0.3497    1.6841   -3.2394 O   0  0  0  0  0  0  0  0  0  0  0  0
   -0.5351    0.8825    0.2037 C   0  0  0  0  0  0  0  0  0  0  0  0
   -1.2615    1.7125    1.6376 S   0  0  0  0  0  0  0  0  0  0  0  0
   -2.5850    0.7815   -2.0381 H   0  0  0  0  0  0  0  0  0  0  0  0
   -0.5829    2.6332   -1.0431 H   0  0  0  0  0  0  0  0  0  0  0  0
   -0.9063   -0.1476    0.1988 H   0  0  0  0  0  0  0  0  0  0  0  0
    0.5480    0.8426    0.3619 H   0  0  0  0  0  0  0  0  0  0  0  0
    0.1265   -0.3752   -2.1945 N   0  0  0  0  0  0  0  0  0  0  0  0
    0.8213   -1.1517   -3.1946 C   0  0  2  0  0  0  0  0  0  0  0  0
    0.1900   -2.5370   -3.2367 C   0  0  0  0  0  0  0  0  0  0  0  0
   -0.2610   -3.0992   -2.2409 O   0  0  0  0  0  0  0  0  0  0  0  0
    2.3087   -1.2411   -2.8910 C   0  0  0  0  0  0  0  0  0  0  0  0
   -0.2027   -0.8582   -1.3638 H   0  0  0  0  0  0  0  0  0  0  0  0
    0.6612   -0.6475   -4.1539 H   0  0  0  0  0  0  0  0  0  0  0  0
    2.4888   -1.7434   -1.9335 H   0  0  0  0  0  0  0  0  0  0  0  0
    2.8384   -1.8059   -3.6652 H   0  0  0  0  0  0  0  0  0  0  0  0
    2.7551   -0.2426   -2.8316 H   0  0  0  0  0  0  0  0  0  0  0  0
    0.2285   -3.0896   -4.5092 N   0  0  0  0  0  0  0  0  0  0  0  0
   -0.2697   -4.4138   -4.7996 C   0  0  0  0  0  0  0  0  0  0  0  0
    0.5840   -2.5367   -5.2836 H   0  0  0  0  0  0  0  0  0  0  0  0
    0.5513   -5.1412   -4.7174 H   0  0  0  0  0  0  0  0  0  0  0  0
   -1.0622   -4.6728   -4.0820 H   0  0  0  0  0  0  0  0  0  0  0  0
   -0.6782   -4.4360   -5.8207 H   0  0  0  0  0  0  0  0  0  0  0  0
  1  3  1  0  0  0  0
  1  7  1  0  0  0  0
  1  2  2  0  0  0  0
 23 25  1  0  0  0  0
 23 29  1  0  0  0  0
 23 24  2  0  0  0  0
 50 51  1  0  0  0  0
 51 59  1  0  0  0  0
 51 52  2  0  0  0  0
  8  9  1  0  0  0  0
  9 17  1  0  0  0  0
  9 10  2  0  0  0  0
 30 31  1  0  0  0  0
 31 39  1  0  0  0  0
 31 32  2  0  0  0  0
 40 41  1  0  0  0  0
 41 49  1  0  0  0  0
 41 42  2  0  0  0  0
 50 53  1  0  0  0  0
 30 33  1  0  0  0  0
 59 60  1  0  0  0  0
 17 18  1  0  0  0  0
  8 11  1  0  0  0  0
 11 12  1  0  0  0  0
 40 43  1  0  0  0  0
 43 44  1  0  0  0  0
 49 50  1  0  0  0  0
  7  8  1  0  0  0  0
 29 30  1  0  0  0  0
 39 40  1  0  0  0  0
 12 44  1  0  0  0  0
  3  4  1  0  0  0  0
  3  5  1  0  0  0  0
  3  6  1  0  0  0  0
 25 26  1  0  0  0  0
 25 27  1  0  0  0  0
 25 28  1  0  0  0  0
 53 56  1  0  0  0  0
 53 57  1  0  0  0  0
 53 58  1  0  0  0  0
 33 36  1  0  0  0  0
 33 37  1  0  0  0  0
 33 38  1  0  0  0  0
 60 62  1  0  0  0  0
 60 63  1  0  0  0  0
 60 64  1  0  0  0  0
 18 20  1  0  0  0  0
 18 21  1  0  0  0  0
 18 22  1  0  0  0  0
 11 15  1  0  0  0  0
 11 16  1  0  0  0  0
 43 47  1  0  0  0  0
 43 48  1  0  0  0  0
 50 55  1  0  0  0  0
  8 14  1  0  0  0  0
 30 35  1  0  0  0  0
 40 46  1  0  0  0  0
 59 61  1  0  0  0  0
 17 19  1  0  0  0  0
  7 13  1  0  0  0  0
 29 34  1  0  0  0  0
 49 54  1  0  0  0  0
 39 45  1  0  0  0  0
M  END
$$$$

  -OEChem-05262214473D

 64 63  0     1  0  0  0  0  0999 V2000
   -2.9196   -0.9613    6.4512 C   0  0  0  0  0  0  0  0  0  0  0  0
   -4.0717   -1.2205    6.1237 O   0  0  0  0  0  0  0  0  0  0  0  0
   -2.6533   -0.3572    7.7900 C   0  0  0  0  0  0  0  0  0  0  0  0
   -2.6724    0.7443    7.7656 H   0  0  0  0  0  0  0  0  0  0  0  0
   -3.4086   -0.6449    8.5389 H   0  0  0  0  0  0  0  0  0  0  0  0
   -1.6832   -0.6202    8.2412 H   0  0  0  0  0  0  0  0  0  0  0  0
   -1.7837   -1.1749    5.6896 N   0  0  0  0  0  0  0  0  0  0  0  0
   -1.8136   -1.7495    4.3684 C   0  0  2  0  0  0  0  0  0  0  0  0
   -0.5652   -2.6077    4.1740 C   0  0  0  0  0  0  0  0  0  0  0  0
    0.3447   -2.6627    4.9989 O   0  0  0  0  0  0  0  0  0  0  0  0
   -1.9992   -0.6922    3.2773 C   0  0  0  0  0  0  0  0  0  0  0  0
   -0.6333    0.5109    3.1803 S   0  0  0  0  0  0  0  0  0  0  0  0
   -0.8822   -0.9130    6.0823 H   0  0  0  0  0  0  0  0  0  0  0  0
   -2.6815   -2.4206    4.3585 H   0  0  0  0  0  0  0  0  0  0  0  0
   -2.0887   -1.1659    2.2943 H   0  0  0  0  0  0  0  0  0  0  0  0
   -2.9208   -0.1281    3.4573 H   0  0  0  0  0  0  0  0  0  0  0  0
   -0.5763   -3.2835    2.9621 N   0  0  0  0  0  0  0  0  0  0  0  0
    0.5062   -4.1402    2.5379 C   0  0  0  0  0  0  0  0  0  0  0  0
   -1.3903   -3.2142    2.3585 H   0  0  0  0  0  0  0  0  0  0  0  0
    1.2182   -3.5598    1.9326 H   0  0  0  0  0  0  0  0  0  0  0  0
    1.0212   -4.5450    3.4216 H   0  0  0  0  0  0  0  0  0  0  0  0
    0.1039   -4.9686    1.9364 H   0  0  0  0  0  0  0  0  0  0  0  0
   -6.7256    2.0330   -0.2766 C   0  0  0  0  0  0  0  0  0  0  0  0
   -7.1824    1.1039   -0.9322 O   0  0  0  0  0  0  0  0  0  0  0  0
   -7.5276    2.6077    0.8435 C   0  0  0  0  0  0  0  0  0  0  0  0
   -8.1775    3.4344    0.5145 H   0  0  0  0  0  0  0  0  0  0  0  0
   -8.2057    1.8676    1.2980 H   0  0  0  0  0  0  0  0  0  0  0  0
   -6.9411    3.0162    1.6819 H   0  0  0  0  0  0  0  0  0  0  0  0
   -5.4935    2.6382   -0.4627 N   0  0  0  0  0  0  0  0  0  0  0  0
   -4.5619    2.2388   -1.4845 C   0  0  2  0  0  0  0  0  0  0  0  0
   -3.1535    2.4674   -0.9521 C   0  0  0  0  0  0  0  0  0  0  0  0
   -2.8634    3.3945   -0.1987 O   0  0  0  0  0  0  0  0  0  0  0  0
   -4.7883    3.0138   -2.7732 C   0  0  0  0  0  0  0  0  0  0  0  0
   -5.2337    3.4049    0.1551 H   0  0  0  0  0  0  0  0  0  0  0  0
   -4.7192    1.1682   -1.6549 H   0  0  0  0  0  0  0  0  0  0  0  0
   -4.6352    4.0886   -2.6221 H   0  0  0  0  0  0  0  0  0  0  0  0
   -4.0976    2.6887   -3.5582 H   0  0  0  0  0  0  0  0  0  0  0  0
   -5.8111    2.8719   -3.1387 H   0  0  0  0  0  0  0  0  0  0  0  0
   -2.2466    1.5400   -1.4507 N   0  0  0  0  0  0  0  0  0  0  0  0
   -0.8424    1.5707   -1.1286 C   0  0  2  0  0  0  0  0  0  0  0  0
   -0.0529    0.9965   -2.3032 C   0  0  0  0  0  0  0  0  0  0  0  0
    0.5758    1.6972   -3.0938 O   0  0  0  0  0  0  0  0  0  0  0  0
   -0.5351    0.8825    0.2037 C   0  0  0  0  0  0  0  0  0  0  0  0
   -1.2615    1.7125    1.6376 S   0  0  0  0  0  0  0  0  0  0  0  0
   -2.5850    0.7815   -2.0381 H   0  0  0  0  0  0  0  0  0  0  0  0
   -0.5829    2.6332   -1.0431 H   0  0  0  0  0  0  0  0  0  0  0  0
   -0.9063   -0.1476    0.1988 H   0  0  0  0  0  0  0  0  0  0  0  0
    0.5480    0.8426    0.3619 H   0  0  0  0  0  0  0  0  0  0  0  0
   -0.1540   -0.3855   -2.3780 N   0  0  0  0  0  0  0  0  0  0  0  0
    0.4849   -1.1581   -3.4175 C   0  0  2  0  0  0  0  0  0  0  0  0
   -0.3925   -2.3679   -3.7109 C   0  0  0  0  0  0  0  0  0  0  0  0
   -1.0508   -2.9443   -2.8475 O   0  0  0  0  0  0  0  0  0  0  0  0
    1.8843   -1.5885   -3.0064 C   0  0  0  0  0  0  0  0  0  0  0  0
   -0.6600   -0.8896   -1.6558 H   0  0  0  0  0  0  0  0  0  0  0  0
    0.5322   -0.5169   -4.3044 H   0  0  0  0  0  0  0  0  0  0  0  0
    1.8571   -2.2318   -2.1193 H   0  0  0  0  0  0  0  0  0  0  0  0
    2.3780   -2.1498   -3.8066 H   0  0  0  0  0  0  0  0  0  0  0  0
    2.5051   -0.7184   -2.7670 H   0  0  0  0  0  0  0  0  0  0  0  0
   -0.3203   -2.7545   -5.0419 N   0  0  0  0  0  0  0  0  0  0  0  0
   -1.0287   -3.9015   -5.5601 C   0  0  0  0  0  0  0  0  0  0  0  0
    0.2186   -2.1949   -5.6962 H   0  0  0  0  0  0  0  0  0  0  0  0
   -0.3772   -4.7867   -5.5148 H   0  0  0  0  0  0  0  0  0  0  0  0
   -1.9307   -4.0789   -4.9561 H   0  0  0  0  0  0  0  0  0  0  0  0
   -1.3180   -3.7125   -6.6044 H   0  0  0  0  0  0  0  0  0  0  0  0
  1  3  1  0  0  0  0
  1  7  1  0  0  0  0
  1  2  2  0  0  0  0
 23 25  1  0  0  0  0
 23 29  1  0  0  0  0
 23 24  2  0  0  0  0
 50 51  1  0  0  0  0
 51 59  1  0  0  0  0
 51 52  2  0  0  0  0
  8  9  1  0  0  0  0
  9 17  1  0  0  0  0
  9 10  2  0  0  0  0
 30 31  1  0  0  0  0
 31 39  1  0  0  0  0
 31 32  2  0  0  0  0
 40 41  1  0  0  0  0
 41 49  1  0  0  0  0
 41 42  2  0  0  0  0
 50 53  1  0  0  0  0
 30 33  1  0  0  0  0
 59 60  1  0  0  0  0
 17 18  1  0  0  0  0
  8 11  1  0  0  0  0
 11 12  1  0  0  0  0
 40 43  1  0  0  0  0
 43 44  1  0  0  0  0
 49 50  1  0  0  0  0
  7  8  1  0  0  0  0
 29 30  1  0  0  0  0
 39 40  1  0  0  0  0
 12 44  1  0  0  0  0
  3  4  1  0  0  0  0
  3  5  1  0  0  0  0
  3  6  1  0  0  0  0
 25 26  1  0  0  0  0
 25 27  1  0  0  0  0
 25 28  1  0  0  0  0
 53 56  1  0  0  0  0
 53 57  1  0  0  0  0
 53 58  1  0  0  0  0
 33 36  1  0  0  0  0
 33 37  1  0  0  0  0
 33 38  1  0  0  0  0
 60 62  1  0  0  0  0
 60 63  1  0  0  0  0
 60 64  1  0  0  0  0
 18 20  1  0  0  0  0
 18 21  1  0  0  0  0
 18 22  1  0  0  0  0
 11 15  1  0  0  0  0
 11 16  1  0  0  0  0
 43 47  1  0  0  0  0
 43 48  1  0  0  0  0
 50 55  1  0  0  0  0
  8 14  1  0  0  0  0
 30 35  1  0  0  0  0
 40 46  1  0  0  0  0
 59 61  1  0  0  0  0
 17 19  1  0  0  0  0
  7 13  1  0  0  0  0
 29 34  1  0  0  0  0
 49 54  1  0  0  0  0
 39 45  1  0  0  0  0
M  END
$$$$

  -OEChem-05262214473D

 64 63  0     1  0  0  0  0  0999 V2000
   -2.9196   -0.9613    6.4512 C   0  0  0  0  0  0  0  0  0  0  0  0
   -4.0717   -1.2205    6.1237 O   0  0  0  0  0  0  0  0  0  0  0  0
   -2.6533   -0.3572    7.7900 C   0  0  0  0  0  0  0  0  0  0  0  0
   -2.6724    0.7443    7.7656 H   0  0  0  0  0  0  0  0  0  0  0  0
   -3.4086   -0.6449    8.5389 H   0  0  0  0  0  0  0  0  0  0  0  0
   -1.6832   -0.6202    8.2412 H   0  0  0  0  0  0  0  0  0  0  0  0
   -1.7837   -1.1749    5.6896 N   0  0  0  0  0  0  0  0  0  0  0  0
   -1.8136   -1.7495    4.3684 C   0  0  2  0  0  0  0  0  0  0  0  0
   -0.5652   -2.6077    4.1740 C   0  0  0  0  0  0  0  0  0  0  0  0
    0.3447   -2.6627    4.9989 O   0  0  0  0  0  0  0  0  0  0  0  0
   -1.9992   -0.6922    3.2773 C   0  0  0  0  0  0  0  0  0  0  0  0
   -0.6333    0.5109    3.1803 S   0  0  0  0  0  0  0  0  0  0  0  0
   -0.8822   -0.9130    6.0823 H   0  0  0  0  0  0  0  0  0  0  0  0
   -2.6815   -2.4206    4.3585 H   0  0  0  0  0  0  0  0  0  0  0  0
   -2.0887   -1.1659    2.2943 H   0  0  0  0  0  0  0  0  0  0  0  0
   -2.9208   -0.1281    3.4573 H   0  0  0  0  0  0  0  0  0  0  0  0
   -0.5763   -3.2835    2.9621 N   0  0  0  0  0  0  0  0  0  0  0  0
    0.5062   -4.1402    2.5379 C   0  0  0  0  0  0  0  0  0  0  0  0
   -1.3903   -3.2142    2.3585 H   0  0  0  0  0  0  0  0  0  0  0  0
    1.2182   -3.5598    1.9326 H   0  0  0  0  0  0  0  0  0  0  0  0
    1.0212   -4.5450    3.4216 H   0  0  0  0  0  0  0  0  0  0  0  0
    0.1039   -4.9686    1.9364 H   0  0  0  0  0  0  0  0  0  0  0  0
   -6.7256    2.0330   -0.2766 C   0  0  0  0  0  0  0  0  0  0  0  0
   -7.1824    1.1039   -0.9322 O   0  0  0  0  0  0  0  0  0  0  0  0
   -7.5276    2.6077    0.8435 C   0  0  0  0  0  0  0  0  0  0  0  0
   -8.1775    3.4344    0.5145 H   0  0  0  0  0  0  0  0  0  0  0  0
   -8.2057    1.8676    1.2980 H   0  0  0  0  0  0  0  0  0  0  0  0
   -6.9411    3.0162    1.6819 H   0  0  0  0  0  0  0  0  0  0  0  0
   -5.4935    2.6382   -0.4627 N   0  0  0  0  0  0  0  0  0  0  0  0
   -4.5619    2.2388   -1.4845 C   0  0  2  0  0  0  0  0  0  0  0  0
   -3.1535    2.4674   -0.9521 C   0  0  0  0  0  0  0  0  0  0  0  0
   -2.8634    3.3945   -0.1987 O   0  0  0  0  0  0  0  0  0  0  0  0
   -4.7883    3.0138   -2.7732 C   0  0  0  0  0  0  0  0  0  0  0  0
   -5.2337    3.4049    0.1551 H   0  0  0  0  0  0  0  0  0  0  0  0
   -4.7192    1.1682   -1.6549 H   0  0  0  0  0  0  0  0  0  0  0  0
   -4.6352    4.0886   -2.6221 H   0  0  0  0  0  0  0  0  0  0  0  0
   -4.0976    2.6887   -3.5582 H   0  0  0  0  0  0  0  0  0  0  0  0
   -5.8111    2.8719   -3.1387 H   0  0  0  0  0  0  0  0  0  0  0  0
   -2.2466    1.5400   -1.4507 N   0  0  0  0  0  0  0  0  0  0  0  0
   -0.8424    1.5707   -1.1286 C   0  0  2  0  0  0  0  0  0  0  0  0
   -0.0529    0.9965   -2.3032 C   0  0  0  0  0  0  0  0  0  0  0  0
    0.7825    1.6454   -2.9295 O   0  0  0  0  0  0  0  0  0  0  0  0
   -0.5351    0.8825    0.2037 C   0  0  0  0  0  0  0  0  0  0  0  0
   -1.2615    1.7125    1.6376 S   0  0  0  0  0  0  0  0  0  0  0  0
   -2.5850    0.7815   -2.0381 H   0  0  0  0  0  0  0  0  0  0  0  0
   -0.5829    2.6332   -1.0431 H   0  0  0  0  0  0  0  0  0  0  0  0
   -0.9063   -0.1476    0.1988 H   0  0  0  0  0  0  0  0  0  0  0  0
    0.5480    0.8426    0.3619 H   0  0  0  0  0  0  0  0  0  0  0  0
   -0.4091   -0.3150   -2.5839 N   0  0  0  0  0  0  0  0  0  0  0  0
    0.1804   -1.0676   -3.6665 C   0  0  2  0  0  0  0  0  0  0  0  0
   -0.8754   -2.0252   -4.2030 C   0  0  0  0  0  0  0  0  0  0  0  0
   -1.7239   -2.5563   -3.4896 O   0  0  0  0  0  0  0  0  0  0  0  0
    1.4165   -1.8242   -3.2056 C   0  0  0  0  0  0  0  0  0  0  0  0
   -1.0795   -0.7898   -1.9866 H   0  0  0  0  0  0  0  0  0  0  0  0
    0.4483   -0.3449   -4.4449 H   0  0  0  0  0  0  0  0  0  0  0  0
    1.1678   -2.5530   -2.4255 H   0  0  0  0  0  0  0  0  0  0  0  0
    1.8785   -2.3714   -4.0339 H   0  0  0  0  0  0  0  0  0  0  0  0
    2.1627   -1.1368   -2.7926 H   0  0  0  0  0  0  0  0  0  0  0  0
   -0.7318   -2.2504   -5.5649 N   0  0  0  0  0  0  0  0  0  0  0  0
   -1.5858   -3.1539   -6.3001 C   0  0  0  0  0  0  0  0  0  0  0  0
   -0.0261   -1.7369   -6.0847 H   0  0  0  0  0  0  0  0  0  0  0  0
   -1.1259   -4.1528   -6.3279 H   0  0  0  0  0  0  0  0  0  0  0  0
   -2.5663   -3.2154   -5.8054 H   0  0  0  0  0  0  0  0  0  0  0  0
   -1.7158   -2.7815   -7.3269 H   0  0  0  0  0  0  0  0  0  0  0  0
  1  3  1  0  0  0  0
  1  7  1  0  0  0  0
  1  2  2  0  0  0  0
 23 25  1  0  0  0  0
 23 29  1  0  0  0  0
 23 24  2  0  0  0  0
 50 51  1  0  0  0  0
 51 59  1  0  0  0  0
 51 52  2  0  0  0  0
  8  9  1  0  0  0  0
  9 17  1  0  0  0  0
  9 10  2  0  0  0  0
 30 31  1  0  0  0  0
 31 39  1  0  0  0  0
 31 32  2  0  0  0  0
 40 41  1  0  0  0  0
 41 49  1  0  0  0  0
 41 42  2  0  0  0  0
 50 53  1  0  0  0  0
 30 33  1  0  0  0  0
 59 60  1  0  0  0  0
 17 18  1  0  0  0  0
  8 11  1  0  0  0  0
 11 12  1  0  0  0  0
 40 43  1  0  0  0  0
 43 44  1  0  0  0  0
 49 50  1  0  0  0  0
  7  8  1  0  0  0  0
 29 30  1  0  0  0  0
 39 40  1  0  0  0  0
 12 44  1  0  0  0  0
  3  4  1  0  0  0  0
  3  5  1  0  0  0  0
  3  6  1  0  0  0  0
 25 26  1  0  0  0  0
 25 27  1  0  0  0  0
 25 28  1  0  0  0  0
 53 56  1  0  0  0  0
 53 57  1  0  0  0  0
 53 58  1  0  0  0  0
 33 36  1  0  0  0  0
 33 37  1  0  0  0  0
 33 38  1  0  0  0  0
 60 62  1  0  0  0  0
 60 63  1  0  0  0  0
 60 64  1  0  0  0  0
 18 20  1  0  0  0  0
 18 21  1  0  0  0  0
 18 22  1  0  0  0  0
 11 15  1  0  0  0  0
 11 16  1  0  0  0  0
 43 47  1  0  0  0  0
 43 48  1  0  0  0  0
 50 55  1  0  0  0  0
  8 14  1  0  0  0  0
 30 35  1  0  0  0  0
 40 46  1  0  0  0  0
 59 61  1  0  0  0  0
 17 19  1  0  0  0  0
  7 13  1  0  0  0  0
 29 34  1  0  0  0  0
 49 54  1  0  0  0  0
 39 45  1  0  0  0  0
M  END
$$$$

  -OEChem-05262214473D

 64 63  0     1  0  0  0  0  0999 V2000
   -2.9196   -0.9613    6.4512 C   0  0  0  0  0  0  0  0  0  0  0  0
   -4.0717   -1.2205    6.1237 O   0  0  0  0  0  0  0  0  0  0  0  0
   -2.6533   -0.3572    7.7900 C   0  0  0  0  0  0  0  0  0  0  0  0
   -2.6724    0.7443    7.7656 H   0  0  0  0  0  0  0  0  0  0  0  0
   -3.4086   -0.6449    8.5389 H   0  0  0  0  0  0  0  0  0  0  0  0
   -1.6832   -0.6202    8.2412 H   0  0  0  0  0  0  0  0  0  0  0  0
   -1.7837   -1.1749    5.6896 N   0  0  0  0  0  0  0  0  0  0  0  0
   -1.8136   -1.7495    4.3684 C   0  0  2  0  0  0  0  0  0  0  0  0
   -0.5652   -2.6077    4.1740 C   0  0  0  0  0  0  0  0  0  0  0  0
    0.3447   -2.6627    4.9989 O   0  0  0  0  0  0  0  0  0  0  0  0
   -1.9992   -0.6922    3.2773 C   0  0  0  0  0  0  0  0  0  0  0  0
   -0.6333    0.5109    3.1803 S   0  0  0  0  0  0  0  0  0  0  0  0
   -0.8822   -0.9130    6.0823 H   0  0  0  0  0  0  0  0  0  0  0  0
   -2.6815   -2.4206    4.3585 H   0  0  0  0  0  0  0  0  0  0  0  0
   -2.0887   -1.1659    2.2943 H   0  0  0  0  0  0  0  0  0  0  0  0
   -2.9208   -0.1281    3.4573 H   0  0  0  0  0  0  0  0  0  0  0  0
   -0.5763   -3.2835    2.9621 N   0  0  0  0  0  0  0  0  0  0  0  0
    0.5062   -4.1402    2.5379 C   0  0  0  0  0  0  0  0  0  0  0  0
   -1.3903   -3.2142    2.3585 H   0  0  0  0  0  0  0  0  0  0  0  0
    1.2182   -3.5598    1.9326 H   0  0  0  0  0  0  0  0  0  0  0  0
    1.0212   -4.5450    3.4216 H   0  0  0  0  0  0  0  0  0  0  0  0
    0.1039   -4.9686    1.9364 H   0  0  0  0  0  0  0  0  0  0  0  0
   -6.7256    2.0330   -0.2766 C   0  0  0  0  0  0  0  0  0  0  0  0
   -7.1824    1.1039   -0.9322 O   0  0  0  0  0  0  0  0  0  0  0  0
   -7.5276    2.6077    0.8435 C   0  0  0  0  0  0  0  0  0  0  0  0
   -8.1775    3.4344    0.5145 H   0  0  0  0  0  0  0  0  0  0  0  0
   -8.2057    1.8676    1.2980 H   0  0  0  0  0  0  0  0  0  0  0  0
   -6.9411    3.0162    1.6819 H   0  0  0  0  0  0  0  0  0  0  0  0
   -5.4935    2.6382   -0.4627 N   0  0  0  0  0  0  0  0  0  0  0  0
   -4.5619    2.2388   -1.4845 C   0  0  2  0  0  0  0  0  0  0  0  0
   -3.1535    2.4674   -0.9521 C   0  0  0  0  0  0  0  0  0  0  0  0
   -2.8634    3.3945   -0.1987 O   0  0  0  0  0  0  0  0  0  0  0  0
   -4.7883    3.0138   -2.7732 C   0  0  0  0  0  0  0  0  0  0  0  0
   -5.2337    3.4049    0.1551 H   0  0  0  0  0  0  0  0  0  0  0  0
   -4.7192    1.1682   -1.6549 H   0  0  0  0  0  0  0  0  0  0  0  0
   -4.6352    4.0886   -2.6221 H   0  0  0  0  0  0  0  0  0  0  0  0
   -4.0976    2.6887   -3.5582 H   0  0  0  0  0  0  0  0  0  0  0  0
   -5.8111    2.8719   -3.1387 H   0  0  0  0  0  0  0  0  0  0  0  0
   -2.2466    1.5400   -1.4507 N   0  0  0  0  0  0  0  0  0  0  0  0
   -0.8424    1.5707   -1.1286 C   0  0  2  0  0  0  0  0  0  0  0  0
   -0.0529    0.9965   -2.3032 C   0  0  0  0  0  0  0  0  0  0  0  0
    0.9560    1.5322   -2.7576 O   0  0  0  0  0  0  0  0  0  0  0  0
   -0.5351    0.8825    0.2037 C   0  0  0  0  0  0  0  0  0  0  0  0
   -1.2615    1.7125    1.6376 S   0  0  0  0  0  0  0  0  0  0  0  0
   -2.5850    0.7815   -2.0381 H   0  0  0  0  0  0  0  0  0  0  0  0
   -0.5829    2.6332   -1.0431 H   0  0  0  0  0  0  0  0  0  0  0  0
   -0.9063   -0.1476    0.1988 H   0  0  0  0  0  0  0  0  0  0  0  0
    0.5480    0.8426    0.3619 H   0  0  0  0  0  0  0  0  0  0  0  0
   -0.6214   -0.1686   -2.7982 N   0  0  0  0  0  0  0  0  0  0  0  0
   -0.0715   -0.8862   -3.9244 C   0  0  2  0  0  0  0  0  0  0  0  0
   -1.2257   -1.5321   -4.6795 C   0  0  0  0  0  0  0  0  0  0  0  0
   -2.2343   -1.9617   -4.1233 O   0  0  0  0  0  0  0  0  0  0  0  0
    0.9371   -1.9320   -3.4751 C   0  0  0  0  0  0  0  0  0  0  0  0
   -1.4327   -0.5656   -2.3336 H   0  0  0  0  0  0  0  0  0  0  0  0
    0.4150   -0.1433   -4.5658 H   0  0  0  0  0  0  0  0  0  0  0  0
    0.4679   -2.6850   -2.8314 H   0  0  0  0  0  0  0  0  0  0  0  0
    1.3741   -2.4556   -4.3318 H   0  0  0  0  0  0  0  0  0  0  0  0
    1.7511   -1.4695   -2.9066 H   0  0  0  0  0  0  0  0  0  0  0  0
   -0.9780   -1.6115   -6.0428 N   0  0  0  0  0  0  0  0  0  0  0  0
   -1.9030   -2.2218   -6.9690 C   0  0  0  0  0  0  0  0  0  0  0  0
   -0.1336   -1.1937   -6.4224 H   0  0  0  0  0  0  0  0  0  0  0  0
   -1.6439   -3.2826   -7.1014 H   0  0  0  0  0  0  0  0  0  0  0  0
   -2.9258   -2.1412   -6.5722 H   0  0  0  0  0  0  0  0  0  0  0  0
   -1.8443   -1.7063   -7.9389 H   0  0  0  0  0  0  0  0  0  0  0  0
  1  3  1  0  0  0  0
  1  7  1  0  0  0  0
  1  2  2  0  0  0  0
 23 25  1  0  0  0  0
 23 29  1  0  0  0  0
 23 24  2  0  0  0  0
 50 51  1  0  0  0  0
 51 59  1  0  0  0  0
 51 52  2  0  0  0  0
  8  9  1  0  0  0  0
  9 17  1  0  0  0  0
  9 10  2  0  0  0  0
 30 31  1  0  0  0  0
 31 39  1  0  0  0  0
 31 32  2  0  0  0  0
 40 41  1  0  0  0  0
 41 49  1  0  0  0  0
 41 42  2  0  0  0  0
 50 53  1  0  0  0  0
 30 33  1  0  0  0  0
 59 60  1  0  0  0  0
 17 18  1  0  0  0  0
  8 11  1  0  0  0  0
 11 12  1  0  0  0  0
 40 43  1  0  0  0  0
 43 44  1  0  0  0  0
 49 50  1  0  0  0  0
  7  8  1  0  0  0  0
 29 30  1  0  0  0  0
 39 40  1  0  0  0  0
 12 44  1  0  0  0  0
  3  4  1  0  0  0  0
  3  5  1  0  0  0  0
  3  6  1  0  0  0  0
 25 26  1  0  0  0  0
 25 27  1  0  0  0  0
 25 28  1  0  0  0  0
 53 56  1  0  0  0  0
 53 57  1  0  0  0  0
 53 58  1  0  0  0  0
 33 36  1  0  0  0  0
 33 37  1  0  0  0  0
 33 38  1  0  0  0  0
 60 62  1  0  0  0  0
 60 63  1  0  0  0  0
 60 64  1  0  0  0  0
 18 20  1  0  0  0  0
 18 21  1  0  0  0  0
 18 22  1  0  0  0  0
 11 15  1  0  0  0  0
 11 16  1  0  0  0  0
 43 47  1  0  0  0  0
 43 48  1  0  0  0  0
 50 55  1  0  0  0  0
  8 14  1  0  0  0  0
 30 35  1  0  0  0  0
 40 46  1  0  0  0  0
 59 61  1  0  0  0  0
 17 19  1  0  0  0  0
  7 13  1  0  0  0  0
 29 34  1  0  0  0  0
 49 54  1  0  0  0  0
 39 45  1  0  0  0  0
M  END
$$$$

  -OEChem-05262214473D

 64 63  0     1  0  0  0  0  0999 V2000
   -2.9196   -0.9613    6.4512 C   0  0  0  0  0  0  0  0  0  0  0  0
   -4.0717   -1.2205    6.1237 O   0  0  0  0  0  0  0  0  0  0  0  0
   -2.6533   -0.3572    7.7900 C   0  0  0  0  0  0  0  0  0  0  0  0
   -2.6724    0.7443    7.7656 H   0  0  0  0  0  0  0  0  0  0  0  0
   -3.4086   -0.6449    8.5389 H   0  0  0  0  0  0  0  0  0  0  0  0
   -1.6832   -0.6202    8.2412 H   0  0  0  0  0  0  0  0  0  0  0  0
   -1.7837   -1.1749    5.6896 N   0  0  0  0  0  0  0  0  0  0  0  0
   -1.8136   -1.7495    4.3684 C   0  0  2  0  0  0  0  0  0  0  0  0
   -0.5652   -2.6077    4.1740 C   0  0  0  0  0  0  0  0  0  0  0  0
    0.3447   -2.6627    4.9989 O   0  0  0  0  0  0  0  0  0  0  0  0
   -1.9992   -0.6922    3.2773 C   0  0  0  0  0  0  0  0  0  0  0  0
   -0.6333    0.5109    3.1803 S   0  0  0  0  0  0  0  0  0  0  0  0
   -0.8822   -0.9130    6.0823 H   0  0  0  0  0  0  0  0  0  0  0  0
   -2.6815   -2.4206    4.3585 H   0  0  0  0  0  0  0  0  0  0  0  0
   -2.0887   -1.1659    2.2943 H   0  0  0  0  0  0  0  0  0  0  0  0
   -2.9208   -0.1281    3.4573 H   0  0  0  0  0  0  0  0  0  0  0  0
   -0.5763   -3.2835    2.9621 N   0  0  0  0  0  0  0  0  0  0  0  0
    0.5062   -4.1402    2.5379 C   0  0  0  0  0  0  0  0  0  0  0  0
   -1.3903   -3.2142    2.3585 H   0  0  0  0  0  0  0  0  0  0  0  0
    1.2182   -3.5598    1.9326 H   0  0  0  0  0  0  0  0  0  0  0  0
    1.0212   -4.5450    3.4216 H   0  0  0  0  0  0  0  0  0  0  0  0
    0.1039   -4.9686    1.9364 H   0  0  0  0  0  0  0  0  0  0  0  0
   -6.7256    2.0330   -0.2766 C   0  0  0  0  0  0  0  0  0  0  0  0
   -7.1824    1.1039   -0.9322 O   0  0  0  0  0  0  0  0  0  0  0  0
   -7.5276    2.6077    0.8435 C   0  0  0  0  0  0  0  0  0  0  0  0
   -8.1775    3.4344    0.5145 H   0  0  0  0  0  0  0  0  0  0  0  0
   -8.2057    1.8676    1.2980 H   0  0  0  0  0  0  0  0  0  0  0  0
   -6.9411    3.0162    1.6819 H   0  0  0  0  0  0  0  0  0  0  0  0
   -5.4935    2.6382   -0.4627 N   0  0  0  0  0  0  0  0  0  0  0  0
   -4.5619    2.2388   -1.4845 C   0  0  2  0  0  0  0  0  0  0  0  0
   -3.1535    2.4674   -0.9521 C   0  0  0  0  0  0  0  0  0  0  0  0
   -2.8634    3.3945   -0.1987 O   0  0  0  0  0  0  0  0  0  0  0  0
   -4.7883    3.0138   -2.7732 C   0  0  0  0  0  0  0  0  0  0  0  0
   -5.2337    3.4049    0.1551 H   0  0  0  0  0  0  0  0  0  0  0  0
   -4.7192    1.1682   -1.6549 H   0  0  0  0  0  0  0  0  0  0  0  0
   -4.6352    4.0886   -2.6221 H   0  0  0  0  0  0  0  0  0  0  0  0
   -4.0976    2.6887   -3.5582 H   0  0  0  0  0  0  0  0  0  0  0  0
   -5.8111    2.8719   -3.1387 H   0  0  0  0  0  0  0  0  0  0  0  0
   -2.2466    1.5400   -1.4507 N   0  0  0  0  0  0  0  0  0  0  0  0
   -0.8424    1.5707   -1.1286 C   0  0  2  0  0  0  0  0  0  0  0  0
   -0.0529    0.9965   -2.3032 C   0  0  0  0  0  0  0  0  0  0  0  0
    1.0842    1.3653   -2.5898 O   0  0  0  0  0  0  0  0  0  0  0  0
   -0.5351    0.8825    0.2037 C   0  0  0  0  0  0  0  0  0  0  0  0
   -1.2615    1.7125    1.6376 S   0  0  0  0  0  0  0  0  0  0  0  0
   -2.5850    0.7815   -2.0381 H   0  0  0  0  0  0  0  0  0  0  0  0
   -0.5829    2.6332   -1.0431 H   0  0  0  0  0  0  0  0  0  0  0  0
   -0.9063   -0.1476    0.1988 H   0  0  0  0  0  0  0  0  0  0  0  0
    0.5480    0.8426    0.3619 H   0  0  0  0  0  0  0  0  0  0  0  0
   -0.7765    0.0438   -3.0063 N   0  0  0  0  0  0  0  0  0  0  0  0
   -0.2536   -0.6264   -4.1738 C   0  0  2  0  0  0  0  0  0  0  0  0
   -1.4195   -0.9224   -5.1079 C   0  0  0  0  0  0  0  0  0  0  0  0
   -2.5473   -1.2009   -4.7056 O   0  0  0  0  0  0  0  0  0  0  0  0
    0.4787   -1.9047   -3.7965 C   0  0  0  0  0  0  0  0  0  0  0  0
   -1.6954   -0.2324   -2.6731 H   0  0  0  0  0  0  0  0  0  0  0  0
    0.4349    0.0742   -4.6588 H   0  0  0  0  0  0  0  0  0  0  0  0
   -0.1950   -2.6190   -3.3093 H   0  0  0  0  0  0  0  0  0  0  0  0
    0.8991   -2.3966   -4.6799 H   0  0  0  0  0  0  0  0  0  0  0  0
    1.2984   -1.6935   -3.1013 H   0  0  0  0  0  0  0  0  0  0  0  0
   -1.0422   -0.8815   -6.4428 N   0  0  0  0  0  0  0  0  0  0  0  0
   -1.9589   -1.1689   -7.5213 C   0  0  0  0  0  0  0  0  0  0  0  0
   -0.0964   -0.6025   -6.6864 H   0  0  0  0  0  0  0  0  0  0  0  0
   -1.8956   -2.2356   -7.7825 H   0  0  0  0  0  0  0  0  0  0  0  0
   -2.9846   -0.9295   -7.2041 H   0  0  0  0  0  0  0  0  0  0  0  0
   -1.6949   -0.5604   -8.3987 H   0  0  0  0  0  0  0  0  0  0  0  0
  1  3  1  0  0  0  0
  1  7  1  0  0  0  0
  1  2  2  0  0  0  0
 23 25  1  0  0  0  0
 23 29  1  0  0  0  0
 23 24  2  0  0  0  0
 50 51  1  0  0  0  0
 51 59  1  0  0  0  0
 51 52  2  0  0  0  0
  8  9  1  0  0  0  0
  9 17  1  0  0  0  0
  9 10  2  0  0  0  0
 30 31  1  0  0  0  0
 31 39  1  0  0  0  0
 31 32  2  0  0  0  0
 40 41  1  0  0  0  0
 41 49  1  0  0  0  0
 41 42  2  0  0  0  0
 50 53  1  0  0  0  0
 30 33  1  0  0  0  0
 59 60  1  0  0  0  0
 17 18  1  0  0  0  0
  8 11  1  0  0  0  0
 11 12  1  0  0  0  0
 40 43  1  0  0  0  0
 43 44  1  0  0  0  0
 49 50  1  0  0  0  0
  7  8  1  0  0  0  0
 29 30  1  0  0  0  0
 39 40  1  0  0  0  0
 12 44  1  0  0  0  0
  3  4  1  0  0  0  0
  3  5  1  0  0  0  0
  3  6  1  0  0  0  0
 25 26  1  0  0  0  0
 25 27  1  0  0  0  0
 25 28  1  0  0  0  0
 53 56  1  0  0  0  0
 53 57  1  0  0  0  0
 53 58  1  0  0  0  0
 33 36  1  0  0  0  0
 33 37  1  0  0  0  0
 33 38  1  0  0  0  0
 60 62  1  0  0  0  0
 60 63  1  0  0  0  0
 60 64  1  0  0  0  0
 18 20  1  0  0  0  0
 18 21  1  0  0  0  0
 18 22  1  0  0  0  0
 11 15  1  0  0  0  0
 11 16  1  0  0  0  0
 43 47  1  0  0  0  0
 43 48  1  0  0  0  0
 50 55  1  0  0  0  0
  8 14  1  0  0  0  0
 30 35  1  0  0  0  0
 40 46  1  0  0  0  0
 59 61  1  0  0  0  0
 17 19  1  0  0  0  0
  7 13  1  0  0  0  0
 29 34  1  0  0  0  0
 49 54  1  0  0  0  0
 39 45  1  0  0  0  0
M  END
$$$$

  -OEChem-05262214473D

 64 63  0     1  0  0  0  0  0999 V2000
   -2.9196   -0.9613    6.4512 C   0  0  0  0  0  0  0  0  0  0  0  0
   -4.0717   -1.2205    6.1237 O   0  0  0  0  0  0  0  0  0  0  0  0
   -2.6533   -0.3572    7.7900 C   0  0  0  0  0  0  0  0  0  0  0  0
   -2.6724    0.7443    7.7656 H   0  0  0  0  0  0  0  0  0  0  0  0
   -3.4086   -0.6449    8.5389 H   0  0  0  0  0  0  0  0  0  0  0  0
   -1.6832   -0.6202    8.2412 H   0  0  0  0  0  0  0  0  0  0  0  0
   -1.7837   -1.1749    5.6896 N   0  0  0  0  0  0  0  0  0  0  0  0
   -1.8136   -1.7495    4.3684 C   0  0  2  0  0  0  0  0  0  0  0  0
   -0.5652   -2.6077    4.1740 C   0  0  0  0  0  0  0  0  0  0  0  0
    0.3447   -2.6627    4.9989 O   0  0  0  0  0  0  0  0  0  0  0  0
   -1.9992   -0.6922    3.2773 C   0  0  0  0  0  0  0  0  0  0  0  0
   -0.6333    0.5109    3.1803 S   0  0  0  0  0  0  0  0  0  0  0  0
   -0.8822   -0.9130    6.0823 H   0  0  0  0  0  0  0  0  0  0  0  0
   -2.6815   -2.4206    4.3585 H   0  0  0  0  0  0  0  0  0  0  0  0
   -2.0887   -1.1659    2.2943 H   0  0  0  0  0  0  0  0  0  0  0  0
   -2.9208   -0.1281    3.4573 H   0  0  0  0  0  0  0  0  0  0  0  0
   -0.5763   -3.2835    2.9621 N   0  0  0  0  0  0  0  0  0  0  0  0
    0.5062   -4.1402    2.5379 C   0  0  0  0  0  0  0  0  0  0  0  0
   -1.3903   -3.2142    2.3585 H   0  0  0  0  0  0  0  0  0  0  0  0
    1.2182   -3.5598    1.9326 H   0  0  0  0  0  0  0  0  0  0  0  0
    1.0212   -4.5450    3.4216 H   0  0  0  0  0  0  0  0  0  0  0  0
    0.1039   -4.9686    1.9364 H   0  0  0  0  0  0  0  0  0  0  0  0
   -6.7256    2.0330   -0.2766 C   0  0  0  0  0  0  0  0  0  0  0  0
   -7.1824    1.1039   -0.9322 O   0  0  0  0  0  0  0  0  0  0  0  0
   -7.5276    2.6077    0.8435 C   0  0  0  0  0  0  0  0  0  0  0  0
   -8.1775    3.4344    0.5145 H   0  0  0  0  0  0  0  0  0  0  0  0
   -8.2057    1.8676    1.2980 H   0  0  0  0  0  0  0  0  0  0  0  0
   -6.9411    3.0162    1.6819 H   0  0  0  0  0  0  0  0  0  0  0  0
   -5.4935    2.6382   -0.4627 N   0  0  0  0  0  0  0  0  0  0  0  0
   -4.5619    2.2388   -1.4845 C   0  0  2  0  0  0  0  0  0  0  0  0
   -3.1535    2.4674   -0.9521 C   0  0  0  0  0  0  0  0  0  0  0  0
   -2.8634    3.3945   -0.1987 O   0  0  0  0  0  0  0  0  0  0  0  0
   -4.7883    3.0138   -2.7732 C   0  0  0  0  0  0  0  0  0  0  0  0
   -5.2337    3.4049    0.1551 H   0  0  0  0  0  0  0  0  0  0  0  0
   -4.7192    1.1682   -1.6549 H   0  0  0  0  0  0  0  0  0  0  0  0
   -4.6352    4.0886   -2.6221 H   0  0  0  0  0  0  0  0  0  0  0  0
   -4.0976    2.6887   -3.5582 H   0  0  0  0  0  0  0  0  0  0  0  0
   -5.8111    2.8719   -3.1387 H   0  0  0  0  0  0  0  0  0  0  0  0
   -2.2466    1.5400   -1.4507 N   0  0  0  0  0  0  0  0  0  0  0  0
   -0.8424    1.5707   -1.1286 C   0  0  2  0  0  0  0  0  0  0  0  0
   -0.0529    0.9965   -2.3032 C   0  0  0  0  0  0  0  0  0  0  0  0
    1.1586    1.1562   -2.4376 O   0  0  0  0  0  0  0  0  0  0  0  0
   -0.5351    0.8825    0.2037 C   0  0  0  0  0  0  0  0  0  0  0  0
   -1.2615    1.7125    1.6376 S   0  0  0  0  0  0  0  0  0  0  0  0
   -2.5850    0.7815   -2.0381 H   0  0  0  0  0  0  0  0  0  0  0  0
   -0.5829    2.6332   -1.0431 H   0  0  0  0  0  0  0  0  0  0  0  0
   -0.9063   -0.1476    0.1988 H   0  0  0  0  0  0  0  0  0  0  0  0
    0.5480    0.8426    0.3619 H   0  0  0  0  0  0  0  0  0  0  0  0
   -0.8638    0.3076   -3.1939 N   0  0  0  0  0  0  0  0  0  0  0  0
   -0.3535   -0.3058   -4.3977 C   0  0  2  0  0  0  0  0  0  0  0  0
   -1.4438   -0.2376   -5.4589 C   0  0  0  0  0  0  0  0  0  0  0  0
   -2.6415   -0.3258   -5.1967 O   0  0  0  0  0  0  0  0  0  0  0  0
    0.0728   -1.7441   -4.1479 C   0  0  0  0  0  0  0  0  0  0  0  0
   -1.8499    0.1872   -2.9820 H   0  0  0  0  0  0  0  0  0  0  0  0
    0.5063    0.2928   -4.7177 H   0  0  0  0  0  0  0  0  0  0  0  0
   -0.7756   -2.3593   -3.8265 H   0  0  0  0  0  0  0  0  0  0  0  0
    0.4859   -2.1986   -5.0545 H   0  0  0  0  0  0  0  0  0  0  0  0
    0.8356   -1.7939   -3.3634 H   0  0  0  0  0  0  0  0  0  0  0  0
   -0.9200   -0.1100   -6.7378 N   0  0  0  0  0  0  0  0  0  0  0  0
   -1.7496   -0.0669   -7.9193 C   0  0  0  0  0  0  0  0  0  0  0  0
    0.0829   -0.0036   -6.8587 H   0  0  0  0  0  0  0  0  0  0  0  0
   -1.8642   -1.0829   -8.3248 H   0  0  0  0  0  0  0  0  0  0  0  0
   -2.7387    0.3373   -7.6581 H   0  0  0  0  0  0  0  0  0  0  0  0
   -1.2778    0.5784   -8.6750 H   0  0  0  0  0  0  0  0  0  0  0  0
  1  3  1  0  0  0  0
  1  7  1  0  0  0  0
  1  2  2  0  0  0  0
 23 25  1  0  0  0  0
 23 29  1  0  0  0  0
 23 24  2  0  0  0  0
 50 51  1  0  0  0  0
 51 59  1  0  0  0  0
 51 52  2  0  0  0  0
  8  9  1  0  0  0  0
  9 17  1  0  0  0  0
  9 10  2  0  0  0  0
 30 31  1  0  0  0  0
 31 39  1  0  0  0  0
 31 32  2  0  0  0  0
 40 41  1  0  0  0  0
 41 49  1  0  0  0  0
 41 42  2  0  0  0  0
 50 53  1  0  0  0  0
 30 33  1  0  0  0  0
 59 60  1  0  0  0  0
 17 18  1  0  0  0  0
  8 11  1  0  0  0  0
 11 12  1  0  0  0  0
 40 43  1  0  0  0  0
 43 44  1  0  0  0  0
 49 50  1  0  0  0  0
  7  8  1  0  0  0  0
 29 30  1  0  0  0  0
 39 40  1  0  0  0  0
 12 44  1  0  0  0  0
  3  4  1  0  0  0  0
  3  5  1  0  0  0  0
  3  6  1  0  0  0  0
 25 26  1  0  0  0  0
 25 27  1  0  0  0  0
 25 28  1  0  0  0  0
 53 56  1  0  0  0  0
 53 57  1  0  0  0  0
 53 58  1  0  0  0  0
 33 36  1  0  0  0  0
 33 37  1  0  0  0  0
 33 38  1  0  0  0  0
 60 62  1  0  0  0  0
 60 63  1  0  0  0  0
 60 64  1  0  0  0  0
 18 20  1  0  0  0  0
 18 21  1  0  0  0  0
 18 22  1  0  0  0  0
 11 15  1  0  0  0  0
 11 16  1  0  0  0  0
 43 47  1  0  0  0  0
 43 48  1  0  0  0  0
 50 55  1  0  0  0  0
  8 14  1  0  0  0  0
 30 35  1  0  0  0  0
 40 46  1  0  0  0  0
 59 61  1  0  0  0  0
 17 19  1  0  0  0  0
  7 13  1  0  0  0  0
 29 34  1  0  0  0  0
 49 54  1  0  0  0  0
 39 45  1  0  0  0  0
M  END
$$$$

  -OEChem-05262214473D

 64 63  0     1  0  0  0  0  0999 V2000
   -2.9196   -0.9613    6.4512 C   0  0  0  0  0  0  0  0  0  0  0  0
   -4.0717   -1.2205    6.1237 O   0  0  0  0  0  0  0  0  0  0  0  0
   -2.6533   -0.3572    7.7900 C   0  0  0  0  0  0  0  0  0  0  0  0
   -2.6724    0.7443    7.7656 H   0  0  0  0  0  0  0  0  0  0  0  0
   -3.4086   -0.6449    8.5389 H   0  0  0  0  0  0  0  0  0  0  0  0
   -1.6832   -0.6202    8.2412 H   0  0  0  0  0  0  0  0  0  0  0  0
   -1.7837   -1.1749    5.6896 N   0  0  0  0  0  0  0  0  0  0  0  0
   -1.8136   -1.7495    4.3684 C   0  0  2  0  0  0  0  0  0  0  0  0
   -0.5652   -2.6077    4.1740 C   0  0  0  0  0  0  0  0  0  0  0  0
    0.3447   -2.6627    4.9989 O   0  0  0  0  0  0  0  0  0  0  0  0
   -1.9992   -0.6922    3.2773 C   0  0  0  0  0  0  0  0  0  0  0  0
   -0.6333    0.5109    3.1803 S   0  0  0  0  0  0  0  0  0  0  0  0
   -0.8822   -0.9130    6.0823 H   0  0  0  0  0  0  0  0  0  0  0  0
   -2.6815   -2.4206    4.3585 H   0  0  0  0  0  0  0  0  0  0  0  0
   -2.0887   -1.1659    2.2943 H   0  0  0  0  0  0  0  0  0  0  0  0
   -2.9208   -0.1281    3.4573 H   0  0  0  0  0  0  0  0  0  0  0  0
   -0.5763   -3.2835    2.9621 N   0  0  0  0  0  0  0  0  0  0  0  0
    0.5062   -4.1402    2.5379 C   0  0  0  0  0  0  0  0  0  0  0  0
   -1.3903   -3.2142    2.3585 H   0  0  0  0  0  0  0  0  0  0  0  0
    1.2182   -3.5598    1.9326 H   0  0  0  0  0  0  0  0  0  0  0  0
    1.0212   -4.5450    3.4216 H   0  0  0  0  0  0  0  0  0  0  0  0
    0.1039   -4.9686    1.9364 H   0  0  0  0  0  0  0  0  0  0  0  0
   -6.7256    2.0330   -0.2766 C   0  0  0  0  0  0  0  0  0  0  0  0
   -7.1824    1.1039   -0.9322 O   0  0  0  0  0  0  0  0  0  0  0  0
   -7.5276    2.6077    0.8435 C   0  0  0  0  0  0  0  0  0  0  0  0
   -8.1775    3.4344    0.5145 H   0  0  0  0  0  0  0  0  0  0  0  0
   -8.2057    1.8676    1.2980 H   0  0  0  0  0  0  0  0  0  0  0  0
   -6.9411    3.0162    1.6819 H   0  0  0  0  0  0  0  0  0  0  0  0
   -5.4935    2.6382   -0.4627 N   0  0  0  0  0  0  0  0  0  0  0  0
   -4.5619    2.2388   -1.4845 C   0  0  2  0  0  0  0  0  0  0  0  0
   -3.1535    2.4674   -0.9521 C   0  0  0  0  0  0  0  0  0  0  0  0
   -2.8634    3.3945   -0.1987 O   0  0  0  0  0  0  0  0  0  0  0  0
   -4.7883    3.0138   -2.7732 C   0  0  0  0  0  0  0  0  0  0  0  0
   -5.2337    3.4049    0.1551 H   0  0  0  0  0  0  0  0  0  0  0  0
   -4.7192    1.1682   -1.6549 H   0  0  0  0  0  0  0  0  0  0  0  0
   -4.6352    4.0886   -2.6221 H   0  0  0  0  0  0  0  0  0  0  0  0
   -4.0976    2.6887   -3.5582 H   0  0  0  0  0  0  0  0  0  0  0  0
   -5.8111    2.8719   -3.1387 H   0  0  0  0  0  0  0  0  0  0  0  0
   -2.2466    1.5400   -1.4507 N   0  0  0  0  0  0  0  0  0  0  0  0
   -0.8424    1.5707   -1.1286 C   0  0  2  0  0  0  0  0  0  0  0  0
   -0.0529    0.9965   -2.3032 C   0  0  0  0  0  0  0  0  0  0  0  0
    1.1740    0.9190   -2.3113 O   0  0  0  0  0  0  0  0  0  0  0  0
   -0.5351    0.8825    0.2037 C   0  0  0  0  0  0  0  0  0  0  0  0
   -1.2615    1.7125    1.6376 S   0  0  0  0  0  0  0  0  0  0  0  0
   -2.5850    0.7815   -2.0381 H   0  0  0  0  0  0  0  0  0  0  0  0
   -0.5829    2.6332   -1.0431 H   0  0  0  0  0  0  0  0  0  0  0  0
   -0.9063   -0.1476    0.1988 H   0  0  0  0  0  0  0  0  0  0  0  0
    0.5480    0.8426    0.3619 H   0  0  0  0  0  0  0  0  0  0  0  0
   -0.8774    0.6050   -3.3484 N   0  0  0  0  0  0  0  0  0  0  0  0
   -0.3644    0.0537   -4.5808 C   0  0  2  0  0  0  0  0  0  0  0  0
   -1.2967    0.4756   -5.7087 C   0  0  0  0  0  0  0  0  0  0  0  0
   -2.5105    0.6038   -5.5632 O   0  0  0  0  0  0  0  0  0  0  0  0
   -0.2532   -1.4611   -4.5054 C   0  0  0  0  0  0  0  0  0  0  0  0
   -1.8855    0.6646   -3.2393 H   0  0  0  0  0  0  0  0  0  0  0  0
    0.6246    0.4976   -4.7383 H   0  0  0  0  0  0  0  0  0  0  0  0
   -1.2344   -1.9237   -4.3478 H   0  0  0  0  0  0  0  0  0  0  0  0
    0.1626   -1.8750   -5.4300 H   0  0  0  0  0  0  0  0  0  0  0  0
    0.3940   -1.7636   -3.6750 H   0  0  0  0  0  0  0  0  0  0  0  0
   -0.6197    0.6503   -6.9076 N   0  0  0  0  0  0  0  0  0  0  0  0
   -1.2893    1.0092   -8.1360 C   0  0  0  0  0  0  0  0  0  0  0  0
    0.3921    0.5623   -6.9276 H   0  0  0  0  0  0  0  0  0  0  0  0
   -1.5516    0.0967   -8.6914 H   0  0  0  0  0  0  0  0  0  0  0  0
   -2.2049    1.5726   -7.9032 H   0  0  0  0  0  0  0  0  0  0  0  0
   -0.6213    1.6322   -8.7490 H   0  0  0  0  0  0  0  0  0  0  0  0
  1  3  1  0  0  0  0
  1  7  1  0  0  0  0
  1  2  2  0  0  0  0
 23 25  1  0  0  0  0
 23 29  1  0  0  0  0
 23 24  2  0  0  0  0
 50 51  1  0  0  0  0
 51 59  1  0  0  0  0
 51 52  2  0  0  0  0
  8  9  1  0  0  0  0
  9 17  1  0  0  0  0
  9 10  2  0  0  0  0
 30 31  1  0  0  0  0
 31 39  1  0  0  0  0
 31 32  2  0  0  0  0
 40 41  1  0  0  0  0
 41 49  1  0  0  0  0
 41 42  2  0  0  0  0
 50 53  1  0  0  0  0
 30 33  1  0  0  0  0
 59 60  1  0  0  0  0
 17 18  1  0  0  0  0
  8 11  1  0  0  0  0
 11 12  1  0  0  0  0
 40 43  1  0  0  0  0
 43 44  1  0  0  0  0
 49 50  1  0  0  0  0
  7  8  1  0  0  0  0
 29 30  1  0  0  0  0
 39 40  1  0  0  0  0
 12 44  1  0  0  0  0
  3  4  1  0  0  0  0
  3  5  1  0  0  0  0
  3  6  1  0  0  0  0
 25 26  1  0  0  0  0
 25 27  1  0  0  0  0
 25 28  1  0  0  0  0
 53 56  1  0  0  0  0
 53 57  1  0  0  0  0
 53 58  1  0  0  0  0
 33 36  1  0  0  0  0
 33 37  1  0  0  0  0
 33 38  1  0  0  0  0
 60 62  1  0  0  0  0
 60 63  1  0  0  0  0
 60 64  1  0  0  0  0
 18 20  1  0  0  0  0
 18 21  1  0  0  0  0
 18 22  1  0  0  0  0
 11 15  1  0  0  0  0
 11 16  1  0  0  0  0
 43 47  1  0  0  0  0
 43 48  1  0  0  0  0
 50 55  1  0  0  0  0
  8 14  1  0  0  0  0
 30 35  1  0  0  0  0
 40 46  1  0  0  0  0
 59 61  1  0  0  0  0
 17 19  1  0  0  0  0
  7 13  1  0  0  0  0
 29 34  1  0  0  0  0
 49 54  1  0  0  0  0
 39 45  1  0  0  0  0
M  END
$$$$

  -OEChem-05262214473D

 64 63  0     1  0  0  0  0  0999 V2000
   -2.9196   -0.9613    6.4512 C   0  0  0  0  0  0  0  0  0  0  0  0
   -4.0717   -1.2205    6.1237 O   0  0  0  0  0  0  0  0  0  0  0  0
   -2.6533   -0.3572    7.7900 C   0  0  0  0  0  0  0  0  0  0  0  0
   -2.6724    0.7443    7.7656 H   0  0  0  0  0  0  0  0  0  0  0  0
   -3.4086   -0.6449    8.5389 H   0  0  0  0  0  0  0  0  0  0  0  0
   -1.6832   -0.6202    8.2412 H   0  0  0  0  0  0  0  0  0  0  0  0
   -1.7837   -1.1749    5.6896 N   0  0  0  0  0  0  0  0  0  0  0  0
   -1.8136   -1.7495    4.3684 C   0  0  2  0  0  0  0  0  0  0  0  0
   -0.5652   -2.6077    4.1740 C   0  0  0  0  0  0  0  0  0  0  0  0
    0.3447   -2.6627    4.9989 O   0  0  0  0  0  0  0  0  0  0  0  0
   -1.9992   -0.6922    3.2773 C   0  0  0  0  0  0  0  0  0  0  0  0
   -0.6333    0.5109    3.1803 S   0  0  0  0  0  0  0  0  0  0  0  0
   -0.8822   -0.9130    6.0823 H   0  0  0  0  0  0  0  0  0  0  0  0
   -2.6815   -2.4206    4.3585 H   0  0  0  0  0  0  0  0  0  0  0  0
   -2.0887   -1.1659    2.2943 H   0  0  0  0  0  0  0  0  0  0  0  0
   -2.9208   -0.1281    3.4573 H   0  0  0  0  0  0  0  0  0  0  0  0
   -0.5763   -3.2835    2.9621 N   0  0  0  0  0  0  0  0  0  0  0  0
    0.5062   -4.1402    2.5379 C   0  0  0  0  0  0  0  0  0  0  0  0
   -1.3903   -3.2142    2.3585 H   0  0  0  0  0  0  0  0  0  0  0  0
    1.2182   -3.5598    1.9326 H   0  0  0  0  0  0  0  0  0  0  0  0
    1.0212   -4.5450    3.4216 H   0  0  0  0  0  0  0  0  0  0  0  0
    0.1039   -4.9686    1.9364 H   0  0  0  0  0  0  0  0  0  0  0  0
   -6.7256    2.0330   -0.2766 C   0  0  0  0  0  0  0  0  0  0  0  0
   -7.1824    1.1039   -0.9322 O   0  0  0  0  0  0  0  0  0  0  0  0
   -7.5276    2.6077    0.8435 C   0  0  0  0  0  0  0  0  0  0  0  0
   -8.1775    3.4344    0.5145 H   0  0  0  0  0  0  0  0  0  0  0  0
   -8.2057    1.8676    1.2980 H   0  0  0  0  0  0  0  0  0  0  0  0
   -6.9411    3.0162    1.6819 H   0  0  0  0  0  0  0  0  0  0  0  0
   -5.4935    2.6382   -0.4627 N   0  0  0  0  0  0  0  0  0  0  0  0
   -4.5619    2.2388   -1.4845 C   0  0  2  0  0  0  0  0  0  0  0  0
   -3.1535    2.4674   -0.9521 C   0  0  0  0  0  0  0  0  0  0  0  0
   -2.8634    3.3945   -0.1987 O   0  0  0  0  0  0  0  0  0  0  0  0
   -4.7883    3.0138   -2.7732 C   0  0  0  0  0  0  0  0  0  0  0  0
   -5.2337    3.4049    0.1551 H   0  0  0  0  0  0  0  0  0  0  0  0
   -4.7192    1.1682   -1.6549 H   0  0  0  0  0  0  0  0  0  0  0  0
   -4.6352    4.0886   -2.6221 H   0  0  0  0  0  0  0  0  0  0  0  0
   -4.0976    2.6887   -3.5582 H   0  0  0  0  0  0  0  0  0  0  0  0
   -5.8111    2.8719   -3.1387 H   0  0  0  0  0  0  0  0  0  0  0  0
   -2.2466    1.5400   -1.4507 N   0  0  0  0  0  0  0  0  0  0  0  0
   -0.8424    1.5707   -1.1286 C   0  0  2  0  0  0  0  0  0  0  0  0
   -0.0529    0.9965   -2.3032 C   0  0  0  0  0  0  0  0  0  0  0  0
    1.1293    0.6699   -2.2196 O   0  0  0  0  0  0  0  0  0  0  0  0
   -0.5351    0.8825    0.2037 C   0  0  0  0  0  0  0  0  0  0  0  0
   -1.2615    1.7125    1.6376 S   0  0  0  0  0  0  0  0  0  0  0  0
   -2.5850    0.7815   -2.0381 H   0  0  0  0  0  0  0  0  0  0  0  0
   -0.5829    2.6332   -1.0431 H   0  0  0  0  0  0  0  0  0  0  0  0
   -0.9063   -0.1476    0.1988 H   0  0  0  0  0  0  0  0  0  0  0  0
    0.5480    0.8426    0.3619 H   0  0  0  0  0  0  0  0  0  0  0  0
   -0.8163    0.9155   -3.4592 N   0  0  0  0  0  0  0  0  0  0  0  0
   -0.2855    0.4276   -4.7106 C   0  0  2  0  0  0  0  0  0  0  0  0
   -0.9883    1.1687   -5.8403 C   0  0  0  0  0  0  0  0  0  0  0  0
   -2.1633    1.5248   -5.7801 O   0  0  0  0  0  0  0  0  0  0  0  0
   -0.4770   -1.0751   -4.8445 C   0  0  0  0  0  0  0  0  0  0  0  0
   -1.7998    1.1673   -3.4275 H   0  0  0  0  0  0  0  0  0  0  0  0
    0.7817    0.6747   -4.7193 H   0  0  0  0  0  0  0  0  0  0  0  0
   -1.5402   -1.3418   -4.8378 H   0  0  0  0  0  0  0  0  0  0  0  0
   -0.0487   -1.4477   -5.7808 H   0  0  0  0  0  0  0  0  0  0  0  0
    0.0038   -1.6047   -4.0150 H   0  0  0  0  0  0  0  0  0  0  0  0
   -0.1617    1.3476   -6.9407 N   0  0  0  0  0  0  0  0  0  0  0  0
   -0.6093    1.9860   -8.1565 C   0  0  0  0  0  0  0  0  0  0  0  0
    0.8100    1.0566   -6.8883 H   0  0  0  0  0  0  0  0  0  0  0  0
   -0.9791    1.2230   -8.8572 H   0  0  0  0  0  0  0  0  0  0  0  0
   -1.4196    2.6924   -7.9227 H   0  0  0  0  0  0  0  0  0  0  0  0
    0.2297    2.5294   -8.6156 H   0  0  0  0  0  0  0  0  0  0  0  0
  1  3  1  0  0  0  0
  1  7  1  0  0  0  0
  1  2  2  0  0  0  0
 23 25  1  0  0  0  0
 23 29  1  0  0  0  0
 23 24  2  0  0  0  0
 50 51  1  0  0  0  0
 51 59  1  0  0  0  0
 51 52  2  0  0  0  0
  8  9  1  0  0  0  0
  9 17  1  0  0  0  0
  9 10  2  0  0  0  0
 30 31  1  0  0  0  0
 31 39  1  0  0  0  0
 31 32  2  0  0  0  0
 40 41  1  0  0  0  0
 41 49  1  0  0  0  0
 41 42  2  0  0  0  0
 50 53  1  0  0  0  0
 30 33  1  0  0  0  0
 59 60  1  0  0  0  0
 17 18  1  0  0  0  0
  8 11  1  0  0  0  0
 11 12  1  0  0  0  0
 40 43  1  0  0  0  0
 43 44  1  0  0  0  0
 49 50  1  0  0  0  0
  7  8  1  0  0  0  0
 29 30  1  0  0  0  0
 39 40  1  0  0  0  0
 12 44  1  0  0  0  0
  3  4  1  0  0  0  0
  3  5  1  0  0  0  0
  3  6  1  0  0  0  0
 25 26  1  0  0  0  0
 25 27  1  0  0  0  0
 25 28  1  0  0  0  0
 53 56  1  0  0  0  0
 53 57  1  0  0  0  0
 53 58  1  0  0  0  0
 33 36  1  0  0  0  0
 33 37  1  0  0  0  0
 33 38  1  0  0  0  0
 60 62  1  0  0  0  0
 60 63  1  0  0  0  0
 60 64  1  0  0  0  0
 18 20  1  0  0  0  0
 18 21  1  0  0  0  0
 18 22  1  0  0  0  0
 11 15  1  0  0  0  0
 11 16  1  0  0  0  0
 43 47  1  0  0  0  0
 43 48  1  0  0  0  0
 50 55  1  0  0  0  0
  8 14  1  0  0  0  0
 30 35  1  0  0  0  0
 40 46  1  0  0  0  0
 59 61  1  0  0  0  0
 17 19  1  0  0  0  0
  7 13  1  0  0  0  0
 29 34  1  0  0  0  0
 49 54  1  0  0  0  0
 39 45  1  0  0  0  0
M  END
$$$$

  -OEChem-05262214473D

 64 63  0     1  0  0  0  0  0999 V2000
   -2.9196   -0.9613    6.4512 C   0  0  0  0  0  0  0  0  0  0  0  0
   -4.0717   -1.2205    6.1237 O   0  0  0  0  0  0  0  0  0  0  0  0
   -2.6533   -0.3572    7.7900 C   0  0  0  0  0  0  0  0  0  0  0  0
   -2.6724    0.7443    7.7656 H   0  0  0  0  0  0  0  0  0  0  0  0
   -3.4086   -0.6449    8.5389 H   0  0  0  0  0  0  0  0  0  0  0  0
   -1.6832   -0.6202    8.2412 H   0  0  0  0  0  0  0  0  0  0  0  0
   -1.7837   -1.1749    5.6896 N   0  0  0  0  0  0  0  0  0  0  0  0
   -1.8136   -1.7495    4.3684 C   0  0  2  0  0  0  0  0  0  0  0  0
   -0.5652   -2.6077    4.1740 C   0  0  0  0  0  0  0  0  0  0  0  0
    0.3447   -2.6627    4.9989 O   0  0  0  0  0  0  0  0  0  0  0  0
   -1.9992   -0.6922    3.2773 C   0  0  0  0  0  0  0  0  0  0  0  0
   -0.6333    0.5109    3.1803 S   0  0  0  0  0  0  0  0  0  0  0  0
   -0.8822   -0.9130    6.0823 H   0  0  0  0  0  0  0  0  0  0  0  0
   -2.6815   -2.4206    4.3585 H   0  0  0  0  0  0  0  0  0  0  0  0
   -2.0887   -1.1659    2.2943 H   0  0  0  0  0  0  0  0  0  0  0  0
   -2.9208   -0.1281    3.4573 H   0  0  0  0  0  0  0  0  0  0  0  0
   -0.5763   -3.2835    2.9621 N   0  0  0  0  0  0  0  0  0  0  0  0
    0.5062   -4.1402    2.5379 C   0  0  0  0  0  0  0  0  0  0  0  0
   -1.3903   -3.2142    2.3585 H   0  0  0  0  0  0  0  0  0  0  0  0
    1.2182   -3.5598    1.9326 H   0  0  0  0  0  0  0  0  0  0  0  0
    1.0212   -4.5450    3.4216 H   0  0  0  0  0  0  0  0  0  0  0  0
    0.1039   -4.9686    1.9364 H   0  0  0  0  0  0  0  0  0  0  0  0
   -6.7256    2.0330   -0.2766 C   0  0  0  0  0  0  0  0  0  0  0  0
   -7.1824    1.1039   -0.9322 O   0  0  0  0  0  0  0  0  0  0  0  0
   -7.5276    2.6077    0.8435 C   0  0  0  0  0  0  0  0  0  0  0  0
   -8.1775    3.4344    0.5145 H   0  0  0  0  0  0  0  0  0  0  0  0
   -8.2057    1.8676    1.2980 H   0  0  0  0  0  0  0  0  0  0  0  0
   -6.9411    3.0162    1.6819 H   0  0  0  0  0  0  0  0  0  0  0  0
   -5.4935    2.6382   -0.4627 N   0  0  0  0  0  0  0  0  0  0  0  0
   -4.5619    2.2388   -1.4845 C   0  0  2  0  0  0  0  0  0  0  0  0
   -3.1535    2.4674   -0.9521 C   0  0  0  0  0  0  0  0  0  0  0  0
   -2.8634    3.3945   -0.1987 O   0  0  0  0  0  0  0  0  0  0  0  0
   -4.7883    3.0138   -2.7732 C   0  0  0  0  0  0  0  0  0  0  0  0
   -5.2337    3.4049    0.1551 H   0  0  0  0  0  0  0  0  0  0  0  0
   -4.7192    1.1682   -1.6549 H   0  0  0  0  0  0  0  0  0  0  0  0
   -4.6352    4.0886   -2.6221 H   0  0  0  0  0  0  0  0  0  0  0  0
   -4.0976    2.6887   -3.5582 H   0  0  0  0  0  0  0  0  0  0  0  0
   -5.8111    2.8719   -3.1387 H   0  0  0  0  0  0  0  0  0  0  0  0
   -2.2466    1.5400   -1.4507 N   0  0  0  0  0  0  0  0  0  0  0  0
   -0.8424    1.5707   -1.1286 C   0  0  2  0  0  0  0  0  0  0  0  0
   -0.0529    0.9965   -2.3032 C   0  0  0  0  0  0  0  0  0  0  0  0
    1.0277    0.4260   -2.1686 O   0  0  0  0  0  0  0  0  0  0  0  0
   -0.5351    0.8825    0.2037 C   0  0  0  0  0  0  0  0  0  0  0  0
   -1.2615    1.7125    1.6376 S   0  0  0  0  0  0  0  0  0  0  0  0
   -2.5850    0.7815   -2.0381 H   0  0  0  0  0  0  0  0  0  0  0  0
   -0.5829    2.6332   -1.0431 H   0  0  0  0  0  0  0  0  0  0  0  0
   -0.9063   -0.1476    0.1988 H   0  0  0  0  0  0  0  0  0  0  0  0
    0.5480    0.8426    0.3619 H   0  0  0  0  0  0  0  0  0  0  0  0
   -0.6847    1.2182   -3.5186 N   0  0  0  0  0  0  0  0  0  0  0  0
   -0.1223    0.7905   -4.7783 C   0  0  2  0  0  0  0  0  0  0  0  0
   -0.5397    1.7945   -5.8447 C   0  0  0  0  0  0  0  0  0  0  0  0
   -1.6236    2.3743   -5.8325 O   0  0  0  0  0  0  0  0  0  0  0  0
   -0.5833   -0.6123   -5.1422 C   0  0  0  0  0  0  0  0  0  0  0  0
   -1.5987    1.6609   -3.5336 H   0  0  0  0  0  0  0  0  0  0  0  0
    0.9667    0.8119   -4.6620 H   0  0  0  0  0  0  0  0  0  0  0  0
   -1.6720   -0.6534   -5.2629 H   0  0  0  0  0  0  0  0  0  0  0  0
   -0.1336   -0.9461   -6.0832 H   0  0  0  0  0  0  0  0  0  0  0  0
   -0.3084   -1.3281   -4.3600 H   0  0  0  0  0  0  0  0  0  0  0  0
    0.4226    1.9345   -6.8348 N   0  0  0  0  0  0  0  0  0  0  0  0
    0.2438    2.7969   -7.9795 C   0  0  0  0  0  0  0  0  0  0  0  0
    1.3083    1.4456   -6.7435 H   0  0  0  0  0  0  0  0  0  0  0  0
   -0.1859    2.2191   -8.8110 H   0  0  0  0  0  0  0  0  0  0  0  0
   -0.4362    3.6203   -7.7154 H   0  0  0  0  0  0  0  0  0  0  0  0
    1.2174    3.2087   -8.2838 H   0  0  0  0  0  0  0  0  0  0  0  0
  1  3  1  0  0  0  0
  1  7  1  0  0  0  0
  1  2  2  0  0  0  0
 23 25  1  0  0  0  0
 23 29  1  0  0  0  0
 23 24  2  0  0  0  0
 50 51  1  0  0  0  0
 51 59  1  0  0  0  0
 51 52  2  0  0  0  0
  8  9  1  0  0  0  0
  9 17  1  0  0  0  0
  9 10  2  0  0  0  0
 30 31  1  0  0  0  0
 31 39  1  0  0  0  0
 31 32  2  0  0  0  0
 40 41  1  0  0  0  0
 41 49  1  0  0  0  0
 41 42  2  0  0  0  0
 50 53  1  0  0  0  0
 30 33  1  0  0  0  0
 59 60  1  0  0  0  0
 17 18  1  0  0  0  0
  8 11  1  0  0  0  0
 11 12  1  0  0  0  0
 40 43  1  0  0  0  0
 43 44  1  0  0  0  0
 49 50  1  0  0  0  0
  7  8  1  0  0  0  0
 29 30  1  0  0  0  0
 39 40  1  0  0  0  0
 12 44  1  0  0  0  0
  3  4  1  0  0  0  0
  3  5  1  0  0  0  0
  3  6  1  0  0  0  0
 25 26  1  0  0  0  0
 25 27  1  0  0  0  0
 25 28  1  0  0  0  0
 53 56  1  0  0  0  0
 53 57  1  0  0  0  0
 53 58  1  0  0  0  0
 33 36  1  0  0  0  0
 33 37  1  0  0  0  0
 33 38  1  0  0  0  0
 60 62  1  0  0  0  0
 60 63  1  0  0  0  0
 60 64  1  0  0  0  0
 18 20  1  0  0  0  0
 18 21  1  0  0  0  0
 18 22  1  0  0  0  0
 11 15  1  0  0  0  0
 11 16  1  0  0  0  0
 43 47  1  0  0  0  0
 43 48  1  0  0  0  0
 50 55  1  0  0  0  0
  8 14  1  0  0  0  0
 30 35  1  0  0  0  0
 40 46  1  0  0  0  0
 59 61  1  0  0  0  0
 17 19  1  0  0  0  0
  7 13  1  0  0  0  0
 29 34  1  0  0  0  0
 49 54  1  0  0  0  0
 39 45  1  0  0  0  0
M  END
$$$$

  -OEChem-05262214473D

 64 63  0     1  0  0  0  0  0999 V2000
   -2.9196   -0.9613    6.4512 C   0  0  0  0  0  0  0  0  0  0  0  0
   -4.0717   -1.2205    6.1237 O   0  0  0  0  0  0  0  0  0  0  0  0
   -2.6533   -0.3572    7.7900 C   0  0  0  0  0  0  0  0  0  0  0  0
   -2.6724    0.7443    7.7656 H   0  0  0  0  0  0  0  0  0  0  0  0
   -3.4086   -0.6449    8.5389 H   0  0  0  0  0  0  0  0  0  0  0  0
   -1.6832   -0.6202    8.2412 H   0  0  0  0  0  0  0  0  0  0  0  0
   -1.7837   -1.1749    5.6896 N   0  0  0  0  0  0  0  0  0  0  0  0
   -1.8136   -1.7495    4.3684 C   0  0  2  0  0  0  0  0  0  0  0  0
   -0.5652   -2.6077    4.1740 C   0  0  0  0  0  0  0  0  0  0  0  0
    0.3447   -2.6627    4.9989 O   0  0  0  0  0  0  0  0  0  0  0  0
   -1.9992   -0.6922    3.2773 C   0  0  0  0  0  0  0  0  0  0  0  0
   -0.6333    0.5109    3.1803 S   0  0  0  0  0  0  0  0  0  0  0  0
   -0.8822   -0.9130    6.0823 H   0  0  0  0  0  0  0  0  0  0  0  0
   -2.6815   -2.4206    4.3585 H   0  0  0  0  0  0  0  0  0  0  0  0
   -2.0887   -1.1659    2.2943 H   0  0  0  0  0  0  0  0  0  0  0  0
   -2.9208   -0.1281    3.4573 H   0  0  0  0  0  0  0  0  0  0  0  0
   -0.5763   -3.2835    2.9621 N   0  0  0  0  0  0  0  0  0  0  0  0
    0.5062   -4.1402    2.5379 C   0  0  0  0  0  0  0  0  0  0  0  0
   -1.3903   -3.2142    2.3585 H   0  0  0  0  0  0  0  0  0  0  0  0
    1.2182   -3.5598    1.9326 H   0  0  0  0  0  0  0  0  0  0  0  0
    1.0212   -4.5450    3.4216 H   0  0  0  0  0  0  0  0  0  0  0  0
    0.1039   -4.9686    1.9364 H   0  0  0  0  0  0  0  0  0  0  0  0
   -6.7256    2.0330   -0.2766 C   0  0  0  0  0  0  0  0  0  0  0  0
   -7.1824    1.1039   -0.9322 O   0  0  0  0  0  0  0  0  0  0  0  0
   -7.5276    2.6077    0.8435 C   0  0  0  0  0  0  0  0  0  0  0  0
   -8.1775    3.4344    0.5145 H   0  0  0  0  0  0  0  0  0  0  0  0
   -8.2057    1.8676    1.2980 H   0  0  0  0  0  0  0  0  0  0  0  0
   -6.9411    3.0162    1.6819 H   0  0  0  0  0  0  0  0  0  0  0  0
   -5.4935    2.6382   -0.4627 N   0  0  0  0  0  0  0  0  0  0  0  0
   -4.5619    2.2388   -1.4845 C   0  0  2  0  0  0  0  0  0  0  0  0
   -3.1535    2.4674   -0.9521 C   0  0  0  0  0  0  0  0  0  0  0  0
   -2.8634    3.3945   -0.1987 O   0  0  0  0  0  0  0  0  0  0  0  0
   -4.7883    3.0138   -2.7732 C   0  0  0  0  0  0  0  0  0  0  0  0
   -5.2337    3.4049    0.1551 H   0  0  0  0  0  0  0  0  0  0  0  0
   -4.7192    1.1682   -1.6549 H   0  0  0  0  0  0  0  0  0  0  0  0
   -4.6352    4.0886   -2.6221 H   0  0  0  0  0  0  0  0  0  0  0  0
   -4.0976    2.6887   -3.5582 H   0  0  0  0  0  0  0  0  0  0  0  0
   -5.8111    2.8719   -3.1387 H   0  0  0  0  0  0  0  0  0  0  0  0
   -2.2466    1.5400   -1.4507 N   0  0  0  0  0  0  0  0  0  0  0  0
   -0.8424    1.5707   -1.1286 C   0  0  2  0  0  0  0  0  0  0  0  0
   -0.0529    0.9965   -2.3032 C   0  0  0  0  0  0  0  0  0  0  0  0
    0.8760    0.2037   -2.1619 O   0  0  0  0  0  0  0  0  0  0  0  0
   -0.5351    0.8825    0.2037 C   0  0  0  0  0  0  0  0  0  0  0  0
   -1.2615    1.7125    1.6376 S   0  0  0  0  0  0  0  0  0  0  0  0
   -2.5850    0.7815   -2.0381 H   0  0  0  0  0  0  0  0  0  0  0  0
   -0.5829    2.6332   -1.0431 H   0  0  0  0  0  0  0  0  0  0  0  0
   -0.9063   -0.1476    0.1988 H   0  0  0  0  0  0  0  0  0  0  0  0
    0.5480    0.8426    0.3619 H   0  0  0  0  0  0  0  0  0  0  0  0
   -0.4915    1.4922   -3.5228 N   0  0  0  0  0  0  0  0  0  0  0  0
    0.1141    1.1175   -4.7792 C   0  0  2  0  0  0  0  0  0  0  0  0
    0.0186    2.3102   -5.7216 C   0  0  0  0  0  0  0  0  0  0  0  0
   -0.9280    3.0944   -5.7171 O   0  0  0  0  0  0  0  0  0  0  0  0
   -0.5649   -0.1043   -5.3782 C   0  0  0  0  0  0  0  0  0  0  0  0
   -1.2958    2.1119   -3.5505 H   0  0  0  0  0  0  0  0  0  0  0  0
    1.1672    0.8999   -4.5702 H   0  0  0  0  0  0  0  0  0  0  0  0
   -1.6210    0.0947   -5.5943 H   0  0  0  0  0  0  0  0  0  0  0  0
   -0.0864   -0.4042   -6.3163 H   0  0  0  0  0  0  0  0  0  0  0  0
   -0.5213   -0.9526   -4.6867 H   0  0  0  0  0  0  0  0  0  0  0  0
    1.0936    2.3709   -6.5972 N   0  0  0  0  0  0  0  0  0  0  0  0
    1.2121    3.3867   -7.6170 C   0  0  0  0  0  0  0  0  0  0  0  0
    1.8530    1.7028   -6.5032 H   0  0  0  0  0  0  0  0  0  0  0  0
    0.7741    3.0172   -8.5560 H   0  0  0  0  0  0  0  0  0  0  0  0
    0.6783    4.2931   -7.2953 H   0  0  0  0  0  0  0  0  0  0  0  0
    2.2743    3.6239   -7.7764 H   0  0  0  0  0  0  0  0  0  0  0  0
  1  3  1  0  0  0  0
  1  7  1  0  0  0  0
  1  2  2  0  0  0  0
 23 25  1  0  0  0  0
 23 29  1  0  0  0  0
 23 24  2  0  0  0  0
 50 51  1  0  0  0  0
 51 59  1  0  0  0  0
 51 52  2  0  0  0  0
  8  9  1  0  0  0  0
  9 17  1  0  0  0  0
  9 10  2  0  0  0  0
 30 31  1  0  0  0  0
 31 39  1  0  0  0  0
 31 32  2  0  0  0  0
 40 41  1  0  0  0  0
 41 49  1  0  0  0  0
 41 42  2  0  0  0  0
 50 53  1  0  0  0  0
 30 33  1  0  0  0  0
 59 60  1  0  0  0  0
 17 18  1  0  0  0  0
  8 11  1  0  0  0  0
 11 12  1  0  0  0  0
 40 43  1  0  0  0  0
 43 44  1  0  0  0  0
 49 50  1  0  0  0  0
  7  8  1  0  0  0  0
 29 30  1  0  0  0  0
 39 40  1  0  0  0  0
 12 44  1  0  0  0  0
  3  4  1  0  0  0  0
  3  5  1  0  0  0  0
  3  6  1  0  0  0  0
 25 26  1  0  0  0  0
 25 27  1  0  0  0  0
 25 28  1  0  0  0  0
 53 56  1  0  0  0  0
 53 57  1  0  0  0  0
 53 58  1  0  0  0  0
 33 36  1  0  0  0  0
 33 37  1  0  0  0  0
 33 38  1  0  0  0  0
 60 62  1  0  0  0  0
 60 63  1  0  0  0  0
 60 64  1  0  0  0  0
 18 20  1  0  0  0  0
 18 21  1  0  0  0  0
 18 22  1  0  0  0  0
 11 15  1  0  0  0  0
 11 16  1  0  0  0  0
 43 47  1  0  0  0  0
 43 48  1  0  0  0  0
 50 55  1  0  0  0  0
  8 14  1  0  0  0  0
 30 35  1  0  0  0  0
 40 46  1  0  0  0  0
 59 61  1  0  0  0  0
 17 19  1  0  0  0  0
  7 13  1  0  0  0  0
 29 34  1  0  0  0  0
 49 54  1  0  0  0  0
 39 45  1  0  0  0  0
M  END
$$$$

  -OEChem-05262214473D

 64 63  0     1  0  0  0  0  0999 V2000
   -2.9196   -0.9613    6.4512 C   0  0  0  0  0  0  0  0  0  0  0  0
   -4.0717   -1.2205    6.1237 O   0  0  0  0  0  0  0  0  0  0  0  0
   -2.6533   -0.3572    7.7900 C   0  0  0  0  0  0  0  0  0  0  0  0
   -2.6724    0.7443    7.7656 H   0  0  0  0  0  0  0  0  0  0  0  0
   -3.4086   -0.6449    8.5389 H   0  0  0  0  0  0  0  0  0  0  0  0
   -1.6832   -0.6202    8.2412 H   0  0  0  0  0  0  0  0  0  0  0  0
   -1.7837   -1.1749    5.6896 N   0  0  0  0  0  0  0  0  0  0  0  0
   -1.8136   -1.7495    4.3684 C   0  0  2  0  0  0  0  0  0  0  0  0
   -0.5652   -2.6077    4.1740 C   0  0  0  0  0  0  0  0  0  0  0  0
    0.3447   -2.6627    4.9989 O   0  0  0  0  0  0  0  0  0  0  0  0
   -1.9992   -0.6922    3.2773 C   0  0  0  0  0  0  0  0  0  0  0  0
   -0.6333    0.5109    3.1803 S   0  0  0  0  0  0  0  0  0  0  0  0
   -0.8822   -0.9130    6.0823 H   0  0  0  0  0  0  0  0  0  0  0  0
   -2.6815   -2.4206    4.3585 H   0  0  0  0  0  0  0  0  0  0  0  0
   -2.0887   -1.1659    2.2943 H   0  0  0  0  0  0  0  0  0  0  0  0
   -2.9208   -0.1281    3.4573 H   0  0  0  0  0  0  0  0  0  0  0  0
   -0.5763   -3.2835    2.9621 N   0  0  0  0  0  0  0  0  0  0  0  0
    0.5062   -4.1402    2.5379 C   0  0  0  0  0  0  0  0  0  0  0  0
   -1.3903   -3.2142    2.3585 H   0  0  0  0  0  0  0  0  0  0  0  0
    1.2182   -3.5598    1.9326 H   0  0  0  0  0  0  0  0  0  0  0  0
    1.0212   -4.5450    3.4216 H   0  0  0  0  0  0  0  0  0  0  0  0
    0.1039   -4.9686    1.9364 H   0  0  0  0  0  0  0  0  0  0  0  0
   -6.7256    2.0330   -0.2766 C   0  0  0  0  0  0  0  0  0  0  0  0
   -7.1824    1.1039   -0.9322 O   0  0  0  0  0  0  0  0  0  0  0  0
   -7.5276    2.6077    0.8435 C   0  0  0  0  0  0  0  0  0  0  0  0
   -8.1775    3.4344    0.5145 H   0  0  0  0  0  0  0  0  0  0  0  0
   -8.2057    1.8676    1.2980 H   0  0  0  0  0  0  0  0  0  0  0  0
   -6.9411    3.0162    1.6819 H   0  0  0  0  0  0  0  0  0  0  0  0
   -5.4935    2.6382   -0.4627 N   0  0  0  0  0  0  0  0  0  0  0  0
   -4.5619    2.2388   -1.4845 C   0  0  2  0  0  0  0  0  0  0  0  0
   -3.1535    2.4674   -0.9521 C   0  0  0  0  0  0  0  0  0  0  0  0
   -2.8634    3.3945   -0.1987 O   0  0  0  0  0  0  0  0  0  0  0  0
   -4.7883    3.0138   -2.7732 C   0  0  0  0  0  0  0  0  0  0  0  0
   -5.2337    3.4049    0.1551 H   0  0  0  0  0  0  0  0  0  0  0  0
   -4.7192    1.1682   -1.6549 H   0  0  0  0  0  0  0  0  0  0  0  0
   -4.6352    4.0886   -2.6221 H   0  0  0  0  0  0  0  0  0  0  0  0
   -4.0976    2.6887   -3.5582 H   0  0  0  0  0  0  0  0  0  0  0  0
   -5.8111    2.8719   -3.1387 H   0  0  0  0  0  0  0  0  0  0  0  0
   -2.2466    1.5400   -1.4507 N   0  0  0  0  0  0  0  0  0  0  0  0
   -0.8424    1.5707   -1.1286 C   0  0  2  0  0  0  0  0  0  0  0  0
   -0.0529    0.9965   -2.3032 C   0  0  0  0  0  0  0  0  0  0  0  0
    0.6846    0.0184   -2.1999 O   0  0  0  0  0  0  0  0  0  0  0  0
   -0.5351    0.8825    0.2037 C   0  0  0  0  0  0  0  0  0  0  0  0
   -1.2615    1.7125    1.6376 S   0  0  0  0  0  0  0  0  0  0  0  0
   -2.5850    0.7815   -2.0381 H   0  0  0  0  0  0  0  0  0  0  0  0
   -0.5829    2.6332   -1.0431 H   0  0  0  0  0  0  0  0  0  0  0  0
   -0.9063   -0.1476    0.1988 H   0  0  0  0  0  0  0  0  0  0  0  0
    0.5480    0.8426    0.3619 H   0  0  0  0  0  0  0  0  0  0  0  0
   -0.2500    1.7191   -3.4713 N   0  0  0  0  0  0  0  0  0  0  0  0
    0.4077    1.3865   -4.7134 C   0  0  2  0  0  0  0  0  0  0  0  0
    0.6485    2.6807   -5.4793 C   0  0  0  0  0  0  0  0  0  0  0  0
   -0.1240    3.6361   -5.4415 O   0  0  0  0  0  0  0  0  0  0  0  0
   -0.4231    0.4143   -5.5364 C   0  0  0  0  0  0  0  0  0  0  0  0
   -0.9119    2.4894   -3.4771 H   0  0  0  0  0  0  0  0  0  0  0  0
    1.3695    0.9328   -4.4504 H   0  0  0  0  0  0  0  0  0  0  0  0
   -1.3905    0.8514   -5.8094 H   0  0  0  0  0  0  0  0  0  0  0  0
    0.0898    0.1410   -6.4645 H   0  0  0  0  0  0  0  0  0  0  0  0
   -0.6205   -0.5039   -4.9727 H   0  0  0  0  0  0  0  0  0  0  0  0
    1.8055    2.6270   -6.2440 N   0  0  0  0  0  0  0  0  0  0  0  0
    2.2295    3.7152   -7.0937 C   0  0  0  0  0  0  0  0  0  0  0  0
    2.4069    1.8107   -6.1836 H   0  0  0  0  0  0  0  0  0  0  0  0
    1.8355    3.5629   -8.1094 H   0  0  0  0  0  0  0  0  0  0  0  0
    1.8477    4.6650   -6.6910 H   0  0  0  0  0  0  0  0  0  0  0  0
    3.3285    3.7467   -7.1279 H   0  0  0  0  0  0  0  0  0  0  0  0
  1  3  1  0  0  0  0
  1  7  1  0  0  0  0
  1  2  2  0  0  0  0
 23 25  1  0  0  0  0
 23 29  1  0  0  0  0
 23 24  2  0  0  0  0
 50 51  1  0  0  0  0
 51 59  1  0  0  0  0
 51 52  2  0  0  0  0
  8  9  1  0  0  0  0
  9 17  1  0  0  0  0
  9 10  2  0  0  0  0
 30 31  1  0  0  0  0
 31 39  1  0  0  0  0
 31 32  2  0  0  0  0
 40 41  1  0  0  0  0
 41 49  1  0  0  0  0
 41 42  2  0  0  0  0
 50 53  1  0  0  0  0
 30 33  1  0  0  0  0
 59 60  1  0  0  0  0
 17 18  1  0  0  0  0
  8 11  1  0  0  0  0
 11 12  1  0  0  0  0
 40 43  1  0  0  0  0
 43 44  1  0  0  0  0
 49 50  1  0  0  0  0
  7  8  1  0  0  0  0
 29 30  1  0  0  0  0
 39 40  1  0  0  0  0
 12 44  1  0  0  0  0
  3  4  1  0  0  0  0
  3  5  1  0  0  0  0
  3  6  1  0  0  0  0
 25 26  1  0  0  0  0
 25 27  1  0  0  0  0
 25 28  1  0  0  0  0
 53 56  1  0  0  0  0
 53 57  1  0  0  0  0
 53 58  1  0  0  0  0
 33 36  1  0  0  0  0
 33 37  1  0  0  0  0
 33 38  1  0  0  0  0
 60 62  1  0  0  0  0
 60 63  1  0  0  0  0
 60 64  1  0  0  0  0
 18 20  1  0  0  0  0
 18 21  1  0  0  0  0
 18 22  1  0  0  0  0
 11 15  1  0  0  0  0
 11 16  1  0  0  0  0
 43 47  1  0  0  0  0
 43 48  1  0  0  0  0
 50 55  1  0  0  0  0
  8 14  1  0  0  0  0
 30 35  1  0  0  0  0
 40 46  1  0  0  0  0
 59 61  1  0  0  0  0
 17 19  1  0  0  0  0
  7 13  1  0  0  0  0
 29 34  1  0  0  0  0
 49 54  1  0  0  0  0
 39 45  1  0  0  0  0
M  END
$$$$

  -OEChem-05262214473D

 64 63  0     1  0  0  0  0  0999 V2000
   -2.9196   -0.9613    6.4512 C   0  0  0  0  0  0  0  0  0  0  0  0
   -4.0717   -1.2205    6.1237 O   0  0  0  0  0  0  0  0  0  0  0  0
   -2.6533   -0.3572    7.7900 C   0  0  0  0  0  0  0  0  0  0  0  0
   -2.6724    0.7443    7.7656 H   0  0  0  0  0  0  0  0  0  0  0  0
   -3.4086   -0.6449    8.5389 H   0  0  0  0  0  0  0  0  0  0  0  0
   -1.6832   -0.6202    8.2412 H   0  0  0  0  0  0  0  0  0  0  0  0
   -1.7837   -1.1749    5.6896 N   0  0  0  0  0  0  0  0  0  0  0  0
   -1.8136   -1.7495    4.3684 C   0  0  2  0  0  0  0  0  0  0  0  0
   -0.5652   -2.6077    4.1740 C   0  0  0  0  0  0  0  0  0  0  0  0
    0.3447   -2.6627    4.9989 O   0  0  0  0  0  0  0  0  0  0  0  0
   -1.9992   -0.6922    3.2773 C   0  0  0  0  0  0  0  0  0  0  0  0
   -0.6333    0.5109    3.1803 S   0  0  0  0  0  0  0  0  0  0  0  0
   -0.8822   -0.9130    6.0823 H   0  0  0  0  0  0  0  0  0  0  0  0
   -2.6815   -2.4206    4.3585 H   0  0  0  0  0  0  0  0  0  0  0  0
   -2.0887   -1.1659    2.2943 H   0  0  0  0  0  0  0  0  0  0  0  0
   -2.9208   -0.1281    3.4573 H   0  0  0  0  0  0  0  0  0  0  0  0
   -0.5763   -3.2835    2.9621 N   0  0  0  0  0  0  0  0  0  0  0  0
    0.5062   -4.1402    2.5379 C   0  0  0  0  0  0  0  0  0  0  0  0
   -1.3903   -3.2142    2.3585 H   0  0  0  0  0  0  0  0  0  0  0  0
    1.2182   -3.5598    1.9326 H   0  0  0  0  0  0  0  0  0  0  0  0
    1.0212   -4.5450    3.4216 H   0  0  0  0  0  0  0  0  0  0  0  0
    0.1039   -4.9686    1.9364 H   0  0  0  0  0  0  0  0  0  0  0  0
   -6.7256    2.0330   -0.2766 C   0  0  0  0  0  0  0  0  0  0  0  0
   -7.1824    1.1039   -0.9322 O   0  0  0  0  0  0  0  0  0  0  0  0
   -7.5276    2.6077    0.8435 C   0  0  0  0  0  0  0  0  0  0  0  0
   -8.1775    3.4344    0.5145 H   0  0  0  0  0  0  0  0  0  0  0  0
   -8.2057    1.8676    1.2980 H   0  0  0  0  0  0  0  0  0  0  0  0
   -6.9411    3.0162    1.6819 H   0  0  0  0  0  0  0  0  0  0  0  0
   -5.4935    2.6382   -0.4627 N   0  0  0  0  0  0  0  0  0  0  0  0
   -4.5619    2.2388   -1.4845 C   0  0  2  0  0  0  0  0  0  0  0  0
   -3.1535    2.4674   -0.9521 C   0  0  0  0  0  0  0  0  0  0  0  0
   -2.8634    3.3945   -0.1987 O   0  0  0  0  0  0  0  0  0  0  0  0
   -4.7883    3.0138   -2.7732 C   0  0  0  0  0  0  0  0  0  0  0  0
   -5.2337    3.4049    0.1551 H   0  0  0  0  0  0  0  0  0  0  0  0
   -4.7192    1.1682   -1.6549 H   0  0  0  0  0  0  0  0  0  0  0  0
   -4.6352    4.0886   -2.6221 H   0  0  0  0  0  0  0  0  0  0  0  0
   -4.0976    2.6887   -3.5582 H   0  0  0  0  0  0  0  0  0  0  0  0
   -5.8111    2.8719   -3.1387 H   0  0  0  0  0  0  0  0  0  0  0  0
   -2.2466    1.5400   -1.4507 N   0  0  0  0  0  0  0  0  0  0  0  0
   -0.8424    1.5707   -1.1286 C   0  0  2  0  0  0  0  0  0  0  0  0
   -0.0529    0.9965   -2.3032 C   0  0  0  0  0  0  0  0  0  0  0  0
    0.4666   -0.1175   -2.2801 O   0  0  0  0  0  0  0  0  0  0  0  0
   -0.5351    0.8825    0.2037 C   0  0  0  0  0  0  0  0  0  0  0  0
   -1.2615    1.7125    1.6376 S   0  0  0  0  0  0  0  0  0  0  0  0
   -2.5850    0.7815   -2.0381 H   0  0  0  0  0  0  0  0  0  0  0  0
   -0.5829    2.6332   -1.0431 H   0  0  0  0  0  0  0  0  0  0  0  0
   -0.9063   -0.1476    0.1988 H   0  0  0  0  0  0  0  0  0  0  0  0
    0.5480    0.8426    0.3619 H   0  0  0  0  0  0  0  0  0  0  0  0
    0.0235    1.8832   -3.3678 N   0  0  0  0  0  0  0  0  0  0  0  0
    0.7384    1.5790   -4.5852 C   0  0  2  0  0  0  0  0  0  0  0  0
    1.3071    2.8808   -5.1344 C   0  0  0  0  0  0  0  0  0  0  0  0
    0.7336    3.9625   -5.0246 O   0  0  0  0  0  0  0  0  0  0  0  0
   -0.1675    0.9082   -5.6060 C   0  0  0  0  0  0  0  0  0  0  0  0
   -0.4730    2.7679   -3.3182 H   0  0  0  0  0  0  0  0  0  0  0  0
    1.5597    0.9082   -4.3105 H   0  0  0  0  0  0  0  0  0  0  0  0
   -0.9964    1.5653   -5.8935 H   0  0  0  0  0  0  0  0  0  0  0  0
    0.3829    0.6525   -6.5174 H   0  0  0  0  0  0  0  0  0  0  0  0
   -0.5991   -0.0124   -5.1986 H   0  0  0  0  0  0  0  0  0  0  0  0
    2.5097    2.6855   -5.7992 N   0  0  0  0  0  0  0  0  0  0  0  0
    3.2267    3.7599   -6.4453 C   0  0  0  0  0  0  0  0  0  0  0  0
    2.9323    1.7619   -5.8066 H   0  0  0  0  0  0  0  0  0  0  0  0
    2.9258    3.8191   -7.5017 H   0  0  0  0  0  0  0  0  0  0  0  0
    2.9926    4.7105   -5.9438 H   0  0  0  0  0  0  0  0  0  0  0  0
    4.3081    3.5688   -6.3824 H   0  0  0  0  0  0  0  0  0  0  0  0
  1  3  1  0  0  0  0
  1  7  1  0  0  0  0
  1  2  2  0  0  0  0
 23 25  1  0  0  0  0
 23 29  1  0  0  0  0
 23 24  2  0  0  0  0
 50 51  1  0  0  0  0
 51 59  1  0  0  0  0
 51 52  2  0  0  0  0
  8  9  1  0  0  0  0
  9 17  1  0  0  0  0
  9 10  2  0  0  0  0
 30 31  1  0  0  0  0
 31 39  1  0  0  0  0
 31 32  2  0  0  0  0
 40 41  1  0  0  0  0
 41 49  1  0  0  0  0
 41 42  2  0  0  0  0
 50 53  1  0  0  0  0
 30 33  1  0  0  0  0
 59 60  1  0  0  0  0
 17 18  1  0  0  0  0
  8 11  1  0  0  0  0
 11 12  1  0  0  0  0
 40 43  1  0  0  0  0
 43 44  1  0  0  0  0
 49 50  1  0  0  0  0
  7  8  1  0  0  0  0
 29 30  1  0  0  0  0
 39 40  1  0  0  0  0
 12 44  1  0  0  0  0
  3  4  1  0  0  0  0
  3  5  1  0  0  0  0
  3  6  1  0  0  0  0
 25 26  1  0  0  0  0
 25 27  1  0  0  0  0
 25 28  1  0  0  0  0
 53 56  1  0  0  0  0
 53 57  1  0  0  0  0
 53 58  1  0  0  0  0
 33 36  1  0  0  0  0
 33 37  1  0  0  0  0
 33 38  1  0  0  0  0
 60 62  1  0  0  0  0
 60 63  1  0  0  0  0
 60 64  1  0  0  0  0
 18 20  1  0  0  0  0
 18 21  1  0  0  0  0
 18 22  1  0  0  0  0
 11 15  1  0  0  0  0
 11 16  1  0  0  0  0
 43 47  1  0  0  0  0
 43 48  1  0  0  0  0
 50 55  1  0  0  0  0
  8 14  1  0  0  0  0
 30 35  1  0  0  0  0
 40 46  1  0  0  0  0
 59 61  1  0  0  0  0
 17 19  1  0  0  0  0
  7 13  1  0  0  0  0
 29 34  1  0  0  0  0
 49 54  1  0  0  0  0
 39 45  1  0  0  0  0
M  END
$$$$

  -OEChem-05262214473D

 64 63  0     1  0  0  0  0  0999 V2000
   -2.9196   -0.9613    6.4512 C   0  0  0  0  0  0  0  0  0  0  0  0
   -4.0717   -1.2205    6.1237 O   0  0  0  0  0  0  0  0  0  0  0  0
   -2.6533   -0.3572    7.7900 C   0  0  0  0  0  0  0  0  0  0  0  0
   -2.6724    0.7443    7.7656 H   0  0  0  0  0  0  0  0  0  0  0  0
   -3.4086   -0.6449    8.5389 H   0  0  0  0  0  0  0  0  0  0  0  0
   -1.6832   -0.6202    8.2412 H   0  0  0  0  0  0  0  0  0  0  0  0
   -1.7837   -1.1749    5.6896 N   0  0  0  0  0  0  0  0  0  0  0  0
   -1.8136   -1.7495    4.3684 C   0  0  2  0  0  0  0  0  0  0  0  0
   -0.5652   -2.6077    4.1740 C   0  0  0  0  0  0  0  0  0  0  0  0
    0.3447   -2.6627    4.9989 O   0  0  0  0  0  0  0  0  0  0  0  0
   -1.9992   -0.6922    3.2773 C   0  0  0  0  0  0  0  0  0  0  0  0
   -0.6333    0.5109    3.1803 S   0  0  0  0  0  0  0  0  0  0  0  0
   -0.8822   -0.9130    6.0823 H   0  0  0  0  0  0  0  0  0  0  0  0
   -2.6815   -2.4206    4.3585 H   0  0  0  0  0  0  0  0  0  0  0  0
   -2.0887   -1.1659    2.2943 H   0  0  0  0  0  0  0  0  0  0  0  0
   -2.9208   -0.1281    3.4573 H   0  0  0  0  0  0  0  0  0  0  0  0
   -0.5763   -3.2835    2.9621 N   0  0  0  0  0  0  0  0  0  0  0  0
    0.5062   -4.1402    2.5379 C   0  0  0  0  0  0  0  0  0  0  0  0
   -1.3903   -3.2142    2.3585 H   0  0  0  0  0  0  0  0  0  0  0  0
    1.2182   -3.5598    1.9326 H   0  0  0  0  0  0  0  0  0  0  0  0
    1.0212   -4.5450    3.4216 H   0  0  0  0  0  0  0  0  0  0  0  0
    0.1039   -4.9686    1.9364 H   0  0  0  0  0  0  0  0  0  0  0  0
   -6.7256    2.0330   -0.2766 C   0  0  0  0  0  0  0  0  0  0  0  0
   -7.1824    1.1039   -0.9322 O   0  0  0  0  0  0  0  0  0  0  0  0
   -7.5276    2.6077    0.8435 C   0  0  0  0  0  0  0  0  0  0  0  0
   -8.1775    3.4344    0.5145 H   0  0  0  0  0  0  0  0  0  0  0  0
   -8.2057    1.8676    1.2980 H   0  0  0  0  0  0  0  0  0  0  0  0
   -6.9411    3.0162    1.6819 H   0  0  0  0  0  0  0  0  0  0  0  0
   -5.4935    2.6382   -0.4627 N   0  0  0  0  0  0  0  0  0  0  0  0
   -4.5619    2.2388   -1.4845 C   0  0  2  0  0  0  0  0  0  0  0  0
   -3.1535    2.4674   -0.9521 C   0  0  0  0  0  0  0  0  0  0  0  0
   -2.8634    3.3945   -0.1987 O   0  0  0  0  0  0  0  0  0  0  0  0
   -4.7883    3.0138   -2.7732 C   0  0  0  0  0  0  0  0  0  0  0  0
   -5.2337    3.4049    0.1551 H   0  0  0  0  0  0  0  0  0  0  0  0
   -4.7192    1.1682   -1.6549 H   0  0  0  0  0  0  0  0  0  0  0  0
   -4.6352    4.0886   -2.6221 H   0  0  0  0  0  0  0  0  0  0  0  0
   -4.0976    2.6887   -3.5582 H   0  0  0  0  0  0  0  0  0  0  0  0
   -5.8111    2.8719   -3.1387 H   0  0  0  0  0  0  0  0  0  0  0  0
   -2.2466    1.5400   -1.4507 N   0  0  0  0  0  0  0  0  0  0  0  0
   -0.8424    1.5707   -1.1286 C   0  0  2  0  0  0  0  0  0  0  0  0
   -0.0529    0.9965   -2.3032 C   0  0  0  0  0  0  0  0  0  0  0  0
    0.2367   -0.1946   -2.3969 O   0  0  0  0  0  0  0  0  0  0  0  0
   -0.5351    0.8825    0.2037 C   0  0  0  0  0  0  0  0  0  0  0  0
   -1.2615    1.7125    1.6376 S   0  0  0  0  0  0  0  0  0  0  0  0
   -2.5850    0.7815   -2.0381 H   0  0  0  0  0  0  0  0  0  0  0  0
   -0.5829    2.6332   -1.0431 H   0  0  0  0  0  0  0  0  0  0  0  0
   -0.9063   -0.1476    0.1988 H   0  0  0  0  0  0  0  0  0  0  0  0
    0.5480    0.8426    0.3619 H   0  0  0  0  0  0  0  0  0  0  0  0
    0.3102    1.9735   -3.2192 N   0  0  0  0  0  0  0  0  0  0  0  0
    1.0838    1.6821   -4.4035 C   0  0  2  0  0  0  0  0  0  0  0  0
    1.9496    2.8968   -4.7104 C   0  0  0  0  0  0  0  0  0  0  0  0
    1.5864    4.0512   -4.4948 O   0  0  0  0  0  0  0  0  0  0  0  0
    0.1845    1.3437   -5.5823 C   0  0  0  0  0  0  0  0  0  0  0  0
   -0.0092    2.9283   -3.0848 H   0  0  0  0  0  0  0  0  0  0  0  0
    1.7250    0.8279   -4.1601 H   0  0  0  0  0  0  0  0  0  0  0  0
   -0.4653    2.1877   -5.8408 H   0  0  0  0  0  0  0  0  0  0  0  0
    0.7730    1.0952   -6.4717 H   0  0  0  0  0  0  0  0  0  0  0  0
   -0.4586    0.4883   -5.3489 H   0  0  0  0  0  0  0  0  0  0  0  0
    3.1582    2.5423   -5.2933 N   0  0  0  0  0  0  0  0  0  0  0  0
    4.1357    3.5179   -5.7160 C   0  0  0  0  0  0  0  0  0  0  0  0
    3.3934    1.5597   -5.3978 H   0  0  0  0  0  0  0  0  0  0  0  0
    3.9708    3.7681   -6.7744 H   0  0  0  0  0  0  0  0  0  0  0  0
    4.0348    4.4267   -5.1045 H   0  0  0  0  0  0  0  0  0  0  0  0
    5.1464    3.1021   -5.5909 H   0  0  0  0  0  0  0  0  0  0  0  0
  1  3  1  0  0  0  0
  1  7  1  0  0  0  0
  1  2  2  0  0  0  0
 23 25  1  0  0  0  0
 23 29  1  0  0  0  0
 23 24  2  0  0  0  0
 50 51  1  0  0  0  0
 51 59  1  0  0  0  0
 51 52  2  0  0  0  0
  8  9  1  0  0  0  0
  9 17  1  0  0  0  0
  9 10  2  0  0  0  0
 30 31  1  0  0  0  0
 31 39  1  0  0  0  0
 31 32  2  0  0  0  0
 40 41  1  0  0  0  0
 41 49  1  0  0  0  0
 41 42  2  0  0  0  0
 50 53  1  0  0  0  0
 30 33  1  0  0  0  0
 59 60  1  0  0  0  0
 17 18  1  0  0  0  0
  8 11  1  0  0  0  0
 11 12  1  0  0  0  0
 40 43  1  0  0  0  0
 43 44  1  0  0  0  0
 49 50  1  0  0  0  0
  7  8  1  0  0  0  0
 29 30  1  0  0  0  0
 39 40  1  0  0  0  0
 12 44  1  0  0  0  0
  3  4  1  0  0  0  0
  3  5  1  0  0  0  0
  3  6  1  0  0  0  0
 25 26  1  0  0  0  0
 25 27  1  0  0  0  0
 25 28  1  0  0  0  0
 53 56  1  0  0  0  0
 53 57  1  0  0  0  0
 53 58  1  0  0  0  0
 33 36  1  0  0  0  0
 33 37  1  0  0  0  0
 33 38  1  0  0  0  0
 60 62  1  0  0  0  0
 60 63  1  0  0  0  0
 60 64  1  0  0  0  0
 18 20  1  0  0  0  0
 18 21  1  0  0  0  0
 18 22  1  0  0  0  0
 11 15  1  0  0  0  0
 11 16  1  0  0  0  0
 43 47  1  0  0  0  0
 43 48  1  0  0  0  0
 50 55  1  0  0  0  0
  8 14  1  0  0  0  0
 30 35  1  0  0  0  0
 40 46  1  0  0  0  0
 59 61  1  0  0  0  0
 17 19  1  0  0  0  0
  7 13  1  0  0  0  0
 29 34  1  0  0  0  0
 49 54  1  0  0  0  0
 39 45  1  0  0  0  0
M  END
$$$$

  -OEChem-05262214473D

 64 63  0     1  0  0  0  0  0999 V2000
   -2.9196   -0.9613    6.4512 C   0  0  0  0  0  0  0  0  0  0  0  0
   -4.0717   -1.2205    6.1237 O   0  0  0  0  0  0  0  0  0  0  0  0
   -2.6533   -0.3572    7.7900 C   0  0  0  0  0  0  0  0  0  0  0  0
   -2.6724    0.7443    7.7656 H   0  0  0  0  0  0  0  0  0  0  0  0
   -3.4086   -0.6449    8.5389 H   0  0  0  0  0  0  0  0  0  0  0  0
   -1.6832   -0.6202    8.2412 H   0  0  0  0  0  0  0  0  0  0  0  0
   -1.7837   -1.1749    5.6896 N   0  0  0  0  0  0  0  0  0  0  0  0
   -1.8136   -1.7495    4.3684 C   0  0  2  0  0  0  0  0  0  0  0  0
   -0.5652   -2.6077    4.1740 C   0  0  0  0  0  0  0  0  0  0  0  0
    0.3447   -2.6627    4.9989 O   0  0  0  0  0  0  0  0  0  0  0  0
   -1.9992   -0.6922    3.2773 C   0  0  0  0  0  0  0  0  0  0  0  0
   -0.6333    0.5109    3.1803 S   0  0  0  0  0  0  0  0  0  0  0  0
   -0.8822   -0.9130    6.0823 H   0  0  0  0  0  0  0  0  0  0  0  0
   -2.6815   -2.4206    4.3585 H   0  0  0  0  0  0  0  0  0  0  0  0
   -2.0887   -1.1659    2.2943 H   0  0  0  0  0  0  0  0  0  0  0  0
   -2.9208   -0.1281    3.4573 H   0  0  0  0  0  0  0  0  0  0  0  0
   -0.5763   -3.2835    2.9621 N   0  0  0  0  0  0  0  0  0  0  0  0
    0.5062   -4.1402    2.5379 C   0  0  0  0  0  0  0  0  0  0  0  0
   -1.3903   -3.2142    2.3585 H   0  0  0  0  0  0  0  0  0  0  0  0
    1.2182   -3.5598    1.9326 H   0  0  0  0  0  0  0  0  0  0  0  0
    1.0212   -4.5450    3.4216 H   0  0  0  0  0  0  0  0  0  0  0  0
    0.1039   -4.9686    1.9364 H   0  0  0  0  0  0  0  0  0  0  0  0
   -6.7256    2.0330   -0.2766 C   0  0  0  0  0  0  0  0  0  0  0  0
   -7.1824    1.1039   -0.9322 O   0  0  0  0  0  0  0  0  0  0  0  0
   -7.5276    2.6077    0.8435 C   0  0  0  0  0  0  0  0  0  0  0  0
   -8.1775    3.4344    0.5145 H   0  0  0  0  0  0  0  0  0  0  0  0
   -8.2057    1.8676    1.2980 H   0  0  0  0  0  0  0  0  0  0  0  0
   -6.9411    3.0162    1.6819 H   0  0  0  0  0  0  0  0  0  0  0  0
   -5.4935    2.6382   -0.4627 N   0  0  0  0  0  0  0  0  0  0  0  0
   -4.5619    2.2388   -1.4845 C   0  0  2  0  0  0  0  0  0  0  0  0
   -3.1535    2.4674   -0.9521 C   0  0  0  0  0  0  0  0  0  0  0  0
   -2.8634    3.3945   -0.1987 O   0  0  0  0  0  0  0  0  0  0  0  0
   -4.7883    3.0138   -2.7732 C   0  0  0  0  0  0  0  0  0  0  0  0
   -5.2337    3.4049    0.1551 H   0  0  0  0  0  0  0  0  0  0  0  0
   -4.7192    1.1682   -1.6549 H   0  0  0  0  0  0  0  0  0  0  0  0
   -4.6352    4.0886   -2.6221 H   0  0  0  0  0  0  0  0  0  0  0  0
   -4.0976    2.6887   -3.5582 H   0  0  0  0  0  0  0  0  0  0  0  0
   -5.8111    2.8719   -3.1387 H   0  0  0  0  0  0  0  0  0  0  0  0
   -2.2466    1.5400   -1.4507 N   0  0  0  0  0  0  0  0  0  0  0  0
   -0.8424    1.5707   -1.1286 C   0  0  2  0  0  0  0  0  0  0  0  0
   -0.0529    0.9965   -2.3032 C   0  0  0  0  0  0  0  0  0  0  0  0
    0.0106   -0.2077   -2.5424 O   0  0  0  0  0  0  0  0  0  0  0  0
   -0.5351    0.8825    0.2037 C   0  0  0  0  0  0  0  0  0  0  0  0
   -1.2615    1.7125    1.6376 S   0  0  0  0  0  0  0  0  0  0  0  0
   -2.5850    0.7815   -2.0381 H   0  0  0  0  0  0  0  0  0  0  0  0
   -0.5829    2.6332   -1.0431 H   0  0  0  0  0  0  0  0  0  0  0  0
   -0.9063   -0.1476    0.1988 H   0  0  0  0  0  0  0  0  0  0  0  0
    0.5480    0.8426    0.3619 H   0  0  0  0  0  0  0  0  0  0  0  0
    0.5907    1.9838   -3.0357 N   0  0  0  0  0  0  0  0  0  0  0  0
    1.4201    1.6885   -4.1806 C   0  0  2  0  0  0  0  0  0  0  0  0
    2.5321    2.7277   -4.2362 C   0  0  0  0  0  0  0  0  0  0  0  0
    2.3762    3.8963   -3.8882 O   0  0  0  0  0  0  0  0  0  0  0  0
    0.6089    1.6911   -5.4669 C   0  0  0  0  0  0  0  0  0  0  0  0
    0.4481    2.9596   -2.7928 H   0  0  0  0  0  0  0  0  0  0  0  0
    1.8540    0.6973   -4.0096 H   0  0  0  0  0  0  0  0  0  0  0  0
    0.1663    2.6761   -5.6550 H   0  0  0  0  0  0  0  0  0  0  0  0
    1.2334    1.4391   -6.3303 H   0  0  0  0  0  0  0  0  0  0  0  0
   -0.2086    0.9641   -5.4135 H   0  0  0  0  0  0  0  0  0  0  0  0
    3.7070    2.2073   -4.7607 N   0  0  0  0  0  0  0  0  0  0  0  0
    4.8947    3.0056   -4.9555 C   0  0  0  0  0  0  0  0  0  0  0  0
    3.7588    1.2180   -4.9852 H   0  0  0  0  0  0  0  0  0  0  0  0
    4.8993    3.4136   -5.9770 H   0  0  0  0  0  0  0  0  0  0  0  0
    4.9033    3.8328   -4.2304 H   0  0  0  0  0  0  0  0  0  0  0  0
    5.7862    2.3786   -4.8071 H   0  0  0  0  0  0  0  0  0  0  0  0
  1  3  1  0  0  0  0
  1  7  1  0  0  0  0
  1  2  2  0  0  0  0
 23 25  1  0  0  0  0
 23 29  1  0  0  0  0
 23 24  2  0  0  0  0
 50 51  1  0  0  0  0
 51 59  1  0  0  0  0
 51 52  2  0  0  0  0
  8  9  1  0  0  0  0
  9 17  1  0  0  0  0
  9 10  2  0  0  0  0
 30 31  1  0  0  0  0
 31 39  1  0  0  0  0
 31 32  2  0  0  0  0
 40 41  1  0  0  0  0
 41 49  1  0  0  0  0
 41 42  2  0  0  0  0
 50 53  1  0  0  0  0
 30 33  1  0  0  0  0
 59 60  1  0  0  0  0
 17 18  1  0  0  0  0
  8 11  1  0  0  0  0
 11 12  1  0  0  0  0
 40 43  1  0  0  0  0
 43 44  1  0  0  0  0
 49 50  1  0  0  0  0
  7  8  1  0  0  0  0
 29 30  1  0  0  0  0
 39 40  1  0  0  0  0
 12 44  1  0  0  0  0
  3  4  1  0  0  0  0
  3  5  1  0  0  0  0
  3  6  1  0  0  0  0
 25 26  1  0  0  0  0
 25 27  1  0  0  0  0
 25 28  1  0  0  0  0
 53 56  1  0  0  0  0
 53 57  1  0  0  0  0
 53 58  1  0  0  0  0
 33 36  1  0  0  0  0
 33 37  1  0  0  0  0
 33 38  1  0  0  0  0
 60 62  1  0  0  0  0
 60 63  1  0  0  0  0
 60 64  1  0  0  0  0
 18 20  1  0  0  0  0
 18 21  1  0  0  0  0
 18 22  1  0  0  0  0
 11 15  1  0  0  0  0
 11 16  1  0  0  0  0
 43 47  1  0  0  0  0
 43 48  1  0  0  0  0
 50 55  1  0  0  0  0
  8 14  1  0  0  0  0
 30 35  1  0  0  0  0
 40 46  1  0  0  0  0
 59 61  1  0  0  0  0
 17 19  1  0  0  0  0
  7 13  1  0  0  0  0
 29 34  1  0  0  0  0
 49 54  1  0  0  0  0
 39 45  1  0  0  0  0
M  END
$$$$

  -OEChem-05262214473D

 64 63  0     1  0  0  0  0  0999 V2000
   -2.9196   -0.9613    6.4512 C   0  0  0  0  0  0  0  0  0  0  0  0
   -4.0717   -1.2205    6.1237 O   0  0  0  0  0  0  0  0  0  0  0  0
   -2.6533   -0.3572    7.7900 C   0  0  0  0  0  0  0  0  0  0  0  0
   -2.6724    0.7443    7.7656 H   0  0  0  0  0  0  0  0  0  0  0  0
   -3.4086   -0.6449    8.5389 H   0  0  0  0  0  0  0  0  0  0  0  0
   -1.6832   -0.6202    8.2412 H   0  0  0  0  0  0  0  0  0  0  0  0
   -1.7837   -1.1749    5.6896 N   0  0  0  0  0  0  0  0  0  0  0  0
   -1.8136   -1.7495    4.3684 C   0  0  2  0  0  0  0  0  0  0  0  0
   -0.5652   -2.6077    4.1740 C   0  0  0  0  0  0  0  0  0  0  0  0
    0.3447   -2.6627    4.9989 O   0  0  0  0  0  0  0  0  0  0  0  0
   -1.9992   -0.6922    3.2773 C   0  0  0  0  0  0  0  0  0  0  0  0
   -0.6333    0.5109    3.1803 S   0  0  0  0  0  0  0  0  0  0  0  0
   -0.8822   -0.9130    6.0823 H   0  0  0  0  0  0  0  0  0  0  0  0
   -2.6815   -2.4206    4.3585 H   0  0  0  0  0  0  0  0  0  0  0  0
   -2.0887   -1.1659    2.2943 H   0  0  0  0  0  0  0  0  0  0  0  0
   -2.9208   -0.1281    3.4573 H   0  0  0  0  0  0  0  0  0  0  0  0
   -0.5763   -3.2835    2.9621 N   0  0  0  0  0  0  0  0  0  0  0  0
    0.5062   -4.1402    2.5379 C   0  0  0  0  0  0  0  0  0  0  0  0
   -1.3903   -3.2142    2.3585 H   0  0  0  0  0  0  0  0  0  0  0  0
    1.2182   -3.5598    1.9326 H   0  0  0  0  0  0  0  0  0  0  0  0
    1.0212   -4.5450    3.4216 H   0  0  0  0  0  0  0  0  0  0  0  0
    0.1039   -4.9686    1.9364 H   0  0  0  0  0  0  0  0  0  0  0  0
   -6.7256    2.0330   -0.2766 C   0  0  0  0  0  0  0  0  0  0  0  0
   -7.1824    1.1039   -0.9322 O   0  0  0  0  0  0  0  0  0  0  0  0
   -7.5276    2.6077    0.8435 C   0  0  0  0  0  0  0  0  0  0  0  0
   -8.1775    3.4344    0.5145 H   0  0  0  0  0  0  0  0  0  0  0  0
   -8.2057    1.8676    1.2980 H   0  0  0  0  0  0  0  0  0  0  0  0
   -6.9411    3.0162    1.6819 H   0  0  0  0  0  0  0  0  0  0  0  0
   -5.4935    2.6382   -0.4627 N   0  0  0  0  0  0  0  0  0  0  0  0
   -4.5619    2.2388   -1.4845 C   0  0  2  0  0  0  0  0  0  0  0  0
   -3.1535    2.4674   -0.9521 C   0  0  0  0  0  0  0  0  0  0  0  0
   -2.8634    3.3945   -0.1987 O   0  0  0  0  0  0  0  0  0  0  0  0
   -4.7883    3.0138   -2.7732 C   0  0  0  0  0  0  0  0  0  0  0  0
   -5.2337    3.4049    0.1551 H   0  0  0  0  0  0  0  0  0  0  0  0
   -4.7192    1.1682   -1.6549 H   0  0  0  0  0  0  0  0  0  0  0  0
   -4.6352    4.0886   -2.6221 H   0  0  0  0  0  0  0  0  0  0  0  0
   -4.0976    2.6887   -3.5582 H   0  0  0  0  0  0  0  0  0  0  0  0
   -5.8111    2.8719   -3.1387 H   0  0  0  0  0  0  0  0  0  0  0  0
   -2.2466    1.5400   -1.4507 N   0  0  0  0  0  0  0  0  0  0  0  0
   -0.8424    1.5707   -1.1286 C   0  0  2  0  0  0  0  0  0  0  0  0
   -0.0529    0.9965   -2.3032 C   0  0  0  0  0  0  0  0  0  0  0  0
   -0.1961   -0.1559   -2.7068 O   0  0  0  0  0  0  0  0  0  0  0  0
   -0.5351    0.8825    0.2037 C   0  0  0  0  0  0  0  0  0  0  0  0
   -1.2615    1.7125    1.6376 S   0  0  0  0  0  0  0  0  0  0  0  0
   -2.5850    0.7815   -2.0381 H   0  0  0  0  0  0  0  0  0  0  0  0
   -0.5829    2.6332   -1.0431 H   0  0  0  0  0  0  0  0  0  0  0  0
   -0.9063   -0.1476    0.1988 H   0  0  0  0  0  0  0  0  0  0  0  0
    0.5480    0.8426    0.3619 H   0  0  0  0  0  0  0  0  0  0  0  0
    0.8458    1.9133   -2.8297 N   0  0  0  0  0  0  0  0  0  0  0  0
    1.7246    1.5980   -3.9316 C   0  0  2  0  0  0  0  0  0  0  0  0
    3.0150    2.3849   -3.7441 C   0  0  0  0  0  0  0  0  0  0  0  0
    3.0492    3.5083   -3.2461 O   0  0  0  0  0  0  0  0  0  0  0  0
    1.0768    1.9267   -5.2676 C   0  0  0  0  0  0  0  0  0  0  0  0
    0.8676    2.8598   -2.4620 H   0  0  0  0  0  0  0  0  0  0  0  0
    1.9380    0.5253   -3.8691 H   0  0  0  0  0  0  0  0  0  0  0  0
    0.8556    2.9972   -5.3487 H   0  0  0  0  0  0  0  0  0  0  0  0
    1.7329    1.6606   -6.1029 H   0  0  0  0  0  0  0  0  0  0  0  0
    0.1338    1.3825   -5.3879 H   0  0  0  0  0  0  0  0  0  0  0  0
    4.1185    1.7031   -4.2376 N   0  0  0  0  0  0  0  0  0  0  0  0
    5.4518    2.2580   -4.2156 C   0  0  0  0  0  0  0  0  0  0  0  0
    4.0036    0.7599   -4.5967 H   0  0  0  0  0  0  0  0  0  0  0  0
    5.6481    2.7797   -5.1639 H   0  0  0  0  0  0  0  0  0  0  0  0
    5.5390    2.9693   -3.3810 H   0  0  0  0  0  0  0  0  0  0  0  0
    6.1839    1.4476   -4.0847 H   0  0  0  0  0  0  0  0  0  0  0  0
  1  3  1  0  0  0  0
  1  7  1  0  0  0  0
  1  2  2  0  0  0  0
 23 25  1  0  0  0  0
 23 29  1  0  0  0  0
 23 24  2  0  0  0  0
 50 51  1  0  0  0  0
 51 59  1  0  0  0  0
 51 52  2  0  0  0  0
  8  9  1  0  0  0  0
  9 17  1  0  0  0  0
  9 10  2  0  0  0  0
 30 31  1  0  0  0  0
 31 39  1  0  0  0  0
 31 32  2  0  0  0  0
 40 41  1  0  0  0  0
 41 49  1  0  0  0  0
 41 42  2  0  0  0  0
 50 53  1  0  0  0  0
 30 33  1  0  0  0  0
 59 60  1  0  0  0  0
 17 18  1  0  0  0  0
  8 11  1  0  0  0  0
 11 12  1  0  0  0  0
 40 43  1  0  0  0  0
 43 44  1  0  0  0  0
 49 50  1  0  0  0  0
  7  8  1  0  0  0  0
 29 30  1  0  0  0  0
 39 40  1  0  0  0  0
 12 44  1  0  0  0  0
  3  4  1  0  0  0  0
  3  5  1  0  0  0  0
  3  6  1  0  0  0  0
 25 26  1  0  0  0  0
 25 27  1  0  0  0  0
 25 28  1  0  0  0  0
 53 56  1  0  0  0  0
 53 57  1  0  0  0  0
 53 58  1  0  0  0  0
 33 36  1  0  0  0  0
 33 37  1  0  0  0  0
 33 38  1  0  0  0  0
 60 62  1  0  0  0  0
 60 63  1  0  0  0  0
 60 64  1  0  0  0  0
 18 20  1  0  0  0  0
 18 21  1  0  0  0  0
 18 22  1  0  0  0  0
 11 15  1  0  0  0  0
 11 16  1  0  0  0  0
 43 47  1  0  0  0  0
 43 48  1  0  0  0  0
 50 55  1  0  0  0  0
  8 14  1  0  0  0  0
 30 35  1  0  0  0  0
 40 46  1  0  0  0  0
 59 61  1  0  0  0  0
 17 19  1  0  0  0  0
  7 13  1  0  0  0  0
 29 34  1  0  0  0  0
 49 54  1  0  0  0  0
 39 45  1  0  0  0  0
M  END
$$$$

  -OEChem-05262214473D

 64 63  0     1  0  0  0  0  0999 V2000
   -2.9196   -0.9613    6.4512 C   0  0  0  0  0  0  0  0  0  0  0  0
   -4.0717   -1.2205    6.1237 O   0  0  0  0  0  0  0  0  0  0  0  0
   -2.6533   -0.3572    7.7900 C   0  0  0  0  0  0  0  0  0  0  0  0
   -2.6724    0.7443    7.7656 H   0  0  0  0  0  0  0  0  0  0  0  0
   -3.4086   -0.6449    8.5389 H   0  0  0  0  0  0  0  0  0  0  0  0
   -1.6832   -0.6202    8.2412 H   0  0  0  0  0  0  0  0  0  0  0  0
   -1.7837   -1.1749    5.6896 N   0  0  0  0  0  0  0  0  0  0  0  0
   -1.8136   -1.7495    4.3684 C   0  0  2  0  0  0  0  0  0  0  0  0
   -0.5652   -2.6077    4.1740 C   0  0  0  0  0  0  0  0  0  0  0  0
    0.3447   -2.6627    4.9989 O   0  0  0  0  0  0  0  0  0  0  0  0
   -1.9992   -0.6922    3.2773 C   0  0  0  0  0  0  0  0  0  0  0  0
   -0.6333    0.5109    3.1803 S   0  0  0  0  0  0  0  0  0  0  0  0
   -0.8822   -0.9130    6.0823 H   0  0  0  0  0  0  0  0  0  0  0  0
   -2.6815   -2.4206    4.3585 H   0  0  0  0  0  0  0  0  0  0  0  0
   -2.0887   -1.1659    2.2943 H   0  0  0  0  0  0  0  0  0  0  0  0
   -2.9208   -0.1281    3.4573 H   0  0  0  0  0  0  0  0  0  0  0  0
   -0.5763   -3.2835    2.9621 N   0  0  0  0  0  0  0  0  0  0  0  0
    0.5062   -4.1402    2.5379 C   0  0  0  0  0  0  0  0  0  0  0  0
   -1.3903   -3.2142    2.3585 H   0  0  0  0  0  0  0  0  0  0  0  0
    1.2182   -3.5598    1.9326 H   0  0  0  0  0  0  0  0  0  0  0  0
    1.0212   -4.5450    3.4216 H   0  0  0  0  0  0  0  0  0  0  0  0
    0.1039   -4.9686    1.9364 H   0  0  0  0  0  0  0  0  0  0  0  0
   -6.7256    2.0330   -0.2766 C   0  0  0  0  0  0  0  0  0  0  0  0
   -7.1824    1.1039   -0.9322 O   0  0  0  0  0  0  0  0  0  0  0  0
   -7.5276    2.6077    0.8435 C   0  0  0  0  0  0  0  0  0  0  0  0
   -8.1775    3.4344    0.5145 H   0  0  0  0  0  0  0  0  0  0  0  0
   -8.2057    1.8676    1.2980 H   0  0  0  0  0  0  0  0  0  0  0  0
   -6.9411    3.0162    1.6819 H   0  0  0  0  0  0  0  0  0  0  0  0
   -5.4935    2.6382   -0.4627 N   0  0  0  0  0  0  0  0  0  0  0  0
   -4.5619    2.2388   -1.4845 C   0  0  2  0  0  0  0  0  0  0  0  0
   -3.1535    2.4674   -0.9521 C   0  0  0  0  0  0  0  0  0  0  0  0
   -2.8634    3.3945   -0.1987 O   0  0  0  0  0  0  0  0  0  0  0  0
   -4.7883    3.0138   -2.7732 C   0  0  0  0  0  0  0  0  0  0  0  0
   -5.2337    3.4049    0.1551 H   0  0  0  0  0  0  0  0  0  0  0  0
   -4.7192    1.1682   -1.6549 H   0  0  0  0  0  0  0  0  0  0  0  0
   -4.6352    4.0886   -2.6221 H   0  0  0  0  0  0  0  0  0  0  0  0
   -4.0976    2.6887   -3.5582 H   0  0  0  0  0  0  0  0  0  0  0  0
   -5.8111    2.8719   -3.1387 H   0  0  0  0  0  0  0  0  0  0  0  0
   -2.2466    1.5400   -1.4507 N   0  0  0  0  0  0  0  0  0  0  0  0
   -0.8424    1.5707   -1.1286 C   0  0  2  0  0  0  0  0  0  0  0  0
   -0.0529    0.9965   -2.3032 C   0  0  0  0  0  0  0  0  0  0  0  0
   -0.3696   -0.0427   -2.8787 O   0  0  0  0  0  0  0  0  0  0  0  0
   -0.5351    0.8825    0.2037 C   0  0  0  0  0  0  0  0  0  0  0  0
   -1.2615    1.7125    1.6376 S   0  0  0  0  0  0  0  0  0  0  0  0
   -2.5850    0.7815   -2.0381 H   0  0  0  0  0  0  0  0  0  0  0  0
   -0.5829    2.6332   -1.0431 H   0  0  0  0  0  0  0  0  0  0  0  0
   -0.9063   -0.1476    0.1988 H   0  0  0  0  0  0  0  0  0  0  0  0
    0.5480    0.8426    0.3619 H   0  0  0  0  0  0  0  0  0  0  0  0
    1.0582    1.7669   -2.6154 N   0  0  0  0  0  0  0  0  0  0  0  0
    1.9765    1.4166   -3.6737 C   0  0  2  0  0  0  0  0  0  0  0  0
    3.3653    1.8919   -3.2676 C   0  0  0  0  0  0  0  0  0  0  0  0
    3.5596    2.9136   -2.6124 O   0  0  0  0  0  0  0  0  0  0  0  0
    1.5562    2.0346   -4.9981 C   0  0  0  0  0  0  0  0  0  0  0  0
    1.2208    2.6357   -2.1151 H   0  0  0  0  0  0  0  0  0  0  0  0
    1.9712    0.3237   -3.7482 H   0  0  0  0  0  0  0  0  0  0  0  0
    1.5555    3.1293   -4.9428 H   0  0  0  0  0  0  0  0  0  0  0  0
    2.2373    1.7448   -5.8050 H   0  0  0  0  0  0  0  0  0  0  0  0
    0.5454    1.7151   -5.2739 H   0  0  0  0  0  0  0  0  0  0  0  0
    4.3647    1.0642   -3.7598 N   0  0  0  0  0  0  0  0  0  0  0  0
    5.7690    1.3260   -3.5467 C   0  0  0  0  0  0  0  0  0  0  0  0
    4.1110    0.2168   -4.2590 H   0  0  0  0  0  0  0  0  0  0  0  0
    6.1660    1.9096   -4.3904 H   0  0  0  0  0  0  0  0  0  0  0  0
    5.8985    1.8951   -2.6143 H   0  0  0  0  0  0  0  0  0  0  0  0
    6.3125    0.3725   -3.4726 H   0  0  0  0  0  0  0  0  0  0  0  0
  1  3  1  0  0  0  0
  1  7  1  0  0  0  0
  1  2  2  0  0  0  0
 23 25  1  0  0  0  0
 23 29  1  0  0  0  0
 23 24  2  0  0  0  0
 50 51  1  0  0  0  0
 51 59  1  0  0  0  0
 51 52  2  0  0  0  0
  8  9  1  0  0  0  0
  9 17  1  0  0  0  0
  9 10  2  0  0  0  0
 30 31  1  0  0  0  0
 31 39  1  0  0  0  0
 31 32  2  0  0  0  0
 40 41  1  0  0  0  0
 41 49  1  0  0  0  0
 41 42  2  0  0  0  0
 50 53  1  0  0  0  0
 30 33  1  0  0  0  0
 59 60  1  0  0  0  0
 17 18  1  0  0  0  0
  8 11  1  0  0  0  0
 11 12  1  0  0  0  0
 40 43  1  0  0  0  0
 43 44  1  0  0  0  0
 49 50  1  0  0  0  0
  7  8  1  0  0  0  0
 29 30  1  0  0  0  0
 39 40  1  0  0  0  0
 12 44  1  0  0  0  0
  3  4  1  0  0  0  0
  3  5  1  0  0  0  0
  3  6  1  0  0  0  0
 25 26  1  0  0  0  0
 25 27  1  0  0  0  0
 25 28  1  0  0  0  0
 53 56  1  0  0  0  0
 53 57  1  0  0  0  0
 53 58  1  0  0  0  0
 33 36  1  0  0  0  0
 33 37  1  0  0  0  0
 33 38  1  0  0  0  0
 60 62  1  0  0  0  0
 60 63  1  0  0  0  0
 60 64  1  0  0  0  0
 18 20  1  0  0  0  0
 18 21  1  0  0  0  0
 18 22  1  0  0  0  0
 11 15  1  0  0  0  0
 11 16  1  0  0  0  0
 43 47  1  0  0  0  0
 43 48  1  0  0  0  0
 50 55  1  0  0  0  0
  8 14  1  0  0  0  0
 30 35  1  0  0  0  0
 40 46  1  0  0  0  0
 59 61  1  0  0  0  0
 17 19  1  0  0  0  0
  7 13  1  0  0  0  0
 29 34  1  0  0  0  0
 49 54  1  0  0  0  0
 39 45  1  0  0  0  0
M  END
$$$$

  -OEChem-05262214473D

 64 63  0     1  0  0  0  0  0999 V2000
   -2.9196   -0.9613    6.4512 C   0  0  0  0  0  0  0  0  0  0  0  0
   -4.0717   -1.2205    6.1237 O   0  0  0  0  0  0  0  0  0  0  0  0
   -2.6533   -0.3572    7.7900 C   0  0  0  0  0  0  0  0  0  0  0  0
   -2.6724    0.7443    7.7656 H   0  0  0  0  0  0  0  0  0  0  0  0
   -3.4086   -0.6449    8.5389 H   0  0  0  0  0  0  0  0  0  0  0  0
   -1.6832   -0.6202    8.2412 H   0  0  0  0  0  0  0  0  0  0  0  0
   -1.7837   -1.1749    5.6896 N   0  0  0  0  0  0  0  0  0  0  0  0
   -1.8136   -1.7495    4.3684 C   0  0  2  0  0  0  0  0  0  0  0  0
   -0.5652   -2.6077    4.1740 C   0  0  0  0  0  0  0  0  0  0  0  0
    0.3447   -2.6627    4.9989 O   0  0  0  0  0  0  0  0  0  0  0  0
   -1.9992   -0.6922    3.2773 C   0  0  0  0  0  0  0  0  0  0  0  0
   -0.6333    0.5109    3.1803 S   0  0  0  0  0  0  0  0  0  0  0  0
   -0.8822   -0.9130    6.0823 H   0  0  0  0  0  0  0  0  0  0  0  0
   -2.6815   -2.4206    4.3585 H   0  0  0  0  0  0  0  0  0  0  0  0
   -2.0887   -1.1659    2.2943 H   0  0  0  0  0  0  0  0  0  0  0  0
   -2.9208   -0.1281    3.4573 H   0  0  0  0  0  0  0  0  0  0  0  0
   -0.5763   -3.2835    2.9621 N   0  0  0  0  0  0  0  0  0  0  0  0
    0.5062   -4.1402    2.5379 C   0  0  0  0  0  0  0  0  0  0  0  0
   -1.3903   -3.2142    2.3585 H   0  0  0  0  0  0  0  0  0  0  0  0
    1.2182   -3.5598    1.9326 H   0  0  0  0  0  0  0  0  0  0  0  0
    1.0212   -4.5450    3.4216 H   0  0  0  0  0  0  0  0  0  0  0  0
    0.1039   -4.9686    1.9364 H   0  0  0  0  0  0  0  0  0  0  0  0
   -6.7256    2.0330   -0.2766 C   0  0  0  0  0  0  0  0  0  0  0  0
   -7.1824    1.1039   -0.9322 O   0  0  0  0  0  0  0  0  0  0  0  0
   -7.5276    2.6077    0.8435 C   0  0  0  0  0  0  0  0  0  0  0  0
   -8.1775    3.4344    0.5145 H   0  0  0  0  0  0  0  0  0  0  0  0
   -8.2057    1.8676    1.2980 H   0  0  0  0  0  0  0  0  0  0  0  0
   -6.9411    3.0162    1.6819 H   0  0  0  0  0  0  0  0  0  0  0  0
   -5.4935    2.6382   -0.4627 N   0  0  0  0  0  0  0  0  0  0  0  0
   -4.5619    2.2388   -1.4845 C   0  0  2  0  0  0  0  0  0  0  0  0
   -3.1535    2.4674   -0.9521 C   0  0  0  0  0  0  0  0  0  0  0  0
   -2.8634    3.3945   -0.1987 O   0  0  0  0  0  0  0  0  0  0  0  0
   -4.7883    3.0138   -2.7732 C   0  0  0  0  0  0  0  0  0  0  0  0
   -5.2337    3.4049    0.1551 H   0  0  0  0  0  0  0  0  0  0  0  0
   -4.7192    1.1682   -1.6549 H   0  0  0  0  0  0  0  0  0  0  0  0
   -4.6352    4.0886   -2.6221 H   0  0  0  0  0  0  0  0  0  0  0  0
   -4.0976    2.6887   -3.5582 H   0  0  0  0  0  0  0  0  0  0  0  0
   -5.8111    2.8719   -3.1387 H   0  0  0  0  0  0  0  0  0  0  0  0
   -2.2466    1.5400   -1.4507 N   0  0  0  0  0  0  0  0  0  0  0  0
   -0.8424    1.5707   -1.1286 C   0  0  2  0  0  0  0  0  0  0  0  0
   -0.0529    0.9965   -2.3032 C   0  0  0  0  0  0  0  0  0  0  0  0
   -0.4978    0.1241   -3.0464 O   0  0  0  0  0  0  0  0  0  0  0  0
   -0.5351    0.8825    0.2037 C   0  0  0  0  0  0  0  0  0  0  0  0
   -1.2615    1.7125    1.6376 S   0  0  0  0  0  0  0  0  0  0  0  0
   -2.5850    0.7815   -2.0381 H   0  0  0  0  0  0  0  0  0  0  0  0
   -0.5829    2.6332   -1.0431 H   0  0  0  0  0  0  0  0  0  0  0  0
   -0.9063   -0.1476    0.1988 H   0  0  0  0  0  0  0  0  0  0  0  0
    0.5480    0.8426    0.3619 H   0  0  0  0  0  0  0  0  0  0  0  0
    1.2133    1.5545   -2.4074 N   0  0  0  0  0  0  0  0  0  0  0  0
    2.1586    1.1568   -3.4243 C   0  0  2  0  0  0  0  0  0  0  0  0
    3.5592    1.2822   -2.8393 C   0  0  0  0  0  0  0  0  0  0  0  0
    3.8726    2.1529   -2.0301 O   0  0  0  0  0  0  0  0  0  0  0  0
    2.0145    2.0073   -4.6767 C   0  0  0  0  0  0  0  0  0  0  0  0
    1.4836    2.3024   -1.7755 H   0  0  0  0  0  0  0  0  0  0  0  0
    1.9514    0.1062   -3.6552 H   0  0  0  0  0  0  0  0  0  0  0  0
    2.2184    3.0632   -4.4650 H   0  0  0  0  0  0  0  0  0  0  0  0
    2.7123    1.6859   -5.4570 H   0  0  0  0  0  0  0  0  0  0  0  0
    0.9980    1.9392   -5.0792 H   0  0  0  0  0  0  0  0  0  0  0  0
    4.4289    0.3342   -3.3597 N   0  0  0  0  0  0  0  0  0  0  0  0
    5.8249    0.2730   -2.9944 C   0  0  0  0  0  0  0  0  0  0  0  0
    4.0738   -0.3744   -3.9950 H   0  0  0  0  0  0  0  0  0  0  0  0
    6.4178    0.8625   -3.7093 H   0  0  0  0  0  0  0  0  0  0  0  0
    5.9573    0.6834   -1.9824 H   0  0  0  0  0  0  0  0  0  0  0  0
    6.1631   -0.7735   -3.0128 H   0  0  0  0  0  0  0  0  0  0  0  0
  1  3  1  0  0  0  0
  1  7  1  0  0  0  0
  1  2  2  0  0  0  0
 23 25  1  0  0  0  0
 23 29  1  0  0  0  0
 23 24  2  0  0  0  0
 50 51  1  0  0  0  0
 51 59  1  0  0  0  0
 51 52  2  0  0  0  0
  8  9  1  0  0  0  0
  9 17  1  0  0  0  0
  9 10  2  0  0  0  0
 30 31  1  0  0  0  0
 31 39  1  0  0  0  0
 31 32  2  0  0  0  0
 40 41  1  0  0  0  0
 41 49  1  0  0  0  0
 41 42  2  0  0  0  0
 50 53  1  0  0  0  0
 30 33  1  0  0  0  0
 59 60  1  0  0  0  0
 17 18  1  0  0  0  0
  8 11  1  0  0  0  0
 11 12  1  0  0  0  0
 40 43  1  0  0  0  0
 43 44  1  0  0  0  0
 49 50  1  0  0  0  0
  7  8  1  0  0  0  0
 29 30  1  0  0  0  0
 39 40  1  0  0  0  0
 12 44  1  0  0  0  0
  3  4  1  0  0  0  0
  3  5  1  0  0  0  0
  3  6  1  0  0  0  0
 25 26  1  0  0  0  0
 25 27  1  0  0  0  0
 25 28  1  0  0  0  0
 53 56  1  0  0  0  0
 53 57  1  0  0  0  0
 53 58  1  0  0  0  0
 33 36  1  0  0  0  0
 33 37  1  0  0  0  0
 33 38  1  0  0  0  0
 60 62  1  0  0  0  0
 60 63  1  0  0  0  0
 60 64  1  0  0  0  0
 18 20  1  0  0  0  0
 18 21  1  0  0  0  0
 18 22  1  0  0  0  0
 11 15  1  0  0  0  0
 11 16  1  0  0  0  0
 43 47  1  0  0  0  0
 43 48  1  0  0  0  0
 50 55  1  0  0  0  0
  8 14  1  0  0  0  0
 30 35  1  0  0  0  0
 40 46  1  0  0  0  0
 59 61  1  0  0  0  0
 17 19  1  0  0  0  0
  7 13  1  0  0  0  0
 29 34  1  0  0  0  0
 49 54  1  0  0  0  0
 39 45  1  0  0  0  0
M  END
$$$$

  -OEChem-05262214473D

 64 63  0     1  0  0  0  0  0999 V2000
   -2.9196   -0.9613    6.4512 C   0  0  0  0  0  0  0  0  0  0  0  0
   -4.0717   -1.2205    6.1237 O   0  0  0  0  0  0  0  0  0  0  0  0
   -2.6533   -0.3572    7.7900 C   0  0  0  0  0  0  0  0  0  0  0  0
   -2.6724    0.7443    7.7656 H   0  0  0  0  0  0  0  0  0  0  0  0
   -3.4086   -0.6449    8.5389 H   0  0  0  0  0  0  0  0  0  0  0  0
   -1.6832   -0.6202    8.2412 H   0  0  0  0  0  0  0  0  0  0  0  0
   -1.7837   -1.1749    5.6896 N   0  0  0  0  0  0  0  0  0  0  0  0
   -1.8136   -1.7495    4.3684 C   0  0  2  0  0  0  0  0  0  0  0  0
   -0.5652   -2.6077    4.1740 C   0  0  0  0  0  0  0  0  0  0  0  0
    0.3447   -2.6627    4.9989 O   0  0  0  0  0  0  0  0  0  0  0  0
   -1.9992   -0.6922    3.2773 C   0  0  0  0  0  0  0  0  0  0  0  0
   -0.6333    0.5109    3.1803 S   0  0  0  0  0  0  0  0  0  0  0  0
   -0.8822   -0.9130    6.0823 H   0  0  0  0  0  0  0  0  0  0  0  0
   -2.6815   -2.4206    4.3585 H   0  0  0  0  0  0  0  0  0  0  0  0
   -2.0887   -1.1659    2.2943 H   0  0  0  0  0  0  0  0  0  0  0  0
   -2.9208   -0.1281    3.4573 H   0  0  0  0  0  0  0  0  0  0  0  0
   -0.5763   -3.2835    2.9621 N   0  0  0  0  0  0  0  0  0  0  0  0
    0.5062   -4.1402    2.5379 C   0  0  0  0  0  0  0  0  0  0  0  0
   -1.3903   -3.2142    2.3585 H   0  0  0  0  0  0  0  0  0  0  0  0
    1.2182   -3.5598    1.9326 H   0  0  0  0  0  0  0  0  0  0  0  0
    1.0212   -4.5450    3.4216 H   0  0  0  0  0  0  0  0  0  0  0  0
    0.1039   -4.9686    1.9364 H   0  0  0  0  0  0  0  0  0  0  0  0
   -6.7256    2.0330   -0.2766 C   0  0  0  0  0  0  0  0  0  0  0  0
   -7.1824    1.1039   -0.9322 O   0  0  0  0  0  0  0  0  0  0  0  0
   -7.5276    2.6077    0.8435 C   0  0  0  0  0  0  0  0  0  0  0  0
   -8.1775    3.4344    0.5145 H   0  0  0  0  0  0  0  0  0  0  0  0
   -8.2057    1.8676    1.2980 H   0  0  0  0  0  0  0  0  0  0  0  0
   -6.9411    3.0162    1.6819 H   0  0  0  0  0  0  0  0  0  0  0  0
   -5.4935    2.6382   -0.4627 N   0  0  0  0  0  0  0  0  0  0  0  0
   -4.5619    2.2388   -1.4845 C   0  0  2  0  0  0  0  0  0  0  0  0
   -3.1535    2.4674   -0.9521 C   0  0  0  0  0  0  0  0  0  0  0  0
   -2.8634    3.3945   -0.1987 O   0  0  0  0  0  0  0  0  0  0  0  0
   -4.7883    3.0138   -2.7732 C   0  0  0  0  0  0  0  0  0  0  0  0
   -5.2337    3.4049    0.1551 H   0  0  0  0  0  0  0  0  0  0  0  0
   -4.7192    1.1682   -1.6549 H   0  0  0  0  0  0  0  0  0  0  0  0
   -4.6352    4.0886   -2.6221 H   0  0  0  0  0  0  0  0  0  0  0  0
   -4.0976    2.6887   -3.5582 H   0  0  0  0  0  0  0  0  0  0  0  0
   -5.8111    2.8719   -3.1387 H   0  0  0  0  0  0  0  0  0  0  0  0
   -2.2466    1.5400   -1.4507 N   0  0  0  0  0  0  0  0  0  0  0  0
   -0.8424    1.5707   -1.1286 C   0  0  2  0  0  0  0  0  0  0  0  0
   -0.0529    0.9965   -2.3032 C   0  0  0  0  0  0  0  0  0  0  0  0
   -0.5722    0.3333   -3.1987 O   0  0  0  0  0  0  0  0  0  0  0  0
   -0.5351    0.8825    0.2037 C   0  0  0  0  0  0  0  0  0  0  0  0
   -1.2615    1.7125    1.6376 S   0  0  0  0  0  0  0  0  0  0  0  0
   -2.5850    0.7815   -2.0381 H   0  0  0  0  0  0  0  0  0  0  0  0
   -0.5829    2.6332   -1.0431 H   0  0  0  0  0  0  0  0  0  0  0  0
   -0.9063   -0.1476    0.1988 H   0  0  0  0  0  0  0  0  0  0  0  0
    0.5480    0.8426    0.3619 H   0  0  0  0  0  0  0  0  0  0  0  0
    1.3006    1.2907   -2.2197 N   0  0  0  0  0  0  0  0  0  0  0  0
    2.2585    0.8362   -3.2004 C   0  0  2  0  0  0  0  0  0  0  0  0
    3.5834    0.5974   -2.4882 C   0  0  0  0  0  0  0  0  0  0  0  0
    3.9669    1.2778   -1.5390 O   0  0  0  0  0  0  0  0  0  0  0  0
    2.4205    1.8466   -4.3253 C   0  0  0  0  0  0  0  0  0  0  0  0
    1.6380    1.8828   -1.4666 H   0  0  0  0  0  0  0  0  0  0  0  0
    1.8799   -0.1124   -3.5963 H   0  0  0  0  0  0  0  0  0  0  0  0
    2.7990    2.8036   -3.9478 H   0  0  0  0  0  0  0  0  0  0  0  0
    3.1256    1.4879   -5.0824 H   0  0  0  0  0  0  0  0  0  0  0  0
    1.4609    2.0395   -4.8171 H   0  0  0  0  0  0  0  0  0  0  0  0
    4.3067   -0.4373   -3.0647 N   0  0  0  0  0  0  0  0  0  0  0  0
    5.6156   -0.8290   -2.5963 C   0  0  0  0  0  0  0  0  0  0  0  0
    3.8945   -0.9733   -3.8227 H   0  0  0  0  0  0  0  0  0  0  0  0
    6.3863   -0.2901   -3.1670 H   0  0  0  0  0  0  0  0  0  0  0  0
    5.7114   -0.5833   -1.5284 H   0  0  0  0  0  0  0  0  0  0  0  0
    5.7460   -1.9122   -2.7365 H   0  0  0  0  0  0  0  0  0  0  0  0
  1  3  1  0  0  0  0
  1  7  1  0  0  0  0
  1  2  2  0  0  0  0
 23 25  1  0  0  0  0
 23 29  1  0  0  0  0
 23 24  2  0  0  0  0
 50 51  1  0  0  0  0
 51 59  1  0  0  0  0
 51 52  2  0  0  0  0
  8  9  1  0  0  0  0
  9 17  1  0  0  0  0
  9 10  2  0  0  0  0
 30 31  1  0  0  0  0
 31 39  1  0  0  0  0
 31 32  2  0  0  0  0
 40 41  1  0  0  0  0
 41 49  1  0  0  0  0
 41 42  2  0  0  0  0
 50 53  1  0  0  0  0
 30 33  1  0  0  0  0
 59 60  1  0  0  0  0
 17 18  1  0  0  0  0
  8 11  1  0  0  0  0
 11 12  1  0  0  0  0
 40 43  1  0  0  0  0
 43 44  1  0  0  0  0
 49 50  1  0  0  0  0
  7  8  1  0  0  0  0
 29 30  1  0  0  0  0
 39 40  1  0  0  0  0
 12 44  1  0  0  0  0
  3  4  1  0  0  0  0
  3  5  1  0  0  0  0
  3  6  1  0  0  0  0
 25 26  1  0  0  0  0
 25 27  1  0  0  0  0
 25 28  1  0  0  0  0
 53 56  1  0  0  0  0
 53 57  1  0  0  0  0
 53 58  1  0  0  0  0
 33 36  1  0  0  0  0
 33 37  1  0  0  0  0
 33 38  1  0  0  0  0
 60 62  1  0  0  0  0
 60 63  1  0  0  0  0
 60 64  1  0  0  0  0
 18 20  1  0  0  0  0
 18 21  1  0  0  0  0
 18 22  1  0  0  0  0
 11 15  1  0  0  0  0
 11 16  1  0  0  0  0
 43 47  1  0  0  0  0
 43 48  1  0  0  0  0
 50 55  1  0  0  0  0
  8 14  1  0  0  0  0
 30 35  1  0  0  0  0
 40 46  1  0  0  0  0
 59 61  1  0  0  0  0
 17 19  1  0  0  0  0
  7 13  1  0  0  0  0
 29 34  1  0  0  0  0
 49 54  1  0  0  0  0
 39 45  1  0  0  0  0
M  END
$$$$

  -OEChem-05262214473D

 64 63  0     1  0  0  0  0  0999 V2000
   -2.6733   -2.9072    5.5629 C   0  0  0  0  0  0  0  0  0  0  0  0
   -3.8128   -3.1425    5.1783 O   0  0  0  0  0  0  0  0  0  0  0  0
   -2.4246   -2.6454    7.0113 C   0  0  0  0  0  0  0  0  0  0  0  0
   -2.5069   -1.5765    7.2657 H   0  0  0  0  0  0  0  0  0  0  0  0
   -3.1525   -3.1564    7.6619 H   0  0  0  0  0  0  0  0  0  0  0  0
   -1.4353   -2.9565    7.3834 H   0  0  0  0  0  0  0  0  0  0  0  0
   -1.5370   -2.8550    4.7741 N   0  0  0  0  0  0  0  0  0  0  0  0
   -1.5511   -3.0788    3.3507 C   0  0  2  0  0  0  0  0  0  0  0  0
   -0.2583   -3.7856    2.9484 C   0  0  0  0  0  0  0  0  0  0  0  0
    0.6638   -3.9934    3.7344 O   0  0  0  0  0  0  0  0  0  0  0  0
   -1.8109   -1.7933    2.5614 C   0  0  0  0  0  0  0  0  0  0  0  0
   -0.5174   -0.5268    2.7738 S   0  0  0  0  0  0  0  0  0  0  0  0
   -0.6469   -2.6482    5.2220 H   0  0  0  0  0  0  0  0  0  0  0  0
   -2.3792   -3.7753    3.1701 H   0  0  0  0  0  0  0  0  0  0  0  0
   -1.8859   -2.0084    1.4904 H   0  0  0  0  0  0  0  0  0  0  0  0
   -2.7608   -1.3478    2.8761 H   0  0  0  0  0  0  0  0  0  0  0  0
   -0.2465   -4.1336    1.6051 N   0  0  0  0  0  0  0  0  0  0  0  0
    0.8777   -4.7908    0.9805 C   0  0  0  0  0  0  0  0  0  0  0  0
   -1.0708   -3.9622    1.0370 H   0  0  0  0  0  0  0  0  0  0  0  0
    1.5474   -4.0360    0.5427 H   0  0  0  0  0  0  0  0  0  0  0  0
    1.4263   -5.3744    1.7344 H   0  0  0  0  0  0  0  0  0  0  0  0
    0.5156   -5.4630    0.1886 H   0  0  0  0  0  0  0  0  0  0  0  0
   -6.7256    2.0330   -0.2766 C   0  0  0  0  0  0  0  0  0  0  0  0
   -7.1824    1.1039   -0.9322 O   0  0  0  0  0  0  0  0  0  0  0  0
   -7.5276    2.6077    0.8435 C   0  0  0  0  0  0  0  0  0  0  0  0
   -8.1775    3.4344    0.5145 H   0  0  0  0  0  0  0  0  0  0  0  0
   -8.2057    1.8676    1.2980 H   0  0  0  0  0  0  0  0  0  0  0  0
   -6.9411    3.0162    1.6819 H   0  0  0  0  0  0  0  0  0  0  0  0
   -5.4935    2.6382   -0.4627 N   0  0  0  0  0  0  0  0  0  0  0  0
   -4.5619    2.2388   -1.4845 C   0  0  2  0  0  0  0  0  0  0  0  0
   -3.1535    2.4674   -0.9521 C   0  0  0  0  0  0  0  0  0  0  0  0
   -2.8634    3.3945   -0.1987 O   0  0  0  0  0  0  0  0  0  0  0  0
   -4.7883    3.0138   -2.7732 C   0  0  0  0  0  0  0  0  0  0  0  0
   -5.2337    3.4049    0.1551 H   0  0  0  0  0  0  0  0  0  0  0  0
   -4.7192    1.1682   -1.6549 H   0  0  0  0  0  0  0  0  0  0  0  0
   -4.6352    4.0886   -2.6221 H   0  0  0  0  0  0  0  0  0  0  0  0
   -4.0976    2.6887   -3.5582 H   0  0  0  0  0  0  0  0  0  0  0  0
   -5.8111    2.8719   -3.1387 H   0  0  0  0  0  0  0  0  0  0  0  0
   -2.2466    1.5400   -1.4507 N   0  0  0  0  0  0  0  0  0  0  0  0
   -0.8424    1.5707   -1.1286 C   0  0  2  0  0  0  0  0  0  0  0  0
   -0.0367    1.3583   -2.4085 C   0  0  0  0  0  0  0  0  0  0  0  0
   -0.5593    1.1730   -3.5058 O   0  0  0  0  0  0  0  0  0  0  0  0
   -0.4791    0.5881   -0.0126 C   0  0  0  0  0  0  0  0  0  0  0  0
   -1.2331    0.9859    1.5830 S   0  0  0  0  0  0  0  0  0  0  0  0
   -2.5850    0.7815   -2.0381 H   0  0  0  0  0  0  0  0  0  0  0  0
   -0.6429    2.5907   -0.7772 H   0  0  0  0  0  0  0  0  0  0  0  0
   -0.7908   -0.4273   -0.2780 H   0  0  0  0  0  0  0  0  0  0  0  0
    0.6065    0.5731    0.1325 H   0  0  0  0  0  0  0  0  0  0  0  0
    1.3313    1.3754   -2.1765 N   0  0  0  0  0  0  0  0  0  0  0  0
    2.3021    1.1723   -3.2263 C   0  0  2  0  0  0  0  0  0  0  0  0
    3.5110    0.4719   -2.6199 C   0  0  0  0  0  0  0  0  0  0  0  0
    3.8972    0.6749   -1.4707 O   0  0  0  0  0  0  0  0  0  0  0  0
    2.7040    2.4897   -3.8709 C   0  0  0  0  0  0  0  0  0  0  0  0
    1.6777    1.5788   -1.2436 H   0  0  0  0  0  0  0  0  0  0  0  0
    1.8334    0.5164   -3.9680 H   0  0  0  0  0  0  0  0  0  0  0  0
    3.1755    3.1601   -3.1430 H   0  0  0  0  0  0  0  0  0  0  0  0
    3.4184    2.3313   -4.6855 H   0  0  0  0  0  0  0  0  0  0  0  0
    1.8291    3.0062   -4.2802 H   0  0  0  0  0  0  0  0  0  0  0  0
    4.1334   -0.3741   -3.5271 N   0  0  0  0  0  0  0  0  0  0  0  0
    5.3274   -1.1201   -3.2049 C   0  0  0  0  0  0  0  0  0  0  0  0
    3.7215   -0.5123   -4.4453 H   0  0  0  0  0  0  0  0  0  0  0  0
    6.2139   -0.5398   -3.5004 H   0  0  0  0  0  0  0  0  0  0  0  0
    5.3589   -1.3117   -2.1222 H   0  0  0  0  0  0  0  0  0  0  0  0
    5.3188   -2.0775   -3.7465 H   0  0  0  0  0  0  0  0  0  0  0  0
  1  3  1  0  0  0  0
  1  7  1  0  0  0  0
  1  2  2  0  0  0  0
 23 25  1  0  0  0  0
 23 29  1  0  0  0  0
 23 24  2  0  0  0  0
 50 51  1  0  0  0  0
 51 59  1  0  0  0  0
 51 52  2  0  0  0  0
  8  9  1  0  0  0  0
  9 17  1  0  0  0  0
  9 10  2  0  0  0  0
 30 31  1  0  0  0  0
 31 39  1  0  0  0  0
 31 32  2  0  0  0  0
 40 41  1  0  0  0  0
 41 49  1  0  0  0  0
 41 42  2  0  0  0  0
 50 53  1  0  0  0  0
 30 33  1  0  0  0  0
 59 60  1  0  0  0  0
 17 18  1  0  0  0  0
  8 11  1  0  0  0  0
 11 12  1  0  0  0  0
 40 43  1  0  0  0  0
 43 44  1  0  0  0  0
 49 50  1  0  0  0  0
  7  8  1  0  0  0  0
 29 30  1  0  0  0  0
 39 40  1  0  0  0  0
 12 44  1  0  0  0  0
  3  4  1  0  0  0  0
  3  5  1  0  0  0  0
  3  6  1  0  0  0  0
 25 26  1  0  0  0  0
 25 27  1  0  0  0  0
 25 28  1  0  0  0  0
 53 56  1  0  0  0  0
 53 57  1  0  0  0  0
 53 58  1  0  0  0  0
 33 36  1  0  0  0  0
 33 37  1  0  0  0  0
 33 38  1  0  0  0  0
 60 62  1  0  0  0  0
 60 63  1  0  0  0  0
 60 64  1  0  0  0  0
 18 20  1  0  0  0  0
 18 21  1  0  0  0  0
 18 22  1  0  0  0  0
 11 15  1  0  0  0  0
 11 16  1  0  0  0  0
 43 47  1  0  0  0  0
 43 48  1  0  0  0  0
 50 55  1  0  0  0  0
  8 14  1  0  0  0  0
 30 35  1  0  0  0  0
 40 46  1  0  0  0  0
 59 61  1  0  0  0  0
 17 19  1  0  0  0  0
  7 13  1  0  0  0  0
 29 34  1  0  0  0  0
 49 54  1  0  0  0  0
 39 45  1  0  0  0  0
M  END
$$$$

  -OEChem-05262214473D

 64 63  0     1  0  0  0  0  0999 V2000
   -2.6733   -2.9072    5.5629 C   0  0  0  0  0  0  0  0  0  0  0  0
   -3.8128   -3.1425    5.1783 O   0  0  0  0  0  0  0  0  0  0  0  0
   -2.4246   -2.6454    7.0113 C   0  0  0  0  0  0  0  0  0  0  0  0
   -2.5069   -1.5765    7.2657 H   0  0  0  0  0  0  0  0  0  0  0  0
   -3.1525   -3.1564    7.6619 H   0  0  0  0  0  0  0  0  0  0  0  0
   -1.4353   -2.9565    7.3834 H   0  0  0  0  0  0  0  0  0  0  0  0
   -1.5370   -2.8550    4.7741 N   0  0  0  0  0  0  0  0  0  0  0  0
   -1.5511   -3.0788    3.3507 C   0  0  2  0  0  0  0  0  0  0  0  0
   -0.2583   -3.7856    2.9484 C   0  0  0  0  0  0  0  0  0  0  0  0
    0.6638   -3.9934    3.7344 O   0  0  0  0  0  0  0  0  0  0  0  0
   -1.8109   -1.7933    2.5614 C   0  0  0  0  0  0  0  0  0  0  0  0
   -0.5174   -0.5268    2.7738 S   0  0  0  0  0  0  0  0  0  0  0  0
   -0.6469   -2.6482    5.2220 H   0  0  0  0  0  0  0  0  0  0  0  0
   -2.3792   -3.7753    3.1701 H   0  0  0  0  0  0  0  0  0  0  0  0
   -1.8859   -2.0084    1.4904 H   0  0  0  0  0  0  0  0  0  0  0  0
   -2.7608   -1.3478    2.8761 H   0  0  0  0  0  0  0  0  0  0  0  0
   -0.2465   -4.1336    1.6051 N   0  0  0  0  0  0  0  0  0  0  0  0
    0.8777   -4.7908    0.9805 C   0  0  0  0  0  0  0  0  0  0  0  0
   -1.0708   -3.9622    1.0370 H   0  0  0  0  0  0  0  0  0  0  0  0
    1.5474   -4.0360    0.5427 H   0  0  0  0  0  0  0  0  0  0  0  0
    1.4263   -5.3744    1.7344 H   0  0  0  0  0  0  0  0  0  0  0  0
    0.5156   -5.4630    0.1886 H   0  0  0  0  0  0  0  0  0  0  0  0
   -6.7256    2.0330   -0.2766 C   0  0  0  0  0  0  0  0  0  0  0  0
   -7.1824    1.1039   -0.9322 O   0  0  0  0  0  0  0  0  0  0  0  0
   -7.5276    2.6077    0.8435 C   0  0  0  0  0  0  0  0  0  0  0  0
   -8.1775    3.4344    0.5145 H   0  0  0  0  0  0  0  0  0  0  0  0
   -8.2057    1.8676    1.2980 H   0  0  0  0  0  0  0  0  0  0  0  0
   -6.9411    3.0162    1.6819 H   0  0  0  0  0  0  0  0  0  0  0  0
   -5.4935    2.6382   -0.4627 N   0  0  0  0  0  0  0  0  0  0  0  0
   -4.5619    2.2388   -1.4845 C   0  0  2  0  0  0  0  0  0  0  0  0
   -3.1535    2.4674   -0.9521 C   0  0  0  0  0  0  0  0  0  0  0  0
   -2.8634    3.3945   -0.1987 O   0  0  0  0  0  0  0  0  0  0  0  0
   -4.7883    3.0138   -2.7732 C   0  0  0  0  0  0  0  0  0  0  0  0
   -5.2337    3.4049    0.1551 H   0  0  0  0  0  0  0  0  0  0  0  0
   -4.7192    1.1682   -1.6549 H   0  0  0  0  0  0  0  0  0  0  0  0
   -4.6352    4.0886   -2.6221 H   0  0  0  0  0  0  0  0  0  0  0  0
   -4.0976    2.6887   -3.5582 H   0  0  0  0  0  0  0  0  0  0  0  0
   -5.8111    2.8719   -3.1387 H   0  0  0  0  0  0  0  0  0  0  0  0
   -2.2466    1.5400   -1.4507 N   0  0  0  0  0  0  0  0  0  0  0  0
   -0.8424    1.5707   -1.1286 C   0  0  2  0  0  0  0  0  0  0  0  0
   -0.0367    1.3583   -2.4085 C   0  0  0  0  0  0  0  0  0  0  0  0
   -0.5301    1.4394   -3.5316 O   0  0  0  0  0  0  0  0  0  0  0  0
   -0.4791    0.5881   -0.0126 C   0  0  0  0  0  0  0  0  0  0  0  0
   -1.2331    0.9859    1.5830 S   0  0  0  0  0  0  0  0  0  0  0  0
   -2.5850    0.7815   -2.0381 H   0  0  0  0  0  0  0  0  0  0  0  0
   -0.6429    2.5907   -0.7772 H   0  0  0  0  0  0  0  0  0  0  0  0
   -0.7908   -0.4273   -0.2780 H   0  0  0  0  0  0  0  0  0  0  0  0
    0.6065    0.5731    0.1325 H   0  0  0  0  0  0  0  0  0  0  0  0
    1.2895    1.0439   -2.1478 N   0  0  0  0  0  0  0  0  0  0  0  0
    2.2465    0.7737   -3.1952 C   0  0  2  0  0  0  0  0  0  0  0  0
    3.2445   -0.2488   -2.6681 C   0  0  0  0  0  0  0  0  0  0  0  0
    3.6060   -0.2897   -1.4939 O   0  0  0  0  0  0  0  0  0  0  0  0
    2.9538    2.0445   -3.6397 C   0  0  0  0  0  0  0  0  0  0  0  0
    1.6233    1.0408   -1.1886 H   0  0  0  0  0  0  0  0  0  0  0  0
    1.6865    0.3410   -4.0314 H   0  0  0  0  0  0  0  0  0  0  0  0
    3.5203    2.4925   -2.8152 H   0  0  0  0  0  0  0  0  0  0  0  0
    3.6583    1.8426   -4.4534 H   0  0  0  0  0  0  0  0  0  0  0  0
    2.2320    2.7899   -3.9907 H   0  0  0  0  0  0  0  0  0  0  0  0
    3.7165   -1.0829   -3.6720 N   0  0  0  0  0  0  0  0  0  0  0  0
    4.7048   -2.1087   -3.4329 C   0  0  0  0  0  0  0  0  0  0  0  0
    3.3320   -1.0044   -4.6088 H   0  0  0  0  0  0  0  0  0  0  0  0
    5.7090   -1.7030   -3.6253 H   0  0  0  0  0  0  0  0  0  0  0  0
    4.6391   -2.4443   -2.3874 H   0  0  0  0  0  0  0  0  0  0  0  0
    4.5187   -2.9603   -4.1037 H   0  0  0  0  0  0  0  0  0  0  0  0
  1  3  1  0  0  0  0
  1  7  1  0  0  0  0
  1  2  2  0  0  0  0
 23 25  1  0  0  0  0
 23 29  1  0  0  0  0
 23 24  2  0  0  0  0
 50 51  1  0  0  0  0
 51 59  1  0  0  0  0
 51 52  2  0  0  0  0
  8  9  1  0  0  0  0
  9 17  1  0  0  0  0
  9 10  2  0  0  0  0
 30 31  1  0  0  0  0
 31 39  1  0  0  0  0
 31 32  2  0  0  0  0
 40 41  1  0  0  0  0
 41 49  1  0  0  0  0
 41 42  2  0  0  0  0
 50 53  1  0  0  0  0
 30 33  1  0  0  0  0
 59 60  1  0  0  0  0
 17 18  1  0  0  0  0
  8 11  1  0  0  0  0
 11 12  1  0  0  0  0
 40 43  1  0  0  0  0
 43 44  1  0  0  0  0
 49 50  1  0  0  0  0
  7  8  1  0  0  0  0
 29 30  1  0  0  0  0
 39 40  1  0  0  0  0
 12 44  1  0  0  0  0
  3  4  1  0  0  0  0
  3  5  1  0  0  0  0
  3  6  1  0  0  0  0
 25 26  1  0  0  0  0
 25 27  1  0  0  0  0
 25 28  1  0  0  0  0
 53 56  1  0  0  0  0
 53 57  1  0  0  0  0
 53 58  1  0  0  0  0
 33 36  1  0  0  0  0
 33 37  1  0  0  0  0
 33 38  1  0  0  0  0
 60 62  1  0  0  0  0
 60 63  1  0  0  0  0
 60 64  1  0  0  0  0
 18 20  1  0  0  0  0
 18 21  1  0  0  0  0
 18 22  1  0  0  0  0
 11 15  1  0  0  0  0
 11 16  1  0  0  0  0
 43 47  1  0  0  0  0
 43 48  1  0  0  0  0
 50 55  1  0  0  0  0
  8 14  1  0  0  0  0
 30 35  1  0  0  0  0
 40 46  1  0  0  0  0
 59 61  1  0  0  0  0
 17 19  1  0  0  0  0
  7 13  1  0  0  0  0
 29 34  1  0  0  0  0
 49 54  1  0  0  0  0
 39 45  1  0  0  0  0
M  END
$$$$

  -OEChem-05262214473D

 64 63  0     1  0  0  0  0  0999 V2000
   -2.6733   -2.9072    5.5629 C   0  0  0  0  0  0  0  0  0  0  0  0
   -3.8128   -3.1425    5.1783 O   0  0  0  0  0  0  0  0  0  0  0  0
   -2.4246   -2.6454    7.0113 C   0  0  0  0  0  0  0  0  0  0  0  0
   -2.5069   -1.5765    7.2657 H   0  0  0  0  0  0  0  0  0  0  0  0
   -3.1525   -3.1564    7.6619 H   0  0  0  0  0  0  0  0  0  0  0  0
   -1.4353   -2.9565    7.3834 H   0  0  0  0  0  0  0  0  0  0  0  0
   -1.5370   -2.8550    4.7741 N   0  0  0  0  0  0  0  0  0  0  0  0
   -1.5511   -3.0788    3.3507 C   0  0  2  0  0  0  0  0  0  0  0  0
   -0.2583   -3.7856    2.9484 C   0  0  0  0  0  0  0  0  0  0  0  0
    0.6638   -3.9934    3.7344 O   0  0  0  0  0  0  0  0  0  0  0  0
   -1.8109   -1.7933    2.5614 C   0  0  0  0  0  0  0  0  0  0  0  0
   -0.5174   -0.5268    2.7738 S   0  0  0  0  0  0  0  0  0  0  0  0
   -0.6469   -2.6482    5.2220 H   0  0  0  0  0  0  0  0  0  0  0  0
   -2.3792   -3.7753    3.1701 H   0  0  0  0  0  0  0  0  0  0  0  0
   -1.8859   -2.0084    1.4904 H   0  0  0  0  0  0  0  0  0  0  0  0
   -2.7608   -1.3478    2.8761 H   0  0  0  0  0  0  0  0  0  0  0  0
   -0.2465   -4.1336    1.6051 N   0  0  0  0  0  0  0  0  0  0  0  0
    0.8777   -4.7908    0.9805 C   0  0  0  0  0  0  0  0  0  0  0  0
   -1.0708   -3.9622    1.0370 H   0  0  0  0  0  0  0  0  0  0  0  0
    1.5474   -4.0360    0.5427 H   0  0  0  0  0  0  0  0  0  0  0  0
    1.4263   -5.3744    1.7344 H   0  0  0  0  0  0  0  0  0  0  0  0
    0.5156   -5.4630    0.1886 H   0  0  0  0  0  0  0  0  0  0  0  0
   -6.7256    2.0330   -0.2766 C   0  0  0  0  0  0  0  0  0  0  0  0
   -7.1824    1.1039   -0.9322 O   0  0  0  0  0  0  0  0  0  0  0  0
   -7.5276    2.6077    0.8435 C   0  0  0  0  0  0  0  0  0  0  0  0
   -8.1775    3.4344    0.5145 H   0  0  0  0  0  0  0  0  0  0  0  0
   -8.2057    1.8676    1.2980 H   0  0  0  0  0  0  0  0  0  0  0  0
   -6.9411    3.0162    1.6819 H   0  0  0  0  0  0  0  0  0  0  0  0
   -5.4935    2.6382   -0.4627 N   0  0  0  0  0  0  0  0  0  0  0  0
   -4.5619    2.2388   -1.4845 C   0  0  2  0  0  0  0  0  0  0  0  0
   -3.1535    2.4674   -0.9521 C   0  0  0  0  0  0  0  0  0  0  0  0
   -2.8634    3.3945   -0.1987 O   0  0  0  0  0  0  0  0  0  0  0  0
   -4.7883    3.0138   -2.7732 C   0  0  0  0  0  0  0  0  0  0  0  0
   -5.2337    3.4049    0.1551 H   0  0  0  0  0  0  0  0  0  0  0  0
   -4.7192    1.1682   -1.6549 H   0  0  0  0  0  0  0  0  0  0  0  0
   -4.6352    4.0886   -2.6221 H   0  0  0  0  0  0  0  0  0  0  0  0
   -4.0976    2.6887   -3.5582 H   0  0  0  0  0  0  0  0  0  0  0  0
   -5.8111    2.8719   -3.1387 H   0  0  0  0  0  0  0  0  0  0  0  0
   -2.2466    1.5400   -1.4507 N   0  0  0  0  0  0  0  0  0  0  0  0
   -0.8424    1.5707   -1.1286 C   0  0  2  0  0  0  0  0  0  0  0  0
   -0.0367    1.3583   -2.4085 C   0  0  0  0  0  0  0  0  0  0  0  0
   -0.4433    1.6938   -3.5192 O   0  0  0  0  0  0  0  0  0  0  0  0
   -0.4791    0.5881   -0.0126 C   0  0  0  0  0  0  0  0  0  0  0  0
   -1.2331    0.9859    1.5830 S   0  0  0  0  0  0  0  0  0  0  0  0
   -2.5850    0.7815   -2.0381 H   0  0  0  0  0  0  0  0  0  0  0  0
   -0.6429    2.5907   -0.7772 H   0  0  0  0  0  0  0  0  0  0  0  0
   -0.7908   -0.4273   -0.2780 H   0  0  0  0  0  0  0  0  0  0  0  0
    0.6065    0.5731    0.1325 H   0  0  0  0  0  0  0  0  0  0  0  0
    1.1762    0.7289   -2.1669 N   0  0  0  0  0  0  0  0  0  0  0  0
    2.1052    0.3966   -3.2216 C   0  0  2  0  0  0  0  0  0  0  0  0
    2.8325   -0.8806   -2.8227 C   0  0  0  0  0  0  0  0  0  0  0  0
    3.1164   -1.1552   -1.6586 O   0  0  0  0  0  0  0  0  0  0  0  0
    3.0903    1.5287   -3.4683 C   0  0  0  0  0  0  0  0  0  0  0  0
    1.4521    0.5255   -1.2108 H   0  0  0  0  0  0  0  0  0  0  0  0
    1.5088    0.2120   -4.1218 H   0  0  0  0  0  0  0  0  0  0  0  0
    3.6968    1.7281   -2.5773 H   0  0  0  0  0  0  0  0  0  0  0  0
    3.7757    1.2868   -4.2873 H   0  0  0  0  0  0  0  0  0  0  0  0
    2.5640    2.4541   -3.7260 H   0  0  0  0  0  0  0  0  0  0  0  0
    3.1653   -1.6573   -3.9236 N   0  0  0  0  0  0  0  0  0  0  0  0
    3.8971   -2.8973   -3.8104 C   0  0  0  0  0  0  0  0  0  0  0  0
    2.8549   -1.3728   -4.8480 H   0  0  0  0  0  0  0  0  0  0  0  0
    4.9734   -2.7001   -3.9229 H   0  0  0  0  0  0  0  0  0  0  0  0
    3.7078   -3.3459   -2.8240 H   0  0  0  0  0  0  0  0  0  0  0  0
    3.5673   -3.5908   -4.5980 H   0  0  0  0  0  0  0  0  0  0  0  0
  1  3  1  0  0  0  0
  1  7  1  0  0  0  0
  1  2  2  0  0  0  0
 23 25  1  0  0  0  0
 23 29  1  0  0  0  0
 23 24  2  0  0  0  0
 50 51  1  0  0  0  0
 51 59  1  0  0  0  0
 51 52  2  0  0  0  0
  8  9  1  0  0  0  0
  9 17  1  0  0  0  0
  9 10  2  0  0  0  0
 30 31  1  0  0  0  0
 31 39  1  0  0  0  0
 31 32  2  0  0  0  0
 40 41  1  0  0  0  0
 41 49  1  0  0  0  0
 41 42  2  0  0  0  0
 50 53  1  0  0  0  0
 30 33  1  0  0  0  0
 59 60  1  0  0  0  0
 17 18  1  0  0  0  0
  8 11  1  0  0  0  0
 11 12  1  0  0  0  0
 40 43  1  0  0  0  0
 43 44  1  0  0  0  0
 49 50  1  0  0  0  0
  7  8  1  0  0  0  0
 29 30  1  0  0  0  0
 39 40  1  0  0  0  0
 12 44  1  0  0  0  0
  3  4  1  0  0  0  0
  3  5  1  0  0  0  0
  3  6  1  0  0  0  0
 25 26  1  0  0  0  0
 25 27  1  0  0  0  0
 25 28  1  0  0  0  0
 53 56  1  0  0  0  0
 53 57  1  0  0  0  0
 53 58  1  0  0  0  0
 33 36  1  0  0  0  0
 33 37  1  0  0  0  0
 33 38  1  0  0  0  0
 60 62  1  0  0  0  0
 60 63  1  0  0  0  0
 60 64  1  0  0  0  0
 18 20  1  0  0  0  0
 18 21  1  0  0  0  0
 18 22  1  0  0  0  0
 11 15  1  0  0  0  0
 11 16  1  0  0  0  0
 43 47  1  0  0  0  0
 43 48  1  0  0  0  0
 50 55  1  0  0  0  0
  8 14  1  0  0  0  0
 30 35  1  0  0  0  0
 40 46  1  0  0  0  0
 59 61  1  0  0  0  0
 17 19  1  0  0  0  0
  7 13  1  0  0  0  0
 29 34  1  0  0  0  0
 49 54  1  0  0  0  0
 39 45  1  0  0  0  0
M  END
$$$$

  -OEChem-05262214473D

 64 63  0     1  0  0  0  0  0999 V2000
   -2.6733   -2.9072    5.5629 C   0  0  0  0  0  0  0  0  0  0  0  0
   -3.8128   -3.1425    5.1783 O   0  0  0  0  0  0  0  0  0  0  0  0
   -2.4246   -2.6454    7.0113 C   0  0  0  0  0  0  0  0  0  0  0  0
   -2.5069   -1.5765    7.2657 H   0  0  0  0  0  0  0  0  0  0  0  0
   -3.1525   -3.1564    7.6619 H   0  0  0  0  0  0  0  0  0  0  0  0
   -1.4353   -2.9565    7.3834 H   0  0  0  0  0  0  0  0  0  0  0  0
   -1.5370   -2.8550    4.7741 N   0  0  0  0  0  0  0  0  0  0  0  0
   -1.5511   -3.0788    3.3507 C   0  0  2  0  0  0  0  0  0  0  0  0
   -0.2583   -3.7856    2.9484 C   0  0  0  0  0  0  0  0  0  0  0  0
    0.6638   -3.9934    3.7344 O   0  0  0  0  0  0  0  0  0  0  0  0
   -1.8109   -1.7933    2.5614 C   0  0  0  0  0  0  0  0  0  0  0  0
   -0.5174   -0.5268    2.7738 S   0  0  0  0  0  0  0  0  0  0  0  0
   -0.6469   -2.6482    5.2220 H   0  0  0  0  0  0  0  0  0  0  0  0
   -2.3792   -3.7753    3.1701 H   0  0  0  0  0  0  0  0  0  0  0  0
   -1.8859   -2.0084    1.4904 H   0  0  0  0  0  0  0  0  0  0  0  0
   -2.7608   -1.3478    2.8761 H   0  0  0  0  0  0  0  0  0  0  0  0
   -0.2465   -4.1336    1.6051 N   0  0  0  0  0  0  0  0  0  0  0  0
    0.8777   -4.7908    0.9805 C   0  0  0  0  0  0  0  0  0  0  0  0
   -1.0708   -3.9622    1.0370 H   0  0  0  0  0  0  0  0  0  0  0  0
    1.5474   -4.0360    0.5427 H   0  0  0  0  0  0  0  0  0  0  0  0
    1.4263   -5.3744    1.7344 H   0  0  0  0  0  0  0  0  0  0  0  0
    0.5156   -5.4630    0.1886 H   0  0  0  0  0  0  0  0  0  0  0  0
   -6.7256    2.0330   -0.2766 C   0  0  0  0  0  0  0  0  0  0  0  0
   -7.1824    1.1039   -0.9322 O   0  0  0  0  0  0  0  0  0  0  0  0
   -7.5276    2.6077    0.8435 C   0  0  0  0  0  0  0  0  0  0  0  0
   -8.1775    3.4344    0.5145 H   0  0  0  0  0  0  0  0  0  0  0  0
   -8.2057    1.8676    1.2980 H   0  0  0  0  0  0  0  0  0  0  0  0
   -6.9411    3.0162    1.6819 H   0  0  0  0  0  0  0  0  0  0  0  0
   -5.4935    2.6382   -0.4627 N   0  0  0  0  0  0  0  0  0  0  0  0
   -4.5619    2.2388   -1.4845 C   0  0  2  0  0  0  0  0  0  0  0  0
   -3.1535    2.4674   -0.9521 C   0  0  0  0  0  0  0  0  0  0  0  0
   -2.8634    3.3945   -0.1987 O   0  0  0  0  0  0  0  0  0  0  0  0
   -4.7883    3.0138   -2.7732 C   0  0  0  0  0  0  0  0  0  0  0  0
   -5.2337    3.4049    0.1551 H   0  0  0  0  0  0  0  0  0  0  0  0
   -4.7192    1.1682   -1.6549 H   0  0  0  0  0  0  0  0  0  0  0  0
   -4.6352    4.0886   -2.6221 H   0  0  0  0  0  0  0  0  0  0  0  0
   -4.0976    2.6887   -3.5582 H   0  0  0  0  0  0  0  0  0  0  0  0
   -5.8111    2.8719   -3.1387 H   0  0  0  0  0  0  0  0  0  0  0  0
   -2.2466    1.5400   -1.4507 N   0  0  0  0  0  0  0  0  0  0  0  0
   -0.8424    1.5707   -1.1286 C   0  0  2  0  0  0  0  0  0  0  0  0
   -0.0367    1.3583   -2.4085 C   0  0  0  0  0  0  0  0  0  0  0  0
   -0.3046    1.9191   -3.4693 O   0  0  0  0  0  0  0  0  0  0  0  0
   -0.4791    0.5881   -0.0126 C   0  0  0  0  0  0  0  0  0  0  0  0
   -1.2331    0.9859    1.5830 S   0  0  0  0  0  0  0  0  0  0  0  0
   -2.5850    0.7815   -2.0381 H   0  0  0  0  0  0  0  0  0  0  0  0
   -0.6429    2.5907   -0.7772 H   0  0  0  0  0  0  0  0  0  0  0  0
   -0.7908   -0.4273   -0.2780 H   0  0  0  0  0  0  0  0  0  0  0  0
    0.6065    0.5731    0.1325 H   0  0  0  0  0  0  0  0  0  0  0  0
    0.9991    0.4518   -2.2324 N   0  0  0  0  0  0  0  0  0  0  0  0
    1.8878    0.0666   -3.3037 C   0  0  2  0  0  0  0  0  0  0  0  0
    2.3030   -1.3804   -3.0730 C   0  0  0  0  0  0  0  0  0  0  0  0
    2.4617   -1.8624   -1.9534 O   0  0  0  0  0  0  0  0  0  0  0  0
    3.1040    0.9774   -3.3681 C   0  0  0  0  0  0  0  0  0  0  0  0
    1.1758    0.0679   -1.3088 H   0  0  0  0  0  0  0  0  0  0  0  0
    1.3125    0.1384   -4.2332 H   0  0  0  0  0  0  0  0  0  0  0  0
    3.6929    0.9190   -2.4455 H   0  0  0  0  0  0  0  0  0  0  0  0
    3.7625    0.7018   -4.1985 H   0  0  0  0  0  0  0  0  0  0  0  0
    2.8022    2.0215   -3.5043 H   0  0  0  0  0  0  0  0  0  0  0  0
    2.5174   -2.0582   -4.2650 N   0  0  0  0  0  0  0  0  0  0  0  0
    2.9595   -3.4323   -4.3119 C   0  0  0  0  0  0  0  0  0  0  0  0
    2.3228   -1.5926   -5.1465 H   0  0  0  0  0  0  0  0  0  0  0  0
    4.0574   -3.4629   -4.3729 H   0  0  0  0  0  0  0  0  0  0  0  0
    2.6283   -3.9552   -3.4025 H   0  0  0  0  0  0  0  0  0  0  0  0
    2.5293   -3.9259   -5.1958 H   0  0  0  0  0  0  0  0  0  0  0  0
  1  3  1  0  0  0  0
  1  7  1  0  0  0  0
  1  2  2  0  0  0  0
 23 25  1  0  0  0  0
 23 29  1  0  0  0  0
 23 24  2  0  0  0  0
 50 51  1  0  0  0  0
 51 59  1  0  0  0  0
 51 52  2  0  0  0  0
  8  9  1  0  0  0  0
  9 17  1  0  0  0  0
  9 10  2  0  0  0  0
 30 31  1  0  0  0  0
 31 39  1  0  0  0  0
 31 32  2  0  0  0  0
 40 41  1  0  0  0  0
 41 49  1  0  0  0  0
 41 42  2  0  0  0  0
 50 53  1  0  0  0  0
 30 33  1  0  0  0  0
 59 60  1  0  0  0  0
 17 18  1  0  0  0  0
  8 11  1  0  0  0  0
 11 12  1  0  0  0  0
 40 43  1  0  0  0  0
 43 44  1  0  0  0  0
 49 50  1  0  0  0  0
  7  8  1  0  0  0  0
 29 30  1  0  0  0  0
 39 40  1  0  0  0  0
 12 44  1  0  0  0  0
  3  4  1  0  0  0  0
  3  5  1  0  0  0  0
  3  6  1  0  0  0  0
 25 26  1  0  0  0  0
 25 27  1  0  0  0  0
 25 28  1  0  0  0  0
 53 56  1  0  0  0  0
 53 57  1  0  0  0  0
 53 58  1  0  0  0  0
 33 36  1  0  0  0  0
 33 37  1  0  0  0  0
 33 38  1  0  0  0  0
 60 62  1  0  0  0  0
 60 63  1  0  0  0  0
 60 64  1  0  0  0  0
 18 20  1  0  0  0  0
 18 21  1  0  0  0  0
 18 22  1  0  0  0  0
 11 15  1  0  0  0  0
 11 16  1  0  0  0  0
 43 47  1  0  0  0  0
 43 48  1  0  0  0  0
 50 55  1  0  0  0  0
  8 14  1  0  0  0  0
 30 35  1  0  0  0  0
 40 46  1  0  0  0  0
 59 61  1  0  0  0  0
 17 19  1  0  0  0  0
  7 13  1  0  0  0  0
 29 34  1  0  0  0  0
 49 54  1  0  0  0  0
 39 45  1  0  0  0  0
M  END
$$$$

  -OEChem-05262214473D

 64 63  0     1  0  0  0  0  0999 V2000
   -2.6733   -2.9072    5.5629 C   0  0  0  0  0  0  0  0  0  0  0  0
   -3.8128   -3.1425    5.1783 O   0  0  0  0  0  0  0  0  0  0  0  0
   -2.4246   -2.6454    7.0113 C   0  0  0  0  0  0  0  0  0  0  0  0
   -2.5069   -1.5765    7.2657 H   0  0  0  0  0  0  0  0  0  0  0  0
   -3.1525   -3.1564    7.6619 H   0  0  0  0  0  0  0  0  0  0  0  0
   -1.4353   -2.9565    7.3834 H   0  0  0  0  0  0  0  0  0  0  0  0
   -1.5370   -2.8550    4.7741 N   0  0  0  0  0  0  0  0  0  0  0  0
   -1.5511   -3.0788    3.3507 C   0  0  2  0  0  0  0  0  0  0  0  0
   -0.2583   -3.7856    2.9484 C   0  0  0  0  0  0  0  0  0  0  0  0
    0.6638   -3.9934    3.7344 O   0  0  0  0  0  0  0  0  0  0  0  0
   -1.8109   -1.7933    2.5614 C   0  0  0  0  0  0  0  0  0  0  0  0
   -0.5174   -0.5268    2.7738 S   0  0  0  0  0  0  0  0  0  0  0  0
   -0.6469   -2.6482    5.2220 H   0  0  0  0  0  0  0  0  0  0  0  0
   -2.3792   -3.7753    3.1701 H   0  0  0  0  0  0  0  0  0  0  0  0
   -1.8859   -2.0084    1.4904 H   0  0  0  0  0  0  0  0  0  0  0  0
   -2.7608   -1.3478    2.8761 H   0  0  0  0  0  0  0  0  0  0  0  0
   -0.2465   -4.1336    1.6051 N   0  0  0  0  0  0  0  0  0  0  0  0
    0.8777   -4.7908    0.9805 C   0  0  0  0  0  0  0  0  0  0  0  0
   -1.0708   -3.9622    1.0370 H   0  0  0  0  0  0  0  0  0  0  0  0
    1.5474   -4.0360    0.5427 H   0  0  0  0  0  0  0  0  0  0  0  0
    1.4263   -5.3744    1.7344 H   0  0  0  0  0  0  0  0  0  0  0  0
    0.5156   -5.4630    0.1886 H   0  0  0  0  0  0  0  0  0  0  0  0
   -6.7256    2.0330   -0.2766 C   0  0  0  0  0  0  0  0  0  0  0  0
   -7.1824    1.1039   -0.9322 O   0  0  0  0  0  0  0  0  0  0  0  0
   -7.5276    2.6077    0.8435 C   0  0  0  0  0  0  0  0  0  0  0  0
   -8.1775    3.4344    0.5145 H   0  0  0  0  0  0  0  0  0  0  0  0
   -8.2057    1.8676    1.2980 H   0  0  0  0  0  0  0  0  0  0  0  0
   -6.9411    3.0162    1.6819 H   0  0  0  0  0  0  0  0  0  0  0  0
   -5.4935    2.6382   -0.4627 N   0  0  0  0  0  0  0  0  0  0  0  0
   -4.5619    2.2388   -1.4845 C   0  0  2  0  0  0  0  0  0  0  0  0
   -3.1535    2.4674   -0.9521 C   0  0  0  0  0  0  0  0  0  0  0  0
   -2.8634    3.3945   -0.1987 O   0  0  0  0  0  0  0  0  0  0  0  0
   -4.7883    3.0138   -2.7732 C   0  0  0  0  0  0  0  0  0  0  0  0
   -5.2337    3.4049    0.1551 H   0  0  0  0  0  0  0  0  0  0  0  0
   -4.7192    1.1682   -1.6549 H   0  0  0  0  0  0  0  0  0  0  0  0
   -4.6352    4.0886   -2.6221 H   0  0  0  0  0  0  0  0  0  0  0  0
   -4.0976    2.6887   -3.5582 H   0  0  0  0  0  0  0  0  0  0  0  0
   -5.8111    2.8719   -3.1387 H   0  0  0  0  0  0  0  0  0  0  0  0
   -2.2466    1.5400   -1.4507 N   0  0  0  0  0  0  0  0  0  0  0  0
   -0.8424    1.5707   -1.1286 C   0  0  2  0  0  0  0  0  0  0  0  0
   -0.0367    1.3583   -2.4085 C   0  0  0  0  0  0  0  0  0  0  0  0
   -0.1237    2.0997   -3.3853 O   0  0  0  0  0  0  0  0  0  0  0  0
   -0.4791    0.5881   -0.0126 C   0  0  0  0  0  0  0  0  0  0  0  0
   -1.2331    0.9859    1.5830 S   0  0  0  0  0  0  0  0  0  0  0  0
   -2.5850    0.7815   -2.0381 H   0  0  0  0  0  0  0  0  0  0  0  0
   -0.6429    2.5907   -0.7772 H   0  0  0  0  0  0  0  0  0  0  0  0
   -0.7908   -0.4273   -0.2780 H   0  0  0  0  0  0  0  0  0  0  0  0
    0.6065    0.5731    0.1325 H   0  0  0  0  0  0  0  0  0  0  0  0
    0.7702    0.2315   -2.3399 N   0  0  0  0  0  0  0  0  0  0  0  0
    1.6092   -0.1938   -3.4359 C   0  0  2  0  0  0  0  0  0  0  0  0
    1.6922   -1.7141   -3.4022 C   0  0  0  0  0  0  0  0  0  0  0  0
    1.6864   -2.3633   -2.3583 O   0  0  0  0  0  0  0  0  0  0  0  0
    2.9941    0.4283   -3.3462 C   0  0  0  0  0  0  0  0  0  0  0  0
    0.8132   -0.3008   -1.4760 H   0  0  0  0  0  0  0  0  0  0  0  0
    1.1109    0.1250   -4.3578 H   0  0  0  0  0  0  0  0  0  0  0  0
    3.5088    0.1203   -2.4288 H   0  0  0  0  0  0  0  0  0  0  0  0
    3.6197    0.1275   -4.1931 H   0  0  0  0  0  0  0  0  0  0  0  0
    2.9305    1.5217   -3.3406 H   0  0  0  0  0  0  0  0  0  0  0  0
    1.8168   -2.2583   -4.6728 N   0  0  0  0  0  0  0  0  0  0  0  0
    1.9559   -3.6773   -4.9030 C   0  0  0  0  0  0  0  0  0  0  0  0
    1.7719   -1.6487   -5.4840 H   0  0  0  0  0  0  0  0  0  0  0  0
    3.0233   -3.9397   -4.9448 H   0  0  0  0  0  0  0  0  0  0  0  0
    1.4743   -4.2306   -4.0833 H   0  0  0  0  0  0  0  0  0  0  0  0
    1.4756   -3.9428   -5.8564 H   0  0  0  0  0  0  0  0  0  0  0  0
  1  3  1  0  0  0  0
  1  7  1  0  0  0  0
  1  2  2  0  0  0  0
 23 25  1  0  0  0  0
 23 29  1  0  0  0  0
 23 24  2  0  0  0  0
 50 51  1  0  0  0  0
 51 59  1  0  0  0  0
 51 52  2  0  0  0  0
  8  9  1  0  0  0  0
  9 17  1  0  0  0  0
  9 10  2  0  0  0  0
 30 31  1  0  0  0  0
 31 39  1  0  0  0  0
 31 32  2  0  0  0  0
 40 41  1  0  0  0  0
 41 49  1  0  0  0  0
 41 42  2  0  0  0  0
 50 53  1  0  0  0  0
 30 33  1  0  0  0  0
 59 60  1  0  0  0  0
 17 18  1  0  0  0  0
  8 11  1  0  0  0  0
 11 12  1  0  0  0  0
 40 43  1  0  0  0  0
 43 44  1  0  0  0  0
 49 50  1  0  0  0  0
  7  8  1  0  0  0  0
 29 30  1  0  0  0  0
 39 40  1  0  0  0  0
 12 44  1  0  0  0  0
  3  4  1  0  0  0  0
  3  5  1  0  0  0  0
  3  6  1  0  0  0  0
 25 26  1  0  0  0  0
 25 27  1  0  0  0  0
 25 28  1  0  0  0  0
 53 56  1  0  0  0  0
 53 57  1  0  0  0  0
 53 58  1  0  0  0  0
 33 36  1  0  0  0  0
 33 37  1  0  0  0  0
 33 38  1  0  0  0  0
 60 62  1  0  0  0  0
 60 63  1  0  0  0  0
 60 64  1  0  0  0  0
 18 20  1  0  0  0  0
 18 21  1  0  0  0  0
 18 22  1  0  0  0  0
 11 15  1  0  0  0  0
 11 16  1  0  0  0  0
 43 47  1  0  0  0  0
 43 48  1  0  0  0  0
 50 55  1  0  0  0  0
  8 14  1  0  0  0  0
 30 35  1  0  0  0  0
 40 46  1  0  0  0  0
 59 61  1  0  0  0  0
 17 19  1  0  0  0  0
  7 13  1  0  0  0  0
 29 34  1  0  0  0  0
 49 54  1  0  0  0  0
 39 45  1  0  0  0  0
M  END
$$$$

  -OEChem-05262214473D

 64 63  0     1  0  0  0  0  0999 V2000
   -2.6733   -2.9072    5.5629 C   0  0  0  0  0  0  0  0  0  0  0  0
   -3.8128   -3.1425    5.1783 O   0  0  0  0  0  0  0  0  0  0  0  0
   -2.4246   -2.6454    7.0113 C   0  0  0  0  0  0  0  0  0  0  0  0
   -2.5069   -1.5765    7.2657 H   0  0  0  0  0  0  0  0  0  0  0  0
   -3.1525   -3.1564    7.6619 H   0  0  0  0  0  0  0  0  0  0  0  0
   -1.4353   -2.9565    7.3834 H   0  0  0  0  0  0  0  0  0  0  0  0
   -1.5370   -2.8550    4.7741 N   0  0  0  0  0  0  0  0  0  0  0  0
   -1.5511   -3.0788    3.3507 C   0  0  2  0  0  0  0  0  0  0  0  0
   -0.2583   -3.7856    2.9484 C   0  0  0  0  0  0  0  0  0  0  0  0
    0.6638   -3.9934    3.7344 O   0  0  0  0  0  0  0  0  0  0  0  0
   -1.8109   -1.7933    2.5614 C   0  0  0  0  0  0  0  0  0  0  0  0
   -0.5174   -0.5268    2.7738 S   0  0  0  0  0  0  0  0  0  0  0  0
   -0.6469   -2.6482    5.2220 H   0  0  0  0  0  0  0  0  0  0  0  0
   -2.3792   -3.7753    3.1701 H   0  0  0  0  0  0  0  0  0  0  0  0
   -1.8859   -2.0084    1.4904 H   0  0  0  0  0  0  0  0  0  0  0  0
   -2.7608   -1.3478    2.8761 H   0  0  0  0  0  0  0  0  0  0  0  0
   -0.2465   -4.1336    1.6051 N   0  0  0  0  0  0  0  0  0  0  0  0
    0.8777   -4.7908    0.9805 C   0  0  0  0  0  0  0  0  0  0  0  0
   -1.0708   -3.9622    1.0370 H   0  0  0  0  0  0  0  0  0  0  0  0
    1.5474   -4.0360    0.5427 H   0  0  0  0  0  0  0  0  0  0  0  0
    1.4263   -5.3744    1.7344 H   0  0  0  0  0  0  0  0  0  0  0  0
    0.5156   -5.4630    0.1886 H   0  0  0  0  0  0  0  0  0  0  0  0
   -6.7256    2.0330   -0.2766 C   0  0  0  0  0  0  0  0  0  0  0  0
   -7.1824    1.1039   -0.9322 O   0  0  0  0  0  0  0  0  0  0  0  0
   -7.5276    2.6077    0.8435 C   0  0  0  0  0  0  0  0  0  0  0  0
   -8.1775    3.4344    0.5145 H   0  0  0  0  0  0  0  0  0  0  0  0
   -8.2057    1.8676    1.2980 H   0  0  0  0  0  0  0  0  0  0  0  0
   -6.9411    3.0162    1.6819 H   0  0  0  0  0  0  0  0  0  0  0  0
   -5.4935    2.6382   -0.4627 N   0  0  0  0  0  0  0  0  0  0  0  0
   -4.5619    2.2388   -1.4845 C   0  0  2  0  0  0  0  0  0  0  0  0
   -3.1535    2.4674   -0.9521 C   0  0  0  0  0  0  0  0  0  0  0  0
   -2.8634    3.3945   -0.1987 O   0  0  0  0  0  0  0  0  0  0  0  0
   -4.7883    3.0138   -2.7732 C   0  0  0  0  0  0  0  0  0  0  0  0
   -5.2337    3.4049    0.1551 H   0  0  0  0  0  0  0  0  0  0  0  0
   -4.7192    1.1682   -1.6549 H   0  0  0  0  0  0  0  0  0  0  0  0
   -4.6352    4.0886   -2.6221 H   0  0  0  0  0  0  0  0  0  0  0  0
   -4.0976    2.6887   -3.5582 H   0  0  0  0  0  0  0  0  0  0  0  0
   -5.8111    2.8719   -3.1387 H   0  0  0  0  0  0  0  0  0  0  0  0
   -2.2466    1.5400   -1.4507 N   0  0  0  0  0  0  0  0  0  0  0  0
   -0.8424    1.5707   -1.1286 C   0  0  2  0  0  0  0  0  0  0  0  0
   -0.0367    1.3583   -2.4085 C   0  0  0  0  0  0  0  0  0  0  0  0
    0.0873    2.2235   -3.2731 O   0  0  0  0  0  0  0  0  0  0  0  0
   -0.4791    0.5881   -0.0126 C   0  0  0  0  0  0  0  0  0  0  0  0
   -1.2331    0.9859    1.5830 S   0  0  0  0  0  0  0  0  0  0  0  0
   -2.5850    0.7815   -2.0381 H   0  0  0  0  0  0  0  0  0  0  0  0
   -0.6429    2.5907   -0.7772 H   0  0  0  0  0  0  0  0  0  0  0  0
   -0.7908   -0.4273   -0.2780 H   0  0  0  0  0  0  0  0  0  0  0  0
    0.6065    0.5731    0.1325 H   0  0  0  0  0  0  0  0  0  0  0  0
    0.5053    0.0830   -2.4821 N   0  0  0  0  0  0  0  0  0  0  0  0
    1.2884   -0.3668   -3.6091 C   0  0  2  0  0  0  0  0  0  0  0  0
    1.0416   -1.8591   -3.7876 C   0  0  0  0  0  0  0  0  0  0  0  0
    0.8436   -2.6236   -2.8457 O   0  0  0  0  0  0  0  0  0  0  0  0
    2.7680   -0.0813   -3.4040 C   0  0  0  0  0  0  0  0  0  0  0  0
    0.3889   -0.5555   -1.7008 H   0  0  0  0  0  0  0  0  0  0  0  0
    0.9178    0.1729   -4.4874 H   0  0  0  0  0  0  0  0  0  0  0  0
    3.1572   -0.6136   -2.5284 H   0  0  0  0  0  0  0  0  0  0  0  0
    3.3570   -0.3970   -4.2714 H   0  0  0  0  0  0  0  0  0  0  0  0
    2.9402    0.9888   -3.2461 H   0  0  0  0  0  0  0  0  0  0  0  0
    1.1114   -2.2439   -5.1192 N   0  0  0  0  0  0  0  0  0  0  0  0
    0.9545   -3.6155   -5.5436 C   0  0  0  0  0  0  0  0  0  0  0  0
    1.2397   -1.5373   -5.8375 H   0  0  0  0  0  0  0  0  0  0  0  0
    1.9416   -4.0978   -5.5995 H   0  0  0  0  0  0  0  0  0  0  0  0
    0.3243   -4.1533   -4.8200 H   0  0  0  0  0  0  0  0  0  0  0  0
    0.4778   -3.6403   -6.5346 H   0  0  0  0  0  0  0  0  0  0  0  0
  1  3  1  0  0  0  0
  1  7  1  0  0  0  0
  1  2  2  0  0  0  0
 23 25  1  0  0  0  0
 23 29  1  0  0  0  0
 23 24  2  0  0  0  0
 50 51  1  0  0  0  0
 51 59  1  0  0  0  0
 51 52  2  0  0  0  0
  8  9  1  0  0  0  0
  9 17  1  0  0  0  0
  9 10  2  0  0  0  0
 30 31  1  0  0  0  0
 31 39  1  0  0  0  0
 31 32  2  0  0  0  0
 40 41  1  0  0  0  0
 41 49  1  0  0  0  0
 41 42  2  0  0  0  0
 50 53  1  0  0  0  0
 30 33  1  0  0  0  0
 59 60  1  0  0  0  0
 17 18  1  0  0  0  0
  8 11  1  0  0  0  0
 11 12  1  0  0  0  0
 40 43  1  0  0  0  0
 43 44  1  0  0  0  0
 49 50  1  0  0  0  0
  7  8  1  0  0  0  0
 29 30  1  0  0  0  0
 39 40  1  0  0  0  0
 12 44  1  0  0  0  0
  3  4  1  0  0  0  0
  3  5  1  0  0  0  0
  3  6  1  0  0  0  0
 25 26  1  0  0  0  0
 25 27  1  0  0  0  0
 25 28  1  0  0  0  0
 53 56  1  0  0  0  0
 53 57  1  0  0  0  0
 53 58  1  0  0  0  0
 33 36  1  0  0  0  0
 33 37  1  0  0  0  0
 33 38  1  0  0  0  0
 60 62  1  0  0  0  0
 60 63  1  0  0  0  0
 60 64  1  0  0  0  0
 18 20  1  0  0  0  0
 18 21  1  0  0  0  0
 18 22  1  0  0  0  0
 11 15  1  0  0  0  0
 11 16  1  0  0  0  0
 43 47  1  0  0  0  0
 43 48  1  0  0  0  0
 50 55  1  0  0  0  0
  8 14  1  0  0  0  0
 30 35  1  0  0  0  0
 40 46  1  0  0  0  0
 59 61  1  0  0  0  0
 17 19  1  0  0  0  0
  7 13  1  0  0  0  0
 29 34  1  0  0  0  0
 49 54  1  0  0  0  0
 39 45  1  0  0  0  0
M  END
$$$$

  -OEChem-05262214473D

 64 63  0     1  0  0  0  0  0999 V2000
   -2.6733   -2.9072    5.5629 C   0  0  0  0  0  0  0  0  0  0  0  0
   -3.8128   -3.1425    5.1783 O   0  0  0  0  0  0  0  0  0  0  0  0
   -2.4246   -2.6454    7.0113 C   0  0  0  0  0  0  0  0  0  0  0  0
   -2.5069   -1.5765    7.2657 H   0  0  0  0  0  0  0  0  0  0  0  0
   -3.1525   -3.1564    7.6619 H   0  0  0  0  0  0  0  0  0  0  0  0
   -1.4353   -2.9565    7.3834 H   0  0  0  0  0  0  0  0  0  0  0  0
   -1.5370   -2.8550    4.7741 N   0  0  0  0  0  0  0  0  0  0  0  0
   -1.5511   -3.0788    3.3507 C   0  0  2  0  0  0  0  0  0  0  0  0
   -0.2583   -3.7856    2.9484 C   0  0  0  0  0  0  0  0  0  0  0  0
    0.6638   -3.9934    3.7344 O   0  0  0  0  0  0  0  0  0  0  0  0
   -1.8109   -1.7933    2.5614 C   0  0  0  0  0  0  0  0  0  0  0  0
   -0.5174   -0.5268    2.7738 S   0  0  0  0  0  0  0  0  0  0  0  0
   -0.6469   -2.6482    5.2220 H   0  0  0  0  0  0  0  0  0  0  0  0
   -2.3792   -3.7753    3.1701 H   0  0  0  0  0  0  0  0  0  0  0  0
   -1.8859   -2.0084    1.4904 H   0  0  0  0  0  0  0  0  0  0  0  0
   -2.7608   -1.3478    2.8761 H   0  0  0  0  0  0  0  0  0  0  0  0
   -0.2465   -4.1336    1.6051 N   0  0  0  0  0  0  0  0  0  0  0  0
    0.8777   -4.7908    0.9805 C   0  0  0  0  0  0  0  0  0  0  0  0
   -1.0708   -3.9622    1.0370 H   0  0  0  0  0  0  0  0  0  0  0  0
    1.5474   -4.0360    0.5427 H   0  0  0  0  0  0  0  0  0  0  0  0
    1.4263   -5.3744    1.7344 H   0  0  0  0  0  0  0  0  0  0  0  0
    0.5156   -5.4630    0.1886 H   0  0  0  0  0  0  0  0  0  0  0  0
   -6.7256    2.0330   -0.2766 C   0  0  0  0  0  0  0  0  0  0  0  0
   -7.1824    1.1039   -0.9322 O   0  0  0  0  0  0  0  0  0  0  0  0
   -7.5276    2.6077    0.8435 C   0  0  0  0  0  0  0  0  0  0  0  0
   -8.1775    3.4344    0.5145 H   0  0  0  0  0  0  0  0  0  0  0  0
   -8.2057    1.8676    1.2980 H   0  0  0  0  0  0  0  0  0  0  0  0
   -6.9411    3.0162    1.6819 H   0  0  0  0  0  0  0  0  0  0  0  0
   -5.4935    2.6382   -0.4627 N   0  0  0  0  0  0  0  0  0  0  0  0
   -4.5619    2.2388   -1.4845 C   0  0  2  0  0  0  0  0  0  0  0  0
   -3.1535    2.4674   -0.9521 C   0  0  0  0  0  0  0  0  0  0  0  0
   -2.8634    3.3945   -0.1987 O   0  0  0  0  0  0  0  0  0  0  0  0
   -4.7883    3.0138   -2.7732 C   0  0  0  0  0  0  0  0  0  0  0  0
   -5.2337    3.4049    0.1551 H   0  0  0  0  0  0  0  0  0  0  0  0
   -4.7192    1.1682   -1.6549 H   0  0  0  0  0  0  0  0  0  0  0  0
   -4.6352    4.0886   -2.6221 H   0  0  0  0  0  0  0  0  0  0  0  0
   -4.0976    2.6887   -3.5582 H   0  0  0  0  0  0  0  0  0  0  0  0
   -5.8111    2.8719   -3.1387 H   0  0  0  0  0  0  0  0  0  0  0  0
   -2.2466    1.5400   -1.4507 N   0  0  0  0  0  0  0  0  0  0  0  0
   -0.8424    1.5707   -1.1286 C   0  0  2  0  0  0  0  0  0  0  0  0
   -0.0367    1.3583   -2.4085 C   0  0  0  0  0  0  0  0  0  0  0  0
    0.3139    2.2821   -3.1401 O   0  0  0  0  0  0  0  0  0  0  0  0
   -0.4791    0.5881   -0.0126 C   0  0  0  0  0  0  0  0  0  0  0  0
   -1.2331    0.9859    1.5830 S   0  0  0  0  0  0  0  0  0  0  0  0
   -2.5850    0.7815   -2.0381 H   0  0  0  0  0  0  0  0  0  0  0  0
   -0.6429    2.5907   -0.7772 H   0  0  0  0  0  0  0  0  0  0  0  0
   -0.7908   -0.4273   -0.2780 H   0  0  0  0  0  0  0  0  0  0  0  0
    0.6065    0.5731    0.1325 H   0  0  0  0  0  0  0  0  0  0  0  0
    0.2223    0.0165   -2.6492 N   0  0  0  0  0  0  0  0  0  0  0  0
    0.9473   -0.4408   -3.8116 C   0  0  2  0  0  0  0  0  0  0  0  0
    0.3957   -1.8053   -4.2032 C   0  0  0  0  0  0  0  0  0  0  0  0
   -0.0095   -2.6257   -3.3823 O   0  0  0  0  0  0  0  0  0  0  0  0
    2.4412   -0.5166   -3.5375 C   0  0  0  0  0  0  0  0  0  0  0  0
   -0.0680   -0.6787   -1.9680 H   0  0  0  0  0  0  0  0  0  0  0  0
    0.7463    0.2787   -4.6129 H   0  0  0  0  0  0  0  0  0  0  0  0
    2.6620   -1.2325   -2.7374 H   0  0  0  0  0  0  0  0  0  0  0  0
    2.9923   -0.8360   -4.4282 H   0  0  0  0  0  0  0  0  0  0  0  0
    2.8305    0.4591   -3.2272 H   0  0  0  0  0  0  0  0  0  0  0  0
    0.4492   -2.0161   -5.5739 N   0  0  0  0  0  0  0  0  0  0  0  0
    0.0238   -3.2512   -6.1900 C   0  0  0  0  0  0  0  0  0  0  0  0
    0.7625   -1.2660   -6.1829 H   0  0  0  0  0  0  0  0  0  0  0  0
    0.8861   -3.9265   -6.2924 H   0  0  0  0  0  0  0  0  0  0  0  0
   -0.7432   -3.7286   -5.5624 H   0  0  0  0  0  0  0  0  0  0  0  0
   -0.3959   -3.0392   -7.1844 H   0  0  0  0  0  0  0  0  0  0  0  0
  1  3  1  0  0  0  0
  1  7  1  0  0  0  0
  1  2  2  0  0  0  0
 23 25  1  0  0  0  0
 23 29  1  0  0  0  0
 23 24  2  0  0  0  0
 50 51  1  0  0  0  0
 51 59  1  0  0  0  0
 51 52  2  0  0  0  0
  8  9  1  0  0  0  0
  9 17  1  0  0  0  0
  9 10  2  0  0  0  0
 30 31  1  0  0  0  0
 31 39  1  0  0  0  0
 31 32  2  0  0  0  0
 40 41  1  0  0  0  0
 41 49  1  0  0  0  0
 41 42  2  0  0  0  0
 50 53  1  0  0  0  0
 30 33  1  0  0  0  0
 59 60  1  0  0  0  0
 17 18  1  0  0  0  0
  8 11  1  0  0  0  0
 11 12  1  0  0  0  0
 40 43  1  0  0  0  0
 43 44  1  0  0  0  0
 49 50  1  0  0  0  0
  7  8  1  0  0  0  0
 29 30  1  0  0  0  0
 39 40  1  0  0  0  0
 12 44  1  0  0  0  0
  3  4  1  0  0  0  0
  3  5  1  0  0  0  0
  3  6  1  0  0  0  0
 25 26  1  0  0  0  0
 25 27  1  0  0  0  0
 25 28  1  0  0  0  0
 53 56  1  0  0  0  0
 53 57  1  0  0  0  0
 53 58  1  0  0  0  0
 33 36  1  0  0  0  0
 33 37  1  0  0  0  0
 33 38  1  0  0  0  0
 60 62  1  0  0  0  0
 60 63  1  0  0  0  0
 60 64  1  0  0  0  0
 18 20  1  0  0  0  0
 18 21  1  0  0  0  0
 18 22  1  0  0  0  0
 11 15  1  0  0  0  0
 11 16  1  0  0  0  0
 43 47  1  0  0  0  0
 43 48  1  0  0  0  0
 50 55  1  0  0  0  0
  8 14  1  0  0  0  0
 30 35  1  0  0  0  0
 40 46  1  0  0  0  0
 59 61  1  0  0  0  0
 17 19  1  0  0  0  0
  7 13  1  0  0  0  0
 29 34  1  0  0  0  0
 49 54  1  0  0  0  0
 39 45  1  0  0  0  0
M  END
$$$$

  -OEChem-05262214473D

 64 63  0     1  0  0  0  0  0999 V2000
   -2.6733   -2.9072    5.5629 C   0  0  0  0  0  0  0  0  0  0  0  0
   -3.8128   -3.1425    5.1783 O   0  0  0  0  0  0  0  0  0  0  0  0
   -2.4246   -2.6454    7.0113 C   0  0  0  0  0  0  0  0  0  0  0  0
   -2.5069   -1.5765    7.2657 H   0  0  0  0  0  0  0  0  0  0  0  0
   -3.1525   -3.1564    7.6619 H   0  0  0  0  0  0  0  0  0  0  0  0
   -1.4353   -2.9565    7.3834 H   0  0  0  0  0  0  0  0  0  0  0  0
   -1.5370   -2.8550    4.7741 N   0  0  0  0  0  0  0  0  0  0  0  0
   -1.5511   -3.0788    3.3507 C   0  0  2  0  0  0  0  0  0  0  0  0
   -0.2583   -3.7856    2.9484 C   0  0  0  0  0  0  0  0  0  0  0  0
    0.6638   -3.9934    3.7344 O   0  0  0  0  0  0  0  0  0  0  0  0
   -1.8109   -1.7933    2.5614 C   0  0  0  0  0  0  0  0  0  0  0  0
   -0.5174   -0.5268    2.7738 S   0  0  0  0  0  0  0  0  0  0  0  0
   -0.6469   -2.6482    5.2220 H   0  0  0  0  0  0  0  0  0  0  0  0
   -2.3792   -3.7753    3.1701 H   0  0  0  0  0  0  0  0  0  0  0  0
   -1.8859   -2.0084    1.4904 H   0  0  0  0  0  0  0  0  0  0  0  0
   -2.7608   -1.3478    2.8761 H   0  0  0  0  0  0  0  0  0  0  0  0
   -0.2465   -4.1336    1.6051 N   0  0  0  0  0  0  0  0  0  0  0  0
    0.8777   -4.7908    0.9805 C   0  0  0  0  0  0  0  0  0  0  0  0
   -1.0708   -3.9622    1.0370 H   0  0  0  0  0  0  0  0  0  0  0  0
    1.5474   -4.0360    0.5427 H   0  0  0  0  0  0  0  0  0  0  0  0
    1.4263   -5.3744    1.7344 H   0  0  0  0  0  0  0  0  0  0  0  0
    0.5156   -5.4630    0.1886 H   0  0  0  0  0  0  0  0  0  0  0  0
   -6.7256    2.0330   -0.2766 C   0  0  0  0  0  0  0  0  0  0  0  0
   -7.1824    1.1039   -0.9322 O   0  0  0  0  0  0  0  0  0  0  0  0
   -7.5276    2.6077    0.8435 C   0  0  0  0  0  0  0  0  0  0  0  0
   -8.1775    3.4344    0.5145 H   0  0  0  0  0  0  0  0  0  0  0  0
   -8.2057    1.8676    1.2980 H   0  0  0  0  0  0  0  0  0  0  0  0
   -6.9411    3.0162    1.6819 H   0  0  0  0  0  0  0  0  0  0  0  0
   -5.4935    2.6382   -0.4627 N   0  0  0  0  0  0  0  0  0  0  0  0
   -4.5619    2.2388   -1.4845 C   0  0  2  0  0  0  0  0  0  0  0  0
   -3.1535    2.4674   -0.9521 C   0  0  0  0  0  0  0  0  0  0  0  0
   -2.8634    3.3945   -0.1987 O   0  0  0  0  0  0  0  0  0  0  0  0
   -4.7883    3.0138   -2.7732 C   0  0  0  0  0  0  0  0  0  0  0  0
   -5.2337    3.4049    0.1551 H   0  0  0  0  0  0  0  0  0  0  0  0
   -4.7192    1.1682   -1.6549 H   0  0  0  0  0  0  0  0  0  0  0  0
   -4.6352    4.0886   -2.6221 H   0  0  0  0  0  0  0  0  0  0  0  0
   -4.0976    2.6887   -3.5582 H   0  0  0  0  0  0  0  0  0  0  0  0
   -5.8111    2.8719   -3.1387 H   0  0  0  0  0  0  0  0  0  0  0  0
   -2.2466    1.5400   -1.4507 N   0  0  0  0  0  0  0  0  0  0  0  0
   -0.8424    1.5707   -1.1286 C   0  0  2  0  0  0  0  0  0  0  0  0
   -0.0367    1.3583   -2.4085 C   0  0  0  0  0  0  0  0  0  0  0  0
    0.5407    2.2713   -2.9956 O   0  0  0  0  0  0  0  0  0  0  0  0
   -0.4791    0.5881   -0.0126 C   0  0  0  0  0  0  0  0  0  0  0  0
   -1.2331    0.9859    1.5830 S   0  0  0  0  0  0  0  0  0  0  0  0
   -2.5850    0.7815   -2.0381 H   0  0  0  0  0  0  0  0  0  0  0  0
   -0.6429    2.5907   -0.7772 H   0  0  0  0  0  0  0  0  0  0  0  0
   -0.7908   -0.4273   -0.2780 H   0  0  0  0  0  0  0  0  0  0  0  0
    0.6065    0.5731    0.1325 H   0  0  0  0  0  0  0  0  0  0  0  0
   -0.0595    0.0364   -2.8299 N   0  0  0  0  0  0  0  0  0  0  0  0
    0.6090   -0.4105   -4.0296 C   0  0  2  0  0  0  0  0  0  0  0  0
   -0.2016   -1.5565   -4.6205 C   0  0  0  0  0  0  0  0  0  0  0  0
   -0.8147   -2.3695   -3.9317 O   0  0  0  0  0  0  0  0  0  0  0  0
    2.0359   -0.8479   -3.7377 C   0  0  0  0  0  0  0  0  0  0  0  0
   -0.5265   -0.6622   -2.2593 H   0  0  0  0  0  0  0  0  0  0  0  0
    0.6081    0.4352   -4.7258 H   0  0  0  0  0  0  0  0  0  0  0  0
    2.0570   -1.6945   -3.0417 H   0  0  0  0  0  0  0  0  0  0  0  0
    2.5504   -1.1595   -4.6527 H   0  0  0  0  0  0  0  0  0  0  0  0
    2.6090   -0.0314   -3.2853 H   0  0  0  0  0  0  0  0  0  0  0  0
   -0.1246   -1.5903   -6.0058 N   0  0  0  0  0  0  0  0  0  0  0  0
   -0.7729   -2.6091   -6.7981 C   0  0  0  0  0  0  0  0  0  0  0  0
    0.3729   -0.8532   -6.4967 H   0  0  0  0  0  0  0  0  0  0  0  0
   -0.0714   -3.4374   -6.9763 H   0  0  0  0  0  0  0  0  0  0  0  0
   -1.6555   -2.9855   -6.2600 H   0  0  0  0  0  0  0  0  0  0  0  0
   -1.0861   -2.1803   -7.7614 H   0  0  0  0  0  0  0  0  0  0  0  0
  1  3  1  0  0  0  0
  1  7  1  0  0  0  0
  1  2  2  0  0  0  0
 23 25  1  0  0  0  0
 23 29  1  0  0  0  0
 23 24  2  0  0  0  0
 50 51  1  0  0  0  0
 51 59  1  0  0  0  0
 51 52  2  0  0  0  0
  8  9  1  0  0  0  0
  9 17  1  0  0  0  0
  9 10  2  0  0  0  0
 30 31  1  0  0  0  0
 31 39  1  0  0  0  0
 31 32  2  0  0  0  0
 40 41  1  0  0  0  0
 41 49  1  0  0  0  0
 41 42  2  0  0  0  0
 50 53  1  0  0  0  0
 30 33  1  0  0  0  0
 59 60  1  0  0  0  0
 17 18  1  0  0  0  0
  8 11  1  0  0  0  0
 11 12  1  0  0  0  0
 40 43  1  0  0  0  0
 43 44  1  0  0  0  0
 49 50  1  0  0  0  0
  7  8  1  0  0  0  0
 29 30  1  0  0  0  0
 39 40  1  0  0  0  0
 12 44  1  0  0  0  0
  3  4  1  0  0  0  0
  3  5  1  0  0  0  0
  3  6  1  0  0  0  0
 25 26  1  0  0  0  0
 25 27  1  0  0  0  0
 25 28  1  0  0  0  0
 53 56  1  0  0  0  0
 53 57  1  0  0  0  0
 53 58  1  0  0  0  0
 33 36  1  0  0  0  0
 33 37  1  0  0  0  0
 33 38  1  0  0  0  0
 60 62  1  0  0  0  0
 60 63  1  0  0  0  0
 60 64  1  0  0  0  0
 18 20  1  0  0  0  0
 18 21  1  0  0  0  0
 18 22  1  0  0  0  0
 11 15  1  0  0  0  0
 11 16  1  0  0  0  0
 43 47  1  0  0  0  0
 43 48  1  0  0  0  0
 50 55  1  0  0  0  0
  8 14  1  0  0  0  0
 30 35  1  0  0  0  0
 40 46  1  0  0  0  0
 59 61  1  0  0  0  0
 17 19  1  0  0  0  0
  7 13  1  0  0  0  0
 29 34  1  0  0  0  0
 49 54  1  0  0  0  0
 39 45  1  0  0  0  0
M  END
$$$$

  -OEChem-05262214473D

 64 63  0     1  0  0  0  0  0999 V2000
   -2.6733   -2.9072    5.5629 C   0  0  0  0  0  0  0  0  0  0  0  0
   -3.8128   -3.1425    5.1783 O   0  0  0  0  0  0  0  0  0  0  0  0
   -2.4246   -2.6454    7.0113 C   0  0  0  0  0  0  0  0  0  0  0  0
   -2.5069   -1.5765    7.2657 H   0  0  0  0  0  0  0  0  0  0  0  0
   -3.1525   -3.1564    7.6619 H   0  0  0  0  0  0  0  0  0  0  0  0
   -1.4353   -2.9565    7.3834 H   0  0  0  0  0  0  0  0  0  0  0  0
   -1.5370   -2.8550    4.7741 N   0  0  0  0  0  0  0  0  0  0  0  0
   -1.5511   -3.0788    3.3507 C   0  0  2  0  0  0  0  0  0  0  0  0
   -0.2583   -3.7856    2.9484 C   0  0  0  0  0  0  0  0  0  0  0  0
    0.6638   -3.9934    3.7344 O   0  0  0  0  0  0  0  0  0  0  0  0
   -1.8109   -1.7933    2.5614 C   0  0  0  0  0  0  0  0  0  0  0  0
   -0.5174   -0.5268    2.7738 S   0  0  0  0  0  0  0  0  0  0  0  0
   -0.6469   -2.6482    5.2220 H   0  0  0  0  0  0  0  0  0  0  0  0
   -2.3792   -3.7753    3.1701 H   0  0  0  0  0  0  0  0  0  0  0  0
   -1.8859   -2.0084    1.4904 H   0  0  0  0  0  0  0  0  0  0  0  0
   -2.7608   -1.3478    2.8761 H   0  0  0  0  0  0  0  0  0  0  0  0
   -0.2465   -4.1336    1.6051 N   0  0  0  0  0  0  0  0  0  0  0  0
    0.8777   -4.7908    0.9805 C   0  0  0  0  0  0  0  0  0  0  0  0
   -1.0708   -3.9622    1.0370 H   0  0  0  0  0  0  0  0  0  0  0  0
    1.5474   -4.0360    0.5427 H   0  0  0  0  0  0  0  0  0  0  0  0
    1.4263   -5.3744    1.7344 H   0  0  0  0  0  0  0  0  0  0  0  0
    0.5156   -5.4630    0.1886 H   0  0  0  0  0  0  0  0  0  0  0  0
   -6.7256    2.0330   -0.2766 C   0  0  0  0  0  0  0  0  0  0  0  0
   -7.1824    1.1039   -0.9322 O   0  0  0  0  0  0  0  0  0  0  0  0
   -7.5276    2.6077    0.8435 C   0  0  0  0  0  0  0  0  0  0  0  0
   -8.1775    3.4344    0.5145 H   0  0  0  0  0  0  0  0  0  0  0  0
   -8.2057    1.8676    1.2980 H   0  0  0  0  0  0  0  0  0  0  0  0
   -6.9411    3.0162    1.6819 H   0  0  0  0  0  0  0  0  0  0  0  0
   -5.4935    2.6382   -0.4627 N   0  0  0  0  0  0  0  0  0  0  0  0
   -4.5619    2.2388   -1.4845 C   0  0  2  0  0  0  0  0  0  0  0  0
   -3.1535    2.4674   -0.9521 C   0  0  0  0  0  0  0  0  0  0  0  0
   -2.8634    3.3945   -0.1987 O   0  0  0  0  0  0  0  0  0  0  0  0
   -4.7883    3.0138   -2.7732 C   0  0  0  0  0  0  0  0  0  0  0  0
   -5.2337    3.4049    0.1551 H   0  0  0  0  0  0  0  0  0  0  0  0
   -4.7192    1.1682   -1.6549 H   0  0  0  0  0  0  0  0  0  0  0  0
   -4.6352    4.0886   -2.6221 H   0  0  0  0  0  0  0  0  0  0  0  0
   -4.0976    2.6887   -3.5582 H   0  0  0  0  0  0  0  0  0  0  0  0
   -5.8111    2.8719   -3.1387 H   0  0  0  0  0  0  0  0  0  0  0  0
   -2.2466    1.5400   -1.4507 N   0  0  0  0  0  0  0  0  0  0  0  0
   -0.8424    1.5707   -1.1286 C   0  0  2  0  0  0  0  0  0  0  0  0
   -0.0367    1.3583   -2.4085 C   0  0  0  0  0  0  0  0  0  0  0  0
    0.7522    2.1919   -2.8493 O   0  0  0  0  0  0  0  0  0  0  0  0
   -0.4791    0.5881   -0.0126 C   0  0  0  0  0  0  0  0  0  0  0  0
   -1.2331    0.9859    1.5830 S   0  0  0  0  0  0  0  0  0  0  0  0
   -2.5850    0.7815   -2.0381 H   0  0  0  0  0  0  0  0  0  0  0  0
   -0.6429    2.5907   -0.7772 H   0  0  0  0  0  0  0  0  0  0  0  0
   -0.7908   -0.4273   -0.2780 H   0  0  0  0  0  0  0  0  0  0  0  0
    0.6065    0.5731    0.1325 H   0  0  0  0  0  0  0  0  0  0  0  0
   -0.3209    0.1414   -3.0119 N   0  0  0  0  0  0  0  0  0  0  0  0
    0.2966   -0.2782   -4.2482 C   0  0  2  0  0  0  0  0  0  0  0  0
   -0.7096   -1.1297   -5.0111 C   0  0  0  0  0  0  0  0  0  0  0  0
   -1.5170   -1.8723   -4.4564 O   0  0  0  0  0  0  0  0  0  0  0  0
    1.5797   -1.0527   -3.9908 C   0  0  0  0  0  0  0  0  0  0  0  0
   -0.9553   -0.5070   -2.5550 H   0  0  0  0  0  0  0  0  0  0  0  0
    0.5126    0.6318   -4.8186 H   0  0  0  0  0  0  0  0  0  0  0  0
    1.3833   -1.9679   -3.4204 H   0  0  0  0  0  0  0  0  0  0  0  0
    2.0616   -1.3454   -4.9296 H   0  0  0  0  0  0  0  0  0  0  0  0
    2.2907   -0.4492   -3.4163 H   0  0  0  0  0  0  0  0  0  0  0  0
   -0.5710   -0.9956   -6.3855 N   0  0  0  0  0  0  0  0  0  0  0  0
   -1.3814   -1.7330   -7.3264 C   0  0  0  0  0  0  0  0  0  0  0  0
    0.0974   -0.3272   -6.7574 H   0  0  0  0  0  0  0  0  0  0  0  0
   -0.8656   -2.6640   -7.6046 H   0  0  0  0  0  0  0  0  0  0  0  0
   -2.3504   -1.9746   -6.8652 H   0  0  0  0  0  0  0  0  0  0  0  0
   -1.5457   -1.1221   -8.2263 H   0  0  0  0  0  0  0  0  0  0  0  0
  1  3  1  0  0  0  0
  1  7  1  0  0  0  0
  1  2  2  0  0  0  0
 23 25  1  0  0  0  0
 23 29  1  0  0  0  0
 23 24  2  0  0  0  0
 50 51  1  0  0  0  0
 51 59  1  0  0  0  0
 51 52  2  0  0  0  0
  8  9  1  0  0  0  0
  9 17  1  0  0  0  0
  9 10  2  0  0  0  0
 30 31  1  0  0  0  0
 31 39  1  0  0  0  0
 31 32  2  0  0  0  0
 40 41  1  0  0  0  0
 41 49  1  0  0  0  0
 41 42  2  0  0  0  0
 50 53  1  0  0  0  0
 30 33  1  0  0  0  0
 59 60  1  0  0  0  0
 17 18  1  0  0  0  0
  8 11  1  0  0  0  0
 11 12  1  0  0  0  0
 40 43  1  0  0  0  0
 43 44  1  0  0  0  0
 49 50  1  0  0  0  0
  7  8  1  0  0  0  0
 29 30  1  0  0  0  0
 39 40  1  0  0  0  0
 12 44  1  0  0  0  0
  3  4  1  0  0  0  0
  3  5  1  0  0  0  0
  3  6  1  0  0  0  0
 25 26  1  0  0  0  0
 25 27  1  0  0  0  0
 25 28  1  0  0  0  0
 53 56  1  0  0  0  0
 53 57  1  0  0  0  0
 53 58  1  0  0  0  0
 33 36  1  0  0  0  0
 33 37  1  0  0  0  0
 33 38  1  0  0  0  0
 60 62  1  0  0  0  0
 60 63  1  0  0  0  0
 60 64  1  0  0  0  0
 18 20  1  0  0  0  0
 18 21  1  0  0  0  0
 18 22  1  0  0  0  0
 11 15  1  0  0  0  0
 11 16  1  0  0  0  0
 43 47  1  0  0  0  0
 43 48  1  0  0  0  0
 50 55  1  0  0  0  0
  8 14  1  0  0  0  0
 30 35  1  0  0  0  0
 40 46  1  0  0  0  0
 59 61  1  0  0  0  0
 17 19  1  0  0  0  0
  7 13  1  0  0  0  0
 29 34  1  0  0  0  0
 49 54  1  0  0  0  0
 39 45  1  0  0  0  0
M  END
$$$$

  -OEChem-05262214473D

 64 63  0     1  0  0  0  0  0999 V2000
   -2.6733   -2.9072    5.5629 C   0  0  0  0  0  0  0  0  0  0  0  0
   -3.8128   -3.1425    5.1783 O   0  0  0  0  0  0  0  0  0  0  0  0
   -2.4246   -2.6454    7.0113 C   0  0  0  0  0  0  0  0  0  0  0  0
   -2.5069   -1.5765    7.2657 H   0  0  0  0  0  0  0  0  0  0  0  0
   -3.1525   -3.1564    7.6619 H   0  0  0  0  0  0  0  0  0  0  0  0
   -1.4353   -2.9565    7.3834 H   0  0  0  0  0  0  0  0  0  0  0  0
   -1.5370   -2.8550    4.7741 N   0  0  0  0  0  0  0  0  0  0  0  0
   -1.5511   -3.0788    3.3507 C   0  0  2  0  0  0  0  0  0  0  0  0
   -0.2583   -3.7856    2.9484 C   0  0  0  0  0  0  0  0  0  0  0  0
    0.6638   -3.9934    3.7344 O   0  0  0  0  0  0  0  0  0  0  0  0
   -1.8109   -1.7933    2.5614 C   0  0  0  0  0  0  0  0  0  0  0  0
   -0.5174   -0.5268    2.7738 S   0  0  0  0  0  0  0  0  0  0  0  0
   -0.6469   -2.6482    5.2220 H   0  0  0  0  0  0  0  0  0  0  0  0
   -2.3792   -3.7753    3.1701 H   0  0  0  0  0  0  0  0  0  0  0  0
   -1.8859   -2.0084    1.4904 H   0  0  0  0  0  0  0  0  0  0  0  0
   -2.7608   -1.3478    2.8761 H   0  0  0  0  0  0  0  0  0  0  0  0
   -0.2465   -4.1336    1.6051 N   0  0  0  0  0  0  0  0  0  0  0  0
    0.8777   -4.7908    0.9805 C   0  0  0  0  0  0  0  0  0  0  0  0
   -1.0708   -3.9622    1.0370 H   0  0  0  0  0  0  0  0  0  0  0  0
    1.5474   -4.0360    0.5427 H   0  0  0  0  0  0  0  0  0  0  0  0
    1.4263   -5.3744    1.7344 H   0  0  0  0  0  0  0  0  0  0  0  0
    0.5156   -5.4630    0.1886 H   0  0  0  0  0  0  0  0  0  0  0  0
   -6.7256    2.0330   -0.2766 C   0  0  0  0  0  0  0  0  0  0  0  0
   -7.1824    1.1039   -0.9322 O   0  0  0  0  0  0  0  0  0  0  0  0
   -7.5276    2.6077    0.8435 C   0  0  0  0  0  0  0  0  0  0  0  0
   -8.1775    3.4344    0.5145 H   0  0  0  0  0  0  0  0  0  0  0  0
   -8.2057    1.8676    1.2980 H   0  0  0  0  0  0  0  0  0  0  0  0
   -6.9411    3.0162    1.6819 H   0  0  0  0  0  0  0  0  0  0  0  0
   -5.4935    2.6382   -0.4627 N   0  0  0  0  0  0  0  0  0  0  0  0
   -4.5619    2.2388   -1.4845 C   0  0  2  0  0  0  0  0  0  0  0  0
   -3.1535    2.4674   -0.9521 C   0  0  0  0  0  0  0  0  0  0  0  0
   -2.8634    3.3945   -0.1987 O   0  0  0  0  0  0  0  0  0  0  0  0
   -4.7883    3.0138   -2.7732 C   0  0  0  0  0  0  0  0  0  0  0  0
   -5.2337    3.4049    0.1551 H   0  0  0  0  0  0  0  0  0  0  0  0
   -4.7192    1.1682   -1.6549 H   0  0  0  0  0  0  0  0  0  0  0  0
   -4.6352    4.0886   -2.6221 H   0  0  0  0  0  0  0  0  0  0  0  0
   -4.0976    2.6887   -3.5582 H   0  0  0  0  0  0  0  0  0  0  0  0
   -5.8111    2.8719   -3.1387 H   0  0  0  0  0  0  0  0  0  0  0  0
   -2.2466    1.5400   -1.4507 N   0  0  0  0  0  0  0  0  0  0  0  0
   -0.8424    1.5707   -1.1286 C   0  0  2  0  0  0  0  0  0  0  0  0
   -0.0367    1.3583   -2.4085 C   0  0  0  0  0  0  0  0  0  0  0  0
    0.9340    2.0494   -2.7112 O   0  0  0  0  0  0  0  0  0  0  0  0
   -0.4791    0.5881   -0.0126 C   0  0  0  0  0  0  0  0  0  0  0  0
   -1.2331    0.9859    1.5830 S   0  0  0  0  0  0  0  0  0  0  0  0
   -2.5850    0.7815   -2.0381 H   0  0  0  0  0  0  0  0  0  0  0  0
   -0.6429    2.5907   -0.7772 H   0  0  0  0  0  0  0  0  0  0  0  0
   -0.7908   -0.4273   -0.2780 H   0  0  0  0  0  0  0  0  0  0  0  0
    0.6065    0.5731    0.1325 H   0  0  0  0  0  0  0  0  0  0  0  0
   -0.5440    0.3244   -3.1827 N   0  0  0  0  0  0  0  0  0  0  0  0
    0.0314   -0.0527   -4.4525 C   0  0  2  0  0  0  0  0  0  0  0  0
   -1.0936   -0.5539   -5.3483 C   0  0  0  0  0  0  0  0  0  0  0  0
   -2.0687   -1.1680   -4.9205 O   0  0  0  0  0  0  0  0  0  0  0  0
    1.1038   -1.1170   -4.2798 C   0  0  0  0  0  0  0  0  0  0  0  0
   -1.3252   -0.2237   -2.8348 H   0  0  0  0  0  0  0  0  0  0  0  0
    0.4664    0.8551   -4.8847 H   0  0  0  0  0  0  0  0  0  0  0  0
    0.6868   -2.0341   -3.8478 H   0  0  0  0  0  0  0  0  0  0  0  0
    1.5590   -1.3812   -5.2400 H   0  0  0  0  0  0  0  0  0  0  0  0
    1.8974   -0.7659   -3.6114 H   0  0  0  0  0  0  0  0  0  0  0  0
   -0.8595   -0.2725   -6.6871 N   0  0  0  0  0  0  0  0  0  0  0  0
   -1.7600   -0.6827   -7.7391 C   0  0  0  0  0  0  0  0  0  0  0  0
   -0.0453    0.2762   -6.9473 H   0  0  0  0  0  0  0  0  0  0  0  0
   -1.4424   -1.6588   -8.1344 H   0  0  0  0  0  0  0  0  0  0  0  0
   -2.7805   -0.7647   -7.3367 H   0  0  0  0  0  0  0  0  0  0  0  0
   -1.7434    0.0631   -8.5474 H   0  0  0  0  0  0  0  0  0  0  0  0
  1  3  1  0  0  0  0
  1  7  1  0  0  0  0
  1  2  2  0  0  0  0
 23 25  1  0  0  0  0
 23 29  1  0  0  0  0
 23 24  2  0  0  0  0
 50 51  1  0  0  0  0
 51 59  1  0  0  0  0
 51 52  2  0  0  0  0
  8  9  1  0  0  0  0
  9 17  1  0  0  0  0
  9 10  2  0  0  0  0
 30 31  1  0  0  0  0
 31 39  1  0  0  0  0
 31 32  2  0  0  0  0
 40 41  1  0  0  0  0
 41 49  1  0  0  0  0
 41 42  2  0  0  0  0
 50 53  1  0  0  0  0
 30 33  1  0  0  0  0
 59 60  1  0  0  0  0
 17 18  1  0  0  0  0
  8 11  1  0  0  0  0
 11 12  1  0  0  0  0
 40 43  1  0  0  0  0
 43 44  1  0  0  0  0
 49 50  1  0  0  0  0
  7  8  1  0  0  0  0
 29 30  1  0  0  0  0
 39 40  1  0  0  0  0
 12 44  1  0  0  0  0
  3  4  1  0  0  0  0
  3  5  1  0  0  0  0
  3  6  1  0  0  0  0
 25 26  1  0  0  0  0
 25 27  1  0  0  0  0
 25 28  1  0  0  0  0
 53 56  1  0  0  0  0
 53 57  1  0  0  0  0
 53 58  1  0  0  0  0
 33 36  1  0  0  0  0
 33 37  1  0  0  0  0
 33 38  1  0  0  0  0
 60 62  1  0  0  0  0
 60 63  1  0  0  0  0
 60 64  1  0  0  0  0
 18 20  1  0  0  0  0
 18 21  1  0  0  0  0
 18 22  1  0  0  0  0
 11 15  1  0  0  0  0
 11 16  1  0  0  0  0
 43 47  1  0  0  0  0
 43 48  1  0  0  0  0
 50 55  1  0  0  0  0
  8 14  1  0  0  0  0
 30 35  1  0  0  0  0
 40 46  1  0  0  0  0
 59 61  1  0  0  0  0
 17 19  1  0  0  0  0
  7 13  1  0  0  0  0
 29 34  1  0  0  0  0
 49 54  1  0  0  0  0
 39 45  1  0  0  0  0
M  END
$$$$

  -OEChem-05262214473D

 64 63  0     1  0  0  0  0  0999 V2000
   -2.6733   -2.9072    5.5629 C   0  0  0  0  0  0  0  0  0  0  0  0
   -3.8128   -3.1425    5.1783 O   0  0  0  0  0  0  0  0  0  0  0  0
   -2.4246   -2.6454    7.0113 C   0  0  0  0  0  0  0  0  0  0  0  0
   -2.5069   -1.5765    7.2657 H   0  0  0  0  0  0  0  0  0  0  0  0
   -3.1525   -3.1564    7.6619 H   0  0  0  0  0  0  0  0  0  0  0  0
   -1.4353   -2.9565    7.3834 H   0  0  0  0  0  0  0  0  0  0  0  0
   -1.5370   -2.8550    4.7741 N   0  0  0  0  0  0  0  0  0  0  0  0
   -1.5511   -3.0788    3.3507 C   0  0  2  0  0  0  0  0  0  0  0  0
   -0.2583   -3.7856    2.9484 C   0  0  0  0  0  0  0  0  0  0  0  0
    0.6638   -3.9934    3.7344 O   0  0  0  0  0  0  0  0  0  0  0  0
   -1.8109   -1.7933    2.5614 C   0  0  0  0  0  0  0  0  0  0  0  0
   -0.5174   -0.5268    2.7738 S   0  0  0  0  0  0  0  0  0  0  0  0
   -0.6469   -2.6482    5.2220 H   0  0  0  0  0  0  0  0  0  0  0  0
   -2.3792   -3.7753    3.1701 H   0  0  0  0  0  0  0  0  0  0  0  0
   -1.8859   -2.0084    1.4904 H   0  0  0  0  0  0  0  0  0  0  0  0
   -2.7608   -1.3478    2.8761 H   0  0  0  0  0  0  0  0  0  0  0  0
   -0.2465   -4.1336    1.6051 N   0  0  0  0  0  0  0  0  0  0  0  0
    0.8777   -4.7908    0.9805 C   0  0  0  0  0  0  0  0  0  0  0  0
   -1.0708   -3.9622    1.0370 H   0  0  0  0  0  0  0  0  0  0  0  0
    1.5474   -4.0360    0.5427 H   0  0  0  0  0  0  0  0  0  0  0  0
    1.4263   -5.3744    1.7344 H   0  0  0  0  0  0  0  0  0  0  0  0
    0.5156   -5.4630    0.1886 H   0  0  0  0  0  0  0  0  0  0  0  0
   -6.7256    2.0330   -0.2766 C   0  0  0  0  0  0  0  0  0  0  0  0
   -7.1824    1.1039   -0.9322 O   0  0  0  0  0  0  0  0  0  0  0  0
   -7.5276    2.6077    0.8435 C   0  0  0  0  0  0  0  0  0  0  0  0
   -8.1775    3.4344    0.5145 H   0  0  0  0  0  0  0  0  0  0  0  0
   -8.2057    1.8676    1.2980 H   0  0  0  0  0  0  0  0  0  0  0  0
   -6.9411    3.0162    1.6819 H   0  0  0  0  0  0  0  0  0  0  0  0
   -5.4935    2.6382   -0.4627 N   0  0  0  0  0  0  0  0  0  0  0  0
   -4.5619    2.2388   -1.4845 C   0  0  2  0  0  0  0  0  0  0  0  0
   -3.1535    2.4674   -0.9521 C   0  0  0  0  0  0  0  0  0  0  0  0
   -2.8634    3.3945   -0.1987 O   0  0  0  0  0  0  0  0  0  0  0  0
   -4.7883    3.0138   -2.7732 C   0  0  0  0  0  0  0  0  0  0  0  0
   -5.2337    3.4049    0.1551 H   0  0  0  0  0  0  0  0  0  0  0  0
   -4.7192    1.1682   -1.6549 H   0  0  0  0  0  0  0  0  0  0  0  0
   -4.6352    4.0886   -2.6221 H   0  0  0  0  0  0  0  0  0  0  0  0
   -4.0976    2.6887   -3.5582 H   0  0  0  0  0  0  0  0  0  0  0  0
   -5.8111    2.8719   -3.1387 H   0  0  0  0  0  0  0  0  0  0  0  0
   -2.2466    1.5400   -1.4507 N   0  0  0  0  0  0  0  0  0  0  0  0
   -0.8424    1.5707   -1.1286 C   0  0  2  0  0  0  0  0  0  0  0  0
   -0.0367    1.3583   -2.4085 C   0  0  0  0  0  0  0  0  0  0  0  0
    1.0738    1.8535   -2.5907 O   0  0  0  0  0  0  0  0  0  0  0  0
   -0.4791    0.5881   -0.0126 C   0  0  0  0  0  0  0  0  0  0  0  0
   -1.2331    0.9859    1.5830 S   0  0  0  0  0  0  0  0  0  0  0  0
   -2.5850    0.7815   -2.0381 H   0  0  0  0  0  0  0  0  0  0  0  0
   -0.6429    2.5907   -0.7772 H   0  0  0  0  0  0  0  0  0  0  0  0
   -0.7908   -0.4273   -0.2780 H   0  0  0  0  0  0  0  0  0  0  0  0
    0.6065    0.5731    0.1325 H   0  0  0  0  0  0  0  0  0  0  0  0
   -0.7137    0.5729   -3.3307 N   0  0  0  0  0  0  0  0  0  0  0  0
   -0.1684    0.2505   -4.6286 C   0  0  2  0  0  0  0  0  0  0  0  0
   -1.3275    0.1316   -5.6093 C   0  0  0  0  0  0  0  0  0  0  0  0
   -2.4322   -0.3048   -5.2925 O   0  0  0  0  0  0  0  0  0  0  0  0
    0.6406   -1.0365   -4.5847 C   0  0  0  0  0  0  0  0  0  0  0  0
   -1.6109    0.1684   -3.0798 H   0  0  0  0  0  0  0  0  0  0  0  0
    0.4725    1.0898   -4.9198 H   0  0  0  0  0  0  0  0  0  0  0  0
    0.0152   -1.8887   -4.2948 H   0  0  0  0  0  0  0  0  0  0  0  0
    1.0769   -1.2644   -5.5629 H   0  0  0  0  0  0  0  0  0  0  0  0
    1.4558   -0.9598   -3.8572 H   0  0  0  0  0  0  0  0  0  0  0  0
   -0.9705    0.5298   -6.8900 N   0  0  0  0  0  0  0  0  0  0  0  0
   -1.8831    0.4703   -8.0079 C   0  0  0  0  0  0  0  0  0  0  0  0
   -0.0454    0.9160   -7.0535 H   0  0  0  0  0  0  0  0  0  0  0  0
   -1.7624   -0.4905   -8.5297 H   0  0  0  0  0  0  0  0  0  0  0  0
   -2.9167    0.5616   -7.6425 H   0  0  0  0  0  0  0  0  0  0  0  0
   -1.6657    1.2947   -8.7028 H   0  0  0  0  0  0  0  0  0  0  0  0
  1  3  1  0  0  0  0
  1  7  1  0  0  0  0
  1  2  2  0  0  0  0
 23 25  1  0  0  0  0
 23 29  1  0  0  0  0
 23 24  2  0  0  0  0
 50 51  1  0  0  0  0
 51 59  1  0  0  0  0
 51 52  2  0  0  0  0
  8  9  1  0  0  0  0
  9 17  1  0  0  0  0
  9 10  2  0  0  0  0
 30 31  1  0  0  0  0
 31 39  1  0  0  0  0
 31 32  2  0  0  0  0
 40 41  1  0  0  0  0
 41 49  1  0  0  0  0
 41 42  2  0  0  0  0
 50 53  1  0  0  0  0
 30 33  1  0  0  0  0
 59 60  1  0  0  0  0
 17 18  1  0  0  0  0
  8 11  1  0  0  0  0
 11 12  1  0  0  0  0
 40 43  1  0  0  0  0
 43 44  1  0  0  0  0
 49 50  1  0  0  0  0
  7  8  1  0  0  0  0
 29 30  1  0  0  0  0
 39 40  1  0  0  0  0
 12 44  1  0  0  0  0
  3  4  1  0  0  0  0
  3  5  1  0  0  0  0
  3  6  1  0  0  0  0
 25 26  1  0  0  0  0
 25 27  1  0  0  0  0
 25 28  1  0  0  0  0
 53 56  1  0  0  0  0
 53 57  1  0  0  0  0
 53 58  1  0  0  0  0
 33 36  1  0  0  0  0
 33 37  1  0  0  0  0
 33 38  1  0  0  0  0
 60 62  1  0  0  0  0
 60 63  1  0  0  0  0
 60 64  1  0  0  0  0
 18 20  1  0  0  0  0
 18 21  1  0  0  0  0
 18 22  1  0  0  0  0
 11 15  1  0  0  0  0
 11 16  1  0  0  0  0
 43 47  1  0  0  0  0
 43 48  1  0  0  0  0
 50 55  1  0  0  0  0
  8 14  1  0  0  0  0
 30 35  1  0  0  0  0
 40 46  1  0  0  0  0
 59 61  1  0  0  0  0
 17 19  1  0  0  0  0
  7 13  1  0  0  0  0
 29 34  1  0  0  0  0
 49 54  1  0  0  0  0
 39 45  1  0  0  0  0
M  END
$$$$

  -OEChem-05262214473D

 64 63  0     1  0  0  0  0  0999 V2000
   -2.6733   -2.9072    5.5629 C   0  0  0  0  0  0  0  0  0  0  0  0
   -3.8128   -3.1425    5.1783 O   0  0  0  0  0  0  0  0  0  0  0  0
   -2.4246   -2.6454    7.0113 C   0  0  0  0  0  0  0  0  0  0  0  0
   -2.5069   -1.5765    7.2657 H   0  0  0  0  0  0  0  0  0  0  0  0
   -3.1525   -3.1564    7.6619 H   0  0  0  0  0  0  0  0  0  0  0  0
   -1.4353   -2.9565    7.3834 H   0  0  0  0  0  0  0  0  0  0  0  0
   -1.5370   -2.8550    4.7741 N   0  0  0  0  0  0  0  0  0  0  0  0
   -1.5511   -3.0788    3.3507 C   0  0  2  0  0  0  0  0  0  0  0  0
   -0.2583   -3.7856    2.9484 C   0  0  0  0  0  0  0  0  0  0  0  0
    0.6638   -3.9934    3.7344 O   0  0  0  0  0  0  0  0  0  0  0  0
   -1.8109   -1.7933    2.5614 C   0  0  0  0  0  0  0  0  0  0  0  0
   -0.5174   -0.5268    2.7738 S   0  0  0  0  0  0  0  0  0  0  0  0
   -0.6469   -2.6482    5.2220 H   0  0  0  0  0  0  0  0  0  0  0  0
   -2.3792   -3.7753    3.1701 H   0  0  0  0  0  0  0  0  0  0  0  0
   -1.8859   -2.0084    1.4904 H   0  0  0  0  0  0  0  0  0  0  0  0
   -2.7608   -1.3478    2.8761 H   0  0  0  0  0  0  0  0  0  0  0  0
   -0.2465   -4.1336    1.6051 N   0  0  0  0  0  0  0  0  0  0  0  0
    0.8777   -4.7908    0.9805 C   0  0  0  0  0  0  0  0  0  0  0  0
   -1.0708   -3.9622    1.0370 H   0  0  0  0  0  0  0  0  0  0  0  0
    1.5474   -4.0360    0.5427 H   0  0  0  0  0  0  0  0  0  0  0  0
    1.4263   -5.3744    1.7344 H   0  0  0  0  0  0  0  0  0  0  0  0
    0.5156   -5.4630    0.1886 H   0  0  0  0  0  0  0  0  0  0  0  0
   -6.7256    2.0330   -0.2766 C   0  0  0  0  0  0  0  0  0  0  0  0
   -7.1824    1.1039   -0.9322 O   0  0  0  0  0  0  0  0  0  0  0  0
   -7.5276    2.6077    0.8435 C   0  0  0  0  0  0  0  0  0  0  0  0
   -8.1775    3.4344    0.5145 H   0  0  0  0  0  0  0  0  0  0  0  0
   -8.2057    1.8676    1.2980 H   0  0  0  0  0  0  0  0  0  0  0  0
   -6.9411    3.0162    1.6819 H   0  0  0  0  0  0  0  0  0  0  0  0
   -5.4935    2.6382   -0.4627 N   0  0  0  0  0  0  0  0  0  0  0  0
   -4.5619    2.2388   -1.4845 C   0  0  2  0  0  0  0  0  0  0  0  0
   -3.1535    2.4674   -0.9521 C   0  0  0  0  0  0  0  0  0  0  0  0
   -2.8634    3.3945   -0.1987 O   0  0  0  0  0  0  0  0  0  0  0  0
   -4.7883    3.0138   -2.7732 C   0  0  0  0  0  0  0  0  0  0  0  0
   -5.2337    3.4049    0.1551 H   0  0  0  0  0  0  0  0  0  0  0  0
   -4.7192    1.1682   -1.6549 H   0  0  0  0  0  0  0  0  0  0  0  0
   -4.6352    4.0886   -2.6221 H   0  0  0  0  0  0  0  0  0  0  0  0
   -4.0976    2.6887   -3.5582 H   0  0  0  0  0  0  0  0  0  0  0  0
   -5.8111    2.8719   -3.1387 H   0  0  0  0  0  0  0  0  0  0  0  0
   -2.2466    1.5400   -1.4507 N   0  0  0  0  0  0  0  0  0  0  0  0
   -0.8424    1.5707   -1.1286 C   0  0  2  0  0  0  0  0  0  0  0  0
   -0.0367    1.3583   -2.4085 C   0  0  0  0  0  0  0  0  0  0  0  0
    1.1619    1.6174   -2.4960 O   0  0  0  0  0  0  0  0  0  0  0  0
   -0.4791    0.5881   -0.0126 C   0  0  0  0  0  0  0  0  0  0  0  0
   -1.2331    0.9859    1.5830 S   0  0  0  0  0  0  0  0  0  0  0  0
   -2.5850    0.7815   -2.0381 H   0  0  0  0  0  0  0  0  0  0  0  0
   -0.6429    2.5907   -0.7772 H   0  0  0  0  0  0  0  0  0  0  0  0
   -0.7908   -0.4273   -0.2780 H   0  0  0  0  0  0  0  0  0  0  0  0
    0.6065    0.5731    0.1325 H   0  0  0  0  0  0  0  0  0  0  0  0
   -0.8183    0.8700   -3.4459 N   0  0  0  0  0  0  0  0  0  0  0  0
   -0.2894    0.6107   -4.7645 C   0  0  2  0  0  0  0  0  0  0  0  0
   -1.3954    0.8802   -5.7763 C   0  0  0  0  0  0  0  0  0  0  0  0
   -2.5826    0.6587   -5.5471 O   0  0  0  0  0  0  0  0  0  0  0  0
    0.2216   -0.8166   -4.8850 C   0  0  0  0  0  0  0  0  0  0  0  0
   -1.7931    0.6425   -3.2731 H   0  0  0  0  0  0  0  0  0  0  0  0
    0.5306    1.3200   -4.9214 H   0  0  0  0  0  0  0  0  0  0  0  0
   -0.5860   -1.5415   -4.7308 H   0  0  0  0  0  0  0  0  0  0  0  0
    0.6482   -1.0029   -5.8761 H   0  0  0  0  0  0  0  0  0  0  0  0
    0.9960   -1.0177   -4.1370 H   0  0  0  0  0  0  0  0  0  0  0  0
   -0.8964    1.3565   -6.9805 N   0  0  0  0  0  0  0  0  0  0  0  0
   -1.7423    1.6474   -8.1145 C   0  0  0  0  0  0  0  0  0  0  0  0
    0.0971    1.5485   -7.0688 H   0  0  0  0  0  0  0  0  0  0  0  0
   -1.8038    0.7614   -8.7635 H   0  0  0  0  0  0  0  0  0  0  0  0
   -2.7495    1.9139   -7.7616 H   0  0  0  0  0  0  0  0  0  0  0  0
   -1.3180    2.4887   -8.6820 H   0  0  0  0  0  0  0  0  0  0  0  0
  1  3  1  0  0  0  0
  1  7  1  0  0  0  0
  1  2  2  0  0  0  0
 23 25  1  0  0  0  0
 23 29  1  0  0  0  0
 23 24  2  0  0  0  0
 50 51  1  0  0  0  0
 51 59  1  0  0  0  0
 51 52  2  0  0  0  0
  8  9  1  0  0  0  0
  9 17  1  0  0  0  0
  9 10  2  0  0  0  0
 30 31  1  0  0  0  0
 31 39  1  0  0  0  0
 31 32  2  0  0  0  0
 40 41  1  0  0  0  0
 41 49  1  0  0  0  0
 41 42  2  0  0  0  0
 50 53  1  0  0  0  0
 30 33  1  0  0  0  0
 59 60  1  0  0  0  0
 17 18  1  0  0  0  0
  8 11  1  0  0  0  0
 11 12  1  0  0  0  0
 40 43  1  0  0  0  0
 43 44  1  0  0  0  0
 49 50  1  0  0  0  0
  7  8  1  0  0  0  0
 29 30  1  0  0  0  0
 39 40  1  0  0  0  0
 12 44  1  0  0  0  0
  3  4  1  0  0  0  0
  3  5  1  0  0  0  0
  3  6  1  0  0  0  0
 25 26  1  0  0  0  0
 25 27  1  0  0  0  0
 25 28  1  0  0  0  0
 53 56  1  0  0  0  0
 53 57  1  0  0  0  0
 53 58  1  0  0  0  0
 33 36  1  0  0  0  0
 33 37  1  0  0  0  0
 33 38  1  0  0  0  0
 60 62  1  0  0  0  0
 60 63  1  0  0  0  0
 60 64  1  0  0  0  0
 18 20  1  0  0  0  0
 18 21  1  0  0  0  0
 18 22  1  0  0  0  0
 11 15  1  0  0  0  0
 11 16  1  0  0  0  0
 43 47  1  0  0  0  0
 43 48  1  0  0  0  0
 50 55  1  0  0  0  0
  8 14  1  0  0  0  0
 30 35  1  0  0  0  0
 40 46  1  0  0  0  0
 59 61  1  0  0  0  0
 17 19  1  0  0  0  0
  7 13  1  0  0  0  0
 29 34  1  0  0  0  0
 49 54  1  0  0  0  0
 39 45  1  0  0  0  0
M  END
$$$$

  -OEChem-05262214473D

 64 63  0     1  0  0  0  0  0999 V2000
   -2.6733   -2.9072    5.5629 C   0  0  0  0  0  0  0  0  0  0  0  0
   -3.8128   -3.1425    5.1783 O   0  0  0  0  0  0  0  0  0  0  0  0
   -2.4246   -2.6454    7.0113 C   0  0  0  0  0  0  0  0  0  0  0  0
   -2.5069   -1.5765    7.2657 H   0  0  0  0  0  0  0  0  0  0  0  0
   -3.1525   -3.1564    7.6619 H   0  0  0  0  0  0  0  0  0  0  0  0
   -1.4353   -2.9565    7.3834 H   0  0  0  0  0  0  0  0  0  0  0  0
   -1.5370   -2.8550    4.7741 N   0  0  0  0  0  0  0  0  0  0  0  0
   -1.5511   -3.0788    3.3507 C   0  0  2  0  0  0  0  0  0  0  0  0
   -0.2583   -3.7856    2.9484 C   0  0  0  0  0  0  0  0  0  0  0  0
    0.6638   -3.9934    3.7344 O   0  0  0  0  0  0  0  0  0  0  0  0
   -1.8109   -1.7933    2.5614 C   0  0  0  0  0  0  0  0  0  0  0  0
   -0.5174   -0.5268    2.7738 S   0  0  0  0  0  0  0  0  0  0  0  0
   -0.6469   -2.6482    5.2220 H   0  0  0  0  0  0  0  0  0  0  0  0
   -2.3792   -3.7753    3.1701 H   0  0  0  0  0  0  0  0  0  0  0  0
   -1.8859   -2.0084    1.4904 H   0  0  0  0  0  0  0  0  0  0  0  0
   -2.7608   -1.3478    2.8761 H   0  0  0  0  0  0  0  0  0  0  0  0
   -0.2465   -4.1336    1.6051 N   0  0  0  0  0  0  0  0  0  0  0  0
    0.8777   -4.7908    0.9805 C   0  0  0  0  0  0  0  0  0  0  0  0
   -1.0708   -3.9622    1.0370 H   0  0  0  0  0  0  0  0  0  0  0  0
    1.5474   -4.0360    0.5427 H   0  0  0  0  0  0  0  0  0  0  0  0
    1.4263   -5.3744    1.7344 H   0  0  0  0  0  0  0  0  0  0  0  0
    0.5156   -5.4630    0.1886 H   0  0  0  0  0  0  0  0  0  0  0  0
   -6.7256    2.0330   -0.2766 C   0  0  0  0  0  0  0  0  0  0  0  0
   -7.1824    1.1039   -0.9322 O   0  0  0  0  0  0  0  0  0  0  0  0
   -7.5276    2.6077    0.8435 C   0  0  0  0  0  0  0  0  0  0  0  0
   -8.1775    3.4344    0.5145 H   0  0  0  0  0  0  0  0  0  0  0  0
   -8.2057    1.8676    1.2980 H   0  0  0  0  0  0  0  0  0  0  0  0
   -6.9411    3.0162    1.6819 H   0  0  0  0  0  0  0  0  0  0  0  0
   -5.4935    2.6382   -0.4627 N   0  0  0  0  0  0  0  0  0  0  0  0
   -4.5619    2.2388   -1.4845 C   0  0  2  0  0  0  0  0  0  0  0  0
   -3.1535    2.4674   -0.9521 C   0  0  0  0  0  0  0  0  0  0  0  0
   -2.8634    3.3945   -0.1987 O   0  0  0  0  0  0  0  0  0  0  0  0
   -4.7883    3.0138   -2.7732 C   0  0  0  0  0  0  0  0  0  0  0  0
   -5.2337    3.4049    0.1551 H   0  0  0  0  0  0  0  0  0  0  0  0
   -4.7192    1.1682   -1.6549 H   0  0  0  0  0  0  0  0  0  0  0  0
   -4.6352    4.0886   -2.6221 H   0  0  0  0  0  0  0  0  0  0  0  0
   -4.0976    2.6887   -3.5582 H   0  0  0  0  0  0  0  0  0  0  0  0
   -5.8111    2.8719   -3.1387 H   0  0  0  0  0  0  0  0  0  0  0  0
   -2.2466    1.5400   -1.4507 N   0  0  0  0  0  0  0  0  0  0  0  0
   -0.8424    1.5707   -1.1286 C   0  0  2  0  0  0  0  0  0  0  0  0
   -0.0367    1.3583   -2.4085 C   0  0  0  0  0  0  0  0  0  0  0  0
    1.1925    1.3574   -2.4337 O   0  0  0  0  0  0  0  0  0  0  0  0
   -0.4791    0.5881   -0.0126 C   0  0  0  0  0  0  0  0  0  0  0  0
   -1.2331    0.9859    1.5830 S   0  0  0  0  0  0  0  0  0  0  0  0
   -2.5850    0.7815   -2.0381 H   0  0  0  0  0  0  0  0  0  0  0  0
   -0.6429    2.5907   -0.7772 H   0  0  0  0  0  0  0  0  0  0  0  0
   -0.7908   -0.4273   -0.2780 H   0  0  0  0  0  0  0  0  0  0  0  0
    0.6065    0.5731    0.1325 H   0  0  0  0  0  0  0  0  0  0  0  0
   -0.8509    1.1953   -3.5203 N   0  0  0  0  0  0  0  0  0  0  0  0
   -0.3232    1.0035   -4.8510 C   0  0  2  0  0  0  0  0  0  0  0  0
   -1.2926    1.6407   -5.8377 C   0  0  0  0  0  0  0  0  0  0  0  0
   -2.5098    1.6568   -5.6668 O   0  0  0  0  0  0  0  0  0  0  0  0
   -0.1247   -0.4722   -5.1601 C   0  0  0  0  0  0  0  0  0  0  0  0
   -1.8592    1.1664   -3.4017 H   0  0  0  0  0  0  0  0  0  0  0  0
    0.6367    1.5299   -4.8894 H   0  0  0  0  0  0  0  0  0  0  0  0
   -1.0757   -1.0162   -5.1262 H   0  0  0  0  0  0  0  0  0  0  0  0
    0.3021   -0.6146   -6.1584 H   0  0  0  0  0  0  0  0  0  0  0  0
    0.5495   -0.9357   -4.4317 H   0  0  0  0  0  0  0  0  0  0  0  0
   -0.6422    2.1513   -6.9524 N   0  0  0  0  0  0  0  0  0  0  0  0
   -1.3470    2.7684   -8.0517 C   0  0  0  0  0  0  0  0  0  0  0  0
    0.3725    2.1306   -6.9920 H   0  0  0  0  0  0  0  0  0  0  0  0
   -1.5639    2.0116   -8.8199 H   0  0  0  0  0  0  0  0  0  0  0  0
   -2.2903    3.2003   -7.6860 H   0  0  0  0  0  0  0  0  0  0  0  0
   -0.7238    3.5638   -8.4864 H   0  0  0  0  0  0  0  0  0  0  0  0
  1  3  1  0  0  0  0
  1  7  1  0  0  0  0
  1  2  2  0  0  0  0
 23 25  1  0  0  0  0
 23 29  1  0  0  0  0
 23 24  2  0  0  0  0
 50 51  1  0  0  0  0
 51 59  1  0  0  0  0
 51 52  2  0  0  0  0
  8  9  1  0  0  0  0
  9 17  1  0  0  0  0
  9 10  2  0  0  0  0
 30 31  1  0  0  0  0
 31 39  1  0  0  0  0
 31 32  2  0  0  0  0
 40 41  1  0  0  0  0
 41 49  1  0  0  0  0
 41 42  2  0  0  0  0
 50 53  1  0  0  0  0
 30 33  1  0  0  0  0
 59 60  1  0  0  0  0
 17 18  1  0  0  0  0
  8 11  1  0  0  0  0
 11 12  1  0  0  0  0
 40 43  1  0  0  0  0
 43 44  1  0  0  0  0
 49 50  1  0  0  0  0
  7  8  1  0  0  0  0
 29 30  1  0  0  0  0
 39 40  1  0  0  0  0
 12 44  1  0  0  0  0
  3  4  1  0  0  0  0
  3  5  1  0  0  0  0
  3  6  1  0  0  0  0
 25 26  1  0  0  0  0
 25 27  1  0  0  0  0
 25 28  1  0  0  0  0
 53 56  1  0  0  0  0
 53 57  1  0  0  0  0
 53 58  1  0  0  0  0
 33 36  1  0  0  0  0
 33 37  1  0  0  0  0
 33 38  1  0  0  0  0
 60 62  1  0  0  0  0
 60 63  1  0  0  0  0
 60 64  1  0  0  0  0
 18 20  1  0  0  0  0
 18 21  1  0  0  0  0
 18 22  1  0  0  0  0
 11 15  1  0  0  0  0
 11 16  1  0  0  0  0
 43 47  1  0  0  0  0
 43 48  1  0  0  0  0
 50 55  1  0  0  0  0
  8 14  1  0  0  0  0
 30 35  1  0  0  0  0
 40 46  1  0  0  0  0
 59 61  1  0  0  0  0
 17 19  1  0  0  0  0
  7 13  1  0  0  0  0
 29 34  1  0  0  0  0
 49 54  1  0  0  0  0
 39 45  1  0  0  0  0
M  END
$$$$

  -OEChem-05262214473D

 64 63  0     1  0  0  0  0  0999 V2000
   -2.6733   -2.9072    5.5629 C   0  0  0  0  0  0  0  0  0  0  0  0
   -3.8128   -3.1425    5.1783 O   0  0  0  0  0  0  0  0  0  0  0  0
   -2.4246   -2.6454    7.0113 C   0  0  0  0  0  0  0  0  0  0  0  0
   -2.5069   -1.5765    7.2657 H   0  0  0  0  0  0  0  0  0  0  0  0
   -3.1525   -3.1564    7.6619 H   0  0  0  0  0  0  0  0  0  0  0  0
   -1.4353   -2.9565    7.3834 H   0  0  0  0  0  0  0  0  0  0  0  0
   -1.5370   -2.8550    4.7741 N   0  0  0  0  0  0  0  0  0  0  0  0
   -1.5511   -3.0788    3.3507 C   0  0  2  0  0  0  0  0  0  0  0  0
   -0.2583   -3.7856    2.9484 C   0  0  0  0  0  0  0  0  0  0  0  0
    0.6638   -3.9934    3.7344 O   0  0  0  0  0  0  0  0  0  0  0  0
   -1.8109   -1.7933    2.5614 C   0  0  0  0  0  0  0  0  0  0  0  0
   -0.5174   -0.5268    2.7738 S   0  0  0  0  0  0  0  0  0  0  0  0
   -0.6469   -2.6482    5.2220 H   0  0  0  0  0  0  0  0  0  0  0  0
   -2.3792   -3.7753    3.1701 H   0  0  0  0  0  0  0  0  0  0  0  0
   -1.8859   -2.0084    1.4904 H   0  0  0  0  0  0  0  0  0  0  0  0
   -2.7608   -1.3478    2.8761 H   0  0  0  0  0  0  0  0  0  0  0  0
   -0.2465   -4.1336    1.6051 N   0  0  0  0  0  0  0  0  0  0  0  0
    0.8777   -4.7908    0.9805 C   0  0  0  0  0  0  0  0  0  0  0  0
   -1.0708   -3.9622    1.0370 H   0  0  0  0  0  0  0  0  0  0  0  0
    1.5474   -4.0360    0.5427 H   0  0  0  0  0  0  0  0  0  0  0  0
    1.4263   -5.3744    1.7344 H   0  0  0  0  0  0  0  0  0  0  0  0
    0.5156   -5.4630    0.1886 H   0  0  0  0  0  0  0  0  0  0  0  0
   -6.7256    2.0330   -0.2766 C   0  0  0  0  0  0  0  0  0  0  0  0
   -7.1824    1.1039   -0.9322 O   0  0  0  0  0  0  0  0  0  0  0  0
   -7.5276    2.6077    0.8435 C   0  0  0  0  0  0  0  0  0  0  0  0
   -8.1775    3.4344    0.5145 H   0  0  0  0  0  0  0  0  0  0  0  0
   -8.2057    1.8676    1.2980 H   0  0  0  0  0  0  0  0  0  0  0  0
   -6.9411    3.0162    1.6819 H   0  0  0  0  0  0  0  0  0  0  0  0
   -5.4935    2.6382   -0.4627 N   0  0  0  0  0  0  0  0  0  0  0  0
   -4.5619    2.2388   -1.4845 C   0  0  2  0  0  0  0  0  0  0  0  0
   -3.1535    2.4674   -0.9521 C   0  0  0  0  0  0  0  0  0  0  0  0
   -2.8634    3.3945   -0.1987 O   0  0  0  0  0  0  0  0  0  0  0  0
   -4.7883    3.0138   -2.7732 C   0  0  0  0  0  0  0  0  0  0  0  0
   -5.2337    3.4049    0.1551 H   0  0  0  0  0  0  0  0  0  0  0  0
   -4.7192    1.1682   -1.6549 H   0  0  0  0  0  0  0  0  0  0  0  0
   -4.6352    4.0886   -2.6221 H   0  0  0  0  0  0  0  0  0  0  0  0
   -4.0976    2.6887   -3.5582 H   0  0  0  0  0  0  0  0  0  0  0  0
   -5.8111    2.8719   -3.1387 H   0  0  0  0  0  0  0  0  0  0  0  0
   -2.2466    1.5400   -1.4507 N   0  0  0  0  0  0  0  0  0  0  0  0
   -0.8424    1.5707   -1.1286 C   0  0  2  0  0  0  0  0  0  0  0  0
   -0.0367    1.3583   -2.4085 C   0  0  0  0  0  0  0  0  0  0  0  0
    1.1633    1.0911   -2.4078 O   0  0  0  0  0  0  0  0  0  0  0  0
   -0.4791    0.5881   -0.0126 C   0  0  0  0  0  0  0  0  0  0  0  0
   -1.2331    0.9859    1.5830 S   0  0  0  0  0  0  0  0  0  0  0  0
   -2.5850    0.7815   -2.0381 H   0  0  0  0  0  0  0  0  0  0  0  0
   -0.6429    2.5907   -0.7772 H   0  0  0  0  0  0  0  0  0  0  0  0
   -0.7908   -0.4273   -0.2780 H   0  0  0  0  0  0  0  0  0  0  0  0
    0.6065    0.5731    0.1325 H   0  0  0  0  0  0  0  0  0  0  0  0
   -0.8090    1.5268   -3.5490 N   0  0  0  0  0  0  0  0  0  0  0  0
   -0.2675    1.4020   -4.8821 C   0  0  2  0  0  0  0  0  0  0  0  0
   -1.0261    2.3615   -5.7895 C   0  0  0  0  0  0  0  0  0  0  0  0
   -2.2186    2.6214   -5.6436 O   0  0  0  0  0  0  0  0  0  0  0  0
   -0.3745   -0.0270   -5.3912 C   0  0  0  0  0  0  0  0  0  0  0  0
   -1.8048    1.7044   -3.4567 H   0  0  0  0  0  0  0  0  0  0  0  0
    0.7836    1.7053   -4.8261 H   0  0  0  0  0  0  0  0  0  0  0  0
   -1.4205   -0.3486   -5.4541 H   0  0  0  0  0  0  0  0  0  0  0  0
    0.0622   -0.1259   -6.3905 H   0  0  0  0  0  0  0  0  0  0  0  0
    0.1465   -0.7195   -4.7213 H   0  0  0  0  0  0  0  0  0  0  0  0
   -0.2253    2.8600   -6.8076 N   0  0  0  0  0  0  0  0  0  0  0  0
   -0.7244    3.7569   -7.8237 C   0  0  0  0  0  0  0  0  0  0  0  0
    0.7621    2.6226   -6.8284 H   0  0  0  0  0  0  0  0  0  0  0  0
   -1.0590    3.1748   -8.6951 H   0  0  0  0  0  0  0  0  0  0  0  0
   -1.5706    4.3328   -7.4208 H   0  0  0  0  0  0  0  0  0  0  0  0
    0.0762    4.4466   -8.1292 H   0  0  0  0  0  0  0  0  0  0  0  0
  1  3  1  0  0  0  0
  1  7  1  0  0  0  0
  1  2  2  0  0  0  0
 23 25  1  0  0  0  0
 23 29  1  0  0  0  0
 23 24  2  0  0  0  0
 50 51  1  0  0  0  0
 51 59  1  0  0  0  0
 51 52  2  0  0  0  0
  8  9  1  0  0  0  0
  9 17  1  0  0  0  0
  9 10  2  0  0  0  0
 30 31  1  0  0  0  0
 31 39  1  0  0  0  0
 31 32  2  0  0  0  0
 40 41  1  0  0  0  0
 41 49  1  0  0  0  0
 41 42  2  0  0  0  0
 50 53  1  0  0  0  0
 30 33  1  0  0  0  0
 59 60  1  0  0  0  0
 17 18  1  0  0  0  0
  8 11  1  0  0  0  0
 11 12  1  0  0  0  0
 40 43  1  0  0  0  0
 43 44  1  0  0  0  0
 49 50  1  0  0  0  0
  7  8  1  0  0  0  0
 29 30  1  0  0  0  0
 39 40  1  0  0  0  0
 12 44  1  0  0  0  0
  3  4  1  0  0  0  0
  3  5  1  0  0  0  0
  3  6  1  0  0  0  0
 25 26  1  0  0  0  0
 25 27  1  0  0  0  0
 25 28  1  0  0  0  0
 53 56  1  0  0  0  0
 53 57  1  0  0  0  0
 53 58  1  0  0  0  0
 33 36  1  0  0  0  0
 33 37  1  0  0  0  0
 33 38  1  0  0  0  0
 60 62  1  0  0  0  0
 60 63  1  0  0  0  0
 60 64  1  0  0  0  0
 18 20  1  0  0  0  0
 18 21  1  0  0  0  0
 18 22  1  0  0  0  0
 11 15  1  0  0  0  0
 11 16  1  0  0  0  0
 43 47  1  0  0  0  0
 43 48  1  0  0  0  0
 50 55  1  0  0  0  0
  8 14  1  0  0  0  0
 30 35  1  0  0  0  0
 40 46  1  0  0  0  0
 59 61  1  0  0  0  0
 17 19  1  0  0  0  0
  7 13  1  0  0  0  0
 29 34  1  0  0  0  0
 49 54  1  0  0  0  0
 39 45  1  0  0  0  0
M  END
$$$$

  -OEChem-05262214473D

 64 63  0     1  0  0  0  0  0999 V2000
   -2.6733   -2.9072    5.5629 C   0  0  0  0  0  0  0  0  0  0  0  0
   -3.8128   -3.1425    5.1783 O   0  0  0  0  0  0  0  0  0  0  0  0
   -2.4246   -2.6454    7.0113 C   0  0  0  0  0  0  0  0  0  0  0  0
   -2.5069   -1.5765    7.2657 H   0  0  0  0  0  0  0  0  0  0  0  0
   -3.1525   -3.1564    7.6619 H   0  0  0  0  0  0  0  0  0  0  0  0
   -1.4353   -2.9565    7.3834 H   0  0  0  0  0  0  0  0  0  0  0  0
   -1.5370   -2.8550    4.7741 N   0  0  0  0  0  0  0  0  0  0  0  0
   -1.5511   -3.0788    3.3507 C   0  0  2  0  0  0  0  0  0  0  0  0
   -0.2583   -3.7856    2.9484 C   0  0  0  0  0  0  0  0  0  0  0  0
    0.6638   -3.9934    3.7344 O   0  0  0  0  0  0  0  0  0  0  0  0
   -1.8109   -1.7933    2.5614 C   0  0  0  0  0  0  0  0  0  0  0  0
   -0.5174   -0.5268    2.7738 S   0  0  0  0  0  0  0  0  0  0  0  0
   -0.6469   -2.6482    5.2220 H   0  0  0  0  0  0  0  0  0  0  0  0
   -2.3792   -3.7753    3.1701 H   0  0  0  0  0  0  0  0  0  0  0  0
   -1.8859   -2.0084    1.4904 H   0  0  0  0  0  0  0  0  0  0  0  0
   -2.7608   -1.3478    2.8761 H   0  0  0  0  0  0  0  0  0  0  0  0
   -0.2465   -4.1336    1.6051 N   0  0  0  0  0  0  0  0  0  0  0  0
    0.8777   -4.7908    0.9805 C   0  0  0  0  0  0  0  0  0  0  0  0
   -1.0708   -3.9622    1.0370 H   0  0  0  0  0  0  0  0  0  0  0  0
    1.5474   -4.0360    0.5427 H   0  0  0  0  0  0  0  0  0  0  0  0
    1.4263   -5.3744    1.7344 H   0  0  0  0  0  0  0  0  0  0  0  0
    0.5156   -5.4630    0.1886 H   0  0  0  0  0  0  0  0  0  0  0  0
   -6.7256    2.0330   -0.2766 C   0  0  0  0  0  0  0  0  0  0  0  0
   -7.1824    1.1039   -0.9322 O   0  0  0  0  0  0  0  0  0  0  0  0
   -7.5276    2.6077    0.8435 C   0  0  0  0  0  0  0  0  0  0  0  0
   -8.1775    3.4344    0.5145 H   0  0  0  0  0  0  0  0  0  0  0  0
   -8.2057    1.8676    1.2980 H   0  0  0  0  0  0  0  0  0  0  0  0
   -6.9411    3.0162    1.6819 H   0  0  0  0  0  0  0  0  0  0  0  0
   -5.4935    2.6382   -0.4627 N   0  0  0  0  0  0  0  0  0  0  0  0
   -4.5619    2.2388   -1.4845 C   0  0  2  0  0  0  0  0  0  0  0  0
   -3.1535    2.4674   -0.9521 C   0  0  0  0  0  0  0  0  0  0  0  0
   -2.8634    3.3945   -0.1987 O   0  0  0  0  0  0  0  0  0  0  0  0
   -4.7883    3.0138   -2.7732 C   0  0  0  0  0  0  0  0  0  0  0  0
   -5.2337    3.4049    0.1551 H   0  0  0  0  0  0  0  0  0  0  0  0
   -4.7192    1.1682   -1.6549 H   0  0  0  0  0  0  0  0  0  0  0  0
   -4.6352    4.0886   -2.6221 H   0  0  0  0  0  0  0  0  0  0  0  0
   -4.0976    2.6887   -3.5582 H   0  0  0  0  0  0  0  0  0  0  0  0
   -5.8111    2.8719   -3.1387 H   0  0  0  0  0  0  0  0  0  0  0  0
   -2.2466    1.5400   -1.4507 N   0  0  0  0  0  0  0  0  0  0  0  0
   -0.8424    1.5707   -1.1286 C   0  0  2  0  0  0  0  0  0  0  0  0
   -0.0367    1.3583   -2.4085 C   0  0  0  0  0  0  0  0  0  0  0  0
    1.0765    0.8366   -2.4203 O   0  0  0  0  0  0  0  0  0  0  0  0
   -0.4791    0.5881   -0.0126 C   0  0  0  0  0  0  0  0  0  0  0  0
   -1.2331    0.9859    1.5830 S   0  0  0  0  0  0  0  0  0  0  0  0
   -2.5850    0.7815   -2.0381 H   0  0  0  0  0  0  0  0  0  0  0  0
   -0.6429    2.5907   -0.7772 H   0  0  0  0  0  0  0  0  0  0  0  0
   -0.7908   -0.4273   -0.2780 H   0  0  0  0  0  0  0  0  0  0  0  0
    0.6065    0.5731    0.1325 H   0  0  0  0  0  0  0  0  0  0  0  0
   -0.6957    1.8418   -3.5299 N   0  0  0  0  0  0  0  0  0  0  0  0
   -0.1262    1.7791   -4.8557 C   0  0  2  0  0  0  0  0  0  0  0  0
   -0.6140    2.9933   -5.6350 C   0  0  0  0  0  0  0  0  0  0  0  0
   -1.7290    3.4868   -5.4790 O   0  0  0  0  0  0  0  0  0  0  0  0
   -0.5109    0.4889   -5.5627 C   0  0  0  0  0  0  0  0  0  0  0  0
   -1.6336    2.2197   -3.4344 H   0  0  0  0  0  0  0  0  0  0  0  0
    0.9613    1.8343   -4.7356 H   0  0  0  0  0  0  0  0  0  0  0  0
   -1.5970    0.4158   -5.6920 H   0  0  0  0  0  0  0  0  0  0  0  0
   -0.0551    0.4299   -6.5566 H   0  0  0  0  0  0  0  0  0  0  0  0
   -0.1855   -0.3836   -4.9860 H   0  0  0  0  0  0  0  0  0  0  0  0
    0.3259    3.4344   -6.5559 N   0  0  0  0  0  0  0  0  0  0  0  0
    0.0832    4.5455   -7.4462 C   0  0  0  0  0  0  0  0  0  0  0  0
    1.2391    2.9911   -6.5892 H   0  0  0  0  0  0  0  0  0  0  0  0
   -0.3234    4.1718   -8.3975 H   0  0  0  0  0  0  0  0  0  0  0  0
   -0.6392    5.2345   -6.9841 H   0  0  0  0  0  0  0  0  0  0  0  0
    1.0277    5.0770   -7.6349 H   0  0  0  0  0  0  0  0  0  0  0  0
  1  3  1  0  0  0  0
  1  7  1  0  0  0  0
  1  2  2  0  0  0  0
 23 25  1  0  0  0  0
 23 29  1  0  0  0  0
 23 24  2  0  0  0  0
 50 51  1  0  0  0  0
 51 59  1  0  0  0  0
 51 52  2  0  0  0  0
  8  9  1  0  0  0  0
  9 17  1  0  0  0  0
  9 10  2  0  0  0  0
 30 31  1  0  0  0  0
 31 39  1  0  0  0  0
 31 32  2  0  0  0  0
 40 41  1  0  0  0  0
 41 49  1  0  0  0  0
 41 42  2  0  0  0  0
 50 53  1  0  0  0  0
 30 33  1  0  0  0  0
 59 60  1  0  0  0  0
 17 18  1  0  0  0  0
  8 11  1  0  0  0  0
 11 12  1  0  0  0  0
 40 43  1  0  0  0  0
 43 44  1  0  0  0  0
 49 50  1  0  0  0  0
  7  8  1  0  0  0  0
 29 30  1  0  0  0  0
 39 40  1  0  0  0  0
 12 44  1  0  0  0  0
  3  4  1  0  0  0  0
  3  5  1  0  0  0  0
  3  6  1  0  0  0  0
 25 26  1  0  0  0  0
 25 27  1  0  0  0  0
 25 28  1  0  0  0  0
 53 56  1  0  0  0  0
 53 57  1  0  0  0  0
 53 58  1  0  0  0  0
 33 36  1  0  0  0  0
 33 37  1  0  0  0  0
 33 38  1  0  0  0  0
 60 62  1  0  0  0  0
 60 63  1  0  0  0  0
 60 64  1  0  0  0  0
 18 20  1  0  0  0  0
 18 21  1  0  0  0  0
 18 22  1  0  0  0  0
 11 15  1  0  0  0  0
 11 16  1  0  0  0  0
 43 47  1  0  0  0  0
 43 48  1  0  0  0  0
 50 55  1  0  0  0  0
  8 14  1  0  0  0  0
 30 35  1  0  0  0  0
 40 46  1  0  0  0  0
 59 61  1  0  0  0  0
 17 19  1  0  0  0  0
  7 13  1  0  0  0  0
 29 34  1  0  0  0  0
 49 54  1  0  0  0  0
 39 45  1  0  0  0  0
M  END
$$$$

  -OEChem-05262214473D

 64 63  0     1  0  0  0  0  0999 V2000
   -2.6733   -2.9072    5.5629 C   0  0  0  0  0  0  0  0  0  0  0  0
   -3.8128   -3.1425    5.1783 O   0  0  0  0  0  0  0  0  0  0  0  0
   -2.4246   -2.6454    7.0113 C   0  0  0  0  0  0  0  0  0  0  0  0
   -2.5069   -1.5765    7.2657 H   0  0  0  0  0  0  0  0  0  0  0  0
   -3.1525   -3.1564    7.6619 H   0  0  0  0  0  0  0  0  0  0  0  0
   -1.4353   -2.9565    7.3834 H   0  0  0  0  0  0  0  0  0  0  0  0
   -1.5370   -2.8550    4.7741 N   0  0  0  0  0  0  0  0  0  0  0  0
   -1.5511   -3.0788    3.3507 C   0  0  2  0  0  0  0  0  0  0  0  0
   -0.2583   -3.7856    2.9484 C   0  0  0  0  0  0  0  0  0  0  0  0
    0.6638   -3.9934    3.7344 O   0  0  0  0  0  0  0  0  0  0  0  0
   -1.8109   -1.7933    2.5614 C   0  0  0  0  0  0  0  0  0  0  0  0
   -0.5174   -0.5268    2.7738 S   0  0  0  0  0  0  0  0  0  0  0  0
   -0.6469   -2.6482    5.2220 H   0  0  0  0  0  0  0  0  0  0  0  0
   -2.3792   -3.7753    3.1701 H   0  0  0  0  0  0  0  0  0  0  0  0
   -1.8859   -2.0084    1.4904 H   0  0  0  0  0  0  0  0  0  0  0  0
   -2.7608   -1.3478    2.8761 H   0  0  0  0  0  0  0  0  0  0  0  0
   -0.2465   -4.1336    1.6051 N   0  0  0  0  0  0  0  0  0  0  0  0
    0.8777   -4.7908    0.9805 C   0  0  0  0  0  0  0  0  0  0  0  0
   -1.0708   -3.9622    1.0370 H   0  0  0  0  0  0  0  0  0  0  0  0
    1.5474   -4.0360    0.5427 H   0  0  0  0  0  0  0  0  0  0  0  0
    1.4263   -5.3744    1.7344 H   0  0  0  0  0  0  0  0  0  0  0  0
    0.5156   -5.4630    0.1886 H   0  0  0  0  0  0  0  0  0  0  0  0
   -6.7256    2.0330   -0.2766 C   0  0  0  0  0  0  0  0  0  0  0  0
   -7.1824    1.1039   -0.9322 O   0  0  0  0  0  0  0  0  0  0  0  0
   -7.5276    2.6077    0.8435 C   0  0  0  0  0  0  0  0  0  0  0  0
   -8.1775    3.4344    0.5145 H   0  0  0  0  0  0  0  0  0  0  0  0
   -8.2057    1.8676    1.2980 H   0  0  0  0  0  0  0  0  0  0  0  0
   -6.9411    3.0162    1.6819 H   0  0  0  0  0  0  0  0  0  0  0  0
   -5.4935    2.6382   -0.4627 N   0  0  0  0  0  0  0  0  0  0  0  0
   -4.5619    2.2388   -1.4845 C   0  0  2  0  0  0  0  0  0  0  0  0
   -3.1535    2.4674   -0.9521 C   0  0  0  0  0  0  0  0  0  0  0  0
   -2.8634    3.3945   -0.1987 O   0  0  0  0  0  0  0  0  0  0  0  0
   -4.7883    3.0138   -2.7732 C   0  0  0  0  0  0  0  0  0  0  0  0
   -5.2337    3.4049    0.1551 H   0  0  0  0  0  0  0  0  0  0  0  0
   -4.7192    1.1682   -1.6549 H   0  0  0  0  0  0  0  0  0  0  0  0
   -4.6352    4.0886   -2.6221 H   0  0  0  0  0  0  0  0  0  0  0  0
   -4.0976    2.6887   -3.5582 H   0  0  0  0  0  0  0  0  0  0  0  0
   -5.8111    2.8719   -3.1387 H   0  0  0  0  0  0  0  0  0  0  0  0
   -2.2466    1.5400   -1.4507 N   0  0  0  0  0  0  0  0  0  0  0  0
   -0.8424    1.5707   -1.1286 C   0  0  2  0  0  0  0  0  0  0  0  0
   -0.0367    1.3583   -2.4085 C   0  0  0  0  0  0  0  0  0  0  0  0
    0.9378    0.6114   -2.4702 O   0  0  0  0  0  0  0  0  0  0  0  0
   -0.4791    0.5881   -0.0126 C   0  0  0  0  0  0  0  0  0  0  0  0
   -1.2331    0.9859    1.5830 S   0  0  0  0  0  0  0  0  0  0  0  0
   -2.5850    0.7815   -2.0381 H   0  0  0  0  0  0  0  0  0  0  0  0
   -0.6429    2.5907   -0.7772 H   0  0  0  0  0  0  0  0  0  0  0  0
   -0.7908   -0.4273   -0.2780 H   0  0  0  0  0  0  0  0  0  0  0  0
    0.6065    0.5731    0.1325 H   0  0  0  0  0  0  0  0  0  0  0  0
   -0.5186    2.1189   -3.4644 N   0  0  0  0  0  0  0  0  0  0  0  0
    0.0912    2.1091   -4.7736 C   0  0  2  0  0  0  0  0  0  0  0  0
   -0.0846    3.4930   -5.3846 C   0  0  0  0  0  0  0  0  0  0  0  0
   -1.0743    4.1941   -5.1841 O   0  0  0  0  0  0  0  0  0  0  0  0
   -0.5247    1.0401   -5.6628 C   0  0  0  0  0  0  0  0  0  0  0  0
   -1.3573    2.6773   -3.3364 H   0  0  0  0  0  0  0  0  0  0  0  0
    1.1576    1.9079   -4.6243 H   0  0  0  0  0  0  0  0  0  0  0  0
   -1.5930    1.2249   -5.8238 H   0  0  0  0  0  0  0  0  0  0  0  0
   -0.0419    1.0149   -6.6454 H   0  0  0  0  0  0  0  0  0  0  0  0
   -0.4237    0.0489   -5.2077 H   0  0  0  0  0  0  0  0  0  0  0  0
    0.9738    3.8354   -6.2145 N   0  0  0  0  0  0  0  0  0  0  0  0
    1.0208    5.0806   -6.9447 C   0  0  0  0  0  0  0  0  0  0  0  0
    1.7713    3.2109   -6.2907 H   0  0  0  0  0  0  0  0  0  0  0  0
    0.5926    4.9347   -7.9474 H   0  0  0  0  0  0  0  0  0  0  0  0
    0.4403    5.8437   -6.4057 H   0  0  0  0  0  0  0  0  0  0  0  0
    2.0656    5.4121   -7.0371 H   0  0  0  0  0  0  0  0  0  0  0  0
  1  3  1  0  0  0  0
  1  7  1  0  0  0  0
  1  2  2  0  0  0  0
 23 25  1  0  0  0  0
 23 29  1  0  0  0  0
 23 24  2  0  0  0  0
 50 51  1  0  0  0  0
 51 59  1  0  0  0  0
 51 52  2  0  0  0  0
  8  9  1  0  0  0  0
  9 17  1  0  0  0  0
  9 10  2  0  0  0  0
 30 31  1  0  0  0  0
 31 39  1  0  0  0  0
 31 32  2  0  0  0  0
 40 41  1  0  0  0  0
 41 49  1  0  0  0  0
 41 42  2  0  0  0  0
 50 53  1  0  0  0  0
 30 33  1  0  0  0  0
 59 60  1  0  0  0  0
 17 18  1  0  0  0  0
  8 11  1  0  0  0  0
 11 12  1  0  0  0  0
 40 43  1  0  0  0  0
 43 44  1  0  0  0  0
 49 50  1  0  0  0  0
  7  8  1  0  0  0  0
 29 30  1  0  0  0  0
 39 40  1  0  0  0  0
 12 44  1  0  0  0  0
  3  4  1  0  0  0  0
  3  5  1  0  0  0  0
  3  6  1  0  0  0  0
 25 26  1  0  0  0  0
 25 27  1  0  0  0  0
 25 28  1  0  0  0  0
 53 56  1  0  0  0  0
 53 57  1  0  0  0  0
 53 58  1  0  0  0  0
 33 36  1  0  0  0  0
 33 37  1  0  0  0  0
 33 38  1  0  0  0  0
 60 62  1  0  0  0  0
 60 63  1  0  0  0  0
 60 64  1  0  0  0  0
 18 20  1  0  0  0  0
 18 21  1  0  0  0  0
 18 22  1  0  0  0  0
 11 15  1  0  0  0  0
 11 16  1  0  0  0  0
 43 47  1  0  0  0  0
 43 48  1  0  0  0  0
 50 55  1  0  0  0  0
  8 14  1  0  0  0  0
 30 35  1  0  0  0  0
 40 46  1  0  0  0  0
 59 61  1  0  0  0  0
 17 19  1  0  0  0  0
  7 13  1  0  0  0  0
 29 34  1  0  0  0  0
 49 54  1  0  0  0  0
 39 45  1  0  0  0  0
M  END
$$$$

  -OEChem-05262214473D

 64 63  0     1  0  0  0  0  0999 V2000
   -2.6733   -2.9072    5.5629 C   0  0  0  0  0  0  0  0  0  0  0  0
   -3.8128   -3.1425    5.1783 O   0  0  0  0  0  0  0  0  0  0  0  0
   -2.4246   -2.6454    7.0113 C   0  0  0  0  0  0  0  0  0  0  0  0
   -2.5069   -1.5765    7.2657 H   0  0  0  0  0  0  0  0  0  0  0  0
   -3.1525   -3.1564    7.6619 H   0  0  0  0  0  0  0  0  0  0  0  0
   -1.4353   -2.9565    7.3834 H   0  0  0  0  0  0  0  0  0  0  0  0
   -1.5370   -2.8550    4.7741 N   0  0  0  0  0  0  0  0  0  0  0  0
   -1.5511   -3.0788    3.3507 C   0  0  2  0  0  0  0  0  0  0  0  0
   -0.2583   -3.7856    2.9484 C   0  0  0  0  0  0  0  0  0  0  0  0
    0.6638   -3.9934    3.7344 O   0  0  0  0  0  0  0  0  0  0  0  0
   -1.8109   -1.7933    2.5614 C   0  0  0  0  0  0  0  0  0  0  0  0
   -0.5174   -0.5268    2.7738 S   0  0  0  0  0  0  0  0  0  0  0  0
   -0.6469   -2.6482    5.2220 H   0  0  0  0  0  0  0  0  0  0  0  0
   -2.3792   -3.7753    3.1701 H   0  0  0  0  0  0  0  0  0  0  0  0
   -1.8859   -2.0084    1.4904 H   0  0  0  0  0  0  0  0  0  0  0  0
   -2.7608   -1.3478    2.8761 H   0  0  0  0  0  0  0  0  0  0  0  0
   -0.2465   -4.1336    1.6051 N   0  0  0  0  0  0  0  0  0  0  0  0
    0.8777   -4.7908    0.9805 C   0  0  0  0  0  0  0  0  0  0  0  0
   -1.0708   -3.9622    1.0370 H   0  0  0  0  0  0  0  0  0  0  0  0
    1.5474   -4.0360    0.5427 H   0  0  0  0  0  0  0  0  0  0  0  0
    1.4263   -5.3744    1.7344 H   0  0  0  0  0  0  0  0  0  0  0  0
    0.5156   -5.4630    0.1886 H   0  0  0  0  0  0  0  0  0  0  0  0
   -6.7256    2.0330   -0.2766 C   0  0  0  0  0  0  0  0  0  0  0  0
   -7.1824    1.1039   -0.9322 O   0  0  0  0  0  0  0  0  0  0  0  0
   -7.5276    2.6077    0.8435 C   0  0  0  0  0  0  0  0  0  0  0  0
   -8.1775    3.4344    0.5145 H   0  0  0  0  0  0  0  0  0  0  0  0
   -8.2057    1.8676    1.2980 H   0  0  0  0  0  0  0  0  0  0  0  0
   -6.9411    3.0162    1.6819 H   0  0  0  0  0  0  0  0  0  0  0  0
   -5.4935    2.6382   -0.4627 N   0  0  0  0  0  0  0  0  0  0  0  0
   -4.5619    2.2388   -1.4845 C   0  0  2  0  0  0  0  0  0  0  0  0
   -3.1535    2.4674   -0.9521 C   0  0  0  0  0  0  0  0  0  0  0  0
   -2.8634    3.3945   -0.1987 O   0  0  0  0  0  0  0  0  0  0  0  0
   -4.7883    3.0138   -2.7732 C   0  0  0  0  0  0  0  0  0  0  0  0
   -5.2337    3.4049    0.1551 H   0  0  0  0  0  0  0  0  0  0  0  0
   -4.7192    1.1682   -1.6549 H   0  0  0  0  0  0  0  0  0  0  0  0
   -4.6352    4.0886   -2.6221 H   0  0  0  0  0  0  0  0  0  0  0  0
   -4.0976    2.6887   -3.5582 H   0  0  0  0  0  0  0  0  0  0  0  0
   -5.8111    2.8719   -3.1387 H   0  0  0  0  0  0  0  0  0  0  0  0
   -2.2466    1.5400   -1.4507 N   0  0  0  0  0  0  0  0  0  0  0  0
   -0.8424    1.5707   -1.1286 C   0  0  2  0  0  0  0  0  0  0  0  0
   -0.0367    1.3583   -2.4085 C   0  0  0  0  0  0  0  0  0  0  0  0
    0.7569    0.4307   -2.5541 O   0  0  0  0  0  0  0  0  0  0  0  0
   -0.4791    0.5881   -0.0126 C   0  0  0  0  0  0  0  0  0  0  0  0
   -1.2331    0.9859    1.5830 S   0  0  0  0  0  0  0  0  0  0  0  0
   -2.5850    0.7815   -2.0381 H   0  0  0  0  0  0  0  0  0  0  0  0
   -0.6429    2.5907   -0.7772 H   0  0  0  0  0  0  0  0  0  0  0  0
   -0.7908   -0.4273   -0.2780 H   0  0  0  0  0  0  0  0  0  0  0  0
    0.6065    0.5731    0.1325 H   0  0  0  0  0  0  0  0  0  0  0  0
   -0.2898    2.3392   -3.3569 N   0  0  0  0  0  0  0  0  0  0  0  0
    0.3697    2.3695   -4.6414 C   0  0  2  0  0  0  0  0  0  0  0  0
    0.5262    3.8268   -5.0555 C   0  0  0  0  0  0  0  0  0  0  0  0
   -0.2991    4.6949   -4.7792 O   0  0  0  0  0  0  0  0  0  0  0  0
   -0.4148    1.5893   -5.6847 C   0  0  0  0  0  0  0  0  0  0  0  0
   -0.9947    3.0460   -3.1693 H   0  0  0  0  0  0  0  0  0  0  0  0
    1.3592    1.9213   -4.4996 H   0  0  0  0  0  0  0  0  0  0  0  0
   -1.4090    2.0236   -5.8404 H   0  0  0  0  0  0  0  0  0  0  0  0
    0.1009    1.5892   -6.6507 H   0  0  0  0  0  0  0  0  0  0  0  0
   -0.5520    0.5487   -5.3714 H   0  0  0  0  0  0  0  0  0  0  0  0
    1.6744    4.0354   -5.8067 N   0  0  0  0  0  0  0  0  0  0  0  0
    2.0245    5.3256   -6.3536 C   0  0  0  0  0  0  0  0  0  0  0  0
    2.3222    3.2669   -5.9532 H   0  0  0  0  0  0  0  0  0  0  0  0
    1.6267    5.4114   -7.3755 H   0  0  0  0  0  0  0  0  0  0  0  0
    1.5943    6.1191   -5.7249 H   0  0  0  0  0  0  0  0  0  0  0  0
    3.1194    5.4290   -6.3765 H   0  0  0  0  0  0  0  0  0  0  0  0
  1  3  1  0  0  0  0
  1  7  1  0  0  0  0
  1  2  2  0  0  0  0
 23 25  1  0  0  0  0
 23 29  1  0  0  0  0
 23 24  2  0  0  0  0
 50 51  1  0  0  0  0
 51 59  1  0  0  0  0
 51 52  2  0  0  0  0
  8  9  1  0  0  0  0
  9 17  1  0  0  0  0
  9 10  2  0  0  0  0
 30 31  1  0  0  0  0
 31 39  1  0  0  0  0
 31 32  2  0  0  0  0
 40 41  1  0  0  0  0
 41 49  1  0  0  0  0
 41 42  2  0  0  0  0
 50 53  1  0  0  0  0
 30 33  1  0  0  0  0
 59 60  1  0  0  0  0
 17 18  1  0  0  0  0
  8 11  1  0  0  0  0
 11 12  1  0  0  0  0
 40 43  1  0  0  0  0
 43 44  1  0  0  0  0
 49 50  1  0  0  0  0
  7  8  1  0  0  0  0
 29 30  1  0  0  0  0
 39 40  1  0  0  0  0
 12 44  1  0  0  0  0
  3  4  1  0  0  0  0
  3  5  1  0  0  0  0
  3  6  1  0  0  0  0
 25 26  1  0  0  0  0
 25 27  1  0  0  0  0
 25 28  1  0  0  0  0
 53 56  1  0  0  0  0
 53 57  1  0  0  0  0
 53 58  1  0  0  0  0
 33 36  1  0  0  0  0
 33 37  1  0  0  0  0
 33 38  1  0  0  0  0
 60 62  1  0  0  0  0
 60 63  1  0  0  0  0
 60 64  1  0  0  0  0
 18 20  1  0  0  0  0
 18 21  1  0  0  0  0
 18 22  1  0  0  0  0
 11 15  1  0  0  0  0
 11 16  1  0  0  0  0
 43 47  1  0  0  0  0
 43 48  1  0  0  0  0
 50 55  1  0  0  0  0
  8 14  1  0  0  0  0
 30 35  1  0  0  0  0
 40 46  1  0  0  0  0
 59 61  1  0  0  0  0
 17 19  1  0  0  0  0
  7 13  1  0  0  0  0
 29 34  1  0  0  0  0
 49 54  1  0  0  0  0
 39 45  1  0  0  0  0
M  END
$$$$

  -OEChem-05262214473D

 64 63  0     1  0  0  0  0  0999 V2000
   -2.6733   -2.9072    5.5629 C   0  0  0  0  0  0  0  0  0  0  0  0
   -3.8128   -3.1425    5.1783 O   0  0  0  0  0  0  0  0  0  0  0  0
   -2.4246   -2.6454    7.0113 C   0  0  0  0  0  0  0  0  0  0  0  0
   -2.5069   -1.5765    7.2657 H   0  0  0  0  0  0  0  0  0  0  0  0
   -3.1525   -3.1564    7.6619 H   0  0  0  0  0  0  0  0  0  0  0  0
   -1.4353   -2.9565    7.3834 H   0  0  0  0  0  0  0  0  0  0  0  0
   -1.5370   -2.8550    4.7741 N   0  0  0  0  0  0  0  0  0  0  0  0
   -1.5511   -3.0788    3.3507 C   0  0  2  0  0  0  0  0  0  0  0  0
   -0.2583   -3.7856    2.9484 C   0  0  0  0  0  0  0  0  0  0  0  0
    0.6638   -3.9934    3.7344 O   0  0  0  0  0  0  0  0  0  0  0  0
   -1.8109   -1.7933    2.5614 C   0  0  0  0  0  0  0  0  0  0  0  0
   -0.5174   -0.5268    2.7738 S   0  0  0  0  0  0  0  0  0  0  0  0
   -0.6469   -2.6482    5.2220 H   0  0  0  0  0  0  0  0  0  0  0  0
   -2.3792   -3.7753    3.1701 H   0  0  0  0  0  0  0  0  0  0  0  0
   -1.8859   -2.0084    1.4904 H   0  0  0  0  0  0  0  0  0  0  0  0
   -2.7608   -1.3478    2.8761 H   0  0  0  0  0  0  0  0  0  0  0  0
   -0.2465   -4.1336    1.6051 N   0  0  0  0  0  0  0  0  0  0  0  0
    0.8777   -4.7908    0.9805 C   0  0  0  0  0  0  0  0  0  0  0  0
   -1.0708   -3.9622    1.0370 H   0  0  0  0  0  0  0  0  0  0  0  0
    1.5474   -4.0360    0.5427 H   0  0  0  0  0  0  0  0  0  0  0  0
    1.4263   -5.3744    1.7344 H   0  0  0  0  0  0  0  0  0  0  0  0
    0.5156   -5.4630    0.1886 H   0  0  0  0  0  0  0  0  0  0  0  0
   -6.7256    2.0330   -0.2766 C   0  0  0  0  0  0  0  0  0  0  0  0
   -7.1824    1.1039   -0.9322 O   0  0  0  0  0  0  0  0  0  0  0  0
   -7.5276    2.6077    0.8435 C   0  0  0  0  0  0  0  0  0  0  0  0
   -8.1775    3.4344    0.5145 H   0  0  0  0  0  0  0  0  0  0  0  0
   -8.2057    1.8676    1.2980 H   0  0  0  0  0  0  0  0  0  0  0  0
   -6.9411    3.0162    1.6819 H   0  0  0  0  0  0  0  0  0  0  0  0
   -5.4935    2.6382   -0.4627 N   0  0  0  0  0  0  0  0  0  0  0  0
   -4.5619    2.2388   -1.4845 C   0  0  2  0  0  0  0  0  0  0  0  0
   -3.1535    2.4674   -0.9521 C   0  0  0  0  0  0  0  0  0  0  0  0
   -2.8634    3.3945   -0.1987 O   0  0  0  0  0  0  0  0  0  0  0  0
   -4.7883    3.0138   -2.7732 C   0  0  0  0  0  0  0  0  0  0  0  0
   -5.2337    3.4049    0.1551 H   0  0  0  0  0  0  0  0  0  0  0  0
   -4.7192    1.1682   -1.6549 H   0  0  0  0  0  0  0  0  0  0  0  0
   -4.6352    4.0886   -2.6221 H   0  0  0  0  0  0  0  0  0  0  0  0
   -4.0976    2.6887   -3.5582 H   0  0  0  0  0  0  0  0  0  0  0  0
   -5.8111    2.8719   -3.1387 H   0  0  0  0  0  0  0  0  0  0  0  0
   -2.2466    1.5400   -1.4507 N   0  0  0  0  0  0  0  0  0  0  0  0
   -0.8424    1.5707   -1.1286 C   0  0  2  0  0  0  0  0  0  0  0  0
   -0.0367    1.3583   -2.4085 C   0  0  0  0  0  0  0  0  0  0  0  0
    0.5459    0.3069   -2.6664 O   0  0  0  0  0  0  0  0  0  0  0  0
   -0.4791    0.5881   -0.0126 C   0  0  0  0  0  0  0  0  0  0  0  0
   -1.2331    0.9859    1.5830 S   0  0  0  0  0  0  0  0  0  0  0  0
   -2.5850    0.7815   -2.0381 H   0  0  0  0  0  0  0  0  0  0  0  0
   -0.6429    2.5907   -0.7772 H   0  0  0  0  0  0  0  0  0  0  0  0
   -0.7908   -0.4273   -0.2780 H   0  0  0  0  0  0  0  0  0  0  0  0
    0.6065    0.5731    0.1325 H   0  0  0  0  0  0  0  0  0  0  0  0
   -0.0248    2.4877   -3.2148 N   0  0  0  0  0  0  0  0  0  0  0  0
    0.6905    2.5426   -4.4682 C   0  0  2  0  0  0  0  0  0  0  0  0
    1.1768    3.9717   -4.6700 C   0  0  0  0  0  0  0  0  0  0  0  0
    0.5438    4.9553   -4.2919 O   0  0  0  0  0  0  0  0  0  0  0  0
   -0.1887    2.0988   -5.6270 C   0  0  0  0  0  0  0  0  0  0  0  0
   -0.5704    3.3007   -2.9445 H   0  0  0  0  0  0  0  0  0  0  0  0
    1.5523    1.8734   -4.3701 H   0  0  0  0  0  0  0  0  0  0  0  0
   -1.0574    2.7575   -5.7409 H   0  0  0  0  0  0  0  0  0  0  0  0
    0.3636    2.1137   -6.5724 H   0  0  0  0  0  0  0  0  0  0  0  0
   -0.5617    1.0816   -5.4659 H   0  0  0  0  0  0  0  0  0  0  0  0
    2.3798    4.0211   -5.3603 N   0  0  0  0  0  0  0  0  0  0  0  0
    3.0258    5.2638   -5.7130 C   0  0  0  0  0  0  0  0  0  0  0  0
    2.8544    3.1555   -5.5997 H   0  0  0  0  0  0  0  0  0  0  0  0
    2.7084    5.5695   -6.7208 H   0  0  0  0  0  0  0  0  0  0  0  0
    2.7443    6.0418   -4.9882 H   0  0  0  0  0  0  0  0  0  0  0  0
    4.1171    5.1266   -5.6983 H   0  0  0  0  0  0  0  0  0  0  0  0
  1  3  1  0  0  0  0
  1  7  1  0  0  0  0
  1  2  2  0  0  0  0
 23 25  1  0  0  0  0
 23 29  1  0  0  0  0
 23 24  2  0  0  0  0
 50 51  1  0  0  0  0
 51 59  1  0  0  0  0
 51 52  2  0  0  0  0
  8  9  1  0  0  0  0
  9 17  1  0  0  0  0
  9 10  2  0  0  0  0
 30 31  1  0  0  0  0
 31 39  1  0  0  0  0
 31 32  2  0  0  0  0
 40 41  1  0  0  0  0
 41 49  1  0  0  0  0
 41 42  2  0  0  0  0
 50 53  1  0  0  0  0
 30 33  1  0  0  0  0
 59 60  1  0  0  0  0
 17 18  1  0  0  0  0
  8 11  1  0  0  0  0
 11 12  1  0  0  0  0
 40 43  1  0  0  0  0
 43 44  1  0  0  0  0
 49 50  1  0  0  0  0
  7  8  1  0  0  0  0
 29 30  1  0  0  0  0
 39 40  1  0  0  0  0
 12 44  1  0  0  0  0
  3  4  1  0  0  0  0
  3  5  1  0  0  0  0
  3  6  1  0  0  0  0
 25 26  1  0  0  0  0
 25 27  1  0  0  0  0
 25 28  1  0  0  0  0
 53 56  1  0  0  0  0
 53 57  1  0  0  0  0
 53 58  1  0  0  0  0
 33 36  1  0  0  0  0
 33 37  1  0  0  0  0
 33 38  1  0  0  0  0
 60 62  1  0  0  0  0
 60 63  1  0  0  0  0
 60 64  1  0  0  0  0
 18 20  1  0  0  0  0
 18 21  1  0  0  0  0
 18 22  1  0  0  0  0
 11 15  1  0  0  0  0
 11 16  1  0  0  0  0
 43 47  1  0  0  0  0
 43 48  1  0  0  0  0
 50 55  1  0  0  0  0
  8 14  1  0  0  0  0
 30 35  1  0  0  0  0
 40 46  1  0  0  0  0
 59 61  1  0  0  0  0
 17 19  1  0  0  0  0
  7 13  1  0  0  0  0
 29 34  1  0  0  0  0
 49 54  1  0  0  0  0
 39 45  1  0  0  0  0
M  END
$$$$

  -OEChem-05262214473D

 64 63  0     1  0  0  0  0  0999 V2000
   -2.6733   -2.9072    5.5629 C   0  0  0  0  0  0  0  0  0  0  0  0
   -3.8128   -3.1425    5.1783 O   0  0  0  0  0  0  0  0  0  0  0  0
   -2.4246   -2.6454    7.0113 C   0  0  0  0  0  0  0  0  0  0  0  0
   -2.5069   -1.5765    7.2657 H   0  0  0  0  0  0  0  0  0  0  0  0
   -3.1525   -3.1564    7.6619 H   0  0  0  0  0  0  0  0  0  0  0  0
   -1.4353   -2.9565    7.3834 H   0  0  0  0  0  0  0  0  0  0  0  0
   -1.5370   -2.8550    4.7741 N   0  0  0  0  0  0  0  0  0  0  0  0
   -1.5511   -3.0788    3.3507 C   0  0  2  0  0  0  0  0  0  0  0  0
   -0.2583   -3.7856    2.9484 C   0  0  0  0  0  0  0  0  0  0  0  0
    0.6638   -3.9934    3.7344 O   0  0  0  0  0  0  0  0  0  0  0  0
   -1.8109   -1.7933    2.5614 C   0  0  0  0  0  0  0  0  0  0  0  0
   -0.5174   -0.5268    2.7738 S   0  0  0  0  0  0  0  0  0  0  0  0
   -0.6469   -2.6482    5.2220 H   0  0  0  0  0  0  0  0  0  0  0  0
   -2.3792   -3.7753    3.1701 H   0  0  0  0  0  0  0  0  0  0  0  0
   -1.8859   -2.0084    1.4904 H   0  0  0  0  0  0  0  0  0  0  0  0
   -2.7608   -1.3478    2.8761 H   0  0  0  0  0  0  0  0  0  0  0  0
   -0.2465   -4.1336    1.6051 N   0  0  0  0  0  0  0  0  0  0  0  0
    0.8777   -4.7908    0.9805 C   0  0  0  0  0  0  0  0  0  0  0  0
   -1.0708   -3.9622    1.0370 H   0  0  0  0  0  0  0  0  0  0  0  0
    1.5474   -4.0360    0.5427 H   0  0  0  0  0  0  0  0  0  0  0  0
    1.4263   -5.3744    1.7344 H   0  0  0  0  0  0  0  0  0  0  0  0
    0.5156   -5.4630    0.1886 H   0  0  0  0  0  0  0  0  0  0  0  0
   -6.7256    2.0330   -0.2766 C   0  0  0  0  0  0  0  0  0  0  0  0
   -7.1824    1.1039   -0.9322 O   0  0  0  0  0  0  0  0  0  0  0  0
   -7.5276    2.6077    0.8435 C   0  0  0  0  0  0  0  0  0  0  0  0
   -8.1775    3.4344    0.5145 H   0  0  0  0  0  0  0  0  0  0  0  0
   -8.2057    1.8676    1.2980 H   0  0  0  0  0  0  0  0  0  0  0  0
   -6.9411    3.0162    1.6819 H   0  0  0  0  0  0  0  0  0  0  0  0
   -5.4935    2.6382   -0.4627 N   0  0  0  0  0  0  0  0  0  0  0  0
   -4.5619    2.2388   -1.4845 C   0  0  2  0  0  0  0  0  0  0  0  0
   -3.1535    2.4674   -0.9521 C   0  0  0  0  0  0  0  0  0  0  0  0
   -2.8634    3.3945   -0.1987 O   0  0  0  0  0  0  0  0  0  0  0  0
   -4.7883    3.0138   -2.7732 C   0  0  0  0  0  0  0  0  0  0  0  0
   -5.2337    3.4049    0.1551 H   0  0  0  0  0  0  0  0  0  0  0  0
   -4.7192    1.1682   -1.6549 H   0  0  0  0  0  0  0  0  0  0  0  0
   -4.6352    4.0886   -2.6221 H   0  0  0  0  0  0  0  0  0  0  0  0
   -4.0976    2.6887   -3.5582 H   0  0  0  0  0  0  0  0  0  0  0  0
   -5.8111    2.8719   -3.1387 H   0  0  0  0  0  0  0  0  0  0  0  0
   -2.2466    1.5400   -1.4507 N   0  0  0  0  0  0  0  0  0  0  0  0
   -0.8424    1.5707   -1.1286 C   0  0  2  0  0  0  0  0  0  0  0  0
   -0.0367    1.3583   -2.4085 C   0  0  0  0  0  0  0  0  0  0  0  0
    0.3193    0.2484   -2.7993 O   0  0  0  0  0  0  0  0  0  0  0  0
   -0.4791    0.5881   -0.0126 C   0  0  0  0  0  0  0  0  0  0  0  0
   -1.2331    0.9859    1.5830 S   0  0  0  0  0  0  0  0  0  0  0  0
   -2.5850    0.7815   -2.0381 H   0  0  0  0  0  0  0  0  0  0  0  0
   -0.6429    2.5907   -0.7772 H   0  0  0  0  0  0  0  0  0  0  0  0
   -0.7908   -0.4273   -0.2780 H   0  0  0  0  0  0  0  0  0  0  0  0
    0.6065    0.5731    0.1325 H   0  0  0  0  0  0  0  0  0  0  0  0
    0.2582    2.5542   -3.0476 N   0  0  0  0  0  0  0  0  0  0  0  0
    1.0317    2.6165   -4.2657 C   0  0  2  0  0  0  0  0  0  0  0  0
    1.8227    3.9179   -4.2545 C   0  0  0  0  0  0  0  0  0  0  0  0
    1.3969    4.9574   -3.7552 O   0  0  0  0  0  0  0  0  0  0  0  0
    0.1381    2.5341   -5.4935 C   0  0  0  0  0  0  0  0  0  0  0  0
   -0.1135    3.4239   -2.6773 H   0  0  0  0  0  0  0  0  0  0  0  0
    1.7238    1.7676   -4.2446 H   0  0  0  0  0  0  0  0  0  0  0  0
   -0.5622    3.3764   -5.5318 H   0  0  0  0  0  0  0  0  0  0  0  0
    0.7283    2.5527   -6.4156 H   0  0  0  0  0  0  0  0  0  0  0  0
   -0.4520    1.6114   -5.4848 H   0  0  0  0  0  0  0  0  0  0  0  0
    3.0420    3.7932   -4.9056 N   0  0  0  0  0  0  0  0  0  0  0  0
    3.9566    4.8994   -5.0666 C   0  0  0  0  0  0  0  0  0  0  0  0
    3.3316    2.8842   -5.2543 H   0  0  0  0  0  0  0  0  0  0  0  0
    3.7639    5.3982   -6.0279 H   0  0  0  0  0  0  0  0  0  0  0  0
    3.8117    5.6172   -4.2457 H   0  0  0  0  0  0  0  0  0  0  0  0
    4.9909    4.5254   -5.0485 H   0  0  0  0  0  0  0  0  0  0  0  0
  1  3  1  0  0  0  0
  1  7  1  0  0  0  0
  1  2  2  0  0  0  0
 23 25  1  0  0  0  0
 23 29  1  0  0  0  0
 23 24  2  0  0  0  0
 50 51  1  0  0  0  0
 51 59  1  0  0  0  0
 51 52  2  0  0  0  0
  8  9  1  0  0  0  0
  9 17  1  0  0  0  0
  9 10  2  0  0  0  0
 30 31  1  0  0  0  0
 31 39  1  0  0  0  0
 31 32  2  0  0  0  0
 40 41  1  0  0  0  0
 41 49  1  0  0  0  0
 41 42  2  0  0  0  0
 50 53  1  0  0  0  0
 30 33  1  0  0  0  0
 59 60  1  0  0  0  0
 17 18  1  0  0  0  0
  8 11  1  0  0  0  0
 11 12  1  0  0  0  0
 40 43  1  0  0  0  0
 43 44  1  0  0  0  0
 49 50  1  0  0  0  0
  7  8  1  0  0  0  0
 29 30  1  0  0  0  0
 39 40  1  0  0  0  0
 12 44  1  0  0  0  0
  3  4  1  0  0  0  0
  3  5  1  0  0  0  0
  3  6  1  0  0  0  0
 25 26  1  0  0  0  0
 25 27  1  0  0  0  0
 25 28  1  0  0  0  0
 53 56  1  0  0  0  0
 53 57  1  0  0  0  0
 53 58  1  0  0  0  0
 33 36  1  0  0  0  0
 33 37  1  0  0  0  0
 33 38  1  0  0  0  0
 60 62  1  0  0  0  0
 60 63  1  0  0  0  0
 60 64  1  0  0  0  0
 18 20  1  0  0  0  0
 18 21  1  0  0  0  0
 18 22  1  0  0  0  0
 11 15  1  0  0  0  0
 11 16  1  0  0  0  0
 43 47  1  0  0  0  0
 43 48  1  0  0  0  0
 50 55  1  0  0  0  0
  8 14  1  0  0  0  0
 30 35  1  0  0  0  0
 40 46  1  0  0  0  0
 59 61  1  0  0  0  0
 17 19  1  0  0  0  0
  7 13  1  0  0  0  0
 29 34  1  0  0  0  0
 49 54  1  0  0  0  0
 39 45  1  0  0  0  0
M  END
$$$$

  -OEChem-05262214473D

 64 63  0     1  0  0  0  0  0999 V2000
   -2.6733   -2.9072    5.5629 C   0  0  0  0  0  0  0  0  0  0  0  0
   -3.8128   -3.1425    5.1783 O   0  0  0  0  0  0  0  0  0  0  0  0
   -2.4246   -2.6454    7.0113 C   0  0  0  0  0  0  0  0  0  0  0  0
   -2.5069   -1.5765    7.2657 H   0  0  0  0  0  0  0  0  0  0  0  0
   -3.1525   -3.1564    7.6619 H   0  0  0  0  0  0  0  0  0  0  0  0
   -1.4353   -2.9565    7.3834 H   0  0  0  0  0  0  0  0  0  0  0  0
   -1.5370   -2.8550    4.7741 N   0  0  0  0  0  0  0  0  0  0  0  0
   -1.5511   -3.0788    3.3507 C   0  0  2  0  0  0  0  0  0  0  0  0
   -0.2583   -3.7856    2.9484 C   0  0  0  0  0  0  0  0  0  0  0  0
    0.6638   -3.9934    3.7344 O   0  0  0  0  0  0  0  0  0  0  0  0
   -1.8109   -1.7933    2.5614 C   0  0  0  0  0  0  0  0  0  0  0  0
   -0.5174   -0.5268    2.7738 S   0  0  0  0  0  0  0  0  0  0  0  0
   -0.6469   -2.6482    5.2220 H   0  0  0  0  0  0  0  0  0  0  0  0
   -2.3792   -3.7753    3.1701 H   0  0  0  0  0  0  0  0  0  0  0  0
   -1.8859   -2.0084    1.4904 H   0  0  0  0  0  0  0  0  0  0  0  0
   -2.7608   -1.3478    2.8761 H   0  0  0  0  0  0  0  0  0  0  0  0
   -0.2465   -4.1336    1.6051 N   0  0  0  0  0  0  0  0  0  0  0  0
    0.8777   -4.7908    0.9805 C   0  0  0  0  0  0  0  0  0  0  0  0
   -1.0708   -3.9622    1.0370 H   0  0  0  0  0  0  0  0  0  0  0  0
    1.5474   -4.0360    0.5427 H   0  0  0  0  0  0  0  0  0  0  0  0
    1.4263   -5.3744    1.7344 H   0  0  0  0  0  0  0  0  0  0  0  0
    0.5156   -5.4630    0.1886 H   0  0  0  0  0  0  0  0  0  0  0  0
   -6.7256    2.0330   -0.2766 C   0  0  0  0  0  0  0  0  0  0  0  0
   -7.1824    1.1039   -0.9322 O   0  0  0  0  0  0  0  0  0  0  0  0
   -7.5276    2.6077    0.8435 C   0  0  0  0  0  0  0  0  0  0  0  0
   -8.1775    3.4344    0.5145 H   0  0  0  0  0  0  0  0  0  0  0  0
   -8.2057    1.8676    1.2980 H   0  0  0  0  0  0  0  0  0  0  0  0
   -6.9411    3.0162    1.6819 H   0  0  0  0  0  0  0  0  0  0  0  0
   -5.4935    2.6382   -0.4627 N   0  0  0  0  0  0  0  0  0  0  0  0
   -4.5619    2.2388   -1.4845 C   0  0  2  0  0  0  0  0  0  0  0  0
   -3.1535    2.4674   -0.9521 C   0  0  0  0  0  0  0  0  0  0  0  0
   -2.8634    3.3945   -0.1987 O   0  0  0  0  0  0  0  0  0  0  0  0
   -4.7883    3.0138   -2.7732 C   0  0  0  0  0  0  0  0  0  0  0  0
   -5.2337    3.4049    0.1551 H   0  0  0  0  0  0  0  0  0  0  0  0
   -4.7192    1.1682   -1.6549 H   0  0  0  0  0  0  0  0  0  0  0  0
   -4.6352    4.0886   -2.6221 H   0  0  0  0  0  0  0  0  0  0  0  0
   -4.0976    2.6887   -3.5582 H   0  0  0  0  0  0  0  0  0  0  0  0
   -5.8111    2.8719   -3.1387 H   0  0  0  0  0  0  0  0  0  0  0  0
   -2.2466    1.5400   -1.4507 N   0  0  0  0  0  0  0  0  0  0  0  0
   -0.8424    1.5707   -1.1286 C   0  0  2  0  0  0  0  0  0  0  0  0
   -0.0367    1.3583   -2.4085 C   0  0  0  0  0  0  0  0  0  0  0  0
    0.0925    0.2592   -2.9439 O   0  0  0  0  0  0  0  0  0  0  0  0
   -0.4791    0.5881   -0.0126 C   0  0  0  0  0  0  0  0  0  0  0  0
   -1.2331    0.9859    1.5830 S   0  0  0  0  0  0  0  0  0  0  0  0
   -2.5850    0.7815   -2.0381 H   0  0  0  0  0  0  0  0  0  0  0  0
   -0.6429    2.5907   -0.7772 H   0  0  0  0  0  0  0  0  0  0  0  0
   -0.7908   -0.4273   -0.2780 H   0  0  0  0  0  0  0  0  0  0  0  0
    0.6065    0.5731    0.1325 H   0  0  0  0  0  0  0  0  0  0  0  0
    0.5400    2.5343   -2.8670 N   0  0  0  0  0  0  0  0  0  0  0  0
    1.3700    2.5863   -4.0477 C   0  0  2  0  0  0  0  0  0  0  0  0
    2.4200    3.6692   -3.8372 C   0  0  0  0  0  0  0  0  0  0  0  0
    2.2021    4.7011   -3.2058 O   0  0  0  0  0  0  0  0  0  0  0  0
    0.5434    2.8654   -5.2933 C   0  0  0  0  0  0  0  0  0  0  0  0
    0.3450    3.4074   -2.3859 H   0  0  0  0  0  0  0  0  0  0  0  0
    1.8620    1.6111   -4.1316 H   0  0  0  0  0  0  0  0  0  0  0  0
    0.0429    3.8384   -5.2276 H   0  0  0  0  0  0  0  0  0  0  0  0
    1.1701    2.8762   -6.1912 H   0  0  0  0  0  0  0  0  0  0  0  0
   -0.2305    2.1019   -5.4267 H   0  0  0  0  0  0  0  0  0  0  0  0
    3.6158    3.3675   -4.4738 N   0  0  0  0  0  0  0  0  0  0  0  0
    4.7533    4.2573   -4.4585 C   0  0  0  0  0  0  0  0  0  0  0  0
    3.7212    2.4715   -4.9406 H   0  0  0  0  0  0  0  0  0  0  0  0
    4.7214    4.9092   -5.3440 H   0  0  0  0  0  0  0  0  0  0  0  0
    4.7240    4.8741   -3.5481 H   0  0  0  0  0  0  0  0  0  0  0  0
    5.6811    3.6665   -4.4715 H   0  0  0  0  0  0  0  0  0  0  0  0
  1  3  1  0  0  0  0
  1  7  1  0  0  0  0
  1  2  2  0  0  0  0
 23 25  1  0  0  0  0
 23 29  1  0  0  0  0
 23 24  2  0  0  0  0
 50 51  1  0  0  0  0
 51 59  1  0  0  0  0
 51 52  2  0  0  0  0
  8  9  1  0  0  0  0
  9 17  1  0  0  0  0
  9 10  2  0  0  0  0
 30 31  1  0  0  0  0
 31 39  1  0  0  0  0
 31 32  2  0  0  0  0
 40 41  1  0  0  0  0
 41 49  1  0  0  0  0
 41 42  2  0  0  0  0
 50 53  1  0  0  0  0
 30 33  1  0  0  0  0
 59 60  1  0  0  0  0
 17 18  1  0  0  0  0
  8 11  1  0  0  0  0
 11 12  1  0  0  0  0
 40 43  1  0  0  0  0
 43 44  1  0  0  0  0
 49 50  1  0  0  0  0
  7  8  1  0  0  0  0
 29 30  1  0  0  0  0
 39 40  1  0  0  0  0
 12 44  1  0  0  0  0
  3  4  1  0  0  0  0
  3  5  1  0  0  0  0
  3  6  1  0  0  0  0
 25 26  1  0  0  0  0
 25 27  1  0  0  0  0
 25 28  1  0  0  0  0
 53 56  1  0  0  0  0
 53 57  1  0  0  0  0
 53 58  1  0  0  0  0
 33 36  1  0  0  0  0
 33 37  1  0  0  0  0
 33 38  1  0  0  0  0
 60 62  1  0  0  0  0
 60 63  1  0  0  0  0
 60 64  1  0  0  0  0
 18 20  1  0  0  0  0
 18 21  1  0  0  0  0
 18 22  1  0  0  0  0
 11 15  1  0  0  0  0
 11 16  1  0  0  0  0
 43 47  1  0  0  0  0
 43 48  1  0  0  0  0
 50 55  1  0  0  0  0
  8 14  1  0  0  0  0
 30 35  1  0  0  0  0
 40 46  1  0  0  0  0
 59 61  1  0  0  0  0
 17 19  1  0  0  0  0
  7 13  1  0  0  0  0
 29 34  1  0  0  0  0
 49 54  1  0  0  0  0
 39 45  1  0  0  0  0
M  END
$$$$

  -OEChem-05262214473D

 64 63  0     1  0  0  0  0  0999 V2000
   -2.6733   -2.9072    5.5629 C   0  0  0  0  0  0  0  0  0  0  0  0
   -3.8128   -3.1425    5.1783 O   0  0  0  0  0  0  0  0  0  0  0  0
   -2.4246   -2.6454    7.0113 C   0  0  0  0  0  0  0  0  0  0  0  0
   -2.5069   -1.5765    7.2657 H   0  0  0  0  0  0  0  0  0  0  0  0
   -3.1525   -3.1564    7.6619 H   0  0  0  0  0  0  0  0  0  0  0  0
   -1.4353   -2.9565    7.3834 H   0  0  0  0  0  0  0  0  0  0  0  0
   -1.5370   -2.8550    4.7741 N   0  0  0  0  0  0  0  0  0  0  0  0
   -1.5511   -3.0788    3.3507 C   0  0  2  0  0  0  0  0  0  0  0  0
   -0.2583   -3.7856    2.9484 C   0  0  0  0  0  0  0  0  0  0  0  0
    0.6638   -3.9934    3.7344 O   0  0  0  0  0  0  0  0  0  0  0  0
   -1.8109   -1.7933    2.5614 C   0  0  0  0  0  0  0  0  0  0  0  0
   -0.5174   -0.5268    2.7738 S   0  0  0  0  0  0  0  0  0  0  0  0
   -0.6469   -2.6482    5.2220 H   0  0  0  0  0  0  0  0  0  0  0  0
   -2.3792   -3.7753    3.1701 H   0  0  0  0  0  0  0  0  0  0  0  0
   -1.8859   -2.0084    1.4904 H   0  0  0  0  0  0  0  0  0  0  0  0
   -2.7608   -1.3478    2.8761 H   0  0  0  0  0  0  0  0  0  0  0  0
   -0.2465   -4.1336    1.6051 N   0  0  0  0  0  0  0  0  0  0  0  0
    0.8777   -4.7908    0.9805 C   0  0  0  0  0  0  0  0  0  0  0  0
   -1.0708   -3.9622    1.0370 H   0  0  0  0  0  0  0  0  0  0  0  0
    1.5474   -4.0360    0.5427 H   0  0  0  0  0  0  0  0  0  0  0  0
    1.4263   -5.3744    1.7344 H   0  0  0  0  0  0  0  0  0  0  0  0
    0.5156   -5.4630    0.1886 H   0  0  0  0  0  0  0  0  0  0  0  0
   -6.7256    2.0330   -0.2766 C   0  0  0  0  0  0  0  0  0  0  0  0
   -7.1824    1.1039   -0.9322 O   0  0  0  0  0  0  0  0  0  0  0  0
   -7.5276    2.6077    0.8435 C   0  0  0  0  0  0  0  0  0  0  0  0
   -8.1775    3.4344    0.5145 H   0  0  0  0  0  0  0  0  0  0  0  0
   -8.2057    1.8676    1.2980 H   0  0  0  0  0  0  0  0  0  0  0  0
   -6.9411    3.0162    1.6819 H   0  0  0  0  0  0  0  0  0  0  0  0
   -5.4935    2.6382   -0.4627 N   0  0  0  0  0  0  0  0  0  0  0  0
   -4.5619    2.2388   -1.4845 C   0  0  2  0  0  0  0  0  0  0  0  0
   -3.1535    2.4674   -0.9521 C   0  0  0  0  0  0  0  0  0  0  0  0
   -2.8634    3.3945   -0.1987 O   0  0  0  0  0  0  0  0  0  0  0  0
   -4.7883    3.0138   -2.7732 C   0  0  0  0  0  0  0  0  0  0  0  0
   -5.2337    3.4049    0.1551 H   0  0  0  0  0  0  0  0  0  0  0  0
   -4.7192    1.1682   -1.6549 H   0  0  0  0  0  0  0  0  0  0  0  0
   -4.6352    4.0886   -2.6221 H   0  0  0  0  0  0  0  0  0  0  0  0
   -4.0976    2.6887   -3.5582 H   0  0  0  0  0  0  0  0  0  0  0  0
   -5.8111    2.8719   -3.1387 H   0  0  0  0  0  0  0  0  0  0  0  0
   -2.2466    1.5400   -1.4507 N   0  0  0  0  0  0  0  0  0  0  0  0
   -0.8424    1.5707   -1.1286 C   0  0  2  0  0  0  0  0  0  0  0  0
   -0.0367    1.3583   -2.4085 C   0  0  0  0  0  0  0  0  0  0  0  0
   -0.1190    0.3385   -3.0902 O   0  0  0  0  0  0  0  0  0  0  0  0
   -0.4791    0.5881   -0.0126 C   0  0  0  0  0  0  0  0  0  0  0  0
   -1.2331    0.9859    1.5830 S   0  0  0  0  0  0  0  0  0  0  0  0
   -2.5850    0.7815   -2.0381 H   0  0  0  0  0  0  0  0  0  0  0  0
   -0.6429    2.5907   -0.7772 H   0  0  0  0  0  0  0  0  0  0  0  0
   -0.7908   -0.4273   -0.2780 H   0  0  0  0  0  0  0  0  0  0  0  0
    0.6065    0.5731    0.1325 H   0  0  0  0  0  0  0  0  0  0  0  0
    0.8013    2.4293   -2.6850 N   0  0  0  0  0  0  0  0  0  0  0  0
    1.6824    2.4539   -3.8291 C   0  0  2  0  0  0  0  0  0  0  0  0
    2.9280    3.2423   -3.4466 C   0  0  0  0  0  0  0  0  0  0  0  0
    2.9044    4.2039   -2.6812 O   0  0  0  0  0  0  0  0  0  0  0  0
    0.9996    3.0702   -5.0401 C   0  0  0  0  0  0  0  0  0  0  0  0
    0.7738    3.2522   -2.0903 H   0  0  0  0  0  0  0  0  0  0  0  0
    1.9575    1.4145   -4.0389 H   0  0  0  0  0  0  0  0  0  0  0  0
    0.7166    4.1118   -4.8488 H   0  0  0  0  0  0  0  0  0  0  0  0
    1.6590    3.0622   -5.9143 H   0  0  0  0  0  0  0  0  0  0  0  0
    0.0878    2.5197   -5.2957 H   0  0  0  0  0  0  0  0  0  0  0  0
    4.0622    2.7727   -4.0941 N   0  0  0  0  0  0  0  0  0  0  0  0
    5.3617    3.3813   -3.9302 C   0  0  0  0  0  0  0  0  0  0  0  0
    3.9967    1.9455   -4.6798 H   0  0  0  0  0  0  0  0  0  0  0  0
    5.5156    4.1357   -4.7158 H   0  0  0  0  0  0  0  0  0  0  0  0
    5.4189    3.8631   -2.9430 H   0  0  0  0  0  0  0  0  0  0  0  0
    6.1407    2.6084   -4.0066 H   0  0  0  0  0  0  0  0  0  0  0  0
  1  3  1  0  0  0  0
  1  7  1  0  0  0  0
  1  2  2  0  0  0  0
 23 25  1  0  0  0  0
 23 29  1  0  0  0  0
 23 24  2  0  0  0  0
 50 51  1  0  0  0  0
 51 59  1  0  0  0  0
 51 52  2  0  0  0  0
  8  9  1  0  0  0  0
  9 17  1  0  0  0  0
  9 10  2  0  0  0  0
 30 31  1  0  0  0  0
 31 39  1  0  0  0  0
 31 32  2  0  0  0  0
 40 41  1  0  0  0  0
 41 49  1  0  0  0  0
 41 42  2  0  0  0  0
 50 53  1  0  0  0  0
 30 33  1  0  0  0  0
 59 60  1  0  0  0  0
 17 18  1  0  0  0  0
  8 11  1  0  0  0  0
 11 12  1  0  0  0  0
 40 43  1  0  0  0  0
 43 44  1  0  0  0  0
 49 50  1  0  0  0  0
  7  8  1  0  0  0  0
 29 30  1  0  0  0  0
 39 40  1  0  0  0  0
 12 44  1  0  0  0  0
  3  4  1  0  0  0  0
  3  5  1  0  0  0  0
  3  6  1  0  0  0  0
 25 26  1  0  0  0  0
 25 27  1  0  0  0  0
 25 28  1  0  0  0  0
 53 56  1  0  0  0  0
 53 57  1  0  0  0  0
 53 58  1  0  0  0  0
 33 36  1  0  0  0  0
 33 37  1  0  0  0  0
 33 38  1  0  0  0  0
 60 62  1  0  0  0  0
 60 63  1  0  0  0  0
 60 64  1  0  0  0  0
 18 20  1  0  0  0  0
 18 21  1  0  0  0  0
 18 22  1  0  0  0  0
 11 15  1  0  0  0  0
 11 16  1  0  0  0  0
 43 47  1  0  0  0  0
 43 48  1  0  0  0  0
 50 55  1  0  0  0  0
  8 14  1  0  0  0  0
 30 35  1  0  0  0  0
 40 46  1  0  0  0  0
 59 61  1  0  0  0  0
 17 19  1  0  0  0  0
  7 13  1  0  0  0  0
 29 34  1  0  0  0  0
 49 54  1  0  0  0  0
 39 45  1  0  0  0  0
M  END
$$$$

  -OEChem-05262214473D

 64 63  0     1  0  0  0  0  0999 V2000
   -2.6733   -2.9072    5.5629 C   0  0  0  0  0  0  0  0  0  0  0  0
   -3.8128   -3.1425    5.1783 O   0  0  0  0  0  0  0  0  0  0  0  0
   -2.4246   -2.6454    7.0113 C   0  0  0  0  0  0  0  0  0  0  0  0
   -2.5069   -1.5765    7.2657 H   0  0  0  0  0  0  0  0  0  0  0  0
   -3.1525   -3.1564    7.6619 H   0  0  0  0  0  0  0  0  0  0  0  0
   -1.4353   -2.9565    7.3834 H   0  0  0  0  0  0  0  0  0  0  0  0
   -1.5370   -2.8550    4.7741 N   0  0  0  0  0  0  0  0  0  0  0  0
   -1.5511   -3.0788    3.3507 C   0  0  2  0  0  0  0  0  0  0  0  0
   -0.2583   -3.7856    2.9484 C   0  0  0  0  0  0  0  0  0  0  0  0
    0.6638   -3.9934    3.7344 O   0  0  0  0  0  0  0  0  0  0  0  0
   -1.8109   -1.7933    2.5614 C   0  0  0  0  0  0  0  0  0  0  0  0
   -0.5174   -0.5268    2.7738 S   0  0  0  0  0  0  0  0  0  0  0  0
   -0.6469   -2.6482    5.2220 H   0  0  0  0  0  0  0  0  0  0  0  0
   -2.3792   -3.7753    3.1701 H   0  0  0  0  0  0  0  0  0  0  0  0
   -1.8859   -2.0084    1.4904 H   0  0  0  0  0  0  0  0  0  0  0  0
   -2.7608   -1.3478    2.8761 H   0  0  0  0  0  0  0  0  0  0  0  0
   -0.2465   -4.1336    1.6051 N   0  0  0  0  0  0  0  0  0  0  0  0
    0.8777   -4.7908    0.9805 C   0  0  0  0  0  0  0  0  0  0  0  0
   -1.0708   -3.9622    1.0370 H   0  0  0  0  0  0  0  0  0  0  0  0
    1.5474   -4.0360    0.5427 H   0  0  0  0  0  0  0  0  0  0  0  0
    1.4263   -5.3744    1.7344 H   0  0  0  0  0  0  0  0  0  0  0  0
    0.5156   -5.4630    0.1886 H   0  0  0  0  0  0  0  0  0  0  0  0
   -6.7256    2.0330   -0.2766 C   0  0  0  0  0  0  0  0  0  0  0  0
   -7.1824    1.1039   -0.9322 O   0  0  0  0  0  0  0  0  0  0  0  0
   -7.5276    2.6077    0.8435 C   0  0  0  0  0  0  0  0  0  0  0  0
   -8.1775    3.4344    0.5145 H   0  0  0  0  0  0  0  0  0  0  0  0
   -8.2057    1.8676    1.2980 H   0  0  0  0  0  0  0  0  0  0  0  0
   -6.9411    3.0162    1.6819 H   0  0  0  0  0  0  0  0  0  0  0  0
   -5.4935    2.6382   -0.4627 N   0  0  0  0  0  0  0  0  0  0  0  0
   -4.5619    2.2388   -1.4845 C   0  0  2  0  0  0  0  0  0  0  0  0
   -3.1535    2.4674   -0.9521 C   0  0  0  0  0  0  0  0  0  0  0  0
   -2.8634    3.3945   -0.1987 O   0  0  0  0  0  0  0  0  0  0  0  0
   -4.7883    3.0138   -2.7732 C   0  0  0  0  0  0  0  0  0  0  0  0
   -5.2337    3.4049    0.1551 H   0  0  0  0  0  0  0  0  0  0  0  0
   -4.7192    1.1682   -1.6549 H   0  0  0  0  0  0  0  0  0  0  0  0
   -4.6352    4.0886   -2.6221 H   0  0  0  0  0  0  0  0  0  0  0  0
   -4.0976    2.6887   -3.5582 H   0  0  0  0  0  0  0  0  0  0  0  0
   -5.8111    2.8719   -3.1387 H   0  0  0  0  0  0  0  0  0  0  0  0
   -2.2466    1.5400   -1.4507 N   0  0  0  0  0  0  0  0  0  0  0  0
   -0.8424    1.5707   -1.1286 C   0  0  2  0  0  0  0  0  0  0  0  0
   -0.0367    1.3583   -2.4085 C   0  0  0  0  0  0  0  0  0  0  0  0
   -0.3008    0.4810   -3.2283 O   0  0  0  0  0  0  0  0  0  0  0  0
   -0.4791    0.5881   -0.0126 C   0  0  0  0  0  0  0  0  0  0  0  0
   -1.2331    0.9859    1.5830 S   0  0  0  0  0  0  0  0  0  0  0  0
   -2.5850    0.7815   -2.0381 H   0  0  0  0  0  0  0  0  0  0  0  0
   -0.6429    2.5907   -0.7772 H   0  0  0  0  0  0  0  0  0  0  0  0
   -0.7908   -0.4273   -0.2780 H   0  0  0  0  0  0  0  0  0  0  0  0
    0.6065    0.5731    0.1325 H   0  0  0  0  0  0  0  0  0  0  0  0
    1.0245    2.2463   -2.5142 N   0  0  0  0  0  0  0  0  0  0  0  0
    1.9475    2.2285   -3.6248 C   0  0  2  0  0  0  0  0  0  0  0  0
    3.3120    2.6665   -3.1093 C   0  0  0  0  0  0  0  0  0  0  0  0
    3.4561    3.4997   -2.2170 O   0  0  0  0  0  0  0  0  0  0  0  0
    1.4755    3.1346   -4.7512 C   0  0  0  0  0  0  0  0  0  0  0  0
    1.1437    2.9689   -1.8104 H   0  0  0  0  0  0  0  0  0  0  0  0
    2.0037    1.1912   -3.9727 H   0  0  0  0  0  0  0  0  0  0  0  0
    1.4130    4.1780   -4.4214 H   0  0  0  0  0  0  0  0  0  0  0  0
    2.1616    3.0980   -5.6038 H   0  0  0  0  0  0  0  0  0  0  0  0
    0.4811    2.8363   -5.1006 H   0  0  0  0  0  0  0  0  0  0  0  0
    4.3507    2.0496   -3.7925 N   0  0  0  0  0  0  0  0  0  0  0  0
    5.7404    2.3310   -3.5175 C   0  0  0  0  0  0  0  0  0  0  0  0
    4.1394    1.3420   -4.4899 H   0  0  0  0  0  0  0  0  0  0  0  0
    6.0924    3.1306   -4.1859 H   0  0  0  0  0  0  0  0  0  0  0  0
    5.8491    2.6533   -2.4714 H   0  0  0  0  0  0  0  0  0  0  0  0
    6.3384    1.4231   -3.6855 H   0  0  0  0  0  0  0  0  0  0  0  0
  1  3  1  0  0  0  0
  1  7  1  0  0  0  0
  1  2  2  0  0  0  0
 23 25  1  0  0  0  0
 23 29  1  0  0  0  0
 23 24  2  0  0  0  0
 50 51  1  0  0  0  0
 51 59  1  0  0  0  0
 51 52  2  0  0  0  0
  8  9  1  0  0  0  0
  9 17  1  0  0  0  0
  9 10  2  0  0  0  0
 30 31  1  0  0  0  0
 31 39  1  0  0  0  0
 31 32  2  0  0  0  0
 40 41  1  0  0  0  0
 41 49  1  0  0  0  0
 41 42  2  0  0  0  0
 50 53  1  0  0  0  0
 30 33  1  0  0  0  0
 59 60  1  0  0  0  0
 17 18  1  0  0  0  0
  8 11  1  0  0  0  0
 11 12  1  0  0  0  0
 40 43  1  0  0  0  0
 43 44  1  0  0  0  0
 49 50  1  0  0  0  0
  7  8  1  0  0  0  0
 29 30  1  0  0  0  0
 39 40  1  0  0  0  0
 12 44  1  0  0  0  0
  3  4  1  0  0  0  0
  3  5  1  0  0  0  0
  3  6  1  0  0  0  0
 25 26  1  0  0  0  0
 25 27  1  0  0  0  0
 25 28  1  0  0  0  0
 53 56  1  0  0  0  0
 53 57  1  0  0  0  0
 53 58  1  0  0  0  0
 33 36  1  0  0  0  0
 33 37  1  0  0  0  0
 33 38  1  0  0  0  0
 60 62  1  0  0  0  0
 60 63  1  0  0  0  0
 60 64  1  0  0  0  0
 18 20  1  0  0  0  0
 18 21  1  0  0  0  0
 18 22  1  0  0  0  0
 11 15  1  0  0  0  0
 11 16  1  0  0  0  0
 43 47  1  0  0  0  0
 43 48  1  0  0  0  0
 50 55  1  0  0  0  0
  8 14  1  0  0  0  0
 30 35  1  0  0  0  0
 40 46  1  0  0  0  0
 59 61  1  0  0  0  0
 17 19  1  0  0  0  0
  7 13  1  0  0  0  0
 29 34  1  0  0  0  0
 49 54  1  0  0  0  0
 39 45  1  0  0  0  0
M  END
$$$$

  -OEChem-05262214473D

 64 63  0     1  0  0  0  0  0999 V2000
   -2.6733   -2.9072    5.5629 C   0  0  0  0  0  0  0  0  0  0  0  0
   -3.8128   -3.1425    5.1783 O   0  0  0  0  0  0  0  0  0  0  0  0
   -2.4246   -2.6454    7.0113 C   0  0  0  0  0  0  0  0  0  0  0  0
   -2.5069   -1.5765    7.2657 H   0  0  0  0  0  0  0  0  0  0  0  0
   -3.1525   -3.1564    7.6619 H   0  0  0  0  0  0  0  0  0  0  0  0
   -1.4353   -2.9565    7.3834 H   0  0  0  0  0  0  0  0  0  0  0  0
   -1.5370   -2.8550    4.7741 N   0  0  0  0  0  0  0  0  0  0  0  0
   -1.5511   -3.0788    3.3507 C   0  0  2  0  0  0  0  0  0  0  0  0
   -0.2583   -3.7856    2.9484 C   0  0  0  0  0  0  0  0  0  0  0  0
    0.6638   -3.9934    3.7344 O   0  0  0  0  0  0  0  0  0  0  0  0
   -1.8109   -1.7933    2.5614 C   0  0  0  0  0  0  0  0  0  0  0  0
   -0.5174   -0.5268    2.7738 S   0  0  0  0  0  0  0  0  0  0  0  0
   -0.6469   -2.6482    5.2220 H   0  0  0  0  0  0  0  0  0  0  0  0
   -2.3792   -3.7753    3.1701 H   0  0  0  0  0  0  0  0  0  0  0  0
   -1.8859   -2.0084    1.4904 H   0  0  0  0  0  0  0  0  0  0  0  0
   -2.7608   -1.3478    2.8761 H   0  0  0  0  0  0  0  0  0  0  0  0
   -0.2465   -4.1336    1.6051 N   0  0  0  0  0  0  0  0  0  0  0  0
    0.8777   -4.7908    0.9805 C   0  0  0  0  0  0  0  0  0  0  0  0
   -1.0708   -3.9622    1.0370 H   0  0  0  0  0  0  0  0  0  0  0  0
    1.5474   -4.0360    0.5427 H   0  0  0  0  0  0  0  0  0  0  0  0
    1.4263   -5.3744    1.7344 H   0  0  0  0  0  0  0  0  0  0  0  0
    0.5156   -5.4630    0.1886 H   0  0  0  0  0  0  0  0  0  0  0  0
   -6.7256    2.0330   -0.2766 C   0  0  0  0  0  0  0  0  0  0  0  0
   -7.1824    1.1039   -0.9322 O   0  0  0  0  0  0  0  0  0  0  0  0
   -7.5276    2.6077    0.8435 C   0  0  0  0  0  0  0  0  0  0  0  0
   -8.1775    3.4344    0.5145 H   0  0  0  0  0  0  0  0  0  0  0  0
   -8.2057    1.8676    1.2980 H   0  0  0  0  0  0  0  0  0  0  0  0
   -6.9411    3.0162    1.6819 H   0  0  0  0  0  0  0  0  0  0  0  0
   -5.4935    2.6382   -0.4627 N   0  0  0  0  0  0  0  0  0  0  0  0
   -4.5619    2.2388   -1.4845 C   0  0  2  0  0  0  0  0  0  0  0  0
   -3.1535    2.4674   -0.9521 C   0  0  0  0  0  0  0  0  0  0  0  0
   -2.8634    3.3945   -0.1987 O   0  0  0  0  0  0  0  0  0  0  0  0
   -4.7883    3.0138   -2.7732 C   0  0  0  0  0  0  0  0  0  0  0  0
   -5.2337    3.4049    0.1551 H   0  0  0  0  0  0  0  0  0  0  0  0
   -4.7192    1.1682   -1.6549 H   0  0  0  0  0  0  0  0  0  0  0  0
   -4.6352    4.0886   -2.6221 H   0  0  0  0  0  0  0  0  0  0  0  0
   -4.0976    2.6887   -3.5582 H   0  0  0  0  0  0  0  0  0  0  0  0
   -5.8111    2.8719   -3.1387 H   0  0  0  0  0  0  0  0  0  0  0  0
   -2.2466    1.5400   -1.4507 N   0  0  0  0  0  0  0  0  0  0  0  0
   -0.8424    1.5707   -1.1286 C   0  0  2  0  0  0  0  0  0  0  0  0
   -0.0367    1.3583   -2.4085 C   0  0  0  0  0  0  0  0  0  0  0  0
   -0.4406    0.6770   -3.3488 O   0  0  0  0  0  0  0  0  0  0  0  0
   -0.4791    0.5881   -0.0126 C   0  0  0  0  0  0  0  0  0  0  0  0
   -1.2331    0.9859    1.5830 S   0  0  0  0  0  0  0  0  0  0  0  0
   -2.5850    0.7815   -2.0381 H   0  0  0  0  0  0  0  0  0  0  0  0
   -0.6429    2.5907   -0.7772 H   0  0  0  0  0  0  0  0  0  0  0  0
   -0.7908   -0.4273   -0.2780 H   0  0  0  0  0  0  0  0  0  0  0  0
    0.6065    0.5731    0.1325 H   0  0  0  0  0  0  0  0  0  0  0  0
    1.1941    1.9978   -2.3661 N   0  0  0  0  0  0  0  0  0  0  0  0
    2.1474    1.9253   -3.4487 C   0  0  2  0  0  0  0  0  0  0  0  0
    3.5459    1.9810   -2.8483 C   0  0  0  0  0  0  0  0  0  0  0  0
    3.8196    2.6364   -1.8450 O   0  0  0  0  0  0  0  0  0  0  0  0
    1.9387    3.0540   -4.4462 C   0  0  0  0  0  0  0  0  0  0  0  0
    1.4294    2.5768   -1.5655 H   0  0  0  0  0  0  0  0  0  0  0  0
    1.9976    0.9565   -3.9376 H   0  0  0  0  0  0  0  0  0  0  0  0
    2.0847    4.0326   -3.9745 H   0  0  0  0  0  0  0  0  0  0  0  0
    2.6436    2.9811   -5.2810 H   0  0  0  0  0  0  0  0  0  0  0  0
    0.9227    3.0302   -4.8548 H   0  0  0  0  0  0  0  0  0  0  0  0
    4.4617    1.2474   -3.5895 N   0  0  0  0  0  0  0  0  0  0  0  0
    5.8635    1.1780   -3.2487 C   0  0  0  0  0  0  0  0  0  0  0  0
    4.1395    0.7023   -4.3837 H   0  0  0  0  0  0  0  0  0  0  0  0
    6.4124    1.9623   -3.7906 H   0  0  0  0  0  0  0  0  0  0  0  0
    5.9852    1.3270   -2.1657 H   0  0  0  0  0  0  0  0  0  0  0  0
    6.2607    0.1915   -3.5301 H   0  0  0  0  0  0  0  0  0  0  0  0
  1  3  1  0  0  0  0
  1  7  1  0  0  0  0
  1  2  2  0  0  0  0
 23 25  1  0  0  0  0
 23 29  1  0  0  0  0
 23 24  2  0  0  0  0
 50 51  1  0  0  0  0
 51 59  1  0  0  0  0
 51 52  2  0  0  0  0
  8  9  1  0  0  0  0
  9 17  1  0  0  0  0
  9 10  2  0  0  0  0
 30 31  1  0  0  0  0
 31 39  1  0  0  0  0
 31 32  2  0  0  0  0
 40 41  1  0  0  0  0
 41 49  1  0  0  0  0
 41 42  2  0  0  0  0
 50 53  1  0  0  0  0
 30 33  1  0  0  0  0
 59 60  1  0  0  0  0
 17 18  1  0  0  0  0
  8 11  1  0  0  0  0
 11 12  1  0  0  0  0
 40 43  1  0  0  0  0
 43 44  1  0  0  0  0
 49 50  1  0  0  0  0
  7  8  1  0  0  0  0
 29 30  1  0  0  0  0
 39 40  1  0  0  0  0
 12 44  1  0  0  0  0
  3  4  1  0  0  0  0
  3  5  1  0  0  0  0
  3  6  1  0  0  0  0
 25 26  1  0  0  0  0
 25 27  1  0  0  0  0
 25 28  1  0  0  0  0
 53 56  1  0  0  0  0
 53 57  1  0  0  0  0
 53 58  1  0  0  0  0
 33 36  1  0  0  0  0
 33 37  1  0  0  0  0
 33 38  1  0  0  0  0
 60 62  1  0  0  0  0
 60 63  1  0  0  0  0
 60 64  1  0  0  0  0
 18 20  1  0  0  0  0
 18 21  1  0  0  0  0
 18 22  1  0  0  0  0
 11 15  1  0  0  0  0
 11 16  1  0  0  0  0
 43 47  1  0  0  0  0
 43 48  1  0  0  0  0
 50 55  1  0  0  0  0
  8 14  1  0  0  0  0
 30 35  1  0  0  0  0
 40 46  1  0  0  0  0
 59 61  1  0  0  0  0
 17 19  1  0  0  0  0
  7 13  1  0  0  0  0
 29 34  1  0  0  0  0
 49 54  1  0  0  0  0
 39 45  1  0  0  0  0
M  END
$$$$

  -OEChem-05262214473D

 64 63  0     1  0  0  0  0  0999 V2000
   -2.6733   -2.9072    5.5629 C   0  0  0  0  0  0  0  0  0  0  0  0
   -3.8128   -3.1425    5.1783 O   0  0  0  0  0  0  0  0  0  0  0  0
   -2.4246   -2.6454    7.0113 C   0  0  0  0  0  0  0  0  0  0  0  0
   -2.5069   -1.5765    7.2657 H   0  0  0  0  0  0  0  0  0  0  0  0
   -3.1525   -3.1564    7.6619 H   0  0  0  0  0  0  0  0  0  0  0  0
   -1.4353   -2.9565    7.3834 H   0  0  0  0  0  0  0  0  0  0  0  0
   -1.5370   -2.8550    4.7741 N   0  0  0  0  0  0  0  0  0  0  0  0
   -1.5511   -3.0788    3.3507 C   0  0  2  0  0  0  0  0  0  0  0  0
   -0.2583   -3.7856    2.9484 C   0  0  0  0  0  0  0  0  0  0  0  0
    0.6638   -3.9934    3.7344 O   0  0  0  0  0  0  0  0  0  0  0  0
   -1.8109   -1.7933    2.5614 C   0  0  0  0  0  0  0  0  0  0  0  0
   -0.5174   -0.5268    2.7738 S   0  0  0  0  0  0  0  0  0  0  0  0
   -0.6469   -2.6482    5.2220 H   0  0  0  0  0  0  0  0  0  0  0  0
   -2.3792   -3.7753    3.1701 H   0  0  0  0  0  0  0  0  0  0  0  0
   -1.8859   -2.0084    1.4904 H   0  0  0  0  0  0  0  0  0  0  0  0
   -2.7608   -1.3478    2.8761 H   0  0  0  0  0  0  0  0  0  0  0  0
   -0.2465   -4.1336    1.6051 N   0  0  0  0  0  0  0  0  0  0  0  0
    0.8777   -4.7908    0.9805 C   0  0  0  0  0  0  0  0  0  0  0  0
   -1.0708   -3.9622    1.0370 H   0  0  0  0  0  0  0  0  0  0  0  0
    1.5474   -4.0360    0.5427 H   0  0  0  0  0  0  0  0  0  0  0  0
    1.4263   -5.3744    1.7344 H   0  0  0  0  0  0  0  0  0  0  0  0
    0.5156   -5.4630    0.1886 H   0  0  0  0  0  0  0  0  0  0  0  0
   -6.7256    2.0330   -0.2766 C   0  0  0  0  0  0  0  0  0  0  0  0
   -7.1824    1.1039   -0.9322 O   0  0  0  0  0  0  0  0  0  0  0  0
   -7.5276    2.6077    0.8435 C   0  0  0  0  0  0  0  0  0  0  0  0
   -8.1775    3.4344    0.5145 H   0  0  0  0  0  0  0  0  0  0  0  0
   -8.2057    1.8676    1.2980 H   0  0  0  0  0  0  0  0  0  0  0  0
   -6.9411    3.0162    1.6819 H   0  0  0  0  0  0  0  0  0  0  0  0
   -5.4935    2.6382   -0.4627 N   0  0  0  0  0  0  0  0  0  0  0  0
   -4.5619    2.2388   -1.4845 C   0  0  2  0  0  0  0  0  0  0  0  0
   -3.1535    2.4674   -0.9521 C   0  0  0  0  0  0  0  0  0  0  0  0
   -2.8634    3.3945   -0.1987 O   0  0  0  0  0  0  0  0  0  0  0  0
   -4.7883    3.0138   -2.7732 C   0  0  0  0  0  0  0  0  0  0  0  0
   -5.2337    3.4049    0.1551 H   0  0  0  0  0  0  0  0  0  0  0  0
   -4.7192    1.1682   -1.6549 H   0  0  0  0  0  0  0  0  0  0  0  0
   -4.6352    4.0886   -2.6221 H   0  0  0  0  0  0  0  0  0  0  0  0
   -4.0976    2.6887   -3.5582 H   0  0  0  0  0  0  0  0  0  0  0  0
   -5.8111    2.8719   -3.1387 H   0  0  0  0  0  0  0  0  0  0  0  0
   -2.2466    1.5400   -1.4507 N   0  0  0  0  0  0  0  0  0  0  0  0
   -0.8424    1.5707   -1.1286 C   0  0  2  0  0  0  0  0  0  0  0  0
   -0.0367    1.3583   -2.4085 C   0  0  0  0  0  0  0  0  0  0  0  0
   -0.5287    0.9130   -3.4434 O   0  0  0  0  0  0  0  0  0  0  0  0
   -0.4791    0.5881   -0.0126 C   0  0  0  0  0  0  0  0  0  0  0  0
   -1.2331    0.9859    1.5830 S   0  0  0  0  0  0  0  0  0  0  0  0
   -2.5850    0.7815   -2.0381 H   0  0  0  0  0  0  0  0  0  0  0  0
   -0.6429    2.5907   -0.7772 H   0  0  0  0  0  0  0  0  0  0  0  0
   -0.7908   -0.4273   -0.2780 H   0  0  0  0  0  0  0  0  0  0  0  0
    0.6065    0.5731    0.1325 H   0  0  0  0  0  0  0  0  0  0  0  0
    1.2988    1.7007   -2.2510 N   0  0  0  0  0  0  0  0  0  0  0  0
    2.2683    1.5650   -3.3128 C   0  0  2  0  0  0  0  0  0  0  0  0
    3.6138    1.2324   -2.6814 C   0  0  0  0  0  0  0  0  0  0  0  0
    3.9700    1.6729   -1.5904 O   0  0  0  0  0  0  0  0  0  0  0  0
    2.3578    2.8341   -4.1460 C   0  0  0  0  0  0  0  0  0  0  0  0
    1.6116    2.1027   -1.3721 H   0  0  0  0  0  0  0  0  0  0  0  0
    1.9395    0.7263   -3.9360 H   0  0  0  0  0  0  0  0  0  0  0  0
    2.6858    3.6854   -3.5384 H   0  0  0  0  0  0  0  0  0  0  0  0
    3.0723    2.7196   -4.9677 H   0  0  0  0  0  0  0  0  0  0  0  0
    1.3825    3.0881   -4.5750 H   0  0  0  0  0  0  0  0  0  0  0  0
    4.3876    0.4207   -3.4990 N   0  0  0  0  0  0  0  0  0  0  0  0
    5.7226    0.0009   -3.1421 C   0  0  0  0  0  0  0  0  0  0  0  0
    3.9969    0.0698   -4.3685 H   0  0  0  0  0  0  0  0  0  0  0  0
    6.4538    0.7104   -3.5568 H   0  0  0  0  0  0  0  0  0  0  0  0
    5.8180   -0.0254   -2.0466 H   0  0  0  0  0  0  0  0  0  0  0  0
    5.9129   -1.0025   -3.5509 H   0  0  0  0  0  0  0  0  0  0  0  0
  1  3  1  0  0  0  0
  1  7  1  0  0  0  0
  1  2  2  0  0  0  0
 23 25  1  0  0  0  0
 23 29  1  0  0  0  0
 23 24  2  0  0  0  0
 50 51  1  0  0  0  0
 51 59  1  0  0  0  0
 51 52  2  0  0  0  0
  8  9  1  0  0  0  0
  9 17  1  0  0  0  0
  9 10  2  0  0  0  0
 30 31  1  0  0  0  0
 31 39  1  0  0  0  0
 31 32  2  0  0  0  0
 40 41  1  0  0  0  0
 41 49  1  0  0  0  0
 41 42  2  0  0  0  0
 50 53  1  0  0  0  0
 30 33  1  0  0  0  0
 59 60  1  0  0  0  0
 17 18  1  0  0  0  0
  8 11  1  0  0  0  0
 11 12  1  0  0  0  0
 40 43  1  0  0  0  0
 43 44  1  0  0  0  0
 49 50  1  0  0  0  0
  7  8  1  0  0  0  0
 29 30  1  0  0  0  0
 39 40  1  0  0  0  0
 12 44  1  0  0  0  0
  3  4  1  0  0  0  0
  3  5  1  0  0  0  0
  3  6  1  0  0  0  0
 25 26  1  0  0  0  0
 25 27  1  0  0  0  0
 25 28  1  0  0  0  0
 53 56  1  0  0  0  0
 53 57  1  0  0  0  0
 53 58  1  0  0  0  0
 33 36  1  0  0  0  0
 33 37  1  0  0  0  0
 33 38  1  0  0  0  0
 60 62  1  0  0  0  0
 60 63  1  0  0  0  0
 60 64  1  0  0  0  0
 18 20  1  0  0  0  0
 18 21  1  0  0  0  0
 18 22  1  0  0  0  0
 11 15  1  0  0  0  0
 11 16  1  0  0  0  0
 43 47  1  0  0  0  0
 43 48  1  0  0  0  0
 50 55  1  0  0  0  0
  8 14  1  0  0  0  0
 30 35  1  0  0  0  0
 40 46  1  0  0  0  0
 59 61  1  0  0  0  0
 17 19  1  0  0  0  0
  7 13  1  0  0  0  0
 29 34  1  0  0  0  0
 49 54  1  0  0  0  0
 39 45  1  0  0  0  0
M  END
$$$$

  -OEChem-05262214473D

 64 63  0     1  0  0  0  0  0999 V2000
   -2.3277   -4.5484    4.2127 C   0  0  0  0  0  0  0  0  0  0  0  0
   -3.4567   -4.7455    3.7790 O   0  0  0  0  0  0  0  0  0  0  0  0
   -2.0756   -4.6461    5.6807 C   0  0  0  0  0  0  0  0  0  0  0  0
   -2.2156   -3.6825    6.1965 H   0  0  0  0  0  0  0  0  0  0  0  0
   -2.7646   -5.3463    6.1799 H   0  0  0  0  0  0  0  0  0  0  0  0
   -1.0655   -4.9824    5.9642 H   0  0  0  0  0  0  0  0  0  0  0  0
   -1.2065   -4.2327    3.4648 N   0  0  0  0  0  0  0  0  0  0  0  0
   -1.2262   -4.0909    2.0309 C   0  0  2  0  0  0  0  0  0  0  0  0
    0.0996   -4.5966    1.4657 C   0  0  0  0  0  0  0  0  0  0  0  0
    1.0421   -4.9414    2.1757 O   0  0  0  0  0  0  0  0  0  0  0  0
   -1.5693   -2.6655    1.5911 C   0  0  0  0  0  0  0  0  0  0  0  0
   -0.3476   -1.4199    2.1187 S   0  0  0  0  0  0  0  0  0  0  0  0
   -0.3240   -4.0937    3.9521 H   0  0  0  0  0  0  0  0  0  0  0  0
   -2.0154   -4.7667    1.6788 H   0  0  0  0  0  0  0  0  0  0  0  0
   -1.6457   -2.6077    0.5004 H   0  0  0  0  0  0  0  0  0  0  0  0
   -2.5389   -2.3701    2.0063 H   0  0  0  0  0  0  0  0  0  0  0  0
    0.1139   -4.5934    0.0782 N   0  0  0  0  0  0  0  0  0  0  0  0
    1.2656   -5.0050   -0.6899 C   0  0  0  0  0  0  0  0  0  0  0  0
   -0.7262   -4.3330   -0.4299 H   0  0  0  0  0  0  0  0  0  0  0  0
    1.8854   -4.1263   -0.9218 H   0  0  0  0  0  0  0  0  0  0  0  0
    1.8564   -5.7266   -0.1067 H   0  0  0  0  0  0  0  0  0  0  0  0
    0.9323   -5.4759   -1.6265 H   0  0  0  0  0  0  0  0  0  0  0  0
   -6.7256    2.0330   -0.2766 C   0  0  0  0  0  0  0  0  0  0  0  0
   -7.1824    1.1039   -0.9322 O   0  0  0  0  0  0  0  0  0  0  0  0
   -7.5276    2.6077    0.8435 C   0  0  0  0  0  0  0  0  0  0  0  0
   -8.1775    3.4344    0.5145 H   0  0  0  0  0  0  0  0  0  0  0  0
   -8.2057    1.8676    1.2980 H   0  0  0  0  0  0  0  0  0  0  0  0
   -6.9411    3.0162    1.6819 H   0  0  0  0  0  0  0  0  0  0  0  0
   -5.4935    2.6382   -0.4627 N   0  0  0  0  0  0  0  0  0  0  0  0
   -4.5619    2.2388   -1.4845 C   0  0  2  0  0  0  0  0  0  0  0  0
   -3.1535    2.4674   -0.9521 C   0  0  0  0  0  0  0  0  0  0  0  0
   -2.8634    3.3945   -0.1987 O   0  0  0  0  0  0  0  0  0  0  0  0
   -4.7883    3.0138   -2.7732 C   0  0  0  0  0  0  0  0  0  0  0  0
   -5.2337    3.4049    0.1551 H   0  0  0  0  0  0  0  0  0  0  0  0
   -4.7192    1.1682   -1.6549 H   0  0  0  0  0  0  0  0  0  0  0  0
   -4.6352    4.0886   -2.6221 H   0  0  0  0  0  0  0  0  0  0  0  0
   -4.0976    2.6887   -3.5582 H   0  0  0  0  0  0  0  0  0  0  0  0
   -5.8111    2.8719   -3.1387 H   0  0  0  0  0  0  0  0  0  0  0  0
   -2.2466    1.5400   -1.4507 N   0  0  0  0  0  0  0  0  0  0  0  0
   -0.8424    1.5707   -1.1286 C   0  0  2  0  0  0  0  0  0  0  0  0
   -0.0425    1.7354   -2.4192 C   0  0  0  0  0  0  0  0  0  0  0  0
   -0.5678    1.8023   -3.5287 O   0  0  0  0  0  0  0  0  0  0  0  0
   -0.4091    0.3616   -0.2960 C   0  0  0  0  0  0  0  0  0  0  0  0
   -1.1639    0.2995    1.3469 S   0  0  0  0  0  0  0  0  0  0  0  0
   -2.5850    0.7815   -2.0381 H   0  0  0  0  0  0  0  0  0  0  0  0
   -0.6970    2.4791   -0.5308 H   0  0  0  0  0  0  0  0  0  0  0  0
   -0.6657   -0.5706   -0.8097 H   0  0  0  0  0  0  0  0  0  0  0  0
    0.6774    0.3741   -0.1573 H   0  0  0  0  0  0  0  0  0  0  0  0
    1.3252    1.7735   -2.1877 N   0  0  0  0  0  0  0  0  0  0  0  0
    2.2924    1.8987   -3.2530 C   0  0  2  0  0  0  0  0  0  0  0  0
    3.5470    1.1402   -2.8406 C   0  0  0  0  0  0  0  0  0  0  0  0
    3.9358    1.0692   -1.6767 O   0  0  0  0  0  0  0  0  0  0  0  0
    2.6099    3.3573   -3.5434 C   0  0  0  0  0  0  0  0  0  0  0  0
    1.6714    1.7551   -1.2330 H   0  0  0  0  0  0  0  0  0  0  0  0
    1.8523    1.4247   -4.1371 H   0  0  0  0  0  0  0  0  0  0  0  0
    3.0517    3.8490   -2.6690 H   0  0  0  0  0  0  0  0  0  0  0  0
    3.3216    3.4514   -4.3702 H   0  0  0  0  0  0  0  0  0  0  0  0
    1.7017    3.9081   -3.8108 H   0  0  0  0  0  0  0  0  0  0  0  0
    4.2050    0.5881   -3.9308 N   0  0  0  0  0  0  0  0  0  0  0  0
    5.4437   -0.1438   -3.8050 C   0  0  0  0  0  0  0  0  0  0  0  0
    3.7898    0.6619   -4.8549 H   0  0  0  0  0  0  0  0  0  0  0  0
    6.2917    0.5431   -3.9428 H   0  0  0  0  0  0  0  0  0  0  0  0
    5.5001   -0.5999   -2.8056 H   0  0  0  0  0  0  0  0  0  0  0  0
    5.4828   -0.9326   -4.5707 H   0  0  0  0  0  0  0  0  0  0  0  0
  1  3  1  0  0  0  0
  1  7  1  0  0  0  0
  1  2  2  0  0  0  0
 23 25  1  0  0  0  0
 23 29  1  0  0  0  0
 23 24  2  0  0  0  0
 50 51  1  0  0  0  0
 51 59  1  0  0  0  0
 51 52  2  0  0  0  0
  8  9  1  0  0  0  0
  9 17  1  0  0  0  0
  9 10  2  0  0  0  0
 30 31  1  0  0  0  0
 31 39  1  0  0  0  0
 31 32  2  0  0  0  0
 40 41  1  0  0  0  0
 41 49  1  0  0  0  0
 41 42  2  0  0  0  0
 50 53  1  0  0  0  0
 30 33  1  0  0  0  0
 59 60  1  0  0  0  0
 17 18  1  0  0  0  0
  8 11  1  0  0  0  0
 11 12  1  0  0  0  0
 40 43  1  0  0  0  0
 43 44  1  0  0  0  0
 49 50  1  0  0  0  0
  7  8  1  0  0  0  0
 29 30  1  0  0  0  0
 39 40  1  0  0  0  0
 12 44  1  0  0  0  0
  3  4  1  0  0  0  0
  3  5  1  0  0  0  0
  3  6  1  0  0  0  0
 25 26  1  0  0  0  0
 25 27  1  0  0  0  0
 25 28  1  0  0  0  0
 53 56  1  0  0  0  0
 53 57  1  0  0  0  0
 53 58  1  0  0  0  0
 33 36  1  0  0  0  0
 33 37  1  0  0  0  0
 33 38  1  0  0  0  0
 60 62  1  0  0  0  0
 60 63  1  0  0  0  0
 60 64  1  0  0  0  0
 18 20  1  0  0  0  0
 18 21  1  0  0  0  0
 18 22  1  0  0  0  0
 11 15  1  0  0  0  0
 11 16  1  0  0  0  0
 43 47  1  0  0  0  0
 43 48  1  0  0  0  0
 50 55  1  0  0  0  0
  8 14  1  0  0  0  0
 30 35  1  0  0  0  0
 40 46  1  0  0  0  0
 59 61  1  0  0  0  0
 17 19  1  0  0  0  0
  7 13  1  0  0  0  0
 29 34  1  0  0  0  0
 49 54  1  0  0  0  0
 39 45  1  0  0  0  0
M  END
$$$$

  -OEChem-05262214473D

 64 63  0     1  0  0  0  0  0999 V2000
   -2.3277   -4.5484    4.2127 C   0  0  0  0  0  0  0  0  0  0  0  0
   -3.4567   -4.7455    3.7790 O   0  0  0  0  0  0  0  0  0  0  0  0
   -2.0756   -4.6461    5.6807 C   0  0  0  0  0  0  0  0  0  0  0  0
   -2.2156   -3.6825    6.1965 H   0  0  0  0  0  0  0  0  0  0  0  0
   -2.7646   -5.3463    6.1799 H   0  0  0  0  0  0  0  0  0  0  0  0
   -1.0655   -4.9824    5.9642 H   0  0  0  0  0  0  0  0  0  0  0  0
   -1.2065   -4.2327    3.4648 N   0  0  0  0  0  0  0  0  0  0  0  0
   -1.2262   -4.0909    2.0309 C   0  0  2  0  0  0  0  0  0  0  0  0
    0.0996   -4.5966    1.4657 C   0  0  0  0  0  0  0  0  0  0  0  0
    1.0421   -4.9414    2.1757 O   0  0  0  0  0  0  0  0  0  0  0  0
   -1.5693   -2.6655    1.5911 C   0  0  0  0  0  0  0  0  0  0  0  0
   -0.3476   -1.4199    2.1187 S   0  0  0  0  0  0  0  0  0  0  0  0
   -0.3240   -4.0937    3.9521 H   0  0  0  0  0  0  0  0  0  0  0  0
   -2.0154   -4.7667    1.6788 H   0  0  0  0  0  0  0  0  0  0  0  0
   -1.6457   -2.6077    0.5004 H   0  0  0  0  0  0  0  0  0  0  0  0
   -2.5389   -2.3701    2.0063 H   0  0  0  0  0  0  0  0  0  0  0  0
    0.1139   -4.5934    0.0782 N   0  0  0  0  0  0  0  0  0  0  0  0
    1.2656   -5.0050   -0.6899 C   0  0  0  0  0  0  0  0  0  0  0  0
   -0.7262   -4.3330   -0.4299 H   0  0  0  0  0  0  0  0  0  0  0  0
    1.8854   -4.1263   -0.9218 H   0  0  0  0  0  0  0  0  0  0  0  0
    1.8564   -5.7266   -0.1067 H   0  0  0  0  0  0  0  0  0  0  0  0
    0.9323   -5.4759   -1.6265 H   0  0  0  0  0  0  0  0  0  0  0  0
   -6.7256    2.0330   -0.2766 C   0  0  0  0  0  0  0  0  0  0  0  0
   -7.1824    1.1039   -0.9322 O   0  0  0  0  0  0  0  0  0  0  0  0
   -7.5276    2.6077    0.8435 C   0  0  0  0  0  0  0  0  0  0  0  0
   -8.1775    3.4344    0.5145 H   0  0  0  0  0  0  0  0  0  0  0  0
   -8.2057    1.8676    1.2980 H   0  0  0  0  0  0  0  0  0  0  0  0
   -6.9411    3.0162    1.6819 H   0  0  0  0  0  0  0  0  0  0  0  0
   -5.4935    2.6382   -0.4627 N   0  0  0  0  0  0  0  0  0  0  0  0
   -4.5619    2.2388   -1.4845 C   0  0  2  0  0  0  0  0  0  0  0  0
   -3.1535    2.4674   -0.9521 C   0  0  0  0  0  0  0  0  0  0  0  0
   -2.8634    3.3945   -0.1987 O   0  0  0  0  0  0  0  0  0  0  0  0
   -4.7883    3.0138   -2.7732 C   0  0  0  0  0  0  0  0  0  0  0  0
   -5.2337    3.4049    0.1551 H   0  0  0  0  0  0  0  0  0  0  0  0
   -4.7192    1.1682   -1.6549 H   0  0  0  0  0  0  0  0  0  0  0  0
   -4.6352    4.0886   -2.6221 H   0  0  0  0  0  0  0  0  0  0  0  0
   -4.0976    2.6887   -3.5582 H   0  0  0  0  0  0  0  0  0  0  0  0
   -5.8111    2.8719   -3.1387 H   0  0  0  0  0  0  0  0  0  0  0  0
   -2.2466    1.5400   -1.4507 N   0  0  0  0  0  0  0  0  0  0  0  0
   -0.8424    1.5707   -1.1286 C   0  0  2  0  0  0  0  0  0  0  0  0
   -0.0425    1.7354   -2.4192 C   0  0  0  0  0  0  0  0  0  0  0  0
   -0.5542    2.0678   -3.4864 O   0  0  0  0  0  0  0  0  0  0  0  0
   -0.4091    0.3616   -0.2960 C   0  0  0  0  0  0  0  0  0  0  0  0
   -1.1639    0.2995    1.3469 S   0  0  0  0  0  0  0  0  0  0  0  0
   -2.5850    0.7815   -2.0381 H   0  0  0  0  0  0  0  0  0  0  0  0
   -0.6970    2.4791   -0.5308 H   0  0  0  0  0  0  0  0  0  0  0  0
   -0.6657   -0.5706   -0.8097 H   0  0  0  0  0  0  0  0  0  0  0  0
    0.6774    0.3741   -0.1573 H   0  0  0  0  0  0  0  0  0  0  0  0
    1.3028    1.4436   -2.2437 N   0  0  0  0  0  0  0  0  0  0  0  0
    2.2600    1.5027   -3.3236 C   0  0  2  0  0  0  0  0  0  0  0  0
    3.3215    0.4405   -3.0697 C   0  0  0  0  0  0  0  0  0  0  0  0
    3.7000    0.1262   -1.9431 O   0  0  0  0  0  0  0  0  0  0  0  0
    2.8877    2.8836   -3.4316 C   0  0  0  0  0  0  0  0  0  0  0  0
    1.6486    1.2184   -1.3156 H   0  0  0  0  0  0  0  0  0  0  0  0
    1.7149    1.2626   -4.2429 H   0  0  0  0  0  0  0  0  0  0  0  0
    3.4383    3.1417   -2.5196 H   0  0  0  0  0  0  0  0  0  0  0  0
    3.5920    2.9349   -4.2685 H   0  0  0  0  0  0  0  0  0  0  0  0
    2.1201    3.6498   -3.5845 H   0  0  0  0  0  0  0  0  0  0  0  0
    3.8275   -0.0844   -4.2506 N   0  0  0  0  0  0  0  0  0  0  0  0
    4.8757   -1.0777   -4.2762 C   0  0  0  0  0  0  0  0  0  0  0  0
    3.4270    0.2050   -5.1381 H   0  0  0  0  0  0  0  0  0  0  0  0
    5.8525   -0.5786   -4.3581 H   0  0  0  0  0  0  0  0  0  0  0  0
    4.8429   -1.6692   -3.3494 H   0  0  0  0  0  0  0  0  0  0  0  0
    4.7300   -1.7422   -5.1407 H   0  0  0  0  0  0  0  0  0  0  0  0
  1  3  1  0  0  0  0
  1  7  1  0  0  0  0
  1  2  2  0  0  0  0
 23 25  1  0  0  0  0
 23 29  1  0  0  0  0
 23 24  2  0  0  0  0
 50 51  1  0  0  0  0
 51 59  1  0  0  0  0
 51 52  2  0  0  0  0
  8  9  1  0  0  0  0
  9 17  1  0  0  0  0
  9 10  2  0  0  0  0
 30 31  1  0  0  0  0
 31 39  1  0  0  0  0
 31 32  2  0  0  0  0
 40 41  1  0  0  0  0
 41 49  1  0  0  0  0
 41 42  2  0  0  0  0
 50 53  1  0  0  0  0
 30 33  1  0  0  0  0
 59 60  1  0  0  0  0
 17 18  1  0  0  0  0
  8 11  1  0  0  0  0
 11 12  1  0  0  0  0
 40 43  1  0  0  0  0
 43 44  1  0  0  0  0
 49 50  1  0  0  0  0
  7  8  1  0  0  0  0
 29 30  1  0  0  0  0
 39 40  1  0  0  0  0
 12 44  1  0  0  0  0
  3  4  1  0  0  0  0
  3  5  1  0  0  0  0
  3  6  1  0  0  0  0
 25 26  1  0  0  0  0
 25 27  1  0  0  0  0
 25 28  1  0  0  0  0
 53 56  1  0  0  0  0
 53 57  1  0  0  0  0
 53 58  1  0  0  0  0
 33 36  1  0  0  0  0
 33 37  1  0  0  0  0
 33 38  1  0  0  0  0
 60 62  1  0  0  0  0
 60 63  1  0  0  0  0
 60 64  1  0  0  0  0
 18 20  1  0  0  0  0
 18 21  1  0  0  0  0
 18 22  1  0  0  0  0
 11 15  1  0  0  0  0
 11 16  1  0  0  0  0
 43 47  1  0  0  0  0
 43 48  1  0  0  0  0
 50 55  1  0  0  0  0
  8 14  1  0  0  0  0
 30 35  1  0  0  0  0
 40 46  1  0  0  0  0
 59 61  1  0  0  0  0
 17 19  1  0  0  0  0
  7 13  1  0  0  0  0
 29 34  1  0  0  0  0
 49 54  1  0  0  0  0
 39 45  1  0  0  0  0
M  END
$$$$

  -OEChem-05262214473D

 64 63  0     1  0  0  0  0  0999 V2000
   -2.3277   -4.5484    4.2127 C   0  0  0  0  0  0  0  0  0  0  0  0
   -3.4567   -4.7455    3.7790 O   0  0  0  0  0  0  0  0  0  0  0  0
   -2.0756   -4.6461    5.6807 C   0  0  0  0  0  0  0  0  0  0  0  0
   -2.2156   -3.6825    6.1965 H   0  0  0  0  0  0  0  0  0  0  0  0
   -2.7646   -5.3463    6.1799 H   0  0  0  0  0  0  0  0  0  0  0  0
   -1.0655   -4.9824    5.9642 H   0  0  0  0  0  0  0  0  0  0  0  0
   -1.2065   -4.2327    3.4648 N   0  0  0  0  0  0  0  0  0  0  0  0
   -1.2262   -4.0909    2.0309 C   0  0  2  0  0  0  0  0  0  0  0  0
    0.0996   -4.5966    1.4657 C   0  0  0  0  0  0  0  0  0  0  0  0
    1.0421   -4.9414    2.1757 O   0  0  0  0  0  0  0  0  0  0  0  0
   -1.5693   -2.6655    1.5911 C   0  0  0  0  0  0  0  0  0  0  0  0
   -0.3476   -1.4199    2.1187 S   0  0  0  0  0  0  0  0  0  0  0  0
   -0.3240   -4.0937    3.9521 H   0  0  0  0  0  0  0  0  0  0  0  0
   -2.0154   -4.7667    1.6788 H   0  0  0  0  0  0  0  0  0  0  0  0
   -1.6457   -2.6077    0.5004 H   0  0  0  0  0  0  0  0  0  0  0  0
   -2.5389   -2.3701    2.0063 H   0  0  0  0  0  0  0  0  0  0  0  0
    0.1139   -4.5934    0.0782 N   0  0  0  0  0  0  0  0  0  0  0  0
    1.2656   -5.0050   -0.6899 C   0  0  0  0  0  0  0  0  0  0  0  0
   -0.7262   -4.3330   -0.4299 H   0  0  0  0  0  0  0  0  0  0  0  0
    1.8854   -4.1263   -0.9218 H   0  0  0  0  0  0  0  0  0  0  0  0
    1.8564   -5.7266   -0.1067 H   0  0  0  0  0  0  0  0  0  0  0  0
    0.9323   -5.4759   -1.6265 H   0  0  0  0  0  0  0  0  0  0  0  0
   -6.7256    2.0330   -0.2766 C   0  0  0  0  0  0  0  0  0  0  0  0
   -7.1824    1.1039   -0.9322 O   0  0  0  0  0  0  0  0  0  0  0  0
   -7.5276    2.6077    0.8435 C   0  0  0  0  0  0  0  0  0  0  0  0
   -8.1775    3.4344    0.5145 H   0  0  0  0  0  0  0  0  0  0  0  0
   -8.2057    1.8676    1.2980 H   0  0  0  0  0  0  0  0  0  0  0  0
   -6.9411    3.0162    1.6819 H   0  0  0  0  0  0  0  0  0  0  0  0
   -5.4935    2.6382   -0.4627 N   0  0  0  0  0  0  0  0  0  0  0  0
   -4.5619    2.2388   -1.4845 C   0  0  2  0  0  0  0  0  0  0  0  0
   -3.1535    2.4674   -0.9521 C   0  0  0  0  0  0  0  0  0  0  0  0
   -2.8634    3.3945   -0.1987 O   0  0  0  0  0  0  0  0  0  0  0  0
   -4.7883    3.0138   -2.7732 C   0  0  0  0  0  0  0  0  0  0  0  0
   -5.2337    3.4049    0.1551 H   0  0  0  0  0  0  0  0  0  0  0  0
   -4.7192    1.1682   -1.6549 H   0  0  0  0  0  0  0  0  0  0  0  0
   -4.6352    4.0886   -2.6221 H   0  0  0  0  0  0  0  0  0  0  0  0
   -4.0976    2.6887   -3.5582 H   0  0  0  0  0  0  0  0  0  0  0  0
   -5.8111    2.8719   -3.1387 H   0  0  0  0  0  0  0  0  0  0  0  0
   -2.2466    1.5400   -1.4507 N   0  0  0  0  0  0  0  0  0  0  0  0
   -0.8424    1.5707   -1.1286 C   0  0  2  0  0  0  0  0  0  0  0  0
   -0.0425    1.7354   -2.4192 C   0  0  0  0  0  0  0  0  0  0  0  0
   -0.4819    2.3155   -3.4100 O   0  0  0  0  0  0  0  0  0  0  0  0
   -0.4091    0.3616   -0.2960 C   0  0  0  0  0  0  0  0  0  0  0  0
   -1.1639    0.2995    1.3469 S   0  0  0  0  0  0  0  0  0  0  0  0
   -2.5850    0.7815   -2.0381 H   0  0  0  0  0  0  0  0  0  0  0  0
   -0.6970    2.4791   -0.5308 H   0  0  0  0  0  0  0  0  0  0  0  0
   -0.6657   -0.5706   -0.8097 H   0  0  0  0  0  0  0  0  0  0  0  0
    0.6774    0.3741   -0.1573 H   0  0  0  0  0  0  0  0  0  0  0  0
    1.2074    1.1375   -2.3419 N   0  0  0  0  0  0  0  0  0  0  0  0
    2.1401    1.1368   -3.4445 C   0  0  2  0  0  0  0  0  0  0  0  0
    2.9443   -0.1549   -3.3794 C   0  0  0  0  0  0  0  0  0  0  0  0
    3.2585   -0.6969   -2.3218 O   0  0  0  0  0  0  0  0  0  0  0  0
    3.0556    2.3501   -3.3956 C   0  0  0  0  0  0  0  0  0  0  0  0
    1.5069    0.7162   -1.4676 H   0  0  0  0  0  0  0  0  0  0  0  0
    1.5437    1.1505   -4.3633 H   0  0  0  0  0  0  0  0  0  0  0  0
    3.6612    2.3537   -2.4820 H   0  0  0  0  0  0  0  0  0  0  0  0
    3.7431    2.3631   -4.2478 H   0  0  0  0  0  0  0  0  0  0  0  0
    2.4740    3.2781   -3.4125 H   0  0  0  0  0  0  0  0  0  0  0  0
    3.3068   -0.6081   -4.6401 N   0  0  0  0  0  0  0  0  0  0  0  0
    4.1096   -1.7916   -4.8421 C   0  0  0  0  0  0  0  0  0  0  0  0
    2.9687   -0.1186   -5.4634 H   0  0  0  0  0  0  0  0  0  0  0  0
    5.1714   -1.5097   -4.8991 H   0  0  0  0  0  0  0  0  0  0  0  0
    3.9590   -2.4846   -4.0013 H   0  0  0  0  0  0  0  0  0  0  0  0
    3.8098   -2.2823   -5.7799 H   0  0  0  0  0  0  0  0  0  0  0  0
  1  3  1  0  0  0  0
  1  7  1  0  0  0  0
  1  2  2  0  0  0  0
 23 25  1  0  0  0  0
 23 29  1  0  0  0  0
 23 24  2  0  0  0  0
 50 51  1  0  0  0  0
 51 59  1  0  0  0  0
 51 52  2  0  0  0  0
  8  9  1  0  0  0  0
  9 17  1  0  0  0  0
  9 10  2  0  0  0  0
 30 31  1  0  0  0  0
 31 39  1  0  0  0  0
 31 32  2  0  0  0  0
 40 41  1  0  0  0  0
 41 49  1  0  0  0  0
 41 42  2  0  0  0  0
 50 53  1  0  0  0  0
 30 33  1  0  0  0  0
 59 60  1  0  0  0  0
 17 18  1  0  0  0  0
  8 11  1  0  0  0  0
 11 12  1  0  0  0  0
 40 43  1  0  0  0  0
 43 44  1  0  0  0  0
 49 50  1  0  0  0  0
  7  8  1  0  0  0  0
 29 30  1  0  0  0  0
 39 40  1  0  0  0  0
 12 44  1  0  0  0  0
  3  4  1  0  0  0  0
  3  5  1  0  0  0  0
  3  6  1  0  0  0  0
 25 26  1  0  0  0  0
 25 27  1  0  0  0  0
 25 28  1  0  0  0  0
 53 56  1  0  0  0  0
 53 57  1  0  0  0  0
 53 58  1  0  0  0  0
 33 36  1  0  0  0  0
 33 37  1  0  0  0  0
 33 38  1  0  0  0  0
 60 62  1  0  0  0  0
 60 63  1  0  0  0  0
 60 64  1  0  0  0  0
 18 20  1  0  0  0  0
 18 21  1  0  0  0  0
 18 22  1  0  0  0  0
 11 15  1  0  0  0  0
 11 16  1  0  0  0  0
 43 47  1  0  0  0  0
 43 48  1  0  0  0  0
 50 55  1  0  0  0  0
  8 14  1  0  0  0  0
 30 35  1  0  0  0  0
 40 46  1  0  0  0  0
 59 61  1  0  0  0  0
 17 19  1  0  0  0  0
  7 13  1  0  0  0  0
 29 34  1  0  0  0  0
 49 54  1  0  0  0  0
 39 45  1  0  0  0  0
M  END
$$$$

  -OEChem-05262214473D

 64 63  0     1  0  0  0  0  0999 V2000
   -2.3277   -4.5484    4.2127 C   0  0  0  0  0  0  0  0  0  0  0  0
   -3.4567   -4.7455    3.7790 O   0  0  0  0  0  0  0  0  0  0  0  0
   -2.0756   -4.6461    5.6807 C   0  0  0  0  0  0  0  0  0  0  0  0
   -2.2156   -3.6825    6.1965 H   0  0  0  0  0  0  0  0  0  0  0  0
   -2.7646   -5.3463    6.1799 H   0  0  0  0  0  0  0  0  0  0  0  0
   -1.0655   -4.9824    5.9642 H   0  0  0  0  0  0  0  0  0  0  0  0
   -1.2065   -4.2327    3.4648 N   0  0  0  0  0  0  0  0  0  0  0  0
   -1.2262   -4.0909    2.0309 C   0  0  2  0  0  0  0  0  0  0  0  0
    0.0996   -4.5966    1.4657 C   0  0  0  0  0  0  0  0  0  0  0  0
    1.0421   -4.9414    2.1757 O   0  0  0  0  0  0  0  0  0  0  0  0
   -1.5693   -2.6655    1.5911 C   0  0  0  0  0  0  0  0  0  0  0  0
   -0.3476   -1.4199    2.1187 S   0  0  0  0  0  0  0  0  0  0  0  0
   -0.3240   -4.0937    3.9521 H   0  0  0  0  0  0  0  0  0  0  0  0
   -2.0154   -4.7667    1.6788 H   0  0  0  0  0  0  0  0  0  0  0  0
   -1.6457   -2.6077    0.5004 H   0  0  0  0  0  0  0  0  0  0  0  0
   -2.5389   -2.3701    2.0063 H   0  0  0  0  0  0  0  0  0  0  0  0
    0.1139   -4.5934    0.0782 N   0  0  0  0  0  0  0  0  0  0  0  0
    1.2656   -5.0050   -0.6899 C   0  0  0  0  0  0  0  0  0  0  0  0
   -0.7262   -4.3330   -0.4299 H   0  0  0  0  0  0  0  0  0  0  0  0
    1.8854   -4.1263   -0.9218 H   0  0  0  0  0  0  0  0  0  0  0  0
    1.8564   -5.7266   -0.1067 H   0  0  0  0  0  0  0  0  0  0  0  0
    0.9323   -5.4759   -1.6265 H   0  0  0  0  0  0  0  0  0  0  0  0
   -6.7256    2.0330   -0.2766 C   0  0  0  0  0  0  0  0  0  0  0  0
   -7.1824    1.1039   -0.9322 O   0  0  0  0  0  0  0  0  0  0  0  0
   -7.5276    2.6077    0.8435 C   0  0  0  0  0  0  0  0  0  0  0  0
   -8.1775    3.4344    0.5145 H   0  0  0  0  0  0  0  0  0  0  0  0
   -8.2057    1.8676    1.2980 H   0  0  0  0  0  0  0  0  0  0  0  0
   -6.9411    3.0162    1.6819 H   0  0  0  0  0  0  0  0  0  0  0  0
   -5.4935    2.6382   -0.4627 N   0  0  0  0  0  0  0  0  0  0  0  0
   -4.5619    2.2388   -1.4845 C   0  0  2  0  0  0  0  0  0  0  0  0
   -3.1535    2.4674   -0.9521 C   0  0  0  0  0  0  0  0  0  0  0  0
   -2.8634    3.3945   -0.1987 O   0  0  0  0  0  0  0  0  0  0  0  0
   -4.7883    3.0138   -2.7732 C   0  0  0  0  0  0  0  0  0  0  0  0
   -5.2337    3.4049    0.1551 H   0  0  0  0  0  0  0  0  0  0  0  0
   -4.7192    1.1682   -1.6549 H   0  0  0  0  0  0  0  0  0  0  0  0
   -4.6352    4.0886   -2.6221 H   0  0  0  0  0  0  0  0  0  0  0  0
   -4.0976    2.6887   -3.5582 H   0  0  0  0  0  0  0  0  0  0  0  0
   -5.8111    2.8719   -3.1387 H   0  0  0  0  0  0  0  0  0  0  0  0
   -2.2466    1.5400   -1.4507 N   0  0  0  0  0  0  0  0  0  0  0  0
   -0.8424    1.5707   -1.1286 C   0  0  2  0  0  0  0  0  0  0  0  0
   -0.0425    1.7354   -2.4192 C   0  0  0  0  0  0  0  0  0  0  0  0
   -0.3558    2.5287   -3.3046 O   0  0  0  0  0  0  0  0  0  0  0  0
   -0.4091    0.3616   -0.2960 C   0  0  0  0  0  0  0  0  0  0  0  0
   -1.1639    0.2995    1.3469 S   0  0  0  0  0  0  0  0  0  0  0  0
   -2.5850    0.7815   -2.0381 H   0  0  0  0  0  0  0  0  0  0  0  0
   -0.6970    2.4791   -0.5308 H   0  0  0  0  0  0  0  0  0  0  0  0
   -0.6657   -0.5706   -0.8097 H   0  0  0  0  0  0  0  0  0  0  0  0
    0.6774    0.3741   -0.1573 H   0  0  0  0  0  0  0  0  0  0  0  0
    1.0456    0.8760   -2.4756 N   0  0  0  0  0  0  0  0  0  0  0  0
    1.9409    0.8260   -3.6077 C   0  0  2  0  0  0  0  0  0  0  0  0
    2.4411   -0.6056   -3.7489 C   0  0  0  0  0  0  0  0  0  0  0  0
    2.6415   -1.3441   -2.7868 O   0  0  0  0  0  0  0  0  0  0  0  0
    3.1021    1.7932   -3.4379 C   0  0  0  0  0  0  0  0  0  0  0  0
    1.2559    0.2827   -1.6784 H   0  0  0  0  0  0  0  0  0  0  0  0
    1.3505    1.0959   -4.4900 H   0  0  0  0  0  0  0  0  0  0  0  0
    3.7053    1.5387   -2.5587 H   0  0  0  0  0  0  0  0  0  0  0  0
    3.7645    1.7749   -4.3096 H   0  0  0  0  0  0  0  0  0  0  0  0
    2.7394    2.8184   -3.3066 H   0  0  0  0  0  0  0  0  0  0  0  0
    2.6784   -0.9473   -5.0729 N   0  0  0  0  0  0  0  0  0  0  0  0
    3.1977   -2.2369   -5.4642 C   0  0  0  0  0  0  0  0  0  0  0  0
    2.4462   -0.2868   -5.8088 H   0  0  0  0  0  0  0  0  0  0  0  0
    4.2947   -2.1868   -5.5289 H   0  0  0  0  0  0  0  0  0  0  0  0
    2.9087   -2.9906   -4.7168 H   0  0  0  0  0  0  0  0  0  0  0  0
    2.7851   -2.5160   -6.4449 H   0  0  0  0  0  0  0  0  0  0  0  0
  1  3  1  0  0  0  0
  1  7  1  0  0  0  0
  1  2  2  0  0  0  0
 23 25  1  0  0  0  0
 23 29  1  0  0  0  0
 23 24  2  0  0  0  0
 50 51  1  0  0  0  0
 51 59  1  0  0  0  0
 51 52  2  0  0  0  0
  8  9  1  0  0  0  0
  9 17  1  0  0  0  0
  9 10  2  0  0  0  0
 30 31  1  0  0  0  0
 31 39  1  0  0  0  0
 31 32  2  0  0  0  0
 40 41  1  0  0  0  0
 41 49  1  0  0  0  0
 41 42  2  0  0  0  0
 50 53  1  0  0  0  0
 30 33  1  0  0  0  0
 59 60  1  0  0  0  0
 17 18  1  0  0  0  0
  8 11  1  0  0  0  0
 11 12  1  0  0  0  0
 40 43  1  0  0  0  0
 43 44  1  0  0  0  0
 49 50  1  0  0  0  0
  7  8  1  0  0  0  0
 29 30  1  0  0  0  0
 39 40  1  0  0  0  0
 12 44  1  0  0  0  0
  3  4  1  0  0  0  0
  3  5  1  0  0  0  0
  3  6  1  0  0  0  0
 25 26  1  0  0  0  0
 25 27  1  0  0  0  0
 25 28  1  0  0  0  0
 53 56  1  0  0  0  0
 53 57  1  0  0  0  0
 53 58  1  0  0  0  0
 33 36  1  0  0  0  0
 33 37  1  0  0  0  0
 33 38  1  0  0  0  0
 60 62  1  0  0  0  0
 60 63  1  0  0  0  0
 60 64  1  0  0  0  0
 18 20  1  0  0  0  0
 18 21  1  0  0  0  0
 18 22  1  0  0  0  0
 11 15  1  0  0  0  0
 11 16  1  0  0  0  0
 43 47  1  0  0  0  0
 43 48  1  0  0  0  0
 50 55  1  0  0  0  0
  8 14  1  0  0  0  0
 30 35  1  0  0  0  0
 40 46  1  0  0  0  0
 59 61  1  0  0  0  0
 17 19  1  0  0  0  0
  7 13  1  0  0  0  0
 29 34  1  0  0  0  0
 49 54  1  0  0  0  0
 39 45  1  0  0  0  0
M  END
$$$$

  -OEChem-05262214473D

 64 63  0     1  0  0  0  0  0999 V2000
   -2.3277   -4.5484    4.2127 C   0  0  0  0  0  0  0  0  0  0  0  0
   -3.4567   -4.7455    3.7790 O   0  0  0  0  0  0  0  0  0  0  0  0
   -2.0756   -4.6461    5.6807 C   0  0  0  0  0  0  0  0  0  0  0  0
   -2.2156   -3.6825    6.1965 H   0  0  0  0  0  0  0  0  0  0  0  0
   -2.7646   -5.3463    6.1799 H   0  0  0  0  0  0  0  0  0  0  0  0
   -1.0655   -4.9824    5.9642 H   0  0  0  0  0  0  0  0  0  0  0  0
   -1.2065   -4.2327    3.4648 N   0  0  0  0  0  0  0  0  0  0  0  0
   -1.2262   -4.0909    2.0309 C   0  0  2  0  0  0  0  0  0  0  0  0
    0.0996   -4.5966    1.4657 C   0  0  0  0  0  0  0  0  0  0  0  0
    1.0421   -4.9414    2.1757 O   0  0  0  0  0  0  0  0  0  0  0  0
   -1.5693   -2.6655    1.5911 C   0  0  0  0  0  0  0  0  0  0  0  0
   -0.3476   -1.4199    2.1187 S   0  0  0  0  0  0  0  0  0  0  0  0
   -0.3240   -4.0937    3.9521 H   0  0  0  0  0  0  0  0  0  0  0  0
   -2.0154   -4.7667    1.6788 H   0  0  0  0  0  0  0  0  0  0  0  0
   -1.6457   -2.6077    0.5004 H   0  0  0  0  0  0  0  0  0  0  0  0
   -2.5389   -2.3701    2.0063 H   0  0  0  0  0  0  0  0  0  0  0  0
    0.1139   -4.5934    0.0782 N   0  0  0  0  0  0  0  0  0  0  0  0
    1.2656   -5.0050   -0.6899 C   0  0  0  0  0  0  0  0  0  0  0  0
   -0.7262   -4.3330   -0.4299 H   0  0  0  0  0  0  0  0  0  0  0  0
    1.8854   -4.1263   -0.9218 H   0  0  0  0  0  0  0  0  0  0  0  0
    1.8564   -5.7266   -0.1067 H   0  0  0  0  0  0  0  0  0  0  0  0
    0.9323   -5.4759   -1.6265 H   0  0  0  0  0  0  0  0  0  0  0  0
   -6.7256    2.0330   -0.2766 C   0  0  0  0  0  0  0  0  0  0  0  0
   -7.1824    1.1039   -0.9322 O   0  0  0  0  0  0  0  0  0  0  0  0
   -7.5276    2.6077    0.8435 C   0  0  0  0  0  0  0  0  0  0  0  0
   -8.1775    3.4344    0.5145 H   0  0  0  0  0  0  0  0  0  0  0  0
   -8.2057    1.8676    1.2980 H   0  0  0  0  0  0  0  0  0  0  0  0
   -6.9411    3.0162    1.6819 H   0  0  0  0  0  0  0  0  0  0  0  0
   -5.4935    2.6382   -0.4627 N   0  0  0  0  0  0  0  0  0  0  0  0
   -4.5619    2.2388   -1.4845 C   0  0  2  0  0  0  0  0  0  0  0  0
   -3.1535    2.4674   -0.9521 C   0  0  0  0  0  0  0  0  0  0  0  0
   -2.8634    3.3945   -0.1987 O   0  0  0  0  0  0  0  0  0  0  0  0
   -4.7883    3.0138   -2.7732 C   0  0  0  0  0  0  0  0  0  0  0  0
   -5.2337    3.4049    0.1551 H   0  0  0  0  0  0  0  0  0  0  0  0
   -4.7192    1.1682   -1.6549 H   0  0  0  0  0  0  0  0  0  0  0  0
   -4.6352    4.0886   -2.6221 H   0  0  0  0  0  0  0  0  0  0  0  0
   -4.0976    2.6887   -3.5582 H   0  0  0  0  0  0  0  0  0  0  0  0
   -5.8111    2.8719   -3.1387 H   0  0  0  0  0  0  0  0  0  0  0  0
   -2.2466    1.5400   -1.4507 N   0  0  0  0  0  0  0  0  0  0  0  0
   -0.8424    1.5707   -1.1286 C   0  0  2  0  0  0  0  0  0  0  0  0
   -0.0425    1.7354   -2.4192 C   0  0  0  0  0  0  0  0  0  0  0  0
   -0.1843    2.6926   -3.1774 O   0  0  0  0  0  0  0  0  0  0  0  0
   -0.4091    0.3616   -0.2960 C   0  0  0  0  0  0  0  0  0  0  0  0
   -1.1639    0.2995    1.3469 S   0  0  0  0  0  0  0  0  0  0  0  0
   -2.5850    0.7815   -2.0381 H   0  0  0  0  0  0  0  0  0  0  0  0
   -0.6970    2.4791   -0.5308 H   0  0  0  0  0  0  0  0  0  0  0  0
   -0.6657   -0.5706   -0.8097 H   0  0  0  0  0  0  0  0  0  0  0  0
    0.6774    0.3741   -0.1573 H   0  0  0  0  0  0  0  0  0  0  0  0
    0.8283    0.6769   -2.6356 N   0  0  0  0  0  0  0  0  0  0  0  0
    1.6760    0.5914   -3.8018 C   0  0  2  0  0  0  0  0  0  0  0  0
    1.8461   -0.8808   -4.1527 C   0  0  0  0  0  0  0  0  0  0  0  0
    1.8910   -1.7712   -3.3065 O   0  0  0  0  0  0  0  0  0  0  0  0
    3.0241    1.2508   -3.5554 C   0  0  0  0  0  0  0  0  0  0  0  0
    0.9128   -0.0526   -1.9339 H   0  0  0  0  0  0  0  0  0  0  0  0
    1.1484    1.1026   -4.6144 H   0  0  0  0  0  0  0  0  0  0  0  0
    3.5674    0.7522   -2.7445 H   0  0  0  0  0  0  0  0  0  0  0  0
    3.6549    1.2104   -4.4496 H   0  0  0  0  0  0  0  0  0  0  0  0
    2.8982    2.3019   -3.2741 H   0  0  0  0  0  0  0  0  0  0  0  0
    1.9852   -1.0788   -5.5193 N   0  0  0  0  0  0  0  0  0  0  0  0
    2.2022   -2.3833   -6.0999 C   0  0  0  0  0  0  0  0  0  0  0  0
    1.8950   -0.2881   -6.1505 H   0  0  0  0  0  0  0  0  0  0  0  0
    3.2822   -2.5637   -6.2046 H   0  0  0  0  0  0  0  0  0  0  0  0
    1.7636   -3.1526   -5.4473 H   0  0  0  0  0  0  0  0  0  0  0  0
    1.7255   -2.4276   -7.0903 H   0  0  0  0  0  0  0  0  0  0  0  0
  1  3  1  0  0  0  0
  1  7  1  0  0  0  0
  1  2  2  0  0  0  0
 23 25  1  0  0  0  0
 23 29  1  0  0  0  0
 23 24  2  0  0  0  0
 50 51  1  0  0  0  0
 51 59  1  0  0  0  0
 51 52  2  0  0  0  0
  8  9  1  0  0  0  0
  9 17  1  0  0  0  0
  9 10  2  0  0  0  0
 30 31  1  0  0  0  0
 31 39  1  0  0  0  0
 31 32  2  0  0  0  0
 40 41  1  0  0  0  0
 41 49  1  0  0  0  0
 41 42  2  0  0  0  0
 50 53  1  0  0  0  0
 30 33  1  0  0  0  0
 59 60  1  0  0  0  0
 17 18  1  0  0  0  0
  8 11  1  0  0  0  0
 11 12  1  0  0  0  0
 40 43  1  0  0  0  0
 43 44  1  0  0  0  0
 49 50  1  0  0  0  0
  7  8  1  0  0  0  0
 29 30  1  0  0  0  0
 39 40  1  0  0  0  0
 12 44  1  0  0  0  0
  3  4  1  0  0  0  0
  3  5  1  0  0  0  0
  3  6  1  0  0  0  0
 25 26  1  0  0  0  0
 25 27  1  0  0  0  0
 25 28  1  0  0  0  0
 53 56  1  0  0  0  0
 53 57  1  0  0  0  0
 53 58  1  0  0  0  0
 33 36  1  0  0  0  0
 33 37  1  0  0  0  0
 33 38  1  0  0  0  0
 60 62  1  0  0  0  0
 60 63  1  0  0  0  0
 60 64  1  0  0  0  0
 18 20  1  0  0  0  0
 18 21  1  0  0  0  0
 18 22  1  0  0  0  0
 11 15  1  0  0  0  0
 11 16  1  0  0  0  0
 43 47  1  0  0  0  0
 43 48  1  0  0  0  0
 50 55  1  0  0  0  0
  8 14  1  0  0  0  0
 30 35  1  0  0  0  0
 40 46  1  0  0  0  0
 59 61  1  0  0  0  0
 17 19  1  0  0  0  0
  7 13  1  0  0  0  0
 29 34  1  0  0  0  0
 49 54  1  0  0  0  0
 39 45  1  0  0  0  0
M  END
$$$$

  -OEChem-05262214473D

 64 63  0     1  0  0  0  0  0999 V2000
   -2.3277   -4.5484    4.2127 C   0  0  0  0  0  0  0  0  0  0  0  0
   -3.4567   -4.7455    3.7790 O   0  0  0  0  0  0  0  0  0  0  0  0
   -2.0756   -4.6461    5.6807 C   0  0  0  0  0  0  0  0  0  0  0  0
   -2.2156   -3.6825    6.1965 H   0  0  0  0  0  0  0  0  0  0  0  0
   -2.7646   -5.3463    6.1799 H   0  0  0  0  0  0  0  0  0  0  0  0
   -1.0655   -4.9824    5.9642 H   0  0  0  0  0  0  0  0  0  0  0  0
   -1.2065   -4.2327    3.4648 N   0  0  0  0  0  0  0  0  0  0  0  0
   -1.2262   -4.0909    2.0309 C   0  0  2  0  0  0  0  0  0  0  0  0
    0.0996   -4.5966    1.4657 C   0  0  0  0  0  0  0  0  0  0  0  0
    1.0421   -4.9414    2.1757 O   0  0  0  0  0  0  0  0  0  0  0  0
   -1.5693   -2.6655    1.5911 C   0  0  0  0  0  0  0  0  0  0  0  0
   -0.3476   -1.4199    2.1187 S   0  0  0  0  0  0  0  0  0  0  0  0
   -0.3240   -4.0937    3.9521 H   0  0  0  0  0  0  0  0  0  0  0  0
   -2.0154   -4.7667    1.6788 H   0  0  0  0  0  0  0  0  0  0  0  0
   -1.6457   -2.6077    0.5004 H   0  0  0  0  0  0  0  0  0  0  0  0
   -2.5389   -2.3701    2.0063 H   0  0  0  0  0  0  0  0  0  0  0  0
    0.1139   -4.5934    0.0782 N   0  0  0  0  0  0  0  0  0  0  0  0
    1.2656   -5.0050   -0.6899 C   0  0  0  0  0  0  0  0  0  0  0  0
   -0.7262   -4.3330   -0.4299 H   0  0  0  0  0  0  0  0  0  0  0  0
    1.8854   -4.1263   -0.9218 H   0  0  0  0  0  0  0  0  0  0  0  0
    1.8564   -5.7266   -0.1067 H   0  0  0  0  0  0  0  0  0  0  0  0
    0.9323   -5.4759   -1.6265 H   0  0  0  0  0  0  0  0  0  0  0  0
   -6.7256    2.0330   -0.2766 C   0  0  0  0  0  0  0  0  0  0  0  0
   -7.1824    1.1039   -0.9322 O   0  0  0  0  0  0  0  0  0  0  0  0
   -7.5276    2.6077    0.8435 C   0  0  0  0  0  0  0  0  0  0  0  0
   -8.1775    3.4344    0.5145 H   0  0  0  0  0  0  0  0  0  0  0  0
   -8.2057    1.8676    1.2980 H   0  0  0  0  0  0  0  0  0  0  0  0
   -6.9411    3.0162    1.6819 H   0  0  0  0  0  0  0  0  0  0  0  0
   -5.4935    2.6382   -0.4627 N   0  0  0  0  0  0  0  0  0  0  0  0
   -4.5619    2.2388   -1.4845 C   0  0  2  0  0  0  0  0  0  0  0  0
   -3.1535    2.4674   -0.9521 C   0  0  0  0  0  0  0  0  0  0  0  0
   -2.8634    3.3945   -0.1987 O   0  0  0  0  0  0  0  0  0  0  0  0
   -4.7883    3.0138   -2.7732 C   0  0  0  0  0  0  0  0  0  0  0  0
   -5.2337    3.4049    0.1551 H   0  0  0  0  0  0  0  0  0  0  0  0
   -4.7192    1.1682   -1.6549 H   0  0  0  0  0  0  0  0  0  0  0  0
   -4.6352    4.0886   -2.6221 H   0  0  0  0  0  0  0  0  0  0  0  0
   -4.0976    2.6887   -3.5582 H   0  0  0  0  0  0  0  0  0  0  0  0
   -5.8111    2.8719   -3.1387 H   0  0  0  0  0  0  0  0  0  0  0  0
   -2.2466    1.5400   -1.4507 N   0  0  0  0  0  0  0  0  0  0  0  0
   -0.8424    1.5707   -1.1286 C   0  0  2  0  0  0  0  0  0  0  0  0
   -0.0425    1.7354   -2.4192 C   0  0  0  0  0  0  0  0  0  0  0  0
    0.0206    2.7963   -3.0371 O   0  0  0  0  0  0  0  0  0  0  0  0
   -0.4091    0.3616   -0.2960 C   0  0  0  0  0  0  0  0  0  0  0  0
   -1.1639    0.2995    1.3469 S   0  0  0  0  0  0  0  0  0  0  0  0
   -2.5850    0.7815   -2.0381 H   0  0  0  0  0  0  0  0  0  0  0  0
   -0.6970    2.4791   -0.5308 H   0  0  0  0  0  0  0  0  0  0  0  0
   -0.6657   -0.5706   -0.8097 H   0  0  0  0  0  0  0  0  0  0  0  0
    0.6774    0.3741   -0.1573 H   0  0  0  0  0  0  0  0  0  0  0  0
    0.5705    0.5538   -2.8112 N   0  0  0  0  0  0  0  0  0  0  0  0
    1.3634    0.4492   -4.0137 C   0  0  2  0  0  0  0  0  0  0  0  0
    1.2000   -0.9617   -4.5635 C   0  0  0  0  0  0  0  0  0  0  0  0
    1.0582   -1.9492   -3.8454 O   0  0  0  0  0  0  0  0  0  0  0  0
    2.8268    0.7599   -3.7404 C   0  0  0  0  0  0  0  0  0  0  0  0
    0.5009   -0.2667   -2.2165 H   0  0  0  0  0  0  0  0  0  0  0  0
    0.9512    1.1701   -4.7280 H   0  0  0  0  0  0  0  0  0  0  0  0
    3.2571    0.0479   -3.0267 H   0  0  0  0  0  0  0  0  0  0  0  0
    3.4216    0.7081   -4.6583 H   0  0  0  0  0  0  0  0  0  0  0  0
    2.9395    1.7639   -3.3172 H   0  0  0  0  0  0  0  0  0  0  0  0
    1.2745   -0.9937   -5.9490 N   0  0  0  0  0  0  0  0  0  0  0  0
    1.1907   -2.2208   -6.7061 C   0  0  0  0  0  0  0  0  0  0  0  0
    1.3528   -0.1226   -6.4655 H   0  0  0  0  0  0  0  0  0  0  0  0
    2.2029   -2.6148   -6.8800 H   0  0  0  0  0  0  0  0  0  0  0  0
    0.6017   -2.9596   -6.1428 H   0  0  0  0  0  0  0  0  0  0  0  0
    0.7034   -2.0229   -7.6722 H   0  0  0  0  0  0  0  0  0  0  0  0
  1  3  1  0  0  0  0
  1  7  1  0  0  0  0
  1  2  2  0  0  0  0
 23 25  1  0  0  0  0
 23 29  1  0  0  0  0
 23 24  2  0  0  0  0
 50 51  1  0  0  0  0
 51 59  1  0  0  0  0
 51 52  2  0  0  0  0
  8  9  1  0  0  0  0
  9 17  1  0  0  0  0
  9 10  2  0  0  0  0
 30 31  1  0  0  0  0
 31 39  1  0  0  0  0
 31 32  2  0  0  0  0
 40 41  1  0  0  0  0
 41 49  1  0  0  0  0
 41 42  2  0  0  0  0
 50 53  1  0  0  0  0
 30 33  1  0  0  0  0
 59 60  1  0  0  0  0
 17 18  1  0  0  0  0
  8 11  1  0  0  0  0
 11 12  1  0  0  0  0
 40 43  1  0  0  0  0
 43 44  1  0  0  0  0
 49 50  1  0  0  0  0
  7  8  1  0  0  0  0
 29 30  1  0  0  0  0
 39 40  1  0  0  0  0
 12 44  1  0  0  0  0
  3  4  1  0  0  0  0
  3  5  1  0  0  0  0
  3  6  1  0  0  0  0
 25 26  1  0  0  0  0
 25 27  1  0  0  0  0
 25 28  1  0  0  0  0
 53 56  1  0  0  0  0
 53 57  1  0  0  0  0
 53 58  1  0  0  0  0
 33 36  1  0  0  0  0
 33 37  1  0  0  0  0
 33 38  1  0  0  0  0
 60 62  1  0  0  0  0
 60 63  1  0  0  0  0
 60 64  1  0  0  0  0
 18 20  1  0  0  0  0
 18 21  1  0  0  0  0
 18 22  1  0  0  0  0
 11 15  1  0  0  0  0
 11 16  1  0  0  0  0
 43 47  1  0  0  0  0
 43 48  1  0  0  0  0
 50 55  1  0  0  0  0
  8 14  1  0  0  0  0
 30 35  1  0  0  0  0
 40 46  1  0  0  0  0
 59 61  1  0  0  0  0
 17 19  1  0  0  0  0
  7 13  1  0  0  0  0
 29 34  1  0  0  0  0
 49 54  1  0  0  0  0
 39 45  1  0  0  0  0
M  END
$$$$

  -OEChem-05262214473D

 64 63  0     1  0  0  0  0  0999 V2000
   -2.3277   -4.5484    4.2127 C   0  0  0  0  0  0  0  0  0  0  0  0
   -3.4567   -4.7455    3.7790 O   0  0  0  0  0  0  0  0  0  0  0  0
   -2.0756   -4.6461    5.6807 C   0  0  0  0  0  0  0  0  0  0  0  0
   -2.2156   -3.6825    6.1965 H   0  0  0  0  0  0  0  0  0  0  0  0
   -2.7646   -5.3463    6.1799 H   0  0  0  0  0  0  0  0  0  0  0  0
   -1.0655   -4.9824    5.9642 H   0  0  0  0  0  0  0  0  0  0  0  0
   -1.2065   -4.2327    3.4648 N   0  0  0  0  0  0  0  0  0  0  0  0
   -1.2262   -4.0909    2.0309 C   0  0  2  0  0  0  0  0  0  0  0  0
    0.0996   -4.5966    1.4657 C   0  0  0  0  0  0  0  0  0  0  0  0
    1.0421   -4.9414    2.1757 O   0  0  0  0  0  0  0  0  0  0  0  0
   -1.5693   -2.6655    1.5911 C   0  0  0  0  0  0  0  0  0  0  0  0
   -0.3476   -1.4199    2.1187 S   0  0  0  0  0  0  0  0  0  0  0  0
   -0.3240   -4.0937    3.9521 H   0  0  0  0  0  0  0  0  0  0  0  0
   -2.0154   -4.7667    1.6788 H   0  0  0  0  0  0  0  0  0  0  0  0
   -1.6457   -2.6077    0.5004 H   0  0  0  0  0  0  0  0  0  0  0  0
   -2.5389   -2.3701    2.0063 H   0  0  0  0  0  0  0  0  0  0  0  0
    0.1139   -4.5934    0.0782 N   0  0  0  0  0  0  0  0  0  0  0  0
    1.2656   -5.0050   -0.6899 C   0  0  0  0  0  0  0  0  0  0  0  0
   -0.7262   -4.3330   -0.4299 H   0  0  0  0  0  0  0  0  0  0  0  0
    1.8854   -4.1263   -0.9218 H   0  0  0  0  0  0  0  0  0  0  0  0
    1.8564   -5.7266   -0.1067 H   0  0  0  0  0  0  0  0  0  0  0  0
    0.9323   -5.4759   -1.6265 H   0  0  0  0  0  0  0  0  0  0  0  0
   -6.7256    2.0330   -0.2766 C   0  0  0  0  0  0  0  0  0  0  0  0
   -7.1824    1.1039   -0.9322 O   0  0  0  0  0  0  0  0  0  0  0  0
   -7.5276    2.6077    0.8435 C   0  0  0  0  0  0  0  0  0  0  0  0
   -8.1775    3.4344    0.5145 H   0  0  0  0  0  0  0  0  0  0  0  0
   -8.2057    1.8676    1.2980 H   0  0  0  0  0  0  0  0  0  0  0  0
   -6.9411    3.0162    1.6819 H   0  0  0  0  0  0  0  0  0  0  0  0
   -5.4935    2.6382   -0.4627 N   0  0  0  0  0  0  0  0  0  0  0  0
   -4.5619    2.2388   -1.4845 C   0  0  2  0  0  0  0  0  0  0  0  0
   -3.1535    2.4674   -0.9521 C   0  0  0  0  0  0  0  0  0  0  0  0
   -2.8634    3.3945   -0.1987 O   0  0  0  0  0  0  0  0  0  0  0  0
   -4.7883    3.0138   -2.7732 C   0  0  0  0  0  0  0  0  0  0  0  0
   -5.2337    3.4049    0.1551 H   0  0  0  0  0  0  0  0  0  0  0  0
   -4.7192    1.1682   -1.6549 H   0  0  0  0  0  0  0  0  0  0  0  0
   -4.6352    4.0886   -2.6221 H   0  0  0  0  0  0  0  0  0  0  0  0
   -4.0976    2.6887   -3.5582 H   0  0  0  0  0  0  0  0  0  0  0  0
   -5.8111    2.8719   -3.1387 H   0  0  0  0  0  0  0  0  0  0  0  0
   -2.2466    1.5400   -1.4507 N   0  0  0  0  0  0  0  0  0  0  0  0
   -0.8424    1.5707   -1.1286 C   0  0  2  0  0  0  0  0  0  0  0  0
   -0.0425    1.7354   -2.4192 C   0  0  0  0  0  0  0  0  0  0  0  0
    0.2452    2.8326   -2.8933 O   0  0  0  0  0  0  0  0  0  0  0  0
   -0.4091    0.3616   -0.2960 C   0  0  0  0  0  0  0  0  0  0  0  0
   -1.1639    0.2995    1.3469 S   0  0  0  0  0  0  0  0  0  0  0  0
   -2.5850    0.7815   -2.0381 H   0  0  0  0  0  0  0  0  0  0  0  0
   -0.6970    2.4791   -0.5308 H   0  0  0  0  0  0  0  0  0  0  0  0
   -0.6657   -0.5706   -0.8097 H   0  0  0  0  0  0  0  0  0  0  0  0
    0.6774    0.3741   -0.1573 H   0  0  0  0  0  0  0  0  0  0  0  0
    0.2896    0.5150   -2.9902 N   0  0  0  0  0  0  0  0  0  0  0  0
    1.0244    0.4088   -4.2290 C   0  0  2  0  0  0  0  0  0  0  0  0
    0.5467   -0.8429   -4.9533 C   0  0  0  0  0  0  0  0  0  0  0  0
    0.1997   -1.8660   -4.3669 O   0  0  0  0  0  0  0  0  0  0  0  0
    2.5237    0.3540   -3.9800 C   0  0  0  0  0  0  0  0  0  0  0  0
    0.0484   -0.3452   -2.5070 H   0  0  0  0  0  0  0  0  0  0  0  0
    0.7723    1.2939   -4.8231 H   0  0  0  0  0  0  0  0  0  0  0  0
    2.7954   -0.5263   -3.3861 H   0  0  0  0  0  0  0  0  0  0  0  0
    3.0805    0.3022   -4.9214 H   0  0  0  0  0  0  0  0  0  0  0  0
    2.8606    1.2410   -3.4328 H   0  0  0  0  0  0  0  0  0  0  0  0
    0.5945   -0.6978   -6.3327 N   0  0  0  0  0  0  0  0  0  0  0  0
    0.2324   -1.7605   -7.2414 C   0  0  0  0  0  0  0  0  0  0  0  0
    0.8565    0.1986   -6.7321 H   0  0  0  0  0  0  0  0  0  0  0  0
    1.1304   -2.3365   -7.5093 H   0  0  0  0  0  0  0  0  0  0  0  0
   -0.4978   -2.4248   -6.7561 H   0  0  0  0  0  0  0  0  0  0  0  0
   -0.2116   -1.3297   -8.1509 H   0  0  0  0  0  0  0  0  0  0  0  0
  1  3  1  0  0  0  0
  1  7  1  0  0  0  0
  1  2  2  0  0  0  0
 23 25  1  0  0  0  0
 23 29  1  0  0  0  0
 23 24  2  0  0  0  0
 50 51  1  0  0  0  0
 51 59  1  0  0  0  0
 51 52  2  0  0  0  0
  8  9  1  0  0  0  0
  9 17  1  0  0  0  0
  9 10  2  0  0  0  0
 30 31  1  0  0  0  0
 31 39  1  0  0  0  0
 31 32  2  0  0  0  0
 40 41  1  0  0  0  0
 41 49  1  0  0  0  0
 41 42  2  0  0  0  0
 50 53  1  0  0  0  0
 30 33  1  0  0  0  0
 59 60  1  0  0  0  0
 17 18  1  0  0  0  0
  8 11  1  0  0  0  0
 11 12  1  0  0  0  0
 40 43  1  0  0  0  0
 43 44  1  0  0  0  0
 49 50  1  0  0  0  0
  7  8  1  0  0  0  0
 29 30  1  0  0  0  0
 39 40  1  0  0  0  0
 12 44  1  0  0  0  0
  3  4  1  0  0  0  0
  3  5  1  0  0  0  0
  3  6  1  0  0  0  0
 25 26  1  0  0  0  0
 25 27  1  0  0  0  0
 25 28  1  0  0  0  0
 53 56  1  0  0  0  0
 53 57  1  0  0  0  0
 53 58  1  0  0  0  0
 33 36  1  0  0  0  0
 33 37  1  0  0  0  0
 33 38  1  0  0  0  0
 60 62  1  0  0  0  0
 60 63  1  0  0  0  0
 60 64  1  0  0  0  0
 18 20  1  0  0  0  0
 18 21  1  0  0  0  0
 18 22  1  0  0  0  0
 11 15  1  0  0  0  0
 11 16  1  0  0  0  0
 43 47  1  0  0  0  0
 43 48  1  0  0  0  0
 50 55  1  0  0  0  0
  8 14  1  0  0  0  0
 30 35  1  0  0  0  0
 40 46  1  0  0  0  0
 59 61  1  0  0  0  0
 17 19  1  0  0  0  0
  7 13  1  0  0  0  0
 29 34  1  0  0  0  0
 49 54  1  0  0  0  0
 39 45  1  0  0  0  0
M  END
$$$$

  -OEChem-05262214473D

 64 63  0     1  0  0  0  0  0999 V2000
   -2.3277   -4.5484    4.2127 C   0  0  0  0  0  0  0  0  0  0  0  0
   -3.4567   -4.7455    3.7790 O   0  0  0  0  0  0  0  0  0  0  0  0
   -2.0756   -4.6461    5.6807 C   0  0  0  0  0  0  0  0  0  0  0  0
   -2.2156   -3.6825    6.1965 H   0  0  0  0  0  0  0  0  0  0  0  0
   -2.7646   -5.3463    6.1799 H   0  0  0  0  0  0  0  0  0  0  0  0
   -1.0655   -4.9824    5.9642 H   0  0  0  0  0  0  0  0  0  0  0  0
   -1.2065   -4.2327    3.4648 N   0  0  0  0  0  0  0  0  0  0  0  0
   -1.2262   -4.0909    2.0309 C   0  0  2  0  0  0  0  0  0  0  0  0
    0.0996   -4.5966    1.4657 C   0  0  0  0  0  0  0  0  0  0  0  0
    1.0421   -4.9414    2.1757 O   0  0  0  0  0  0  0  0  0  0  0  0
   -1.5693   -2.6655    1.5911 C   0  0  0  0  0  0  0  0  0  0  0  0
   -0.3476   -1.4199    2.1187 S   0  0  0  0  0  0  0  0  0  0  0  0
   -0.3240   -4.0937    3.9521 H   0  0  0  0  0  0  0  0  0  0  0  0
   -2.0154   -4.7667    1.6788 H   0  0  0  0  0  0  0  0  0  0  0  0
   -1.6457   -2.6077    0.5004 H   0  0  0  0  0  0  0  0  0  0  0  0
   -2.5389   -2.3701    2.0063 H   0  0  0  0  0  0  0  0  0  0  0  0
    0.1139   -4.5934    0.0782 N   0  0  0  0  0  0  0  0  0  0  0  0
    1.2656   -5.0050   -0.6899 C   0  0  0  0  0  0  0  0  0  0  0  0
   -0.7262   -4.3330   -0.4299 H   0  0  0  0  0  0  0  0  0  0  0  0
    1.8854   -4.1263   -0.9218 H   0  0  0  0  0  0  0  0  0  0  0  0
    1.8564   -5.7266   -0.1067 H   0  0  0  0  0  0  0  0  0  0  0  0
    0.9323   -5.4759   -1.6265 H   0  0  0  0  0  0  0  0  0  0  0  0
   -6.7256    2.0330   -0.2766 C   0  0  0  0  0  0  0  0  0  0  0  0
   -7.1824    1.1039   -0.9322 O   0  0  0  0  0  0  0  0  0  0  0  0
   -7.5276    2.6077    0.8435 C   0  0  0  0  0  0  0  0  0  0  0  0
   -8.1775    3.4344    0.5145 H   0  0  0  0  0  0  0  0  0  0  0  0
   -8.2057    1.8676    1.2980 H   0  0  0  0  0  0  0  0  0  0  0  0
   -6.9411    3.0162    1.6819 H   0  0  0  0  0  0  0  0  0  0  0  0
   -5.4935    2.6382   -0.4627 N   0  0  0  0  0  0  0  0  0  0  0  0
   -4.5619    2.2388   -1.4845 C   0  0  2  0  0  0  0  0  0  0  0  0
   -3.1535    2.4674   -0.9521 C   0  0  0  0  0  0  0  0  0  0  0  0
   -2.8634    3.3945   -0.1987 O   0  0  0  0  0  0  0  0  0  0  0  0
   -4.7883    3.0138   -2.7732 C   0  0  0  0  0  0  0  0  0  0  0  0
   -5.2337    3.4049    0.1551 H   0  0  0  0  0  0  0  0  0  0  0  0
   -4.7192    1.1682   -1.6549 H   0  0  0  0  0  0  0  0  0  0  0  0
   -4.6352    4.0886   -2.6221 H   0  0  0  0  0  0  0  0  0  0  0  0
   -4.0976    2.6887   -3.5582 H   0  0  0  0  0  0  0  0  0  0  0  0
   -5.8111    2.8719   -3.1387 H   0  0  0  0  0  0  0  0  0  0  0  0
   -2.2466    1.5400   -1.4507 N   0  0  0  0  0  0  0  0  0  0  0  0
   -0.8424    1.5707   -1.1286 C   0  0  2  0  0  0  0  0  0  0  0  0
   -0.0425    1.7354   -2.4192 C   0  0  0  0  0  0  0  0  0  0  0  0
    0.4741    2.7990   -2.7557 O   0  0  0  0  0  0  0  0  0  0  0  0
   -0.4091    0.3616   -0.2960 C   0  0  0  0  0  0  0  0  0  0  0  0
   -1.1639    0.2995    1.3469 S   0  0  0  0  0  0  0  0  0  0  0  0
   -2.5850    0.7815   -2.0381 H   0  0  0  0  0  0  0  0  0  0  0  0
   -0.6970    2.4791   -0.5308 H   0  0  0  0  0  0  0  0  0  0  0  0
   -0.6657   -0.5706   -0.8097 H   0  0  0  0  0  0  0  0  0  0  0  0
    0.6774    0.3741   -0.1573 H   0  0  0  0  0  0  0  0  0  0  0  0
    0.0048    0.5633   -3.1605 N   0  0  0  0  0  0  0  0  0  0  0  0
    0.6822    0.4732   -4.4329 C   0  0  2  0  0  0  0  0  0  0  0  0
   -0.0692   -0.5324   -5.2954 C   0  0  0  0  0  0  0  0  0  0  0  0
   -0.6258   -1.5271   -4.8353 O   0  0  0  0  0  0  0  0  0  0  0  0
    2.1354    0.0606   -4.2581 C   0  0  0  0  0  0  0  0  0  0  0  0
   -0.4141   -0.2826   -2.7856 H   0  0  0  0  0  0  0  0  0  0  0  0
    0.6239    1.4655   -4.8932 H   0  0  0  0  0  0  0  0  0  0  0  0
    2.2138   -0.9313   -3.7983 H   0  0  0  0  0  0  0  0  0  0  0  0
    2.6550    0.0205   -5.2211 H   0  0  0  0  0  0  0  0  0  0  0  0
    2.6667    0.7689   -3.6132 H   0  0  0  0  0  0  0  0  0  0  0  0
   -0.0083   -0.2113   -6.6443 N   0  0  0  0  0  0  0  0  0  0  0  0
   -0.6075   -1.0337   -7.6693 C   0  0  0  0  0  0  0  0  0  0  0  0
    0.4399    0.6535   -6.9323 H   0  0  0  0  0  0  0  0  0  0  0  0
    0.1378   -1.7478   -8.0494 H   0  0  0  0  0  0  0  0  0  0  0  0
   -1.4600   -1.5846   -7.2453 H   0  0  0  0  0  0  0  0  0  0  0  0
   -0.9571   -0.3950   -8.4938 H   0  0  0  0  0  0  0  0  0  0  0  0
  1  3  1  0  0  0  0
  1  7  1  0  0  0  0
  1  2  2  0  0  0  0
 23 25  1  0  0  0  0
 23 29  1  0  0  0  0
 23 24  2  0  0  0  0
 50 51  1  0  0  0  0
 51 59  1  0  0  0  0
 51 52  2  0  0  0  0
  8  9  1  0  0  0  0
  9 17  1  0  0  0  0
  9 10  2  0  0  0  0
 30 31  1  0  0  0  0
 31 39  1  0  0  0  0
 31 32  2  0  0  0  0
 40 41  1  0  0  0  0
 41 49  1  0  0  0  0
 41 42  2  0  0  0  0
 50 53  1  0  0  0  0
 30 33  1  0  0  0  0
 59 60  1  0  0  0  0
 17 18  1  0  0  0  0
  8 11  1  0  0  0  0
 11 12  1  0  0  0  0
 40 43  1  0  0  0  0
 43 44  1  0  0  0  0
 49 50  1  0  0  0  0
  7  8  1  0  0  0  0
 29 30  1  0  0  0  0
 39 40  1  0  0  0  0
 12 44  1  0  0  0  0
  3  4  1  0  0  0  0
  3  5  1  0  0  0  0
  3  6  1  0  0  0  0
 25 26  1  0  0  0  0
 25 27  1  0  0  0  0
 25 28  1  0  0  0  0
 53 56  1  0  0  0  0
 53 57  1  0  0  0  0
 53 58  1  0  0  0  0
 33 36  1  0  0  0  0
 33 37  1  0  0  0  0
 33 38  1  0  0  0  0
 60 62  1  0  0  0  0
 60 63  1  0  0  0  0
 60 64  1  0  0  0  0
 18 20  1  0  0  0  0
 18 21  1  0  0  0  0
 18 22  1  0  0  0  0
 11 15  1  0  0  0  0
 11 16  1  0  0  0  0
 43 47  1  0  0  0  0
 43 48  1  0  0  0  0
 50 55  1  0  0  0  0
  8 14  1  0  0  0  0
 30 35  1  0  0  0  0
 40 46  1  0  0  0  0
 59 61  1  0  0  0  0
 17 19  1  0  0  0  0
  7 13  1  0  0  0  0
 29 34  1  0  0  0  0
 49 54  1  0  0  0  0
 39 45  1  0  0  0  0
M  END
$$$$

  -OEChem-05262214473D

 64 63  0     1  0  0  0  0  0999 V2000
   -2.3277   -4.5484    4.2127 C   0  0  0  0  0  0  0  0  0  0  0  0
   -3.4567   -4.7455    3.7790 O   0  0  0  0  0  0  0  0  0  0  0  0
   -2.0756   -4.6461    5.6807 C   0  0  0  0  0  0  0  0  0  0  0  0
   -2.2156   -3.6825    6.1965 H   0  0  0  0  0  0  0  0  0  0  0  0
   -2.7646   -5.3463    6.1799 H   0  0  0  0  0  0  0  0  0  0  0  0
   -1.0655   -4.9824    5.9642 H   0  0  0  0  0  0  0  0  0  0  0  0
   -1.2065   -4.2327    3.4648 N   0  0  0  0  0  0  0  0  0  0  0  0
   -1.2262   -4.0909    2.0309 C   0  0  2  0  0  0  0  0  0  0  0  0
    0.0996   -4.5966    1.4657 C   0  0  0  0  0  0  0  0  0  0  0  0
    1.0421   -4.9414    2.1757 O   0  0  0  0  0  0  0  0  0  0  0  0
   -1.5693   -2.6655    1.5911 C   0  0  0  0  0  0  0  0  0  0  0  0
   -0.3476   -1.4199    2.1187 S   0  0  0  0  0  0  0  0  0  0  0  0
   -0.3240   -4.0937    3.9521 H   0  0  0  0  0  0  0  0  0  0  0  0
   -2.0154   -4.7667    1.6788 H   0  0  0  0  0  0  0  0  0  0  0  0
   -1.6457   -2.6077    0.5004 H   0  0  0  0  0  0  0  0  0  0  0  0
   -2.5389   -2.3701    2.0063 H   0  0  0  0  0  0  0  0  0  0  0  0
    0.1139   -4.5934    0.0782 N   0  0  0  0  0  0  0  0  0  0  0  0
    1.2656   -5.0050   -0.6899 C   0  0  0  0  0  0  0  0  0  0  0  0
   -0.7262   -4.3330   -0.4299 H   0  0  0  0  0  0  0  0  0  0  0  0
    1.8854   -4.1263   -0.9218 H   0  0  0  0  0  0  0  0  0  0  0  0
    1.8564   -5.7266   -0.1067 H   0  0  0  0  0  0  0  0  0  0  0  0
    0.9323   -5.4759   -1.6265 H   0  0  0  0  0  0  0  0  0  0  0  0
   -6.7256    2.0330   -0.2766 C   0  0  0  0  0  0  0  0  0  0  0  0
   -7.1824    1.1039   -0.9322 O   0  0  0  0  0  0  0  0  0  0  0  0
   -7.5276    2.6077    0.8435 C   0  0  0  0  0  0  0  0  0  0  0  0
   -8.1775    3.4344    0.5145 H   0  0  0  0  0  0  0  0  0  0  0  0
   -8.2057    1.8676    1.2980 H   0  0  0  0  0  0  0  0  0  0  0  0
   -6.9411    3.0162    1.6819 H   0  0  0  0  0  0  0  0  0  0  0  0
   -5.4935    2.6382   -0.4627 N   0  0  0  0  0  0  0  0  0  0  0  0
   -4.5619    2.2388   -1.4845 C   0  0  2  0  0  0  0  0  0  0  0  0
   -3.1535    2.4674   -0.9521 C   0  0  0  0  0  0  0  0  0  0  0  0
   -2.8634    3.3945   -0.1987 O   0  0  0  0  0  0  0  0  0  0  0  0
   -4.7883    3.0138   -2.7732 C   0  0  0  0  0  0  0  0  0  0  0  0
   -5.2337    3.4049    0.1551 H   0  0  0  0  0  0  0  0  0  0  0  0
   -4.7192    1.1682   -1.6549 H   0  0  0  0  0  0  0  0  0  0  0  0
   -4.6352    4.0886   -2.6221 H   0  0  0  0  0  0  0  0  0  0  0  0
   -4.0976    2.6887   -3.5582 H   0  0  0  0  0  0  0  0  0  0  0  0
   -5.8111    2.8719   -3.1387 H   0  0  0  0  0  0  0  0  0  0  0  0
   -2.2466    1.5400   -1.4507 N   0  0  0  0  0  0  0  0  0  0  0  0
   -0.8424    1.5707   -1.1286 C   0  0  2  0  0  0  0  0  0  0  0  0
   -0.0425    1.7354   -2.4192 C   0  0  0  0  0  0  0  0  0  0  0  0
    0.6917    2.6978   -2.6338 O   0  0  0  0  0  0  0  0  0  0  0  0
   -0.4091    0.3616   -0.2960 C   0  0  0  0  0  0  0  0  0  0  0  0
   -1.1639    0.2995    1.3469 S   0  0  0  0  0  0  0  0  0  0  0  0
   -2.5850    0.7815   -2.0381 H   0  0  0  0  0  0  0  0  0  0  0  0
   -0.6970    2.4791   -0.5308 H   0  0  0  0  0  0  0  0  0  0  0  0
   -0.6657   -0.5706   -0.8097 H   0  0  0  0  0  0  0  0  0  0  0  0
    0.6774    0.3741   -0.1573 H   0  0  0  0  0  0  0  0  0  0  0  0
   -0.2644    0.6953   -3.3106 N   0  0  0  0  0  0  0  0  0  0  0  0
    0.3599    0.6378   -4.6116 C   0  0  2  0  0  0  0  0  0  0  0  0
   -0.6057   -0.0514   -5.5666 C   0  0  0  0  0  0  0  0  0  0  0  0
   -1.3622   -0.9558   -5.2188 O   0  0  0  0  0  0  0  0  0  0  0  0
    1.6885   -0.1001   -4.5556 C   0  0  0  0  0  0  0  0  0  0  0  0
   -0.8548   -0.0833   -3.0334 H   0  0  0  0  0  0  0  0  0  0  0  0
    0.5162    1.6732   -4.9335 H   0  0  0  0  0  0  0  0  0  0  0  0
    1.5520   -1.1394   -4.2350 H   0  0  0  0  0  0  0  0  0  0  0  0
    2.1741   -0.1180   -5.5369 H   0  0  0  0  0  0  0  0  0  0  0  0
    2.3712    0.3797   -3.8460 H   0  0  0  0  0  0  0  0  0  0  0  0
   -0.4928    0.4327   -6.8624 N   0  0  0  0  0  0  0  0  0  0  0  0
   -1.2718   -0.0899   -7.9606 C   0  0  0  0  0  0  0  0  0  0  0  0
    0.1314    1.2112   -7.0524 H   0  0  0  0  0  0  0  0  0  0  0  0
   -0.7073   -0.8889   -8.4637 H   0  0  0  0  0  0  0  0  0  0  0  0
   -2.2194   -0.4962   -7.5771 H   0  0  0  0  0  0  0  0  0  0  0  0
   -1.4824    0.7174   -8.6775 H   0  0  0  0  0  0  0  0  0  0  0  0
  1  3  1  0  0  0  0
  1  7  1  0  0  0  0
  1  2  2  0  0  0  0
 23 25  1  0  0  0  0
 23 29  1  0  0  0  0
 23 24  2  0  0  0  0
 50 51  1  0  0  0  0
 51 59  1  0  0  0  0
 51 52  2  0  0  0  0
  8  9  1  0  0  0  0
  9 17  1  0  0  0  0
  9 10  2  0  0  0  0
 30 31  1  0  0  0  0
 31 39  1  0  0  0  0
 31 32  2  0  0  0  0
 40 41  1  0  0  0  0
 41 49  1  0  0  0  0
 41 42  2  0  0  0  0
 50 53  1  0  0  0  0
 30 33  1  0  0  0  0
 59 60  1  0  0  0  0
 17 18  1  0  0  0  0
  8 11  1  0  0  0  0
 11 12  1  0  0  0  0
 40 43  1  0  0  0  0
 43 44  1  0  0  0  0
 49 50  1  0  0  0  0
  7  8  1  0  0  0  0
 29 30  1  0  0  0  0
 39 40  1  0  0  0  0
 12 44  1  0  0  0  0
  3  4  1  0  0  0  0
  3  5  1  0  0  0  0
  3  6  1  0  0  0  0
 25 26  1  0  0  0  0
 25 27  1  0  0  0  0
 25 28  1  0  0  0  0
 53 56  1  0  0  0  0
 53 57  1  0  0  0  0
 53 58  1  0  0  0  0
 33 36  1  0  0  0  0
 33 37  1  0  0  0  0
 33 38  1  0  0  0  0
 60 62  1  0  0  0  0
 60 63  1  0  0  0  0
 60 64  1  0  0  0  0
 18 20  1  0  0  0  0
 18 21  1  0  0  0  0
 18 22  1  0  0  0  0
 11 15  1  0  0  0  0
 11 16  1  0  0  0  0
 43 47  1  0  0  0  0
 43 48  1  0  0  0  0
 50 55  1  0  0  0  0
  8 14  1  0  0  0  0
 30 35  1  0  0  0  0
 40 46  1  0  0  0  0
 59 61  1  0  0  0  0
 17 19  1  0  0  0  0
  7 13  1  0  0  0  0
 29 34  1  0  0  0  0
 49 54  1  0  0  0  0
 39 45  1  0  0  0  0
M  END
$$$$

  -OEChem-05262214473D

 64 63  0     1  0  0  0  0  0999 V2000
   -2.3277   -4.5484    4.2127 C   0  0  0  0  0  0  0  0  0  0  0  0
   -3.4567   -4.7455    3.7790 O   0  0  0  0  0  0  0  0  0  0  0  0
   -2.0756   -4.6461    5.6807 C   0  0  0  0  0  0  0  0  0  0  0  0
   -2.2156   -3.6825    6.1965 H   0  0  0  0  0  0  0  0  0  0  0  0
   -2.7646   -5.3463    6.1799 H   0  0  0  0  0  0  0  0  0  0  0  0
   -1.0655   -4.9824    5.9642 H   0  0  0  0  0  0  0  0  0  0  0  0
   -1.2065   -4.2327    3.4648 N   0  0  0  0  0  0  0  0  0  0  0  0
   -1.2262   -4.0909    2.0309 C   0  0  2  0  0  0  0  0  0  0  0  0
    0.0996   -4.5966    1.4657 C   0  0  0  0  0  0  0  0  0  0  0  0
    1.0421   -4.9414    2.1757 O   0  0  0  0  0  0  0  0  0  0  0  0
   -1.5693   -2.6655    1.5911 C   0  0  0  0  0  0  0  0  0  0  0  0
   -0.3476   -1.4199    2.1187 S   0  0  0  0  0  0  0  0  0  0  0  0
   -0.3240   -4.0937    3.9521 H   0  0  0  0  0  0  0  0  0  0  0  0
   -2.0154   -4.7667    1.6788 H   0  0  0  0  0  0  0  0  0  0  0  0
   -1.6457   -2.6077    0.5004 H   0  0  0  0  0  0  0  0  0  0  0  0
   -2.5389   -2.3701    2.0063 H   0  0  0  0  0  0  0  0  0  0  0  0
    0.1139   -4.5934    0.0782 N   0  0  0  0  0  0  0  0  0  0  0  0
    1.2656   -5.0050   -0.6899 C   0  0  0  0  0  0  0  0  0  0  0  0
   -0.7262   -4.3330   -0.4299 H   0  0  0  0  0  0  0  0  0  0  0  0
    1.8854   -4.1263   -0.9218 H   0  0  0  0  0  0  0  0  0  0  0  0
    1.8564   -5.7266   -0.1067 H   0  0  0  0  0  0  0  0  0  0  0  0
    0.9323   -5.4759   -1.6265 H   0  0  0  0  0  0  0  0  0  0  0  0
   -6.7256    2.0330   -0.2766 C   0  0  0  0  0  0  0  0  0  0  0  0
   -7.1824    1.1039   -0.9322 O   0  0  0  0  0  0  0  0  0  0  0  0
   -7.5276    2.6077    0.8435 C   0  0  0  0  0  0  0  0  0  0  0  0
   -8.1775    3.4344    0.5145 H   0  0  0  0  0  0  0  0  0  0  0  0
   -8.2057    1.8676    1.2980 H   0  0  0  0  0  0  0  0  0  0  0  0
   -6.9411    3.0162    1.6819 H   0  0  0  0  0  0  0  0  0  0  0  0
   -5.4935    2.6382   -0.4627 N   0  0  0  0  0  0  0  0  0  0  0  0
   -4.5619    2.2388   -1.4845 C   0  0  2  0  0  0  0  0  0  0  0  0
   -3.1535    2.4674   -0.9521 C   0  0  0  0  0  0  0  0  0  0  0  0
   -2.8634    3.3945   -0.1987 O   0  0  0  0  0  0  0  0  0  0  0  0
   -4.7883    3.0138   -2.7732 C   0  0  0  0  0  0  0  0  0  0  0  0
   -5.2337    3.4049    0.1551 H   0  0  0  0  0  0  0  0  0  0  0  0
   -4.7192    1.1682   -1.6549 H   0  0  0  0  0  0  0  0  0  0  0  0
   -4.6352    4.0886   -2.6221 H   0  0  0  0  0  0  0  0  0  0  0  0
   -4.0976    2.6887   -3.5582 H   0  0  0  0  0  0  0  0  0  0  0  0
   -5.8111    2.8719   -3.1387 H   0  0  0  0  0  0  0  0  0  0  0  0
   -2.2466    1.5400   -1.4507 N   0  0  0  0  0  0  0  0  0  0  0  0
   -0.8424    1.5707   -1.1286 C   0  0  2  0  0  0  0  0  0  0  0  0
   -0.0425    1.7354   -2.4192 C   0  0  0  0  0  0  0  0  0  0  0  0
    0.8831    2.5360   -2.5357 O   0  0  0  0  0  0  0  0  0  0  0  0
   -0.4091    0.3616   -0.2960 C   0  0  0  0  0  0  0  0  0  0  0  0
   -1.1639    0.2995    1.3469 S   0  0  0  0  0  0  0  0  0  0  0  0
   -2.5850    0.7815   -2.0381 H   0  0  0  0  0  0  0  0  0  0  0  0
   -0.6970    2.4791   -0.5308 H   0  0  0  0  0  0  0  0  0  0  0  0
   -0.6657   -0.5706   -0.8097 H   0  0  0  0  0  0  0  0  0  0  0  0
    0.6774    0.3741   -0.1573 H   0  0  0  0  0  0  0  0  0  0  0  0
   -0.4998    0.9021   -3.4301 N   0  0  0  0  0  0  0  0  0  0  0  0
    0.0797    0.8915   -4.7529 C   0  0  2  0  0  0  0  0  0  0  0  0
   -1.0264    0.5673   -5.7484 C   0  0  0  0  0  0  0  0  0  0  0  0
   -1.9592   -0.1908   -5.4913 O   0  0  0  0  0  0  0  0  0  0  0  0
    1.2133   -0.1173   -4.8523 C   0  0  0  0  0  0  0  0  0  0  0  0
   -1.2439    0.2392   -3.2334 H   0  0  0  0  0  0  0  0  0  0  0  0
    0.4564    1.9028   -4.9412 H   0  0  0  0  0  0  0  0  0  0  0  0
    0.8551   -1.1364   -4.6666 H   0  0  0  0  0  0  0  0  0  0  0  0
    1.6703   -0.1038   -5.8473 H   0  0  0  0  0  0  0  0  0  0  0  0
    1.9941    0.1000   -4.1155 H   0  0  0  0  0  0  0  0  0  0  0  0
   -0.8260    1.1903   -6.9723 N   0  0  0  0  0  0  0  0  0  0  0  0
   -1.7152    1.0064   -8.0955 C   0  0  0  0  0  0  0  0  0  0  0  0
   -0.0480    1.8336   -7.0841 H   0  0  0  0  0  0  0  0  0  0  0  0
   -1.3474    0.1818   -8.7238 H   0  0  0  0  0  0  0  0  0  0  0  0
   -2.7240    0.7660   -7.7289 H   0  0  0  0  0  0  0  0  0  0  0  0
   -1.7517    1.9316   -8.6894 H   0  0  0  0  0  0  0  0  0  0  0  0
  1  3  1  0  0  0  0
  1  7  1  0  0  0  0
  1  2  2  0  0  0  0
 23 25  1  0  0  0  0
 23 29  1  0  0  0  0
 23 24  2  0  0  0  0
 50 51  1  0  0  0  0
 51 59  1  0  0  0  0
 51 52  2  0  0  0  0
  8  9  1  0  0  0  0
  9 17  1  0  0  0  0
  9 10  2  0  0  0  0
 30 31  1  0  0  0  0
 31 39  1  0  0  0  0
 31 32  2  0  0  0  0
 40 41  1  0  0  0  0
 41 49  1  0  0  0  0
 41 42  2  0  0  0  0
 50 53  1  0  0  0  0
 30 33  1  0  0  0  0
 59 60  1  0  0  0  0
 17 18  1  0  0  0  0
  8 11  1  0  0  0  0
 11 12  1  0  0  0  0
 40 43  1  0  0  0  0
 43 44  1  0  0  0  0
 49 50  1  0  0  0  0
  7  8  1  0  0  0  0
 29 30  1  0  0  0  0
 39 40  1  0  0  0  0
 12 44  1  0  0  0  0
  3  4  1  0  0  0  0
  3  5  1  0  0  0  0
  3  6  1  0  0  0  0
 25 26  1  0  0  0  0
 25 27  1  0  0  0  0
 25 28  1  0  0  0  0
 53 56  1  0  0  0  0
 53 57  1  0  0  0  0
 53 58  1  0  0  0  0
 33 36  1  0  0  0  0
 33 37  1  0  0  0  0
 33 38  1  0  0  0  0
 60 62  1  0  0  0  0
 60 63  1  0  0  0  0
 60 64  1  0  0  0  0
 18 20  1  0  0  0  0
 18 21  1  0  0  0  0
 18 22  1  0  0  0  0
 11 15  1  0  0  0  0
 11 16  1  0  0  0  0
 43 47  1  0  0  0  0
 43 48  1  0  0  0  0
 50 55  1  0  0  0  0
  8 14  1  0  0  0  0
 30 35  1  0  0  0  0
 40 46  1  0  0  0  0
 59 61  1  0  0  0  0
 17 19  1  0  0  0  0
  7 13  1  0  0  0  0
 29 34  1  0  0  0  0
 49 54  1  0  0  0  0
 39 45  1  0  0  0  0
M  END
$$$$

  -OEChem-05262214473D

 64 63  0     1  0  0  0  0  0999 V2000
   -2.3277   -4.5484    4.2127 C   0  0  0  0  0  0  0  0  0  0  0  0
   -3.4567   -4.7455    3.7790 O   0  0  0  0  0  0  0  0  0  0  0  0
   -2.0756   -4.6461    5.6807 C   0  0  0  0  0  0  0  0  0  0  0  0
   -2.2156   -3.6825    6.1965 H   0  0  0  0  0  0  0  0  0  0  0  0
   -2.7646   -5.3463    6.1799 H   0  0  0  0  0  0  0  0  0  0  0  0
   -1.0655   -4.9824    5.9642 H   0  0  0  0  0  0  0  0  0  0  0  0
   -1.2065   -4.2327    3.4648 N   0  0  0  0  0  0  0  0  0  0  0  0
   -1.2262   -4.0909    2.0309 C   0  0  2  0  0  0  0  0  0  0  0  0
    0.0996   -4.5966    1.4657 C   0  0  0  0  0  0  0  0  0  0  0  0
    1.0421   -4.9414    2.1757 O   0  0  0  0  0  0  0  0  0  0  0  0
   -1.5693   -2.6655    1.5911 C   0  0  0  0  0  0  0  0  0  0  0  0
   -0.3476   -1.4199    2.1187 S   0  0  0  0  0  0  0  0  0  0  0  0
   -0.3240   -4.0937    3.9521 H   0  0  0  0  0  0  0  0  0  0  0  0
   -2.0154   -4.7667    1.6788 H   0  0  0  0  0  0  0  0  0  0  0  0
   -1.6457   -2.6077    0.5004 H   0  0  0  0  0  0  0  0  0  0  0  0
   -2.5389   -2.3701    2.0063 H   0  0  0  0  0  0  0  0  0  0  0  0
    0.1139   -4.5934    0.0782 N   0  0  0  0  0  0  0  0  0  0  0  0
    1.2656   -5.0050   -0.6899 C   0  0  0  0  0  0  0  0  0  0  0  0
   -0.7262   -4.3330   -0.4299 H   0  0  0  0  0  0  0  0  0  0  0  0
    1.8854   -4.1263   -0.9218 H   0  0  0  0  0  0  0  0  0  0  0  0
    1.8564   -5.7266   -0.1067 H   0  0  0  0  0  0  0  0  0  0  0  0
    0.9323   -5.4759   -1.6265 H   0  0  0  0  0  0  0  0  0  0  0  0
   -6.7256    2.0330   -0.2766 C   0  0  0  0  0  0  0  0  0  0  0  0
   -7.1824    1.1039   -0.9322 O   0  0  0  0  0  0  0  0  0  0  0  0
   -7.5276    2.6077    0.8435 C   0  0  0  0  0  0  0  0  0  0  0  0
   -8.1775    3.4344    0.5145 H   0  0  0  0  0  0  0  0  0  0  0  0
   -8.2057    1.8676    1.2980 H   0  0  0  0  0  0  0  0  0  0  0  0
   -6.9411    3.0162    1.6819 H   0  0  0  0  0  0  0  0  0  0  0  0
   -5.4935    2.6382   -0.4627 N   0  0  0  0  0  0  0  0  0  0  0  0
   -4.5619    2.2388   -1.4845 C   0  0  2  0  0  0  0  0  0  0  0  0
   -3.1535    2.4674   -0.9521 C   0  0  0  0  0  0  0  0  0  0  0  0
   -2.8634    3.3945   -0.1987 O   0  0  0  0  0  0  0  0  0  0  0  0
   -4.7883    3.0138   -2.7732 C   0  0  0  0  0  0  0  0  0  0  0  0
   -5.2337    3.4049    0.1551 H   0  0  0  0  0  0  0  0  0  0  0  0
   -4.7192    1.1682   -1.6549 H   0  0  0  0  0  0  0  0  0  0  0  0
   -4.6352    4.0886   -2.6221 H   0  0  0  0  0  0  0  0  0  0  0  0
   -4.0976    2.6887   -3.5582 H   0  0  0  0  0  0  0  0  0  0  0  0
   -5.8111    2.8719   -3.1387 H   0  0  0  0  0  0  0  0  0  0  0  0
   -2.2466    1.5400   -1.4507 N   0  0  0  0  0  0  0  0  0  0  0  0
   -0.8424    1.5707   -1.1286 C   0  0  2  0  0  0  0  0  0  0  0  0
   -0.0425    1.7354   -2.4192 C   0  0  0  0  0  0  0  0  0  0  0  0
    1.0354    2.3246   -2.4683 O   0  0  0  0  0  0  0  0  0  0  0  0
   -0.4091    0.3616   -0.2960 C   0  0  0  0  0  0  0  0  0  0  0  0
   -1.1639    0.2995    1.3469 S   0  0  0  0  0  0  0  0  0  0  0  0
   -2.5850    0.7815   -2.0381 H   0  0  0  0  0  0  0  0  0  0  0  0
   -0.6970    2.4791   -0.5308 H   0  0  0  0  0  0  0  0  0  0  0  0
   -0.6657   -0.5706   -0.8097 H   0  0  0  0  0  0  0  0  0  0  0  0
    0.6774    0.3741   -0.1573 H   0  0  0  0  0  0  0  0  0  0  0  0
   -0.6853    1.1695   -3.5110 N   0  0  0  0  0  0  0  0  0  0  0  0
   -0.1394    1.2171   -4.8472 C   0  0  2  0  0  0  0  0  0  0  0  0
   -1.3024    1.2816   -5.8284 C   0  0  0  0  0  0  0  0  0  0  0  0
   -2.3762    0.7155   -5.6341 O   0  0  0  0  0  0  0  0  0  0  0  0
    0.7423    0.0103   -5.1280 C   0  0  0  0  0  0  0  0  0  0  0  0
   -1.5547    0.6629   -3.3720 H   0  0  0  0  0  0  0  0  0  0  0  0
    0.4487    2.1387   -4.9159 H   0  0  0  0  0  0  0  0  0  0  0  0
    0.1704   -0.9226   -5.0637 H   0  0  0  0  0  0  0  0  0  0  0  0
    1.1783    0.0622   -6.1311 H   0  0  0  0  0  0  0  0  0  0  0  0
    1.5612   -0.0512   -4.4031 H   0  0  0  0  0  0  0  0  0  0  0  0
   -0.9853    2.0099   -6.9665 N   0  0  0  0  0  0  0  0  0  0  0  0
   -1.9074    2.1807   -8.0649 C   0  0  0  0  0  0  0  0  0  0  0  0
   -0.0860    2.4783   -7.0254 H   0  0  0  0  0  0  0  0  0  0  0  0
   -1.7387    1.3912   -8.8121 H   0  0  0  0  0  0  0  0  0  0  0  0
   -2.9397    2.1163   -7.6903 H   0  0  0  0  0  0  0  0  0  0  0  0
   -1.7465    3.1650   -8.5289 H   0  0  0  0  0  0  0  0  0  0  0  0
  1  3  1  0  0  0  0
  1  7  1  0  0  0  0
  1  2  2  0  0  0  0
 23 25  1  0  0  0  0
 23 29  1  0  0  0  0
 23 24  2  0  0  0  0
 50 51  1  0  0  0  0
 51 59  1  0  0  0  0
 51 52  2  0  0  0  0
  8  9  1  0  0  0  0
  9 17  1  0  0  0  0
  9 10  2  0  0  0  0
 30 31  1  0  0  0  0
 31 39  1  0  0  0  0
 31 32  2  0  0  0  0
 40 41  1  0  0  0  0
 41 49  1  0  0  0  0
 41 42  2  0  0  0  0
 50 53  1  0  0  0  0
 30 33  1  0  0  0  0
 59 60  1  0  0  0  0
 17 18  1  0  0  0  0
  8 11  1  0  0  0  0
 11 12  1  0  0  0  0
 40 43  1  0  0  0  0
 43 44  1  0  0  0  0
 49 50  1  0  0  0  0
  7  8  1  0  0  0  0
 29 30  1  0  0  0  0
 39 40  1  0  0  0  0
 12 44  1  0  0  0  0
  3  4  1  0  0  0  0
  3  5  1  0  0  0  0
  3  6  1  0  0  0  0
 25 26  1  0  0  0  0
 25 27  1  0  0  0  0
 25 28  1  0  0  0  0
 53 56  1  0  0  0  0
 53 57  1  0  0  0  0
 53 58  1  0  0  0  0
 33 36  1  0  0  0  0
 33 37  1  0  0  0  0
 33 38  1  0  0  0  0
 60 62  1  0  0  0  0
 60 63  1  0  0  0  0
 60 64  1  0  0  0  0
 18 20  1  0  0  0  0
 18 21  1  0  0  0  0
 18 22  1  0  0  0  0
 11 15  1  0  0  0  0
 11 16  1  0  0  0  0
 43 47  1  0  0  0  0
 43 48  1  0  0  0  0
 50 55  1  0  0  0  0
  8 14  1  0  0  0  0
 30 35  1  0  0  0  0
 40 46  1  0  0  0  0
 59 61  1  0  0  0  0
 17 19  1  0  0  0  0
  7 13  1  0  0  0  0
 29 34  1  0  0  0  0
 49 54  1  0  0  0  0
 39 45  1  0  0  0  0
M  END
$$$$

  -OEChem-05262214473D

 64 63  0     1  0  0  0  0  0999 V2000
   -2.3277   -4.5484    4.2127 C   0  0  0  0  0  0  0  0  0  0  0  0
   -3.4567   -4.7455    3.7790 O   0  0  0  0  0  0  0  0  0  0  0  0
   -2.0756   -4.6461    5.6807 C   0  0  0  0  0  0  0  0  0  0  0  0
   -2.2156   -3.6825    6.1965 H   0  0  0  0  0  0  0  0  0  0  0  0
   -2.7646   -5.3463    6.1799 H   0  0  0  0  0  0  0  0  0  0  0  0
   -1.0655   -4.9824    5.9642 H   0  0  0  0  0  0  0  0  0  0  0  0
   -1.2065   -4.2327    3.4648 N   0  0  0  0  0  0  0  0  0  0  0  0
   -1.2262   -4.0909    2.0309 C   0  0  2  0  0  0  0  0  0  0  0  0
    0.0996   -4.5966    1.4657 C   0  0  0  0  0  0  0  0  0  0  0  0
    1.0421   -4.9414    2.1757 O   0  0  0  0  0  0  0  0  0  0  0  0
   -1.5693   -2.6655    1.5911 C   0  0  0  0  0  0  0  0  0  0  0  0
   -0.3476   -1.4199    2.1187 S   0  0  0  0  0  0  0  0  0  0  0  0
   -0.3240   -4.0937    3.9521 H   0  0  0  0  0  0  0  0  0  0  0  0
   -2.0154   -4.7667    1.6788 H   0  0  0  0  0  0  0  0  0  0  0  0
   -1.6457   -2.6077    0.5004 H   0  0  0  0  0  0  0  0  0  0  0  0
   -2.5389   -2.3701    2.0063 H   0  0  0  0  0  0  0  0  0  0  0  0
    0.1139   -4.5934    0.0782 N   0  0  0  0  0  0  0  0  0  0  0  0
    1.2656   -5.0050   -0.6899 C   0  0  0  0  0  0  0  0  0  0  0  0
   -0.7262   -4.3330   -0.4299 H   0  0  0  0  0  0  0  0  0  0  0  0
    1.8854   -4.1263   -0.9218 H   0  0  0  0  0  0  0  0  0  0  0  0
    1.8564   -5.7266   -0.1067 H   0  0  0  0  0  0  0  0  0  0  0  0
    0.9323   -5.4759   -1.6265 H   0  0  0  0  0  0  0  0  0  0  0  0
   -6.7256    2.0330   -0.2766 C   0  0  0  0  0  0  0  0  0  0  0  0
   -7.1824    1.1039   -0.9322 O   0  0  0  0  0  0  0  0  0  0  0  0
   -7.5276    2.6077    0.8435 C   0  0  0  0  0  0  0  0  0  0  0  0
   -8.1775    3.4344    0.5145 H   0  0  0  0  0  0  0  0  0  0  0  0
   -8.2057    1.8676    1.2980 H   0  0  0  0  0  0  0  0  0  0  0  0
   -6.9411    3.0162    1.6819 H   0  0  0  0  0  0  0  0  0  0  0  0
   -5.4935    2.6382   -0.4627 N   0  0  0  0  0  0  0  0  0  0  0  0
   -4.5619    2.2388   -1.4845 C   0  0  2  0  0  0  0  0  0  0  0  0
   -3.1535    2.4674   -0.9521 C   0  0  0  0  0  0  0  0  0  0  0  0
   -2.8634    3.3945   -0.1987 O   0  0  0  0  0  0  0  0  0  0  0  0
   -4.7883    3.0138   -2.7732 C   0  0  0  0  0  0  0  0  0  0  0  0
   -5.2337    3.4049    0.1551 H   0  0  0  0  0  0  0  0  0  0  0  0
   -4.7192    1.1682   -1.6549 H   0  0  0  0  0  0  0  0  0  0  0  0
   -4.6352    4.0886   -2.6221 H   0  0  0  0  0  0  0  0  0  0  0  0
   -4.0976    2.6887   -3.5582 H   0  0  0  0  0  0  0  0  0  0  0  0
   -5.8111    2.8719   -3.1387 H   0  0  0  0  0  0  0  0  0  0  0  0
   -2.2466    1.5400   -1.4507 N   0  0  0  0  0  0  0  0  0  0  0  0
   -0.8424    1.5707   -1.1286 C   0  0  2  0  0  0  0  0  0  0  0  0
   -0.0425    1.7354   -2.4192 C   0  0  0  0  0  0  0  0  0  0  0  0
    1.1381    2.0779   -2.4362 O   0  0  0  0  0  0  0  0  0  0  0  0
   -0.4091    0.3616   -0.2960 C   0  0  0  0  0  0  0  0  0  0  0  0
   -1.1639    0.2995    1.3469 S   0  0  0  0  0  0  0  0  0  0  0  0
   -2.5850    0.7815   -2.0381 H   0  0  0  0  0  0  0  0  0  0  0  0
   -0.6970    2.4791   -0.5308 H   0  0  0  0  0  0  0  0  0  0  0  0
   -0.6657   -0.5706   -0.8097 H   0  0  0  0  0  0  0  0  0  0  0  0
    0.6774    0.3741   -0.1573 H   0  0  0  0  0  0  0  0  0  0  0  0
   -0.8083    1.4793   -3.5477 N   0  0  0  0  0  0  0  0  0  0  0  0
   -0.2825    1.5922   -4.8880 C   0  0  2  0  0  0  0  0  0  0  0  0
   -1.4151    2.0428   -5.8011 C   0  0  0  0  0  0  0  0  0  0  0  0
   -2.5847    1.7016   -5.6375 O   0  0  0  0  0  0  0  0  0  0  0  0
    0.3076    0.2739   -5.3638 C   0  0  0  0  0  0  0  0  0  0  0  0
   -1.7661    1.1590   -3.4397 H   0  0  0  0  0  0  0  0  0  0  0  0
    0.4935    2.3649   -4.8593 H   0  0  0  0  0  0  0  0  0  0  0  0
   -0.4552   -0.5126   -5.3992 H   0  0  0  0  0  0  0  0  0  0  0  0
    0.7313    0.3686   -6.3691 H   0  0  0  0  0  0  0  0  0  0  0  0
    1.1019   -0.0636   -4.6893 H   0  0  0  0  0  0  0  0  0  0  0  0
   -0.9597    2.8356   -6.8453 N   0  0  0  0  0  0  0  0  0  0  0  0
   -1.8355    3.3528   -7.8707 C   0  0  0  0  0  0  0  0  0  0  0  0
    0.0200    3.1015   -6.8803 H   0  0  0  0  0  0  0  0  0  0  0  0
   -1.8547    2.6570   -8.7225 H   0  0  0  0  0  0  0  0  0  0  0  0
   -2.8516    3.4624   -7.4639 H   0  0  0  0  0  0  0  0  0  0  0  0
   -1.4673    4.3334   -8.2067 H   0  0  0  0  0  0  0  0  0  0  0  0
  1  3  1  0  0  0  0
  1  7  1  0  0  0  0
  1  2  2  0  0  0  0
 23 25  1  0  0  0  0
 23 29  1  0  0  0  0
 23 24  2  0  0  0  0
 50 51  1  0  0  0  0
 51 59  1  0  0  0  0
 51 52  2  0  0  0  0
  8  9  1  0  0  0  0
  9 17  1  0  0  0  0
  9 10  2  0  0  0  0
 30 31  1  0  0  0  0
 31 39  1  0  0  0  0
 31 32  2  0  0  0  0
 40 41  1  0  0  0  0
 41 49  1  0  0  0  0
 41 42  2  0  0  0  0
 50 53  1  0  0  0  0
 30 33  1  0  0  0  0
 59 60  1  0  0  0  0
 17 18  1  0  0  0  0
  8 11  1  0  0  0  0
 11 12  1  0  0  0  0
 40 43  1  0  0  0  0
 43 44  1  0  0  0  0
 49 50  1  0  0  0  0
  7  8  1  0  0  0  0
 29 30  1  0  0  0  0
 39 40  1  0  0  0  0
 12 44  1  0  0  0  0
  3  4  1  0  0  0  0
  3  5  1  0  0  0  0
  3  6  1  0  0  0  0
 25 26  1  0  0  0  0
 25 27  1  0  0  0  0
 25 28  1  0  0  0  0
 53 56  1  0  0  0  0
 53 57  1  0  0  0  0
 53 58  1  0  0  0  0
 33 36  1  0  0  0  0
 33 37  1  0  0  0  0
 33 38  1  0  0  0  0
 60 62  1  0  0  0  0
 60 63  1  0  0  0  0
 60 64  1  0  0  0  0
 18 20  1  0  0  0  0
 18 21  1  0  0  0  0
 18 22  1  0  0  0  0
 11 15  1  0  0  0  0
 11 16  1  0  0  0  0
 43 47  1  0  0  0  0
 43 48  1  0  0  0  0
 50 55  1  0  0  0  0
  8 14  1  0  0  0  0
 30 35  1  0  0  0  0
 40 46  1  0  0  0  0
 59 61  1  0  0  0  0
 17 19  1  0  0  0  0
  7 13  1  0  0  0  0
 29 34  1  0  0  0  0
 49 54  1  0  0  0  0
 39 45  1  0  0  0  0
M  END
$$$$

  -OEChem-05262214473D

 64 63  0     1  0  0  0  0  0999 V2000
   -2.3277   -4.5484    4.2127 C   0  0  0  0  0  0  0  0  0  0  0  0
   -3.4567   -4.7455    3.7790 O   0  0  0  0  0  0  0  0  0  0  0  0
   -2.0756   -4.6461    5.6807 C   0  0  0  0  0  0  0  0  0  0  0  0
   -2.2156   -3.6825    6.1965 H   0  0  0  0  0  0  0  0  0  0  0  0
   -2.7646   -5.3463    6.1799 H   0  0  0  0  0  0  0  0  0  0  0  0
   -1.0655   -4.9824    5.9642 H   0  0  0  0  0  0  0  0  0  0  0  0
   -1.2065   -4.2327    3.4648 N   0  0  0  0  0  0  0  0  0  0  0  0
   -1.2262   -4.0909    2.0309 C   0  0  2  0  0  0  0  0  0  0  0  0
    0.0996   -4.5966    1.4657 C   0  0  0  0  0  0  0  0  0  0  0  0
    1.0421   -4.9414    2.1757 O   0  0  0  0  0  0  0  0  0  0  0  0
   -1.5693   -2.6655    1.5911 C   0  0  0  0  0  0  0  0  0  0  0  0
   -0.3476   -1.4199    2.1187 S   0  0  0  0  0  0  0  0  0  0  0  0
   -0.3240   -4.0937    3.9521 H   0  0  0  0  0  0  0  0  0  0  0  0
   -2.0154   -4.7667    1.6788 H   0  0  0  0  0  0  0  0  0  0  0  0
   -1.6457   -2.6077    0.5004 H   0  0  0  0  0  0  0  0  0  0  0  0
   -2.5389   -2.3701    2.0063 H   0  0  0  0  0  0  0  0  0  0  0  0
    0.1139   -4.5934    0.0782 N   0  0  0  0  0  0  0  0  0  0  0  0
    1.2656   -5.0050   -0.6899 C   0  0  0  0  0  0  0  0  0  0  0  0
   -0.7262   -4.3330   -0.4299 H   0  0  0  0  0  0  0  0  0  0  0  0
    1.8854   -4.1263   -0.9218 H   0  0  0  0  0  0  0  0  0  0  0  0
    1.8564   -5.7266   -0.1067 H   0  0  0  0  0  0  0  0  0  0  0  0
    0.9323   -5.4759   -1.6265 H   0  0  0  0  0  0  0  0  0  0  0  0
   -6.7256    2.0330   -0.2766 C   0  0  0  0  0  0  0  0  0  0  0  0
   -7.1824    1.1039   -0.9322 O   0  0  0  0  0  0  0  0  0  0  0  0
   -7.5276    2.6077    0.8435 C   0  0  0  0  0  0  0  0  0  0  0  0
   -8.1775    3.4344    0.5145 H   0  0  0  0  0  0  0  0  0  0  0  0
   -8.2057    1.8676    1.2980 H   0  0  0  0  0  0  0  0  0  0  0  0
   -6.9411    3.0162    1.6819 H   0  0  0  0  0  0  0  0  0  0  0  0
   -5.4935    2.6382   -0.4627 N   0  0  0  0  0  0  0  0  0  0  0  0
   -4.5619    2.2388   -1.4845 C   0  0  2  0  0  0  0  0  0  0  0  0
   -3.1535    2.4674   -0.9521 C   0  0  0  0  0  0  0  0  0  0  0  0
   -2.8634    3.3945   -0.1987 O   0  0  0  0  0  0  0  0  0  0  0  0
   -4.7883    3.0138   -2.7732 C   0  0  0  0  0  0  0  0  0  0  0  0
   -5.2337    3.4049    0.1551 H   0  0  0  0  0  0  0  0  0  0  0  0
   -4.7192    1.1682   -1.6549 H   0  0  0  0  0  0  0  0  0  0  0  0
   -4.6352    4.0886   -2.6221 H   0  0  0  0  0  0  0  0  0  0  0  0
   -4.0976    2.6887   -3.5582 H   0  0  0  0  0  0  0  0  0  0  0  0
   -5.8111    2.8719   -3.1387 H   0  0  0  0  0  0  0  0  0  0  0  0
   -2.2466    1.5400   -1.4507 N   0  0  0  0  0  0  0  0  0  0  0  0
   -0.8424    1.5707   -1.1286 C   0  0  2  0  0  0  0  0  0  0  0  0
   -0.0425    1.7354   -2.4192 C   0  0  0  0  0  0  0  0  0  0  0  0
    1.1843    1.8128   -2.4414 O   0  0  0  0  0  0  0  0  0  0  0  0
   -0.4091    0.3616   -0.2960 C   0  0  0  0  0  0  0  0  0  0  0  0
   -1.1639    0.2995    1.3469 S   0  0  0  0  0  0  0  0  0  0  0  0
   -2.5850    0.7815   -2.0381 H   0  0  0  0  0  0  0  0  0  0  0  0
   -0.6970    2.4791   -0.5308 H   0  0  0  0  0  0  0  0  0  0  0  0
   -0.6657   -0.5706   -0.8097 H   0  0  0  0  0  0  0  0  0  0  0  0
    0.6774    0.3741   -0.1573 H   0  0  0  0  0  0  0  0  0  0  0  0
   -0.8603    1.8104   -3.5377 N   0  0  0  0  0  0  0  0  0  0  0  0
   -0.3398    1.9914   -4.8726 C   0  0  2  0  0  0  0  0  0  0  0  0
   -1.3567    2.7989   -5.6685 C   0  0  0  0  0  0  0  0  0  0  0  0
   -2.5705    2.7001   -5.5014 O   0  0  0  0  0  0  0  0  0  0  0  0
   -0.0613    0.6555   -5.5438 C   0  0  0  0  0  0  0  0  0  0  0  0
   -1.8638    1.6936   -3.4321 H   0  0  0  0  0  0  0  0  0  0  0  0
    0.5879    2.5659   -4.7752 H   0  0  0  0  0  0  0  0  0  0  0  0
   -0.9791    0.0658   -5.6501 H   0  0  0  0  0  0  0  0  0  0  0  0
    0.3600    0.7946   -6.5449 H   0  0  0  0  0  0  0  0  0  0  0  0
    0.6476    0.0637   -4.9547 H   0  0  0  0  0  0  0  0  0  0  0  0
   -0.7511    3.6111   -6.6170 N   0  0  0  0  0  0  0  0  0  0  0  0
   -1.5042    4.4430   -7.5263 C   0  0  0  0  0  0  0  0  0  0  0  0
    0.2626    3.6605   -6.6586 H   0  0  0  0  0  0  0  0  0  0  0  0
   -1.6874    3.8929   -8.4611 H   0  0  0  0  0  0  0  0  0  0  0  0
   -2.4658    4.7127   -7.0652 H   0  0  0  0  0  0  0  0  0  0  0  0
   -0.9331    5.3573   -7.7450 H   0  0  0  0  0  0  0  0  0  0  0  0
  1  3  1  0  0  0  0
  1  7  1  0  0  0  0
  1  2  2  0  0  0  0
 23 25  1  0  0  0  0
 23 29  1  0  0  0  0
 23 24  2  0  0  0  0
 50 51  1  0  0  0  0
 51 59  1  0  0  0  0
 51 52  2  0  0  0  0
  8  9  1  0  0  0  0
  9 17  1  0  0  0  0
  9 10  2  0  0  0  0
 30 31  1  0  0  0  0
 31 39  1  0  0  0  0
 31 32  2  0  0  0  0
 40 41  1  0  0  0  0
 41 49  1  0  0  0  0
 41 42  2  0  0  0  0
 50 53  1  0  0  0  0
 30 33  1  0  0  0  0
 59 60  1  0  0  0  0
 17 18  1  0  0  0  0
  8 11  1  0  0  0  0
 11 12  1  0  0  0  0
 40 43  1  0  0  0  0
 43 44  1  0  0  0  0
 49 50  1  0  0  0  0
  7  8  1  0  0  0  0
 29 30  1  0  0  0  0
 39 40  1  0  0  0  0
 12 44  1  0  0  0  0
  3  4  1  0  0  0  0
  3  5  1  0  0  0  0
  3  6  1  0  0  0  0
 25 26  1  0  0  0  0
 25 27  1  0  0  0  0
 25 28  1  0  0  0  0
 53 56  1  0  0  0  0
 53 57  1  0  0  0  0
 53 58  1  0  0  0  0
 33 36  1  0  0  0  0
 33 37  1  0  0  0  0
 33 38  1  0  0  0  0
 60 62  1  0  0  0  0
 60 63  1  0  0  0  0
 60 64  1  0  0  0  0
 18 20  1  0  0  0  0
 18 21  1  0  0  0  0
 18 22  1  0  0  0  0
 11 15  1  0  0  0  0
 11 16  1  0  0  0  0
 43 47  1  0  0  0  0
 43 48  1  0  0  0  0
 50 55  1  0  0  0  0
  8 14  1  0  0  0  0
 30 35  1  0  0  0  0
 40 46  1  0  0  0  0
 59 61  1  0  0  0  0
 17 19  1  0  0  0  0
  7 13  1  0  0  0  0
 29 34  1  0  0  0  0
 49 54  1  0  0  0  0
 39 45  1  0  0  0  0
M  END
$$$$

  -OEChem-05262214473D

 64 63  0     1  0  0  0  0  0999 V2000
   -2.3277   -4.5484    4.2127 C   0  0  0  0  0  0  0  0  0  0  0  0
   -3.4567   -4.7455    3.7790 O   0  0  0  0  0  0  0  0  0  0  0  0
   -2.0756   -4.6461    5.6807 C   0  0  0  0  0  0  0  0  0  0  0  0
   -2.2156   -3.6825    6.1965 H   0  0  0  0  0  0  0  0  0  0  0  0
   -2.7646   -5.3463    6.1799 H   0  0  0  0  0  0  0  0  0  0  0  0
   -1.0655   -4.9824    5.9642 H   0  0  0  0  0  0  0  0  0  0  0  0
   -1.2065   -4.2327    3.4648 N   0  0  0  0  0  0  0  0  0  0  0  0
   -1.2262   -4.0909    2.0309 C   0  0  2  0  0  0  0  0  0  0  0  0
    0.0996   -4.5966    1.4657 C   0  0  0  0  0  0  0  0  0  0  0  0
    1.0421   -4.9414    2.1757 O   0  0  0  0  0  0  0  0  0  0  0  0
   -1.5693   -2.6655    1.5911 C   0  0  0  0  0  0  0  0  0  0  0  0
   -0.3476   -1.4199    2.1187 S   0  0  0  0  0  0  0  0  0  0  0  0
   -0.3240   -4.0937    3.9521 H   0  0  0  0  0  0  0  0  0  0  0  0
   -2.0154   -4.7667    1.6788 H   0  0  0  0  0  0  0  0  0  0  0  0
   -1.6457   -2.6077    0.5004 H   0  0  0  0  0  0  0  0  0  0  0  0
   -2.5389   -2.3701    2.0063 H   0  0  0  0  0  0  0  0  0  0  0  0
    0.1139   -4.5934    0.0782 N   0  0  0  0  0  0  0  0  0  0  0  0
    1.2656   -5.0050   -0.6899 C   0  0  0  0  0  0  0  0  0  0  0  0
   -0.7262   -4.3330   -0.4299 H   0  0  0  0  0  0  0  0  0  0  0  0
    1.8854   -4.1263   -0.9218 H   0  0  0  0  0  0  0  0  0  0  0  0
    1.8564   -5.7266   -0.1067 H   0  0  0  0  0  0  0  0  0  0  0  0
    0.9323   -5.4759   -1.6265 H   0  0  0  0  0  0  0  0  0  0  0  0
   -6.7256    2.0330   -0.2766 C   0  0  0  0  0  0  0  0  0  0  0  0
   -7.1824    1.1039   -0.9322 O   0  0  0  0  0  0  0  0  0  0  0  0
   -7.5276    2.6077    0.8435 C   0  0  0  0  0  0  0  0  0  0  0  0
   -8.1775    3.4344    0.5145 H   0  0  0  0  0  0  0  0  0  0  0  0
   -8.2057    1.8676    1.2980 H   0  0  0  0  0  0  0  0  0  0  0  0
   -6.9411    3.0162    1.6819 H   0  0  0  0  0  0  0  0  0  0  0  0
   -5.4935    2.6382   -0.4627 N   0  0  0  0  0  0  0  0  0  0  0  0
   -4.5619    2.2388   -1.4845 C   0  0  2  0  0  0  0  0  0  0  0  0
   -3.1535    2.4674   -0.9521 C   0  0  0  0  0  0  0  0  0  0  0  0
   -2.8634    3.3945   -0.1987 O   0  0  0  0  0  0  0  0  0  0  0  0
   -4.7883    3.0138   -2.7732 C   0  0  0  0  0  0  0  0  0  0  0  0
   -5.2337    3.4049    0.1551 H   0  0  0  0  0  0  0  0  0  0  0  0
   -4.7192    1.1682   -1.6549 H   0  0  0  0  0  0  0  0  0  0  0  0
   -4.6352    4.0886   -2.6221 H   0  0  0  0  0  0  0  0  0  0  0  0
   -4.0976    2.6887   -3.5582 H   0  0  0  0  0  0  0  0  0  0  0  0
   -5.8111    2.8719   -3.1387 H   0  0  0  0  0  0  0  0  0  0  0  0
   -2.2466    1.5400   -1.4507 N   0  0  0  0  0  0  0  0  0  0  0  0
   -0.8424    1.5707   -1.1286 C   0  0  2  0  0  0  0  0  0  0  0  0
   -0.0425    1.7354   -2.4192 C   0  0  0  0  0  0  0  0  0  0  0  0
    1.1707    1.5473   -2.4836 O   0  0  0  0  0  0  0  0  0  0  0  0
   -0.4091    0.3616   -0.2960 C   0  0  0  0  0  0  0  0  0  0  0  0
   -1.1639    0.2995    1.3469 S   0  0  0  0  0  0  0  0  0  0  0  0
   -2.5850    0.7815   -2.0381 H   0  0  0  0  0  0  0  0  0  0  0  0
   -0.6970    2.4791   -0.5308 H   0  0  0  0  0  0  0  0  0  0  0  0
   -0.6657   -0.5706   -0.8097 H   0  0  0  0  0  0  0  0  0  0  0  0
    0.6774    0.3741   -0.1573 H   0  0  0  0  0  0  0  0  0  0  0  0
   -0.8379    2.1403   -3.4817 N   0  0  0  0  0  0  0  0  0  0  0  0
   -0.3074    2.3875   -4.8020 C   0  0  2  0  0  0  0  0  0  0  0  0
   -1.1312    3.4986   -5.4394 C   0  0  0  0  0  0  0  0  0  0  0  0
   -2.3347    3.6430   -5.2349 O   0  0  0  0  0  0  0  0  0  0  0  0
   -0.3391    1.1292   -5.6556 C   0  0  0  0  0  0  0  0  0  0  0  0
   -1.8409    2.2303   -3.3494 H   0  0  0  0  0  0  0  0  0  0  0  0
    0.7253    2.7279   -4.6693 H   0  0  0  0  0  0  0  0  0  0  0  0
   -1.3658    0.7731   -5.7995 H   0  0  0  0  0  0  0  0  0  0  0  0
    0.0896    1.3111   -6.6466 H   0  0  0  0  0  0  0  0  0  0  0  0
    0.2292    0.3220   -5.1811 H   0  0  0  0  0  0  0  0  0  0  0  0
   -0.3735    4.2836   -6.2972 N   0  0  0  0  0  0  0  0  0  0  0  0
   -0.9362    5.3768   -7.0550 C   0  0  0  0  0  0  0  0  0  0  0  0
    0.6255    4.1174   -6.3754 H   0  0  0  0  0  0  0  0  0  0  0  0
   -1.2482    5.0146   -8.0457 H   0  0  0  0  0  0  0  0  0  0  0  0
   -1.8086    5.7820   -6.5214 H   0  0  0  0  0  0  0  0  0  0  0  0
   -0.1803    6.1669   -7.1750 H   0  0  0  0  0  0  0  0  0  0  0  0
  1  3  1  0  0  0  0
  1  7  1  0  0  0  0
  1  2  2  0  0  0  0
 23 25  1  0  0  0  0
 23 29  1  0  0  0  0
 23 24  2  0  0  0  0
 50 51  1  0  0  0  0
 51 59  1  0  0  0  0
 51 52  2  0  0  0  0
  8  9  1  0  0  0  0
  9 17  1  0  0  0  0
  9 10  2  0  0  0  0
 30 31  1  0  0  0  0
 31 39  1  0  0  0  0
 31 32  2  0  0  0  0
 40 41  1  0  0  0  0
 41 49  1  0  0  0  0
 41 42  2  0  0  0  0
 50 53  1  0  0  0  0
 30 33  1  0  0  0  0
 59 60  1  0  0  0  0
 17 18  1  0  0  0  0
  8 11  1  0  0  0  0
 11 12  1  0  0  0  0
 40 43  1  0  0  0  0
 43 44  1  0  0  0  0
 49 50  1  0  0  0  0
  7  8  1  0  0  0  0
 29 30  1  0  0  0  0
 39 40  1  0  0  0  0
 12 44  1  0  0  0  0
  3  4  1  0  0  0  0
  3  5  1  0  0  0  0
  3  6  1  0  0  0  0
 25 26  1  0  0  0  0
 25 27  1  0  0  0  0
 25 28  1  0  0  0  0
 53 56  1  0  0  0  0
 53 57  1  0  0  0  0
 53 58  1  0  0  0  0
 33 36  1  0  0  0  0
 33 37  1  0  0  0  0
 33 38  1  0  0  0  0
 60 62  1  0  0  0  0
 60 63  1  0  0  0  0
 60 64  1  0  0  0  0
 18 20  1  0  0  0  0
 18 21  1  0  0  0  0
 18 22  1  0  0  0  0
 11 15  1  0  0  0  0
 11 16  1  0  0  0  0
 43 47  1  0  0  0  0
 43 48  1  0  0  0  0
 50 55  1  0  0  0  0
  8 14  1  0  0  0  0
 30 35  1  0  0  0  0
 40 46  1  0  0  0  0
 59 61  1  0  0  0  0
 17 19  1  0  0  0  0
  7 13  1  0  0  0  0
 29 34  1  0  0  0  0
 49 54  1  0  0  0  0
 39 45  1  0  0  0  0
M  END
$$$$

  -OEChem-05262214473D

 64 63  0     1  0  0  0  0  0999 V2000
   -2.3277   -4.5484    4.2127 C   0  0  0  0  0  0  0  0  0  0  0  0
   -3.4567   -4.7455    3.7790 O   0  0  0  0  0  0  0  0  0  0  0  0
   -2.0756   -4.6461    5.6807 C   0  0  0  0  0  0  0  0  0  0  0  0
   -2.2156   -3.6825    6.1965 H   0  0  0  0  0  0  0  0  0  0  0  0
   -2.7646   -5.3463    6.1799 H   0  0  0  0  0  0  0  0  0  0  0  0
   -1.0655   -4.9824    5.9642 H   0  0  0  0  0  0  0  0  0  0  0  0
   -1.2065   -4.2327    3.4648 N   0  0  0  0  0  0  0  0  0  0  0  0
   -1.2262   -4.0909    2.0309 C   0  0  2  0  0  0  0  0  0  0  0  0
    0.0996   -4.5966    1.4657 C   0  0  0  0  0  0  0  0  0  0  0  0
    1.0421   -4.9414    2.1757 O   0  0  0  0  0  0  0  0  0  0  0  0
   -1.5693   -2.6655    1.5911 C   0  0  0  0  0  0  0  0  0  0  0  0
   -0.3476   -1.4199    2.1187 S   0  0  0  0  0  0  0  0  0  0  0  0
   -0.3240   -4.0937    3.9521 H   0  0  0  0  0  0  0  0  0  0  0  0
   -2.0154   -4.7667    1.6788 H   0  0  0  0  0  0  0  0  0  0  0  0
   -1.6457   -2.6077    0.5004 H   0  0  0  0  0  0  0  0  0  0  0  0
   -2.5389   -2.3701    2.0063 H   0  0  0  0  0  0  0  0  0  0  0  0
    0.1139   -4.5934    0.0782 N   0  0  0  0  0  0  0  0  0  0  0  0
    1.2656   -5.0050   -0.6899 C   0  0  0  0  0  0  0  0  0  0  0  0
   -0.7262   -4.3330   -0.4299 H   0  0  0  0  0  0  0  0  0  0  0  0
    1.8854   -4.1263   -0.9218 H   0  0  0  0  0  0  0  0  0  0  0  0
    1.8564   -5.7266   -0.1067 H   0  0  0  0  0  0  0  0  0  0  0  0
    0.9323   -5.4759   -1.6265 H   0  0  0  0  0  0  0  0  0  0  0  0
   -6.7256    2.0330   -0.2766 C   0  0  0  0  0  0  0  0  0  0  0  0
   -7.1824    1.1039   -0.9322 O   0  0  0  0  0  0  0  0  0  0  0  0
   -7.5276    2.6077    0.8435 C   0  0  0  0  0  0  0  0  0  0  0  0
   -8.1775    3.4344    0.5145 H   0  0  0  0  0  0  0  0  0  0  0  0
   -8.2057    1.8676    1.2980 H   0  0  0  0  0  0  0  0  0  0  0  0
   -6.9411    3.0162    1.6819 H   0  0  0  0  0  0  0  0  0  0  0  0
   -5.4935    2.6382   -0.4627 N   0  0  0  0  0  0  0  0  0  0  0  0
   -4.5619    2.2388   -1.4845 C   0  0  2  0  0  0  0  0  0  0  0  0
   -3.1535    2.4674   -0.9521 C   0  0  0  0  0  0  0  0  0  0  0  0
   -2.8634    3.3945   -0.1987 O   0  0  0  0  0  0  0  0  0  0  0  0
   -4.7883    3.0138   -2.7732 C   0  0  0  0  0  0  0  0  0  0  0  0
   -5.2337    3.4049    0.1551 H   0  0  0  0  0  0  0  0  0  0  0  0
   -4.7192    1.1682   -1.6549 H   0  0  0  0  0  0  0  0  0  0  0  0
   -4.6352    4.0886   -2.6221 H   0  0  0  0  0  0  0  0  0  0  0  0
   -4.0976    2.6887   -3.5582 H   0  0  0  0  0  0  0  0  0  0  0  0
   -5.8111    2.8719   -3.1387 H   0  0  0  0  0  0  0  0  0  0  0  0
   -2.2466    1.5400   -1.4507 N   0  0  0  0  0  0  0  0  0  0  0  0
   -0.8424    1.5707   -1.1286 C   0  0  2  0  0  0  0  0  0  0  0  0
   -0.0425    1.7354   -2.4192 C   0  0  0  0  0  0  0  0  0  0  0  0
    1.0984    1.2996   -2.5601 O   0  0  0  0  0  0  0  0  0  0  0  0
   -0.4091    0.3616   -0.2960 C   0  0  0  0  0  0  0  0  0  0  0  0
   -1.1639    0.2995    1.3469 S   0  0  0  0  0  0  0  0  0  0  0  0
   -2.5850    0.7815   -2.0381 H   0  0  0  0  0  0  0  0  0  0  0  0
   -0.6970    2.4791   -0.5308 H   0  0  0  0  0  0  0  0  0  0  0  0
   -0.6657   -0.5706   -0.8097 H   0  0  0  0  0  0  0  0  0  0  0  0
    0.6774    0.3741   -0.1573 H   0  0  0  0  0  0  0  0  0  0  0  0
   -0.7425    2.4464   -3.3835 N   0  0  0  0  0  0  0  0  0  0  0  0
   -0.1875    2.7534   -4.6810 C   0  0  2  0  0  0  0  0  0  0  0  0
   -0.7540    4.0940   -5.1297 C   0  0  0  0  0  0  0  0  0  0  0  0
   -1.8933    4.4661   -4.8563 O   0  0  0  0  0  0  0  0  0  0  0  0
   -0.5070    1.6627   -5.6916 C   0  0  0  0  0  0  0  0  0  0  0  0
   -1.6992    2.7325   -3.1975 H   0  0  0  0  0  0  0  0  0  0  0  0
    0.8965    2.8401   -4.5489 H   0  0  0  0  0  0  0  0  0  0  0  0
   -1.5887    1.5611   -5.8372 H   0  0  0  0  0  0  0  0  0  0  0  0
   -0.0615    1.8830   -6.6673 H   0  0  0  0  0  0  0  0  0  0  0  0
   -0.1248    0.6937   -5.3531 H   0  0  0  0  0  0  0  0  0  0  0  0
    0.1471    4.8073   -5.9076 N   0  0  0  0  0  0  0  0  0  0  0  0
   -0.1701    6.0908   -6.4891 C   0  0  0  0  0  0  0  0  0  0  0  0
    1.0838    4.4410   -6.0500 H   0  0  0  0  0  0  0  0  0  0  0  0
   -0.5670    5.9457   -7.5047 H   0  0  0  0  0  0  0  0  0  0  0  0
   -0.9247    6.5974   -5.8696 H   0  0  0  0  0  0  0  0  0  0  0  0
    0.7399    6.7070   -6.5358 H   0  0  0  0  0  0  0  0  0  0  0  0
  1  3  1  0  0  0  0
  1  7  1  0  0  0  0
  1  2  2  0  0  0  0
 23 25  1  0  0  0  0
 23 29  1  0  0  0  0
 23 24  2  0  0  0  0
 50 51  1  0  0  0  0
 51 59  1  0  0  0  0
 51 52  2  0  0  0  0
  8  9  1  0  0  0  0
  9 17  1  0  0  0  0
  9 10  2  0  0  0  0
 30 31  1  0  0  0  0
 31 39  1  0  0  0  0
 31 32  2  0  0  0  0
 40 41  1  0  0  0  0
 41 49  1  0  0  0  0
 41 42  2  0  0  0  0
 50 53  1  0  0  0  0
 30 33  1  0  0  0  0
 59 60  1  0  0  0  0
 17 18  1  0  0  0  0
  8 11  1  0  0  0  0
 11 12  1  0  0  0  0
 40 43  1  0  0  0  0
 43 44  1  0  0  0  0
 49 50  1  0  0  0  0
  7  8  1  0  0  0  0
 29 30  1  0  0  0  0
 39 40  1  0  0  0  0
 12 44  1  0  0  0  0
  3  4  1  0  0  0  0
  3  5  1  0  0  0  0
  3  6  1  0  0  0  0
 25 26  1  0  0  0  0
 25 27  1  0  0  0  0
 25 28  1  0  0  0  0
 53 56  1  0  0  0  0
 53 57  1  0  0  0  0
 53 58  1  0  0  0  0
 33 36  1  0  0  0  0
 33 37  1  0  0  0  0
 33 38  1  0  0  0  0
 60 62  1  0  0  0  0
 60 63  1  0  0  0  0
 60 64  1  0  0  0  0
 18 20  1  0  0  0  0
 18 21  1  0  0  0  0
 18 22  1  0  0  0  0
 11 15  1  0  0  0  0
 11 16  1  0  0  0  0
 43 47  1  0  0  0  0
 43 48  1  0  0  0  0
 50 55  1  0  0  0  0
  8 14  1  0  0  0  0
 30 35  1  0  0  0  0
 40 46  1  0  0  0  0
 59 61  1  0  0  0  0
 17 19  1  0  0  0  0
  7 13  1  0  0  0  0
 29 34  1  0  0  0  0
 49 54  1  0  0  0  0
 39 45  1  0  0  0  0
M  END
$$$$

  -OEChem-05262214473D

 64 63  0     1  0  0  0  0  0999 V2000
   -2.3277   -4.5484    4.2127 C   0  0  0  0  0  0  0  0  0  0  0  0
   -3.4567   -4.7455    3.7790 O   0  0  0  0  0  0  0  0  0  0  0  0
   -2.0756   -4.6461    5.6807 C   0  0  0  0  0  0  0  0  0  0  0  0
   -2.2156   -3.6825    6.1965 H   0  0  0  0  0  0  0  0  0  0  0  0
   -2.7646   -5.3463    6.1799 H   0  0  0  0  0  0  0  0  0  0  0  0
   -1.0655   -4.9824    5.9642 H   0  0  0  0  0  0  0  0  0  0  0  0
   -1.2065   -4.2327    3.4648 N   0  0  0  0  0  0  0  0  0  0  0  0
   -1.2262   -4.0909    2.0309 C   0  0  2  0  0  0  0  0  0  0  0  0
    0.0996   -4.5966    1.4657 C   0  0  0  0  0  0  0  0  0  0  0  0
    1.0421   -4.9414    2.1757 O   0  0  0  0  0  0  0  0  0  0  0  0
   -1.5693   -2.6655    1.5911 C   0  0  0  0  0  0  0  0  0  0  0  0
   -0.3476   -1.4199    2.1187 S   0  0  0  0  0  0  0  0  0  0  0  0
   -0.3240   -4.0937    3.9521 H   0  0  0  0  0  0  0  0  0  0  0  0
   -2.0154   -4.7667    1.6788 H   0  0  0  0  0  0  0  0  0  0  0  0
   -1.6457   -2.6077    0.5004 H   0  0  0  0  0  0  0  0  0  0  0  0
   -2.5389   -2.3701    2.0063 H   0  0  0  0  0  0  0  0  0  0  0  0
    0.1139   -4.5934    0.0782 N   0  0  0  0  0  0  0  0  0  0  0  0
    1.2656   -5.0050   -0.6899 C   0  0  0  0  0  0  0  0  0  0  0  0
   -0.7262   -4.3330   -0.4299 H   0  0  0  0  0  0  0  0  0  0  0  0
    1.8854   -4.1263   -0.9218 H   0  0  0  0  0  0  0  0  0  0  0  0
    1.8564   -5.7266   -0.1067 H   0  0  0  0  0  0  0  0  0  0  0  0
    0.9323   -5.4759   -1.6265 H   0  0  0  0  0  0  0  0  0  0  0  0
   -6.7256    2.0330   -0.2766 C   0  0  0  0  0  0  0  0  0  0  0  0
   -7.1824    1.1039   -0.9322 O   0  0  0  0  0  0  0  0  0  0  0  0
   -7.5276    2.6077    0.8435 C   0  0  0  0  0  0  0  0  0  0  0  0
   -8.1775    3.4344    0.5145 H   0  0  0  0  0  0  0  0  0  0  0  0
   -8.2057    1.8676    1.2980 H   0  0  0  0  0  0  0  0  0  0  0  0
   -6.9411    3.0162    1.6819 H   0  0  0  0  0  0  0  0  0  0  0  0
   -5.4935    2.6382   -0.4627 N   0  0  0  0  0  0  0  0  0  0  0  0
   -4.5619    2.2388   -1.4845 C   0  0  2  0  0  0  0  0  0  0  0  0
   -3.1535    2.4674   -0.9521 C   0  0  0  0  0  0  0  0  0  0  0  0
   -2.8634    3.3945   -0.1987 O   0  0  0  0  0  0  0  0  0  0  0  0
   -4.7883    3.0138   -2.7732 C   0  0  0  0  0  0  0  0  0  0  0  0
   -5.2337    3.4049    0.1551 H   0  0  0  0  0  0  0  0  0  0  0  0
   -4.7192    1.1682   -1.6549 H   0  0  0  0  0  0  0  0  0  0  0  0
   -4.6352    4.0886   -2.6221 H   0  0  0  0  0  0  0  0  0  0  0  0
   -4.0976    2.6887   -3.5582 H   0  0  0  0  0  0  0  0  0  0  0  0
   -5.8111    2.8719   -3.1387 H   0  0  0  0  0  0  0  0  0  0  0  0
   -2.2466    1.5400   -1.4507 N   0  0  0  0  0  0  0  0  0  0  0  0
   -0.8424    1.5707   -1.1286 C   0  0  2  0  0  0  0  0  0  0  0  0
   -0.0425    1.7354   -2.4192 C   0  0  0  0  0  0  0  0  0  0  0  0
    0.9723    1.0865   -2.6654 O   0  0  0  0  0  0  0  0  0  0  0  0
   -0.4091    0.3616   -0.2960 C   0  0  0  0  0  0  0  0  0  0  0  0
   -1.1639    0.2995    1.3469 S   0  0  0  0  0  0  0  0  0  0  0  0
   -2.5850    0.7815   -2.0381 H   0  0  0  0  0  0  0  0  0  0  0  0
   -0.6970    2.4791   -0.5308 H   0  0  0  0  0  0  0  0  0  0  0  0
   -0.6657   -0.5706   -0.8097 H   0  0  0  0  0  0  0  0  0  0  0  0
    0.6774    0.3741   -0.1573 H   0  0  0  0  0  0  0  0  0  0  0  0
   -0.5807    2.7080   -3.2498 N   0  0  0  0  0  0  0  0  0  0  0  0
    0.0116    3.0642   -4.5179 C   0  0  2  0  0  0  0  0  0  0  0  0
   -0.2508    4.5447   -4.7603 C   0  0  0  0  0  0  0  0  0  0  0  0
   -1.2763    5.1133   -4.3912 O   0  0  0  0  0  0  0  0  0  0  0  0
   -0.5535    2.2197   -5.6493 C   0  0  0  0  0  0  0  0  0  0  0  0
   -1.4482    3.1660   -2.9867 H   0  0  0  0  0  0  0  0  0  0  0  0
    1.0897    2.8946   -4.4222 H   0  0  0  0  0  0  0  0  0  0  0  0
   -1.6327    2.3761   -5.7605 H   0  0  0  0  0  0  0  0  0  0  0  0
   -0.0829    2.4712   -6.6055 H   0  0  0  0  0  0  0  0  0  0  0  0
   -0.3902    1.1534   -5.4589 H   0  0  0  0  0  0  0  0  0  0  0  0
    0.7755    5.1465   -5.4749 N   0  0  0  0  0  0  0  0  0  0  0  0
    0.7418    6.5361   -5.8671 C   0  0  0  0  0  0  0  0  0  0  0  0
    1.6063    4.6092   -5.7047 H   0  0  0  0  0  0  0  0  0  0  0  0
    0.3097    6.6228   -6.8749 H   0  0  0  0  0  0  0  0  0  0  0  0
    0.1256    7.1034   -5.1540 H   0  0  0  0  0  0  0  0  0  0  0  0
    1.7647    6.9408   -5.8708 H   0  0  0  0  0  0  0  0  0  0  0  0
  1  3  1  0  0  0  0
  1  7  1  0  0  0  0
  1  2  2  0  0  0  0
 23 25  1  0  0  0  0
 23 29  1  0  0  0  0
 23 24  2  0  0  0  0
 50 51  1  0  0  0  0
 51 59  1  0  0  0  0
 51 52  2  0  0  0  0
  8  9  1  0  0  0  0
  9 17  1  0  0  0  0
  9 10  2  0  0  0  0
 30 31  1  0  0  0  0
 31 39  1  0  0  0  0
 31 32  2  0  0  0  0
 40 41  1  0  0  0  0
 41 49  1  0  0  0  0
 41 42  2  0  0  0  0
 50 53  1  0  0  0  0
 30 33  1  0  0  0  0
 59 60  1  0  0  0  0
 17 18  1  0  0  0  0
  8 11  1  0  0  0  0
 11 12  1  0  0  0  0
 40 43  1  0  0  0  0
 43 44  1  0  0  0  0
 49 50  1  0  0  0  0
  7  8  1  0  0  0  0
 29 30  1  0  0  0  0
 39 40  1  0  0  0  0
 12 44  1  0  0  0  0
  3  4  1  0  0  0  0
  3  5  1  0  0  0  0
  3  6  1  0  0  0  0
 25 26  1  0  0  0  0
 25 27  1  0  0  0  0
 25 28  1  0  0  0  0
 53 56  1  0  0  0  0
 53 57  1  0  0  0  0
 53 58  1  0  0  0  0
 33 36  1  0  0  0  0
 33 37  1  0  0  0  0
 33 38  1  0  0  0  0
 60 62  1  0  0  0  0
 60 63  1  0  0  0  0
 60 64  1  0  0  0  0
 18 20  1  0  0  0  0
 18 21  1  0  0  0  0
 18 22  1  0  0  0  0
 11 15  1  0  0  0  0
 11 16  1  0  0  0  0
 43 47  1  0  0  0  0
 43 48  1  0  0  0  0
 50 55  1  0  0  0  0
  8 14  1  0  0  0  0
 30 35  1  0  0  0  0
 40 46  1  0  0  0  0
 59 61  1  0  0  0  0
 17 19  1  0  0  0  0
  7 13  1  0  0  0  0
 29 34  1  0  0  0  0
 49 54  1  0  0  0  0
 39 45  1  0  0  0  0
M  END
$$$$

  -OEChem-05262214473D

 64 63  0     1  0  0  0  0  0999 V2000
   -2.3277   -4.5484    4.2127 C   0  0  0  0  0  0  0  0  0  0  0  0
   -3.4567   -4.7455    3.7790 O   0  0  0  0  0  0  0  0  0  0  0  0
   -2.0756   -4.6461    5.6807 C   0  0  0  0  0  0  0  0  0  0  0  0
   -2.2156   -3.6825    6.1965 H   0  0  0  0  0  0  0  0  0  0  0  0
   -2.7646   -5.3463    6.1799 H   0  0  0  0  0  0  0  0  0  0  0  0
   -1.0655   -4.9824    5.9642 H   0  0  0  0  0  0  0  0  0  0  0  0
   -1.2065   -4.2327    3.4648 N   0  0  0  0  0  0  0  0  0  0  0  0
   -1.2262   -4.0909    2.0309 C   0  0  2  0  0  0  0  0  0  0  0  0
    0.0996   -4.5966    1.4657 C   0  0  0  0  0  0  0  0  0  0  0  0
    1.0421   -4.9414    2.1757 O   0  0  0  0  0  0  0  0  0  0  0  0
   -1.5693   -2.6655    1.5911 C   0  0  0  0  0  0  0  0  0  0  0  0
   -0.3476   -1.4199    2.1187 S   0  0  0  0  0  0  0  0  0  0  0  0
   -0.3240   -4.0937    3.9521 H   0  0  0  0  0  0  0  0  0  0  0  0
   -2.0154   -4.7667    1.6788 H   0  0  0  0  0  0  0  0  0  0  0  0
   -1.6457   -2.6077    0.5004 H   0  0  0  0  0  0  0  0  0  0  0  0
   -2.5389   -2.3701    2.0063 H   0  0  0  0  0  0  0  0  0  0  0  0
    0.1139   -4.5934    0.0782 N   0  0  0  0  0  0  0  0  0  0  0  0
    1.2656   -5.0050   -0.6899 C   0  0  0  0  0  0  0  0  0  0  0  0
   -0.7262   -4.3330   -0.4299 H   0  0  0  0  0  0  0  0  0  0  0  0
    1.8854   -4.1263   -0.9218 H   0  0  0  0  0  0  0  0  0  0  0  0
    1.8564   -5.7266   -0.1067 H   0  0  0  0  0  0  0  0  0  0  0  0
    0.9323   -5.4759   -1.6265 H   0  0  0  0  0  0  0  0  0  0  0  0
   -6.7256    2.0330   -0.2766 C   0  0  0  0  0  0  0  0  0  0  0  0
   -7.1824    1.1039   -0.9322 O   0  0  0  0  0  0  0  0  0  0  0  0
   -7.5276    2.6077    0.8435 C   0  0  0  0  0  0  0  0  0  0  0  0
   -8.1775    3.4344    0.5145 H   0  0  0  0  0  0  0  0  0  0  0  0
   -8.2057    1.8676    1.2980 H   0  0  0  0  0  0  0  0  0  0  0  0
   -6.9411    3.0162    1.6819 H   0  0  0  0  0  0  0  0  0  0  0  0
   -5.4935    2.6382   -0.4627 N   0  0  0  0  0  0  0  0  0  0  0  0
   -4.5619    2.2388   -1.4845 C   0  0  2  0  0  0  0  0  0  0  0  0
   -3.1535    2.4674   -0.9521 C   0  0  0  0  0  0  0  0  0  0  0  0
   -2.8634    3.3945   -0.1987 O   0  0  0  0  0  0  0  0  0  0  0  0
   -4.7883    3.0138   -2.7732 C   0  0  0  0  0  0  0  0  0  0  0  0
   -5.2337    3.4049    0.1551 H   0  0  0  0  0  0  0  0  0  0  0  0
   -4.7192    1.1682   -1.6549 H   0  0  0  0  0  0  0  0  0  0  0  0
   -4.6352    4.0886   -2.6221 H   0  0  0  0  0  0  0  0  0  0  0  0
   -4.0976    2.6887   -3.5582 H   0  0  0  0  0  0  0  0  0  0  0  0
   -5.8111    2.8719   -3.1387 H   0  0  0  0  0  0  0  0  0  0  0  0
   -2.2466    1.5400   -1.4507 N   0  0  0  0  0  0  0  0  0  0  0  0
   -0.8424    1.5707   -1.1286 C   0  0  2  0  0  0  0  0  0  0  0  0
   -0.0425    1.7354   -2.4192 C   0  0  0  0  0  0  0  0  0  0  0  0
    0.8008    0.9225   -2.7926 O   0  0  0  0  0  0  0  0  0  0  0  0
   -0.4091    0.3616   -0.2960 C   0  0  0  0  0  0  0  0  0  0  0  0
   -1.1639    0.2995    1.3469 S   0  0  0  0  0  0  0  0  0  0  0  0
   -2.5850    0.7815   -2.0381 H   0  0  0  0  0  0  0  0  0  0  0  0
   -0.6970    2.4791   -0.5308 H   0  0  0  0  0  0  0  0  0  0  0  0
   -0.6657   -0.5706   -0.8097 H   0  0  0  0  0  0  0  0  0  0  0  0
    0.6774    0.3741   -0.1573 H   0  0  0  0  0  0  0  0  0  0  0  0
   -0.3635    2.9071   -3.0898 N   0  0  0  0  0  0  0  0  0  0  0  0
    0.2766    3.2987   -4.3238 C   0  0  2  0  0  0  0  0  0  0  0  0
    0.3441    4.8198   -4.3564 C   0  0  0  0  0  0  0  0  0  0  0  0
   -0.5258    5.5405   -3.8716 O   0  0  0  0  0  0  0  0  0  0  0  0
   -0.4755    2.7620   -5.5317 C   0  0  0  0  0  0  0  0  0  0  0  0
   -1.1051    3.5012   -2.7312 H   0  0  0  0  0  0  0  0  0  0  0  0
    1.2917    2.8879   -4.2978 H   0  0  0  0  0  0  0  0  0  0  0  0
   -1.4949    3.1626   -5.5747 H   0  0  0  0  0  0  0  0  0  0  0  0
    0.0267    3.0357   -6.4655 H   0  0  0  0  0  0  0  0  0  0  0  0
   -0.5490    1.6699   -5.4914 H   0  0  0  0  0  0  0  0  0  0  0  0
    1.4687    5.2780   -5.0285 N   0  0  0  0  0  0  0  0  0  0  0  0
    1.7374    6.6825   -5.2313 C   0  0  0  0  0  0  0  0  0  0  0  0
    2.1574    4.6105   -5.3629 H   0  0  0  0  0  0  0  0  0  0  0  0
    1.3221    6.9997   -6.1993 H   0  0  0  0  0  0  0  0  0  0  0  0
    1.2707    7.2654   -4.4236 H   0  0  0  0  0  0  0  0  0  0  0  0
    2.8242    6.8524   -5.2254 H   0  0  0  0  0  0  0  0  0  0  0  0
  1  3  1  0  0  0  0
  1  7  1  0  0  0  0
  1  2  2  0  0  0  0
 23 25  1  0  0  0  0
 23 29  1  0  0  0  0
 23 24  2  0  0  0  0
 50 51  1  0  0  0  0
 51 59  1  0  0  0  0
 51 52  2  0  0  0  0
  8  9  1  0  0  0  0
  9 17  1  0  0  0  0
  9 10  2  0  0  0  0
 30 31  1  0  0  0  0
 31 39  1  0  0  0  0
 31 32  2  0  0  0  0
 40 41  1  0  0  0  0
 41 49  1  0  0  0  0
 41 42  2  0  0  0  0
 50 53  1  0  0  0  0
 30 33  1  0  0  0  0
 59 60  1  0  0  0  0
 17 18  1  0  0  0  0
  8 11  1  0  0  0  0
 11 12  1  0  0  0  0
 40 43  1  0  0  0  0
 43 44  1  0  0  0  0
 49 50  1  0  0  0  0
  7  8  1  0  0  0  0
 29 30  1  0  0  0  0
 39 40  1  0  0  0  0
 12 44  1  0  0  0  0
  3  4  1  0  0  0  0
  3  5  1  0  0  0  0
  3  6  1  0  0  0  0
 25 26  1  0  0  0  0
 25 27  1  0  0  0  0
 25 28  1  0  0  0  0
 53 56  1  0  0  0  0
 53 57  1  0  0  0  0
 53 58  1  0  0  0  0
 33 36  1  0  0  0  0
 33 37  1  0  0  0  0
 33 38  1  0  0  0  0
 60 62  1  0  0  0  0
 60 63  1  0  0  0  0
 60 64  1  0  0  0  0
 18 20  1  0  0  0  0
 18 21  1  0  0  0  0
 18 22  1  0  0  0  0
 11 15  1  0  0  0  0
 11 16  1  0  0  0  0
 43 47  1  0  0  0  0
 43 48  1  0  0  0  0
 50 55  1  0  0  0  0
  8 14  1  0  0  0  0
 30 35  1  0  0  0  0
 40 46  1  0  0  0  0
 59 61  1  0  0  0  0
 17 19  1  0  0  0  0
  7 13  1  0  0  0  0
 29 34  1  0  0  0  0
 49 54  1  0  0  0  0
 39 45  1  0  0  0  0
M  END
$$$$

  -OEChem-05262214473D

 64 63  0     1  0  0  0  0  0999 V2000
   -2.3277   -4.5484    4.2127 C   0  0  0  0  0  0  0  0  0  0  0  0
   -3.4567   -4.7455    3.7790 O   0  0  0  0  0  0  0  0  0  0  0  0
   -2.0756   -4.6461    5.6807 C   0  0  0  0  0  0  0  0  0  0  0  0
   -2.2156   -3.6825    6.1965 H   0  0  0  0  0  0  0  0  0  0  0  0
   -2.7646   -5.3463    6.1799 H   0  0  0  0  0  0  0  0  0  0  0  0
   -1.0655   -4.9824    5.9642 H   0  0  0  0  0  0  0  0  0  0  0  0
   -1.2065   -4.2327    3.4648 N   0  0  0  0  0  0  0  0  0  0  0  0
   -1.2262   -4.0909    2.0309 C   0  0  2  0  0  0  0  0  0  0  0  0
    0.0996   -4.5966    1.4657 C   0  0  0  0  0  0  0  0  0  0  0  0
    1.0421   -4.9414    2.1757 O   0  0  0  0  0  0  0  0  0  0  0  0
   -1.5693   -2.6655    1.5911 C   0  0  0  0  0  0  0  0  0  0  0  0
   -0.3476   -1.4199    2.1187 S   0  0  0  0  0  0  0  0  0  0  0  0
   -0.3240   -4.0937    3.9521 H   0  0  0  0  0  0  0  0  0  0  0  0
   -2.0154   -4.7667    1.6788 H   0  0  0  0  0  0  0  0  0  0  0  0
   -1.6457   -2.6077    0.5004 H   0  0  0  0  0  0  0  0  0  0  0  0
   -2.5389   -2.3701    2.0063 H   0  0  0  0  0  0  0  0  0  0  0  0
    0.1139   -4.5934    0.0782 N   0  0  0  0  0  0  0  0  0  0  0  0
    1.2656   -5.0050   -0.6899 C   0  0  0  0  0  0  0  0  0  0  0  0
   -0.7262   -4.3330   -0.4299 H   0  0  0  0  0  0  0  0  0  0  0  0
    1.8854   -4.1263   -0.9218 H   0  0  0  0  0  0  0  0  0  0  0  0
    1.8564   -5.7266   -0.1067 H   0  0  0  0  0  0  0  0  0  0  0  0
    0.9323   -5.4759   -1.6265 H   0  0  0  0  0  0  0  0  0  0  0  0
   -6.7256    2.0330   -0.2766 C   0  0  0  0  0  0  0  0  0  0  0  0
   -7.1824    1.1039   -0.9322 O   0  0  0  0  0  0  0  0  0  0  0  0
   -7.5276    2.6077    0.8435 C   0  0  0  0  0  0  0  0  0  0  0  0
   -8.1775    3.4344    0.5145 H   0  0  0  0  0  0  0  0  0  0  0  0
   -8.2057    1.8676    1.2980 H   0  0  0  0  0  0  0  0  0  0  0  0
   -6.9411    3.0162    1.6819 H   0  0  0  0  0  0  0  0  0  0  0  0
   -5.4935    2.6382   -0.4627 N   0  0  0  0  0  0  0  0  0  0  0  0
   -4.5619    2.2388   -1.4845 C   0  0  2  0  0  0  0  0  0  0  0  0
   -3.1535    2.4674   -0.9521 C   0  0  0  0  0  0  0  0  0  0  0  0
   -2.8634    3.3945   -0.1987 O   0  0  0  0  0  0  0  0  0  0  0  0
   -4.7883    3.0138   -2.7732 C   0  0  0  0  0  0  0  0  0  0  0  0
   -5.2337    3.4049    0.1551 H   0  0  0  0  0  0  0  0  0  0  0  0
   -4.7192    1.1682   -1.6549 H   0  0  0  0  0  0  0  0  0  0  0  0
   -4.6352    4.0886   -2.6221 H   0  0  0  0  0  0  0  0  0  0  0  0
   -4.0976    2.6887   -3.5582 H   0  0  0  0  0  0  0  0  0  0  0  0
   -5.8111    2.8719   -3.1387 H   0  0  0  0  0  0  0  0  0  0  0  0
   -2.2466    1.5400   -1.4507 N   0  0  0  0  0  0  0  0  0  0  0  0
   -0.8424    1.5707   -1.1286 C   0  0  2  0  0  0  0  0  0  0  0  0
   -0.0425    1.7354   -2.4192 C   0  0  0  0  0  0  0  0  0  0  0  0
    0.5959    0.8189   -2.9329 O   0  0  0  0  0  0  0  0  0  0  0  0
   -0.4091    0.3616   -0.2960 C   0  0  0  0  0  0  0  0  0  0  0  0
   -1.1639    0.2995    1.3469 S   0  0  0  0  0  0  0  0  0  0  0  0
   -2.5850    0.7815   -2.0381 H   0  0  0  0  0  0  0  0  0  0  0  0
   -0.6970    2.4791   -0.5308 H   0  0  0  0  0  0  0  0  0  0  0  0
   -0.6657   -0.5706   -0.8097 H   0  0  0  0  0  0  0  0  0  0  0  0
    0.6774    0.3741   -0.1573 H   0  0  0  0  0  0  0  0  0  0  0  0
   -0.1056    3.0302   -2.9143 N   0  0  0  0  0  0  0  0  0  0  0  0
    0.5892    3.4410   -4.1119 C   0  0  2  0  0  0  0  0  0  0  0  0
    0.9903    4.9008   -3.9456 C   0  0  0  0  0  0  0  0  0  0  0  0
    0.3071    5.7185   -3.3326 O   0  0  0  0  0  0  0  0  0  0  0  0
   -0.2782    3.2529   -5.3468 C   0  0  0  0  0  0  0  0  0  0  0  0
   -0.6933    3.7154   -2.4486 H   0  0  0  0  0  0  0  0  0  0  0  0
    1.4890    2.8204   -4.1842 H   0  0  0  0  0  0  0  0  0  0  0  0
   -1.1845    3.8670   -5.2925 H   0  0  0  0  0  0  0  0  0  0  0  0
    0.2600    3.5380   -6.2568 H   0  0  0  0  0  0  0  0  0  0  0  0
   -0.5903    2.2079   -5.4484 H   0  0  0  0  0  0  0  0  0  0  0  0
    2.1795    5.1929   -4.5987 N   0  0  0  0  0  0  0  0  0  0  0  0
    2.7488    6.5200   -4.6252 C   0  0  0  0  0  0  0  0  0  0  0  0
    2.6996    4.4450   -5.0479 H   0  0  0  0  0  0  0  0  0  0  0  0
    2.4014    7.0508   -5.5238 H   0  0  0  0  0  0  0  0  0  0  0  0
    2.4326    7.0724   -3.7280 H   0  0  0  0  0  0  0  0  0  0  0  0
    3.8463    6.4477   -4.6435 H   0  0  0  0  0  0  0  0  0  0  0  0
  1  3  1  0  0  0  0
  1  7  1  0  0  0  0
  1  2  2  0  0  0  0
 23 25  1  0  0  0  0
 23 29  1  0  0  0  0
 23 24  2  0  0  0  0
 50 51  1  0  0  0  0
 51 59  1  0  0  0  0
 51 52  2  0  0  0  0
  8  9  1  0  0  0  0
  9 17  1  0  0  0  0
  9 10  2  0  0  0  0
 30 31  1  0  0  0  0
 31 39  1  0  0  0  0
 31 32  2  0  0  0  0
 40 41  1  0  0  0  0
 41 49  1  0  0  0  0
 41 42  2  0  0  0  0
 50 53  1  0  0  0  0
 30 33  1  0  0  0  0
 59 60  1  0  0  0  0
 17 18  1  0  0  0  0
  8 11  1  0  0  0  0
 11 12  1  0  0  0  0
 40 43  1  0  0  0  0
 43 44  1  0  0  0  0
 49 50  1  0  0  0  0
  7  8  1  0  0  0  0
 29 30  1  0  0  0  0
 39 40  1  0  0  0  0
 12 44  1  0  0  0  0
  3  4  1  0  0  0  0
  3  5  1  0  0  0  0
  3  6  1  0  0  0  0
 25 26  1  0  0  0  0
 25 27  1  0  0  0  0
 25 28  1  0  0  0  0
 53 56  1  0  0  0  0
 53 57  1  0  0  0  0
 53 58  1  0  0  0  0
 33 36  1  0  0  0  0
 33 37  1  0  0  0  0
 33 38  1  0  0  0  0
 60 62  1  0  0  0  0
 60 63  1  0  0  0  0
 60 64  1  0  0  0  0
 18 20  1  0  0  0  0
 18 21  1  0  0  0  0
 18 22  1  0  0  0  0
 11 15  1  0  0  0  0
 11 16  1  0  0  0  0
 43 47  1  0  0  0  0
 43 48  1  0  0  0  0
 50 55  1  0  0  0  0
  8 14  1  0  0  0  0
 30 35  1  0  0  0  0
 40 46  1  0  0  0  0
 59 61  1  0  0  0  0
 17 19  1  0  0  0  0
  7 13  1  0  0  0  0
 29 34  1  0  0  0  0
 49 54  1  0  0  0  0
 39 45  1  0  0  0  0
M  END
$$$$

  -OEChem-05262214473D

 64 63  0     1  0  0  0  0  0999 V2000
   -2.3277   -4.5484    4.2127 C   0  0  0  0  0  0  0  0  0  0  0  0
   -3.4567   -4.7455    3.7790 O   0  0  0  0  0  0  0  0  0  0  0  0
   -2.0756   -4.6461    5.6807 C   0  0  0  0  0  0  0  0  0  0  0  0
   -2.2156   -3.6825    6.1965 H   0  0  0  0  0  0  0  0  0  0  0  0
   -2.7646   -5.3463    6.1799 H   0  0  0  0  0  0  0  0  0  0  0  0
   -1.0655   -4.9824    5.9642 H   0  0  0  0  0  0  0  0  0  0  0  0
   -1.2065   -4.2327    3.4648 N   0  0  0  0  0  0  0  0  0  0  0  0
   -1.2262   -4.0909    2.0309 C   0  0  2  0  0  0  0  0  0  0  0  0
    0.0996   -4.5966    1.4657 C   0  0  0  0  0  0  0  0  0  0  0  0
    1.0421   -4.9414    2.1757 O   0  0  0  0  0  0  0  0  0  0  0  0
   -1.5693   -2.6655    1.5911 C   0  0  0  0  0  0  0  0  0  0  0  0
   -0.3476   -1.4199    2.1187 S   0  0  0  0  0  0  0  0  0  0  0  0
   -0.3240   -4.0937    3.9521 H   0  0  0  0  0  0  0  0  0  0  0  0
   -2.0154   -4.7667    1.6788 H   0  0  0  0  0  0  0  0  0  0  0  0
   -1.6457   -2.6077    0.5004 H   0  0  0  0  0  0  0  0  0  0  0  0
   -2.5389   -2.3701    2.0063 H   0  0  0  0  0  0  0  0  0  0  0  0
    0.1139   -4.5934    0.0782 N   0  0  0  0  0  0  0  0  0  0  0  0
    1.2656   -5.0050   -0.6899 C   0  0  0  0  0  0  0  0  0  0  0  0
   -0.7262   -4.3330   -0.4299 H   0  0  0  0  0  0  0  0  0  0  0  0
    1.8854   -4.1263   -0.9218 H   0  0  0  0  0  0  0  0  0  0  0  0
    1.8564   -5.7266   -0.1067 H   0  0  0  0  0  0  0  0  0  0  0  0
    0.9323   -5.4759   -1.6265 H   0  0  0  0  0  0  0  0  0  0  0  0
   -6.7256    2.0330   -0.2766 C   0  0  0  0  0  0  0  0  0  0  0  0
   -7.1824    1.1039   -0.9322 O   0  0  0  0  0  0  0  0  0  0  0  0
   -7.5276    2.6077    0.8435 C   0  0  0  0  0  0  0  0  0  0  0  0
   -8.1775    3.4344    0.5145 H   0  0  0  0  0  0  0  0  0  0  0  0
   -8.2057    1.8676    1.2980 H   0  0  0  0  0  0  0  0  0  0  0  0
   -6.9411    3.0162    1.6819 H   0  0  0  0  0  0  0  0  0  0  0  0
   -5.4935    2.6382   -0.4627 N   0  0  0  0  0  0  0  0  0  0  0  0
   -4.5619    2.2388   -1.4845 C   0  0  2  0  0  0  0  0  0  0  0  0
   -3.1535    2.4674   -0.9521 C   0  0  0  0  0  0  0  0  0  0  0  0
   -2.8634    3.3945   -0.1987 O   0  0  0  0  0  0  0  0  0  0  0  0
   -4.7883    3.0138   -2.7732 C   0  0  0  0  0  0  0  0  0  0  0  0
   -5.2337    3.4049    0.1551 H   0  0  0  0  0  0  0  0  0  0  0  0
   -4.7192    1.1682   -1.6549 H   0  0  0  0  0  0  0  0  0  0  0  0
   -4.6352    4.0886   -2.6221 H   0  0  0  0  0  0  0  0  0  0  0  0
   -4.0976    2.6887   -3.5582 H   0  0  0  0  0  0  0  0  0  0  0  0
   -5.8111    2.8719   -3.1387 H   0  0  0  0  0  0  0  0  0  0  0  0
   -2.2466    1.5400   -1.4507 N   0  0  0  0  0  0  0  0  0  0  0  0
   -0.8424    1.5707   -1.1286 C   0  0  2  0  0  0  0  0  0  0  0  0
   -0.0425    1.7354   -2.4192 C   0  0  0  0  0  0  0  0  0  0  0  0
    0.3713    0.7826   -3.0767 O   0  0  0  0  0  0  0  0  0  0  0  0
   -0.4091    0.3616   -0.2960 C   0  0  0  0  0  0  0  0  0  0  0  0
   -1.1639    0.2995    1.3469 S   0  0  0  0  0  0  0  0  0  0  0  0
   -2.5850    0.7815   -2.0381 H   0  0  0  0  0  0  0  0  0  0  0  0
   -0.6970    2.4791   -0.5308 H   0  0  0  0  0  0  0  0  0  0  0  0
   -0.6657   -0.5706   -0.8097 H   0  0  0  0  0  0  0  0  0  0  0  0
    0.6774    0.3741   -0.1573 H   0  0  0  0  0  0  0  0  0  0  0  0
    0.1753    3.0689   -2.7352 N   0  0  0  0  0  0  0  0  0  0  0  0
    0.9281    3.4814   -3.8966 C   0  0  2  0  0  0  0  0  0  0  0  0
    1.6435    4.7819   -3.5558 C   0  0  0  0  0  0  0  0  0  0  0  0
    1.1655    5.6352   -2.8112 O   0  0  0  0  0  0  0  0  0  0  0  0
    0.0249    3.6589   -5.1072 C   0  0  0  0  0  0  0  0  0  0  0  0
   -0.2407    3.7938   -2.1581 H   0  0  0  0  0  0  0  0  0  0  0  0
    1.6678    2.6966   -4.0891 H   0  0  0  0  0  0  0  0  0  0  0  0
   -0.7229    4.4412   -4.9330 H   0  0  0  0  0  0  0  0  0  0  0  0
    0.6010    3.9438   -5.9937 H   0  0  0  0  0  0  0  0  0  0  0  0
   -0.5113    2.7308   -5.3327 H   0  0  0  0  0  0  0  0  0  0  0  0
    2.8594    4.8970   -4.2150 N   0  0  0  0  0  0  0  0  0  0  0  0
    3.7071    6.0597   -4.0899 C   0  0  0  0  0  0  0  0  0  0  0  0
    3.1959    4.1238   -4.7813 H   0  0  0  0  0  0  0  0  0  0  0  0
    3.4739    6.7725   -4.8946 H   0  0  0  0  0  0  0  0  0  0  0  0
    3.5322    6.5376   -3.1147 H   0  0  0  0  0  0  0  0  0  0  0  0
    4.7613    5.7544   -4.1648 H   0  0  0  0  0  0  0  0  0  0  0  0
  1  3  1  0  0  0  0
  1  7  1  0  0  0  0
  1  2  2  0  0  0  0
 23 25  1  0  0  0  0
 23 29  1  0  0  0  0
 23 24  2  0  0  0  0
 50 51  1  0  0  0  0
 51 59  1  0  0  0  0
 51 52  2  0  0  0  0
  8  9  1  0  0  0  0
  9 17  1  0  0  0  0
  9 10  2  0  0  0  0
 30 31  1  0  0  0  0
 31 39  1  0  0  0  0
 31 32  2  0  0  0  0
 40 41  1  0  0  0  0
 41 49  1  0  0  0  0
 41 42  2  0  0  0  0
 50 53  1  0  0  0  0
 30 33  1  0  0  0  0
 59 60  1  0  0  0  0
 17 18  1  0  0  0  0
  8 11  1  0  0  0  0
 11 12  1  0  0  0  0
 40 43  1  0  0  0  0
 43 44  1  0  0  0  0
 49 50  1  0  0  0  0
  7  8  1  0  0  0  0
 29 30  1  0  0  0  0
 39 40  1  0  0  0  0
 12 44  1  0  0  0  0
  3  4  1  0  0  0  0
  3  5  1  0  0  0  0
  3  6  1  0  0  0  0
 25 26  1  0  0  0  0
 25 27  1  0  0  0  0
 25 28  1  0  0  0  0
 53 56  1  0  0  0  0
 53 57  1  0  0  0  0
 53 58  1  0  0  0  0
 33 36  1  0  0  0  0
 33 37  1  0  0  0  0
 33 38  1  0  0  0  0
 60 62  1  0  0  0  0
 60 63  1  0  0  0  0
 60 64  1  0  0  0  0
 18 20  1  0  0  0  0
 18 21  1  0  0  0  0
 18 22  1  0  0  0  0
 11 15  1  0  0  0  0
 11 16  1  0  0  0  0
 43 47  1  0  0  0  0
 43 48  1  0  0  0  0
 50 55  1  0  0  0  0
  8 14  1  0  0  0  0
 30 35  1  0  0  0  0
 40 46  1  0  0  0  0
 59 61  1  0  0  0  0
 17 19  1  0  0  0  0
  7 13  1  0  0  0  0
 29 34  1  0  0  0  0
 49 54  1  0  0  0  0
 39 45  1  0  0  0  0
M  END
$$$$

  -OEChem-05262214473D

 64 63  0     1  0  0  0  0  0999 V2000
   -2.3277   -4.5484    4.2127 C   0  0  0  0  0  0  0  0  0  0  0  0
   -3.4567   -4.7455    3.7790 O   0  0  0  0  0  0  0  0  0  0  0  0
   -2.0756   -4.6461    5.6807 C   0  0  0  0  0  0  0  0  0  0  0  0
   -2.2156   -3.6825    6.1965 H   0  0  0  0  0  0  0  0  0  0  0  0
   -2.7646   -5.3463    6.1799 H   0  0  0  0  0  0  0  0  0  0  0  0
   -1.0655   -4.9824    5.9642 H   0  0  0  0  0  0  0  0  0  0  0  0
   -1.2065   -4.2327    3.4648 N   0  0  0  0  0  0  0  0  0  0  0  0
   -1.2262   -4.0909    2.0309 C   0  0  2  0  0  0  0  0  0  0  0  0
    0.0996   -4.5966    1.4657 C   0  0  0  0  0  0  0  0  0  0  0  0
    1.0421   -4.9414    2.1757 O   0  0  0  0  0  0  0  0  0  0  0  0
   -1.5693   -2.6655    1.5911 C   0  0  0  0  0  0  0  0  0  0  0  0
   -0.3476   -1.4199    2.1187 S   0  0  0  0  0  0  0  0  0  0  0  0
   -0.3240   -4.0937    3.9521 H   0  0  0  0  0  0  0  0  0  0  0  0
   -2.0154   -4.7667    1.6788 H   0  0  0  0  0  0  0  0  0  0  0  0
   -1.6457   -2.6077    0.5004 H   0  0  0  0  0  0  0  0  0  0  0  0
   -2.5389   -2.3701    2.0063 H   0  0  0  0  0  0  0  0  0  0  0  0
    0.1139   -4.5934    0.0782 N   0  0  0  0  0  0  0  0  0  0  0  0
    1.2656   -5.0050   -0.6899 C   0  0  0  0  0  0  0  0  0  0  0  0
   -0.7262   -4.3330   -0.4299 H   0  0  0  0  0  0  0  0  0  0  0  0
    1.8854   -4.1263   -0.9218 H   0  0  0  0  0  0  0  0  0  0  0  0
    1.8564   -5.7266   -0.1067 H   0  0  0  0  0  0  0  0  0  0  0  0
    0.9323   -5.4759   -1.6265 H   0  0  0  0  0  0  0  0  0  0  0  0
   -6.7256    2.0330   -0.2766 C   0  0  0  0  0  0  0  0  0  0  0  0
   -7.1824    1.1039   -0.9322 O   0  0  0  0  0  0  0  0  0  0  0  0
   -7.5276    2.6077    0.8435 C   0  0  0  0  0  0  0  0  0  0  0  0
   -8.1775    3.4344    0.5145 H   0  0  0  0  0  0  0  0  0  0  0  0
   -8.2057    1.8676    1.2980 H   0  0  0  0  0  0  0  0  0  0  0  0
   -6.9411    3.0162    1.6819 H   0  0  0  0  0  0  0  0  0  0  0  0
   -5.4935    2.6382   -0.4627 N   0  0  0  0  0  0  0  0  0  0  0  0
   -4.5619    2.2388   -1.4845 C   0  0  2  0  0  0  0  0  0  0  0  0
   -3.1535    2.4674   -0.9521 C   0  0  0  0  0  0  0  0  0  0  0  0
   -2.8634    3.3945   -0.1987 O   0  0  0  0  0  0  0  0  0  0  0  0
   -4.7883    3.0138   -2.7732 C   0  0  0  0  0  0  0  0  0  0  0  0
   -5.2337    3.4049    0.1551 H   0  0  0  0  0  0  0  0  0  0  0  0
   -4.7192    1.1682   -1.6549 H   0  0  0  0  0  0  0  0  0  0  0  0
   -4.6352    4.0886   -2.6221 H   0  0  0  0  0  0  0  0  0  0  0  0
   -4.0976    2.6887   -3.5582 H   0  0  0  0  0  0  0  0  0  0  0  0
   -5.8111    2.8719   -3.1387 H   0  0  0  0  0  0  0  0  0  0  0  0
   -2.2466    1.5400   -1.4507 N   0  0  0  0  0  0  0  0  0  0  0  0
   -0.8424    1.5707   -1.1286 C   0  0  2  0  0  0  0  0  0  0  0  0
   -0.0425    1.7354   -2.4192 C   0  0  0  0  0  0  0  0  0  0  0  0
    0.1424    0.8162   -3.2143 O   0  0  0  0  0  0  0  0  0  0  0  0
   -0.4091    0.3616   -0.2960 C   0  0  0  0  0  0  0  0  0  0  0  0
   -1.1639    0.2995    1.3469 S   0  0  0  0  0  0  0  0  0  0  0  0
   -2.5850    0.7815   -2.0381 H   0  0  0  0  0  0  0  0  0  0  0  0
   -0.6970    2.4791   -0.5308 H   0  0  0  0  0  0  0  0  0  0  0  0
   -0.6657   -0.5706   -0.8097 H   0  0  0  0  0  0  0  0  0  0  0  0
    0.6774    0.3741   -0.1573 H   0  0  0  0  0  0  0  0  0  0  0  0
    0.4601    3.0206   -2.5649 N   0  0  0  0  0  0  0  0  0  0  0  0
    1.2704    3.4170   -3.6927 C   0  0  2  0  0  0  0  0  0  0  0  0
    2.2594    4.4715   -3.2137 C   0  0  0  0  0  0  0  0  0  0  0  0
    1.9911    5.2964   -2.3427 O   0  0  0  0  0  0  0  0  0  0  0  0
    0.4132    3.9522   -4.8291 C   0  0  0  0  0  0  0  0  0  0  0  0
    0.2217    3.7313   -1.8794 H   0  0  0  0  0  0  0  0  0  0  0  0
    1.8162    2.5250   -4.0190 H   0  0  0  0  0  0  0  0  0  0  0  0
   -0.1413    4.8461   -4.5209 H   0  0  0  0  0  0  0  0  0  0  0  0
    1.0265    4.2256   -5.6940 H   0  0  0  0  0  0  0  0  0  0  0  0
   -0.3175    3.2029   -5.1523 H   0  0  0  0  0  0  0  0  0  0  0  0
    3.4622    4.4105   -3.9035 N   0  0  0  0  0  0  0  0  0  0  0  0
    4.5471    5.3328   -3.6620 C   0  0  0  0  0  0  0  0  0  0  0  0
    3.6125    3.6689   -4.5811 H   0  0  0  0  0  0  0  0  0  0  0  0
    4.4665    6.1838   -4.3544 H   0  0  0  0  0  0  0  0  0  0  0  0
    4.4944    5.6974   -2.6255 H   0  0  0  0  0  0  0  0  0  0  0  0
    5.5068    4.8198   -3.8219 H   0  0  0  0  0  0  0  0  0  0  0  0
  1  3  1  0  0  0  0
  1  7  1  0  0  0  0
  1  2  2  0  0  0  0
 23 25  1  0  0  0  0
 23 29  1  0  0  0  0
 23 24  2  0  0  0  0
 50 51  1  0  0  0  0
 51 59  1  0  0  0  0
 51 52  2  0  0  0  0
  8  9  1  0  0  0  0
  9 17  1  0  0  0  0
  9 10  2  0  0  0  0
 30 31  1  0  0  0  0
 31 39  1  0  0  0  0
 31 32  2  0  0  0  0
 40 41  1  0  0  0  0
 41 49  1  0  0  0  0
 41 42  2  0  0  0  0
 50 53  1  0  0  0  0
 30 33  1  0  0  0  0
 59 60  1  0  0  0  0
 17 18  1  0  0  0  0
  8 11  1  0  0  0  0
 11 12  1  0  0  0  0
 40 43  1  0  0  0  0
 43 44  1  0  0  0  0
 49 50  1  0  0  0  0
  7  8  1  0  0  0  0
 29 30  1  0  0  0  0
 39 40  1  0  0  0  0
 12 44  1  0  0  0  0
  3  4  1  0  0  0  0
  3  5  1  0  0  0  0
  3  6  1  0  0  0  0
 25 26  1  0  0  0  0
 25 27  1  0  0  0  0
 25 28  1  0  0  0  0
 53 56  1  0  0  0  0
 53 57  1  0  0  0  0
 53 58  1  0  0  0  0
 33 36  1  0  0  0  0
 33 37  1  0  0  0  0
 33 38  1  0  0  0  0
 60 62  1  0  0  0  0
 60 63  1  0  0  0  0
 60 64  1  0  0  0  0
 18 20  1  0  0  0  0
 18 21  1  0  0  0  0
 18 22  1  0  0  0  0
 11 15  1  0  0  0  0
 11 16  1  0  0  0  0
 43 47  1  0  0  0  0
 43 48  1  0  0  0  0
 50 55  1  0  0  0  0
  8 14  1  0  0  0  0
 30 35  1  0  0  0  0
 40 46  1  0  0  0  0
 59 61  1  0  0  0  0
 17 19  1  0  0  0  0
  7 13  1  0  0  0  0
 29 34  1  0  0  0  0
 49 54  1  0  0  0  0
 39 45  1  0  0  0  0
M  END
$$$$

  -OEChem-05262214473D

 64 63  0     1  0  0  0  0  0999 V2000
   -2.3277   -4.5484    4.2127 C   0  0  0  0  0  0  0  0  0  0  0  0
   -3.4567   -4.7455    3.7790 O   0  0  0  0  0  0  0  0  0  0  0  0
   -2.0756   -4.6461    5.6807 C   0  0  0  0  0  0  0  0  0  0  0  0
   -2.2156   -3.6825    6.1965 H   0  0  0  0  0  0  0  0  0  0  0  0
   -2.7646   -5.3463    6.1799 H   0  0  0  0  0  0  0  0  0  0  0  0
   -1.0655   -4.9824    5.9642 H   0  0  0  0  0  0  0  0  0  0  0  0
   -1.2065   -4.2327    3.4648 N   0  0  0  0  0  0  0  0  0  0  0  0
   -1.2262   -4.0909    2.0309 C   0  0  2  0  0  0  0  0  0  0  0  0
    0.0996   -4.5966    1.4657 C   0  0  0  0  0  0  0  0  0  0  0  0
    1.0421   -4.9414    2.1757 O   0  0  0  0  0  0  0  0  0  0  0  0
   -1.5693   -2.6655    1.5911 C   0  0  0  0  0  0  0  0  0  0  0  0
   -0.3476   -1.4199    2.1187 S   0  0  0  0  0  0  0  0  0  0  0  0
   -0.3240   -4.0937    3.9521 H   0  0  0  0  0  0  0  0  0  0  0  0
   -2.0154   -4.7667    1.6788 H   0  0  0  0  0  0  0  0  0  0  0  0
   -1.6457   -2.6077    0.5004 H   0  0  0  0  0  0  0  0  0  0  0  0
   -2.5389   -2.3701    2.0063 H   0  0  0  0  0  0  0  0  0  0  0  0
    0.1139   -4.5934    0.0782 N   0  0  0  0  0  0  0  0  0  0  0  0
    1.2656   -5.0050   -0.6899 C   0  0  0  0  0  0  0  0  0  0  0  0
   -0.7262   -4.3330   -0.4299 H   0  0  0  0  0  0  0  0  0  0  0  0
    1.8854   -4.1263   -0.9218 H   0  0  0  0  0  0  0  0  0  0  0  0
    1.8564   -5.7266   -0.1067 H   0  0  0  0  0  0  0  0  0  0  0  0
    0.9323   -5.4759   -1.6265 H   0  0  0  0  0  0  0  0  0  0  0  0
   -6.7256    2.0330   -0.2766 C   0  0  0  0  0  0  0  0  0  0  0  0
   -7.1824    1.1039   -0.9322 O   0  0  0  0  0  0  0  0  0  0  0  0
   -7.5276    2.6077    0.8435 C   0  0  0  0  0  0  0  0  0  0  0  0
   -8.1775    3.4344    0.5145 H   0  0  0  0  0  0  0  0  0  0  0  0
   -8.2057    1.8676    1.2980 H   0  0  0  0  0  0  0  0  0  0  0  0
   -6.9411    3.0162    1.6819 H   0  0  0  0  0  0  0  0  0  0  0  0
   -5.4935    2.6382   -0.4627 N   0  0  0  0  0  0  0  0  0  0  0  0
   -4.5619    2.2388   -1.4845 C   0  0  2  0  0  0  0  0  0  0  0  0
   -3.1535    2.4674   -0.9521 C   0  0  0  0  0  0  0  0  0  0  0  0
   -2.8634    3.3945   -0.1987 O   0  0  0  0  0  0  0  0  0  0  0  0
   -4.7883    3.0138   -2.7732 C   0  0  0  0  0  0  0  0  0  0  0  0
   -5.2337    3.4049    0.1551 H   0  0  0  0  0  0  0  0  0  0  0  0
   -4.7192    1.1682   -1.6549 H   0  0  0  0  0  0  0  0  0  0  0  0
   -4.6352    4.0886   -2.6221 H   0  0  0  0  0  0  0  0  0  0  0  0
   -4.0976    2.6887   -3.5582 H   0  0  0  0  0  0  0  0  0  0  0  0
   -5.8111    2.8719   -3.1387 H   0  0  0  0  0  0  0  0  0  0  0  0
   -2.2466    1.5400   -1.4507 N   0  0  0  0  0  0  0  0  0  0  0  0
   -0.8424    1.5707   -1.1286 C   0  0  2  0  0  0  0  0  0  0  0  0
   -0.0425    1.7354   -2.4192 C   0  0  0  0  0  0  0  0  0  0  0  0
   -0.0752    0.9173   -3.3363 O   0  0  0  0  0  0  0  0  0  0  0  0
   -0.4091    0.3616   -0.2960 C   0  0  0  0  0  0  0  0  0  0  0  0
   -1.1639    0.2995    1.3469 S   0  0  0  0  0  0  0  0  0  0  0  0
   -2.5850    0.7815   -2.0381 H   0  0  0  0  0  0  0  0  0  0  0  0
   -0.6970    2.4791   -0.5308 H   0  0  0  0  0  0  0  0  0  0  0  0
   -0.6657   -0.5706   -0.8097 H   0  0  0  0  0  0  0  0  0  0  0  0
    0.6774    0.3741   -0.1573 H   0  0  0  0  0  0  0  0  0  0  0  0
    0.7293    2.8886   -2.4148 N   0  0  0  0  0  0  0  0  0  0  0  0
    1.5926    3.2524   -3.5140 C   0  0  2  0  0  0  0  0  0  0  0  0
    2.7960    3.9905   -2.9425 C   0  0  0  0  0  0  0  0  0  0  0  0
    2.7274    4.7250   -1.9592 O   0  0  0  0  0  0  0  0  0  0  0  0
    0.8601    4.1129   -4.5316 C   0  0  0  0  0  0  0  0  0  0  0  0
    0.6625    3.5320   -1.6317 H   0  0  0  0  0  0  0  0  0  0  0  0
    1.9239    2.3173   -3.9787 H   0  0  0  0  0  0  0  0  0  0  0  0
    0.5205    5.0542   -4.0841 H   0  0  0  0  0  0  0  0  0  0  0  0
    1.5075    4.3641   -5.3782 H   0  0  0  0  0  0  0  0  0  0  0  0
   -0.0220    3.5921   -4.9195 H   0  0  0  0  0  0  0  0  0  0  0  0
    3.9467    3.7665   -3.6854 N   0  0  0  0  0  0  0  0  0  0  0  0
    5.2113    4.3891   -3.3707 C   0  0  0  0  0  0  0  0  0  0  0  0
    3.9210    3.1112   -4.4611 H   0  0  0  0  0  0  0  0  0  0  0  0
    5.3117    5.3249   -3.9402 H   0  0  0  0  0  0  0  0  0  0  0  0
    5.2537    4.6091   -2.2937 H   0  0  0  0  0  0  0  0  0  0  0  0
    6.0321    3.7074   -3.6382 H   0  0  0  0  0  0  0  0  0  0  0  0
  1  3  1  0  0  0  0
  1  7  1  0  0  0  0
  1  2  2  0  0  0  0
 23 25  1  0  0  0  0
 23 29  1  0  0  0  0
 23 24  2  0  0  0  0
 50 51  1  0  0  0  0
 51 59  1  0  0  0  0
 51 52  2  0  0  0  0
  8  9  1  0  0  0  0
  9 17  1  0  0  0  0
  9 10  2  0  0  0  0
 30 31  1  0  0  0  0
 31 39  1  0  0  0  0
 31 32  2  0  0  0  0
 40 41  1  0  0  0  0
 41 49  1  0  0  0  0
 41 42  2  0  0  0  0
 50 53  1  0  0  0  0
 30 33  1  0  0  0  0
 59 60  1  0  0  0  0
 17 18  1  0  0  0  0
  8 11  1  0  0  0  0
 11 12  1  0  0  0  0
 40 43  1  0  0  0  0
 43 44  1  0  0  0  0
 49 50  1  0  0  0  0
  7  8  1  0  0  0  0
 29 30  1  0  0  0  0
 39 40  1  0  0  0  0
 12 44  1  0  0  0  0
  3  4  1  0  0  0  0
  3  5  1  0  0  0  0
  3  6  1  0  0  0  0
 25 26  1  0  0  0  0
 25 27  1  0  0  0  0
 25 28  1  0  0  0  0
 53 56  1  0  0  0  0
 53 57  1  0  0  0  0
 53 58  1  0  0  0  0
 33 36  1  0  0  0  0
 33 37  1  0  0  0  0
 33 38  1  0  0  0  0
 60 62  1  0  0  0  0
 60 63  1  0  0  0  0
 60 64  1  0  0  0  0
 18 20  1  0  0  0  0
 18 21  1  0  0  0  0
 18 22  1  0  0  0  0
 11 15  1  0  0  0  0
 11 16  1  0  0  0  0
 43 47  1  0  0  0  0
 43 48  1  0  0  0  0
 50 55  1  0  0  0  0
  8 14  1  0  0  0  0
 30 35  1  0  0  0  0
 40 46  1  0  0  0  0
 59 61  1  0  0  0  0
 17 19  1  0  0  0  0
  7 13  1  0  0  0  0
 29 34  1  0  0  0  0
 49 54  1  0  0  0  0
 39 45  1  0  0  0  0
M  END
$$$$

  -OEChem-05262214473D

 64 63  0     1  0  0  0  0  0999 V2000
   -2.3277   -4.5484    4.2127 C   0  0  0  0  0  0  0  0  0  0  0  0
   -3.4567   -4.7455    3.7790 O   0  0  0  0  0  0  0  0  0  0  0  0
   -2.0756   -4.6461    5.6807 C   0  0  0  0  0  0  0  0  0  0  0  0
   -2.2156   -3.6825    6.1965 H   0  0  0  0  0  0  0  0  0  0  0  0
   -2.7646   -5.3463    6.1799 H   0  0  0  0  0  0  0  0  0  0  0  0
   -1.0655   -4.9824    5.9642 H   0  0  0  0  0  0  0  0  0  0  0  0
   -1.2065   -4.2327    3.4648 N   0  0  0  0  0  0  0  0  0  0  0  0
   -1.2262   -4.0909    2.0309 C   0  0  2  0  0  0  0  0  0  0  0  0
    0.0996   -4.5966    1.4657 C   0  0  0  0  0  0  0  0  0  0  0  0
    1.0421   -4.9414    2.1757 O   0  0  0  0  0  0  0  0  0  0  0  0
   -1.5693   -2.6655    1.5911 C   0  0  0  0  0  0  0  0  0  0  0  0
   -0.3476   -1.4199    2.1187 S   0  0  0  0  0  0  0  0  0  0  0  0
   -0.3240   -4.0937    3.9521 H   0  0  0  0  0  0  0  0  0  0  0  0
   -2.0154   -4.7667    1.6788 H   0  0  0  0  0  0  0  0  0  0  0  0
   -1.6457   -2.6077    0.5004 H   0  0  0  0  0  0  0  0  0  0  0  0
   -2.5389   -2.3701    2.0063 H   0  0  0  0  0  0  0  0  0  0  0  0
    0.1139   -4.5934    0.0782 N   0  0  0  0  0  0  0  0  0  0  0  0
    1.2656   -5.0050   -0.6899 C   0  0  0  0  0  0  0  0  0  0  0  0
   -0.7262   -4.3330   -0.4299 H   0  0  0  0  0  0  0  0  0  0  0  0
    1.8854   -4.1263   -0.9218 H   0  0  0  0  0  0  0  0  0  0  0  0
    1.8564   -5.7266   -0.1067 H   0  0  0  0  0  0  0  0  0  0  0  0
    0.9323   -5.4759   -1.6265 H   0  0  0  0  0  0  0  0  0  0  0  0
   -6.7256    2.0330   -0.2766 C   0  0  0  0  0  0  0  0  0  0  0  0
   -7.1824    1.1039   -0.9322 O   0  0  0  0  0  0  0  0  0  0  0  0
   -7.5276    2.6077    0.8435 C   0  0  0  0  0  0  0  0  0  0  0  0
   -8.1775    3.4344    0.5145 H   0  0  0  0  0  0  0  0  0  0  0  0
   -8.2057    1.8676    1.2980 H   0  0  0  0  0  0  0  0  0  0  0  0
   -6.9411    3.0162    1.6819 H   0  0  0  0  0  0  0  0  0  0  0  0
   -5.4935    2.6382   -0.4627 N   0  0  0  0  0  0  0  0  0  0  0  0
   -4.5619    2.2388   -1.4845 C   0  0  2  0  0  0  0  0  0  0  0  0
   -3.1535    2.4674   -0.9521 C   0  0  0  0  0  0  0  0  0  0  0  0
   -2.8634    3.3945   -0.1987 O   0  0  0  0  0  0  0  0  0  0  0  0
   -4.7883    3.0138   -2.7732 C   0  0  0  0  0  0  0  0  0  0  0  0
   -5.2337    3.4049    0.1551 H   0  0  0  0  0  0  0  0  0  0  0  0
   -4.7192    1.1682   -1.6549 H   0  0  0  0  0  0  0  0  0  0  0  0
   -4.6352    4.0886   -2.6221 H   0  0  0  0  0  0  0  0  0  0  0  0
   -4.0976    2.6887   -3.5582 H   0  0  0  0  0  0  0  0  0  0  0  0
   -5.8111    2.8719   -3.1387 H   0  0  0  0  0  0  0  0  0  0  0  0
   -2.2466    1.5400   -1.4507 N   0  0  0  0  0  0  0  0  0  0  0  0
   -0.8424    1.5707   -1.1286 C   0  0  2  0  0  0  0  0  0  0  0  0
   -0.0425    1.7354   -2.4192 C   0  0  0  0  0  0  0  0  0  0  0  0
   -0.2666    1.0791   -3.4343 O   0  0  0  0  0  0  0  0  0  0  0  0
   -0.4091    0.3616   -0.2960 C   0  0  0  0  0  0  0  0  0  0  0  0
   -1.1639    0.2995    1.3469 S   0  0  0  0  0  0  0  0  0  0  0  0
   -2.5850    0.7815   -2.0381 H   0  0  0  0  0  0  0  0  0  0  0  0
   -0.6970    2.4791   -0.5308 H   0  0  0  0  0  0  0  0  0  0  0  0
   -0.6657   -0.5706   -0.8097 H   0  0  0  0  0  0  0  0  0  0  0  0
    0.6774    0.3741   -0.1573 H   0  0  0  0  0  0  0  0  0  0  0  0
    0.9647    2.6818   -2.2953 N   0  0  0  0  0  0  0  0  0  0  0  0
    1.8729    2.9986   -3.3727 C   0  0  2  0  0  0  0  0  0  0  0  0
    3.2166    3.3718   -2.7607 C   0  0  0  0  0  0  0  0  0  0  0  0
    3.3244    3.9601   -1.6868 O   0  0  0  0  0  0  0  0  0  0  0  0
    1.3353    4.1301   -4.2348 C   0  0  0  0  0  0  0  0  0  0  0  0
    1.0515    3.2094   -1.4317 H   0  0  0  0  0  0  0  0  0  0  0  0
    1.9837    2.0877   -3.9710 H   0  0  0  0  0  0  0  0  0  0  0  0
    1.2175    5.0513   -3.6525 H   0  0  0  0  0  0  0  0  0  0  0  0
    2.0112    4.3499   -5.0678 H   0  0  0  0  0  0  0  0  0  0  0  0
    0.3551    3.8718   -4.6501 H   0  0  0  0  0  0  0  0  0  0  0  0
    4.2800    3.0089   -3.5755 N   0  0  0  0  0  0  0  0  0  0  0  0
    5.6547    3.2927   -3.2358 C   0  0  0  0  0  0  0  0  0  0  0  0
    4.1004    2.4888   -4.4293 H   0  0  0  0  0  0  0  0  0  0  0  0
    5.9518    4.2542   -3.6800 H   0  0  0  0  0  0  0  0  0  0  0  0
    5.7584    3.3468   -2.1420 H   0  0  0  0  0  0  0  0  0  0  0  0
    6.3014    2.4932   -3.6263 H   0  0  0  0  0  0  0  0  0  0  0  0
  1  3  1  0  0  0  0
  1  7  1  0  0  0  0
  1  2  2  0  0  0  0
 23 25  1  0  0  0  0
 23 29  1  0  0  0  0
 23 24  2  0  0  0  0
 50 51  1  0  0  0  0
 51 59  1  0  0  0  0
 51 52  2  0  0  0  0
  8  9  1  0  0  0  0
  9 17  1  0  0  0  0
  9 10  2  0  0  0  0
 30 31  1  0  0  0  0
 31 39  1  0  0  0  0
 31 32  2  0  0  0  0
 40 41  1  0  0  0  0
 41 49  1  0  0  0  0
 41 42  2  0  0  0  0
 50 53  1  0  0  0  0
 30 33  1  0  0  0  0
 59 60  1  0  0  0  0
 17 18  1  0  0  0  0
  8 11  1  0  0  0  0
 11 12  1  0  0  0  0
 40 43  1  0  0  0  0
 43 44  1  0  0  0  0
 49 50  1  0  0  0  0
  7  8  1  0  0  0  0
 29 30  1  0  0  0  0
 39 40  1  0  0  0  0
 12 44  1  0  0  0  0
  3  4  1  0  0  0  0
  3  5  1  0  0  0  0
  3  6  1  0  0  0  0
 25 26  1  0  0  0  0
 25 27  1  0  0  0  0
 25 28  1  0  0  0  0
 53 56  1  0  0  0  0
 53 57  1  0  0  0  0
 53 58  1  0  0  0  0
 33 36  1  0  0  0  0
 33 37  1  0  0  0  0
 33 38  1  0  0  0  0
 60 62  1  0  0  0  0
 60 63  1  0  0  0  0
 60 64  1  0  0  0  0
 18 20  1  0  0  0  0
 18 21  1  0  0  0  0
 18 22  1  0  0  0  0
 11 15  1  0  0  0  0
 11 16  1  0  0  0  0
 43 47  1  0  0  0  0
 43 48  1  0  0  0  0
 50 55  1  0  0  0  0
  8 14  1  0  0  0  0
 30 35  1  0  0  0  0
 40 46  1  0  0  0  0
 59 61  1  0  0  0  0
 17 19  1  0  0  0  0
  7 13  1  0  0  0  0
 29 34  1  0  0  0  0
 49 54  1  0  0  0  0
 39 45  1  0  0  0  0
M  END
$$$$

  -OEChem-05262214473D

 64 63  0     1  0  0  0  0  0999 V2000
   -2.3277   -4.5484    4.2127 C   0  0  0  0  0  0  0  0  0  0  0  0
   -3.4567   -4.7455    3.7790 O   0  0  0  0  0  0  0  0  0  0  0  0
   -2.0756   -4.6461    5.6807 C   0  0  0  0  0  0  0  0  0  0  0  0
   -2.2156   -3.6825    6.1965 H   0  0  0  0  0  0  0  0  0  0  0  0
   -2.7646   -5.3463    6.1799 H   0  0  0  0  0  0  0  0  0  0  0  0
   -1.0655   -4.9824    5.9642 H   0  0  0  0  0  0  0  0  0  0  0  0
   -1.2065   -4.2327    3.4648 N   0  0  0  0  0  0  0  0  0  0  0  0
   -1.2262   -4.0909    2.0309 C   0  0  2  0  0  0  0  0  0  0  0  0
    0.0996   -4.5966    1.4657 C   0  0  0  0  0  0  0  0  0  0  0  0
    1.0421   -4.9414    2.1757 O   0  0  0  0  0  0  0  0  0  0  0  0
   -1.5693   -2.6655    1.5911 C   0  0  0  0  0  0  0  0  0  0  0  0
   -0.3476   -1.4199    2.1187 S   0  0  0  0  0  0  0  0  0  0  0  0
   -0.3240   -4.0937    3.9521 H   0  0  0  0  0  0  0  0  0  0  0  0
   -2.0154   -4.7667    1.6788 H   0  0  0  0  0  0  0  0  0  0  0  0
   -1.6457   -2.6077    0.5004 H   0  0  0  0  0  0  0  0  0  0  0  0
   -2.5389   -2.3701    2.0063 H   0  0  0  0  0  0  0  0  0  0  0  0
    0.1139   -4.5934    0.0782 N   0  0  0  0  0  0  0  0  0  0  0  0
    1.2656   -5.0050   -0.6899 C   0  0  0  0  0  0  0  0  0  0  0  0
   -0.7262   -4.3330   -0.4299 H   0  0  0  0  0  0  0  0  0  0  0  0
    1.8854   -4.1263   -0.9218 H   0  0  0  0  0  0  0  0  0  0  0  0
    1.8564   -5.7266   -0.1067 H   0  0  0  0  0  0  0  0  0  0  0  0
    0.9323   -5.4759   -1.6265 H   0  0  0  0  0  0  0  0  0  0  0  0
   -6.7256    2.0330   -0.2766 C   0  0  0  0  0  0  0  0  0  0  0  0
   -7.1824    1.1039   -0.9322 O   0  0  0  0  0  0  0  0  0  0  0  0
   -7.5276    2.6077    0.8435 C   0  0  0  0  0  0  0  0  0  0  0  0
   -8.1775    3.4344    0.5145 H   0  0  0  0  0  0  0  0  0  0  0  0
   -8.2057    1.8676    1.2980 H   0  0  0  0  0  0  0  0  0  0  0  0
   -6.9411    3.0162    1.6819 H   0  0  0  0  0  0  0  0  0  0  0  0
   -5.4935    2.6382   -0.4627 N   0  0  0  0  0  0  0  0  0  0  0  0
   -4.5619    2.2388   -1.4845 C   0  0  2  0  0  0  0  0  0  0  0  0
   -3.1535    2.4674   -0.9521 C   0  0  0  0  0  0  0  0  0  0  0  0
   -2.8634    3.3945   -0.1987 O   0  0  0  0  0  0  0  0  0  0  0  0
   -4.7883    3.0138   -2.7732 C   0  0  0  0  0  0  0  0  0  0  0  0
   -5.2337    3.4049    0.1551 H   0  0  0  0  0  0  0  0  0  0  0  0
   -4.7192    1.1682   -1.6549 H   0  0  0  0  0  0  0  0  0  0  0  0
   -4.6352    4.0886   -2.6221 H   0  0  0  0  0  0  0  0  0  0  0  0
   -4.0976    2.6887   -3.5582 H   0  0  0  0  0  0  0  0  0  0  0  0
   -5.8111    2.8719   -3.1387 H   0  0  0  0  0  0  0  0  0  0  0  0
   -2.2466    1.5400   -1.4507 N   0  0  0  0  0  0  0  0  0  0  0  0
   -0.8424    1.5707   -1.1286 C   0  0  2  0  0  0  0  0  0  0  0  0
   -0.0425    1.7354   -2.4192 C   0  0  0  0  0  0  0  0  0  0  0  0
   -0.4189    1.2906   -3.5017 O   0  0  0  0  0  0  0  0  0  0  0  0
   -0.4091    0.3616   -0.2960 C   0  0  0  0  0  0  0  0  0  0  0  0
   -1.1639    0.2995    1.3469 S   0  0  0  0  0  0  0  0  0  0  0  0
   -2.5850    0.7815   -2.0381 H   0  0  0  0  0  0  0  0  0  0  0  0
   -0.6970    2.4791   -0.5308 H   0  0  0  0  0  0  0  0  0  0  0  0
   -0.6657   -0.5706   -0.8097 H   0  0  0  0  0  0  0  0  0  0  0  0
    0.6774    0.3741   -0.1573 H   0  0  0  0  0  0  0  0  0  0  0  0
    1.1502    2.4144   -2.2144 N   0  0  0  0  0  0  0  0  0  0  0  0
    2.0920    2.6731   -3.2784 C   0  0  2  0  0  0  0  0  0  0  0  0
    3.4927    2.6575   -2.6807 C   0  0  0  0  0  0  0  0  0  0  0  0
    3.7414    3.0537   -1.5439 O   0  0  0  0  0  0  0  0  0  0  0  0
    1.8063    4.0026   -3.9592 C   0  0  0  0  0  0  0  0  0  0  0  0
    1.3623    2.7857   -1.2931 H   0  0  0  0  0  0  0  0  0  0  0  0
    1.9915    1.8518   -3.9963 H   0  0  0  0  0  0  0  0  0  0  0  0
    1.9021    4.8375   -3.2555 H   0  0  0  0  0  0  0  0  0  0  0  0
    2.5033    4.1839   -4.7840 H   0  0  0  0  0  0  0  0  0  0  0  0
    0.7881    4.0230   -4.3625 H   0  0  0  0  0  0  0  0  0  0  0  0
    4.4392    2.1893   -3.5813 N   0  0  0  0  0  0  0  0  0  0  0  0
    5.8470    2.1185   -3.2664 C   0  0  0  0  0  0  0  0  0  0  0  0
    4.1384    1.8441   -4.4880 H   0  0  0  0  0  0  0  0  0  0  0  0
    6.3431    3.0448   -3.5918 H   0  0  0  0  0  0  0  0  0  0  0  0
    5.9740    1.9966   -2.1806 H   0  0  0  0  0  0  0  0  0  0  0  0
    6.2962    1.2598   -3.7868 H   0  0  0  0  0  0  0  0  0  0  0  0
  1  3  1  0  0  0  0
  1  7  1  0  0  0  0
  1  2  2  0  0  0  0
 23 25  1  0  0  0  0
 23 29  1  0  0  0  0
 23 24  2  0  0  0  0
 50 51  1  0  0  0  0
 51 59  1  0  0  0  0
 51 52  2  0  0  0  0
  8  9  1  0  0  0  0
  9 17  1  0  0  0  0
  9 10  2  0  0  0  0
 30 31  1  0  0  0  0
 31 39  1  0  0  0  0
 31 32  2  0  0  0  0
 40 41  1  0  0  0  0
 41 49  1  0  0  0  0
 41 42  2  0  0  0  0
 50 53  1  0  0  0  0
 30 33  1  0  0  0  0
 59 60  1  0  0  0  0
 17 18  1  0  0  0  0
  8 11  1  0  0  0  0
 11 12  1  0  0  0  0
 40 43  1  0  0  0  0
 43 44  1  0  0  0  0
 49 50  1  0  0  0  0
  7  8  1  0  0  0  0
 29 30  1  0  0  0  0
 39 40  1  0  0  0  0
 12 44  1  0  0  0  0
  3  4  1  0  0  0  0
  3  5  1  0  0  0  0
  3  6  1  0  0  0  0
 25 26  1  0  0  0  0
 25 27  1  0  0  0  0
 25 28  1  0  0  0  0
 53 56  1  0  0  0  0
 53 57  1  0  0  0  0
 53 58  1  0  0  0  0
 33 36  1  0  0  0  0
 33 37  1  0  0  0  0
 33 38  1  0  0  0  0
 60 62  1  0  0  0  0
 60 63  1  0  0  0  0
 60 64  1  0  0  0  0
 18 20  1  0  0  0  0
 18 21  1  0  0  0  0
 18 22  1  0  0  0  0
 11 15  1  0  0  0  0
 11 16  1  0  0  0  0
 43 47  1  0  0  0  0
 43 48  1  0  0  0  0
 50 55  1  0  0  0  0
  8 14  1  0  0  0  0
 30 35  1  0  0  0  0
 40 46  1  0  0  0  0
 59 61  1  0  0  0  0
 17 19  1  0  0  0  0
  7 13  1  0  0  0  0
 29 34  1  0  0  0  0
 49 54  1  0  0  0  0
 39 45  1  0  0  0  0
M  END
$$$$

  -OEChem-05262214473D

 64 63  0     1  0  0  0  0  0999 V2000
   -2.3277   -4.5484    4.2127 C   0  0  0  0  0  0  0  0  0  0  0  0
   -3.4567   -4.7455    3.7790 O   0  0  0  0  0  0  0  0  0  0  0  0
   -2.0756   -4.6461    5.6807 C   0  0  0  0  0  0  0  0  0  0  0  0
   -2.2156   -3.6825    6.1965 H   0  0  0  0  0  0  0  0  0  0  0  0
   -2.7646   -5.3463    6.1799 H   0  0  0  0  0  0  0  0  0  0  0  0
   -1.0655   -4.9824    5.9642 H   0  0  0  0  0  0  0  0  0  0  0  0
   -1.2065   -4.2327    3.4648 N   0  0  0  0  0  0  0  0  0  0  0  0
   -1.2262   -4.0909    2.0309 C   0  0  2  0  0  0  0  0  0  0  0  0
    0.0996   -4.5966    1.4657 C   0  0  0  0  0  0  0  0  0  0  0  0
    1.0421   -4.9414    2.1757 O   0  0  0  0  0  0  0  0  0  0  0  0
   -1.5693   -2.6655    1.5911 C   0  0  0  0  0  0  0  0  0  0  0  0
   -0.3476   -1.4199    2.1187 S   0  0  0  0  0  0  0  0  0  0  0  0
   -0.3240   -4.0937    3.9521 H   0  0  0  0  0  0  0  0  0  0  0  0
   -2.0154   -4.7667    1.6788 H   0  0  0  0  0  0  0  0  0  0  0  0
   -1.6457   -2.6077    0.5004 H   0  0  0  0  0  0  0  0  0  0  0  0
   -2.5389   -2.3701    2.0063 H   0  0  0  0  0  0  0  0  0  0  0  0
    0.1139   -4.5934    0.0782 N   0  0  0  0  0  0  0  0  0  0  0  0
    1.2656   -5.0050   -0.6899 C   0  0  0  0  0  0  0  0  0  0  0  0
   -0.7262   -4.3330   -0.4299 H   0  0  0  0  0  0  0  0  0  0  0  0
    1.8854   -4.1263   -0.9218 H   0  0  0  0  0  0  0  0  0  0  0  0
    1.8564   -5.7266   -0.1067 H   0  0  0  0  0  0  0  0  0  0  0  0
    0.9323   -5.4759   -1.6265 H   0  0  0  0  0  0  0  0  0  0  0  0
   -6.7256    2.0330   -0.2766 C   0  0  0  0  0  0  0  0  0  0  0  0
   -7.1824    1.1039   -0.9322 O   0  0  0  0  0  0  0  0  0  0  0  0
   -7.5276    2.6077    0.8435 C   0  0  0  0  0  0  0  0  0  0  0  0
   -8.1775    3.4344    0.5145 H   0  0  0  0  0  0  0  0  0  0  0  0
   -8.2057    1.8676    1.2980 H   0  0  0  0  0  0  0  0  0  0  0  0
   -6.9411    3.0162    1.6819 H   0  0  0  0  0  0  0  0  0  0  0  0
   -5.4935    2.6382   -0.4627 N   0  0  0  0  0  0  0  0  0  0  0  0
   -4.5619    2.2388   -1.4845 C   0  0  2  0  0  0  0  0  0  0  0  0
   -3.1535    2.4674   -0.9521 C   0  0  0  0  0  0  0  0  0  0  0  0
   -2.8634    3.3945   -0.1987 O   0  0  0  0  0  0  0  0  0  0  0  0
   -4.7883    3.0138   -2.7732 C   0  0  0  0  0  0  0  0  0  0  0  0
   -5.2337    3.4049    0.1551 H   0  0  0  0  0  0  0  0  0  0  0  0
   -4.7192    1.1682   -1.6549 H   0  0  0  0  0  0  0  0  0  0  0  0
   -4.6352    4.0886   -2.6221 H   0  0  0  0  0  0  0  0  0  0  0  0
   -4.0976    2.6887   -3.5582 H   0  0  0  0  0  0  0  0  0  0  0  0
   -5.8111    2.8719   -3.1387 H   0  0  0  0  0  0  0  0  0  0  0  0
   -2.2466    1.5400   -1.4507 N   0  0  0  0  0  0  0  0  0  0  0  0
   -0.8424    1.5707   -1.1286 C   0  0  2  0  0  0  0  0  0  0  0  0
   -0.0425    1.7354   -2.4192 C   0  0  0  0  0  0  0  0  0  0  0  0
   -0.5216    1.5372   -3.5339 O   0  0  0  0  0  0  0  0  0  0  0  0
   -0.4091    0.3616   -0.2960 C   0  0  0  0  0  0  0  0  0  0  0  0
   -1.1639    0.2995    1.3469 S   0  0  0  0  0  0  0  0  0  0  0  0
   -2.5850    0.7815   -2.0381 H   0  0  0  0  0  0  0  0  0  0  0  0
   -0.6970    2.4791   -0.5308 H   0  0  0  0  0  0  0  0  0  0  0  0
   -0.6657   -0.5706   -0.8097 H   0  0  0  0  0  0  0  0  0  0  0  0
    0.6774    0.3741   -0.1573 H   0  0  0  0  0  0  0  0  0  0  0  0
    1.2732    2.1046   -2.1777 N   0  0  0  0  0  0  0  0  0  0  0  0
    2.2351    2.2979   -3.2376 C   0  0  2  0  0  0  0  0  0  0  0  0
    3.6054    1.8963   -2.7080 C   0  0  0  0  0  0  0  0  0  0  0  0
    3.9499    2.0677   -1.5405 O   0  0  0  0  0  0  0  0  0  0  0  0
    2.2410    3.7390   -3.7233 C   0  0  0  0  0  0  0  0  0  0  0  0
    1.5738    2.2897   -1.2253 H   0  0  0  0  0  0  0  0  0  0  0  0
    1.9466    1.6256   -4.0529 H   0  0  0  0  0  0  0  0  0  0  0  0
    2.5277    4.4274   -2.9200 H   0  0  0  0  0  0  0  0  0  0  0  0
    2.9503    3.8774   -4.5460 H   0  0  0  0  0  0  0  0  0  0  0  0
    1.2473    4.0354   -4.0762 H   0  0  0  0  0  0  0  0  0  0  0  0
    4.4137    1.3636   -3.7025 N   0  0  0  0  0  0  0  0  0  0  0  0
    5.7750    0.9463   -3.4606 C   0  0  0  0  0  0  0  0  0  0  0  0
    4.0325    1.2209   -4.6332 H   0  0  0  0  0  0  0  0  0  0  0  0
    6.4591    1.7790   -3.6814 H   0  0  0  0  0  0  0  0  0  0  0  0
    5.8859    0.6504   -2.4069 H   0  0  0  0  0  0  0  0  0  0  0  0
    6.0170    0.0913   -4.1090 H   0  0  0  0  0  0  0  0  0  0  0  0
  1  3  1  0  0  0  0
  1  7  1  0  0  0  0
  1  2  2  0  0  0  0
 23 25  1  0  0  0  0
 23 29  1  0  0  0  0
 23 24  2  0  0  0  0
 50 51  1  0  0  0  0
 51 59  1  0  0  0  0
 51 52  2  0  0  0  0
  8  9  1  0  0  0  0
  9 17  1  0  0  0  0
  9 10  2  0  0  0  0
 30 31  1  0  0  0  0
 31 39  1  0  0  0  0
 31 32  2  0  0  0  0
 40 41  1  0  0  0  0
 41 49  1  0  0  0  0
 41 42  2  0  0  0  0
 50 53  1  0  0  0  0
 30 33  1  0  0  0  0
 59 60  1  0  0  0  0
 17 18  1  0  0  0  0
  8 11  1  0  0  0  0
 11 12  1  0  0  0  0
 40 43  1  0  0  0  0
 43 44  1  0  0  0  0
 49 50  1  0  0  0  0
  7  8  1  0  0  0  0
 29 30  1  0  0  0  0
 39 40  1  0  0  0  0
 12 44  1  0  0  0  0
  3  4  1  0  0  0  0
  3  5  1  0  0  0  0
  3  6  1  0  0  0  0
 25 26  1  0  0  0  0
 25 27  1  0  0  0  0
 25 28  1  0  0  0  0
 53 56  1  0  0  0  0
 53 57  1  0  0  0  0
 53 58  1  0  0  0  0
 33 36  1  0  0  0  0
 33 37  1  0  0  0  0
 33 38  1  0  0  0  0
 60 62  1  0  0  0  0
 60 63  1  0  0  0  0
 60 64  1  0  0  0  0
 18 20  1  0  0  0  0
 18 21  1  0  0  0  0
 18 22  1  0  0  0  0
 11 15  1  0  0  0  0
 11 16  1  0  0  0  0
 43 47  1  0  0  0  0
 43 48  1  0  0  0  0
 50 55  1  0  0  0  0
  8 14  1  0  0  0  0
 30 35  1  0  0  0  0
 40 46  1  0  0  0  0
 59 61  1  0  0  0  0
 17 19  1  0  0  0  0
  7 13  1  0  0  0  0
 29 34  1  0  0  0  0
 49 54  1  0  0  0  0
 39 45  1  0  0  0  0
M  END
$$$$

  -OEChem-05262214473D

 64 63  0     1  0  0  0  0  0999 V2000
   -1.9063   -5.7732    2.4926 C   0  0  0  0  0  0  0  0  0  0  0  0
   -3.0278   -5.9205    2.0211 O   0  0  0  0  0  0  0  0  0  0  0  0
   -1.6302   -6.2229    3.8890 C   0  0  0  0  0  0  0  0  0  0  0  0
   -1.8183   -5.4303    4.6310 H   0  0  0  0  0  0  0  0  0  0  0  0
   -2.2715   -7.0654    4.1940 H   0  0  0  0  0  0  0  0  0  0  0  0
   -0.5988   -6.5600    4.0803 H   0  0  0  0  0  0  0  0  0  0  0  0
   -0.8148   -5.2141    1.8508 N   0  0  0  0  0  0  0  0  0  0  0  0
   -0.8611   -4.7169    0.4991 C   0  0  2  0  0  0  0  0  0  0  0  0
    0.4840   -4.9852   -0.1729 C   0  0  0  0  0  0  0  0  0  0  0  0
    1.4538   -5.4420    0.4288 O   0  0  0  0  0  0  0  0  0  0  0  0
   -1.2907   -3.2493    0.4326 C   0  0  0  0  0  0  0  0  0  0  0  0
   -0.1355   -2.1075    1.2598 S   0  0  0  0  0  0  0  0  0  0  0  0
    0.0645   -5.1510    2.3590 H   0  0  0  0  0  0  0  0  0  0  0  0
   -1.6149   -5.3272   -0.0137 H   0  0  0  0  0  0  0  0  0  0  0  0
   -1.3844   -2.9230   -0.6084 H   0  0  0  0  0  0  0  0  0  0  0  0
   -2.2702   -3.1254    0.9070 H   0  0  0  0  0  0  0  0  0  0  0  0
    0.4801   -4.6316   -1.5147 N   0  0  0  0  0  0  0  0  0  0  0  0
    1.6435   -4.7681   -2.3596 C   0  0  0  0  0  0  0  0  0  0  0  0
   -0.3800   -4.3012   -1.9422 H   0  0  0  0  0  0  0  0  0  0  0  0
    2.2090   -3.8246   -2.3611 H   0  0  0  0  0  0  0  0  0  0  0  0
    2.2820   -5.5776   -1.9762 H   0  0  0  0  0  0  0  0  0  0  0  0
    1.3256   -5.0065   -3.3854 H   0  0  0  0  0  0  0  0  0  0  0  0
   -6.7256    2.0330   -0.2766 C   0  0  0  0  0  0  0  0  0  0  0  0
   -7.1824    1.1039   -0.9322 O   0  0  0  0  0  0  0  0  0  0  0  0
   -7.5276    2.6077    0.8435 C   0  0  0  0  0  0  0  0  0  0  0  0
   -8.1775    3.4344    0.5145 H   0  0  0  0  0  0  0  0  0  0  0  0
   -8.2057    1.8676    1.2980 H   0  0  0  0  0  0  0  0  0  0  0  0
   -6.9411    3.0162    1.6819 H   0  0  0  0  0  0  0  0  0  0  0  0
   -5.4935    2.6382   -0.4627 N   0  0  0  0  0  0  0  0  0  0  0  0
   -4.5619    2.2388   -1.4845 C   0  0  2  0  0  0  0  0  0  0  0  0
   -3.1535    2.4674   -0.9521 C   0  0  0  0  0  0  0  0  0  0  0  0
   -2.8634    3.3945   -0.1987 O   0  0  0  0  0  0  0  0  0  0  0  0
   -4.7883    3.0138   -2.7732 C   0  0  0  0  0  0  0  0  0  0  0  0
   -5.2337    3.4049    0.1551 H   0  0  0  0  0  0  0  0  0  0  0  0
   -4.7192    1.1682   -1.6549 H   0  0  0  0  0  0  0  0  0  0  0  0
   -4.6352    4.0886   -2.6221 H   0  0  0  0  0  0  0  0  0  0  0  0
   -4.0976    2.6887   -3.5582 H   0  0  0  0  0  0  0  0  0  0  0  0
   -5.8111    2.8719   -3.1387 H   0  0  0  0  0  0  0  0  0  0  0  0
   -2.2466    1.5400   -1.4507 N   0  0  0  0  0  0  0  0  0  0  0  0
   -0.8424    1.5707   -1.1286 C   0  0  2  0  0  0  0  0  0  0  0  0
   -0.0700    2.1019   -2.3343 C   0  0  0  0  0  0  0  0  0  0  0  0
   -0.6125    2.4155   -3.3920 O   0  0  0  0  0  0  0  0  0  0  0  0
   -0.3300    0.2183   -0.6272 C   0  0  0  0  0  0  0  0  0  0  0  0
   -1.0587   -0.2999    0.9454 S   0  0  0  0  0  0  0  0  0  0  0  0
   -2.5850    0.7815   -2.0381 H   0  0  0  0  0  0  0  0  0  0  0  0
   -0.7415    2.3060   -0.3206 H   0  0  0  0  0  0  0  0  0  0  0  0
   -0.5395   -0.5677   -1.3601 H   0  0  0  0  0  0  0  0  0  0  0  0
    0.7557    0.2591   -0.4878 H   0  0  0  0  0  0  0  0  0  0  0  0
    1.2962    2.1605   -2.0981 N   0  0  0  0  0  0  0  0  0  0  0  0
    2.2408    2.6066   -3.0954 C   0  0  2  0  0  0  0  0  0  0  0  0
    3.5419    1.8434   -2.8855 C   0  0  0  0  0  0  0  0  0  0  0  0
    3.9492    1.5042   -1.7764 O   0  0  0  0  0  0  0  0  0  0  0  0
    2.4706    4.1073   -3.0077 C   0  0  0  0  0  0  0  0  0  0  0  0
    1.6552    1.9223   -1.1783 H   0  0  0  0  0  0  0  0  0  0  0  0
    1.8171    2.3457   -4.0714 H   0  0  0  0  0  0  0  0  0  0  0  0
    2.8949    4.3878   -2.0367 H   0  0  0  0  0  0  0  0  0  0  0  0
    3.1650    4.4483   -3.7827 H   0  0  0  0  0  0  0  0  0  0  0  0
    1.5290    4.6536   -3.1293 H   0  0  0  0  0  0  0  0  0  0  0  0
    4.2162    1.6234   -4.0784 N   0  0  0  0  0  0  0  0  0  0  0  0
    5.4963    0.9573   -4.1391 C   0  0  0  0  0  0  0  0  0  0  0  0
    3.7856    1.9033   -4.9548 H   0  0  0  0  0  0  0  0  0  0  0  0
    6.3018    1.7053   -4.0974 H   0  0  0  0  0  0  0  0  0  0  0  0
    5.5916    0.2682   -3.2870 H   0  0  0  0  0  0  0  0  0  0  0  0
    5.5705    0.3907   -5.0790 H   0  0  0  0  0  0  0  0  0  0  0  0
  1  3  1  0  0  0  0
  1  7  1  0  0  0  0
  1  2  2  0  0  0  0
 23 25  1  0  0  0  0
 23 29  1  0  0  0  0
 23 24  2  0  0  0  0
 50 51  1  0  0  0  0
 51 59  1  0  0  0  0
 51 52  2  0  0  0  0
  8  9  1  0  0  0  0
  9 17  1  0  0  0  0
  9 10  2  0  0  0  0
 30 31  1  0  0  0  0
 31 39  1  0  0  0  0
 31 32  2  0  0  0  0
 40 41  1  0  0  0  0
 41 49  1  0  0  0  0
 41 42  2  0  0  0  0
 50 53  1  0  0  0  0
 30 33  1  0  0  0  0
 59 60  1  0  0  0  0
 17 18  1  0  0  0  0
  8 11  1  0  0  0  0
 11 12  1  0  0  0  0
 40 43  1  0  0  0  0
 43 44  1  0  0  0  0
 49 50  1  0  0  0  0
  7  8  1  0  0  0  0
 29 30  1  0  0  0  0
 39 40  1  0  0  0  0
 12 44  1  0  0  0  0
  3  4  1  0  0  0  0
  3  5  1  0  0  0  0
  3  6  1  0  0  0  0
 25 26  1  0  0  0  0
 25 27  1  0  0  0  0
 25 28  1  0  0  0  0
 53 56  1  0  0  0  0
 53 57  1  0  0  0  0
 53 58  1  0  0  0  0
 33 36  1  0  0  0  0
 33 37  1  0  0  0  0
 33 38  1  0  0  0  0
 60 62  1  0  0  0  0
 60 63  1  0  0  0  0
 60 64  1  0  0  0  0
 18 20  1  0  0  0  0
 18 21  1  0  0  0  0
 18 22  1  0  0  0  0
 11 15  1  0  0  0  0
 11 16  1  0  0  0  0
 43 47  1  0  0  0  0
 43 48  1  0  0  0  0
 50 55  1  0  0  0  0
  8 14  1  0  0  0  0
 30 35  1  0  0  0  0
 40 46  1  0  0  0  0
 59 61  1  0  0  0  0
 17 19  1  0  0  0  0
  7 13  1  0  0  0  0
 29 34  1  0  0  0  0
 49 54  1  0  0  0  0
 39 45  1  0  0  0  0
M  END
$$$$

  -OEChem-05262214473D

 64 63  0     1  0  0  0  0  0999 V2000
   -1.9063   -5.7732    2.4926 C   0  0  0  0  0  0  0  0  0  0  0  0
   -3.0278   -5.9205    2.0211 O   0  0  0  0  0  0  0  0  0  0  0  0
   -1.6302   -6.2229    3.8890 C   0  0  0  0  0  0  0  0  0  0  0  0
   -1.8183   -5.4303    4.6310 H   0  0  0  0  0  0  0  0  0  0  0  0
   -2.2715   -7.0654    4.1940 H   0  0  0  0  0  0  0  0  0  0  0  0
   -0.5988   -6.5600    4.0803 H   0  0  0  0  0  0  0  0  0  0  0  0
   -0.8148   -5.2141    1.8508 N   0  0  0  0  0  0  0  0  0  0  0  0
   -0.8611   -4.7169    0.4991 C   0  0  2  0  0  0  0  0  0  0  0  0
    0.4840   -4.9852   -0.1729 C   0  0  0  0  0  0  0  0  0  0  0  0
    1.4538   -5.4420    0.4288 O   0  0  0  0  0  0  0  0  0  0  0  0
   -1.2907   -3.2493    0.4326 C   0  0  0  0  0  0  0  0  0  0  0  0
   -0.1355   -2.1075    1.2598 S   0  0  0  0  0  0  0  0  0  0  0  0
    0.0645   -5.1510    2.3590 H   0  0  0  0  0  0  0  0  0  0  0  0
   -1.6149   -5.3272   -0.0137 H   0  0  0  0  0  0  0  0  0  0  0  0
   -1.3844   -2.9230   -0.6084 H   0  0  0  0  0  0  0  0  0  0  0  0
   -2.2702   -3.1254    0.9070 H   0  0  0  0  0  0  0  0  0  0  0  0
    0.4801   -4.6316   -1.5147 N   0  0  0  0  0  0  0  0  0  0  0  0
    1.6435   -4.7681   -2.3596 C   0  0  0  0  0  0  0  0  0  0  0  0
   -0.3800   -4.3012   -1.9422 H   0  0  0  0  0  0  0  0  0  0  0  0
    2.2090   -3.8246   -2.3611 H   0  0  0  0  0  0  0  0  0  0  0  0
    2.2820   -5.5776   -1.9762 H   0  0  0  0  0  0  0  0  0  0  0  0
    1.3256   -5.0065   -3.3854 H   0  0  0  0  0  0  0  0  0  0  0  0
   -6.7256    2.0330   -0.2766 C   0  0  0  0  0  0  0  0  0  0  0  0
   -7.1824    1.1039   -0.9322 O   0  0  0  0  0  0  0  0  0  0  0  0
   -7.5276    2.6077    0.8435 C   0  0  0  0  0  0  0  0  0  0  0  0
   -8.1775    3.4344    0.5145 H   0  0  0  0  0  0  0  0  0  0  0  0
   -8.2057    1.8676    1.2980 H   0  0  0  0  0  0  0  0  0  0  0  0
   -6.9411    3.0162    1.6819 H   0  0  0  0  0  0  0  0  0  0  0  0
   -5.4935    2.6382   -0.4627 N   0  0  0  0  0  0  0  0  0  0  0  0
   -4.5619    2.2388   -1.4845 C   0  0  2  0  0  0  0  0  0  0  0  0
   -3.1535    2.4674   -0.9521 C   0  0  0  0  0  0  0  0  0  0  0  0
   -2.8634    3.3945   -0.1987 O   0  0  0  0  0  0  0  0  0  0  0  0
   -4.7883    3.0138   -2.7732 C   0  0  0  0  0  0  0  0  0  0  0  0
   -5.2337    3.4049    0.1551 H   0  0  0  0  0  0  0  0  0  0  0  0
   -4.7192    1.1682   -1.6549 H   0  0  0  0  0  0  0  0  0  0  0  0
   -4.6352    4.0886   -2.6221 H   0  0  0  0  0  0  0  0  0  0  0  0
   -4.0976    2.6887   -3.5582 H   0  0  0  0  0  0  0  0  0  0  0  0
   -5.8111    2.8719   -3.1387 H   0  0  0  0  0  0  0  0  0  0  0  0
   -2.2466    1.5400   -1.4507 N   0  0  0  0  0  0  0  0  0  0  0  0
   -0.8424    1.5707   -1.1286 C   0  0  2  0  0  0  0  0  0  0  0  0
   -0.0700    2.1019   -2.3343 C   0  0  0  0  0  0  0  0  0  0  0  0
   -0.6136    2.6620   -3.2841 O   0  0  0  0  0  0  0  0  0  0  0  0
   -0.3300    0.2183   -0.6272 C   0  0  0  0  0  0  0  0  0  0  0  0
   -1.0587   -0.2999    0.9454 S   0  0  0  0  0  0  0  0  0  0  0  0
   -2.5850    0.7815   -2.0381 H   0  0  0  0  0  0  0  0  0  0  0  0
   -0.7415    2.3060   -0.3206 H   0  0  0  0  0  0  0  0  0  0  0  0
   -0.5395   -0.5677   -1.3601 H   0  0  0  0  0  0  0  0  0  0  0  0
    0.7557    0.2591   -0.4878 H   0  0  0  0  0  0  0  0  0  0  0  0
    1.2919    1.8547   -2.2356 N   0  0  0  0  0  0  0  0  0  0  0  0
    2.2302    2.2399   -3.2638 C   0  0  2  0  0  0  0  0  0  0  0  0
    3.3538    1.2121   -3.2841 C   0  0  0  0  0  0  0  0  0  0  0  0
    3.7642    0.6468   -2.2726 O   0  0  0  0  0  0  0  0  0  0  0  0
    2.7765    3.6378   -3.0186 C   0  0  0  0  0  0  0  0  0  0  0  0
    1.6620    1.4234   -1.3937 H   0  0  0  0  0  0  0  0  0  0  0  0
    1.6878    2.2078   -4.2150 H   0  0  0  0  0  0  0  0  0  0  0  0
    3.3232    3.6895   -2.0700 H   0  0  0  0  0  0  0  0  0  0  0  0
    3.4658    3.9396   -3.8141 H   0  0  0  0  0  0  0  0  0  0  0  0
    1.9644    4.3715   -2.9746 H   0  0  0  0  0  0  0  0  0  0  0  0
    3.8736    1.0323   -4.5583 N   0  0  0  0  0  0  0  0  0  0  0  0
    4.9765    0.1408   -4.8318 C   0  0  0  0  0  0  0  0  0  0  0  0
    3.4458    1.5121   -5.3448 H   0  0  0  0  0  0  0  0  0  0  0  0
    5.9221    0.7007   -4.7832 H   0  0  0  0  0  0  0  0  0  0  0  0
    4.9896   -0.6661   -4.0843 H   0  0  0  0  0  0  0  0  0  0  0  0
    4.8578   -0.2917   -5.8362 H   0  0  0  0  0  0  0  0  0  0  0  0
  1  3  1  0  0  0  0
  1  7  1  0  0  0  0
  1  2  2  0  0  0  0
 23 25  1  0  0  0  0
 23 29  1  0  0  0  0
 23 24  2  0  0  0  0
 50 51  1  0  0  0  0
 51 59  1  0  0  0  0
 51 52  2  0  0  0  0
  8  9  1  0  0  0  0
  9 17  1  0  0  0  0
  9 10  2  0  0  0  0
 30 31  1  0  0  0  0
 31 39  1  0  0  0  0
 31 32  2  0  0  0  0
 40 41  1  0  0  0  0
 41 49  1  0  0  0  0
 41 42  2  0  0  0  0
 50 53  1  0  0  0  0
 30 33  1  0  0  0  0
 59 60  1  0  0  0  0
 17 18  1  0  0  0  0
  8 11  1  0  0  0  0
 11 12  1  0  0  0  0
 40 43  1  0  0  0  0
 43 44  1  0  0  0  0
 49 50  1  0  0  0  0
  7  8  1  0  0  0  0
 29 30  1  0  0  0  0
 39 40  1  0  0  0  0
 12 44  1  0  0  0  0
  3  4  1  0  0  0  0
  3  5  1  0  0  0  0
  3  6  1  0  0  0  0
 25 26  1  0  0  0  0
 25 27  1  0  0  0  0
 25 28  1  0  0  0  0
 53 56  1  0  0  0  0
 53 57  1  0  0  0  0
 53 58  1  0  0  0  0
 33 36  1  0  0  0  0
 33 37  1  0  0  0  0
 33 38  1  0  0  0  0
 60 62  1  0  0  0  0
 60 63  1  0  0  0  0
 60 64  1  0  0  0  0
 18 20  1  0  0  0  0
 18 21  1  0  0  0  0
 18 22  1  0  0  0  0
 11 15  1  0  0  0  0
 11 16  1  0  0  0  0
 43 47  1  0  0  0  0
 43 48  1  0  0  0  0
 50 55  1  0  0  0  0
  8 14  1  0  0  0  0
 30 35  1  0  0  0  0
 40 46  1  0  0  0  0
 59 61  1  0  0  0  0
 17 19  1  0  0  0  0
  7 13  1  0  0  0  0
 29 34  1  0  0  0  0
 49 54  1  0  0  0  0
 39 45  1  0  0  0  0
M  END
$$$$

  -OEChem-05262214473D

 64 63  0     1  0  0  0  0  0999 V2000
   -1.9063   -5.7732    2.4926 C   0  0  0  0  0  0  0  0  0  0  0  0
   -3.0278   -5.9205    2.0211 O   0  0  0  0  0  0  0  0  0  0  0  0
   -1.6302   -6.2229    3.8890 C   0  0  0  0  0  0  0  0  0  0  0  0
   -1.8183   -5.4303    4.6310 H   0  0  0  0  0  0  0  0  0  0  0  0
   -2.2715   -7.0654    4.1940 H   0  0  0  0  0  0  0  0  0  0  0  0
   -0.5988   -6.5600    4.0803 H   0  0  0  0  0  0  0  0  0  0  0  0
   -0.8148   -5.2141    1.8508 N   0  0  0  0  0  0  0  0  0  0  0  0
   -0.8611   -4.7169    0.4991 C   0  0  2  0  0  0  0  0  0  0  0  0
    0.4840   -4.9852   -0.1729 C   0  0  0  0  0  0  0  0  0  0  0  0
    1.4538   -5.4420    0.4288 O   0  0  0  0  0  0  0  0  0  0  0  0
   -1.2907   -3.2493    0.4326 C   0  0  0  0  0  0  0  0  0  0  0  0
   -0.1355   -2.1075    1.2598 S   0  0  0  0  0  0  0  0  0  0  0  0
    0.0645   -5.1510    2.3590 H   0  0  0  0  0  0  0  0  0  0  0  0
   -1.6149   -5.3272   -0.0137 H   0  0  0  0  0  0  0  0  0  0  0  0
   -1.3844   -2.9230   -0.6084 H   0  0  0  0  0  0  0  0  0  0  0  0
   -2.2702   -3.1254    0.9070 H   0  0  0  0  0  0  0  0  0  0  0  0
    0.4801   -4.6316   -1.5147 N   0  0  0  0  0  0  0  0  0  0  0  0
    1.6435   -4.7681   -2.3596 C   0  0  0  0  0  0  0  0  0  0  0  0
   -0.3800   -4.3012   -1.9422 H   0  0  0  0  0  0  0  0  0  0  0  0
    2.2090   -3.8246   -2.3611 H   0  0  0  0  0  0  0  0  0  0  0  0
    2.2820   -5.5776   -1.9762 H   0  0  0  0  0  0  0  0  0  0  0  0
    1.3256   -5.0065   -3.3854 H   0  0  0  0  0  0  0  0  0  0  0  0
   -6.7256    2.0330   -0.2766 C   0  0  0  0  0  0  0  0  0  0  0  0
   -7.1824    1.1039   -0.9322 O   0  0  0  0  0  0  0  0  0  0  0  0
   -7.5276    2.6077    0.8435 C   0  0  0  0  0  0  0  0  0  0  0  0
   -8.1775    3.4344    0.5145 H   0  0  0  0  0  0  0  0  0  0  0  0
   -8.2057    1.8676    1.2980 H   0  0  0  0  0  0  0  0  0  0  0  0
   -6.9411    3.0162    1.6819 H   0  0  0  0  0  0  0  0  0  0  0  0
   -5.4935    2.6382   -0.4627 N   0  0  0  0  0  0  0  0  0  0  0  0
   -4.5619    2.2388   -1.4845 C   0  0  2  0  0  0  0  0  0  0  0  0
   -3.1535    2.4674   -0.9521 C   0  0  0  0  0  0  0  0  0  0  0  0
   -2.8634    3.3945   -0.1987 O   0  0  0  0  0  0  0  0  0  0  0  0
   -4.7883    3.0138   -2.7732 C   0  0  0  0  0  0  0  0  0  0  0  0
   -5.2337    3.4049    0.1551 H   0  0  0  0  0  0  0  0  0  0  0  0
   -4.7192    1.1682   -1.6549 H   0  0  0  0  0  0  0  0  0  0  0  0
   -4.6352    4.0886   -2.6221 H   0  0  0  0  0  0  0  0  0  0  0  0
   -4.0976    2.6887   -3.5582 H   0  0  0  0  0  0  0  0  0  0  0  0
   -5.8111    2.8719   -3.1387 H   0  0  0  0  0  0  0  0  0  0  0  0
   -2.2466    1.5400   -1.4507 N   0  0  0  0  0  0  0  0  0  0  0  0
   -0.8424    1.5707   -1.1286 C   0  0  2  0  0  0  0  0  0  0  0  0
   -0.0700    2.1019   -2.3343 C   0  0  0  0  0  0  0  0  0  0  0  0
   -0.5546    2.8863   -3.1474 O   0  0  0  0  0  0  0  0  0  0  0  0
   -0.3300    0.2183   -0.6272 C   0  0  0  0  0  0  0  0  0  0  0  0
   -1.0587   -0.2999    0.9454 S   0  0  0  0  0  0  0  0  0  0  0  0
   -2.5850    0.7815   -2.0381 H   0  0  0  0  0  0  0  0  0  0  0  0
   -0.7415    2.3060   -0.3206 H   0  0  0  0  0  0  0  0  0  0  0  0
   -0.5395   -0.5677   -1.3601 H   0  0  0  0  0  0  0  0  0  0  0  0
    0.7557    0.2591   -0.4878 H   0  0  0  0  0  0  0  0  0  0  0  0
    1.2129    1.5781   -2.4080 N   0  0  0  0  0  0  0  0  0  0  0  0
    2.1298    1.9100   -3.4734 C   0  0  2  0  0  0  0  0  0  0  0  0
    3.0073    0.6930   -3.7348 C   0  0  0  0  0  0  0  0  0  0  0  0
    3.3656   -0.0787   -2.8476 O   0  0  0  0  0  0  0  0  0  0  0  0
    2.9751    3.1233   -3.1181 C   0  0  0  0  0  0  0  0  0  0  0  0
    1.5473    0.9683   -1.6678 H   0  0  0  0  0  0  0  0  0  0  0  0
    1.5218    2.1198   -4.3601 H   0  0  0  0  0  0  0  0  0  0  0  0
    3.5912    2.9319   -2.2320 H   0  0  0  0  0  0  0  0  0  0  0  0
    3.6496    3.3908   -3.9381 H   0  0  0  0  0  0  0  0  0  0  0  0
    2.3412    3.9899   -2.9013 H   0  0  0  0  0  0  0  0  0  0  0  0
    3.3787    0.5942   -5.0684 N   0  0  0  0  0  0  0  0  0  0  0  0
    4.2452   -0.4511   -5.5610 C   0  0  0  0  0  0  0  0  0  0  0  0
    3.0026    1.2548   -5.7421 H   0  0  0  0  0  0  0  0  0  0  0  0
    5.2883   -0.1022   -5.5430 H   0  0  0  0  0  0  0  0  0  0  0  0
    4.1454   -1.3412   -4.9226 H   0  0  0  0  0  0  0  0  0  0  0  0
    3.9618   -0.7062   -6.5928 H   0  0  0  0  0  0  0  0  0  0  0  0
  1  3  1  0  0  0  0
  1  7  1  0  0  0  0
  1  2  2  0  0  0  0
 23 25  1  0  0  0  0
 23 29  1  0  0  0  0
 23 24  2  0  0  0  0
 50 51  1  0  0  0  0
 51 59  1  0  0  0  0
 51 52  2  0  0  0  0
  8  9  1  0  0  0  0
  9 17  1  0  0  0  0
  9 10  2  0  0  0  0
 30 31  1  0  0  0  0
 31 39  1  0  0  0  0
 31 32  2  0  0  0  0
 40 41  1  0  0  0  0
 41 49  1  0  0  0  0
 41 42  2  0  0  0  0
 50 53  1  0  0  0  0
 30 33  1  0  0  0  0
 59 60  1  0  0  0  0
 17 18  1  0  0  0  0
  8 11  1  0  0  0  0
 11 12  1  0  0  0  0
 40 43  1  0  0  0  0
 43 44  1  0  0  0  0
 49 50  1  0  0  0  0
  7  8  1  0  0  0  0
 29 30  1  0  0  0  0
 39 40  1  0  0  0  0
 12 44  1  0  0  0  0
  3  4  1  0  0  0  0
  3  5  1  0  0  0  0
  3  6  1  0  0  0  0
 25 26  1  0  0  0  0
 25 27  1  0  0  0  0
 25 28  1  0  0  0  0
 53 56  1  0  0  0  0
 53 57  1  0  0  0  0
 53 58  1  0  0  0  0
 33 36  1  0  0  0  0
 33 37  1  0  0  0  0
 33 38  1  0  0  0  0
 60 62  1  0  0  0  0
 60 63  1  0  0  0  0
 60 64  1  0  0  0  0
 18 20  1  0  0  0  0
 18 21  1  0  0  0  0
 18 22  1  0  0  0  0
 11 15  1  0  0  0  0
 11 16  1  0  0  0  0
 43 47  1  0  0  0  0
 43 48  1  0  0  0  0
 50 55  1  0  0  0  0
  8 14  1  0  0  0  0
 30 35  1  0  0  0  0
 40 46  1  0  0  0  0
 59 61  1  0  0  0  0
 17 19  1  0  0  0  0
  7 13  1  0  0  0  0
 29 34  1  0  0  0  0
 49 54  1  0  0  0  0
 39 45  1  0  0  0  0
M  END
$$$$

  -OEChem-05262214473D

 64 63  0     1  0  0  0  0  0999 V2000
   -1.9063   -5.7732    2.4926 C   0  0  0  0  0  0  0  0  0  0  0  0
   -3.0278   -5.9205    2.0211 O   0  0  0  0  0  0  0  0  0  0  0  0
   -1.6302   -6.2229    3.8890 C   0  0  0  0  0  0  0  0  0  0  0  0
   -1.8183   -5.4303    4.6310 H   0  0  0  0  0  0  0  0  0  0  0  0
   -2.2715   -7.0654    4.1940 H   0  0  0  0  0  0  0  0  0  0  0  0
   -0.5988   -6.5600    4.0803 H   0  0  0  0  0  0  0  0  0  0  0  0
   -0.8148   -5.2141    1.8508 N   0  0  0  0  0  0  0  0  0  0  0  0
   -0.8611   -4.7169    0.4991 C   0  0  2  0  0  0  0  0  0  0  0  0
    0.4840   -4.9852   -0.1729 C   0  0  0  0  0  0  0  0  0  0  0  0
    1.4538   -5.4420    0.4288 O   0  0  0  0  0  0  0  0  0  0  0  0
   -1.2907   -3.2493    0.4326 C   0  0  0  0  0  0  0  0  0  0  0  0
   -0.1355   -2.1075    1.2598 S   0  0  0  0  0  0  0  0  0  0  0  0
    0.0645   -5.1510    2.3590 H   0  0  0  0  0  0  0  0  0  0  0  0
   -1.6149   -5.3272   -0.0137 H   0  0  0  0  0  0  0  0  0  0  0  0
   -1.3844   -2.9230   -0.6084 H   0  0  0  0  0  0  0  0  0  0  0  0
   -2.2702   -3.1254    0.9070 H   0  0  0  0  0  0  0  0  0  0  0  0
    0.4801   -4.6316   -1.5147 N   0  0  0  0  0  0  0  0  0  0  0  0
    1.6435   -4.7681   -2.3596 C   0  0  0  0  0  0  0  0  0  0  0  0
   -0.3800   -4.3012   -1.9422 H   0  0  0  0  0  0  0  0  0  0  0  0
    2.2090   -3.8246   -2.3611 H   0  0  0  0  0  0  0  0  0  0  0  0
    2.2820   -5.5776   -1.9762 H   0  0  0  0  0  0  0  0  0  0  0  0
    1.3256   -5.0065   -3.3854 H   0  0  0  0  0  0  0  0  0  0  0  0
   -6.7256    2.0330   -0.2766 C   0  0  0  0  0  0  0  0  0  0  0  0
   -7.1824    1.1039   -0.9322 O   0  0  0  0  0  0  0  0  0  0  0  0
   -7.5276    2.6077    0.8435 C   0  0  0  0  0  0  0  0  0  0  0  0
   -8.1775    3.4344    0.5145 H   0  0  0  0  0  0  0  0  0  0  0  0
   -8.2057    1.8676    1.2980 H   0  0  0  0  0  0  0  0  0  0  0  0
   -6.9411    3.0162    1.6819 H   0  0  0  0  0  0  0  0  0  0  0  0
   -5.4935    2.6382   -0.4627 N   0  0  0  0  0  0  0  0  0  0  0  0
   -4.5619    2.2388   -1.4845 C   0  0  2  0  0  0  0  0  0  0  0  0
   -3.1535    2.4674   -0.9521 C   0  0  0  0  0  0  0  0  0  0  0  0
   -2.8634    3.3945   -0.1987 O   0  0  0  0  0  0  0  0  0  0  0  0
   -4.7883    3.0138   -2.7732 C   0  0  0  0  0  0  0  0  0  0  0  0
   -5.2337    3.4049    0.1551 H   0  0  0  0  0  0  0  0  0  0  0  0
   -4.7192    1.1682   -1.6549 H   0  0  0  0  0  0  0  0  0  0  0  0
   -4.6352    4.0886   -2.6221 H   0  0  0  0  0  0  0  0  0  0  0  0
   -4.0976    2.6887   -3.5582 H   0  0  0  0  0  0  0  0  0  0  0  0
   -5.8111    2.8719   -3.1387 H   0  0  0  0  0  0  0  0  0  0  0  0
   -2.2466    1.5400   -1.4507 N   0  0  0  0  0  0  0  0  0  0  0  0
   -0.8424    1.5707   -1.1286 C   0  0  2  0  0  0  0  0  0  0  0  0
   -0.0700    2.1019   -2.3343 C   0  0  0  0  0  0  0  0  0  0  0  0
   -0.4395    3.0730   -2.9914 O   0  0  0  0  0  0  0  0  0  0  0  0
   -0.3300    0.2183   -0.6272 C   0  0  0  0  0  0  0  0  0  0  0  0
   -1.0587   -0.2999    0.9454 S   0  0  0  0  0  0  0  0  0  0  0  0
   -2.5850    0.7815   -2.0381 H   0  0  0  0  0  0  0  0  0  0  0  0
   -0.7415    2.3060   -0.3206 H   0  0  0  0  0  0  0  0  0  0  0  0
   -0.5395   -0.5677   -1.3601 H   0  0  0  0  0  0  0  0  0  0  0  0
    0.7557    0.2591   -0.4878 H   0  0  0  0  0  0  0  0  0  0  0  0
    1.0646    1.3497   -2.6037 N   0  0  0  0  0  0  0  0  0  0  0  0
    1.9466    1.6392   -3.7100 C   0  0  2  0  0  0  0  0  0  0  0  0
    2.5259    0.3213   -4.2070 C   0  0  0  0  0  0  0  0  0  0  0  0
    2.7807   -0.6228   -3.4621 O   0  0  0  0  0  0  0  0  0  0  0  0
    3.0528    2.5987   -3.2994 C   0  0  0  0  0  0  0  0  0  0  0  0
    1.3188    0.5880   -1.9817 H   0  0  0  0  0  0  0  0  0  0  0  0
    1.3304    2.0877   -4.4969 H   0  0  0  0  0  0  0  0  0  0  0  0
    3.6808    2.1666   -2.5118 H   0  0  0  0  0  0  0  0  0  0  0  0
    3.7038    2.8395   -4.1463 H   0  0  0  0  0  0  0  0  0  0  0  0
    2.6338    3.5346   -2.9144 H   0  0  0  0  0  0  0  0  0  0  0  0
    2.7653    0.3388   -5.5740 N   0  0  0  0  0  0  0  0  0  0  0  0
    3.3523   -0.7779   -6.2771 C   0  0  0  0  0  0  0  0  0  0  0  0
    2.4861    1.1487   -6.1197 H   0  0  0  0  0  0  0  0  0  0  0  0
    4.4437   -0.6489   -6.3250 H   0  0  0  0  0  0  0  0  0  0  0  0
    3.1165   -1.7111   -5.7446 H   0  0  0  0  0  0  0  0  0  0  0  0
    2.9436   -0.8244   -7.2973 H   0  0  0  0  0  0  0  0  0  0  0  0
  1  3  1  0  0  0  0
  1  7  1  0  0  0  0
  1  2  2  0  0  0  0
 23 25  1  0  0  0  0
 23 29  1  0  0  0  0
 23 24  2  0  0  0  0
 50 51  1  0  0  0  0
 51 59  1  0  0  0  0
 51 52  2  0  0  0  0
  8  9  1  0  0  0  0
  9 17  1  0  0  0  0
  9 10  2  0  0  0  0
 30 31  1  0  0  0  0
 31 39  1  0  0  0  0
 31 32  2  0  0  0  0
 40 41  1  0  0  0  0
 41 49  1  0  0  0  0
 41 42  2  0  0  0  0
 50 53  1  0  0  0  0
 30 33  1  0  0  0  0
 59 60  1  0  0  0  0
 17 18  1  0  0  0  0
  8 11  1  0  0  0  0
 11 12  1  0  0  0  0
 40 43  1  0  0  0  0
 43 44  1  0  0  0  0
 49 50  1  0  0  0  0
  7  8  1  0  0  0  0
 29 30  1  0  0  0  0
 39 40  1  0  0  0  0
 12 44  1  0  0  0  0
  3  4  1  0  0  0  0
  3  5  1  0  0  0  0
  3  6  1  0  0  0  0
 25 26  1  0  0  0  0
 25 27  1  0  0  0  0
 25 28  1  0  0  0  0
 53 56  1  0  0  0  0
 53 57  1  0  0  0  0
 53 58  1  0  0  0  0
 33 36  1  0  0  0  0
 33 37  1  0  0  0  0
 33 38  1  0  0  0  0
 60 62  1  0  0  0  0
 60 63  1  0  0  0  0
 60 64  1  0  0  0  0
 18 20  1  0  0  0  0
 18 21  1  0  0  0  0
 18 22  1  0  0  0  0
 11 15  1  0  0  0  0
 11 16  1  0  0  0  0
 43 47  1  0  0  0  0
 43 48  1  0  0  0  0
 50 55  1  0  0  0  0
  8 14  1  0  0  0  0
 30 35  1  0  0  0  0
 40 46  1  0  0  0  0
 59 61  1  0  0  0  0
 17 19  1  0  0  0  0
  7 13  1  0  0  0  0
 29 34  1  0  0  0  0
 49 54  1  0  0  0  0
 39 45  1  0  0  0  0
M  END
$$$$

  -OEChem-05262214473D

 64 63  0     1  0  0  0  0  0999 V2000
   -1.9063   -5.7732    2.4926 C   0  0  0  0  0  0  0  0  0  0  0  0
   -3.0278   -5.9205    2.0211 O   0  0  0  0  0  0  0  0  0  0  0  0
   -1.6302   -6.2229    3.8890 C   0  0  0  0  0  0  0  0  0  0  0  0
   -1.8183   -5.4303    4.6310 H   0  0  0  0  0  0  0  0  0  0  0  0
   -2.2715   -7.0654    4.1940 H   0  0  0  0  0  0  0  0  0  0  0  0
   -0.5988   -6.5600    4.0803 H   0  0  0  0  0  0  0  0  0  0  0  0
   -0.8148   -5.2141    1.8508 N   0  0  0  0  0  0  0  0  0  0  0  0
   -0.8611   -4.7169    0.4991 C   0  0  2  0  0  0  0  0  0  0  0  0
    0.4840   -4.9852   -0.1729 C   0  0  0  0  0  0  0  0  0  0  0  0
    1.4538   -5.4420    0.4288 O   0  0  0  0  0  0  0  0  0  0  0  0
   -1.2907   -3.2493    0.4326 C   0  0  0  0  0  0  0  0  0  0  0  0
   -0.1355   -2.1075    1.2598 S   0  0  0  0  0  0  0  0  0  0  0  0
    0.0645   -5.1510    2.3590 H   0  0  0  0  0  0  0  0  0  0  0  0
   -1.6149   -5.3272   -0.0137 H   0  0  0  0  0  0  0  0  0  0  0  0
   -1.3844   -2.9230   -0.6084 H   0  0  0  0  0  0  0  0  0  0  0  0
   -2.2702   -3.1254    0.9070 H   0  0  0  0  0  0  0  0  0  0  0  0
    0.4801   -4.6316   -1.5147 N   0  0  0  0  0  0  0  0  0  0  0  0
    1.6435   -4.7681   -2.3596 C   0  0  0  0  0  0  0  0  0  0  0  0
   -0.3800   -4.3012   -1.9422 H   0  0  0  0  0  0  0  0  0  0  0  0
    2.2090   -3.8246   -2.3611 H   0  0  0  0  0  0  0  0  0  0  0  0
    2.2820   -5.5776   -1.9762 H   0  0  0  0  0  0  0  0  0  0  0  0
    1.3256   -5.0065   -3.3854 H   0  0  0  0  0  0  0  0  0  0  0  0
   -6.7256    2.0330   -0.2766 C   0  0  0  0  0  0  0  0  0  0  0  0
   -7.1824    1.1039   -0.9322 O   0  0  0  0  0  0  0  0  0  0  0  0
   -7.5276    2.6077    0.8435 C   0  0  0  0  0  0  0  0  0  0  0  0
   -8.1775    3.4344    0.5145 H   0  0  0  0  0  0  0  0  0  0  0  0
   -8.2057    1.8676    1.2980 H   0  0  0  0  0  0  0  0  0  0  0  0
   -6.9411    3.0162    1.6819 H   0  0  0  0  0  0  0  0  0  0  0  0
   -5.4935    2.6382   -0.4627 N   0  0  0  0  0  0  0  0  0  0  0  0
   -4.5619    2.2388   -1.4845 C   0  0  2  0  0  0  0  0  0  0  0  0
   -3.1535    2.4674   -0.9521 C   0  0  0  0  0  0  0  0  0  0  0  0
   -2.8634    3.3945   -0.1987 O   0  0  0  0  0  0  0  0  0  0  0  0
   -4.7883    3.0138   -2.7732 C   0  0  0  0  0  0  0  0  0  0  0  0
   -5.2337    3.4049    0.1551 H   0  0  0  0  0  0  0  0  0  0  0  0
   -4.7192    1.1682   -1.6549 H   0  0  0  0  0  0  0  0  0  0  0  0
   -4.6352    4.0886   -2.6221 H   0  0  0  0  0  0  0  0  0  0  0  0
   -4.0976    2.6887   -3.5582 H   0  0  0  0  0  0  0  0  0  0  0  0
   -5.8111    2.8719   -3.1387 H   0  0  0  0  0  0  0  0  0  0  0  0
   -2.2466    1.5400   -1.4507 N   0  0  0  0  0  0  0  0  0  0  0  0
   -0.8424    1.5707   -1.1286 C   0  0  2  0  0  0  0  0  0  0  0  0
   -0.0700    2.1019   -2.3343 C   0  0  0  0  0  0  0  0  0  0  0  0
   -0.2761    3.2094   -2.8267 O   0  0  0  0  0  0  0  0  0  0  0  0
   -0.3300    0.2183   -0.6272 C   0  0  0  0  0  0  0  0  0  0  0  0
   -1.0587   -0.2999    0.9454 S   0  0  0  0  0  0  0  0  0  0  0  0
   -2.5850    0.7815   -2.0381 H   0  0  0  0  0  0  0  0  0  0  0  0
   -0.7415    2.3060   -0.3206 H   0  0  0  0  0  0  0  0  0  0  0  0
   -0.5395   -0.5677   -1.3601 H   0  0  0  0  0  0  0  0  0  0  0  0
    0.7557    0.2591   -0.4878 H   0  0  0  0  0  0  0  0  0  0  0  0
    0.8570    1.1850   -2.8092 N   0  0  0  0  0  0  0  0  0  0  0  0
    1.6931    1.4461   -3.9576 C   0  0  2  0  0  0  0  0  0  0  0  0
    1.9425    0.1224   -4.6684 C   0  0  0  0  0  0  0  0  0  0  0  0
    2.0491   -0.9484   -4.0742 O   0  0  0  0  0  0  0  0  0  0  0  0
    3.0043    2.0998   -3.5502 C   0  0  0  0  0  0  0  0  0  0  0  0
    0.9921    0.3085   -2.3141 H   0  0  0  0  0  0  0  0  0  0  0  0
    1.1266    2.1137   -4.6159 H   0  0  0  0  0  0  0  0  0  0  0  0
    3.5857    1.4457   -2.8903 H   0  0  0  0  0  0  0  0  0  0  0  0
    3.6248    2.3231   -4.4244 H   0  0  0  0  0  0  0  0  0  0  0  0
    2.8223    3.0369   -3.0130 H   0  0  0  0  0  0  0  0  0  0  0  0
    2.0750    0.2837   -6.0405 N   0  0  0  0  0  0  0  0  0  0  0  0
    2.3586   -0.8173   -6.9311 C   0  0  0  0  0  0  0  0  0  0  0  0
    1.9316    1.2013   -6.4519 H   0  0  0  0  0  0  0  0  0  0  0  0
    3.4457   -0.9020   -7.0758 H   0  0  0  0  0  0  0  0  0  0  0  0
    1.9732   -1.7506   -6.4945 H   0  0  0  0  0  0  0  0  0  0  0  0
    1.8725   -0.6384   -7.9015 H   0  0  0  0  0  0  0  0  0  0  0  0
  1  3  1  0  0  0  0
  1  7  1  0  0  0  0
  1  2  2  0  0  0  0
 23 25  1  0  0  0  0
 23 29  1  0  0  0  0
 23 24  2  0  0  0  0
 50 51  1  0  0  0  0
 51 59  1  0  0  0  0
 51 52  2  0  0  0  0
  8  9  1  0  0  0  0
  9 17  1  0  0  0  0
  9 10  2  0  0  0  0
 30 31  1  0  0  0  0
 31 39  1  0  0  0  0
 31 32  2  0  0  0  0
 40 41  1  0  0  0  0
 41 49  1  0  0  0  0
 41 42  2  0  0  0  0
 50 53  1  0  0  0  0
 30 33  1  0  0  0  0
 59 60  1  0  0  0  0
 17 18  1  0  0  0  0
  8 11  1  0  0  0  0
 11 12  1  0  0  0  0
 40 43  1  0  0  0  0
 43 44  1  0  0  0  0
 49 50  1  0  0  0  0
  7  8  1  0  0  0  0
 29 30  1  0  0  0  0
 39 40  1  0  0  0  0
 12 44  1  0  0  0  0
  3  4  1  0  0  0  0
  3  5  1  0  0  0  0
  3  6  1  0  0  0  0
 25 26  1  0  0  0  0
 25 27  1  0  0  0  0
 25 28  1  0  0  0  0
 53 56  1  0  0  0  0
 53 57  1  0  0  0  0
 53 58  1  0  0  0  0
 33 36  1  0  0  0  0
 33 37  1  0  0  0  0
 33 38  1  0  0  0  0
 60 62  1  0  0  0  0
 60 63  1  0  0  0  0
 60 64  1  0  0  0  0
 18 20  1  0  0  0  0
 18 21  1  0  0  0  0
 18 22  1  0  0  0  0
 11 15  1  0  0  0  0
 11 16  1  0  0  0  0
 43 47  1  0  0  0  0
 43 48  1  0  0  0  0
 50 55  1  0  0  0  0
  8 14  1  0  0  0  0
 30 35  1  0  0  0  0
 40 46  1  0  0  0  0
 59 61  1  0  0  0  0
 17 19  1  0  0  0  0
  7 13  1  0  0  0  0
 29 34  1  0  0  0  0
 49 54  1  0  0  0  0
 39 45  1  0  0  0  0
M  END
$$$$

  -OEChem-05262214473D

 64 63  0     1  0  0  0  0  0999 V2000
   -1.9063   -5.7732    2.4926 C   0  0  0  0  0  0  0  0  0  0  0  0
   -3.0278   -5.9205    2.0211 O   0  0  0  0  0  0  0  0  0  0  0  0
   -1.6302   -6.2229    3.8890 C   0  0  0  0  0  0  0  0  0  0  0  0
   -1.8183   -5.4303    4.6310 H   0  0  0  0  0  0  0  0  0  0  0  0
   -2.2715   -7.0654    4.1940 H   0  0  0  0  0  0  0  0  0  0  0  0
   -0.5988   -6.5600    4.0803 H   0  0  0  0  0  0  0  0  0  0  0  0
   -0.8148   -5.2141    1.8508 N   0  0  0  0  0  0  0  0  0  0  0  0
   -0.8611   -4.7169    0.4991 C   0  0  2  0  0  0  0  0  0  0  0  0
    0.4840   -4.9852   -0.1729 C   0  0  0  0  0  0  0  0  0  0  0  0
    1.4538   -5.4420    0.4288 O   0  0  0  0  0  0  0  0  0  0  0  0
   -1.2907   -3.2493    0.4326 C   0  0  0  0  0  0  0  0  0  0  0  0
   -0.1355   -2.1075    1.2598 S   0  0  0  0  0  0  0  0  0  0  0  0
    0.0645   -5.1510    2.3590 H   0  0  0  0  0  0  0  0  0  0  0  0
   -1.6149   -5.3272   -0.0137 H   0  0  0  0  0  0  0  0  0  0  0  0
   -1.3844   -2.9230   -0.6084 H   0  0  0  0  0  0  0  0  0  0  0  0
   -2.2702   -3.1254    0.9070 H   0  0  0  0  0  0  0  0  0  0  0  0
    0.4801   -4.6316   -1.5147 N   0  0  0  0  0  0  0  0  0  0  0  0
    1.6435   -4.7681   -2.3596 C   0  0  0  0  0  0  0  0  0  0  0  0
   -0.3800   -4.3012   -1.9422 H   0  0  0  0  0  0  0  0  0  0  0  0
    2.2090   -3.8246   -2.3611 H   0  0  0  0  0  0  0  0  0  0  0  0
    2.2820   -5.5776   -1.9762 H   0  0  0  0  0  0  0  0  0  0  0  0
    1.3256   -5.0065   -3.3854 H   0  0  0  0  0  0  0  0  0  0  0  0
   -6.7256    2.0330   -0.2766 C   0  0  0  0  0  0  0  0  0  0  0  0
   -7.1824    1.1039   -0.9322 O   0  0  0  0  0  0  0  0  0  0  0  0
   -7.5276    2.6077    0.8435 C   0  0  0  0  0  0  0  0  0  0  0  0
   -8.1775    3.4344    0.5145 H   0  0  0  0  0  0  0  0  0  0  0  0
   -8.2057    1.8676    1.2980 H   0  0  0  0  0  0  0  0  0  0  0  0
   -6.9411    3.0162    1.6819 H   0  0  0  0  0  0  0  0  0  0  0  0
   -5.4935    2.6382   -0.4627 N   0  0  0  0  0  0  0  0  0  0  0  0
   -4.5619    2.2388   -1.4845 C   0  0  2  0  0  0  0  0  0  0  0  0
   -3.1535    2.4674   -0.9521 C   0  0  0  0  0  0  0  0  0  0  0  0
   -2.8634    3.3945   -0.1987 O   0  0  0  0  0  0  0  0  0  0  0  0
   -4.7883    3.0138   -2.7732 C   0  0  0  0  0  0  0  0  0  0  0  0
   -5.2337    3.4049    0.1551 H   0  0  0  0  0  0  0  0  0  0  0  0
   -4.7192    1.1682   -1.6549 H   0  0  0  0  0  0  0  0  0  0  0  0
   -4.6352    4.0886   -2.6221 H   0  0  0  0  0  0  0  0  0  0  0  0
   -4.0976    2.6887   -3.5582 H   0  0  0  0  0  0  0  0  0  0  0  0
   -5.8111    2.8719   -3.1387 H   0  0  0  0  0  0  0  0  0  0  0  0
   -2.2466    1.5400   -1.4507 N   0  0  0  0  0  0  0  0  0  0  0  0
   -0.8424    1.5707   -1.1286 C   0  0  2  0  0  0  0  0  0  0  0  0
   -0.0700    2.1019   -2.3343 C   0  0  0  0  0  0  0  0  0  0  0  0
   -0.0756    3.2861   -2.6644 O   0  0  0  0  0  0  0  0  0  0  0  0
   -0.3300    0.2183   -0.6272 C   0  0  0  0  0  0  0  0  0  0  0  0
   -1.0587   -0.2999    0.9454 S   0  0  0  0  0  0  0  0  0  0  0  0
   -2.5850    0.7815   -2.0381 H   0  0  0  0  0  0  0  0  0  0  0  0
   -0.7415    2.3060   -0.3206 H   0  0  0  0  0  0  0  0  0  0  0  0
   -0.5395   -0.5677   -1.3601 H   0  0  0  0  0  0  0  0  0  0  0  0
    0.7557    0.2591   -0.4878 H   0  0  0  0  0  0  0  0  0  0  0  0
    0.6044    1.0952   -3.0106 N   0  0  0  0  0  0  0  0  0  0  0  0
    1.3864    1.3437   -4.1991 C   0  0  2  0  0  0  0  0  0  0  0  0
    1.2968    0.1100   -5.0875 C   0  0  0  0  0  0  0  0  0  0  0  0
    1.2209   -1.0333   -4.6422 O   0  0  0  0  0  0  0  0  0  0  0  0
    2.8330    1.6607   -3.8534 C   0  0  0  0  0  0  0  0  0  0  0  0
    0.5895    0.1487   -2.6424 H   0  0  0  0  0  0  0  0  0  0  0  0
    0.9244    2.1961   -4.7092 H   0  0  0  0  0  0  0  0  0  0  0  0
    3.3125    0.8183   -3.3417 H   0  0  0  0  0  0  0  0  0  0  0  0
    3.4179    1.8768   -4.7536 H   0  0  0  0  0  0  0  0  0  0  0  0
    2.8937    2.5304   -3.1903 H   0  0  0  0  0  0  0  0  0  0  0  0
    1.3550    0.4326   -6.4361 N   0  0  0  0  0  0  0  0  0  0  0  0
    1.3318   -0.5668   -7.4786 C   0  0  0  0  0  0  0  0  0  0  0  0
    1.3768    1.4088   -6.7159 H   0  0  0  0  0  0  0  0  0  0  0  0
    2.3625   -0.8442   -7.7443 H   0  0  0  0  0  0  0  0  0  0  0  0
    0.7932   -1.4569   -7.1211 H   0  0  0  0  0  0  0  0  0  0  0  0
    0.8215   -0.1607   -8.3644 H   0  0  0  0  0  0  0  0  0  0  0  0
  1  3  1  0  0  0  0
  1  7  1  0  0  0  0
  1  2  2  0  0  0  0
 23 25  1  0  0  0  0
 23 29  1  0  0  0  0
 23 24  2  0  0  0  0
 50 51  1  0  0  0  0
 51 59  1  0  0  0  0
 51 52  2  0  0  0  0
  8  9  1  0  0  0  0
  9 17  1  0  0  0  0
  9 10  2  0  0  0  0
 30 31  1  0  0  0  0
 31 39  1  0  0  0  0
 31 32  2  0  0  0  0
 40 41  1  0  0  0  0
 41 49  1  0  0  0  0
 41 42  2  0  0  0  0
 50 53  1  0  0  0  0
 30 33  1  0  0  0  0
 59 60  1  0  0  0  0
 17 18  1  0  0  0  0
  8 11  1  0  0  0  0
 11 12  1  0  0  0  0
 40 43  1  0  0  0  0
 43 44  1  0  0  0  0
 49 50  1  0  0  0  0
  7  8  1  0  0  0  0
 29 30  1  0  0  0  0
 39 40  1  0  0  0  0
 12 44  1  0  0  0  0
  3  4  1  0  0  0  0
  3  5  1  0  0  0  0
  3  6  1  0  0  0  0
 25 26  1  0  0  0  0
 25 27  1  0  0  0  0
 25 28  1  0  0  0  0
 53 56  1  0  0  0  0
 53 57  1  0  0  0  0
 53 58  1  0  0  0  0
 33 36  1  0  0  0  0
 33 37  1  0  0  0  0
 33 38  1  0  0  0  0
 60 62  1  0  0  0  0
 60 63  1  0  0  0  0
 60 64  1  0  0  0  0
 18 20  1  0  0  0  0
 18 21  1  0  0  0  0
 18 22  1  0  0  0  0
 11 15  1  0  0  0  0
 11 16  1  0  0  0  0
 43 47  1  0  0  0  0
 43 48  1  0  0  0  0
 50 55  1  0  0  0  0
  8 14  1  0  0  0  0
 30 35  1  0  0  0  0
 40 46  1  0  0  0  0
 59 61  1  0  0  0  0
 17 19  1  0  0  0  0
  7 13  1  0  0  0  0
 29 34  1  0  0  0  0
 49 54  1  0  0  0  0
 39 45  1  0  0  0  0
M  END
$$$$

  -OEChem-05262214473D

 64 63  0     1  0  0  0  0  0999 V2000
   -1.9063   -5.7732    2.4926 C   0  0  0  0  0  0  0  0  0  0  0  0
   -3.0278   -5.9205    2.0211 O   0  0  0  0  0  0  0  0  0  0  0  0
   -1.6302   -6.2229    3.8890 C   0  0  0  0  0  0  0  0  0  0  0  0
   -1.8183   -5.4303    4.6310 H   0  0  0  0  0  0  0  0  0  0  0  0
   -2.2715   -7.0654    4.1940 H   0  0  0  0  0  0  0  0  0  0  0  0
   -0.5988   -6.5600    4.0803 H   0  0  0  0  0  0  0  0  0  0  0  0
   -0.8148   -5.2141    1.8508 N   0  0  0  0  0  0  0  0  0  0  0  0
   -0.8611   -4.7169    0.4991 C   0  0  2  0  0  0  0  0  0  0  0  0
    0.4840   -4.9852   -0.1729 C   0  0  0  0  0  0  0  0  0  0  0  0
    1.4538   -5.4420    0.4288 O   0  0  0  0  0  0  0  0  0  0  0  0
   -1.2907   -3.2493    0.4326 C   0  0  0  0  0  0  0  0  0  0  0  0
   -0.1355   -2.1075    1.2598 S   0  0  0  0  0  0  0  0  0  0  0  0
    0.0645   -5.1510    2.3590 H   0  0  0  0  0  0  0  0  0  0  0  0
   -1.6149   -5.3272   -0.0137 H   0  0  0  0  0  0  0  0  0  0  0  0
   -1.3844   -2.9230   -0.6084 H   0  0  0  0  0  0  0  0  0  0  0  0
   -2.2702   -3.1254    0.9070 H   0  0  0  0  0  0  0  0  0  0  0  0
    0.4801   -4.6316   -1.5147 N   0  0  0  0  0  0  0  0  0  0  0  0
    1.6435   -4.7681   -2.3596 C   0  0  0  0  0  0  0  0  0  0  0  0
   -0.3800   -4.3012   -1.9422 H   0  0  0  0  0  0  0  0  0  0  0  0
    2.2090   -3.8246   -2.3611 H   0  0  0  0  0  0  0  0  0  0  0  0
    2.2820   -5.5776   -1.9762 H   0  0  0  0  0  0  0  0  0  0  0  0
    1.3256   -5.0065   -3.3854 H   0  0  0  0  0  0  0  0  0  0  0  0
   -6.7256    2.0330   -0.2766 C   0  0  0  0  0  0  0  0  0  0  0  0
   -7.1824    1.1039   -0.9322 O   0  0  0  0  0  0  0  0  0  0  0  0
   -7.5276    2.6077    0.8435 C   0  0  0  0  0  0  0  0  0  0  0  0
   -8.1775    3.4344    0.5145 H   0  0  0  0  0  0  0  0  0  0  0  0
   -8.2057    1.8676    1.2980 H   0  0  0  0  0  0  0  0  0  0  0  0
   -6.9411    3.0162    1.6819 H   0  0  0  0  0  0  0  0  0  0  0  0
   -5.4935    2.6382   -0.4627 N   0  0  0  0  0  0  0  0  0  0  0  0
   -4.5619    2.2388   -1.4845 C   0  0  2  0  0  0  0  0  0  0  0  0
   -3.1535    2.4674   -0.9521 C   0  0  0  0  0  0  0  0  0  0  0  0
   -2.8634    3.3945   -0.1987 O   0  0  0  0  0  0  0  0  0  0  0  0
   -4.7883    3.0138   -2.7732 C   0  0  0  0  0  0  0  0  0  0  0  0
   -5.2337    3.4049    0.1551 H   0  0  0  0  0  0  0  0  0  0  0  0
   -4.7192    1.1682   -1.6549 H   0  0  0  0  0  0  0  0  0  0  0  0
   -4.6352    4.0886   -2.6221 H   0  0  0  0  0  0  0  0  0  0  0  0
   -4.0976    2.6887   -3.5582 H   0  0  0  0  0  0  0  0  0  0  0  0
   -5.8111    2.8719   -3.1387 H   0  0  0  0  0  0  0  0  0  0  0  0
   -2.2466    1.5400   -1.4507 N   0  0  0  0  0  0  0  0  0  0  0  0
   -0.8424    1.5707   -1.1286 C   0  0  2  0  0  0  0  0  0  0  0  0
   -0.0700    2.1019   -2.3343 C   0  0  0  0  0  0  0  0  0  0  0  0
    0.1484    3.2981   -2.5156 O   0  0  0  0  0  0  0  0  0  0  0  0
   -0.3300    0.2183   -0.6272 C   0  0  0  0  0  0  0  0  0  0  0  0
   -1.0587   -0.2999    0.9454 S   0  0  0  0  0  0  0  0  0  0  0  0
   -2.5850    0.7815   -2.0381 H   0  0  0  0  0  0  0  0  0  0  0  0
   -0.7415    2.3060   -0.3206 H   0  0  0  0  0  0  0  0  0  0  0  0
   -0.5395   -0.5677   -1.3601 H   0  0  0  0  0  0  0  0  0  0  0  0
    0.7557    0.2591   -0.4878 H   0  0  0  0  0  0  0  0  0  0  0  0
    0.3239    1.0865   -3.1942 N   0  0  0  0  0  0  0  0  0  0  0  0
    1.0475    1.3392   -4.4183 C   0  0  2  0  0  0  0  0  0  0  0  0
    0.6328    0.2847   -5.4359 C   0  0  0  0  0  0  0  0  0  0  0  0
    0.3525   -0.8717   -5.1274 O   0  0  0  0  0  0  0  0  0  0  0  0
    2.5505    1.3112   -4.1884 C   0  0  0  0  0  0  0  0  0  0  0  0
    0.1385    0.1196   -2.9442 H   0  0  0  0  0  0  0  0  0  0  0  0
    0.7376    2.3291   -4.7703 H   0  0  0  0  0  0  0  0  0  0  0  0
    2.8798    0.3272   -3.8353 H   0  0  0  0  0  0  0  0  0  0  0  0
    3.0972    1.5312   -5.1113 H   0  0  0  0  0  0  0  0  0  0  0  0
    2.8433    2.0499   -3.4344 H   0  0  0  0  0  0  0  0  0  0  0  0
    0.6544    0.7753   -6.7340 N   0  0  0  0  0  0  0  0  0  0  0  0
    0.3419   -0.0434   -7.8821 C   0  0  0  0  0  0  0  0  0  0  0  0
    0.8595    1.7572   -6.8938 H   0  0  0  0  0  0  0  0  0  0  0  0
    1.2678   -0.4796   -8.2850 H   0  0  0  0  0  0  0  0  0  0  0  0
   -0.3429   -0.8501   -7.5816 H   0  0  0  0  0  0  0  0  0  0  0  0
   -0.1377    0.5760   -8.6544 H   0  0  0  0  0  0  0  0  0  0  0  0
  1  3  1  0  0  0  0
  1  7  1  0  0  0  0
  1  2  2  0  0  0  0
 23 25  1  0  0  0  0
 23 29  1  0  0  0  0
 23 24  2  0  0  0  0
 50 51  1  0  0  0  0
 51 59  1  0  0  0  0
 51 52  2  0  0  0  0
  8  9  1  0  0  0  0
  9 17  1  0  0  0  0
  9 10  2  0  0  0  0
 30 31  1  0  0  0  0
 31 39  1  0  0  0  0
 31 32  2  0  0  0  0
 40 41  1  0  0  0  0
 41 49  1  0  0  0  0
 41 42  2  0  0  0  0
 50 53  1  0  0  0  0
 30 33  1  0  0  0  0
 59 60  1  0  0  0  0
 17 18  1  0  0  0  0
  8 11  1  0  0  0  0
 11 12  1  0  0  0  0
 40 43  1  0  0  0  0
 43 44  1  0  0  0  0
 49 50  1  0  0  0  0
  7  8  1  0  0  0  0
 29 30  1  0  0  0  0
 39 40  1  0  0  0  0
 12 44  1  0  0  0  0
  3  4  1  0  0  0  0
  3  5  1  0  0  0  0
  3  6  1  0  0  0  0
 25 26  1  0  0  0  0
 25 27  1  0  0  0  0
 25 28  1  0  0  0  0
 53 56  1  0  0  0  0
 53 57  1  0  0  0  0
 53 58  1  0  0  0  0
 33 36  1  0  0  0  0
 33 37  1  0  0  0  0
 33 38  1  0  0  0  0
 60 62  1  0  0  0  0
 60 63  1  0  0  0  0
 60 64  1  0  0  0  0
 18 20  1  0  0  0  0
 18 21  1  0  0  0  0
 18 22  1  0  0  0  0
 11 15  1  0  0  0  0
 11 16  1  0  0  0  0
 43 47  1  0  0  0  0
 43 48  1  0  0  0  0
 50 55  1  0  0  0  0
  8 14  1  0  0  0  0
 30 35  1  0  0  0  0
 40 46  1  0  0  0  0
 59 61  1  0  0  0  0
 17 19  1  0  0  0  0
  7 13  1  0  0  0  0
 29 34  1  0  0  0  0
 49 54  1  0  0  0  0
 39 45  1  0  0  0  0
M  END
$$$$

  -OEChem-05262214473D

 64 63  0     1  0  0  0  0  0999 V2000
   -1.9063   -5.7732    2.4926 C   0  0  0  0  0  0  0  0  0  0  0  0
   -3.0278   -5.9205    2.0211 O   0  0  0  0  0  0  0  0  0  0  0  0
   -1.6302   -6.2229    3.8890 C   0  0  0  0  0  0  0  0  0  0  0  0
   -1.8183   -5.4303    4.6310 H   0  0  0  0  0  0  0  0  0  0  0  0
   -2.2715   -7.0654    4.1940 H   0  0  0  0  0  0  0  0  0  0  0  0
   -0.5988   -6.5600    4.0803 H   0  0  0  0  0  0  0  0  0  0  0  0
   -0.8148   -5.2141    1.8508 N   0  0  0  0  0  0  0  0  0  0  0  0
   -0.8611   -4.7169    0.4991 C   0  0  2  0  0  0  0  0  0  0  0  0
    0.4840   -4.9852   -0.1729 C   0  0  0  0  0  0  0  0  0  0  0  0
    1.4538   -5.4420    0.4288 O   0  0  0  0  0  0  0  0  0  0  0  0
   -1.2907   -3.2493    0.4326 C   0  0  0  0  0  0  0  0  0  0  0  0
   -0.1355   -2.1075    1.2598 S   0  0  0  0  0  0  0  0  0  0  0  0
    0.0645   -5.1510    2.3590 H   0  0  0  0  0  0  0  0  0  0  0  0
   -1.6149   -5.3272   -0.0137 H   0  0  0  0  0  0  0  0  0  0  0  0
   -1.3844   -2.9230   -0.6084 H   0  0  0  0  0  0  0  0  0  0  0  0
   -2.2702   -3.1254    0.9070 H   0  0  0  0  0  0  0  0  0  0  0  0
    0.4801   -4.6316   -1.5147 N   0  0  0  0  0  0  0  0  0  0  0  0
    1.6435   -4.7681   -2.3596 C   0  0  0  0  0  0  0  0  0  0  0  0
   -0.3800   -4.3012   -1.9422 H   0  0  0  0  0  0  0  0  0  0  0  0
    2.2090   -3.8246   -2.3611 H   0  0  0  0  0  0  0  0  0  0  0  0
    2.2820   -5.5776   -1.9762 H   0  0  0  0  0  0  0  0  0  0  0  0
    1.3256   -5.0065   -3.3854 H   0  0  0  0  0  0  0  0  0  0  0  0
   -6.7256    2.0330   -0.2766 C   0  0  0  0  0  0  0  0  0  0  0  0
   -7.1824    1.1039   -0.9322 O   0  0  0  0  0  0  0  0  0  0  0  0
   -7.5276    2.6077    0.8435 C   0  0  0  0  0  0  0  0  0  0  0  0
   -8.1775    3.4344    0.5145 H   0  0  0  0  0  0  0  0  0  0  0  0
   -8.2057    1.8676    1.2980 H   0  0  0  0  0  0  0  0  0  0  0  0
   -6.9411    3.0162    1.6819 H   0  0  0  0  0  0  0  0  0  0  0  0
   -5.4935    2.6382   -0.4627 N   0  0  0  0  0  0  0  0  0  0  0  0
   -4.5619    2.2388   -1.4845 C   0  0  2  0  0  0  0  0  0  0  0  0
   -3.1535    2.4674   -0.9521 C   0  0  0  0  0  0  0  0  0  0  0  0
   -2.8634    3.3945   -0.1987 O   0  0  0  0  0  0  0  0  0  0  0  0
   -4.7883    3.0138   -2.7732 C   0  0  0  0  0  0  0  0  0  0  0  0
   -5.2337    3.4049    0.1551 H   0  0  0  0  0  0  0  0  0  0  0  0
   -4.7192    1.1682   -1.6549 H   0  0  0  0  0  0  0  0  0  0  0  0
   -4.6352    4.0886   -2.6221 H   0  0  0  0  0  0  0  0  0  0  0  0
   -4.0976    2.6887   -3.5582 H   0  0  0  0  0  0  0  0  0  0  0  0
   -5.8111    2.8719   -3.1387 H   0  0  0  0  0  0  0  0  0  0  0  0
   -2.2466    1.5400   -1.4507 N   0  0  0  0  0  0  0  0  0  0  0  0
   -0.8424    1.5707   -1.1286 C   0  0  2  0  0  0  0  0  0  0  0  0
   -0.0700    2.1019   -2.3343 C   0  0  0  0  0  0  0  0  0  0  0  0
    0.3806    3.2444   -2.3905 O   0  0  0  0  0  0  0  0  0  0  0  0
   -0.3300    0.2183   -0.6272 C   0  0  0  0  0  0  0  0  0  0  0  0
   -1.0587   -0.2999    0.9454 S   0  0  0  0  0  0  0  0  0  0  0  0
   -2.5850    0.7815   -2.0381 H   0  0  0  0  0  0  0  0  0  0  0  0
   -0.7415    2.3060   -0.3206 H   0  0  0  0  0  0  0  0  0  0  0  0
   -0.5395   -0.5677   -1.3601 H   0  0  0  0  0  0  0  0  0  0  0  0
    0.7557    0.2591   -0.4878 H   0  0  0  0  0  0  0  0  0  0  0  0
    0.0347    1.1594   -3.3474 N   0  0  0  0  0  0  0  0  0  0  0  0
    0.6995    1.4327   -4.6000 C   0  0  2  0  0  0  0  0  0  0  0  0
   -0.0042    0.6348   -5.6898 C   0  0  0  0  0  0  0  0  0  0  0  0
   -0.4971   -0.4747   -5.4967 O   0  0  0  0  0  0  0  0  0  0  0  0
    2.1761    1.0752   -4.5322 C   0  0  0  0  0  0  0  0  0  0  0  0
   -0.3303    0.2232   -3.1989 H   0  0  0  0  0  0  0  0  0  0  0  0
    0.5787    2.5038   -4.7951 H   0  0  0  0  0  0  0  0  0  0  0  0
    2.3170    0.0058   -4.3374 H   0  0  0  0  0  0  0  0  0  0  0  0
    2.6847    1.3096   -5.4732 H   0  0  0  0  0  0  0  0  0  0  0  0
    2.6744    1.6279   -3.7284 H   0  0  0  0  0  0  0  0  0  0  0  0
    0.0208    1.2884   -6.9139 N   0  0  0  0  0  0  0  0  0  0  0  0
   -0.5437    0.7173   -8.1143 C   0  0  0  0  0  0  0  0  0  0  0  0
    0.4150    2.2227   -6.9735 H   0  0  0  0  0  0  0  0  0  0  0  0
    0.2362    0.1670   -8.6610 H   0  0  0  0  0  0  0  0  0  0  0  0
   -1.3578    0.0284   -7.8448 H   0  0  0  0  0  0  0  0  0  0  0  0
   -0.9399    1.5216   -8.7517 H   0  0  0  0  0  0  0  0  0  0  0  0
  1  3  1  0  0  0  0
  1  7  1  0  0  0  0
  1  2  2  0  0  0  0
 23 25  1  0  0  0  0
 23 29  1  0  0  0  0
 23 24  2  0  0  0  0
 50 51  1  0  0  0  0
 51 59  1  0  0  0  0
 51 52  2  0  0  0  0
  8  9  1  0  0  0  0
  9 17  1  0  0  0  0
  9 10  2  0  0  0  0
 30 31  1  0  0  0  0
 31 39  1  0  0  0  0
 31 32  2  0  0  0  0
 40 41  1  0  0  0  0
 41 49  1  0  0  0  0
 41 42  2  0  0  0  0
 50 53  1  0  0  0  0
 30 33  1  0  0  0  0
 59 60  1  0  0  0  0
 17 18  1  0  0  0  0
  8 11  1  0  0  0  0
 11 12  1  0  0  0  0
 40 43  1  0  0  0  0
 43 44  1  0  0  0  0
 49 50  1  0  0  0  0
  7  8  1  0  0  0  0
 29 30  1  0  0  0  0
 39 40  1  0  0  0  0
 12 44  1  0  0  0  0
  3  4  1  0  0  0  0
  3  5  1  0  0  0  0
  3  6  1  0  0  0  0
 25 26  1  0  0  0  0
 25 27  1  0  0  0  0
 25 28  1  0  0  0  0
 53 56  1  0  0  0  0
 53 57  1  0  0  0  0
 53 58  1  0  0  0  0
 33 36  1  0  0  0  0
 33 37  1  0  0  0  0
 33 38  1  0  0  0  0
 60 62  1  0  0  0  0
 60 63  1  0  0  0  0
 60 64  1  0  0  0  0
 18 20  1  0  0  0  0
 18 21  1  0  0  0  0
 18 22  1  0  0  0  0
 11 15  1  0  0  0  0
 11 16  1  0  0  0  0
 43 47  1  0  0  0  0
 43 48  1  0  0  0  0
 50 55  1  0  0  0  0
  8 14  1  0  0  0  0
 30 35  1  0  0  0  0
 40 46  1  0  0  0  0
 59 61  1  0  0  0  0
 17 19  1  0  0  0  0
  7 13  1  0  0  0  0
 29 34  1  0  0  0  0
 49 54  1  0  0  0  0
 39 45  1  0  0  0  0
M  END
$$$$

  -OEChem-05262214473D

 64 63  0     1  0  0  0  0  0999 V2000
   -1.9063   -5.7732    2.4926 C   0  0  0  0  0  0  0  0  0  0  0  0
   -3.0278   -5.9205    2.0211 O   0  0  0  0  0  0  0  0  0  0  0  0
   -1.6302   -6.2229    3.8890 C   0  0  0  0  0  0  0  0  0  0  0  0
   -1.8183   -5.4303    4.6310 H   0  0  0  0  0  0  0  0  0  0  0  0
   -2.2715   -7.0654    4.1940 H   0  0  0  0  0  0  0  0  0  0  0  0
   -0.5988   -6.5600    4.0803 H   0  0  0  0  0  0  0  0  0  0  0  0
   -0.8148   -5.2141    1.8508 N   0  0  0  0  0  0  0  0  0  0  0  0
   -0.8611   -4.7169    0.4991 C   0  0  2  0  0  0  0  0  0  0  0  0
    0.4840   -4.9852   -0.1729 C   0  0  0  0  0  0  0  0  0  0  0  0
    1.4538   -5.4420    0.4288 O   0  0  0  0  0  0  0  0  0  0  0  0
   -1.2907   -3.2493    0.4326 C   0  0  0  0  0  0  0  0  0  0  0  0
   -0.1355   -2.1075    1.2598 S   0  0  0  0  0  0  0  0  0  0  0  0
    0.0645   -5.1510    2.3590 H   0  0  0  0  0  0  0  0  0  0  0  0
   -1.6149   -5.3272   -0.0137 H   0  0  0  0  0  0  0  0  0  0  0  0
   -1.3844   -2.9230   -0.6084 H   0  0  0  0  0  0  0  0  0  0  0  0
   -2.2702   -3.1254    0.9070 H   0  0  0  0  0  0  0  0  0  0  0  0
    0.4801   -4.6316   -1.5147 N   0  0  0  0  0  0  0  0  0  0  0  0
    1.6435   -4.7681   -2.3596 C   0  0  0  0  0  0  0  0  0  0  0  0
   -0.3800   -4.3012   -1.9422 H   0  0  0  0  0  0  0  0  0  0  0  0
    2.2090   -3.8246   -2.3611 H   0  0  0  0  0  0  0  0  0  0  0  0
    2.2820   -5.5776   -1.9762 H   0  0  0  0  0  0  0  0  0  0  0  0
    1.3256   -5.0065   -3.3854 H   0  0  0  0  0  0  0  0  0  0  0  0
   -6.7256    2.0330   -0.2766 C   0  0  0  0  0  0  0  0  0  0  0  0
   -7.1824    1.1039   -0.9322 O   0  0  0  0  0  0  0  0  0  0  0  0
   -7.5276    2.6077    0.8435 C   0  0  0  0  0  0  0  0  0  0  0  0
   -8.1775    3.4344    0.5145 H   0  0  0  0  0  0  0  0  0  0  0  0
   -8.2057    1.8676    1.2980 H   0  0  0  0  0  0  0  0  0  0  0  0
   -6.9411    3.0162    1.6819 H   0  0  0  0  0  0  0  0  0  0  0  0
   -5.4935    2.6382   -0.4627 N   0  0  0  0  0  0  0  0  0  0  0  0
   -4.5619    2.2388   -1.4845 C   0  0  2  0  0  0  0  0  0  0  0  0
   -3.1535    2.4674   -0.9521 C   0  0  0  0  0  0  0  0  0  0  0  0
   -2.8634    3.3945   -0.1987 O   0  0  0  0  0  0  0  0  0  0  0  0
   -4.7883    3.0138   -2.7732 C   0  0  0  0  0  0  0  0  0  0  0  0
   -5.2337    3.4049    0.1551 H   0  0  0  0  0  0  0  0  0  0  0  0
   -4.7192    1.1682   -1.6549 H   0  0  0  0  0  0  0  0  0  0  0  0
   -4.6352    4.0886   -2.6221 H   0  0  0  0  0  0  0  0  0  0  0  0
   -4.0976    2.6887   -3.5582 H   0  0  0  0  0  0  0  0  0  0  0  0
   -5.8111    2.8719   -3.1387 H   0  0  0  0  0  0  0  0  0  0  0  0
   -2.2466    1.5400   -1.4507 N   0  0  0  0  0  0  0  0  0  0  0  0
   -0.8424    1.5707   -1.1286 C   0  0  2  0  0  0  0  0  0  0  0  0
   -0.0700    2.1019   -2.3343 C   0  0  0  0  0  0  0  0  0  0  0  0
    0.6052    3.1287   -2.2976 O   0  0  0  0  0  0  0  0  0  0  0  0
   -0.3300    0.2183   -0.6272 C   0  0  0  0  0  0  0  0  0  0  0  0
   -1.0587   -0.2999    0.9454 S   0  0  0  0  0  0  0  0  0  0  0  0
   -2.5850    0.7815   -2.0381 H   0  0  0  0  0  0  0  0  0  0  0  0
   -0.7415    2.3060   -0.3206 H   0  0  0  0  0  0  0  0  0  0  0  0
   -0.5395   -0.5677   -1.3601 H   0  0  0  0  0  0  0  0  0  0  0  0
    0.7557    0.2591   -0.4878 H   0  0  0  0  0  0  0  0  0  0  0  0
   -0.2436    1.3090   -3.4598 N   0  0  0  0  0  0  0  0  0  0  0  0
    0.3661    1.6179   -4.7320 C   0  0  2  0  0  0  0  0  0  0  0  0
   -0.5708    1.1363   -5.8319 C   0  0  0  0  0  0  0  0  0  0  0  0
   -1.2698    0.1308   -5.7250 O   0  0  0  0  0  0  0  0  0  0  0  0
    1.7353    0.9688   -4.8615 C   0  0  0  0  0  0  0  0  0  0  0  0
   -0.7849    0.4524   -3.3892 H   0  0  0  0  0  0  0  0  0  0  0  0
    0.4588    2.7083   -4.7819 H   0  0  0  0  0  0  0  0  0  0  0  0
    1.6626   -0.1239   -4.8138 H   0  0  0  0  0  0  0  0  0  0  0  0
    2.2084    1.2273   -5.8147 H   0  0  0  0  0  0  0  0  0  0  0  0
    2.3986    1.2934   -4.0525 H   0  0  0  0  0  0  0  0  0  0  0  0
   -0.5025    1.9371   -6.9633 N   0  0  0  0  0  0  0  0  0  0  0  0
   -1.2645    1.6635   -8.1593 C   0  0  0  0  0  0  0  0  0  0  0  0
    0.0737    2.7735   -6.9495 H   0  0  0  0  0  0  0  0  0  0  0  0
   -0.6619    1.0516   -8.8467 H   0  0  0  0  0  0  0  0  0  0  0  0
   -2.1823    1.1189   -7.8926 H   0  0  0  0  0  0  0  0  0  0  0  0
   -1.5302    2.6116   -8.6497 H   0  0  0  0  0  0  0  0  0  0  0  0
  1  3  1  0  0  0  0
  1  7  1  0  0  0  0
  1  2  2  0  0  0  0
 23 25  1  0  0  0  0
 23 29  1  0  0  0  0
 23 24  2  0  0  0  0
 50 51  1  0  0  0  0
 51 59  1  0  0  0  0
 51 52  2  0  0  0  0
  8  9  1  0  0  0  0
  9 17  1  0  0  0  0
  9 10  2  0  0  0  0
 30 31  1  0  0  0  0
 31 39  1  0  0  0  0
 31 32  2  0  0  0  0
 40 41  1  0  0  0  0
 41 49  1  0  0  0  0
 41 42  2  0  0  0  0
 50 53  1  0  0  0  0
 30 33  1  0  0  0  0
 59 60  1  0  0  0  0
 17 18  1  0  0  0  0
  8 11  1  0  0  0  0
 11 12  1  0  0  0  0
 40 43  1  0  0  0  0
 43 44  1  0  0  0  0
 49 50  1  0  0  0  0
  7  8  1  0  0  0  0
 29 30  1  0  0  0  0
 39 40  1  0  0  0  0
 12 44  1  0  0  0  0
  3  4  1  0  0  0  0
  3  5  1  0  0  0  0
  3  6  1  0  0  0  0
 25 26  1  0  0  0  0
 25 27  1  0  0  0  0
 25 28  1  0  0  0  0
 53 56  1  0  0  0  0
 53 57  1  0  0  0  0
 53 58  1  0  0  0  0
 33 36  1  0  0  0  0
 33 37  1  0  0  0  0
 33 38  1  0  0  0  0
 60 62  1  0  0  0  0
 60 63  1  0  0  0  0
 60 64  1  0  0  0  0
 18 20  1  0  0  0  0
 18 21  1  0  0  0  0
 18 22  1  0  0  0  0
 11 15  1  0  0  0  0
 11 16  1  0  0  0  0
 43 47  1  0  0  0  0
 43 48  1  0  0  0  0
 50 55  1  0  0  0  0
  8 14  1  0  0  0  0
 30 35  1  0  0  0  0
 40 46  1  0  0  0  0
 59 61  1  0  0  0  0
 17 19  1  0  0  0  0
  7 13  1  0  0  0  0
 29 34  1  0  0  0  0
 49 54  1  0  0  0  0
 39 45  1  0  0  0  0
M  END
$$$$

  -OEChem-05262214473D

 64 63  0     1  0  0  0  0  0999 V2000
   -1.9063   -5.7732    2.4926 C   0  0  0  0  0  0  0  0  0  0  0  0
   -3.0278   -5.9205    2.0211 O   0  0  0  0  0  0  0  0  0  0  0  0
   -1.6302   -6.2229    3.8890 C   0  0  0  0  0  0  0  0  0  0  0  0
   -1.8183   -5.4303    4.6310 H   0  0  0  0  0  0  0  0  0  0  0  0
   -2.2715   -7.0654    4.1940 H   0  0  0  0  0  0  0  0  0  0  0  0
   -0.5988   -6.5600    4.0803 H   0  0  0  0  0  0  0  0  0  0  0  0
   -0.8148   -5.2141    1.8508 N   0  0  0  0  0  0  0  0  0  0  0  0
   -0.8611   -4.7169    0.4991 C   0  0  2  0  0  0  0  0  0  0  0  0
    0.4840   -4.9852   -0.1729 C   0  0  0  0  0  0  0  0  0  0  0  0
    1.4538   -5.4420    0.4288 O   0  0  0  0  0  0  0  0  0  0  0  0
   -1.2907   -3.2493    0.4326 C   0  0  0  0  0  0  0  0  0  0  0  0
   -0.1355   -2.1075    1.2598 S   0  0  0  0  0  0  0  0  0  0  0  0
    0.0645   -5.1510    2.3590 H   0  0  0  0  0  0  0  0  0  0  0  0
   -1.6149   -5.3272   -0.0137 H   0  0  0  0  0  0  0  0  0  0  0  0
   -1.3844   -2.9230   -0.6084 H   0  0  0  0  0  0  0  0  0  0  0  0
   -2.2702   -3.1254    0.9070 H   0  0  0  0  0  0  0  0  0  0  0  0
    0.4801   -4.6316   -1.5147 N   0  0  0  0  0  0  0  0  0  0  0  0
    1.6435   -4.7681   -2.3596 C   0  0  0  0  0  0  0  0  0  0  0  0
   -0.3800   -4.3012   -1.9422 H   0  0  0  0  0  0  0  0  0  0  0  0
    2.2090   -3.8246   -2.3611 H   0  0  0  0  0  0  0  0  0  0  0  0
    2.2820   -5.5776   -1.9762 H   0  0  0  0  0  0  0  0  0  0  0  0
    1.3256   -5.0065   -3.3854 H   0  0  0  0  0  0  0  0  0  0  0  0
   -6.7256    2.0330   -0.2766 C   0  0  0  0  0  0  0  0  0  0  0  0
   -7.1824    1.1039   -0.9322 O   0  0  0  0  0  0  0  0  0  0  0  0
   -7.5276    2.6077    0.8435 C   0  0  0  0  0  0  0  0  0  0  0  0
   -8.1775    3.4344    0.5145 H   0  0  0  0  0  0  0  0  0  0  0  0
   -8.2057    1.8676    1.2980 H   0  0  0  0  0  0  0  0  0  0  0  0
   -6.9411    3.0162    1.6819 H   0  0  0  0  0  0  0  0  0  0  0  0
   -5.4935    2.6382   -0.4627 N   0  0  0  0  0  0  0  0  0  0  0  0
   -4.5619    2.2388   -1.4845 C   0  0  2  0  0  0  0  0  0  0  0  0
   -3.1535    2.4674   -0.9521 C   0  0  0  0  0  0  0  0  0  0  0  0
   -2.8634    3.3945   -0.1987 O   0  0  0  0  0  0  0  0  0  0  0  0
   -4.7883    3.0138   -2.7732 C   0  0  0  0  0  0  0  0  0  0  0  0
   -5.2337    3.4049    0.1551 H   0  0  0  0  0  0  0  0  0  0  0  0
   -4.7192    1.1682   -1.6549 H   0  0  0  0  0  0  0  0  0  0  0  0
   -4.6352    4.0886   -2.6221 H   0  0  0  0  0  0  0  0  0  0  0  0
   -4.0976    2.6887   -3.5582 H   0  0  0  0  0  0  0  0  0  0  0  0
   -5.8111    2.8719   -3.1387 H   0  0  0  0  0  0  0  0  0  0  0  0
   -2.2466    1.5400   -1.4507 N   0  0  0  0  0  0  0  0  0  0  0  0
   -0.8424    1.5707   -1.1286 C   0  0  2  0  0  0  0  0  0  0  0  0
   -0.0700    2.1019   -2.3343 C   0  0  0  0  0  0  0  0  0  0  0  0
    0.8068    2.9589   -2.2433 O   0  0  0  0  0  0  0  0  0  0  0  0
   -0.3300    0.2183   -0.6272 C   0  0  0  0  0  0  0  0  0  0  0  0
   -1.0587   -0.2999    0.9454 S   0  0  0  0  0  0  0  0  0  0  0  0
   -2.5850    0.7815   -2.0381 H   0  0  0  0  0  0  0  0  0  0  0  0
   -0.7415    2.3060   -0.3206 H   0  0  0  0  0  0  0  0  0  0  0  0
   -0.5395   -0.5677   -1.3601 H   0  0  0  0  0  0  0  0  0  0  0  0
    0.7557    0.2591   -0.4878 H   0  0  0  0  0  0  0  0  0  0  0  0
   -0.4920    1.5250   -3.5237 N   0  0  0  0  0  0  0  0  0  0  0  0
    0.0701    1.8822   -4.8052 C   0  0  2  0  0  0  0  0  0  0  0  0
   -1.0285    1.7552   -5.8524 C   0  0  0  0  0  0  0  0  0  0  0  0
   -1.9130    0.9034   -5.7967 O   0  0  0  0  0  0  0  0  0  0  0  0
    1.2581    0.9992   -5.1539 C   0  0  0  0  0  0  0  0  0  0  0  0
   -1.1943    0.7916   -3.5020 H   0  0  0  0  0  0  0  0  0  0  0  0
    0.3859    2.9285   -4.7315 H   0  0  0  0  0  0  0  0  0  0  0  0
    0.9611   -0.0530   -5.2321 H   0  0  0  0  0  0  0  0  0  0  0  0
    1.7007    1.2897   -6.1124 H   0  0  0  0  0  0  0  0  0  0  0  0
    2.0346    1.0690   -4.3845 H   0  0  0  0  0  0  0  0  0  0  0  0
   -0.8799    2.6771   -6.8791 N   0  0  0  0  0  0  0  0  0  0  0  0
   -1.7716    2.7305   -8.0141 C   0  0  0  0  0  0  0  0  0  0  0  0
   -0.1414    3.3723   -6.8235 H   0  0  0  0  0  0  0  0  0  0  0  0
   -1.3654    2.1139   -8.8294 H   0  0  0  0  0  0  0  0  0  0  0  0
   -2.7602    2.3468   -7.7219 H   0  0  0  0  0  0  0  0  0  0  0  0
   -1.8686    3.7717   -8.3553 H   0  0  0  0  0  0  0  0  0  0  0  0
  1  3  1  0  0  0  0
  1  7  1  0  0  0  0
  1  2  2  0  0  0  0
 23 25  1  0  0  0  0
 23 29  1  0  0  0  0
 23 24  2  0  0  0  0
 50 51  1  0  0  0  0
 51 59  1  0  0  0  0
 51 52  2  0  0  0  0
  8  9  1  0  0  0  0
  9 17  1  0  0  0  0
  9 10  2  0  0  0  0
 30 31  1  0  0  0  0
 31 39  1  0  0  0  0
 31 32  2  0  0  0  0
 40 41  1  0  0  0  0
 41 49  1  0  0  0  0
 41 42  2  0  0  0  0
 50 53  1  0  0  0  0
 30 33  1  0  0  0  0
 59 60  1  0  0  0  0
 17 18  1  0  0  0  0
  8 11  1  0  0  0  0
 11 12  1  0  0  0  0
 40 43  1  0  0  0  0
 43 44  1  0  0  0  0
 49 50  1  0  0  0  0
  7  8  1  0  0  0  0
 29 30  1  0  0  0  0
 39 40  1  0  0  0  0
 12 44  1  0  0  0  0
  3  4  1  0  0  0  0
  3  5  1  0  0  0  0
  3  6  1  0  0  0  0
 25 26  1  0  0  0  0
 25 27  1  0  0  0  0
 25 28  1  0  0  0  0
 53 56  1  0  0  0  0
 53 57  1  0  0  0  0
 53 58  1  0  0  0  0
 33 36  1  0  0  0  0
 33 37  1  0  0  0  0
 33 38  1  0  0  0  0
 60 62  1  0  0  0  0
 60 63  1  0  0  0  0
 60 64  1  0  0  0  0
 18 20  1  0  0  0  0
 18 21  1  0  0  0  0
 18 22  1  0  0  0  0
 11 15  1  0  0  0  0
 11 16  1  0  0  0  0
 43 47  1  0  0  0  0
 43 48  1  0  0  0  0
 50 55  1  0  0  0  0
  8 14  1  0  0  0  0
 30 35  1  0  0  0  0
 40 46  1  0  0  0  0
 59 61  1  0  0  0  0
 17 19  1  0  0  0  0
  7 13  1  0  0  0  0
 29 34  1  0  0  0  0
 49 54  1  0  0  0  0
 39 45  1  0  0  0  0
M  END
$$$$

  -OEChem-05262214473D

 64 63  0     1  0  0  0  0  0999 V2000
   -1.9063   -5.7732    2.4926 C   0  0  0  0  0  0  0  0  0  0  0  0
   -3.0278   -5.9205    2.0211 O   0  0  0  0  0  0  0  0  0  0  0  0
   -1.6302   -6.2229    3.8890 C   0  0  0  0  0  0  0  0  0  0  0  0
   -1.8183   -5.4303    4.6310 H   0  0  0  0  0  0  0  0  0  0  0  0
   -2.2715   -7.0654    4.1940 H   0  0  0  0  0  0  0  0  0  0  0  0
   -0.5988   -6.5600    4.0803 H   0  0  0  0  0  0  0  0  0  0  0  0
   -0.8148   -5.2141    1.8508 N   0  0  0  0  0  0  0  0  0  0  0  0
   -0.8611   -4.7169    0.4991 C   0  0  2  0  0  0  0  0  0  0  0  0
    0.4840   -4.9852   -0.1729 C   0  0  0  0  0  0  0  0  0  0  0  0
    1.4538   -5.4420    0.4288 O   0  0  0  0  0  0  0  0  0  0  0  0
   -1.2907   -3.2493    0.4326 C   0  0  0  0  0  0  0  0  0  0  0  0
   -0.1355   -2.1075    1.2598 S   0  0  0  0  0  0  0  0  0  0  0  0
    0.0645   -5.1510    2.3590 H   0  0  0  0  0  0  0  0  0  0  0  0
   -1.6149   -5.3272   -0.0137 H   0  0  0  0  0  0  0  0  0  0  0  0
   -1.3844   -2.9230   -0.6084 H   0  0  0  0  0  0  0  0  0  0  0  0
   -2.2702   -3.1254    0.9070 H   0  0  0  0  0  0  0  0  0  0  0  0
    0.4801   -4.6316   -1.5147 N   0  0  0  0  0  0  0  0  0  0  0  0
    1.6435   -4.7681   -2.3596 C   0  0  0  0  0  0  0  0  0  0  0  0
   -0.3800   -4.3012   -1.9422 H   0  0  0  0  0  0  0  0  0  0  0  0
    2.2090   -3.8246   -2.3611 H   0  0  0  0  0  0  0  0  0  0  0  0
    2.2820   -5.5776   -1.9762 H   0  0  0  0  0  0  0  0  0  0  0  0
    1.3256   -5.0065   -3.3854 H   0  0  0  0  0  0  0  0  0  0  0  0
   -6.7256    2.0330   -0.2766 C   0  0  0  0  0  0  0  0  0  0  0  0
   -7.1824    1.1039   -0.9322 O   0  0  0  0  0  0  0  0  0  0  0  0
   -7.5276    2.6077    0.8435 C   0  0  0  0  0  0  0  0  0  0  0  0
   -8.1775    3.4344    0.5145 H   0  0  0  0  0  0  0  0  0  0  0  0
   -8.2057    1.8676    1.2980 H   0  0  0  0  0  0  0  0  0  0  0  0
   -6.9411    3.0162    1.6819 H   0  0  0  0  0  0  0  0  0  0  0  0
   -5.4935    2.6382   -0.4627 N   0  0  0  0  0  0  0  0  0  0  0  0
   -4.5619    2.2388   -1.4845 C   0  0  2  0  0  0  0  0  0  0  0  0
   -3.1535    2.4674   -0.9521 C   0  0  0  0  0  0  0  0  0  0  0  0
   -2.8634    3.3945   -0.1987 O   0  0  0  0  0  0  0  0  0  0  0  0
   -4.7883    3.0138   -2.7732 C   0  0  0  0  0  0  0  0  0  0  0  0
   -5.2337    3.4049    0.1551 H   0  0  0  0  0  0  0  0  0  0  0  0
   -4.7192    1.1682   -1.6549 H   0  0  0  0  0  0  0  0  0  0  0  0
   -4.6352    4.0886   -2.6221 H   0  0  0  0  0  0  0  0  0  0  0  0
   -4.0976    2.6887   -3.5582 H   0  0  0  0  0  0  0  0  0  0  0  0
   -5.8111    2.8719   -3.1387 H   0  0  0  0  0  0  0  0  0  0  0  0
   -2.2466    1.5400   -1.4507 N   0  0  0  0  0  0  0  0  0  0  0  0
   -0.8424    1.5707   -1.1286 C   0  0  2  0  0  0  0  0  0  0  0  0
   -0.0700    2.1019   -2.3343 C   0  0  0  0  0  0  0  0  0  0  0  0
    0.9718    2.7466   -2.2311 O   0  0  0  0  0  0  0  0  0  0  0  0
   -0.3300    0.2183   -0.6272 C   0  0  0  0  0  0  0  0  0  0  0  0
   -1.0587   -0.2999    0.9454 S   0  0  0  0  0  0  0  0  0  0  0  0
   -2.5850    0.7815   -2.0381 H   0  0  0  0  0  0  0  0  0  0  0  0
   -0.7415    2.3060   -0.3206 H   0  0  0  0  0  0  0  0  0  0  0  0
   -0.5395   -0.5677   -1.3601 H   0  0  0  0  0  0  0  0  0  0  0  0
    0.7557    0.2591   -0.4878 H   0  0  0  0  0  0  0  0  0  0  0  0
   -0.6935    1.7928   -3.5348 N   0  0  0  0  0  0  0  0  0  0  0  0
   -0.1685    2.2076   -4.8147 C   0  0  2  0  0  0  0  0  0  0  0  0
   -1.3459    2.4491   -5.7501 C   0  0  0  0  0  0  0  0  0  0  0  0
   -2.3829    1.7904   -5.7070 O   0  0  0  0  0  0  0  0  0  0  0  0
    0.7770    1.1643   -5.3893 C   0  0  0  0  0  0  0  0  0  0  0  0
   -1.5306    1.2176   -3.5298 H   0  0  0  0  0  0  0  0  0  0  0  0
    0.3650    3.1496   -4.6475 H   0  0  0  0  0  0  0  0  0  0  0  0
    0.2603    0.2135   -5.5636 H   0  0  0  0  0  0  0  0  0  0  0  0
    1.1963    1.4928   -6.3461 H   0  0  0  0  0  0  0  0  0  0  0  0
    1.6074    0.9701   -4.7018 H   0  0  0  0  0  0  0  0  0  0  0  0
   -1.0857    3.4580   -6.6669 N   0  0  0  0  0  0  0  0  0  0  0  0
   -2.0302    3.8458   -7.6884 C   0  0  0  0  0  0  0  0  0  0  0  0
   -0.2154    3.9780   -6.6040 H   0  0  0  0  0  0  0  0  0  0  0  0
   -1.8263    3.2815   -8.6104 H   0  0  0  0  0  0  0  0  0  0  0  0
   -3.0521    3.6287   -7.3442 H   0  0  0  0  0  0  0  0  0  0  0  0
   -1.9318    4.9229   -7.8887 H   0  0  0  0  0  0  0  0  0  0  0  0
  1  3  1  0  0  0  0
  1  7  1  0  0  0  0
  1  2  2  0  0  0  0
 23 25  1  0  0  0  0
 23 29  1  0  0  0  0
 23 24  2  0  0  0  0
 50 51  1  0  0  0  0
 51 59  1  0  0  0  0
 51 52  2  0  0  0  0
  8  9  1  0  0  0  0
  9 17  1  0  0  0  0
  9 10  2  0  0  0  0
 30 31  1  0  0  0  0
 31 39  1  0  0  0  0
 31 32  2  0  0  0  0
 40 41  1  0  0  0  0
 41 49  1  0  0  0  0
 41 42  2  0  0  0  0
 50 53  1  0  0  0  0
 30 33  1  0  0  0  0
 59 60  1  0  0  0  0
 17 18  1  0  0  0  0
  8 11  1  0  0  0  0
 11 12  1  0  0  0  0
 40 43  1  0  0  0  0
 43 44  1  0  0  0  0
 49 50  1  0  0  0  0
  7  8  1  0  0  0  0
 29 30  1  0  0  0  0
 39 40  1  0  0  0  0
 12 44  1  0  0  0  0
  3  4  1  0  0  0  0
  3  5  1  0  0  0  0
  3  6  1  0  0  0  0
 25 26  1  0  0  0  0
 25 27  1  0  0  0  0
 25 28  1  0  0  0  0
 53 56  1  0  0  0  0
 53 57  1  0  0  0  0
 53 58  1  0  0  0  0
 33 36  1  0  0  0  0
 33 37  1  0  0  0  0
 33 38  1  0  0  0  0
 60 62  1  0  0  0  0
 60 63  1  0  0  0  0
 60 64  1  0  0  0  0
 18 20  1  0  0  0  0
 18 21  1  0  0  0  0
 18 22  1  0  0  0  0
 11 15  1  0  0  0  0
 11 16  1  0  0  0  0
 43 47  1  0  0  0  0
 43 48  1  0  0  0  0
 50 55  1  0  0  0  0
  8 14  1  0  0  0  0
 30 35  1  0  0  0  0
 40 46  1  0  0  0  0
 59 61  1  0  0  0  0
 17 19  1  0  0  0  0
  7 13  1  0  0  0  0
 29 34  1  0  0  0  0
 49 54  1  0  0  0  0
 39 45  1  0  0  0  0
M  END
$$$$

  -OEChem-05262214473D

 64 63  0     1  0  0  0  0  0999 V2000
   -1.9063   -5.7732    2.4926 C   0  0  0  0  0  0  0  0  0  0  0  0
   -3.0278   -5.9205    2.0211 O   0  0  0  0  0  0  0  0  0  0  0  0
   -1.6302   -6.2229    3.8890 C   0  0  0  0  0  0  0  0  0  0  0  0
   -1.8183   -5.4303    4.6310 H   0  0  0  0  0  0  0  0  0  0  0  0
   -2.2715   -7.0654    4.1940 H   0  0  0  0  0  0  0  0  0  0  0  0
   -0.5988   -6.5600    4.0803 H   0  0  0  0  0  0  0  0  0  0  0  0
   -0.8148   -5.2141    1.8508 N   0  0  0  0  0  0  0  0  0  0  0  0
   -0.8611   -4.7169    0.4991 C   0  0  2  0  0  0  0  0  0  0  0  0
    0.4840   -4.9852   -0.1729 C   0  0  0  0  0  0  0  0  0  0  0  0
    1.4538   -5.4420    0.4288 O   0  0  0  0  0  0  0  0  0  0  0  0
   -1.2907   -3.2493    0.4326 C   0  0  0  0  0  0  0  0  0  0  0  0
   -0.1355   -2.1075    1.2598 S   0  0  0  0  0  0  0  0  0  0  0  0
    0.0645   -5.1510    2.3590 H   0  0  0  0  0  0  0  0  0  0  0  0
   -1.6149   -5.3272   -0.0137 H   0  0  0  0  0  0  0  0  0  0  0  0
   -1.3844   -2.9230   -0.6084 H   0  0  0  0  0  0  0  0  0  0  0  0
   -2.2702   -3.1254    0.9070 H   0  0  0  0  0  0  0  0  0  0  0  0
    0.4801   -4.6316   -1.5147 N   0  0  0  0  0  0  0  0  0  0  0  0
    1.6435   -4.7681   -2.3596 C   0  0  0  0  0  0  0  0  0  0  0  0
   -0.3800   -4.3012   -1.9422 H   0  0  0  0  0  0  0  0  0  0  0  0
    2.2090   -3.8246   -2.3611 H   0  0  0  0  0  0  0  0  0  0  0  0
    2.2820   -5.5776   -1.9762 H   0  0  0  0  0  0  0  0  0  0  0  0
    1.3256   -5.0065   -3.3854 H   0  0  0  0  0  0  0  0  0  0  0  0
   -6.7256    2.0330   -0.2766 C   0  0  0  0  0  0  0  0  0  0  0  0
   -7.1824    1.1039   -0.9322 O   0  0  0  0  0  0  0  0  0  0  0  0
   -7.5276    2.6077    0.8435 C   0  0  0  0  0  0  0  0  0  0  0  0
   -8.1775    3.4344    0.5145 H   0  0  0  0  0  0  0  0  0  0  0  0
   -8.2057    1.8676    1.2980 H   0  0  0  0  0  0  0  0  0  0  0  0
   -6.9411    3.0162    1.6819 H   0  0  0  0  0  0  0  0  0  0  0  0
   -5.4935    2.6382   -0.4627 N   0  0  0  0  0  0  0  0  0  0  0  0
   -4.5619    2.2388   -1.4845 C   0  0  2  0  0  0  0  0  0  0  0  0
   -3.1535    2.4674   -0.9521 C   0  0  0  0  0  0  0  0  0  0  0  0
   -2.8634    3.3945   -0.1987 O   0  0  0  0  0  0  0  0  0  0  0  0
   -4.7883    3.0138   -2.7732 C   0  0  0  0  0  0  0  0  0  0  0  0
   -5.2337    3.4049    0.1551 H   0  0  0  0  0  0  0  0  0  0  0  0
   -4.7192    1.1682   -1.6549 H   0  0  0  0  0  0  0  0  0  0  0  0
   -4.6352    4.0886   -2.6221 H   0  0  0  0  0  0  0  0  0  0  0  0
   -4.0976    2.6887   -3.5582 H   0  0  0  0  0  0  0  0  0  0  0  0
   -5.8111    2.8719   -3.1387 H   0  0  0  0  0  0  0  0  0  0  0  0
   -2.2466    1.5400   -1.4507 N   0  0  0  0  0  0  0  0  0  0  0  0
   -0.8424    1.5707   -1.1286 C   0  0  2  0  0  0  0  0  0  0  0  0
   -0.0700    2.1019   -2.3343 C   0  0  0  0  0  0  0  0  0  0  0  0
    1.0888    2.5062   -2.2620 O   0  0  0  0  0  0  0  0  0  0  0  0
   -0.3300    0.2183   -0.6272 C   0  0  0  0  0  0  0  0  0  0  0  0
   -1.0587   -0.2999    0.9454 S   0  0  0  0  0  0  0  0  0  0  0  0
   -2.5850    0.7815   -2.0381 H   0  0  0  0  0  0  0  0  0  0  0  0
   -0.7415    2.3060   -0.3206 H   0  0  0  0  0  0  0  0  0  0  0  0
   -0.5395   -0.5677   -1.3601 H   0  0  0  0  0  0  0  0  0  0  0  0
    0.7557    0.2591   -0.4878 H   0  0  0  0  0  0  0  0  0  0  0  0
   -0.8344    2.0941   -3.4924 N   0  0  0  0  0  0  0  0  0  0  0  0
   -0.3333    2.5719   -4.7598 C   0  0  2  0  0  0  0  0  0  0  0  0
   -1.5015    3.1708   -5.5318 C   0  0  0  0  0  0  0  0  0  0  0  0
   -2.6475    2.7316   -5.4619 O   0  0  0  0  0  0  0  0  0  0  0  0
    0.3249    1.4529   -5.5518 C   0  0  0  0  0  0  0  0  0  0  0  0
   -1.7709    1.7014   -3.4706 H   0  0  0  0  0  0  0  0  0  0  0  0
    0.3976    3.3564   -4.5355 H   0  0  0  0  0  0  0  0  0  0  0  0
   -0.3920    0.6575   -5.7859 H   0  0  0  0  0  0  0  0  0  0  0  0
    0.7295    1.8226   -6.4998 H   0  0  0  0  0  0  0  0  0  0  0  0
    1.1459    1.0034   -4.9828 H   0  0  0  0  0  0  0  0  0  0  0  0
   -1.1058    4.2265   -6.3412 N   0  0  0  0  0  0  0  0  0  0  0  0
   -2.0228    4.9333   -7.2046 C   0  0  0  0  0  0  0  0  0  0  0  0
   -0.1434    4.5495   -6.3061 H   0  0  0  0  0  0  0  0  0  0  0  0
   -2.0133    4.4748   -8.2044 H   0  0  0  0  0  0  0  0  0  0  0  0
   -3.0382    4.8771   -6.7852 H   0  0  0  0  0  0  0  0  0  0  0  0
   -1.7157    5.9868   -7.2816 H   0  0  0  0  0  0  0  0  0  0  0  0
  1  3  1  0  0  0  0
  1  7  1  0  0  0  0
  1  2  2  0  0  0  0
 23 25  1  0  0  0  0
 23 29  1  0  0  0  0
 23 24  2  0  0  0  0
 50 51  1  0  0  0  0
 51 59  1  0  0  0  0
 51 52  2  0  0  0  0
  8  9  1  0  0  0  0
  9 17  1  0  0  0  0
  9 10  2  0  0  0  0
 30 31  1  0  0  0  0
 31 39  1  0  0  0  0
 31 32  2  0  0  0  0
 40 41  1  0  0  0  0
 41 49  1  0  0  0  0
 41 42  2  0  0  0  0
 50 53  1  0  0  0  0
 30 33  1  0  0  0  0
 59 60  1  0  0  0  0
 17 18  1  0  0  0  0
  8 11  1  0  0  0  0
 11 12  1  0  0  0  0
 40 43  1  0  0  0  0
 43 44  1  0  0  0  0
 49 50  1  0  0  0  0
  7  8  1  0  0  0  0
 29 30  1  0  0  0  0
 39 40  1  0  0  0  0
 12 44  1  0  0  0  0
  3  4  1  0  0  0  0
  3  5  1  0  0  0  0
  3  6  1  0  0  0  0
 25 26  1  0  0  0  0
 25 27  1  0  0  0  0
 25 28  1  0  0  0  0
 53 56  1  0  0  0  0
 53 57  1  0  0  0  0
 53 58  1  0  0  0  0
 33 36  1  0  0  0  0
 33 37  1  0  0  0  0
 33 38  1  0  0  0  0
 60 62  1  0  0  0  0
 60 63  1  0  0  0  0
 60 64  1  0  0  0  0
 18 20  1  0  0  0  0
 18 21  1  0  0  0  0
 18 22  1  0  0  0  0
 11 15  1  0  0  0  0
 11 16  1  0  0  0  0
 43 47  1  0  0  0  0
 43 48  1  0  0  0  0
 50 55  1  0  0  0  0
  8 14  1  0  0  0  0
 30 35  1  0  0  0  0
 40 46  1  0  0  0  0
 59 61  1  0  0  0  0
 17 19  1  0  0  0  0
  7 13  1  0  0  0  0
 29 34  1  0  0  0  0
 49 54  1  0  0  0  0
 39 45  1  0  0  0  0
M  END
$$$$

  -OEChem-05262214473D

 64 63  0     1  0  0  0  0  0999 V2000
   -1.9063   -5.7732    2.4926 C   0  0  0  0  0  0  0  0  0  0  0  0
   -3.0278   -5.9205    2.0211 O   0  0  0  0  0  0  0  0  0  0  0  0
   -1.6302   -6.2229    3.8890 C   0  0  0  0  0  0  0  0  0  0  0  0
   -1.8183   -5.4303    4.6310 H   0  0  0  0  0  0  0  0  0  0  0  0
   -2.2715   -7.0654    4.1940 H   0  0  0  0  0  0  0  0  0  0  0  0
   -0.5988   -6.5600    4.0803 H   0  0  0  0  0  0  0  0  0  0  0  0
   -0.8148   -5.2141    1.8508 N   0  0  0  0  0  0  0  0  0  0  0  0
   -0.8611   -4.7169    0.4991 C   0  0  2  0  0  0  0  0  0  0  0  0
    0.4840   -4.9852   -0.1729 C   0  0  0  0  0  0  0  0  0  0  0  0
    1.4538   -5.4420    0.4288 O   0  0  0  0  0  0  0  0  0  0  0  0
   -1.2907   -3.2493    0.4326 C   0  0  0  0  0  0  0  0  0  0  0  0
   -0.1355   -2.1075    1.2598 S   0  0  0  0  0  0  0  0  0  0  0  0
    0.0645   -5.1510    2.3590 H   0  0  0  0  0  0  0  0  0  0  0  0
   -1.6149   -5.3272   -0.0137 H   0  0  0  0  0  0  0  0  0  0  0  0
   -1.3844   -2.9230   -0.6084 H   0  0  0  0  0  0  0  0  0  0  0  0
   -2.2702   -3.1254    0.9070 H   0  0  0  0  0  0  0  0  0  0  0  0
    0.4801   -4.6316   -1.5147 N   0  0  0  0  0  0  0  0  0  0  0  0
    1.6435   -4.7681   -2.3596 C   0  0  0  0  0  0  0  0  0  0  0  0
   -0.3800   -4.3012   -1.9422 H   0  0  0  0  0  0  0  0  0  0  0  0
    2.2090   -3.8246   -2.3611 H   0  0  0  0  0  0  0  0  0  0  0  0
    2.2820   -5.5776   -1.9762 H   0  0  0  0  0  0  0  0  0  0  0  0
    1.3256   -5.0065   -3.3854 H   0  0  0  0  0  0  0  0  0  0  0  0
   -6.7256    2.0330   -0.2766 C   0  0  0  0  0  0  0  0  0  0  0  0
   -7.1824    1.1039   -0.9322 O   0  0  0  0  0  0  0  0  0  0  0  0
   -7.5276    2.6077    0.8435 C   0  0  0  0  0  0  0  0  0  0  0  0
   -8.1775    3.4344    0.5145 H   0  0  0  0  0  0  0  0  0  0  0  0
   -8.2057    1.8676    1.2980 H   0  0  0  0  0  0  0  0  0  0  0  0
   -6.9411    3.0162    1.6819 H   0  0  0  0  0  0  0  0  0  0  0  0
   -5.4935    2.6382   -0.4627 N   0  0  0  0  0  0  0  0  0  0  0  0
   -4.5619    2.2388   -1.4845 C   0  0  2  0  0  0  0  0  0  0  0  0
   -3.1535    2.4674   -0.9521 C   0  0  0  0  0  0  0  0  0  0  0  0
   -2.8634    3.3945   -0.1987 O   0  0  0  0  0  0  0  0  0  0  0  0
   -4.7883    3.0138   -2.7732 C   0  0  0  0  0  0  0  0  0  0  0  0
   -5.2337    3.4049    0.1551 H   0  0  0  0  0  0  0  0  0  0  0  0
   -4.7192    1.1682   -1.6549 H   0  0  0  0  0  0  0  0  0  0  0  0
   -4.6352    4.0886   -2.6221 H   0  0  0  0  0  0  0  0  0  0  0  0
   -4.0976    2.6887   -3.5582 H   0  0  0  0  0  0  0  0  0  0  0  0
   -5.8111    2.8719   -3.1387 H   0  0  0  0  0  0  0  0  0  0  0  0
   -2.2466    1.5400   -1.4507 N   0  0  0  0  0  0  0  0  0  0  0  0
   -0.8424    1.5707   -1.1286 C   0  0  2  0  0  0  0  0  0  0  0  0
   -0.0700    2.1019   -2.3343 C   0  0  0  0  0  0  0  0  0  0  0  0
    1.1500    2.2541   -2.3339 O   0  0  0  0  0  0  0  0  0  0  0  0
   -0.3300    0.2183   -0.6272 C   0  0  0  0  0  0  0  0  0  0  0  0
   -1.0587   -0.2999    0.9454 S   0  0  0  0  0  0  0  0  0  0  0  0
   -2.5850    0.7815   -2.0381 H   0  0  0  0  0  0  0  0  0  0  0  0
   -0.7415    2.3060   -0.3206 H   0  0  0  0  0  0  0  0  0  0  0  0
   -0.5395   -0.5677   -1.3601 H   0  0  0  0  0  0  0  0  0  0  0  0
    0.7557    0.2591   -0.4878 H   0  0  0  0  0  0  0  0  0  0  0  0
   -0.9052    2.4084   -3.3992 N   0  0  0  0  0  0  0  0  0  0  0  0
   -0.4131    2.9502   -4.6443 C   0  0  2  0  0  0  0  0  0  0  0  0
   -1.4848    3.8712   -5.2125 C   0  0  0  0  0  0  0  0  0  0  0  0
   -2.6887    3.6626   -5.0781 O   0  0  0  0  0  0  0  0  0  0  0  0
   -0.0675    1.8453   -5.6303 C   0  0  0  0  0  0  0  0  0  0  0  0
   -1.8988    2.2102   -3.3284 H   0  0  0  0  0  0  0  0  0  0  0  0
    0.4814    3.5348   -4.4033 H   0  0  0  0  0  0  0  0  0  0  0  0
   -0.9514    1.2487   -5.8838 H   0  0  0  0  0  0  0  0  0  0  0  0
    0.3322    2.2566   -6.5631 H   0  0  0  0  0  0  0  0  0  0  0  0
    0.6816    1.1666   -5.2083 H   0  0  0  0  0  0  0  0  0  0  0  0
   -0.9389    4.9303   -5.9242 N   0  0  0  0  0  0  0  0  0  0  0  0
   -1.7500    5.9189   -6.5956 C   0  0  0  0  0  0  0  0  0  0  0  0
    0.0697    5.0479   -5.9500 H   0  0  0  0  0  0  0  0  0  0  0  0
   -1.9135    5.6124   -7.6393 H   0  0  0  0  0  0  0  0  0  0  0  0
   -2.7194    6.0070   -6.0832 H   0  0  0  0  0  0  0  0  0  0  0  0
   -1.2349    6.8907   -6.5753 H   0  0  0  0  0  0  0  0  0  0  0  0
  1  3  1  0  0  0  0
  1  7  1  0  0  0  0
  1  2  2  0  0  0  0
 23 25  1  0  0  0  0
 23 29  1  0  0  0  0
 23 24  2  0  0  0  0
 50 51  1  0  0  0  0
 51 59  1  0  0  0  0
 51 52  2  0  0  0  0
  8  9  1  0  0  0  0
  9 17  1  0  0  0  0
  9 10  2  0  0  0  0
 30 31  1  0  0  0  0
 31 39  1  0  0  0  0
 31 32  2  0  0  0  0
 40 41  1  0  0  0  0
 41 49  1  0  0  0  0
 41 42  2  0  0  0  0
 50 53  1  0  0  0  0
 30 33  1  0  0  0  0
 59 60  1  0  0  0  0
 17 18  1  0  0  0  0
  8 11  1  0  0  0  0
 11 12  1  0  0  0  0
 40 43  1  0  0  0  0
 43 44  1  0  0  0  0
 49 50  1  0  0  0  0
  7  8  1  0  0  0  0
 29 30  1  0  0  0  0
 39 40  1  0  0  0  0
 12 44  1  0  0  0  0
  3  4  1  0  0  0  0
  3  5  1  0  0  0  0
  3  6  1  0  0  0  0
 25 26  1  0  0  0  0
 25 27  1  0  0  0  0
 25 28  1  0  0  0  0
 53 56  1  0  0  0  0
 53 57  1  0  0  0  0
 53 58  1  0  0  0  0
 33 36  1  0  0  0  0
 33 37  1  0  0  0  0
 33 38  1  0  0  0  0
 60 62  1  0  0  0  0
 60 63  1  0  0  0  0
 60 64  1  0  0  0  0
 18 20  1  0  0  0  0
 18 21  1  0  0  0  0
 18 22  1  0  0  0  0
 11 15  1  0  0  0  0
 11 16  1  0  0  0  0
 43 47  1  0  0  0  0
 43 48  1  0  0  0  0
 50 55  1  0  0  0  0
  8 14  1  0  0  0  0
 30 35  1  0  0  0  0
 40 46  1  0  0  0  0
 59 61  1  0  0  0  0
 17 19  1  0  0  0  0
  7 13  1  0  0  0  0
 29 34  1  0  0  0  0
 49 54  1  0  0  0  0
 39 45  1  0  0  0  0
M  END
$$$$

  -OEChem-05262214473D

 64 63  0     1  0  0  0  0  0999 V2000
   -1.9063   -5.7732    2.4926 C   0  0  0  0  0  0  0  0  0  0  0  0
   -3.0278   -5.9205    2.0211 O   0  0  0  0  0  0  0  0  0  0  0  0
   -1.6302   -6.2229    3.8890 C   0  0  0  0  0  0  0  0  0  0  0  0
   -1.8183   -5.4303    4.6310 H   0  0  0  0  0  0  0  0  0  0  0  0
   -2.2715   -7.0654    4.1940 H   0  0  0  0  0  0  0  0  0  0  0  0
   -0.5988   -6.5600    4.0803 H   0  0  0  0  0  0  0  0  0  0  0  0
   -0.8148   -5.2141    1.8508 N   0  0  0  0  0  0  0  0  0  0  0  0
   -0.8611   -4.7169    0.4991 C   0  0  2  0  0  0  0  0  0  0  0  0
    0.4840   -4.9852   -0.1729 C   0  0  0  0  0  0  0  0  0  0  0  0
    1.4538   -5.4420    0.4288 O   0  0  0  0  0  0  0  0  0  0  0  0
   -1.2907   -3.2493    0.4326 C   0  0  0  0  0  0  0  0  0  0  0  0
   -0.1355   -2.1075    1.2598 S   0  0  0  0  0  0  0  0  0  0  0  0
    0.0645   -5.1510    2.3590 H   0  0  0  0  0  0  0  0  0  0  0  0
   -1.6149   -5.3272   -0.0137 H   0  0  0  0  0  0  0  0  0  0  0  0
   -1.3844   -2.9230   -0.6084 H   0  0  0  0  0  0  0  0  0  0  0  0
   -2.2702   -3.1254    0.9070 H   0  0  0  0  0  0  0  0  0  0  0  0
    0.4801   -4.6316   -1.5147 N   0  0  0  0  0  0  0  0  0  0  0  0
    1.6435   -4.7681   -2.3596 C   0  0  0  0  0  0  0  0  0  0  0  0
   -0.3800   -4.3012   -1.9422 H   0  0  0  0  0  0  0  0  0  0  0  0
    2.2090   -3.8246   -2.3611 H   0  0  0  0  0  0  0  0  0  0  0  0
    2.2820   -5.5776   -1.9762 H   0  0  0  0  0  0  0  0  0  0  0  0
    1.3256   -5.0065   -3.3854 H   0  0  0  0  0  0  0  0  0  0  0  0
   -6.7256    2.0330   -0.2766 C   0  0  0  0  0  0  0  0  0  0  0  0
   -7.1824    1.1039   -0.9322 O   0  0  0  0  0  0  0  0  0  0  0  0
   -7.5276    2.6077    0.8435 C   0  0  0  0  0  0  0  0  0  0  0  0
   -8.1775    3.4344    0.5145 H   0  0  0  0  0  0  0  0  0  0  0  0
   -8.2057    1.8676    1.2980 H   0  0  0  0  0  0  0  0  0  0  0  0
   -6.9411    3.0162    1.6819 H   0  0  0  0  0  0  0  0  0  0  0  0
   -5.4935    2.6382   -0.4627 N   0  0  0  0  0  0  0  0  0  0  0  0
   -4.5619    2.2388   -1.4845 C   0  0  2  0  0  0  0  0  0  0  0  0
   -3.1535    2.4674   -0.9521 C   0  0  0  0  0  0  0  0  0  0  0  0
   -2.8634    3.3945   -0.1987 O   0  0  0  0  0  0  0  0  0  0  0  0
   -4.7883    3.0138   -2.7732 C   0  0  0  0  0  0  0  0  0  0  0  0
   -5.2337    3.4049    0.1551 H   0  0  0  0  0  0  0  0  0  0  0  0
   -4.7192    1.1682   -1.6549 H   0  0  0  0  0  0  0  0  0  0  0  0
   -4.6352    4.0886   -2.6221 H   0  0  0  0  0  0  0  0  0  0  0  0
   -4.0976    2.6887   -3.5582 H   0  0  0  0  0  0  0  0  0  0  0  0
   -5.8111    2.8719   -3.1387 H   0  0  0  0  0  0  0  0  0  0  0  0
   -2.2466    1.5400   -1.4507 N   0  0  0  0  0  0  0  0  0  0  0  0
   -0.8424    1.5707   -1.1286 C   0  0  2  0  0  0  0  0  0  0  0  0
   -0.0700    2.1019   -2.3343 C   0  0  0  0  0  0  0  0  0  0  0  0
    1.1511    2.0076   -2.4418 O   0  0  0  0  0  0  0  0  0  0  0  0
   -0.3300    0.2183   -0.6272 C   0  0  0  0  0  0  0  0  0  0  0  0
   -1.0587   -0.2999    0.9454 S   0  0  0  0  0  0  0  0  0  0  0  0
   -2.5850    0.7815   -2.0381 H   0  0  0  0  0  0  0  0  0  0  0  0
   -0.7415    2.3060   -0.3206 H   0  0  0  0  0  0  0  0  0  0  0  0
   -0.5395   -0.5677   -1.3601 H   0  0  0  0  0  0  0  0  0  0  0  0
    0.7557    0.2591   -0.4878 H   0  0  0  0  0  0  0  0  0  0  0  0
   -0.9009    2.7143   -3.2617 N   0  0  0  0  0  0  0  0  0  0  0  0
   -0.4025    3.3169   -4.4760 C   0  0  2  0  0  0  0  0  0  0  0  0
   -1.2967    4.5025   -4.8139 C   0  0  0  0  0  0  0  0  0  0  0  0
   -2.5037    4.5200   -4.5818 O   0  0  0  0  0  0  0  0  0  0  0  0
   -0.3733    2.3148   -5.6195 C   0  0  0  0  0  0  0  0  0  0  0  0
   -1.9056    2.7091   -3.1130 H   0  0  0  0  0  0  0  0  0  0  0  0
    0.6107    3.6728   -4.2597 H   0  0  0  0  0  0  0  0  0  0  0  0
   -1.3797    1.9469   -5.8506 H   0  0  0  0  0  0  0  0  0  0  0  0
    0.0314    2.7654   -6.5317 H   0  0  0  0  0  0  0  0  0  0  0  0
    0.2463    1.4487   -5.3630 H   0  0  0  0  0  0  0  0  0  0  0  0
   -0.5963    5.5214   -5.4443 N   0  0  0  0  0  0  0  0  0  0  0  0
   -1.2302    6.7355   -5.9028 C   0  0  0  0  0  0  0  0  0  0  0  0
    0.4095    5.4391   -5.5600 H   0  0  0  0  0  0  0  0  0  0  0  0
   -1.5338    6.6170   -6.9534 H   0  0  0  0  0  0  0  0  0  0  0  0
   -2.1173    6.9413   -5.2859 H   0  0  0  0  0  0  0  0  0  0  0  0
   -0.5223    7.5732   -5.8181 H   0  0  0  0  0  0  0  0  0  0  0  0
  1  3  1  0  0  0  0
  1  7  1  0  0  0  0
  1  2  2  0  0  0  0
 23 25  1  0  0  0  0
 23 29  1  0  0  0  0
 23 24  2  0  0  0  0
 50 51  1  0  0  0  0
 51 59  1  0  0  0  0
 51 52  2  0  0  0  0
  8  9  1  0  0  0  0
  9 17  1  0  0  0  0
  9 10  2  0  0  0  0
 30 31  1  0  0  0  0
 31 39  1  0  0  0  0
 31 32  2  0  0  0  0
 40 41  1  0  0  0  0
 41 49  1  0  0  0  0
 41 42  2  0  0  0  0
 50 53  1  0  0  0  0
 30 33  1  0  0  0  0
 59 60  1  0  0  0  0
 17 18  1  0  0  0  0
  8 11  1  0  0  0  0
 11 12  1  0  0  0  0
 40 43  1  0  0  0  0
 43 44  1  0  0  0  0
 49 50  1  0  0  0  0
  7  8  1  0  0  0  0
 29 30  1  0  0  0  0
 39 40  1  0  0  0  0
 12 44  1  0  0  0  0
  3  4  1  0  0  0  0
  3  5  1  0  0  0  0
  3  6  1  0  0  0  0
 25 26  1  0  0  0  0
 25 27  1  0  0  0  0
 25 28  1  0  0  0  0
 53 56  1  0  0  0  0
 53 57  1  0  0  0  0
 53 58  1  0  0  0  0
 33 36  1  0  0  0  0
 33 37  1  0  0  0  0
 33 38  1  0  0  0  0
 60 62  1  0  0  0  0
 60 63  1  0  0  0  0
 60 64  1  0  0  0  0
 18 20  1  0  0  0  0
 18 21  1  0  0  0  0
 18 22  1  0  0  0  0
 11 15  1  0  0  0  0
 11 16  1  0  0  0  0
 43 47  1  0  0  0  0
 43 48  1  0  0  0  0
 50 55  1  0  0  0  0
  8 14  1  0  0  0  0
 30 35  1  0  0  0  0
 40 46  1  0  0  0  0
 59 61  1  0  0  0  0
 17 19  1  0  0  0  0
  7 13  1  0  0  0  0
 29 34  1  0  0  0  0
 49 54  1  0  0  0  0
 39 45  1  0  0  0  0
M  END
$$$$

  -OEChem-05262214473D

 64 63  0     1  0  0  0  0  0999 V2000
   -1.9063   -5.7732    2.4926 C   0  0  0  0  0  0  0  0  0  0  0  0
   -3.0278   -5.9205    2.0211 O   0  0  0  0  0  0  0  0  0  0  0  0
   -1.6302   -6.2229    3.8890 C   0  0  0  0  0  0  0  0  0  0  0  0
   -1.8183   -5.4303    4.6310 H   0  0  0  0  0  0  0  0  0  0  0  0
   -2.2715   -7.0654    4.1940 H   0  0  0  0  0  0  0  0  0  0  0  0
   -0.5988   -6.5600    4.0803 H   0  0  0  0  0  0  0  0  0  0  0  0
   -0.8148   -5.2141    1.8508 N   0  0  0  0  0  0  0  0  0  0  0  0
   -0.8611   -4.7169    0.4991 C   0  0  2  0  0  0  0  0  0  0  0  0
    0.4840   -4.9852   -0.1729 C   0  0  0  0  0  0  0  0  0  0  0  0
    1.4538   -5.4420    0.4288 O   0  0  0  0  0  0  0  0  0  0  0  0
   -1.2907   -3.2493    0.4326 C   0  0  0  0  0  0  0  0  0  0  0  0
   -0.1355   -2.1075    1.2598 S   0  0  0  0  0  0  0  0  0  0  0  0
    0.0645   -5.1510    2.3590 H   0  0  0  0  0  0  0  0  0  0  0  0
   -1.6149   -5.3272   -0.0137 H   0  0  0  0  0  0  0  0  0  0  0  0
   -1.3844   -2.9230   -0.6084 H   0  0  0  0  0  0  0  0  0  0  0  0
   -2.2702   -3.1254    0.9070 H   0  0  0  0  0  0  0  0  0  0  0  0
    0.4801   -4.6316   -1.5147 N   0  0  0  0  0  0  0  0  0  0  0  0
    1.6435   -4.7681   -2.3596 C   0  0  0  0  0  0  0  0  0  0  0  0
   -0.3800   -4.3012   -1.9422 H   0  0  0  0  0  0  0  0  0  0  0  0
    2.2090   -3.8246   -2.3611 H   0  0  0  0  0  0  0  0  0  0  0  0
    2.2820   -5.5776   -1.9762 H   0  0  0  0  0  0  0  0  0  0  0  0
    1.3256   -5.0065   -3.3854 H   0  0  0  0  0  0  0  0  0  0  0  0
   -6.7256    2.0330   -0.2766 C   0  0  0  0  0  0  0  0  0  0  0  0
   -7.1824    1.1039   -0.9322 O   0  0  0  0  0  0  0  0  0  0  0  0
   -7.5276    2.6077    0.8435 C   0  0  0  0  0  0  0  0  0  0  0  0
   -8.1775    3.4344    0.5145 H   0  0  0  0  0  0  0  0  0  0  0  0
   -8.2057    1.8676    1.2980 H   0  0  0  0  0  0  0  0  0  0  0  0
   -6.9411    3.0162    1.6819 H   0  0  0  0  0  0  0  0  0  0  0  0
   -5.4935    2.6382   -0.4627 N   0  0  0  0  0  0  0  0  0  0  0  0
   -4.5619    2.2388   -1.4845 C   0  0  2  0  0  0  0  0  0  0  0  0
   -3.1535    2.4674   -0.9521 C   0  0  0  0  0  0  0  0  0  0  0  0
   -2.8634    3.3945   -0.1987 O   0  0  0  0  0  0  0  0  0  0  0  0
   -4.7883    3.0138   -2.7732 C   0  0  0  0  0  0  0  0  0  0  0  0
   -5.2337    3.4049    0.1551 H   0  0  0  0  0  0  0  0  0  0  0  0
   -4.7192    1.1682   -1.6549 H   0  0  0  0  0  0  0  0  0  0  0  0
   -4.6352    4.0886   -2.6221 H   0  0  0  0  0  0  0  0  0  0  0  0
   -4.0976    2.6887   -3.5582 H   0  0  0  0  0  0  0  0  0  0  0  0
   -5.8111    2.8719   -3.1387 H   0  0  0  0  0  0  0  0  0  0  0  0
   -2.2466    1.5400   -1.4507 N   0  0  0  0  0  0  0  0  0  0  0  0
   -0.8424    1.5707   -1.1286 C   0  0  2  0  0  0  0  0  0  0  0  0
   -0.0700    2.1019   -2.3343 C   0  0  0  0  0  0  0  0  0  0  0  0
    1.0921    1.7833   -2.5784 O   0  0  0  0  0  0  0  0  0  0  0  0
   -0.3300    0.2183   -0.6272 C   0  0  0  0  0  0  0  0  0  0  0  0
   -1.0587   -0.2999    0.9454 S   0  0  0  0  0  0  0  0  0  0  0  0
   -2.5850    0.7815   -2.0381 H   0  0  0  0  0  0  0  0  0  0  0  0
   -0.7415    2.3060   -0.3206 H   0  0  0  0  0  0  0  0  0  0  0  0
   -0.5395   -0.5677   -1.3601 H   0  0  0  0  0  0  0  0  0  0  0  0
    0.7557    0.2591   -0.4878 H   0  0  0  0  0  0  0  0  0  0  0  0
   -0.8219    2.9908   -3.0893 N   0  0  0  0  0  0  0  0  0  0  0  0
   -0.3022    3.6468   -4.2663 C   0  0  2  0  0  0  0  0  0  0  0  0
   -0.9501    5.0217   -4.3632 C   0  0  0  0  0  0  0  0  0  0  0  0
   -2.1052    5.2455   -4.0069 O   0  0  0  0  0  0  0  0  0  0  0  0
   -0.5719    2.8293   -5.5200 C   0  0  0  0  0  0  0  0  0  0  0  0
   -1.7909    3.1642   -2.8390 H   0  0  0  0  0  0  0  0  0  0  0  0
    0.7767    3.7608   -4.1145 H   0  0  0  0  0  0  0  0  0  0  0  0
   -1.6478    2.7045   -5.6886 H   0  0  0  0  0  0  0  0  0  0  0  0
   -0.1523    3.3141   -6.4077 H   0  0  0  0  0  0  0  0  0  0  0  0
   -0.1306    1.8303   -5.4363 H   0  0  0  0  0  0  0  0  0  0  0  0
   -0.1014    5.9596   -4.9342 N   0  0  0  0  0  0  0  0  0  0  0  0
   -0.4989    7.3273   -5.1736 C   0  0  0  0  0  0  0  0  0  0  0  0
    0.8527    5.6965   -5.1627 H   0  0  0  0  0  0  0  0  0  0  0  0
   -0.9000    7.4199   -6.1937 H   0  0  0  0  0  0  0  0  0  0  0  0
   -1.2731    7.6164   -4.4476 H   0  0  0  0  0  0  0  0  0  0  0  0
    0.3737    7.9876   -5.0615 H   0  0  0  0  0  0  0  0  0  0  0  0
  1  3  1  0  0  0  0
  1  7  1  0  0  0  0
  1  2  2  0  0  0  0
 23 25  1  0  0  0  0
 23 29  1  0  0  0  0
 23 24  2  0  0  0  0
 50 51  1  0  0  0  0
 51 59  1  0  0  0  0
 51 52  2  0  0  0  0
  8  9  1  0  0  0  0
  9 17  1  0  0  0  0
  9 10  2  0  0  0  0
 30 31  1  0  0  0  0
 31 39  1  0  0  0  0
 31 32  2  0  0  0  0
 40 41  1  0  0  0  0
 41 49  1  0  0  0  0
 41 42  2  0  0  0  0
 50 53  1  0  0  0  0
 30 33  1  0  0  0  0
 59 60  1  0  0  0  0
 17 18  1  0  0  0  0
  8 11  1  0  0  0  0
 11 12  1  0  0  0  0
 40 43  1  0  0  0  0
 43 44  1  0  0  0  0
 49 50  1  0  0  0  0
  7  8  1  0  0  0  0
 29 30  1  0  0  0  0
 39 40  1  0  0  0  0
 12 44  1  0  0  0  0
  3  4  1  0  0  0  0
  3  5  1  0  0  0  0
  3  6  1  0  0  0  0
 25 26  1  0  0  0  0
 25 27  1  0  0  0  0
 25 28  1  0  0  0  0
 53 56  1  0  0  0  0
 53 57  1  0  0  0  0
 53 58  1  0  0  0  0
 33 36  1  0  0  0  0
 33 37  1  0  0  0  0
 33 38  1  0  0  0  0
 60 62  1  0  0  0  0
 60 63  1  0  0  0  0
 60 64  1  0  0  0  0
 18 20  1  0  0  0  0
 18 21  1  0  0  0  0
 18 22  1  0  0  0  0
 11 15  1  0  0  0  0
 11 16  1  0  0  0  0
 43 47  1  0  0  0  0
 43 48  1  0  0  0  0
 50 55  1  0  0  0  0
  8 14  1  0  0  0  0
 30 35  1  0  0  0  0
 40 46  1  0  0  0  0
 59 61  1  0  0  0  0
 17 19  1  0  0  0  0
  7 13  1  0  0  0  0
 29 34  1  0  0  0  0
 49 54  1  0  0  0  0
 39 45  1  0  0  0  0
M  END
$$$$

  -OEChem-05262214473D

 64 63  0     1  0  0  0  0  0999 V2000
   -1.9063   -5.7732    2.4926 C   0  0  0  0  0  0  0  0  0  0  0  0
   -3.0278   -5.9205    2.0211 O   0  0  0  0  0  0  0  0  0  0  0  0
   -1.6302   -6.2229    3.8890 C   0  0  0  0  0  0  0  0  0  0  0  0
   -1.8183   -5.4303    4.6310 H   0  0  0  0  0  0  0  0  0  0  0  0
   -2.2715   -7.0654    4.1940 H   0  0  0  0  0  0  0  0  0  0  0  0
   -0.5988   -6.5600    4.0803 H   0  0  0  0  0  0  0  0  0  0  0  0
   -0.8148   -5.2141    1.8508 N   0  0  0  0  0  0  0  0  0  0  0  0
   -0.8611   -4.7169    0.4991 C   0  0  2  0  0  0  0  0  0  0  0  0
    0.4840   -4.9852   -0.1729 C   0  0  0  0  0  0  0  0  0  0  0  0
    1.4538   -5.4420    0.4288 O   0  0  0  0  0  0  0  0  0  0  0  0
   -1.2907   -3.2493    0.4326 C   0  0  0  0  0  0  0  0  0  0  0  0
   -0.1355   -2.1075    1.2598 S   0  0  0  0  0  0  0  0  0  0  0  0
    0.0645   -5.1510    2.3590 H   0  0  0  0  0  0  0  0  0  0  0  0
   -1.6149   -5.3272   -0.0137 H   0  0  0  0  0  0  0  0  0  0  0  0
   -1.3844   -2.9230   -0.6084 H   0  0  0  0  0  0  0  0  0  0  0  0
   -2.2702   -3.1254    0.9070 H   0  0  0  0  0  0  0  0  0  0  0  0
    0.4801   -4.6316   -1.5147 N   0  0  0  0  0  0  0  0  0  0  0  0
    1.6435   -4.7681   -2.3596 C   0  0  0  0  0  0  0  0  0  0  0  0
   -0.3800   -4.3012   -1.9422 H   0  0  0  0  0  0  0  0  0  0  0  0
    2.2090   -3.8246   -2.3611 H   0  0  0  0  0  0  0  0  0  0  0  0
    2.2820   -5.5776   -1.9762 H   0  0  0  0  0  0  0  0  0  0  0  0
    1.3256   -5.0065   -3.3854 H   0  0  0  0  0  0  0  0  0  0  0  0
   -6.7256    2.0330   -0.2766 C   0  0  0  0  0  0  0  0  0  0  0  0
   -7.1824    1.1039   -0.9322 O   0  0  0  0  0  0  0  0  0  0  0  0
   -7.5276    2.6077    0.8435 C   0  0  0  0  0  0  0  0  0  0  0  0
   -8.1775    3.4344    0.5145 H   0  0  0  0  0  0  0  0  0  0  0  0
   -8.2057    1.8676    1.2980 H   0  0  0  0  0  0  0  0  0  0  0  0
   -6.9411    3.0162    1.6819 H   0  0  0  0  0  0  0  0  0  0  0  0
   -5.4935    2.6382   -0.4627 N   0  0  0  0  0  0  0  0  0  0  0  0
   -4.5619    2.2388   -1.4845 C   0  0  2  0  0  0  0  0  0  0  0  0
   -3.1535    2.4674   -0.9521 C   0  0  0  0  0  0  0  0  0  0  0  0
   -2.8634    3.3945   -0.1987 O   0  0  0  0  0  0  0  0  0  0  0  0
   -4.7883    3.0138   -2.7732 C   0  0  0  0  0  0  0  0  0  0  0  0
   -5.2337    3.4049    0.1551 H   0  0  0  0  0  0  0  0  0  0  0  0
   -4.7192    1.1682   -1.6549 H   0  0  0  0  0  0  0  0  0  0  0  0
   -4.6352    4.0886   -2.6221 H   0  0  0  0  0  0  0  0  0  0  0  0
   -4.0976    2.6887   -3.5582 H   0  0  0  0  0  0  0  0  0  0  0  0
   -5.8111    2.8719   -3.1387 H   0  0  0  0  0  0  0  0  0  0  0  0
   -2.2466    1.5400   -1.4507 N   0  0  0  0  0  0  0  0  0  0  0  0
   -0.8424    1.5707   -1.1286 C   0  0  2  0  0  0  0  0  0  0  0  0
   -0.0700    2.1019   -2.3343 C   0  0  0  0  0  0  0  0  0  0  0  0
    0.9769    1.5966   -2.7344 O   0  0  0  0  0  0  0  0  0  0  0  0
   -0.3300    0.2183   -0.6272 C   0  0  0  0  0  0  0  0  0  0  0  0
   -1.0587   -0.2999    0.9454 S   0  0  0  0  0  0  0  0  0  0  0  0
   -2.5850    0.7815   -2.0381 H   0  0  0  0  0  0  0  0  0  0  0  0
   -0.7415    2.3060   -0.3206 H   0  0  0  0  0  0  0  0  0  0  0  0
   -0.5395   -0.5677   -1.3601 H   0  0  0  0  0  0  0  0  0  0  0  0
    0.7557    0.2591   -0.4878 H   0  0  0  0  0  0  0  0  0  0  0  0
   -0.6736    3.2192   -2.8937 N   0  0  0  0  0  0  0  0  0  0  0  0
   -0.1190    3.9176   -4.0297 C   0  0  2  0  0  0  0  0  0  0  0  0
   -0.4688    5.3934   -3.8910 C   0  0  0  0  0  0  0  0  0  0  0  0
   -1.5202    5.7896   -3.3924 O   0  0  0  0  0  0  0  0  0  0  0  0
   -0.6496    3.3539   -5.3387 C   0  0  0  0  0  0  0  0  0  0  0  0
   -1.5624    3.5445   -2.5251 H   0  0  0  0  0  0  0  0  0  0  0  0
    0.9681    3.7929   -3.9778 H   0  0  0  0  0  0  0  0  0  0  0  0
   -1.7373    3.4699   -5.4088 H   0  0  0  0  0  0  0  0  0  0  0  0
   -0.2065    3.8655   -6.1995 H   0  0  0  0  0  0  0  0  0  0  0  0
   -0.4232    2.2856   -5.4232 H   0  0  0  0  0  0  0  0  0  0  0  0
    0.5121    6.2149   -4.4287 N   0  0  0  0  0  0  0  0  0  0  0  0
    0.3940    7.6541   -4.4576 C   0  0  0  0  0  0  0  0  0  0  0  0
    1.3692    5.8025   -4.7850 H   0  0  0  0  0  0  0  0  0  0  0  0
   -0.0554    7.9666   -5.4117 H   0  0  0  0  0  0  0  0  0  0  0  0
   -0.2443    7.9863   -3.6256 H   0  0  0  0  0  0  0  0  0  0  0  0
    1.3919    8.1059   -4.3570 H   0  0  0  0  0  0  0  0  0  0  0  0
  1  3  1  0  0  0  0
  1  7  1  0  0  0  0
  1  2  2  0  0  0  0
 23 25  1  0  0  0  0
 23 29  1  0  0  0  0
 23 24  2  0  0  0  0
 50 51  1  0  0  0  0
 51 59  1  0  0  0  0
 51 52  2  0  0  0  0
  8  9  1  0  0  0  0
  9 17  1  0  0  0  0
  9 10  2  0  0  0  0
 30 31  1  0  0  0  0
 31 39  1  0  0  0  0
 31 32  2  0  0  0  0
 40 41  1  0  0  0  0
 41 49  1  0  0  0  0
 41 42  2  0  0  0  0
 50 53  1  0  0  0  0
 30 33  1  0  0  0  0
 59 60  1  0  0  0  0
 17 18  1  0  0  0  0
  8 11  1  0  0  0  0
 11 12  1  0  0  0  0
 40 43  1  0  0  0  0
 43 44  1  0  0  0  0
 49 50  1  0  0  0  0
  7  8  1  0  0  0  0
 29 30  1  0  0  0  0
 39 40  1  0  0  0  0
 12 44  1  0  0  0  0
  3  4  1  0  0  0  0
  3  5  1  0  0  0  0
  3  6  1  0  0  0  0
 25 26  1  0  0  0  0
 25 27  1  0  0  0  0
 25 28  1  0  0  0  0
 53 56  1  0  0  0  0
 53 57  1  0  0  0  0
 53 58  1  0  0  0  0
 33 36  1  0  0  0  0
 33 37  1  0  0  0  0
 33 38  1  0  0  0  0
 60 62  1  0  0  0  0
 60 63  1  0  0  0  0
 60 64  1  0  0  0  0
 18 20  1  0  0  0  0
 18 21  1  0  0  0  0
 18 22  1  0  0  0  0
 11 15  1  0  0  0  0
 11 16  1  0  0  0  0
 43 47  1  0  0  0  0
 43 48  1  0  0  0  0
 50 55  1  0  0  0  0
  8 14  1  0  0  0  0
 30 35  1  0  0  0  0
 40 46  1  0  0  0  0
 59 61  1  0  0  0  0
 17 19  1  0  0  0  0
  7 13  1  0  0  0  0
 29 34  1  0  0  0  0
 49 54  1  0  0  0  0
 39 45  1  0  0  0  0
M  END
$$$$

  -OEChem-05262214473D

 64 63  0     1  0  0  0  0  0999 V2000
   -1.9063   -5.7732    2.4926 C   0  0  0  0  0  0  0  0  0  0  0  0
   -3.0278   -5.9205    2.0211 O   0  0  0  0  0  0  0  0  0  0  0  0
   -1.6302   -6.2229    3.8890 C   0  0  0  0  0  0  0  0  0  0  0  0
   -1.8183   -5.4303    4.6310 H   0  0  0  0  0  0  0  0  0  0  0  0
   -2.2715   -7.0654    4.1940 H   0  0  0  0  0  0  0  0  0  0  0  0
   -0.5988   -6.5600    4.0803 H   0  0  0  0  0  0  0  0  0  0  0  0
   -0.8148   -5.2141    1.8508 N   0  0  0  0  0  0  0  0  0  0  0  0
   -0.8611   -4.7169    0.4991 C   0  0  2  0  0  0  0  0  0  0  0  0
    0.4840   -4.9852   -0.1729 C   0  0  0  0  0  0  0  0  0  0  0  0
    1.4538   -5.4420    0.4288 O   0  0  0  0  0  0  0  0  0  0  0  0
   -1.2907   -3.2493    0.4326 C   0  0  0  0  0  0  0  0  0  0  0  0
   -0.1355   -2.1075    1.2598 S   0  0  0  0  0  0  0  0  0  0  0  0
    0.0645   -5.1510    2.3590 H   0  0  0  0  0  0  0  0  0  0  0  0
   -1.6149   -5.3272   -0.0137 H   0  0  0  0  0  0  0  0  0  0  0  0
   -1.3844   -2.9230   -0.6084 H   0  0  0  0  0  0  0  0  0  0  0  0
   -2.2702   -3.1254    0.9070 H   0  0  0  0  0  0  0  0  0  0  0  0
    0.4801   -4.6316   -1.5147 N   0  0  0  0  0  0  0  0  0  0  0  0
    1.6435   -4.7681   -2.3596 C   0  0  0  0  0  0  0  0  0  0  0  0
   -0.3800   -4.3012   -1.9422 H   0  0  0  0  0  0  0  0  0  0  0  0
    2.2090   -3.8246   -2.3611 H   0  0  0  0  0  0  0  0  0  0  0  0
    2.2820   -5.5776   -1.9762 H   0  0  0  0  0  0  0  0  0  0  0  0
    1.3256   -5.0065   -3.3854 H   0  0  0  0  0  0  0  0  0  0  0  0
   -6.7256    2.0330   -0.2766 C   0  0  0  0  0  0  0  0  0  0  0  0
   -7.1824    1.1039   -0.9322 O   0  0  0  0  0  0  0  0  0  0  0  0
   -7.5276    2.6077    0.8435 C   0  0  0  0  0  0  0  0  0  0  0  0
   -8.1775    3.4344    0.5145 H   0  0  0  0  0  0  0  0  0  0  0  0
   -8.2057    1.8676    1.2980 H   0  0  0  0  0  0  0  0  0  0  0  0
   -6.9411    3.0162    1.6819 H   0  0  0  0  0  0  0  0  0  0  0  0
   -5.4935    2.6382   -0.4627 N   0  0  0  0  0  0  0  0  0  0  0  0
   -4.5619    2.2388   -1.4845 C   0  0  2  0  0  0  0  0  0  0  0  0
   -3.1535    2.4674   -0.9521 C   0  0  0  0  0  0  0  0  0  0  0  0
   -2.8634    3.3945   -0.1987 O   0  0  0  0  0  0  0  0  0  0  0  0
   -4.7883    3.0138   -2.7732 C   0  0  0  0  0  0  0  0  0  0  0  0
   -5.2337    3.4049    0.1551 H   0  0  0  0  0  0  0  0  0  0  0  0
   -4.7192    1.1682   -1.6549 H   0  0  0  0  0  0  0  0  0  0  0  0
   -4.6352    4.0886   -2.6221 H   0  0  0  0  0  0  0  0  0  0  0  0
   -4.0976    2.6887   -3.5582 H   0  0  0  0  0  0  0  0  0  0  0  0
   -5.8111    2.8719   -3.1387 H   0  0  0  0  0  0  0  0  0  0  0  0
   -2.2466    1.5400   -1.4507 N   0  0  0  0  0  0  0  0  0  0  0  0
   -0.8424    1.5707   -1.1286 C   0  0  2  0  0  0  0  0  0  0  0  0
   -0.0700    2.1019   -2.3343 C   0  0  0  0  0  0  0  0  0  0  0  0
    0.8135    1.4602   -2.8992 O   0  0  0  0  0  0  0  0  0  0  0  0
   -0.3300    0.2183   -0.6272 C   0  0  0  0  0  0  0  0  0  0  0  0
   -1.0587   -0.2999    0.9454 S   0  0  0  0  0  0  0  0  0  0  0  0
   -2.5850    0.7815   -2.0381 H   0  0  0  0  0  0  0  0  0  0  0  0
   -0.7415    2.3060   -0.3206 H   0  0  0  0  0  0  0  0  0  0  0  0
   -0.5395   -0.5677   -1.3601 H   0  0  0  0  0  0  0  0  0  0  0  0
    0.7557    0.2591   -0.4878 H   0  0  0  0  0  0  0  0  0  0  0  0
   -0.4660    3.3839   -2.6881 N   0  0  0  0  0  0  0  0  0  0  0  0
    0.1345    4.1107   -3.7821 C   0  0  2  0  0  0  0  0  0  0  0  0
    0.1147    5.5922   -3.4296 C   0  0  0  0  0  0  0  0  0  0  0  0
   -0.7887    6.1152   -2.7803 O   0  0  0  0  0  0  0  0  0  0  0  0
   -0.6012    3.8528   -5.0879 C   0  0  0  0  0  0  0  0  0  0  0  0
   -1.2357    3.8240   -2.1926 H   0  0  0  0  0  0  0  0  0  0  0  0
    1.1718    3.7668   -3.8587 H   0  0  0  0  0  0  0  0  0  0  0  0
   -1.6423    4.1908   -5.0303 H   0  0  0  0  0  0  0  0  0  0  0  0
   -0.1275    4.3819   -5.9214 H   0  0  0  0  0  0  0  0  0  0  0  0
   -0.6116    2.7834   -5.3246 H   0  0  0  0  0  0  0  0  0  0  0  0
    1.2024    6.2701   -3.9622 N   0  0  0  0  0  0  0  0  0  0  0  0
    1.3877    7.6936   -3.8035 C   0  0  0  0  0  0  0  0  0  0  0  0
    1.9238    5.7499   -4.4529 H   0  0  0  0  0  0  0  0  0  0  0  0
    0.9426    8.2197   -4.6609 H   0  0  0  0  0  0  0  0  0  0  0  0
    0.8990    8.0257   -2.8757 H   0  0  0  0  0  0  0  0  0  0  0  0
    2.4630    7.9198   -3.7528 H   0  0  0  0  0  0  0  0  0  0  0  0
  1  3  1  0  0  0  0
  1  7  1  0  0  0  0
  1  2  2  0  0  0  0
 23 25  1  0  0  0  0
 23 29  1  0  0  0  0
 23 24  2  0  0  0  0
 50 51  1  0  0  0  0
 51 59  1  0  0  0  0
 51 52  2  0  0  0  0
  8  9  1  0  0  0  0
  9 17  1  0  0  0  0
  9 10  2  0  0  0  0
 30 31  1  0  0  0  0
 31 39  1  0  0  0  0
 31 32  2  0  0  0  0
 40 41  1  0  0  0  0
 41 49  1  0  0  0  0
 41 42  2  0  0  0  0
 50 53  1  0  0  0  0
 30 33  1  0  0  0  0
 59 60  1  0  0  0  0
 17 18  1  0  0  0  0
  8 11  1  0  0  0  0
 11 12  1  0  0  0  0
 40 43  1  0  0  0  0
 43 44  1  0  0  0  0
 49 50  1  0  0  0  0
  7  8  1  0  0  0  0
 29 30  1  0  0  0  0
 39 40  1  0  0  0  0
 12 44  1  0  0  0  0
  3  4  1  0  0  0  0
  3  5  1  0  0  0  0
  3  6  1  0  0  0  0
 25 26  1  0  0  0  0
 25 27  1  0  0  0  0
 25 28  1  0  0  0  0
 53 56  1  0  0  0  0
 53 57  1  0  0  0  0
 53 58  1  0  0  0  0
 33 36  1  0  0  0  0
 33 37  1  0  0  0  0
 33 38  1  0  0  0  0
 60 62  1  0  0  0  0
 60 63  1  0  0  0  0
 60 64  1  0  0  0  0
 18 20  1  0  0  0  0
 18 21  1  0  0  0  0
 18 22  1  0  0  0  0
 11 15  1  0  0  0  0
 11 16  1  0  0  0  0
 43 47  1  0  0  0  0
 43 48  1  0  0  0  0
 50 55  1  0  0  0  0
  8 14  1  0  0  0  0
 30 35  1  0  0  0  0
 40 46  1  0  0  0  0
 59 61  1  0  0  0  0
 17 19  1  0  0  0  0
  7 13  1  0  0  0  0
 29 34  1  0  0  0  0
 49 54  1  0  0  0  0
 39 45  1  0  0  0  0
M  END
$$$$

  -OEChem-05262214473D

 64 63  0     1  0  0  0  0  0999 V2000
   -1.9063   -5.7732    2.4926 C   0  0  0  0  0  0  0  0  0  0  0  0
   -3.0278   -5.9205    2.0211 O   0  0  0  0  0  0  0  0  0  0  0  0
   -1.6302   -6.2229    3.8890 C   0  0  0  0  0  0  0  0  0  0  0  0
   -1.8183   -5.4303    4.6310 H   0  0  0  0  0  0  0  0  0  0  0  0
   -2.2715   -7.0654    4.1940 H   0  0  0  0  0  0  0  0  0  0  0  0
   -0.5988   -6.5600    4.0803 H   0  0  0  0  0  0  0  0  0  0  0  0
   -0.8148   -5.2141    1.8508 N   0  0  0  0  0  0  0  0  0  0  0  0
   -0.8611   -4.7169    0.4991 C   0  0  2  0  0  0  0  0  0  0  0  0
    0.4840   -4.9852   -0.1729 C   0  0  0  0  0  0  0  0  0  0  0  0
    1.4538   -5.4420    0.4288 O   0  0  0  0  0  0  0  0  0  0  0  0
   -1.2907   -3.2493    0.4326 C   0  0  0  0  0  0  0  0  0  0  0  0
   -0.1355   -2.1075    1.2598 S   0  0  0  0  0  0  0  0  0  0  0  0
    0.0645   -5.1510    2.3590 H   0  0  0  0  0  0  0  0  0  0  0  0
   -1.6149   -5.3272   -0.0137 H   0  0  0  0  0  0  0  0  0  0  0  0
   -1.3844   -2.9230   -0.6084 H   0  0  0  0  0  0  0  0  0  0  0  0
   -2.2702   -3.1254    0.9070 H   0  0  0  0  0  0  0  0  0  0  0  0
    0.4801   -4.6316   -1.5147 N   0  0  0  0  0  0  0  0  0  0  0  0
    1.6435   -4.7681   -2.3596 C   0  0  0  0  0  0  0  0  0  0  0  0
   -0.3800   -4.3012   -1.9422 H   0  0  0  0  0  0  0  0  0  0  0  0
    2.2090   -3.8246   -2.3611 H   0  0  0  0  0  0  0  0  0  0  0  0
    2.2820   -5.5776   -1.9762 H   0  0  0  0  0  0  0  0  0  0  0  0
    1.3256   -5.0065   -3.3854 H   0  0  0  0  0  0  0  0  0  0  0  0
   -6.7256    2.0330   -0.2766 C   0  0  0  0  0  0  0  0  0  0  0  0
   -7.1824    1.1039   -0.9322 O   0  0  0  0  0  0  0  0  0  0  0  0
   -7.5276    2.6077    0.8435 C   0  0  0  0  0  0  0  0  0  0  0  0
   -8.1775    3.4344    0.5145 H   0  0  0  0  0  0  0  0  0  0  0  0
   -8.2057    1.8676    1.2980 H   0  0  0  0  0  0  0  0  0  0  0  0
   -6.9411    3.0162    1.6819 H   0  0  0  0  0  0  0  0  0  0  0  0
   -5.4935    2.6382   -0.4627 N   0  0  0  0  0  0  0  0  0  0  0  0
   -4.5619    2.2388   -1.4845 C   0  0  2  0  0  0  0  0  0  0  0  0
   -3.1535    2.4674   -0.9521 C   0  0  0  0  0  0  0  0  0  0  0  0
   -2.8634    3.3945   -0.1987 O   0  0  0  0  0  0  0  0  0  0  0  0
   -4.7883    3.0138   -2.7732 C   0  0  0  0  0  0  0  0  0  0  0  0
   -5.2337    3.4049    0.1551 H   0  0  0  0  0  0  0  0  0  0  0  0
   -4.7192    1.1682   -1.6549 H   0  0  0  0  0  0  0  0  0  0  0  0
   -4.6352    4.0886   -2.6221 H   0  0  0  0  0  0  0  0  0  0  0  0
   -4.0976    2.6887   -3.5582 H   0  0  0  0  0  0  0  0  0  0  0  0
   -5.8111    2.8719   -3.1387 H   0  0  0  0  0  0  0  0  0  0  0  0
   -2.2466    1.5400   -1.4507 N   0  0  0  0  0  0  0  0  0  0  0  0
   -0.8424    1.5707   -1.1286 C   0  0  2  0  0  0  0  0  0  0  0  0
   -0.0700    2.1019   -2.3343 C   0  0  0  0  0  0  0  0  0  0  0  0
    0.6130    1.3835   -3.0615 O   0  0  0  0  0  0  0  0  0  0  0  0
   -0.3300    0.2183   -0.6272 C   0  0  0  0  0  0  0  0  0  0  0  0
   -1.0587   -0.2999    0.9454 S   0  0  0  0  0  0  0  0  0  0  0  0
   -2.5850    0.7815   -2.0381 H   0  0  0  0  0  0  0  0  0  0  0  0
   -0.7415    2.3060   -0.3206 H   0  0  0  0  0  0  0  0  0  0  0  0
   -0.5395   -0.5677   -1.3601 H   0  0  0  0  0  0  0  0  0  0  0  0
    0.7557    0.2591   -0.4878 H   0  0  0  0  0  0  0  0  0  0  0  0
   -0.2134    3.4737   -2.4867 N   0  0  0  0  0  0  0  0  0  0  0  0
    0.4412    4.2131   -3.5406 C   0  0  2  0  0  0  0  0  0  0  0  0
    0.7604    5.6047   -3.0105 C   0  0  0  0  0  0  0  0  0  0  0  0
    0.0396    6.2001   -2.2123 O   0  0  0  0  0  0  0  0  0  0  0  0
   -0.4299    4.2919   -4.7846 C   0  0  0  0  0  0  0  0  0  0  0  0
   -0.8332    3.9838   -1.8643 H   0  0  0  0  0  0  0  0  0  0  0  0
    1.3740    3.6845   -3.7654 H   0  0  0  0  0  0  0  0  0  0  0  0
   -1.3690    4.8182   -4.5788 H   0  0  0  0  0  0  0  0  0  0  0  0
    0.0794    4.8281   -5.5922 H   0  0  0  0  0  0  0  0  0  0  0  0
   -0.6830    3.2898   -5.1473 H   0  0  0  0  0  0  0  0  0  0  0  0
    1.9224    6.1212   -3.5665 N   0  0  0  0  0  0  0  0  0  0  0  0
    2.4145    7.4431   -3.2561 C   0  0  0  0  0  0  0  0  0  0  0  0
    2.4786    5.5424   -4.1889 H   0  0  0  0  0  0  0  0  0  0  0  0
    2.0258    8.1619   -3.9923 H   0  0  0  0  0  0  0  0  0  0  0  0
    2.0790    7.7320   -2.2491 H   0  0  0  0  0  0  0  0  0  0  0  0
    3.5140    7.4421   -3.2899 H   0  0  0  0  0  0  0  0  0  0  0  0
  1  3  1  0  0  0  0
  1  7  1  0  0  0  0
  1  2  2  0  0  0  0
 23 25  1  0  0  0  0
 23 29  1  0  0  0  0
 23 24  2  0  0  0  0
 50 51  1  0  0  0  0
 51 59  1  0  0  0  0
 51 52  2  0  0  0  0
  8  9  1  0  0  0  0
  9 17  1  0  0  0  0
  9 10  2  0  0  0  0
 30 31  1  0  0  0  0
 31 39  1  0  0  0  0
 31 32  2  0  0  0  0
 40 41  1  0  0  0  0
 41 49  1  0  0  0  0
 41 42  2  0  0  0  0
 50 53  1  0  0  0  0
 30 33  1  0  0  0  0
 59 60  1  0  0  0  0
 17 18  1  0  0  0  0
  8 11  1  0  0  0  0
 11 12  1  0  0  0  0
 40 43  1  0  0  0  0
 43 44  1  0  0  0  0
 49 50  1  0  0  0  0
  7  8  1  0  0  0  0
 29 30  1  0  0  0  0
 39 40  1  0  0  0  0
 12 44  1  0  0  0  0
  3  4  1  0  0  0  0
  3  5  1  0  0  0  0
  3  6  1  0  0  0  0
 25 26  1  0  0  0  0
 25 27  1  0  0  0  0
 25 28  1  0  0  0  0
 53 56  1  0  0  0  0
 53 57  1  0  0  0  0
 53 58  1  0  0  0  0
 33 36  1  0  0  0  0
 33 37  1  0  0  0  0
 33 38  1  0  0  0  0
 60 62  1  0  0  0  0
 60 63  1  0  0  0  0
 60 64  1  0  0  0  0
 18 20  1  0  0  0  0
 18 21  1  0  0  0  0
 18 22  1  0  0  0  0
 11 15  1  0  0  0  0
 11 16  1  0  0  0  0
 43 47  1  0  0  0  0
 43 48  1  0  0  0  0
 50 55  1  0  0  0  0
  8 14  1  0  0  0  0
 30 35  1  0  0  0  0
 40 46  1  0  0  0  0
 59 61  1  0  0  0  0
 17 19  1  0  0  0  0
  7 13  1  0  0  0  0
 29 34  1  0  0  0  0
 49 54  1  0  0  0  0
 39 45  1  0  0  0  0
M  END
$$$$

  -OEChem-05262214473D

 64 63  0     1  0  0  0  0  0999 V2000
   -1.9063   -5.7732    2.4926 C   0  0  0  0  0  0  0  0  0  0  0  0
   -3.0278   -5.9205    2.0211 O   0  0  0  0  0  0  0  0  0  0  0  0
   -1.6302   -6.2229    3.8890 C   0  0  0  0  0  0  0  0  0  0  0  0
   -1.8183   -5.4303    4.6310 H   0  0  0  0  0  0  0  0  0  0  0  0
   -2.2715   -7.0654    4.1940 H   0  0  0  0  0  0  0  0  0  0  0  0
   -0.5988   -6.5600    4.0803 H   0  0  0  0  0  0  0  0  0  0  0  0
   -0.8148   -5.2141    1.8508 N   0  0  0  0  0  0  0  0  0  0  0  0
   -0.8611   -4.7169    0.4991 C   0  0  2  0  0  0  0  0  0  0  0  0
    0.4840   -4.9852   -0.1729 C   0  0  0  0  0  0  0  0  0  0  0  0
    1.4538   -5.4420    0.4288 O   0  0  0  0  0  0  0  0  0  0  0  0
   -1.2907   -3.2493    0.4326 C   0  0  0  0  0  0  0  0  0  0  0  0
   -0.1355   -2.1075    1.2598 S   0  0  0  0  0  0  0  0  0  0  0  0
    0.0645   -5.1510    2.3590 H   0  0  0  0  0  0  0  0  0  0  0  0
   -1.6149   -5.3272   -0.0137 H   0  0  0  0  0  0  0  0  0  0  0  0
   -1.3844   -2.9230   -0.6084 H   0  0  0  0  0  0  0  0  0  0  0  0
   -2.2702   -3.1254    0.9070 H   0  0  0  0  0  0  0  0  0  0  0  0
    0.4801   -4.6316   -1.5147 N   0  0  0  0  0  0  0  0  0  0  0  0
    1.6435   -4.7681   -2.3596 C   0  0  0  0  0  0  0  0  0  0  0  0
   -0.3800   -4.3012   -1.9422 H   0  0  0  0  0  0  0  0  0  0  0  0
    2.2090   -3.8246   -2.3611 H   0  0  0  0  0  0  0  0  0  0  0  0
    2.2820   -5.5776   -1.9762 H   0  0  0  0  0  0  0  0  0  0  0  0
    1.3256   -5.0065   -3.3854 H   0  0  0  0  0  0  0  0  0  0  0  0
   -6.7256    2.0330   -0.2766 C   0  0  0  0  0  0  0  0  0  0  0  0
   -7.1824    1.1039   -0.9322 O   0  0  0  0  0  0  0  0  0  0  0  0
   -7.5276    2.6077    0.8435 C   0  0  0  0  0  0  0  0  0  0  0  0
   -8.1775    3.4344    0.5145 H   0  0  0  0  0  0  0  0  0  0  0  0
   -8.2057    1.8676    1.2980 H   0  0  0  0  0  0  0  0  0  0  0  0
   -6.9411    3.0162    1.6819 H   0  0  0  0  0  0  0  0  0  0  0  0
   -5.4935    2.6382   -0.4627 N   0  0  0  0  0  0  0  0  0  0  0  0
   -4.5619    2.2388   -1.4845 C   0  0  2  0  0  0  0  0  0  0  0  0
   -3.1535    2.4674   -0.9521 C   0  0  0  0  0  0  0  0  0  0  0  0
   -2.8634    3.3945   -0.1987 O   0  0  0  0  0  0  0  0  0  0  0  0
   -4.7883    3.0138   -2.7732 C   0  0  0  0  0  0  0  0  0  0  0  0
   -5.2337    3.4049    0.1551 H   0  0  0  0  0  0  0  0  0  0  0  0
   -4.7192    1.1682   -1.6549 H   0  0  0  0  0  0  0  0  0  0  0  0
   -4.6352    4.0886   -2.6221 H   0  0  0  0  0  0  0  0  0  0  0  0
   -4.0976    2.6887   -3.5582 H   0  0  0  0  0  0  0  0  0  0  0  0
   -5.8111    2.8719   -3.1387 H   0  0  0  0  0  0  0  0  0  0  0  0
   -2.2466    1.5400   -1.4507 N   0  0  0  0  0  0  0  0  0  0  0  0
   -0.8424    1.5707   -1.1286 C   0  0  2  0  0  0  0  0  0  0  0  0
   -0.0700    2.1019   -2.3343 C   0  0  0  0  0  0  0  0  0  0  0  0
    0.3890    1.3715   -3.2102 O   0  0  0  0  0  0  0  0  0  0  0  0
   -0.3300    0.2183   -0.6272 C   0  0  0  0  0  0  0  0  0  0  0  0
   -1.0587   -0.2999    0.9454 S   0  0  0  0  0  0  0  0  0  0  0  0
   -2.5850    0.7815   -2.0381 H   0  0  0  0  0  0  0  0  0  0  0  0
   -0.7415    2.3060   -0.3206 H   0  0  0  0  0  0  0  0  0  0  0  0
   -0.5395   -0.5677   -1.3601 H   0  0  0  0  0  0  0  0  0  0  0  0
    0.7557    0.2591   -0.4878 H   0  0  0  0  0  0  0  0  0  0  0  0
    0.0671    3.4824   -2.3032 N   0  0  0  0  0  0  0  0  0  0  0  0
    0.7801    4.2177   -3.3214 C   0  0  2  0  0  0  0  0  0  0  0  0
    1.4243    5.4300   -2.6621 C   0  0  0  0  0  0  0  0  0  0  0  0
    0.9080    6.0385   -1.7271 O   0  0  0  0  0  0  0  0  0  0  0  0
   -0.1474    4.6414   -4.4497 C   0  0  0  0  0  0  0  0  0  0  0  0
   -0.3821    4.0129   -1.5625 H   0  0  0  0  0  0  0  0  0  0  0  0
    1.5609    3.5515   -3.7043 H   0  0  0  0  0  0  0  0  0  0  0  0
   -0.9363    5.3093   -4.0852 H   0  0  0  0  0  0  0  0  0  0  0  0
    0.4000    5.1738   -5.2345 H   0  0  0  0  0  0  0  0  0  0  0  0
   -0.6326    3.7703   -4.9032 H   0  0  0  0  0  0  0  0  0  0  0  0
    2.6230    5.7785   -3.2686 N   0  0  0  0  0  0  0  0  0  0  0  0
    3.4045    6.9196   -2.8525 C   0  0  0  0  0  0  0  0  0  0  0  0
    2.9958    5.1940   -4.0110 H   0  0  0  0  0  0  0  0  0  0  0  0
    3.1205    7.7973   -3.4516 H   0  0  0  0  0  0  0  0  0  0  0  0
    3.2151    7.1252   -1.7886 H   0  0  0  0  0  0  0  0  0  0  0  0
    4.4733    6.7054   -2.9999 H   0  0  0  0  0  0  0  0  0  0  0  0
  1  3  1  0  0  0  0
  1  7  1  0  0  0  0
  1  2  2  0  0  0  0
 23 25  1  0  0  0  0
 23 29  1  0  0  0  0
 23 24  2  0  0  0  0
 50 51  1  0  0  0  0
 51 59  1  0  0  0  0
 51 52  2  0  0  0  0
  8  9  1  0  0  0  0
  9 17  1  0  0  0  0
  9 10  2  0  0  0  0
 30 31  1  0  0  0  0
 31 39  1  0  0  0  0
 31 32  2  0  0  0  0
 40 41  1  0  0  0  0
 41 49  1  0  0  0  0
 41 42  2  0  0  0  0
 50 53  1  0  0  0  0
 30 33  1  0  0  0  0
 59 60  1  0  0  0  0
 17 18  1  0  0  0  0
  8 11  1  0  0  0  0
 11 12  1  0  0  0  0
 40 43  1  0  0  0  0
 43 44  1  0  0  0  0
 49 50  1  0  0  0  0
  7  8  1  0  0  0  0
 29 30  1  0  0  0  0
 39 40  1  0  0  0  0
 12 44  1  0  0  0  0
  3  4  1  0  0  0  0
  3  5  1  0  0  0  0
  3  6  1  0  0  0  0
 25 26  1  0  0  0  0
 25 27  1  0  0  0  0
 25 28  1  0  0  0  0
 53 56  1  0  0  0  0
 53 57  1  0  0  0  0
 53 58  1  0  0  0  0
 33 36  1  0  0  0  0
 33 37  1  0  0  0  0
 33 38  1  0  0  0  0
 60 62  1  0  0  0  0
 60 63  1  0  0  0  0
 60 64  1  0  0  0  0
 18 20  1  0  0  0  0
 18 21  1  0  0  0  0
 18 22  1  0  0  0  0
 11 15  1  0  0  0  0
 11 16  1  0  0  0  0
 43 47  1  0  0  0  0
 43 48  1  0  0  0  0
 50 55  1  0  0  0  0
  8 14  1  0  0  0  0
 30 35  1  0  0  0  0
 40 46  1  0  0  0  0
 59 61  1  0  0  0  0
 17 19  1  0  0  0  0
  7 13  1  0  0  0  0
 29 34  1  0  0  0  0
 49 54  1  0  0  0  0
 39 45  1  0  0  0  0
M  END
$$$$

  -OEChem-05262214473D

 64 63  0     1  0  0  0  0  0999 V2000
   -1.9063   -5.7732    2.4926 C   0  0  0  0  0  0  0  0  0  0  0  0
   -3.0278   -5.9205    2.0211 O   0  0  0  0  0  0  0  0  0  0  0  0
   -1.6302   -6.2229    3.8890 C   0  0  0  0  0  0  0  0  0  0  0  0
   -1.8183   -5.4303    4.6310 H   0  0  0  0  0  0  0  0  0  0  0  0
   -2.2715   -7.0654    4.1940 H   0  0  0  0  0  0  0  0  0  0  0  0
   -0.5988   -6.5600    4.0803 H   0  0  0  0  0  0  0  0  0  0  0  0
   -0.8148   -5.2141    1.8508 N   0  0  0  0  0  0  0  0  0  0  0  0
   -0.8611   -4.7169    0.4991 C   0  0  2  0  0  0  0  0  0  0  0  0
    0.4840   -4.9852   -0.1729 C   0  0  0  0  0  0  0  0  0  0  0  0
    1.4538   -5.4420    0.4288 O   0  0  0  0  0  0  0  0  0  0  0  0
   -1.2907   -3.2493    0.4326 C   0  0  0  0  0  0  0  0  0  0  0  0
   -0.1355   -2.1075    1.2598 S   0  0  0  0  0  0  0  0  0  0  0  0
    0.0645   -5.1510    2.3590 H   0  0  0  0  0  0  0  0  0  0  0  0
   -1.6149   -5.3272   -0.0137 H   0  0  0  0  0  0  0  0  0  0  0  0
   -1.3844   -2.9230   -0.6084 H   0  0  0  0  0  0  0  0  0  0  0  0
   -2.2702   -3.1254    0.9070 H   0  0  0  0  0  0  0  0  0  0  0  0
    0.4801   -4.6316   -1.5147 N   0  0  0  0  0  0  0  0  0  0  0  0
    1.6435   -4.7681   -2.3596 C   0  0  0  0  0  0  0  0  0  0  0  0
   -0.3800   -4.3012   -1.9422 H   0  0  0  0  0  0  0  0  0  0  0  0
    2.2090   -3.8246   -2.3611 H   0  0  0  0  0  0  0  0  0  0  0  0
    2.2820   -5.5776   -1.9762 H   0  0  0  0  0  0  0  0  0  0  0  0
    1.3256   -5.0065   -3.3854 H   0  0  0  0  0  0  0  0  0  0  0  0
   -6.7256    2.0330   -0.2766 C   0  0  0  0  0  0  0  0  0  0  0  0
   -7.1824    1.1039   -0.9322 O   0  0  0  0  0  0  0  0  0  0  0  0
   -7.5276    2.6077    0.8435 C   0  0  0  0  0  0  0  0  0  0  0  0
   -8.1775    3.4344    0.5145 H   0  0  0  0  0  0  0  0  0  0  0  0
   -8.2057    1.8676    1.2980 H   0  0  0  0  0  0  0  0  0  0  0  0
   -6.9411    3.0162    1.6819 H   0  0  0  0  0  0  0  0  0  0  0  0
   -5.4935    2.6382   -0.4627 N   0  0  0  0  0  0  0  0  0  0  0  0
   -4.5619    2.2388   -1.4845 C   0  0  2  0  0  0  0  0  0  0  0  0
   -3.1535    2.4674   -0.9521 C   0  0  0  0  0  0  0  0  0  0  0  0
   -2.8634    3.3945   -0.1987 O   0  0  0  0  0  0  0  0  0  0  0  0
   -4.7883    3.0138   -2.7732 C   0  0  0  0  0  0  0  0  0  0  0  0
   -5.2337    3.4049    0.1551 H   0  0  0  0  0  0  0  0  0  0  0  0
   -4.7192    1.1682   -1.6549 H   0  0  0  0  0  0  0  0  0  0  0  0
   -4.6352    4.0886   -2.6221 H   0  0  0  0  0  0  0  0  0  0  0  0
   -4.0976    2.6887   -3.5582 H   0  0  0  0  0  0  0  0  0  0  0  0
   -5.8111    2.8719   -3.1387 H   0  0  0  0  0  0  0  0  0  0  0  0
   -2.2466    1.5400   -1.4507 N   0  0  0  0  0  0  0  0  0  0  0  0
   -0.8424    1.5707   -1.1286 C   0  0  2  0  0  0  0  0  0  0  0  0
   -0.0700    2.1019   -2.3343 C   0  0  0  0  0  0  0  0  0  0  0  0
    0.1568    1.4252   -3.3353 O   0  0  0  0  0  0  0  0  0  0  0  0
   -0.3300    0.2183   -0.6272 C   0  0  0  0  0  0  0  0  0  0  0  0
   -1.0587   -0.2999    0.9454 S   0  0  0  0  0  0  0  0  0  0  0  0
   -2.5850    0.7815   -2.0381 H   0  0  0  0  0  0  0  0  0  0  0  0
   -0.7415    2.3060   -0.3206 H   0  0  0  0  0  0  0  0  0  0  0  0
   -0.5395   -0.5677   -1.3601 H   0  0  0  0  0  0  0  0  0  0  0  0
    0.7557    0.2591   -0.4878 H   0  0  0  0  0  0  0  0  0  0  0  0
    0.3564    3.4095   -2.1500 N   0  0  0  0  0  0  0  0  0  0  0  0
    1.1281    4.1241   -3.1397 C   0  0  2  0  0  0  0  0  0  0  0  0
    2.0614    5.0799   -2.4082 C   0  0  0  0  0  0  0  0  0  0  0  0
    1.7576    5.6415   -1.3578 O   0  0  0  0  0  0  0  0  0  0  0  0
    0.2270    4.8773   -4.1059 C   0  0  0  0  0  0  0  0  0  0  0  0
    0.0867    3.9093   -1.3078 H   0  0  0  0  0  0  0  0  0  0  0  0
    1.7197    3.3768   -3.6795 H   0  0  0  0  0  0  0  0  0  0  0  0
   -0.3736    5.6307   -3.5831 H   0  0  0  0  0  0  0  0  0  0  0  0
    0.8125    5.3953   -4.8726 H   0  0  0  0  0  0  0  0  0  0  0  0
   -0.4637    4.1923   -4.6092 H   0  0  0  0  0  0  0  0  0  0  0  0
    3.2566    5.2653   -3.0888 N   0  0  0  0  0  0  0  0  0  0  0  0
    4.2900    6.1589   -2.6203 C   0  0  0  0  0  0  0  0  0  0  0  0
    3.4403    4.7285   -3.9313 H   0  0  0  0  0  0  0  0  0  0  0  0
    4.1521    7.1507   -3.0756 H   0  0  0  0  0  0  0  0  0  0  0  0
    4.2300    6.2467   -1.5254 H   0  0  0  0  0  0  0  0  0  0  0  0
    5.2754    5.7598   -2.9026 H   0  0  0  0  0  0  0  0  0  0  0  0
  1  3  1  0  0  0  0
  1  7  1  0  0  0  0
  1  2  2  0  0  0  0
 23 25  1  0  0  0  0
 23 29  1  0  0  0  0
 23 24  2  0  0  0  0
 50 51  1  0  0  0  0
 51 59  1  0  0  0  0
 51 52  2  0  0  0  0
  8  9  1  0  0  0  0
  9 17  1  0  0  0  0
  9 10  2  0  0  0  0
 30 31  1  0  0  0  0
 31 39  1  0  0  0  0
 31 32  2  0  0  0  0
 40 41  1  0  0  0  0
 41 49  1  0  0  0  0
 41 42  2  0  0  0  0
 50 53  1  0  0  0  0
 30 33  1  0  0  0  0
 59 60  1  0  0  0  0
 17 18  1  0  0  0  0
  8 11  1  0  0  0  0
 11 12  1  0  0  0  0
 40 43  1  0  0  0  0
 43 44  1  0  0  0  0
 49 50  1  0  0  0  0
  7  8  1  0  0  0  0
 29 30  1  0  0  0  0
 39 40  1  0  0  0  0
 12 44  1  0  0  0  0
  3  4  1  0  0  0  0
  3  5  1  0  0  0  0
  3  6  1  0  0  0  0
 25 26  1  0  0  0  0
 25 27  1  0  0  0  0
 25 28  1  0  0  0  0
 53 56  1  0  0  0  0
 53 57  1  0  0  0  0
 53 58  1  0  0  0  0
 33 36  1  0  0  0  0
 33 37  1  0  0  0  0
 33 38  1  0  0  0  0
 60 62  1  0  0  0  0
 60 63  1  0  0  0  0
 60 64  1  0  0  0  0
 18 20  1  0  0  0  0
 18 21  1  0  0  0  0
 18 22  1  0  0  0  0
 11 15  1  0  0  0  0
 11 16  1  0  0  0  0
 43 47  1  0  0  0  0
 43 48  1  0  0  0  0
 50 55  1  0  0  0  0
  8 14  1  0  0  0  0
 30 35  1  0  0  0  0
 40 46  1  0  0  0  0
 59 61  1  0  0  0  0
 17 19  1  0  0  0  0
  7 13  1  0  0  0  0
 29 34  1  0  0  0  0
 49 54  1  0  0  0  0
 39 45  1  0  0  0  0
M  END
$$$$

  -OEChem-05262214473D

 64 63  0     1  0  0  0  0  0999 V2000
   -1.9063   -5.7732    2.4926 C   0  0  0  0  0  0  0  0  0  0  0  0
   -3.0278   -5.9205    2.0211 O   0  0  0  0  0  0  0  0  0  0  0  0
   -1.6302   -6.2229    3.8890 C   0  0  0  0  0  0  0  0  0  0  0  0
   -1.8183   -5.4303    4.6310 H   0  0  0  0  0  0  0  0  0  0  0  0
   -2.2715   -7.0654    4.1940 H   0  0  0  0  0  0  0  0  0  0  0  0
   -0.5988   -6.5600    4.0803 H   0  0  0  0  0  0  0  0  0  0  0  0
   -0.8148   -5.2141    1.8508 N   0  0  0  0  0  0  0  0  0  0  0  0
   -0.8611   -4.7169    0.4991 C   0  0  2  0  0  0  0  0  0  0  0  0
    0.4840   -4.9852   -0.1729 C   0  0  0  0  0  0  0  0  0  0  0  0
    1.4538   -5.4420    0.4288 O   0  0  0  0  0  0  0  0  0  0  0  0
   -1.2907   -3.2493    0.4326 C   0  0  0  0  0  0  0  0  0  0  0  0
   -0.1355   -2.1075    1.2598 S   0  0  0  0  0  0  0  0  0  0  0  0
    0.0645   -5.1510    2.3590 H   0  0  0  0  0  0  0  0  0  0  0  0
   -1.6149   -5.3272   -0.0137 H   0  0  0  0  0  0  0  0  0  0  0  0
   -1.3844   -2.9230   -0.6084 H   0  0  0  0  0  0  0  0  0  0  0  0
   -2.2702   -3.1254    0.9070 H   0  0  0  0  0  0  0  0  0  0  0  0
    0.4801   -4.6316   -1.5147 N   0  0  0  0  0  0  0  0  0  0  0  0
    1.6435   -4.7681   -2.3596 C   0  0  0  0  0  0  0  0  0  0  0  0
   -0.3800   -4.3012   -1.9422 H   0  0  0  0  0  0  0  0  0  0  0  0
    2.2090   -3.8246   -2.3611 H   0  0  0  0  0  0  0  0  0  0  0  0
    2.2820   -5.5776   -1.9762 H   0  0  0  0  0  0  0  0  0  0  0  0
    1.3256   -5.0065   -3.3854 H   0  0  0  0  0  0  0  0  0  0  0  0
   -6.7256    2.0330   -0.2766 C   0  0  0  0  0  0  0  0  0  0  0  0
   -7.1824    1.1039   -0.9322 O   0  0  0  0  0  0  0  0  0  0  0  0
   -7.5276    2.6077    0.8435 C   0  0  0  0  0  0  0  0  0  0  0  0
   -8.1775    3.4344    0.5145 H   0  0  0  0  0  0  0  0  0  0  0  0
   -8.2057    1.8676    1.2980 H   0  0  0  0  0  0  0  0  0  0  0  0
   -6.9411    3.0162    1.6819 H   0  0  0  0  0  0  0  0  0  0  0  0
   -5.4935    2.6382   -0.4627 N   0  0  0  0  0  0  0  0  0  0  0  0
   -4.5619    2.2388   -1.4845 C   0  0  2  0  0  0  0  0  0  0  0  0
   -3.1535    2.4674   -0.9521 C   0  0  0  0  0  0  0  0  0  0  0  0
   -2.8634    3.3945   -0.1987 O   0  0  0  0  0  0  0  0  0  0  0  0
   -4.7883    3.0138   -2.7732 C   0  0  0  0  0  0  0  0  0  0  0  0
   -5.2337    3.4049    0.1551 H   0  0  0  0  0  0  0  0  0  0  0  0
   -4.7192    1.1682   -1.6549 H   0  0  0  0  0  0  0  0  0  0  0  0
   -4.6352    4.0886   -2.6221 H   0  0  0  0  0  0  0  0  0  0  0  0
   -4.0976    2.6887   -3.5582 H   0  0  0  0  0  0  0  0  0  0  0  0
   -5.8111    2.8719   -3.1387 H   0  0  0  0  0  0  0  0  0  0  0  0
   -2.2466    1.5400   -1.4507 N   0  0  0  0  0  0  0  0  0  0  0  0
   -0.8424    1.5707   -1.1286 C   0  0  2  0  0  0  0  0  0  0  0  0
   -0.0700    2.1019   -2.3343 C   0  0  0  0  0  0  0  0  0  0  0  0
   -0.0677    1.5409   -3.4282 O   0  0  0  0  0  0  0  0  0  0  0  0
   -0.3300    0.2183   -0.6272 C   0  0  0  0  0  0  0  0  0  0  0  0
   -1.0587   -0.2999    0.9454 S   0  0  0  0  0  0  0  0  0  0  0  0
   -2.5850    0.7815   -2.0381 H   0  0  0  0  0  0  0  0  0  0  0  0
   -0.7415    2.3060   -0.3206 H   0  0  0  0  0  0  0  0  0  0  0  0
   -0.5395   -0.5677   -1.3601 H   0  0  0  0  0  0  0  0  0  0  0  0
    0.7557    0.2591   -0.4878 H   0  0  0  0  0  0  0  0  0  0  0  0
    0.6347    3.2599   -2.0376 N   0  0  0  0  0  0  0  0  0  0  0  0
    1.4615    3.9389   -3.0077 C   0  0  2  0  0  0  0  0  0  0  0  0
    2.6280    4.5783   -2.2661 C   0  0  0  0  0  0  0  0  0  0  0  0
    2.5303    5.0360   -1.1294 O   0  0  0  0  0  0  0  0  0  0  0  0
    0.6679    4.9838   -3.7766 C   0  0  0  0  0  0  0  0  0  0  0  0
    0.5413    3.6801   -1.1176 H   0  0  0  0  0  0  0  0  0  0  0  0
    1.8397    3.1723   -3.6928 H   0  0  0  0  0  0  0  0  0  0  0  0
    0.2809    5.7603   -3.1067 H   0  0  0  0  0  0  0  0  0  0  0  0
    1.2889    5.4777   -4.5312 H   0  0  0  0  0  0  0  0  0  0  0  0
   -0.1879    4.5268   -4.2851 H   0  0  0  0  0  0  0  0  0  0  0  0
    3.7799    4.6166   -3.0393 N   0  0  0  0  0  0  0  0  0  0  0  0
    5.0109    5.2128   -2.5753 C   0  0  0  0  0  0  0  0  0  0  0  0
    3.7817    4.1777   -3.9553 H   0  0  0  0  0  0  0  0  0  0  0  0
    5.0502    6.2661   -2.8899 H   0  0  0  0  0  0  0  0  0  0  0  0
    5.0545    5.1563   -1.4776 H   0  0  0  0  0  0  0  0  0  0  0  0
    5.8657    4.6698   -3.0046 H   0  0  0  0  0  0  0  0  0  0  0  0
  1  3  1  0  0  0  0
  1  7  1  0  0  0  0
  1  2  2  0  0  0  0
 23 25  1  0  0  0  0
 23 29  1  0  0  0  0
 23 24  2  0  0  0  0
 50 51  1  0  0  0  0
 51 59  1  0  0  0  0
 51 52  2  0  0  0  0
  8  9  1  0  0  0  0
  9 17  1  0  0  0  0
  9 10  2  0  0  0  0
 30 31  1  0  0  0  0
 31 39  1  0  0  0  0
 31 32  2  0  0  0  0
 40 41  1  0  0  0  0
 41 49  1  0  0  0  0
 41 42  2  0  0  0  0
 50 53  1  0  0  0  0
 30 33  1  0  0  0  0
 59 60  1  0  0  0  0
 17 18  1  0  0  0  0
  8 11  1  0  0  0  0
 11 12  1  0  0  0  0
 40 43  1  0  0  0  0
 43 44  1  0  0  0  0
 49 50  1  0  0  0  0
  7  8  1  0  0  0  0
 29 30  1  0  0  0  0
 39 40  1  0  0  0  0
 12 44  1  0  0  0  0
  3  4  1  0  0  0  0
  3  5  1  0  0  0  0
  3  6  1  0  0  0  0
 25 26  1  0  0  0  0
 25 27  1  0  0  0  0
 25 28  1  0  0  0  0
 53 56  1  0  0  0  0
 53 57  1  0  0  0  0
 53 58  1  0  0  0  0
 33 36  1  0  0  0  0
 33 37  1  0  0  0  0
 33 38  1  0  0  0  0
 60 62  1  0  0  0  0
 60 63  1  0  0  0  0
 60 64  1  0  0  0  0
 18 20  1  0  0  0  0
 18 21  1  0  0  0  0
 18 22  1  0  0  0  0
 11 15  1  0  0  0  0
 11 16  1  0  0  0  0
 43 47  1  0  0  0  0
 43 48  1  0  0  0  0
 50 55  1  0  0  0  0
  8 14  1  0  0  0  0
 30 35  1  0  0  0  0
 40 46  1  0  0  0  0
 59 61  1  0  0  0  0
 17 19  1  0  0  0  0
  7 13  1  0  0  0  0
 29 34  1  0  0  0  0
 49 54  1  0  0  0  0
 39 45  1  0  0  0  0
M  END
$$$$

  -OEChem-05262214473D

 64 63  0     1  0  0  0  0  0999 V2000
   -1.9063   -5.7732    2.4926 C   0  0  0  0  0  0  0  0  0  0  0  0
   -3.0278   -5.9205    2.0211 O   0  0  0  0  0  0  0  0  0  0  0  0
   -1.6302   -6.2229    3.8890 C   0  0  0  0  0  0  0  0  0  0  0  0
   -1.8183   -5.4303    4.6310 H   0  0  0  0  0  0  0  0  0  0  0  0
   -2.2715   -7.0654    4.1940 H   0  0  0  0  0  0  0  0  0  0  0  0
   -0.5988   -6.5600    4.0803 H   0  0  0  0  0  0  0  0  0  0  0  0
   -0.8148   -5.2141    1.8508 N   0  0  0  0  0  0  0  0  0  0  0  0
   -0.8611   -4.7169    0.4991 C   0  0  2  0  0  0  0  0  0  0  0  0
    0.4840   -4.9852   -0.1729 C   0  0  0  0  0  0  0  0  0  0  0  0
    1.4538   -5.4420    0.4288 O   0  0  0  0  0  0  0  0  0  0  0  0
   -1.2907   -3.2493    0.4326 C   0  0  0  0  0  0  0  0  0  0  0  0
   -0.1355   -2.1075    1.2598 S   0  0  0  0  0  0  0  0  0  0  0  0
    0.0645   -5.1510    2.3590 H   0  0  0  0  0  0  0  0  0  0  0  0
   -1.6149   -5.3272   -0.0137 H   0  0  0  0  0  0  0  0  0  0  0  0
   -1.3844   -2.9230   -0.6084 H   0  0  0  0  0  0  0  0  0  0  0  0
   -2.2702   -3.1254    0.9070 H   0  0  0  0  0  0  0  0  0  0  0  0
    0.4801   -4.6316   -1.5147 N   0  0  0  0  0  0  0  0  0  0  0  0
    1.6435   -4.7681   -2.3596 C   0  0  0  0  0  0  0  0  0  0  0  0
   -0.3800   -4.3012   -1.9422 H   0  0  0  0  0  0  0  0  0  0  0  0
    2.2090   -3.8246   -2.3611 H   0  0  0  0  0  0  0  0  0  0  0  0
    2.2820   -5.5776   -1.9762 H   0  0  0  0  0  0  0  0  0  0  0  0
    1.3256   -5.0065   -3.3854 H   0  0  0  0  0  0  0  0  0  0  0  0
   -6.7256    2.0330   -0.2766 C   0  0  0  0  0  0  0  0  0  0  0  0
   -7.1824    1.1039   -0.9322 O   0  0  0  0  0  0  0  0  0  0  0  0
   -7.5276    2.6077    0.8435 C   0  0  0  0  0  0  0  0  0  0  0  0
   -8.1775    3.4344    0.5145 H   0  0  0  0  0  0  0  0  0  0  0  0
   -8.2057    1.8676    1.2980 H   0  0  0  0  0  0  0  0  0  0  0  0
   -6.9411    3.0162    1.6819 H   0  0  0  0  0  0  0  0  0  0  0  0
   -5.4935    2.6382   -0.4627 N   0  0  0  0  0  0  0  0  0  0  0  0
   -4.5619    2.2388   -1.4845 C   0  0  2  0  0  0  0  0  0  0  0  0
   -3.1535    2.4674   -0.9521 C   0  0  0  0  0  0  0  0  0  0  0  0
   -2.8634    3.3945   -0.1987 O   0  0  0  0  0  0  0  0  0  0  0  0
   -4.7883    3.0138   -2.7732 C   0  0  0  0  0  0  0  0  0  0  0  0
   -5.2337    3.4049    0.1551 H   0  0  0  0  0  0  0  0  0  0  0  0
   -4.7192    1.1682   -1.6549 H   0  0  0  0  0  0  0  0  0  0  0  0
   -4.6352    4.0886   -2.6221 H   0  0  0  0  0  0  0  0  0  0  0  0
   -4.0976    2.6887   -3.5582 H   0  0  0  0  0  0  0  0  0  0  0  0
   -5.8111    2.8719   -3.1387 H   0  0  0  0  0  0  0  0  0  0  0  0
   -2.2466    1.5400   -1.4507 N   0  0  0  0  0  0  0  0  0  0  0  0
   -0.8424    1.5707   -1.1286 C   0  0  2  0  0  0  0  0  0  0  0  0
   -0.0700    2.1019   -2.3343 C   0  0  0  0  0  0  0  0  0  0  0  0
   -0.2694    1.7107   -3.4826 O   0  0  0  0  0  0  0  0  0  0  0  0
   -0.3300    0.2183   -0.6272 C   0  0  0  0  0  0  0  0  0  0  0  0
   -1.0587   -0.2999    0.9454 S   0  0  0  0  0  0  0  0  0  0  0  0
   -2.5850    0.7815   -2.0381 H   0  0  0  0  0  0  0  0  0  0  0  0
   -0.7415    2.3060   -0.3206 H   0  0  0  0  0  0  0  0  0  0  0  0
   -0.5395   -0.5677   -1.3601 H   0  0  0  0  0  0  0  0  0  0  0  0
    0.7557    0.2591   -0.4878 H   0  0  0  0  0  0  0  0  0  0  0  0
    0.8830    3.0439   -1.9736 N   0  0  0  0  0  0  0  0  0  0  0  0
    1.7576    3.6746   -2.9345 C   0  0  2  0  0  0  0  0  0  0  0  0
    3.0856    3.9595   -2.2456 C   0  0  0  0  0  0  0  0  0  0  0  0
    3.1735    4.2634   -1.0577 O   0  0  0  0  0  0  0  0  0  0  0  0
    1.1451    4.9534   -3.4842 C   0  0  0  0  0  0  0  0  0  0  0  0
    0.9507    3.3409   -1.0047 H   0  0  0  0  0  0  0  0  0  0  0  0
    1.9126    2.9520   -3.7431 H   0  0  0  0  0  0  0  0  0  0  0  0
    0.9824    5.6895   -2.6885 H   0  0  0  0  0  0  0  0  0  0  0  0
    1.7966    5.4152   -4.2334 H   0  0  0  0  0  0  0  0  0  0  0  0
    0.1760    4.7512   -3.9531 H   0  0  0  0  0  0  0  0  0  0  0  0
    4.1573    3.8766   -3.1235 N   0  0  0  0  0  0  0  0  0  0  0  0
    5.5179    4.1457   -2.7205 C   0  0  0  0  0  0  0  0  0  0  0  0
    3.9967    3.5789   -4.0813 H   0  0  0  0  0  0  0  0  0  0  0  0
    5.7537    5.2038   -2.9072 H   0  0  0  0  0  0  0  0  0  0  0  0
    5.6324    3.9283   -1.6483 H   0  0  0  0  0  0  0  0  0  0  0  0
    6.2041    3.5097   -3.2990 H   0  0  0  0  0  0  0  0  0  0  0  0
  1  3  1  0  0  0  0
  1  7  1  0  0  0  0
  1  2  2  0  0  0  0
 23 25  1  0  0  0  0
 23 29  1  0  0  0  0
 23 24  2  0  0  0  0
 50 51  1  0  0  0  0
 51 59  1  0  0  0  0
 51 52  2  0  0  0  0
  8  9  1  0  0  0  0
  9 17  1  0  0  0  0
  9 10  2  0  0  0  0
 30 31  1  0  0  0  0
 31 39  1  0  0  0  0
 31 32  2  0  0  0  0
 40 41  1  0  0  0  0
 41 49  1  0  0  0  0
 41 42  2  0  0  0  0
 50 53  1  0  0  0  0
 30 33  1  0  0  0  0
 59 60  1  0  0  0  0
 17 18  1  0  0  0  0
  8 11  1  0  0  0  0
 11 12  1  0  0  0  0
 40 43  1  0  0  0  0
 43 44  1  0  0  0  0
 49 50  1  0  0  0  0
  7  8  1  0  0  0  0
 29 30  1  0  0  0  0
 39 40  1  0  0  0  0
 12 44  1  0  0  0  0
  3  4  1  0  0  0  0
  3  5  1  0  0  0  0
  3  6  1  0  0  0  0
 25 26  1  0  0  0  0
 25 27  1  0  0  0  0
 25 28  1  0  0  0  0
 53 56  1  0  0  0  0
 53 57  1  0  0  0  0
 53 58  1  0  0  0  0
 33 36  1  0  0  0  0
 33 37  1  0  0  0  0
 33 38  1  0  0  0  0
 60 62  1  0  0  0  0
 60 63  1  0  0  0  0
 60 64  1  0  0  0  0
 18 20  1  0  0  0  0
 18 21  1  0  0  0  0
 18 22  1  0  0  0  0
 11 15  1  0  0  0  0
 11 16  1  0  0  0  0
 43 47  1  0  0  0  0
 43 48  1  0  0  0  0
 50 55  1  0  0  0  0
  8 14  1  0  0  0  0
 30 35  1  0  0  0  0
 40 46  1  0  0  0  0
 59 61  1  0  0  0  0
 17 19  1  0  0  0  0
  7 13  1  0  0  0  0
 29 34  1  0  0  0  0
 49 54  1  0  0  0  0
 39 45  1  0  0  0  0
M  END
$$$$

  -OEChem-05262214473D

 64 63  0     1  0  0  0  0  0999 V2000
   -1.9063   -5.7732    2.4926 C   0  0  0  0  0  0  0  0  0  0  0  0
   -3.0278   -5.9205    2.0211 O   0  0  0  0  0  0  0  0  0  0  0  0
   -1.6302   -6.2229    3.8890 C   0  0  0  0  0  0  0  0  0  0  0  0
   -1.8183   -5.4303    4.6310 H   0  0  0  0  0  0  0  0  0  0  0  0
   -2.2715   -7.0654    4.1940 H   0  0  0  0  0  0  0  0  0  0  0  0
   -0.5988   -6.5600    4.0803 H   0  0  0  0  0  0  0  0  0  0  0  0
   -0.8148   -5.2141    1.8508 N   0  0  0  0  0  0  0  0  0  0  0  0
   -0.8611   -4.7169    0.4991 C   0  0  2  0  0  0  0  0  0  0  0  0
    0.4840   -4.9852   -0.1729 C   0  0  0  0  0  0  0  0  0  0  0  0
    1.4538   -5.4420    0.4288 O   0  0  0  0  0  0  0  0  0  0  0  0
   -1.2907   -3.2493    0.4326 C   0  0  0  0  0  0  0  0  0  0  0  0
   -0.1355   -2.1075    1.2598 S   0  0  0  0  0  0  0  0  0  0  0  0
    0.0645   -5.1510    2.3590 H   0  0  0  0  0  0  0  0  0  0  0  0
   -1.6149   -5.3272   -0.0137 H   0  0  0  0  0  0  0  0  0  0  0  0
   -1.3844   -2.9230   -0.6084 H   0  0  0  0  0  0  0  0  0  0  0  0
   -2.2702   -3.1254    0.9070 H   0  0  0  0  0  0  0  0  0  0  0  0
    0.4801   -4.6316   -1.5147 N   0  0  0  0  0  0  0  0  0  0  0  0
    1.6435   -4.7681   -2.3596 C   0  0  0  0  0  0  0  0  0  0  0  0
   -0.3800   -4.3012   -1.9422 H   0  0  0  0  0  0  0  0  0  0  0  0
    2.2090   -3.8246   -2.3611 H   0  0  0  0  0  0  0  0  0  0  0  0
    2.2820   -5.5776   -1.9762 H   0  0  0  0  0  0  0  0  0  0  0  0
    1.3256   -5.0065   -3.3854 H   0  0  0  0  0  0  0  0  0  0  0  0
   -6.7256    2.0330   -0.2766 C   0  0  0  0  0  0  0  0  0  0  0  0
   -7.1824    1.1039   -0.9322 O   0  0  0  0  0  0  0  0  0  0  0  0
   -7.5276    2.6077    0.8435 C   0  0  0  0  0  0  0  0  0  0  0  0
   -8.1775    3.4344    0.5145 H   0  0  0  0  0  0  0  0  0  0  0  0
   -8.2057    1.8676    1.2980 H   0  0  0  0  0  0  0  0  0  0  0  0
   -6.9411    3.0162    1.6819 H   0  0  0  0  0  0  0  0  0  0  0  0
   -5.4935    2.6382   -0.4627 N   0  0  0  0  0  0  0  0  0  0  0  0
   -4.5619    2.2388   -1.4845 C   0  0  2  0  0  0  0  0  0  0  0  0
   -3.1535    2.4674   -0.9521 C   0  0  0  0  0  0  0  0  0  0  0  0
   -2.8634    3.3945   -0.1987 O   0  0  0  0  0  0  0  0  0  0  0  0
   -4.7883    3.0138   -2.7732 C   0  0  0  0  0  0  0  0  0  0  0  0
   -5.2337    3.4049    0.1551 H   0  0  0  0  0  0  0  0  0  0  0  0
   -4.7192    1.1682   -1.6549 H   0  0  0  0  0  0  0  0  0  0  0  0
   -4.6352    4.0886   -2.6221 H   0  0  0  0  0  0  0  0  0  0  0  0
   -4.0976    2.6887   -3.5582 H   0  0  0  0  0  0  0  0  0  0  0  0
   -5.8111    2.8719   -3.1387 H   0  0  0  0  0  0  0  0  0  0  0  0
   -2.2466    1.5400   -1.4507 N   0  0  0  0  0  0  0  0  0  0  0  0
   -0.8424    1.5707   -1.1286 C   0  0  2  0  0  0  0  0  0  0  0  0
   -0.0700    2.1019   -2.3343 C   0  0  0  0  0  0  0  0  0  0  0  0
   -0.4343    1.9230   -3.4947 O   0  0  0  0  0  0  0  0  0  0  0  0
   -0.3300    0.2183   -0.6272 C   0  0  0  0  0  0  0  0  0  0  0  0
   -1.0587   -0.2999    0.9454 S   0  0  0  0  0  0  0  0  0  0  0  0
   -2.5850    0.7815   -2.0381 H   0  0  0  0  0  0  0  0  0  0  0  0
   -0.7415    2.3060   -0.3206 H   0  0  0  0  0  0  0  0  0  0  0  0
   -0.5395   -0.5677   -1.3601 H   0  0  0  0  0  0  0  0  0  0  0  0
    0.7557    0.2591   -0.4878 H   0  0  0  0  0  0  0  0  0  0  0  0
    1.0845    2.7761   -1.9625 N   0  0  0  0  0  0  0  0  0  0  0  0
    1.9961    3.3492   -2.9250 C   0  0  2  0  0  0  0  0  0  0  0  0
    3.4031    3.2656   -2.3479 C   0  0  0  0  0  0  0  0  0  0  0  0
    3.6434    3.3764   -1.1475 O   0  0  0  0  0  0  0  0  0  0  0  0
    1.6261    4.7883   -3.2488 C   0  0  0  0  0  0  0  0  0  0  0  0
    1.2870    2.9149   -0.9769 H   0  0  0  0  0  0  0  0  0  0  0  0
    1.9334    2.7310   -3.8271 H   0  0  0  0  0  0  0  0  0  0  0  0
    1.6832    5.4230   -2.3569 H   0  0  0  0  0  0  0  0  0  0  0  0
    2.3010    5.2121   -3.9998 H   0  0  0  0  0  0  0  0  0  0  0  0
    0.6033    4.8501   -3.6358 H   0  0  0  0  0  0  0  0  0  0  0  0
    4.3631    3.0958   -3.3357 N   0  0  0  0  0  0  0  0  0  0  0  0
    5.7765    3.0304   -3.0462 C   0  0  0  0  0  0  0  0  0  0  0  0
    4.0708    2.9732   -4.3007 H   0  0  0  0  0  0  0  0  0  0  0  0
    6.2146    4.0362   -3.1263 H   0  0  0  0  0  0  0  0  0  0  0  0
    5.9244    2.6464   -2.0261 H   0  0  0  0  0  0  0  0  0  0  0  0
    6.2674    2.3585   -3.7656 H   0  0  0  0  0  0  0  0  0  0  0  0
  1  3  1  0  0  0  0
  1  7  1  0  0  0  0
  1  2  2  0  0  0  0
 23 25  1  0  0  0  0
 23 29  1  0  0  0  0
 23 24  2  0  0  0  0
 50 51  1  0  0  0  0
 51 59  1  0  0  0  0
 51 52  2  0  0  0  0
  8  9  1  0  0  0  0
  9 17  1  0  0  0  0
  9 10  2  0  0  0  0
 30 31  1  0  0  0  0
 31 39  1  0  0  0  0
 31 32  2  0  0  0  0
 40 41  1  0  0  0  0
 41 49  1  0  0  0  0
 41 42  2  0  0  0  0
 50 53  1  0  0  0  0
 30 33  1  0  0  0  0
 59 60  1  0  0  0  0
 17 18  1  0  0  0  0
  8 11  1  0  0  0  0
 11 12  1  0  0  0  0
 40 43  1  0  0  0  0
 43 44  1  0  0  0  0
 49 50  1  0  0  0  0
  7  8  1  0  0  0  0
 29 30  1  0  0  0  0
 39 40  1  0  0  0  0
 12 44  1  0  0  0  0
  3  4  1  0  0  0  0
  3  5  1  0  0  0  0
  3  6  1  0  0  0  0
 25 26  1  0  0  0  0
 25 27  1  0  0  0  0
 25 28  1  0  0  0  0
 53 56  1  0  0  0  0
 53 57  1  0  0  0  0
 53 58  1  0  0  0  0
 33 36  1  0  0  0  0
 33 37  1  0  0  0  0
 33 38  1  0  0  0  0
 60 62  1  0  0  0  0
 60 63  1  0  0  0  0
 60 64  1  0  0  0  0
 18 20  1  0  0  0  0
 18 21  1  0  0  0  0
 18 22  1  0  0  0  0
 11 15  1  0  0  0  0
 11 16  1  0  0  0  0
 43 47  1  0  0  0  0
 43 48  1  0  0  0  0
 50 55  1  0  0  0  0
  8 14  1  0  0  0  0
 30 35  1  0  0  0  0
 40 46  1  0  0  0  0
 59 61  1  0  0  0  0
 17 19  1  0  0  0  0
  7 13  1  0  0  0  0
 29 34  1  0  0  0  0
 49 54  1  0  0  0  0
 39 45  1  0  0  0  0
M  END
$$$$

  -OEChem-05262214473D

 64 63  0     1  0  0  0  0  0999 V2000
   -1.9063   -5.7732    2.4926 C   0  0  0  0  0  0  0  0  0  0  0  0
   -3.0278   -5.9205    2.0211 O   0  0  0  0  0  0  0  0  0  0  0  0
   -1.6302   -6.2229    3.8890 C   0  0  0  0  0  0  0  0  0  0  0  0
   -1.8183   -5.4303    4.6310 H   0  0  0  0  0  0  0  0  0  0  0  0
   -2.2715   -7.0654    4.1940 H   0  0  0  0  0  0  0  0  0  0  0  0
   -0.5988   -6.5600    4.0803 H   0  0  0  0  0  0  0  0  0  0  0  0
   -0.8148   -5.2141    1.8508 N   0  0  0  0  0  0  0  0  0  0  0  0
   -0.8611   -4.7169    0.4991 C   0  0  2  0  0  0  0  0  0  0  0  0
    0.4840   -4.9852   -0.1729 C   0  0  0  0  0  0  0  0  0  0  0  0
    1.4538   -5.4420    0.4288 O   0  0  0  0  0  0  0  0  0  0  0  0
   -1.2907   -3.2493    0.4326 C   0  0  0  0  0  0  0  0  0  0  0  0
   -0.1355   -2.1075    1.2598 S   0  0  0  0  0  0  0  0  0  0  0  0
    0.0645   -5.1510    2.3590 H   0  0  0  0  0  0  0  0  0  0  0  0
   -1.6149   -5.3272   -0.0137 H   0  0  0  0  0  0  0  0  0  0  0  0
   -1.3844   -2.9230   -0.6084 H   0  0  0  0  0  0  0  0  0  0  0  0
   -2.2702   -3.1254    0.9070 H   0  0  0  0  0  0  0  0  0  0  0  0
    0.4801   -4.6316   -1.5147 N   0  0  0  0  0  0  0  0  0  0  0  0
    1.6435   -4.7681   -2.3596 C   0  0  0  0  0  0  0  0  0  0  0  0
   -0.3800   -4.3012   -1.9422 H   0  0  0  0  0  0  0  0  0  0  0  0
    2.2090   -3.8246   -2.3611 H   0  0  0  0  0  0  0  0  0  0  0  0
    2.2820   -5.5776   -1.9762 H   0  0  0  0  0  0  0  0  0  0  0  0
    1.3256   -5.0065   -3.3854 H   0  0  0  0  0  0  0  0  0  0  0  0
   -6.7256    2.0330   -0.2766 C   0  0  0  0  0  0  0  0  0  0  0  0
   -7.1824    1.1039   -0.9322 O   0  0  0  0  0  0  0  0  0  0  0  0
   -7.5276    2.6077    0.8435 C   0  0  0  0  0  0  0  0  0  0  0  0
   -8.1775    3.4344    0.5145 H   0  0  0  0  0  0  0  0  0  0  0  0
   -8.2057    1.8676    1.2980 H   0  0  0  0  0  0  0  0  0  0  0  0
   -6.9411    3.0162    1.6819 H   0  0  0  0  0  0  0  0  0  0  0  0
   -5.4935    2.6382   -0.4627 N   0  0  0  0  0  0  0  0  0  0  0  0
   -4.5619    2.2388   -1.4845 C   0  0  2  0  0  0  0  0  0  0  0  0
   -3.1535    2.4674   -0.9521 C   0  0  0  0  0  0  0  0  0  0  0  0
   -2.8634    3.3945   -0.1987 O   0  0  0  0  0  0  0  0  0  0  0  0
   -4.7883    3.0138   -2.7732 C   0  0  0  0  0  0  0  0  0  0  0  0
   -5.2337    3.4049    0.1551 H   0  0  0  0  0  0  0  0  0  0  0  0
   -4.7192    1.1682   -1.6549 H   0  0  0  0  0  0  0  0  0  0  0  0
   -4.6352    4.0886   -2.6221 H   0  0  0  0  0  0  0  0  0  0  0  0
   -4.0976    2.6887   -3.5582 H   0  0  0  0  0  0  0  0  0  0  0  0
   -5.8111    2.8719   -3.1387 H   0  0  0  0  0  0  0  0  0  0  0  0
   -2.2466    1.5400   -1.4507 N   0  0  0  0  0  0  0  0  0  0  0  0
   -0.8424    1.5707   -1.1286 C   0  0  2  0  0  0  0  0  0  0  0  0
   -0.0700    2.1019   -2.3343 C   0  0  0  0  0  0  0  0  0  0  0  0
   -0.5514    2.1634   -3.4638 O   0  0  0  0  0  0  0  0  0  0  0  0
   -0.3300    0.2183   -0.6272 C   0  0  0  0  0  0  0  0  0  0  0  0
   -1.0587   -0.2999    0.9454 S   0  0  0  0  0  0  0  0  0  0  0  0
   -2.5850    0.7815   -2.0381 H   0  0  0  0  0  0  0  0  0  0  0  0
   -0.7415    2.3060   -0.3206 H   0  0  0  0  0  0  0  0  0  0  0  0
   -0.5395   -0.5677   -1.3601 H   0  0  0  0  0  0  0  0  0  0  0  0
    0.7557    0.2591   -0.4878 H   0  0  0  0  0  0  0  0  0  0  0  0
    1.2255    2.4748   -2.0050 N   0  0  0  0  0  0  0  0  0  0  0  0
    2.1609    2.9849   -2.9799 C   0  0  2  0  0  0  0  0  0  0  0  0
    3.5587    2.5438   -2.5662 C   0  0  0  0  0  0  0  0  0  0  0  0
    3.9080    2.4353   -1.3926 O   0  0  0  0  0  0  0  0  0  0  0  0
    2.0782    4.4997   -3.0862 C   0  0  0  0  0  0  0  0  0  0  0  0
    1.5273    2.4311   -1.0361 H   0  0  0  0  0  0  0  0  0  0  0  0
    1.9009    2.5242   -3.9391 H   0  0  0  0  0  0  0  0  0  0  0  0
    2.3355    4.9790   -2.1346 H   0  0  0  0  0  0  0  0  0  0  0  0
    2.7677    4.8824   -3.8460 H   0  0  0  0  0  0  0  0  0  0  0  0
    1.0648    4.8168   -3.3548 H   0  0  0  0  0  0  0  0  0  0  0  0
    4.3832    2.3272   -3.6614 N   0  0  0  0  0  0  0  0  0  0  0  0
    5.7692    1.9429   -3.5300 C   0  0  0  0  0  0  0  0  0  0  0  0
    3.9988    2.4017   -4.5987 H   0  0  0  0  0  0  0  0  0  0  0  0
    6.4016    2.8429   -3.5323 H   0  0  0  0  0  0  0  0  0  0  0  0
    5.9104    1.3980   -2.5850 H   0  0  0  0  0  0  0  0  0  0  0  0
    6.0512    1.2946   -4.3727 H   0  0  0  0  0  0  0  0  0  0  0  0
  1  3  1  0  0  0  0
  1  7  1  0  0  0  0
  1  2  2  0  0  0  0
 23 25  1  0  0  0  0
 23 29  1  0  0  0  0
 23 24  2  0  0  0  0
 50 51  1  0  0  0  0
 51 59  1  0  0  0  0
 51 52  2  0  0  0  0
  8  9  1  0  0  0  0
  9 17  1  0  0  0  0
  9 10  2  0  0  0  0
 30 31  1  0  0  0  0
 31 39  1  0  0  0  0
 31 32  2  0  0  0  0
 40 41  1  0  0  0  0
 41 49  1  0  0  0  0
 41 42  2  0  0  0  0
 50 53  1  0  0  0  0
 30 33  1  0  0  0  0
 59 60  1  0  0  0  0
 17 18  1  0  0  0  0
  8 11  1  0  0  0  0
 11 12  1  0  0  0  0
 40 43  1  0  0  0  0
 43 44  1  0  0  0  0
 49 50  1  0  0  0  0
  7  8  1  0  0  0  0
 29 30  1  0  0  0  0
 39 40  1  0  0  0  0
 12 44  1  0  0  0  0
  3  4  1  0  0  0  0
  3  5  1  0  0  0  0
  3  6  1  0  0  0  0
 25 26  1  0  0  0  0
 25 27  1  0  0  0  0
 25 28  1  0  0  0  0
 53 56  1  0  0  0  0
 53 57  1  0  0  0  0
 53 58  1  0  0  0  0
 33 36  1  0  0  0  0
 33 37  1  0  0  0  0
 33 38  1  0  0  0  0
 60 62  1  0  0  0  0
 60 63  1  0  0  0  0
 60 64  1  0  0  0  0
 18 20  1  0  0  0  0
 18 21  1  0  0  0  0
 18 22  1  0  0  0  0
 11 15  1  0  0  0  0
 11 16  1  0  0  0  0
 43 47  1  0  0  0  0
 43 48  1  0  0  0  0
 50 55  1  0  0  0  0
  8 14  1  0  0  0  0
 30 35  1  0  0  0  0
 40 46  1  0  0  0  0
 59 61  1  0  0  0  0
 17 19  1  0  0  0  0
  7 13  1  0  0  0  0
 29 34  1  0  0  0  0
 49 54  1  0  0  0  0
 39 45  1  0  0  0  0
M  END
$$$$

  -OEChem-05262214473D

 64 63  0     1  0  0  0  0  0999 V2000
   -1.4379   -6.4981    0.5200 C   0  0  0  0  0  0  0  0  0  0  0  0
   -2.5551   -6.5872    0.0244 O   0  0  0  0  0  0  0  0  0  0  0  0
   -1.1185   -7.2682    1.7582 C   0  0  0  0  0  0  0  0  0  0  0  0
   -1.3420   -6.7007    2.6758 H   0  0  0  0  0  0  0  0  0  0  0  0
   -1.7066   -8.1965    1.8395 H   0  0  0  0  0  0  0  0  0  0  0  0
   -0.0672   -7.5817    1.8602 H   0  0  0  0  0  0  0  0  0  0  0  0
   -0.3885   -5.7323    0.0421 N   0  0  0  0  0  0  0  0  0  0  0  0
   -0.4807   -4.9141   -1.1404 C   0  0  2  0  0  0  0  0  0  0  0  0
    0.8687   -4.9251   -1.8558 C   0  0  0  0  0  0  0  0  0  0  0  0
    1.8708   -5.4613   -1.3870 O   0  0  0  0  0  0  0  0  0  0  0  0
   -0.9943   -3.5048   -0.8353 C   0  0  0  0  0  0  0  0  0  0  0  0
    0.1044   -2.5428    0.2556 S   0  0  0  0  0  0  0  0  0  0  0  0
    0.4922   -5.7480    0.5515 H   0  0  0  0  0  0  0  0  0  0  0  0
   -1.2050   -5.4185   -1.7921 H   0  0  0  0  0  0  0  0  0  0  0  0
   -1.1199   -2.9328   -1.7603 H   0  0  0  0  0  0  0  0  0  0  0  0
   -1.9730   -3.5621   -0.3467 H   0  0  0  0  0  0  0  0  0  0  0  0
    0.8273   -4.2456   -3.0650 N   0  0  0  0  0  0  0  0  0  0  0  0
    1.9855   -4.0963   -3.9148 C   0  0  0  0  0  0  0  0  0  0  0  0
   -0.0557   -3.8691   -3.3969 H   0  0  0  0  0  0  0  0  0  0  0  0
    2.4961   -3.1515   -3.6770 H   0  0  0  0  0  0  0  0  0  0  0  0
    2.6742   -4.9375   -3.7468 H   0  0  0  0  0  0  0  0  0  0  0  0
    1.6685   -4.0867   -4.9681 H   0  0  0  0  0  0  0  0  0  0  0  0
   -6.7256    2.0330   -0.2766 C   0  0  0  0  0  0  0  0  0  0  0  0
   -7.1824    1.1039   -0.9322 O   0  0  0  0  0  0  0  0  0  0  0  0
   -7.5276    2.6077    0.8435 C   0  0  0  0  0  0  0  0  0  0  0  0
   -8.1775    3.4344    0.5145 H   0  0  0  0  0  0  0  0  0  0  0  0
   -8.2057    1.8676    1.2980 H   0  0  0  0  0  0  0  0  0  0  0  0
   -6.9411    3.0162    1.6819 H   0  0  0  0  0  0  0  0  0  0  0  0
   -5.4935    2.6382   -0.4627 N   0  0  0  0  0  0  0  0  0  0  0  0
   -4.5619    2.2388   -1.4845 C   0  0  2  0  0  0  0  0  0  0  0  0
   -3.1535    2.4674   -0.9521 C   0  0  0  0  0  0  0  0  0  0  0  0
   -2.8634    3.3945   -0.1987 O   0  0  0  0  0  0  0  0  0  0  0  0
   -4.7883    3.0138   -2.7732 C   0  0  0  0  0  0  0  0  0  0  0  0
   -5.2337    3.4049    0.1551 H   0  0  0  0  0  0  0  0  0  0  0  0
   -4.7192    1.1682   -1.6549 H   0  0  0  0  0  0  0  0  0  0  0  0
   -4.6352    4.0886   -2.6221 H   0  0  0  0  0  0  0  0  0  0  0  0
   -4.0976    2.6887   -3.5582 H   0  0  0  0  0  0  0  0  0  0  0  0
   -5.8111    2.8719   -3.1387 H   0  0  0  0  0  0  0  0  0  0  0  0
   -2.2466    1.5400   -1.4507 N   0  0  0  0  0  0  0  0  0  0  0  0
   -0.8424    1.5707   -1.1286 C   0  0  2  0  0  0  0  0  0  0  0  0
   -0.1172    2.4330   -2.1597 C   0  0  0  0  0  0  0  0  0  0  0  0
   -0.6905    2.9707   -3.1051 O   0  0  0  0  0  0  0  0  0  0  0  0
   -0.2471    0.1680   -0.9838 C   0  0  0  0  0  0  0  0  0  0  0  0
   -0.9246   -0.7716    0.4057 S   0  0  0  0  0  0  0  0  0  0  0  0
   -2.5850    0.7815   -2.0381 H   0  0  0  0  0  0  0  0  0  0  0  0
   -0.7732    2.0832   -0.1610 H   0  0  0  0  0  0  0  0  0  0  0  0
   -0.4208   -0.4188   -1.8917 H   0  0  0  0  0  0  0  0  0  0  0  0
    0.8362    0.2358   -0.8365 H   0  0  0  0  0  0  0  0  0  0  0  0
    1.2463    2.5100   -1.9138 N   0  0  0  0  0  0  0  0  0  0  0  0
    2.1508    3.2476   -2.7644 C   0  0  2  0  0  0  0  0  0  0  0  0
    3.4961    2.5337   -2.7514 C   0  0  0  0  0  0  0  0  0  0  0  0
    3.9364    1.9504   -1.7630 O   0  0  0  0  0  0  0  0  0  0  0  0
    2.2956    4.6886   -2.3004 C   0  0  0  0  0  0  0  0  0  0  0  0
    1.6302    2.0692   -1.0832 H   0  0  0  0  0  0  0  0  0  0  0  0
    1.7301    3.2168   -3.7754 H   0  0  0  0  0  0  0  0  0  0  0  0
    2.7157    4.7396   -1.2893 H   0  0  0  0  0  0  0  0  0  0  0  0
    2.9593    5.2540   -2.9629 H   0  0  0  0  0  0  0  0  0  0  0  0
    1.3229    5.1917   -2.2819 H   0  0  0  0  0  0  0  0  0  0  0  0
    4.1664    2.6614   -3.9600 N   0  0  0  0  0  0  0  0  0  0  0  0
    5.4815    2.1082   -4.1843 C   0  0  0  0  0  0  0  0  0  0  0  0
    3.7091    3.1274   -4.7381 H   0  0  0  0  0  0  0  0  0  0  0  0
    6.2434    2.8674   -3.9537 H   0  0  0  0  0  0  0  0  0  0  0  0
    5.6270    1.2334   -3.5336 H   0  0  0  0  0  0  0  0  0  0  0  0
    5.5758    1.8022   -5.2367 H   0  0  0  0  0  0  0  0  0  0  0  0
  1  3  1  0  0  0  0
  1  7  1  0  0  0  0
  1  2  2  0  0  0  0
 23 25  1  0  0  0  0
 23 29  1  0  0  0  0
 23 24  2  0  0  0  0
 50 51  1  0  0  0  0
 51 59  1  0  0  0  0
 51 52  2  0  0  0  0
  8  9  1  0  0  0  0
  9 17  1  0  0  0  0
  9 10  2  0  0  0  0
 30 31  1  0  0  0  0
 31 39  1  0  0  0  0
 31 32  2  0  0  0  0
 40 41  1  0  0  0  0
 41 49  1  0  0  0  0
 41 42  2  0  0  0  0
 50 53  1  0  0  0  0
 30 33  1  0  0  0  0
 59 60  1  0  0  0  0
 17 18  1  0  0  0  0
  8 11  1  0  0  0  0
 11 12  1  0  0  0  0
 40 43  1  0  0  0  0
 43 44  1  0  0  0  0
 49 50  1  0  0  0  0
  7  8  1  0  0  0  0
 29 30  1  0  0  0  0
 39 40  1  0  0  0  0
 12 44  1  0  0  0  0
  3  4  1  0  0  0  0
  3  5  1  0  0  0  0
  3  6  1  0  0  0  0
 25 26  1  0  0  0  0
 25 27  1  0  0  0  0
 25 28  1  0  0  0  0
 53 56  1  0  0  0  0
 53 57  1  0  0  0  0
 53 58  1  0  0  0  0
 33 36  1  0  0  0  0
 33 37  1  0  0  0  0
 33 38  1  0  0  0  0
 60 62  1  0  0  0  0
 60 63  1  0  0  0  0
 60 64  1  0  0  0  0
 18 20  1  0  0  0  0
 18 21  1  0  0  0  0
 18 22  1  0  0  0  0
 11 15  1  0  0  0  0
 11 16  1  0  0  0  0
 43 47  1  0  0  0  0
 43 48  1  0  0  0  0
 50 55  1  0  0  0  0
  8 14  1  0  0  0  0
 30 35  1  0  0  0  0
 40 46  1  0  0  0  0
 59 61  1  0  0  0  0
 17 19  1  0  0  0  0
  7 13  1  0  0  0  0
 29 34  1  0  0  0  0
 49 54  1  0  0  0  0
 39 45  1  0  0  0  0
M  END
$$$$

  -OEChem-05262214473D

 64 63  0     1  0  0  0  0  0999 V2000
   -1.4379   -6.4981    0.5200 C   0  0  0  0  0  0  0  0  0  0  0  0
   -2.5551   -6.5872    0.0244 O   0  0  0  0  0  0  0  0  0  0  0  0
   -1.1185   -7.2682    1.7582 C   0  0  0  0  0  0  0  0  0  0  0  0
   -1.3420   -6.7007    2.6758 H   0  0  0  0  0  0  0  0  0  0  0  0
   -1.7066   -8.1965    1.8395 H   0  0  0  0  0  0  0  0  0  0  0  0
   -0.0672   -7.5817    1.8602 H   0  0  0  0  0  0  0  0  0  0  0  0
   -0.3885   -5.7323    0.0421 N   0  0  0  0  0  0  0  0  0  0  0  0
   -0.4807   -4.9141   -1.1404 C   0  0  2  0  0  0  0  0  0  0  0  0
    0.8687   -4.9251   -1.8558 C   0  0  0  0  0  0  0  0  0  0  0  0
    1.8708   -5.4613   -1.3870 O   0  0  0  0  0  0  0  0  0  0  0  0
   -0.9943   -3.5048   -0.8353 C   0  0  0  0  0  0  0  0  0  0  0  0
    0.1044   -2.5428    0.2556 S   0  0  0  0  0  0  0  0  0  0  0  0
    0.4922   -5.7480    0.5515 H   0  0  0  0  0  0  0  0  0  0  0  0
   -1.2050   -5.4185   -1.7921 H   0  0  0  0  0  0  0  0  0  0  0  0
   -1.1199   -2.9328   -1.7603 H   0  0  0  0  0  0  0  0  0  0  0  0
   -1.9730   -3.5621   -0.3467 H   0  0  0  0  0  0  0  0  0  0  0  0
    0.8273   -4.2456   -3.0650 N   0  0  0  0  0  0  0  0  0  0  0  0
    1.9855   -4.0963   -3.9148 C   0  0  0  0  0  0  0  0  0  0  0  0
   -0.0557   -3.8691   -3.3969 H   0  0  0  0  0  0  0  0  0  0  0  0
    2.4961   -3.1515   -3.6770 H   0  0  0  0  0  0  0  0  0  0  0  0
    2.6742   -4.9375   -3.7468 H   0  0  0  0  0  0  0  0  0  0  0  0
    1.6685   -4.0867   -4.9681 H   0  0  0  0  0  0  0  0  0  0  0  0
   -6.7256    2.0330   -0.2766 C   0  0  0  0  0  0  0  0  0  0  0  0
   -7.1824    1.1039   -0.9322 O   0  0  0  0  0  0  0  0  0  0  0  0
   -7.5276    2.6077    0.8435 C   0  0  0  0  0  0  0  0  0  0  0  0
   -8.1775    3.4344    0.5145 H   0  0  0  0  0  0  0  0  0  0  0  0
   -8.2057    1.8676    1.2980 H   0  0  0  0  0  0  0  0  0  0  0  0
   -6.9411    3.0162    1.6819 H   0  0  0  0  0  0  0  0  0  0  0  0
   -5.4935    2.6382   -0.4627 N   0  0  0  0  0  0  0  0  0  0  0  0
   -4.5619    2.2388   -1.4845 C   0  0  2  0  0  0  0  0  0  0  0  0
   -3.1535    2.4674   -0.9521 C   0  0  0  0  0  0  0  0  0  0  0  0
   -2.8634    3.3945   -0.1987 O   0  0  0  0  0  0  0  0  0  0  0  0
   -4.7883    3.0138   -2.7732 C   0  0  0  0  0  0  0  0  0  0  0  0
   -5.2337    3.4049    0.1551 H   0  0  0  0  0  0  0  0  0  0  0  0
   -4.7192    1.1682   -1.6549 H   0  0  0  0  0  0  0  0  0  0  0  0
   -4.6352    4.0886   -2.6221 H   0  0  0  0  0  0  0  0  0  0  0  0
   -4.0976    2.6887   -3.5582 H   0  0  0  0  0  0  0  0  0  0  0  0
   -5.8111    2.8719   -3.1387 H   0  0  0  0  0  0  0  0  0  0  0  0
   -2.2466    1.5400   -1.4507 N   0  0  0  0  0  0  0  0  0  0  0  0
   -0.8424    1.5707   -1.1286 C   0  0  2  0  0  0  0  0  0  0  0  0
   -0.1172    2.4330   -2.1597 C   0  0  0  0  0  0  0  0  0  0  0  0
   -0.7043    3.1816   -2.9384 O   0  0  0  0  0  0  0  0  0  0  0  0
   -0.2471    0.1680   -0.9838 C   0  0  0  0  0  0  0  0  0  0  0  0
   -0.9246   -0.7716    0.4057 S   0  0  0  0  0  0  0  0  0  0  0  0
   -2.5850    0.7815   -2.0381 H   0  0  0  0  0  0  0  0  0  0  0  0
   -0.7732    2.0832   -0.1610 H   0  0  0  0  0  0  0  0  0  0  0  0
   -0.4208   -0.4188   -1.8917 H   0  0  0  0  0  0  0  0  0  0  0  0
    0.8362    0.2358   -0.8365 H   0  0  0  0  0  0  0  0  0  0  0  0
    1.2577    2.2490   -2.1240 N   0  0  0  0  0  0  0  0  0  0  0  0
    2.1590    2.9353   -3.0199 C   0  0  2  0  0  0  0  0  0  0  0  0
    3.3392    2.0134   -3.2968 C   0  0  0  0  0  0  0  0  0  0  0  0
    3.7943    1.2364   -2.4600 O   0  0  0  0  0  0  0  0  0  0  0  0
    2.6277    4.2557   -2.4288 C   0  0  0  0  0  0  0  0  0  0  0  0
    1.6627    1.6420   -1.4175 H   0  0  0  0  0  0  0  0  0  0  0  0
    1.6071    3.1122   -3.9494 H   0  0  0  0  0  0  0  0  0  0  0  0
    3.1828    4.0986   -1.4968 H   0  0  0  0  0  0  0  0  0  0  0  0
    3.2883    4.7881   -3.1211 H   0  0  0  0  0  0  0  0  0  0  0  0
    1.7756    4.9058   -2.2026 H   0  0  0  0  0  0  0  0  0  0  0  0
    3.8519    2.1913   -4.5742 N   0  0  0  0  0  0  0  0  0  0  0  0
    5.0003    1.4636   -5.0617 C   0  0  0  0  0  0  0  0  0  0  0  0
    3.3873    2.8280   -5.2149 H   0  0  0  0  0  0  0  0  0  0  0  0
    5.9129    2.0477   -4.8716 H   0  0  0  0  0  0  0  0  0  0  0  0
    5.0691    0.4966   -4.5420 H   0  0  0  0  0  0  0  0  0  0  0  0
    4.8936    1.2921   -6.1430 H   0  0  0  0  0  0  0  0  0  0  0  0
  1  3  1  0  0  0  0
  1  7  1  0  0  0  0
  1  2  2  0  0  0  0
 23 25  1  0  0  0  0
 23 29  1  0  0  0  0
 23 24  2  0  0  0  0
 50 51  1  0  0  0  0
 51 59  1  0  0  0  0
 51 52  2  0  0  0  0
  8  9  1  0  0  0  0
  9 17  1  0  0  0  0
  9 10  2  0  0  0  0
 30 31  1  0  0  0  0
 31 39  1  0  0  0  0
 31 32  2  0  0  0  0
 40 41  1  0  0  0  0
 41 49  1  0  0  0  0
 41 42  2  0  0  0  0
 50 53  1  0  0  0  0
 30 33  1  0  0  0  0
 59 60  1  0  0  0  0
 17 18  1  0  0  0  0
  8 11  1  0  0  0  0
 11 12  1  0  0  0  0
 40 43  1  0  0  0  0
 43 44  1  0  0  0  0
 49 50  1  0  0  0  0
  7  8  1  0  0  0  0
 29 30  1  0  0  0  0
 39 40  1  0  0  0  0
 12 44  1  0  0  0  0
  3  4  1  0  0  0  0
  3  5  1  0  0  0  0
  3  6  1  0  0  0  0
 25 26  1  0  0  0  0
 25 27  1  0  0  0  0
 25 28  1  0  0  0  0
 53 56  1  0  0  0  0
 53 57  1  0  0  0  0
 53 58  1  0  0  0  0
 33 36  1  0  0  0  0
 33 37  1  0  0  0  0
 33 38  1  0  0  0  0
 60 62  1  0  0  0  0
 60 63  1  0  0  0  0
 60 64  1  0  0  0  0
 18 20  1  0  0  0  0
 18 21  1  0  0  0  0
 18 22  1  0  0  0  0
 11 15  1  0  0  0  0
 11 16  1  0  0  0  0
 43 47  1  0  0  0  0
 43 48  1  0  0  0  0
 50 55  1  0  0  0  0
  8 14  1  0  0  0  0
 30 35  1  0  0  0  0
 40 46  1  0  0  0  0
 59 61  1  0  0  0  0
 17 19  1  0  0  0  0
  7 13  1  0  0  0  0
 29 34  1  0  0  0  0
 49 54  1  0  0  0  0
 39 45  1  0  0  0  0
M  END
$$$$

  -OEChem-05262214473D

 64 63  0     1  0  0  0  0  0999 V2000
   -1.4379   -6.4981    0.5200 C   0  0  0  0  0  0  0  0  0  0  0  0
   -2.5551   -6.5872    0.0244 O   0  0  0  0  0  0  0  0  0  0  0  0
   -1.1185   -7.2682    1.7582 C   0  0  0  0  0  0  0  0  0  0  0  0
   -1.3420   -6.7007    2.6758 H   0  0  0  0  0  0  0  0  0  0  0  0
   -1.7066   -8.1965    1.8395 H   0  0  0  0  0  0  0  0  0  0  0  0
   -0.0672   -7.5817    1.8602 H   0  0  0  0  0  0  0  0  0  0  0  0
   -0.3885   -5.7323    0.0421 N   0  0  0  0  0  0  0  0  0  0  0  0
   -0.4807   -4.9141   -1.1404 C   0  0  2  0  0  0  0  0  0  0  0  0
    0.8687   -4.9251   -1.8558 C   0  0  0  0  0  0  0  0  0  0  0  0
    1.8708   -5.4613   -1.3870 O   0  0  0  0  0  0  0  0  0  0  0  0
   -0.9943   -3.5048   -0.8353 C   0  0  0  0  0  0  0  0  0  0  0  0
    0.1044   -2.5428    0.2556 S   0  0  0  0  0  0  0  0  0  0  0  0
    0.4922   -5.7480    0.5515 H   0  0  0  0  0  0  0  0  0  0  0  0
   -1.2050   -5.4185   -1.7921 H   0  0  0  0  0  0  0  0  0  0  0  0
   -1.1199   -2.9328   -1.7603 H   0  0  0  0  0  0  0  0  0  0  0  0
   -1.9730   -3.5621   -0.3467 H   0  0  0  0  0  0  0  0  0  0  0  0
    0.8273   -4.2456   -3.0650 N   0  0  0  0  0  0  0  0  0  0  0  0
    1.9855   -4.0963   -3.9148 C   0  0  0  0  0  0  0  0  0  0  0  0
   -0.0557   -3.8691   -3.3969 H   0  0  0  0  0  0  0  0  0  0  0  0
    2.4961   -3.1515   -3.6770 H   0  0  0  0  0  0  0  0  0  0  0  0
    2.6742   -4.9375   -3.7468 H   0  0  0  0  0  0  0  0  0  0  0  0
    1.6685   -4.0867   -4.9681 H   0  0  0  0  0  0  0  0  0  0  0  0
   -6.7256    2.0330   -0.2766 C   0  0  0  0  0  0  0  0  0  0  0  0
   -7.1824    1.1039   -0.9322 O   0  0  0  0  0  0  0  0  0  0  0  0
   -7.5276    2.6077    0.8435 C   0  0  0  0  0  0  0  0  0  0  0  0
   -8.1775    3.4344    0.5145 H   0  0  0  0  0  0  0  0  0  0  0  0
   -8.2057    1.8676    1.2980 H   0  0  0  0  0  0  0  0  0  0  0  0
   -6.9411    3.0162    1.6819 H   0  0  0  0  0  0  0  0  0  0  0  0
   -5.4935    2.6382   -0.4627 N   0  0  0  0  0  0  0  0  0  0  0  0
   -4.5619    2.2388   -1.4845 C   0  0  2  0  0  0  0  0  0  0  0  0
   -3.1535    2.4674   -0.9521 C   0  0  0  0  0  0  0  0  0  0  0  0
   -2.8634    3.3945   -0.1987 O   0  0  0  0  0  0  0  0  0  0  0  0
   -4.7883    3.0138   -2.7732 C   0  0  0  0  0  0  0  0  0  0  0  0
   -5.2337    3.4049    0.1551 H   0  0  0  0  0  0  0  0  0  0  0  0
   -4.7192    1.1682   -1.6549 H   0  0  0  0  0  0  0  0  0  0  0  0
   -4.6352    4.0886   -2.6221 H   0  0  0  0  0  0  0  0  0  0  0  0
   -4.0976    2.6887   -3.5582 H   0  0  0  0  0  0  0  0  0  0  0  0
   -5.8111    2.8719   -3.1387 H   0  0  0  0  0  0  0  0  0  0  0  0
   -2.2466    1.5400   -1.4507 N   0  0  0  0  0  0  0  0  0  0  0  0
   -0.8424    1.5707   -1.1286 C   0  0  2  0  0  0  0  0  0  0  0  0
   -0.1172    2.4330   -2.1597 C   0  0  0  0  0  0  0  0  0  0  0  0
   -0.6564    3.3672   -2.7495 O   0  0  0  0  0  0  0  0  0  0  0  0
   -0.2471    0.1680   -0.9838 C   0  0  0  0  0  0  0  0  0  0  0  0
   -0.9246   -0.7716    0.4057 S   0  0  0  0  0  0  0  0  0  0  0  0
   -2.5850    0.7815   -2.0381 H   0  0  0  0  0  0  0  0  0  0  0  0
   -0.7732    2.0832   -0.1610 H   0  0  0  0  0  0  0  0  0  0  0  0
   -0.4208   -0.4188   -1.8917 H   0  0  0  0  0  0  0  0  0  0  0  0
    0.8362    0.2358   -0.8365 H   0  0  0  0  0  0  0  0  0  0  0  0
    1.1924    2.0207   -2.3608 N   0  0  0  0  0  0  0  0  0  0  0  0
    2.0750    2.6635   -3.3062 C   0  0  2  0  0  0  0  0  0  0  0  0
    3.0171    1.6052   -3.8647 C   0  0  0  0  0  0  0  0  0  0  0  0
    3.4304    0.6572   -3.2002 O   0  0  0  0  0  0  0  0  0  0  0  0
    2.8540    3.7954   -2.6546 C   0  0  0  0  0  0  0  0  0  0  0  0
    1.5706    1.2647   -1.7978 H   0  0  0  0  0  0  0  0  0  0  0  0
    1.4445    3.0541   -4.1124 H   0  0  0  0  0  0  0  0  0  0  0  0
    3.4916    3.4233   -1.8443 H   0  0  0  0  0  0  0  0  0  0  0  0
    3.5015    4.3001   -3.3793 H   0  0  0  0  0  0  0  0  0  0  0  0
    2.1745    4.5407   -2.2273 H   0  0  0  0  0  0  0  0  0  0  0  0
    3.3763    1.8677   -5.1793 N   0  0  0  0  0  0  0  0  0  0  0  0
    4.2947    1.0329   -5.9181 C   0  0  0  0  0  0  0  0  0  0  0  0
    2.9544    2.6535   -5.6652 H   0  0  0  0  0  0  0  0  0  0  0  0
    5.3163    1.4264   -5.8106 H   0  0  0  0  0  0  0  0  0  0  0  0
    4.2541    0.0063   -5.5251 H   0  0  0  0  0  0  0  0  0  0  0  0
    4.0130    1.0299   -6.9814 H   0  0  0  0  0  0  0  0  0  0  0  0
  1  3  1  0  0  0  0
  1  7  1  0  0  0  0
  1  2  2  0  0  0  0
 23 25  1  0  0  0  0
 23 29  1  0  0  0  0
 23 24  2  0  0  0  0
 50 51  1  0  0  0  0
 51 59  1  0  0  0  0
 51 52  2  0  0  0  0
  8  9  1  0  0  0  0
  9 17  1  0  0  0  0
  9 10  2  0  0  0  0
 30 31  1  0  0  0  0
 31 39  1  0  0  0  0
 31 32  2  0  0  0  0
 40 41  1  0  0  0  0
 41 49  1  0  0  0  0
 41 42  2  0  0  0  0
 50 53  1  0  0  0  0
 30 33  1  0  0  0  0
 59 60  1  0  0  0  0
 17 18  1  0  0  0  0
  8 11  1  0  0  0  0
 11 12  1  0  0  0  0
 40 43  1  0  0  0  0
 43 44  1  0  0  0  0
 49 50  1  0  0  0  0
  7  8  1  0  0  0  0
 29 30  1  0  0  0  0
 39 40  1  0  0  0  0
 12 44  1  0  0  0  0
  3  4  1  0  0  0  0
  3  5  1  0  0  0  0
  3  6  1  0  0  0  0
 25 26  1  0  0  0  0
 25 27  1  0  0  0  0
 25 28  1  0  0  0  0
 53 56  1  0  0  0  0
 53 57  1  0  0  0  0
 53 58  1  0  0  0  0
 33 36  1  0  0  0  0
 33 37  1  0  0  0  0
 33 38  1  0  0  0  0
 60 62  1  0  0  0  0
 60 63  1  0  0  0  0
 60 64  1  0  0  0  0
 18 20  1  0  0  0  0
 18 21  1  0  0  0  0
 18 22  1  0  0  0  0
 11 15  1  0  0  0  0
 11 16  1  0  0  0  0
 43 47  1  0  0  0  0
 43 48  1  0  0  0  0
 50 55  1  0  0  0  0
  8 14  1  0  0  0  0
 30 35  1  0  0  0  0
 40 46  1  0  0  0  0
 59 61  1  0  0  0  0
 17 19  1  0  0  0  0
  7 13  1  0  0  0  0
 29 34  1  0  0  0  0
 49 54  1  0  0  0  0
 39 45  1  0  0  0  0
M  END
$$$$

  -OEChem-05262214473D

 64 63  0     1  0  0  0  0  0999 V2000
   -1.4379   -6.4981    0.5200 C   0  0  0  0  0  0  0  0  0  0  0  0
   -2.5551   -6.5872    0.0244 O   0  0  0  0  0  0  0  0  0  0  0  0
   -1.1185   -7.2682    1.7582 C   0  0  0  0  0  0  0  0  0  0  0  0
   -1.3420   -6.7007    2.6758 H   0  0  0  0  0  0  0  0  0  0  0  0
   -1.7066   -8.1965    1.8395 H   0  0  0  0  0  0  0  0  0  0  0  0
   -0.0672   -7.5817    1.8602 H   0  0  0  0  0  0  0  0  0  0  0  0
   -0.3885   -5.7323    0.0421 N   0  0  0  0  0  0  0  0  0  0  0  0
   -0.4807   -4.9141   -1.1404 C   0  0  2  0  0  0  0  0  0  0  0  0
    0.8687   -4.9251   -1.8558 C   0  0  0  0  0  0  0  0  0  0  0  0
    1.8708   -5.4613   -1.3870 O   0  0  0  0  0  0  0  0  0  0  0  0
   -0.9943   -3.5048   -0.8353 C   0  0  0  0  0  0  0  0  0  0  0  0
    0.1044   -2.5428    0.2556 S   0  0  0  0  0  0  0  0  0  0  0  0
    0.4922   -5.7480    0.5515 H   0  0  0  0  0  0  0  0  0  0  0  0
   -1.2050   -5.4185   -1.7921 H   0  0  0  0  0  0  0  0  0  0  0  0
   -1.1199   -2.9328   -1.7603 H   0  0  0  0  0  0  0  0  0  0  0  0
   -1.9730   -3.5621   -0.3467 H   0  0  0  0  0  0  0  0  0  0  0  0
    0.8273   -4.2456   -3.0650 N   0  0  0  0  0  0  0  0  0  0  0  0
    1.9855   -4.0963   -3.9148 C   0  0  0  0  0  0  0  0  0  0  0  0
   -0.0557   -3.8691   -3.3969 H   0  0  0  0  0  0  0  0  0  0  0  0
    2.4961   -3.1515   -3.6770 H   0  0  0  0  0  0  0  0  0  0  0  0
    2.6742   -4.9375   -3.7468 H   0  0  0  0  0  0  0  0  0  0  0  0
    1.6685   -4.0867   -4.9681 H   0  0  0  0  0  0  0  0  0  0  0  0
   -6.7256    2.0330   -0.2766 C   0  0  0  0  0  0  0  0  0  0  0  0
   -7.1824    1.1039   -0.9322 O   0  0  0  0  0  0  0  0  0  0  0  0
   -7.5276    2.6077    0.8435 C   0  0  0  0  0  0  0  0  0  0  0  0
   -8.1775    3.4344    0.5145 H   0  0  0  0  0  0  0  0  0  0  0  0
   -8.2057    1.8676    1.2980 H   0  0  0  0  0  0  0  0  0  0  0  0
   -6.9411    3.0162    1.6819 H   0  0  0  0  0  0  0  0  0  0  0  0
   -5.4935    2.6382   -0.4627 N   0  0  0  0  0  0  0  0  0  0  0  0
   -4.5619    2.2388   -1.4845 C   0  0  2  0  0  0  0  0  0  0  0  0
   -3.1535    2.4674   -0.9521 C   0  0  0  0  0  0  0  0  0  0  0  0
   -2.8634    3.3945   -0.1987 O   0  0  0  0  0  0  0  0  0  0  0  0
   -4.7883    3.0138   -2.7732 C   0  0  0  0  0  0  0  0  0  0  0  0
   -5.2337    3.4049    0.1551 H   0  0  0  0  0  0  0  0  0  0  0  0
   -4.7192    1.1682   -1.6549 H   0  0  0  0  0  0  0  0  0  0  0  0
   -4.6352    4.0886   -2.6221 H   0  0  0  0  0  0  0  0  0  0  0  0
   -4.0976    2.6887   -3.5582 H   0  0  0  0  0  0  0  0  0  0  0  0
   -5.8111    2.8719   -3.1387 H   0  0  0  0  0  0  0  0  0  0  0  0
   -2.2466    1.5400   -1.4507 N   0  0  0  0  0  0  0  0  0  0  0  0
   -0.8424    1.5707   -1.1286 C   0  0  2  0  0  0  0  0  0  0  0  0
   -0.1172    2.4330   -2.1597 C   0  0  0  0  0  0  0  0  0  0  0  0
   -0.5501    3.5150   -2.5512 O   0  0  0  0  0  0  0  0  0  0  0  0
   -0.2471    0.1680   -0.9838 C   0  0  0  0  0  0  0  0  0  0  0  0
   -0.9246   -0.7716    0.4057 S   0  0  0  0  0  0  0  0  0  0  0  0
   -2.5850    0.7815   -2.0381 H   0  0  0  0  0  0  0  0  0  0  0  0
   -0.7732    2.0832   -0.1610 H   0  0  0  0  0  0  0  0  0  0  0  0
   -0.4208   -0.4188   -1.8917 H   0  0  0  0  0  0  0  0  0  0  0  0
    0.8362    0.2358   -0.8365 H   0  0  0  0  0  0  0  0  0  0  0  0
    1.0549    1.8407   -2.6081 N   0  0  0  0  0  0  0  0  0  0  0  0
    1.9045    2.4509   -3.6039 C   0  0  2  0  0  0  0  0  0  0  0  0
    2.5517    1.3370   -4.4162 C   0  0  0  0  0  0  0  0  0  0  0  0
    2.8696    0.2522   -3.9332 O   0  0  0  0  0  0  0  0  0  0  0  0
    2.9593    3.3389   -2.9623 C   0  0  0  0  0  0  0  0  0  0  0  0
    1.3602    0.9631   -2.1979 H   0  0  0  0  0  0  0  0  0  0  0  0
    1.2535    3.0463   -4.2532 H   0  0  0  0  0  0  0  0  0  0  0  0
    3.6211    2.7598   -2.3080 H   0  0  0  0  0  0  0  0  0  0  0  0
    3.5844    3.8231   -3.7197 H   0  0  0  0  0  0  0  0  0  0  0  0
    2.4925    4.1215   -2.3543 H   0  0  0  0  0  0  0  0  0  0  0  0
    2.7720    1.7125   -5.7341 N   0  0  0  0  0  0  0  0  0  0  0  0
    3.4127    0.8454   -6.6951 C   0  0  0  0  0  0  0  0  0  0  0  0
    2.4400    2.6160   -6.0583 H   0  0  0  0  0  0  0  0  0  0  0  0
    4.4942    1.0460   -6.7068 H   0  0  0  0  0  0  0  0  0  0  0  0
    3.2376   -0.2040   -6.4159 H   0  0  0  0  0  0  0  0  0  0  0  0
    2.9942    1.0337   -7.6948 H   0  0  0  0  0  0  0  0  0  0  0  0
  1  3  1  0  0  0  0
  1  7  1  0  0  0  0
  1  2  2  0  0  0  0
 23 25  1  0  0  0  0
 23 29  1  0  0  0  0
 23 24  2  0  0  0  0
 50 51  1  0  0  0  0
 51 59  1  0  0  0  0
 51 52  2  0  0  0  0
  8  9  1  0  0  0  0
  9 17  1  0  0  0  0
  9 10  2  0  0  0  0
 30 31  1  0  0  0  0
 31 39  1  0  0  0  0
 31 32  2  0  0  0  0
 40 41  1  0  0  0  0
 41 49  1  0  0  0  0
 41 42  2  0  0  0  0
 50 53  1  0  0  0  0
 30 33  1  0  0  0  0
 59 60  1  0  0  0  0
 17 18  1  0  0  0  0
  8 11  1  0  0  0  0
 11 12  1  0  0  0  0
 40 43  1  0  0  0  0
 43 44  1  0  0  0  0
 49 50  1  0  0  0  0
  7  8  1  0  0  0  0
 29 30  1  0  0  0  0
 39 40  1  0  0  0  0
 12 44  1  0  0  0  0
  3  4  1  0  0  0  0
  3  5  1  0  0  0  0
  3  6  1  0  0  0  0
 25 26  1  0  0  0  0
 25 27  1  0  0  0  0
 25 28  1  0  0  0  0
 53 56  1  0  0  0  0
 53 57  1  0  0  0  0
 53 58  1  0  0  0  0
 33 36  1  0  0  0  0
 33 37  1  0  0  0  0
 33 38  1  0  0  0  0
 60 62  1  0  0  0  0
 60 63  1  0  0  0  0
 60 64  1  0  0  0  0
 18 20  1  0  0  0  0
 18 21  1  0  0  0  0
 18 22  1  0  0  0  0
 11 15  1  0  0  0  0
 11 16  1  0  0  0  0
 43 47  1  0  0  0  0
 43 48  1  0  0  0  0
 50 55  1  0  0  0  0
  8 14  1  0  0  0  0
 30 35  1  0  0  0  0
 40 46  1  0  0  0  0
 59 61  1  0  0  0  0
 17 19  1  0  0  0  0
  7 13  1  0  0  0  0
 29 34  1  0  0  0  0
 49 54  1  0  0  0  0
 39 45  1  0  0  0  0
M  END
$$$$

  -OEChem-05262214473D

 64 63  0     1  0  0  0  0  0999 V2000
   -1.4379   -6.4981    0.5200 C   0  0  0  0  0  0  0  0  0  0  0  0
   -2.5551   -6.5872    0.0244 O   0  0  0  0  0  0  0  0  0  0  0  0
   -1.1185   -7.2682    1.7582 C   0  0  0  0  0  0  0  0  0  0  0  0
   -1.3420   -6.7007    2.6758 H   0  0  0  0  0  0  0  0  0  0  0  0
   -1.7066   -8.1965    1.8395 H   0  0  0  0  0  0  0  0  0  0  0  0
   -0.0672   -7.5817    1.8602 H   0  0  0  0  0  0  0  0  0  0  0  0
   -0.3885   -5.7323    0.0421 N   0  0  0  0  0  0  0  0  0  0  0  0
   -0.4807   -4.9141   -1.1404 C   0  0  2  0  0  0  0  0  0  0  0  0
    0.8687   -4.9251   -1.8558 C   0  0  0  0  0  0  0  0  0  0  0  0
    1.8708   -5.4613   -1.3870 O   0  0  0  0  0  0  0  0  0  0  0  0
   -0.9943   -3.5048   -0.8353 C   0  0  0  0  0  0  0  0  0  0  0  0
    0.1044   -2.5428    0.2556 S   0  0  0  0  0  0  0  0  0  0  0  0
    0.4922   -5.7480    0.5515 H   0  0  0  0  0  0  0  0  0  0  0  0
   -1.2050   -5.4185   -1.7921 H   0  0  0  0  0  0  0  0  0  0  0  0
   -1.1199   -2.9328   -1.7603 H   0  0  0  0  0  0  0  0  0  0  0  0
   -1.9730   -3.5621   -0.3467 H   0  0  0  0  0  0  0  0  0  0  0  0
    0.8273   -4.2456   -3.0650 N   0  0  0  0  0  0  0  0  0  0  0  0
    1.9855   -4.0963   -3.9148 C   0  0  0  0  0  0  0  0  0  0  0  0
   -0.0557   -3.8691   -3.3969 H   0  0  0  0  0  0  0  0  0  0  0  0
    2.4961   -3.1515   -3.6770 H   0  0  0  0  0  0  0  0  0  0  0  0
    2.6742   -4.9375   -3.7468 H   0  0  0  0  0  0  0  0  0  0  0  0
    1.6685   -4.0867   -4.9681 H   0  0  0  0  0  0  0  0  0  0  0  0
   -6.7256    2.0330   -0.2766 C   0  0  0  0  0  0  0  0  0  0  0  0
   -7.1824    1.1039   -0.9322 O   0  0  0  0  0  0  0  0  0  0  0  0
   -7.5276    2.6077    0.8435 C   0  0  0  0  0  0  0  0  0  0  0  0
   -8.1775    3.4344    0.5145 H   0  0  0  0  0  0  0  0  0  0  0  0
   -8.2057    1.8676    1.2980 H   0  0  0  0  0  0  0  0  0  0  0  0
   -6.9411    3.0162    1.6819 H   0  0  0  0  0  0  0  0  0  0  0  0
   -5.4935    2.6382   -0.4627 N   0  0  0  0  0  0  0  0  0  0  0  0
   -4.5619    2.2388   -1.4845 C   0  0  2  0  0  0  0  0  0  0  0  0
   -3.1535    2.4674   -0.9521 C   0  0  0  0  0  0  0  0  0  0  0  0
   -2.8634    3.3945   -0.1987 O   0  0  0  0  0  0  0  0  0  0  0  0
   -4.7883    3.0138   -2.7732 C   0  0  0  0  0  0  0  0  0  0  0  0
   -5.2337    3.4049    0.1551 H   0  0  0  0  0  0  0  0  0  0  0  0
   -4.7192    1.1682   -1.6549 H   0  0  0  0  0  0  0  0  0  0  0  0
   -4.6352    4.0886   -2.6221 H   0  0  0  0  0  0  0  0  0  0  0  0
   -4.0976    2.6887   -3.5582 H   0  0  0  0  0  0  0  0  0  0  0  0
   -5.8111    2.8719   -3.1387 H   0  0  0  0  0  0  0  0  0  0  0  0
   -2.2466    1.5400   -1.4507 N   0  0  0  0  0  0  0  0  0  0  0  0
   -0.8424    1.5707   -1.1286 C   0  0  2  0  0  0  0  0  0  0  0  0
   -0.1172    2.4330   -2.1597 C   0  0  0  0  0  0  0  0  0  0  0  0
   -0.3927    3.6147   -2.3571 O   0  0  0  0  0  0  0  0  0  0  0  0
   -0.2471    0.1680   -0.9838 C   0  0  0  0  0  0  0  0  0  0  0  0
   -0.9246   -0.7716    0.4057 S   0  0  0  0  0  0  0  0  0  0  0  0
   -2.5850    0.7815   -2.0381 H   0  0  0  0  0  0  0  0  0  0  0  0
   -0.7732    2.0832   -0.1610 H   0  0  0  0  0  0  0  0  0  0  0  0
   -0.4208   -0.4188   -1.8917 H   0  0  0  0  0  0  0  0  0  0  0  0
    0.8362    0.2358   -0.8365 H   0  0  0  0  0  0  0  0  0  0  0  0
    0.8544    1.7213   -2.8489 N   0  0  0  0  0  0  0  0  0  0  0  0
    1.6592    2.3119   -3.8926 C   0  0  2  0  0  0  0  0  0  0  0  0
    1.9747    1.2270   -4.9140 C   0  0  0  0  0  0  0  0  0  0  0  0
    2.1500    0.0492   -4.6090 O   0  0  0  0  0  0  0  0  0  0  0  0
    2.9362    2.9175   -3.3310 C   0  0  0  0  0  0  0  0  0  0  0  0
    1.0458    0.7577   -2.5908 H   0  0  0  0  0  0  0  0  0  0  0  0
    1.0471    3.0895   -4.3622 H   0  0  0  0  0  0  0  0  0  0  0  0
    3.5625    2.1533   -2.8564 H   0  0  0  0  0  0  0  0  0  0  0  0
    3.5314    3.3898   -4.1193 H   0  0  0  0  0  0  0  0  0  0  0  0
    2.7078    3.6765   -2.5750 H   0  0  0  0  0  0  0  0  0  0  0  0
    2.0800    1.7364   -6.2007 N   0  0  0  0  0  0  0  0  0  0  0  0
    2.4145    0.9140   -7.3398 C   0  0  0  0  0  0  0  0  0  0  0  0
    1.8791    2.7180   -6.3675 H   0  0  0  0  0  0  0  0  0  0  0  0
    3.5028    0.9324   -7.4991 H   0  0  0  0  0  0  0  0  0  0  0  0
    2.0887   -0.1201   -7.1536 H   0  0  0  0  0  0  0  0  0  0  0  0
    1.9065    1.3030   -8.2346 H   0  0  0  0  0  0  0  0  0  0  0  0
  1  3  1  0  0  0  0
  1  7  1  0  0  0  0
  1  2  2  0  0  0  0
 23 25  1  0  0  0  0
 23 29  1  0  0  0  0
 23 24  2  0  0  0  0
 50 51  1  0  0  0  0
 51 59  1  0  0  0  0
 51 52  2  0  0  0  0
  8  9  1  0  0  0  0
  9 17  1  0  0  0  0
  9 10  2  0  0  0  0
 30 31  1  0  0  0  0
 31 39  1  0  0  0  0
 31 32  2  0  0  0  0
 40 41  1  0  0  0  0
 41 49  1  0  0  0  0
 41 42  2  0  0  0  0
 50 53  1  0  0  0  0
 30 33  1  0  0  0  0
 59 60  1  0  0  0  0
 17 18  1  0  0  0  0
  8 11  1  0  0  0  0
 11 12  1  0  0  0  0
 40 43  1  0  0  0  0
 43 44  1  0  0  0  0
 49 50  1  0  0  0  0
  7  8  1  0  0  0  0
 29 30  1  0  0  0  0
 39 40  1  0  0  0  0
 12 44  1  0  0  0  0
  3  4  1  0  0  0  0
  3  5  1  0  0  0  0
  3  6  1  0  0  0  0
 25 26  1  0  0  0  0
 25 27  1  0  0  0  0
 25 28  1  0  0  0  0
 53 56  1  0  0  0  0
 53 57  1  0  0  0  0
 53 58  1  0  0  0  0
 33 36  1  0  0  0  0
 33 37  1  0  0  0  0
 33 38  1  0  0  0  0
 60 62  1  0  0  0  0
 60 63  1  0  0  0  0
 60 64  1  0  0  0  0
 18 20  1  0  0  0  0
 18 21  1  0  0  0  0
 18 22  1  0  0  0  0
 11 15  1  0  0  0  0
 11 16  1  0  0  0  0
 43 47  1  0  0  0  0
 43 48  1  0  0  0  0
 50 55  1  0  0  0  0
  8 14  1  0  0  0  0
 30 35  1  0  0  0  0
 40 46  1  0  0  0  0
 59 61  1  0  0  0  0
 17 19  1  0  0  0  0
  7 13  1  0  0  0  0
 29 34  1  0  0  0  0
 49 54  1  0  0  0  0
 39 45  1  0  0  0  0
M  END
$$$$

  -OEChem-05262214473D

 64 63  0     1  0  0  0  0  0999 V2000
   -1.4379   -6.4981    0.5200 C   0  0  0  0  0  0  0  0  0  0  0  0
   -2.5551   -6.5872    0.0244 O   0  0  0  0  0  0  0  0  0  0  0  0
   -1.1185   -7.2682    1.7582 C   0  0  0  0  0  0  0  0  0  0  0  0
   -1.3420   -6.7007    2.6758 H   0  0  0  0  0  0  0  0  0  0  0  0
   -1.7066   -8.1965    1.8395 H   0  0  0  0  0  0  0  0  0  0  0  0
   -0.0672   -7.5817    1.8602 H   0  0  0  0  0  0  0  0  0  0  0  0
   -0.3885   -5.7323    0.0421 N   0  0  0  0  0  0  0  0  0  0  0  0
   -0.4807   -4.9141   -1.1404 C   0  0  2  0  0  0  0  0  0  0  0  0
    0.8687   -4.9251   -1.8558 C   0  0  0  0  0  0  0  0  0  0  0  0
    1.8708   -5.4613   -1.3870 O   0  0  0  0  0  0  0  0  0  0  0  0
   -0.9943   -3.5048   -0.8353 C   0  0  0  0  0  0  0  0  0  0  0  0
    0.1044   -2.5428    0.2556 S   0  0  0  0  0  0  0  0  0  0  0  0
    0.4922   -5.7480    0.5515 H   0  0  0  0  0  0  0  0  0  0  0  0
   -1.2050   -5.4185   -1.7921 H   0  0  0  0  0  0  0  0  0  0  0  0
   -1.1199   -2.9328   -1.7603 H   0  0  0  0  0  0  0  0  0  0  0  0
   -1.9730   -3.5621   -0.3467 H   0  0  0  0  0  0  0  0  0  0  0  0
    0.8273   -4.2456   -3.0650 N   0  0  0  0  0  0  0  0  0  0  0  0
    1.9855   -4.0963   -3.9148 C   0  0  0  0  0  0  0  0  0  0  0  0
   -0.0557   -3.8691   -3.3969 H   0  0  0  0  0  0  0  0  0  0  0  0
    2.4961   -3.1515   -3.6770 H   0  0  0  0  0  0  0  0  0  0  0  0
    2.6742   -4.9375   -3.7468 H   0  0  0  0  0  0  0  0  0  0  0  0
    1.6685   -4.0867   -4.9681 H   0  0  0  0  0  0  0  0  0  0  0  0
   -6.7256    2.0330   -0.2766 C   0  0  0  0  0  0  0  0  0  0  0  0
   -7.1824    1.1039   -0.9322 O   0  0  0  0  0  0  0  0  0  0  0  0
   -7.5276    2.6077    0.8435 C   0  0  0  0  0  0  0  0  0  0  0  0
   -8.1775    3.4344    0.5145 H   0  0  0  0  0  0  0  0  0  0  0  0
   -8.2057    1.8676    1.2980 H   0  0  0  0  0  0  0  0  0  0  0  0
   -6.9411    3.0162    1.6819 H   0  0  0  0  0  0  0  0  0  0  0  0
   -5.4935    2.6382   -0.4627 N   0  0  0  0  0  0  0  0  0  0  0  0
   -4.5619    2.2388   -1.4845 C   0  0  2  0  0  0  0  0  0  0  0  0
   -3.1535    2.4674   -0.9521 C   0  0  0  0  0  0  0  0  0  0  0  0
   -2.8634    3.3945   -0.1987 O   0  0  0  0  0  0  0  0  0  0  0  0
   -4.7883    3.0138   -2.7732 C   0  0  0  0  0  0  0  0  0  0  0  0
   -5.2337    3.4049    0.1551 H   0  0  0  0  0  0  0  0  0  0  0  0
   -4.7192    1.1682   -1.6549 H   0  0  0  0  0  0  0  0  0  0  0  0
   -4.6352    4.0886   -2.6221 H   0  0  0  0  0  0  0  0  0  0  0  0
   -4.0976    2.6887   -3.5582 H   0  0  0  0  0  0  0  0  0  0  0  0
   -5.8111    2.8719   -3.1387 H   0  0  0  0  0  0  0  0  0  0  0  0
   -2.2466    1.5400   -1.4507 N   0  0  0  0  0  0  0  0  0  0  0  0
   -0.8424    1.5707   -1.1286 C   0  0  2  0  0  0  0  0  0  0  0  0
   -0.1172    2.4330   -2.1597 C   0  0  0  0  0  0  0  0  0  0  0  0
   -0.1948    3.6597   -2.1803 O   0  0  0  0  0  0  0  0  0  0  0  0
   -0.2471    0.1680   -0.9838 C   0  0  0  0  0  0  0  0  0  0  0  0
   -0.9246   -0.7716    0.4057 S   0  0  0  0  0  0  0  0  0  0  0  0
   -2.5850    0.7815   -2.0381 H   0  0  0  0  0  0  0  0  0  0  0  0
   -0.7732    2.0832   -0.1610 H   0  0  0  0  0  0  0  0  0  0  0  0
   -0.4208   -0.4188   -1.8917 H   0  0  0  0  0  0  0  0  0  0  0  0
    0.8362    0.2358   -0.8365 H   0  0  0  0  0  0  0  0  0  0  0  0
    0.6047    1.6705   -3.0669 N   0  0  0  0  0  0  0  0  0  0  0  0
    1.3558    2.2559   -4.1528 C   0  0  2  0  0  0  0  0  0  0  0  0
    1.3254    1.2828   -5.3240 C   0  0  0  0  0  0  0  0  0  0  0  0
    1.3207    0.0618   -5.1816 O   0  0  0  0  0  0  0  0  0  0  0  0
    2.7863    2.5597   -3.7355 C   0  0  0  0  0  0  0  0  0  0  0  0
    0.6488    0.6626   -2.9495 H   0  0  0  0  0  0  0  0  0  0  0  0
    0.8394    3.1807   -4.4321 H   0  0  0  0  0  0  0  0  0  0  0  0
    3.3198    1.6450   -3.4521 H   0  0  0  0  0  0  0  0  0  0  0  0
    3.3462    3.0296   -4.5508 H   0  0  0  0  0  0  0  0  0  0  0  0
    2.8058    3.2362   -2.8743 H   0  0  0  0  0  0  0  0  0  0  0  0
    1.3476    1.9378   -6.5474 N   0  0  0  0  0  0  0  0  0  0  0  0
    1.3681    1.2338   -7.8083 C   0  0  0  0  0  0  0  0  0  0  0  0
    1.3099    2.9525   -6.5716 H   0  0  0  0  0  0  0  0  0  0  0  0
    2.4094    1.0932   -8.1335 H   0  0  0  0  0  0  0  0  0  0  0  0
    0.8859    0.2524   -7.6880 H   0  0  0  0  0  0  0  0  0  0  0  0
    0.8240    1.8195   -8.5639 H   0  0  0  0  0  0  0  0  0  0  0  0
  1  3  1  0  0  0  0
  1  7  1  0  0  0  0
  1  2  2  0  0  0  0
 23 25  1  0  0  0  0
 23 29  1  0  0  0  0
 23 24  2  0  0  0  0
 50 51  1  0  0  0  0
 51 59  1  0  0  0  0
 51 52  2  0  0  0  0
  8  9  1  0  0  0  0
  9 17  1  0  0  0  0
  9 10  2  0  0  0  0
 30 31  1  0  0  0  0
 31 39  1  0  0  0  0
 31 32  2  0  0  0  0
 40 41  1  0  0  0  0
 41 49  1  0  0  0  0
 41 42  2  0  0  0  0
 50 53  1  0  0  0  0
 30 33  1  0  0  0  0
 59 60  1  0  0  0  0
 17 18  1  0  0  0  0
  8 11  1  0  0  0  0
 11 12  1  0  0  0  0
 40 43  1  0  0  0  0
 43 44  1  0  0  0  0
 49 50  1  0  0  0  0
  7  8  1  0  0  0  0
 29 30  1  0  0  0  0
 39 40  1  0  0  0  0
 12 44  1  0  0  0  0
  3  4  1  0  0  0  0
  3  5  1  0  0  0  0
  3  6  1  0  0  0  0
 25 26  1  0  0  0  0
 25 27  1  0  0  0  0
 25 28  1  0  0  0  0
 53 56  1  0  0  0  0
 53 57  1  0  0  0  0
 53 58  1  0  0  0  0
 33 36  1  0  0  0  0
 33 37  1  0  0  0  0
 33 38  1  0  0  0  0
 60 62  1  0  0  0  0
 60 63  1  0  0  0  0
 60 64  1  0  0  0  0
 18 20  1  0  0  0  0
 18 21  1  0  0  0  0
 18 22  1  0  0  0  0
 11 15  1  0  0  0  0
 11 16  1  0  0  0  0
 43 47  1  0  0  0  0
 43 48  1  0  0  0  0
 50 55  1  0  0  0  0
  8 14  1  0  0  0  0
 30 35  1  0  0  0  0
 40 46  1  0  0  0  0
 59 61  1  0  0  0  0
 17 19  1  0  0  0  0
  7 13  1  0  0  0  0
 29 34  1  0  0  0  0
 49 54  1  0  0  0  0
 39 45  1  0  0  0  0
M  END
$$$$

  -OEChem-05262214473D

 64 63  0     1  0  0  0  0  0999 V2000
   -1.4379   -6.4981    0.5200 C   0  0  0  0  0  0  0  0  0  0  0  0
   -2.5551   -6.5872    0.0244 O   0  0  0  0  0  0  0  0  0  0  0  0
   -1.1185   -7.2682    1.7582 C   0  0  0  0  0  0  0  0  0  0  0  0
   -1.3420   -6.7007    2.6758 H   0  0  0  0  0  0  0  0  0  0  0  0
   -1.7066   -8.1965    1.8395 H   0  0  0  0  0  0  0  0  0  0  0  0
   -0.0672   -7.5817    1.8602 H   0  0  0  0  0  0  0  0  0  0  0  0
   -0.3885   -5.7323    0.0421 N   0  0  0  0  0  0  0  0  0  0  0  0
   -0.4807   -4.9141   -1.1404 C   0  0  2  0  0  0  0  0  0  0  0  0
    0.8687   -4.9251   -1.8558 C   0  0  0  0  0  0  0  0  0  0  0  0
    1.8708   -5.4613   -1.3870 O   0  0  0  0  0  0  0  0  0  0  0  0
   -0.9943   -3.5048   -0.8353 C   0  0  0  0  0  0  0  0  0  0  0  0
    0.1044   -2.5428    0.2556 S   0  0  0  0  0  0  0  0  0  0  0  0
    0.4922   -5.7480    0.5515 H   0  0  0  0  0  0  0  0  0  0  0  0
   -1.2050   -5.4185   -1.7921 H   0  0  0  0  0  0  0  0  0  0  0  0
   -1.1199   -2.9328   -1.7603 H   0  0  0  0  0  0  0  0  0  0  0  0
   -1.9730   -3.5621   -0.3467 H   0  0  0  0  0  0  0  0  0  0  0  0
    0.8273   -4.2456   -3.0650 N   0  0  0  0  0  0  0  0  0  0  0  0
    1.9855   -4.0963   -3.9148 C   0  0  0  0  0  0  0  0  0  0  0  0
   -0.0557   -3.8691   -3.3969 H   0  0  0  0  0  0  0  0  0  0  0  0
    2.4961   -3.1515   -3.6770 H   0  0  0  0  0  0  0  0  0  0  0  0
    2.6742   -4.9375   -3.7468 H   0  0  0  0  0  0  0  0  0  0  0  0
    1.6685   -4.0867   -4.9681 H   0  0  0  0  0  0  0  0  0  0  0  0
   -6.7256    2.0330   -0.2766 C   0  0  0  0  0  0  0  0  0  0  0  0
   -7.1824    1.1039   -0.9322 O   0  0  0  0  0  0  0  0  0  0  0  0
   -7.5276    2.6077    0.8435 C   0  0  0  0  0  0  0  0  0  0  0  0
   -8.1775    3.4344    0.5145 H   0  0  0  0  0  0  0  0  0  0  0  0
   -8.2057    1.8676    1.2980 H   0  0  0  0  0  0  0  0  0  0  0  0
   -6.9411    3.0162    1.6819 H   0  0  0  0  0  0  0  0  0  0  0  0
   -5.4935    2.6382   -0.4627 N   0  0  0  0  0  0  0  0  0  0  0  0
   -4.5619    2.2388   -1.4845 C   0  0  2  0  0  0  0  0  0  0  0  0
   -3.1535    2.4674   -0.9521 C   0  0  0  0  0  0  0  0  0  0  0  0
   -2.8634    3.3945   -0.1987 O   0  0  0  0  0  0  0  0  0  0  0  0
   -4.7883    3.0138   -2.7732 C   0  0  0  0  0  0  0  0  0  0  0  0
   -5.2337    3.4049    0.1551 H   0  0  0  0  0  0  0  0  0  0  0  0
   -4.7192    1.1682   -1.6549 H   0  0  0  0  0  0  0  0  0  0  0  0
   -4.6352    4.0886   -2.6221 H   0  0  0  0  0  0  0  0  0  0  0  0
   -4.0976    2.6887   -3.5582 H   0  0  0  0  0  0  0  0  0  0  0  0
   -5.8111    2.8719   -3.1387 H   0  0  0  0  0  0  0  0  0  0  0  0
   -2.2466    1.5400   -1.4507 N   0  0  0  0  0  0  0  0  0  0  0  0
   -0.8424    1.5707   -1.1286 C   0  0  2  0  0  0  0  0  0  0  0  0
   -0.1172    2.4330   -2.1597 C   0  0  0  0  0  0  0  0  0  0  0  0
    0.0300    3.6469   -2.0329 O   0  0  0  0  0  0  0  0  0  0  0  0
   -0.2471    0.1680   -0.9838 C   0  0  0  0  0  0  0  0  0  0  0  0
   -0.9246   -0.7716    0.4057 S   0  0  0  0  0  0  0  0  0  0  0  0
   -2.5850    0.7815   -2.0381 H   0  0  0  0  0  0  0  0  0  0  0  0
   -0.7732    2.0832   -0.1610 H   0  0  0  0  0  0  0  0  0  0  0  0
   -0.4208   -0.4188   -1.8917 H   0  0  0  0  0  0  0  0  0  0  0  0
    0.8362    0.2358   -0.8365 H   0  0  0  0  0  0  0  0  0  0  0  0
    0.3229    1.6919   -3.2473 N   0  0  0  0  0  0  0  0  0  0  0  0
    1.0149    2.2869   -4.3666 C   0  0  2  0  0  0  0  0  0  0  0  0
    0.6481    1.5006   -5.6182 C   0  0  0  0  0  0  0  0  0  0  0  0
    0.4383    0.2894   -5.6120 O   0  0  0  0  0  0  0  0  0  0  0  0
    2.5200    2.2900   -4.1483 C   0  0  0  0  0  0  0  0  0  0  0  0
    0.1962    0.6841   -3.2498 H   0  0  0  0  0  0  0  0  0  0  0  0
    0.6444    3.3137   -4.4580 H   0  0  0  0  0  0  0  0  0  0  0  0
    2.9095    1.2697   -4.0544 H   0  0  0  0  0  0  0  0  0  0  0  0
    3.0412    2.7671   -4.9848 H   0  0  0  0  0  0  0  0  0  0  0  0
    2.7797    2.8306   -3.2318 H   0  0  0  0  0  0  0  0  0  0  0  0
    0.6247    2.3029   -6.7505 N   0  0  0  0  0  0  0  0  0  0  0  0
    0.3447    1.7832   -8.0686 C   0  0  0  0  0  0  0  0  0  0  0  0
    0.7713    3.3036   -6.6569 H   0  0  0  0  0  0  0  0  0  0  0  0
    1.2888    1.5176   -8.5668 H   0  0  0  0  0  0  0  0  0  0  0  0
   -0.2889    0.8881   -7.9827 H   0  0  0  0  0  0  0  0  0  0  0  0
   -0.1795    2.5480   -8.6604 H   0  0  0  0  0  0  0  0  0  0  0  0
  1  3  1  0  0  0  0
  1  7  1  0  0  0  0
  1  2  2  0  0  0  0
 23 25  1  0  0  0  0
 23 29  1  0  0  0  0
 23 24  2  0  0  0  0
 50 51  1  0  0  0  0
 51 59  1  0  0  0  0
 51 52  2  0  0  0  0
  8  9  1  0  0  0  0
  9 17  1  0  0  0  0
  9 10  2  0  0  0  0
 30 31  1  0  0  0  0
 31 39  1  0  0  0  0
 31 32  2  0  0  0  0
 40 41  1  0  0  0  0
 41 49  1  0  0  0  0
 41 42  2  0  0  0  0
 50 53  1  0  0  0  0
 30 33  1  0  0  0  0
 59 60  1  0  0  0  0
 17 18  1  0  0  0  0
  8 11  1  0  0  0  0
 11 12  1  0  0  0  0
 40 43  1  0  0  0  0
 43 44  1  0  0  0  0
 49 50  1  0  0  0  0
  7  8  1  0  0  0  0
 29 30  1  0  0  0  0
 39 40  1  0  0  0  0
 12 44  1  0  0  0  0
  3  4  1  0  0  0  0
  3  5  1  0  0  0  0
  3  6  1  0  0  0  0
 25 26  1  0  0  0  0
 25 27  1  0  0  0  0
 25 28  1  0  0  0  0
 53 56  1  0  0  0  0
 53 57  1  0  0  0  0
 53 58  1  0  0  0  0
 33 36  1  0  0  0  0
 33 37  1  0  0  0  0
 33 38  1  0  0  0  0
 60 62  1  0  0  0  0
 60 63  1  0  0  0  0
 60 64  1  0  0  0  0
 18 20  1  0  0  0  0
 18 21  1  0  0  0  0
 18 22  1  0  0  0  0
 11 15  1  0  0  0  0
 11 16  1  0  0  0  0
 43 47  1  0  0  0  0
 43 48  1  0  0  0  0
 50 55  1  0  0  0  0
  8 14  1  0  0  0  0
 30 35  1  0  0  0  0
 40 46  1  0  0  0  0
 59 61  1  0  0  0  0
 17 19  1  0  0  0  0
  7 13  1  0  0  0  0
 29 34  1  0  0  0  0
 49 54  1  0  0  0  0
 39 45  1  0  0  0  0
M  END
$$$$

  -OEChem-05262214473D

 64 63  0     1  0  0  0  0  0999 V2000
   -1.4379   -6.4981    0.5200 C   0  0  0  0  0  0  0  0  0  0  0  0
   -2.5551   -6.5872    0.0244 O   0  0  0  0  0  0  0  0  0  0  0  0
   -1.1185   -7.2682    1.7582 C   0  0  0  0  0  0  0  0  0  0  0  0
   -1.3420   -6.7007    2.6758 H   0  0  0  0  0  0  0  0  0  0  0  0
   -1.7066   -8.1965    1.8395 H   0  0  0  0  0  0  0  0  0  0  0  0
   -0.0672   -7.5817    1.8602 H   0  0  0  0  0  0  0  0  0  0  0  0
   -0.3885   -5.7323    0.0421 N   0  0  0  0  0  0  0  0  0  0  0  0
   -0.4807   -4.9141   -1.1404 C   0  0  2  0  0  0  0  0  0  0  0  0
    0.8687   -4.9251   -1.8558 C   0  0  0  0  0  0  0  0  0  0  0  0
    1.8708   -5.4613   -1.3870 O   0  0  0  0  0  0  0  0  0  0  0  0
   -0.9943   -3.5048   -0.8353 C   0  0  0  0  0  0  0  0  0  0  0  0
    0.1044   -2.5428    0.2556 S   0  0  0  0  0  0  0  0  0  0  0  0
    0.4922   -5.7480    0.5515 H   0  0  0  0  0  0  0  0  0  0  0  0
   -1.2050   -5.4185   -1.7921 H   0  0  0  0  0  0  0  0  0  0  0  0
   -1.1199   -2.9328   -1.7603 H   0  0  0  0  0  0  0  0  0  0  0  0
   -1.9730   -3.5621   -0.3467 H   0  0  0  0  0  0  0  0  0  0  0  0
    0.8273   -4.2456   -3.0650 N   0  0  0  0  0  0  0  0  0  0  0  0
    1.9855   -4.0963   -3.9148 C   0  0  0  0  0  0  0  0  0  0  0  0
   -0.0557   -3.8691   -3.3969 H   0  0  0  0  0  0  0  0  0  0  0  0
    2.4961   -3.1515   -3.6770 H   0  0  0  0  0  0  0  0  0  0  0  0
    2.6742   -4.9375   -3.7468 H   0  0  0  0  0  0  0  0  0  0  0  0
    1.6685   -4.0867   -4.9681 H   0  0  0  0  0  0  0  0  0  0  0  0
   -6.7256    2.0330   -0.2766 C   0  0  0  0  0  0  0  0  0  0  0  0
   -7.1824    1.1039   -0.9322 O   0  0  0  0  0  0  0  0  0  0  0  0
   -7.5276    2.6077    0.8435 C   0  0  0  0  0  0  0  0  0  0  0  0
   -8.1775    3.4344    0.5145 H   0  0  0  0  0  0  0  0  0  0  0  0
   -8.2057    1.8676    1.2980 H   0  0  0  0  0  0  0  0  0  0  0  0
   -6.9411    3.0162    1.6819 H   0  0  0  0  0  0  0  0  0  0  0  0
   -5.4935    2.6382   -0.4627 N   0  0  0  0  0  0  0  0  0  0  0  0
   -4.5619    2.2388   -1.4845 C   0  0  2  0  0  0  0  0  0  0  0  0
   -3.1535    2.4674   -0.9521 C   0  0  0  0  0  0  0  0  0  0  0  0
   -2.8634    3.3945   -0.1987 O   0  0  0  0  0  0  0  0  0  0  0  0
   -4.7883    3.0138   -2.7732 C   0  0  0  0  0  0  0  0  0  0  0  0
   -5.2337    3.4049    0.1551 H   0  0  0  0  0  0  0  0  0  0  0  0
   -4.7192    1.1682   -1.6549 H   0  0  0  0  0  0  0  0  0  0  0  0
   -4.6352    4.0886   -2.6221 H   0  0  0  0  0  0  0  0  0  0  0  0
   -4.0976    2.6887   -3.5582 H   0  0  0  0  0  0  0  0  0  0  0  0
   -5.8111    2.8719   -3.1387 H   0  0  0  0  0  0  0  0  0  0  0  0
   -2.2466    1.5400   -1.4507 N   0  0  0  0  0  0  0  0  0  0  0  0
   -0.8424    1.5707   -1.1286 C   0  0  2  0  0  0  0  0  0  0  0  0
   -0.1172    2.4330   -2.1597 C   0  0  0  0  0  0  0  0  0  0  0  0
    0.2665    3.5771   -1.9250 O   0  0  0  0  0  0  0  0  0  0  0  0
   -0.2471    0.1680   -0.9838 C   0  0  0  0  0  0  0  0  0  0  0  0
   -0.9246   -0.7716    0.4057 S   0  0  0  0  0  0  0  0  0  0  0  0
   -2.5850    0.7815   -2.0381 H   0  0  0  0  0  0  0  0  0  0  0  0
   -0.7732    2.0832   -0.1610 H   0  0  0  0  0  0  0  0  0  0  0  0
   -0.4208   -0.4188   -1.8917 H   0  0  0  0  0  0  0  0  0  0  0  0
    0.8362    0.2358   -0.8365 H   0  0  0  0  0  0  0  0  0  0  0  0
    0.0279    1.7840   -3.3777 N   0  0  0  0  0  0  0  0  0  0  0  0
    0.6598    2.4026   -4.5195 C   0  0  2  0  0  0  0  0  0  0  0  0
   -0.0112    1.8654   -5.7768 C   0  0  0  0  0  0  0  0  0  0  0  0
   -0.4373    0.7162   -5.8708 O   0  0  0  0  0  0  0  0  0  0  0  0
    2.1552    2.1268   -4.5413 C   0  0  0  0  0  0  0  0  0  0  0  0
   -0.2810    0.8209   -3.4710 H   0  0  0  0  0  0  0  0  0  0  0  0
    0.4755    3.4794   -4.4382 H   0  0  0  0  0  0  0  0  0  0  0  0
    2.3595    1.0529   -4.6225 H   0  0  0  0  0  0  0  0  0  0  0  0
    2.6373    2.6201   -5.3917 H   0  0  0  0  0  0  0  0  0  0  0  0
    2.6314    2.4872   -3.6231 H   0  0  0  0  0  0  0  0  0  0  0  0
   -0.0394    2.8068   -6.7962 N   0  0  0  0  0  0  0  0  0  0  0  0
   -0.5858    2.5246   -8.1030 C   0  0  0  0  0  0  0  0  0  0  0  0
    0.3000    3.7473   -6.6173 H   0  0  0  0  0  0  0  0  0  0  0  0
    0.2172    2.1765   -8.7694 H   0  0  0  0  0  0  0  0  0  0  0  0
   -1.3556    1.7436   -8.0176 H   0  0  0  0  0  0  0  0  0  0  0  0
   -1.0355    3.4390   -8.5175 H   0  0  0  0  0  0  0  0  0  0  0  0
  1  3  1  0  0  0  0
  1  7  1  0  0  0  0
  1  2  2  0  0  0  0
 23 25  1  0  0  0  0
 23 29  1  0  0  0  0
 23 24  2  0  0  0  0
 50 51  1  0  0  0  0
 51 59  1  0  0  0  0
 51 52  2  0  0  0  0
  8  9  1  0  0  0  0
  9 17  1  0  0  0  0
  9 10  2  0  0  0  0
 30 31  1  0  0  0  0
 31 39  1  0  0  0  0
 31 32  2  0  0  0  0
 40 41  1  0  0  0  0
 41 49  1  0  0  0  0
 41 42  2  0  0  0  0
 50 53  1  0  0  0  0
 30 33  1  0  0  0  0
 59 60  1  0  0  0  0
 17 18  1  0  0  0  0
  8 11  1  0  0  0  0
 11 12  1  0  0  0  0
 40 43  1  0  0  0  0
 43 44  1  0  0  0  0
 49 50  1  0  0  0  0
  7  8  1  0  0  0  0
 29 30  1  0  0  0  0
 39 40  1  0  0  0  0
 12 44  1  0  0  0  0
  3  4  1  0  0  0  0
  3  5  1  0  0  0  0
  3  6  1  0  0  0  0
 25 26  1  0  0  0  0
 25 27  1  0  0  0  0
 25 28  1  0  0  0  0
 53 56  1  0  0  0  0
 53 57  1  0  0  0  0
 53 58  1  0  0  0  0
 33 36  1  0  0  0  0
 33 37  1  0  0  0  0
 33 38  1  0  0  0  0
 60 62  1  0  0  0  0
 60 63  1  0  0  0  0
 60 64  1  0  0  0  0
 18 20  1  0  0  0  0
 18 21  1  0  0  0  0
 18 22  1  0  0  0  0
 11 15  1  0  0  0  0
 11 16  1  0  0  0  0
 43 47  1  0  0  0  0
 43 48  1  0  0  0  0
 50 55  1  0  0  0  0
  8 14  1  0  0  0  0
 30 35  1  0  0  0  0
 40 46  1  0  0  0  0
 59 61  1  0  0  0  0
 17 19  1  0  0  0  0
  7 13  1  0  0  0  0
 29 34  1  0  0  0  0
 49 54  1  0  0  0  0
 39 45  1  0  0  0  0
M  END
$$$$

  -OEChem-05262214473D

 64 63  0     1  0  0  0  0  0999 V2000
   -1.4379   -6.4981    0.5200 C   0  0  0  0  0  0  0  0  0  0  0  0
   -2.5551   -6.5872    0.0244 O   0  0  0  0  0  0  0  0  0  0  0  0
   -1.1185   -7.2682    1.7582 C   0  0  0  0  0  0  0  0  0  0  0  0
   -1.3420   -6.7007    2.6758 H   0  0  0  0  0  0  0  0  0  0  0  0
   -1.7066   -8.1965    1.8395 H   0  0  0  0  0  0  0  0  0  0  0  0
   -0.0672   -7.5817    1.8602 H   0  0  0  0  0  0  0  0  0  0  0  0
   -0.3885   -5.7323    0.0421 N   0  0  0  0  0  0  0  0  0  0  0  0
   -0.4807   -4.9141   -1.1404 C   0  0  2  0  0  0  0  0  0  0  0  0
    0.8687   -4.9251   -1.8558 C   0  0  0  0  0  0  0  0  0  0  0  0
    1.8708   -5.4613   -1.3870 O   0  0  0  0  0  0  0  0  0  0  0  0
   -0.9943   -3.5048   -0.8353 C   0  0  0  0  0  0  0  0  0  0  0  0
    0.1044   -2.5428    0.2556 S   0  0  0  0  0  0  0  0  0  0  0  0
    0.4922   -5.7480    0.5515 H   0  0  0  0  0  0  0  0  0  0  0  0
   -1.2050   -5.4185   -1.7921 H   0  0  0  0  0  0  0  0  0  0  0  0
   -1.1199   -2.9328   -1.7603 H   0  0  0  0  0  0  0  0  0  0  0  0
   -1.9730   -3.5621   -0.3467 H   0  0  0  0  0  0  0  0  0  0  0  0
    0.8273   -4.2456   -3.0650 N   0  0  0  0  0  0  0  0  0  0  0  0
    1.9855   -4.0963   -3.9148 C   0  0  0  0  0  0  0  0  0  0  0  0
   -0.0557   -3.8691   -3.3969 H   0  0  0  0  0  0  0  0  0  0  0  0
    2.4961   -3.1515   -3.6770 H   0  0  0  0  0  0  0  0  0  0  0  0
    2.6742   -4.9375   -3.7468 H   0  0  0  0  0  0  0  0  0  0  0  0
    1.6685   -4.0867   -4.9681 H   0  0  0  0  0  0  0  0  0  0  0  0
   -6.7256    2.0330   -0.2766 C   0  0  0  0  0  0  0  0  0  0  0  0
   -7.1824    1.1039   -0.9322 O   0  0  0  0  0  0  0  0  0  0  0  0
   -7.5276    2.6077    0.8435 C   0  0  0  0  0  0  0  0  0  0  0  0
   -8.1775    3.4344    0.5145 H   0  0  0  0  0  0  0  0  0  0  0  0
   -8.2057    1.8676    1.2980 H   0  0  0  0  0  0  0  0  0  0  0  0
   -6.9411    3.0162    1.6819 H   0  0  0  0  0  0  0  0  0  0  0  0
   -5.4935    2.6382   -0.4627 N   0  0  0  0  0  0  0  0  0  0  0  0
   -4.5619    2.2388   -1.4845 C   0  0  2  0  0  0  0  0  0  0  0  0
   -3.1535    2.4674   -0.9521 C   0  0  0  0  0  0  0  0  0  0  0  0
   -2.8634    3.3945   -0.1987 O   0  0  0  0  0  0  0  0  0  0  0  0
   -4.7883    3.0138   -2.7732 C   0  0  0  0  0  0  0  0  0  0  0  0
   -5.2337    3.4049    0.1551 H   0  0  0  0  0  0  0  0  0  0  0  0
   -4.7192    1.1682   -1.6549 H   0  0  0  0  0  0  0  0  0  0  0  0
   -4.6352    4.0886   -2.6221 H   0  0  0  0  0  0  0  0  0  0  0  0
   -4.0976    2.6887   -3.5582 H   0  0  0  0  0  0  0  0  0  0  0  0
   -5.8111    2.8719   -3.1387 H   0  0  0  0  0  0  0  0  0  0  0  0
   -2.2466    1.5400   -1.4507 N   0  0  0  0  0  0  0  0  0  0  0  0
   -0.8424    1.5707   -1.1286 C   0  0  2  0  0  0  0  0  0  0  0  0
   -0.1172    2.4330   -2.1597 C   0  0  0  0  0  0  0  0  0  0  0  0
    0.4985    3.4551   -1.8639 O   0  0  0  0  0  0  0  0  0  0  0  0
   -0.2471    0.1680   -0.9838 C   0  0  0  0  0  0  0  0  0  0  0  0
   -0.9246   -0.7716    0.4057 S   0  0  0  0  0  0  0  0  0  0  0  0
   -2.5850    0.7815   -2.0381 H   0  0  0  0  0  0  0  0  0  0  0  0
   -0.7732    2.0832   -0.1610 H   0  0  0  0  0  0  0  0  0  0  0  0
   -0.4208   -0.4188   -1.8917 H   0  0  0  0  0  0  0  0  0  0  0  0
    0.8362    0.2358   -0.8365 H   0  0  0  0  0  0  0  0  0  0  0  0
   -0.2599    1.9405   -3.4492 N   0  0  0  0  0  0  0  0  0  0  0  0
    0.3147    2.5953   -4.6011 C   0  0  2  0  0  0  0  0  0  0  0  0
   -0.6073    2.3525   -5.7887 C   0  0  0  0  0  0  0  0  0  0  0  0
   -1.2462    1.3133   -5.9404 O   0  0  0  0  0  0  0  0  0  0  0  0
    1.7170    2.0812   -4.8877 C   0  0  0  0  0  0  0  0  0  0  0  0
   -0.7503    1.0636   -3.5981 H   0  0  0  0  0  0  0  0  0  0  0  0
    0.3443    3.6665   -4.3740 H   0  0  0  0  0  0  0  0  0  0  0  0
    1.7075    1.0094   -5.1174 H   0  0  0  0  0  0  0  0  0  0  0  0
    2.1621    2.5987   -5.7438 H   0  0  0  0  0  0  0  0  0  0  0  0
    2.3710    2.2296   -4.0217 H   0  0  0  0  0  0  0  0  0  0  0  0
   -0.5995    3.4152   -6.6813 N   0  0  0  0  0  0  0  0  0  0  0  0
   -1.3601    3.4077   -7.9091 C   0  0  0  0  0  0  0  0  0  0  0  0
   -0.0720    4.2534   -6.4558 H   0  0  0  0  0  0  0  0  0  0  0  0
   -0.7324    3.0252   -8.7275 H   0  0  0  0  0  0  0  0  0  0  0  0
   -2.2417    2.7606   -7.7903 H   0  0  0  0  0  0  0  0  0  0  0  0
   -1.6858    4.4316   -8.1448 H   0  0  0  0  0  0  0  0  0  0  0  0
  1  3  1  0  0  0  0
  1  7  1  0  0  0  0
  1  2  2  0  0  0  0
 23 25  1  0  0  0  0
 23 29  1  0  0  0  0
 23 24  2  0  0  0  0
 50 51  1  0  0  0  0
 51 59  1  0  0  0  0
 51 52  2  0  0  0  0
  8  9  1  0  0  0  0
  9 17  1  0  0  0  0
  9 10  2  0  0  0  0
 30 31  1  0  0  0  0
 31 39  1  0  0  0  0
 31 32  2  0  0  0  0
 40 41  1  0  0  0  0
 41 49  1  0  0  0  0
 41 42  2  0  0  0  0
 50 53  1  0  0  0  0
 30 33  1  0  0  0  0
 59 60  1  0  0  0  0
 17 18  1  0  0  0  0
  8 11  1  0  0  0  0
 11 12  1  0  0  0  0
 40 43  1  0  0  0  0
 43 44  1  0  0  0  0
 49 50  1  0  0  0  0
  7  8  1  0  0  0  0
 29 30  1  0  0  0  0
 39 40  1  0  0  0  0
 12 44  1  0  0  0  0
  3  4  1  0  0  0  0
  3  5  1  0  0  0  0
  3  6  1  0  0  0  0
 25 26  1  0  0  0  0
 25 27  1  0  0  0  0
 25 28  1  0  0  0  0
 53 56  1  0  0  0  0
 53 57  1  0  0  0  0
 53 58  1  0  0  0  0
 33 36  1  0  0  0  0
 33 37  1  0  0  0  0
 33 38  1  0  0  0  0
 60 62  1  0  0  0  0
 60 63  1  0  0  0  0
 60 64  1  0  0  0  0
 18 20  1  0  0  0  0
 18 21  1  0  0  0  0
 18 22  1  0  0  0  0
 11 15  1  0  0  0  0
 11 16  1  0  0  0  0
 43 47  1  0  0  0  0
 43 48  1  0  0  0  0
 50 55  1  0  0  0  0
  8 14  1  0  0  0  0
 30 35  1  0  0  0  0
 40 46  1  0  0  0  0
 59 61  1  0  0  0  0
 17 19  1  0  0  0  0
  7 13  1  0  0  0  0
 29 34  1  0  0  0  0
 49 54  1  0  0  0  0
 39 45  1  0  0  0  0
M  END
$$$$

  -OEChem-05262214473D

 64 63  0     1  0  0  0  0  0999 V2000
   -1.4379   -6.4981    0.5200 C   0  0  0  0  0  0  0  0  0  0  0  0
   -2.5551   -6.5872    0.0244 O   0  0  0  0  0  0  0  0  0  0  0  0
   -1.1185   -7.2682    1.7582 C   0  0  0  0  0  0  0  0  0  0  0  0
   -1.3420   -6.7007    2.6758 H   0  0  0  0  0  0  0  0  0  0  0  0
   -1.7066   -8.1965    1.8395 H   0  0  0  0  0  0  0  0  0  0  0  0
   -0.0672   -7.5817    1.8602 H   0  0  0  0  0  0  0  0  0  0  0  0
   -0.3885   -5.7323    0.0421 N   0  0  0  0  0  0  0  0  0  0  0  0
   -0.4807   -4.9141   -1.1404 C   0  0  2  0  0  0  0  0  0  0  0  0
    0.8687   -4.9251   -1.8558 C   0  0  0  0  0  0  0  0  0  0  0  0
    1.8708   -5.4613   -1.3870 O   0  0  0  0  0  0  0  0  0  0  0  0
   -0.9943   -3.5048   -0.8353 C   0  0  0  0  0  0  0  0  0  0  0  0
    0.1044   -2.5428    0.2556 S   0  0  0  0  0  0  0  0  0  0  0  0
    0.4922   -5.7480    0.5515 H   0  0  0  0  0  0  0  0  0  0  0  0
   -1.2050   -5.4185   -1.7921 H   0  0  0  0  0  0  0  0  0  0  0  0
   -1.1199   -2.9328   -1.7603 H   0  0  0  0  0  0  0  0  0  0  0  0
   -1.9730   -3.5621   -0.3467 H   0  0  0  0  0  0  0  0  0  0  0  0
    0.8273   -4.2456   -3.0650 N   0  0  0  0  0  0  0  0  0  0  0  0
    1.9855   -4.0963   -3.9148 C   0  0  0  0  0  0  0  0  0  0  0  0
   -0.0557   -3.8691   -3.3969 H   0  0  0  0  0  0  0  0  0  0  0  0
    2.4961   -3.1515   -3.6770 H   0  0  0  0  0  0  0  0  0  0  0  0
    2.6742   -4.9375   -3.7468 H   0  0  0  0  0  0  0  0  0  0  0  0
    1.6685   -4.0867   -4.9681 H   0  0  0  0  0  0  0  0  0  0  0  0
   -6.7256    2.0330   -0.2766 C   0  0  0  0  0  0  0  0  0  0  0  0
   -7.1824    1.1039   -0.9322 O   0  0  0  0  0  0  0  0  0  0  0  0
   -7.5276    2.6077    0.8435 C   0  0  0  0  0  0  0  0  0  0  0  0
   -8.1775    3.4344    0.5145 H   0  0  0  0  0  0  0  0  0  0  0  0
   -8.2057    1.8676    1.2980 H   0  0  0  0  0  0  0  0  0  0  0  0
   -6.9411    3.0162    1.6819 H   0  0  0  0  0  0  0  0  0  0  0  0
   -5.4935    2.6382   -0.4627 N   0  0  0  0  0  0  0  0  0  0  0  0
   -4.5619    2.2388   -1.4845 C   0  0  2  0  0  0  0  0  0  0  0  0
   -3.1535    2.4674   -0.9521 C   0  0  0  0  0  0  0  0  0  0  0  0
   -2.8634    3.3945   -0.1987 O   0  0  0  0  0  0  0  0  0  0  0  0
   -4.7883    3.0138   -2.7732 C   0  0  0  0  0  0  0  0  0  0  0  0
   -5.2337    3.4049    0.1551 H   0  0  0  0  0  0  0  0  0  0  0  0
   -4.7192    1.1682   -1.6549 H   0  0  0  0  0  0  0  0  0  0  0  0
   -4.6352    4.0886   -2.6221 H   0  0  0  0  0  0  0  0  0  0  0  0
   -4.0976    2.6887   -3.5582 H   0  0  0  0  0  0  0  0  0  0  0  0
   -5.8111    2.8719   -3.1387 H   0  0  0  0  0  0  0  0  0  0  0  0
   -2.2466    1.5400   -1.4507 N   0  0  0  0  0  0  0  0  0  0  0  0
   -0.8424    1.5707   -1.1286 C   0  0  2  0  0  0  0  0  0  0  0  0
   -0.1172    2.4330   -2.1597 C   0  0  0  0  0  0  0  0  0  0  0  0
    0.7102    3.2892   -1.8537 O   0  0  0  0  0  0  0  0  0  0  0  0
   -0.2471    0.1680   -0.9838 C   0  0  0  0  0  0  0  0  0  0  0  0
   -0.9246   -0.7716    0.4057 S   0  0  0  0  0  0  0  0  0  0  0  0
   -2.5850    0.7815   -2.0381 H   0  0  0  0  0  0  0  0  0  0  0  0
   -0.7732    2.0832   -0.1610 H   0  0  0  0  0  0  0  0  0  0  0  0
   -0.4208   -0.4188   -1.8917 H   0  0  0  0  0  0  0  0  0  0  0  0
    0.8362    0.2358   -0.8365 H   0  0  0  0  0  0  0  0  0  0  0  0
   -0.5210    2.1508   -3.4570 N   0  0  0  0  0  0  0  0  0  0  0  0
    0.0031    2.8517   -4.6059 C   0  0  2  0  0  0  0  0  0  0  0  0
   -1.0998    2.9286   -5.6533 C   0  0  0  0  0  0  0  0  0  0  0  0
   -1.9334    2.0400   -5.8161 O   0  0  0  0  0  0  0  0  0  0  0  0
    1.2351    2.1562   -5.1638 C   0  0  0  0  0  0  0  0  0  0  0  0
   -1.1799    1.3957   -3.6225 H   0  0  0  0  0  0  0  0  0  0  0  0
    0.2596    3.8623   -4.2699 H   0  0  0  0  0  0  0  0  0  0  0  0
    0.9977    1.1422   -5.5056 H   0  0  0  0  0  0  0  0  0  0  0  0
    1.6479    2.7044   -6.0171 H   0  0  0  0  0  0  0  0  0  0  0  0
    2.0163    2.0752   -4.4002 H   0  0  0  0  0  0  0  0  0  0  0  0
   -1.0175    4.0867   -6.4138 N   0  0  0  0  0  0  0  0  0  0  0  0
   -1.9253    4.3721   -7.5002 C   0  0  0  0  0  0  0  0  0  0  0  0
   -0.3192    4.7873   -6.1831 H   0  0  0  0  0  0  0  0  0  0  0  0
   -1.4952    4.0058   -8.4441 H   0  0  0  0  0  0  0  0  0  0  0  0
   -2.8866    3.8699   -7.3162 H   0  0  0  0  0  0  0  0  0  0  0  0
   -2.0861    5.4582   -7.5679 H   0  0  0  0  0  0  0  0  0  0  0  0
  1  3  1  0  0  0  0
  1  7  1  0  0  0  0
  1  2  2  0  0  0  0
 23 25  1  0  0  0  0
 23 29  1  0  0  0  0
 23 24  2  0  0  0  0
 50 51  1  0  0  0  0
 51 59  1  0  0  0  0
 51 52  2  0  0  0  0
  8  9  1  0  0  0  0
  9 17  1  0  0  0  0
  9 10  2  0  0  0  0
 30 31  1  0  0  0  0
 31 39  1  0  0  0  0
 31 32  2  0  0  0  0
 40 41  1  0  0  0  0
 41 49  1  0  0  0  0
 41 42  2  0  0  0  0
 50 53  1  0  0  0  0
 30 33  1  0  0  0  0
 59 60  1  0  0  0  0
 17 18  1  0  0  0  0
  8 11  1  0  0  0  0
 11 12  1  0  0  0  0
 40 43  1  0  0  0  0
 43 44  1  0  0  0  0
 49 50  1  0  0  0  0
  7  8  1  0  0  0  0
 29 30  1  0  0  0  0
 39 40  1  0  0  0  0
 12 44  1  0  0  0  0
  3  4  1  0  0  0  0
  3  5  1  0  0  0  0
  3  6  1  0  0  0  0
 25 26  1  0  0  0  0
 25 27  1  0  0  0  0
 25 28  1  0  0  0  0
 53 56  1  0  0  0  0
 53 57  1  0  0  0  0
 53 58  1  0  0  0  0
 33 36  1  0  0  0  0
 33 37  1  0  0  0  0
 33 38  1  0  0  0  0
 60 62  1  0  0  0  0
 60 63  1  0  0  0  0
 60 64  1  0  0  0  0
 18 20  1  0  0  0  0
 18 21  1  0  0  0  0
 18 22  1  0  0  0  0
 11 15  1  0  0  0  0
 11 16  1  0  0  0  0
 43 47  1  0  0  0  0
 43 48  1  0  0  0  0
 50 55  1  0  0  0  0
  8 14  1  0  0  0  0
 30 35  1  0  0  0  0
 40 46  1  0  0  0  0
 59 61  1  0  0  0  0
 17 19  1  0  0  0  0
  7 13  1  0  0  0  0
 29 34  1  0  0  0  0
 49 54  1  0  0  0  0
 39 45  1  0  0  0  0
M  END
$$$$

  -OEChem-05262214473D

 64 63  0     1  0  0  0  0  0999 V2000
   -1.4379   -6.4981    0.5200 C   0  0  0  0  0  0  0  0  0  0  0  0
   -2.5551   -6.5872    0.0244 O   0  0  0  0  0  0  0  0  0  0  0  0
   -1.1185   -7.2682    1.7582 C   0  0  0  0  0  0  0  0  0  0  0  0
   -1.3420   -6.7007    2.6758 H   0  0  0  0  0  0  0  0  0  0  0  0
   -1.7066   -8.1965    1.8395 H   0  0  0  0  0  0  0  0  0  0  0  0
   -0.0672   -7.5817    1.8602 H   0  0  0  0  0  0  0  0  0  0  0  0
   -0.3885   -5.7323    0.0421 N   0  0  0  0  0  0  0  0  0  0  0  0
   -0.4807   -4.9141   -1.1404 C   0  0  2  0  0  0  0  0  0  0  0  0
    0.8687   -4.9251   -1.8558 C   0  0  0  0  0  0  0  0  0  0  0  0
    1.8708   -5.4613   -1.3870 O   0  0  0  0  0  0  0  0  0  0  0  0
   -0.9943   -3.5048   -0.8353 C   0  0  0  0  0  0  0  0  0  0  0  0
    0.1044   -2.5428    0.2556 S   0  0  0  0  0  0  0  0  0  0  0  0
    0.4922   -5.7480    0.5515 H   0  0  0  0  0  0  0  0  0  0  0  0
   -1.2050   -5.4185   -1.7921 H   0  0  0  0  0  0  0  0  0  0  0  0
   -1.1199   -2.9328   -1.7603 H   0  0  0  0  0  0  0  0  0  0  0  0
   -1.9730   -3.5621   -0.3467 H   0  0  0  0  0  0  0  0  0  0  0  0
    0.8273   -4.2456   -3.0650 N   0  0  0  0  0  0  0  0  0  0  0  0
    1.9855   -4.0963   -3.9148 C   0  0  0  0  0  0  0  0  0  0  0  0
   -0.0557   -3.8691   -3.3969 H   0  0  0  0  0  0  0  0  0  0  0  0
    2.4961   -3.1515   -3.6770 H   0  0  0  0  0  0  0  0  0  0  0  0
    2.6742   -4.9375   -3.7468 H   0  0  0  0  0  0  0  0  0  0  0  0
    1.6685   -4.0867   -4.9681 H   0  0  0  0  0  0  0  0  0  0  0  0
   -6.7256    2.0330   -0.2766 C   0  0  0  0  0  0  0  0  0  0  0  0
   -7.1824    1.1039   -0.9322 O   0  0  0  0  0  0  0  0  0  0  0  0
   -7.5276    2.6077    0.8435 C   0  0  0  0  0  0  0  0  0  0  0  0
   -8.1775    3.4344    0.5145 H   0  0  0  0  0  0  0  0  0  0  0  0
   -8.2057    1.8676    1.2980 H   0  0  0  0  0  0  0  0  0  0  0  0
   -6.9411    3.0162    1.6819 H   0  0  0  0  0  0  0  0  0  0  0  0
   -5.4935    2.6382   -0.4627 N   0  0  0  0  0  0  0  0  0  0  0  0
   -4.5619    2.2388   -1.4845 C   0  0  2  0  0  0  0  0  0  0  0  0
   -3.1535    2.4674   -0.9521 C   0  0  0  0  0  0  0  0  0  0  0  0
   -2.8634    3.3945   -0.1987 O   0  0  0  0  0  0  0  0  0  0  0  0
   -4.7883    3.0138   -2.7732 C   0  0  0  0  0  0  0  0  0  0  0  0
   -5.2337    3.4049    0.1551 H   0  0  0  0  0  0  0  0  0  0  0  0
   -4.7192    1.1682   -1.6549 H   0  0  0  0  0  0  0  0  0  0  0  0
   -4.6352    4.0886   -2.6221 H   0  0  0  0  0  0  0  0  0  0  0  0
   -4.0976    2.6887   -3.5582 H   0  0  0  0  0  0  0  0  0  0  0  0
   -5.8111    2.8719   -3.1387 H   0  0  0  0  0  0  0  0  0  0  0  0
   -2.2466    1.5400   -1.4507 N   0  0  0  0  0  0  0  0  0  0  0  0
   -0.8424    1.5707   -1.1286 C   0  0  2  0  0  0  0  0  0  0  0  0
   -0.1172    2.4330   -2.1597 C   0  0  0  0  0  0  0  0  0  0  0  0
    0.8872    3.0907   -1.8952 O   0  0  0  0  0  0  0  0  0  0  0  0
   -0.2471    0.1680   -0.9838 C   0  0  0  0  0  0  0  0  0  0  0  0
   -0.9246   -0.7716    0.4057 S   0  0  0  0  0  0  0  0  0  0  0  0
   -2.5850    0.7815   -2.0381 H   0  0  0  0  0  0  0  0  0  0  0  0
   -0.7732    2.0832   -0.1610 H   0  0  0  0  0  0  0  0  0  0  0  0
   -0.4208   -0.4188   -1.8917 H   0  0  0  0  0  0  0  0  0  0  0  0
    0.8362    0.2358   -0.8365 H   0  0  0  0  0  0  0  0  0  0  0  0
   -0.7376    2.4005   -3.4006 N   0  0  0  0  0  0  0  0  0  0  0  0
   -0.2538    3.1544   -4.5334 C   0  0  2  0  0  0  0  0  0  0  0  0
   -1.4550    3.5545   -5.3798 C   0  0  0  0  0  0  0  0  0  0  0  0
   -2.4521    2.8467   -5.5063 O   0  0  0  0  0  0  0  0  0  0  0  0
    0.7424    2.3469   -5.3509 C   0  0  0  0  0  0  0  0  0  0  0  0
   -1.5403    1.7945   -3.5425 H   0  0  0  0  0  0  0  0  0  0  0  0
    0.2272    4.0535   -4.1328 H   0  0  0  0  0  0  0  0  0  0  0  0
    0.2786    1.4421   -5.7605 H   0  0  0  0  0  0  0  0  0  0  0  0
    1.1297    2.9299   -6.1929 H   0  0  0  0  0  0  0  0  0  0  0  0
    1.5913    2.0347   -4.7331 H   0  0  0  0  0  0  0  0  0  0  0  0
   -1.2648    4.7754   -6.0118 N   0  0  0  0  0  0  0  0  0  0  0  0
   -2.2430    5.3522   -6.9042 C   0  0  0  0  0  0  0  0  0  0  0  0
   -0.4249    5.3128   -5.8181 H   0  0  0  0  0  0  0  0  0  0  0  0
   -2.0192    5.0513   -7.9383 H   0  0  0  0  0  0  0  0  0  0  0  0
   -3.2464    4.9958   -6.6278 H   0  0  0  0  0  0  0  0  0  0  0  0
   -2.2090    6.4488   -6.8259 H   0  0  0  0  0  0  0  0  0  0  0  0
  1  3  1  0  0  0  0
  1  7  1  0  0  0  0
  1  2  2  0  0  0  0
 23 25  1  0  0  0  0
 23 29  1  0  0  0  0
 23 24  2  0  0  0  0
 50 51  1  0  0  0  0
 51 59  1  0  0  0  0
 51 52  2  0  0  0  0
  8  9  1  0  0  0  0
  9 17  1  0  0  0  0
  9 10  2  0  0  0  0
 30 31  1  0  0  0  0
 31 39  1  0  0  0  0
 31 32  2  0  0  0  0
 40 41  1  0  0  0  0
 41 49  1  0  0  0  0
 41 42  2  0  0  0  0
 50 53  1  0  0  0  0
 30 33  1  0  0  0  0
 59 60  1  0  0  0  0
 17 18  1  0  0  0  0
  8 11  1  0  0  0  0
 11 12  1  0  0  0  0
 40 43  1  0  0  0  0
 43 44  1  0  0  0  0
 49 50  1  0  0  0  0
  7  8  1  0  0  0  0
 29 30  1  0  0  0  0
 39 40  1  0  0  0  0
 12 44  1  0  0  0  0
  3  4  1  0  0  0  0
  3  5  1  0  0  0  0
  3  6  1  0  0  0  0
 25 26  1  0  0  0  0
 25 27  1  0  0  0  0
 25 28  1  0  0  0  0
 53 56  1  0  0  0  0
 53 57  1  0  0  0  0
 53 58  1  0  0  0  0
 33 36  1  0  0  0  0
 33 37  1  0  0  0  0
 33 38  1  0  0  0  0
 60 62  1  0  0  0  0
 60 63  1  0  0  0  0
 60 64  1  0  0  0  0
 18 20  1  0  0  0  0
 18 21  1  0  0  0  0
 18 22  1  0  0  0  0
 11 15  1  0  0  0  0
 11 16  1  0  0  0  0
 43 47  1  0  0  0  0
 43 48  1  0  0  0  0
 50 55  1  0  0  0  0
  8 14  1  0  0  0  0
 30 35  1  0  0  0  0
 40 46  1  0  0  0  0
 59 61  1  0  0  0  0
 17 19  1  0  0  0  0
  7 13  1  0  0  0  0
 29 34  1  0  0  0  0
 49 54  1  0  0  0  0
 39 45  1  0  0  0  0
M  END
$$$$

  -OEChem-05262214473D

 64 63  0     1  0  0  0  0  0999 V2000
   -1.4379   -6.4981    0.5200 C   0  0  0  0  0  0  0  0  0  0  0  0
   -2.5551   -6.5872    0.0244 O   0  0  0  0  0  0  0  0  0  0  0  0
   -1.1185   -7.2682    1.7582 C   0  0  0  0  0  0  0  0  0  0  0  0
   -1.3420   -6.7007    2.6758 H   0  0  0  0  0  0  0  0  0  0  0  0
   -1.7066   -8.1965    1.8395 H   0  0  0  0  0  0  0  0  0  0  0  0
   -0.0672   -7.5817    1.8602 H   0  0  0  0  0  0  0  0  0  0  0  0
   -0.3885   -5.7323    0.0421 N   0  0  0  0  0  0  0  0  0  0  0  0
   -0.4807   -4.9141   -1.1404 C   0  0  2  0  0  0  0  0  0  0  0  0
    0.8687   -4.9251   -1.8558 C   0  0  0  0  0  0  0  0  0  0  0  0
    1.8708   -5.4613   -1.3870 O   0  0  0  0  0  0  0  0  0  0  0  0
   -0.9943   -3.5048   -0.8353 C   0  0  0  0  0  0  0  0  0  0  0  0
    0.1044   -2.5428    0.2556 S   0  0  0  0  0  0  0  0  0  0  0  0
    0.4922   -5.7480    0.5515 H   0  0  0  0  0  0  0  0  0  0  0  0
   -1.2050   -5.4185   -1.7921 H   0  0  0  0  0  0  0  0  0  0  0  0
   -1.1199   -2.9328   -1.7603 H   0  0  0  0  0  0  0  0  0  0  0  0
   -1.9730   -3.5621   -0.3467 H   0  0  0  0  0  0  0  0  0  0  0  0
    0.8273   -4.2456   -3.0650 N   0  0  0  0  0  0  0  0  0  0  0  0
    1.9855   -4.0963   -3.9148 C   0  0  0  0  0  0  0  0  0  0  0  0
   -0.0557   -3.8691   -3.3969 H   0  0  0  0  0  0  0  0  0  0  0  0
    2.4961   -3.1515   -3.6770 H   0  0  0  0  0  0  0  0  0  0  0  0
    2.6742   -4.9375   -3.7468 H   0  0  0  0  0  0  0  0  0  0  0  0
    1.6685   -4.0867   -4.9681 H   0  0  0  0  0  0  0  0  0  0  0  0
   -6.7256    2.0330   -0.2766 C   0  0  0  0  0  0  0  0  0  0  0  0
   -7.1824    1.1039   -0.9322 O   0  0  0  0  0  0  0  0  0  0  0  0
   -7.5276    2.6077    0.8435 C   0  0  0  0  0  0  0  0  0  0  0  0
   -8.1775    3.4344    0.5145 H   0  0  0  0  0  0  0  0  0  0  0  0
   -8.2057    1.8676    1.2980 H   0  0  0  0  0  0  0  0  0  0  0  0
   -6.9411    3.0162    1.6819 H   0  0  0  0  0  0  0  0  0  0  0  0
   -5.4935    2.6382   -0.4627 N   0  0  0  0  0  0  0  0  0  0  0  0
   -4.5619    2.2388   -1.4845 C   0  0  2  0  0  0  0  0  0  0  0  0
   -3.1535    2.4674   -0.9521 C   0  0  0  0  0  0  0  0  0  0  0  0
   -2.8634    3.3945   -0.1987 O   0  0  0  0  0  0  0  0  0  0  0  0
   -4.7883    3.0138   -2.7732 C   0  0  0  0  0  0  0  0  0  0  0  0
   -5.2337    3.4049    0.1551 H   0  0  0  0  0  0  0  0  0  0  0  0
   -4.7192    1.1682   -1.6549 H   0  0  0  0  0  0  0  0  0  0  0  0
   -4.6352    4.0886   -2.6221 H   0  0  0  0  0  0  0  0  0  0  0  0
   -4.0976    2.6887   -3.5582 H   0  0  0  0  0  0  0  0  0  0  0  0
   -5.8111    2.8719   -3.1387 H   0  0  0  0  0  0  0  0  0  0  0  0
   -2.2466    1.5400   -1.4507 N   0  0  0  0  0  0  0  0  0  0  0  0
   -0.8424    1.5707   -1.1286 C   0  0  2  0  0  0  0  0  0  0  0  0
   -0.1172    2.4330   -2.1597 C   0  0  0  0  0  0  0  0  0  0  0  0
    1.0174    2.8731   -1.9856 O   0  0  0  0  0  0  0  0  0  0  0  0
   -0.2471    0.1680   -0.9838 C   0  0  0  0  0  0  0  0  0  0  0  0
   -0.9246   -0.7716    0.4057 S   0  0  0  0  0  0  0  0  0  0  0  0
   -2.5850    0.7815   -2.0381 H   0  0  0  0  0  0  0  0  0  0  0  0
   -0.7732    2.0832   -0.1610 H   0  0  0  0  0  0  0  0  0  0  0  0
   -0.4208   -0.4188   -1.8917 H   0  0  0  0  0  0  0  0  0  0  0  0
    0.8362    0.2358   -0.8365 H   0  0  0  0  0  0  0  0  0  0  0  0
   -0.8949    2.6726   -3.2837 N   0  0  0  0  0  0  0  0  0  0  0  0
   -0.4384    3.4828   -4.3887 C   0  0  2  0  0  0  0  0  0  0  0  0
   -1.6488    4.1876   -4.9867 C   0  0  0  0  0  0  0  0  0  0  0  0
   -2.7668    3.6785   -5.0321 O   0  0  0  0  0  0  0  0  0  0  0  0
    0.2724    2.6401   -5.4362 C   0  0  0  0  0  0  0  0  0  0  0  0
   -1.8071    2.2329   -3.3636 H   0  0  0  0  0  0  0  0  0  0  0  0
    0.2493    4.2269   -3.9722 H   0  0  0  0  0  0  0  0  0  0  0  0
   -0.4009    1.8888   -5.8648 H   0  0  0  0  0  0  0  0  0  0  0  0
    0.6429    3.2599   -6.2594 H   0  0  0  0  0  0  0  0  0  0  0  0
    1.1250    2.1106   -4.9974 H   0  0  0  0  0  0  0  0  0  0  0  0
   -1.3245    5.4345   -5.5027 N   0  0  0  0  0  0  0  0  0  0  0  0
   -2.2916    6.2811   -6.1615 C   0  0  0  0  0  0  0  0  0  0  0  0
   -0.3818    5.7940   -5.3854 H   0  0  0  0  0  0  0  0  0  0  0  0
   -2.2688    6.0907   -7.2447 H   0  0  0  0  0  0  0  0  0  0  0  0
   -3.2966    6.0617   -5.7719 H   0  0  0  0  0  0  0  0  0  0  0  0
   -2.0462    7.3361   -5.9696 H   0  0  0  0  0  0  0  0  0  0  0  0
  1  3  1  0  0  0  0
  1  7  1  0  0  0  0
  1  2  2  0  0  0  0
 23 25  1  0  0  0  0
 23 29  1  0  0  0  0
 23 24  2  0  0  0  0
 50 51  1  0  0  0  0
 51 59  1  0  0  0  0
 51 52  2  0  0  0  0
  8  9  1  0  0  0  0
  9 17  1  0  0  0  0
  9 10  2  0  0  0  0
 30 31  1  0  0  0  0
 31 39  1  0  0  0  0
 31 32  2  0  0  0  0
 40 41  1  0  0  0  0
 41 49  1  0  0  0  0
 41 42  2  0  0  0  0
 50 53  1  0  0  0  0
 30 33  1  0  0  0  0
 59 60  1  0  0  0  0
 17 18  1  0  0  0  0
  8 11  1  0  0  0  0
 11 12  1  0  0  0  0
 40 43  1  0  0  0  0
 43 44  1  0  0  0  0
 49 50  1  0  0  0  0
  7  8  1  0  0  0  0
 29 30  1  0  0  0  0
 39 40  1  0  0  0  0
 12 44  1  0  0  0  0
  3  4  1  0  0  0  0
  3  5  1  0  0  0  0
  3  6  1  0  0  0  0
 25 26  1  0  0  0  0
 25 27  1  0  0  0  0
 25 28  1  0  0  0  0
 53 56  1  0  0  0  0
 53 57  1  0  0  0  0
 53 58  1  0  0  0  0
 33 36  1  0  0  0  0
 33 37  1  0  0  0  0
 33 38  1  0  0  0  0
 60 62  1  0  0  0  0
 60 63  1  0  0  0  0
 60 64  1  0  0  0  0
 18 20  1  0  0  0  0
 18 21  1  0  0  0  0
 18 22  1  0  0  0  0
 11 15  1  0  0  0  0
 11 16  1  0  0  0  0
 43 47  1  0  0  0  0
 43 48  1  0  0  0  0
 50 55  1  0  0  0  0
  8 14  1  0  0  0  0
 30 35  1  0  0  0  0
 40 46  1  0  0  0  0
 59 61  1  0  0  0  0
 17 19  1  0  0  0  0
  7 13  1  0  0  0  0
 29 34  1  0  0  0  0
 49 54  1  0  0  0  0
 39 45  1  0  0  0  0
M  END
$$$$

  -OEChem-05262214473D

 64 63  0     1  0  0  0  0  0999 V2000
   -1.4379   -6.4981    0.5200 C   0  0  0  0  0  0  0  0  0  0  0  0
   -2.5551   -6.5872    0.0244 O   0  0  0  0  0  0  0  0  0  0  0  0
   -1.1185   -7.2682    1.7582 C   0  0  0  0  0  0  0  0  0  0  0  0
   -1.3420   -6.7007    2.6758 H   0  0  0  0  0  0  0  0  0  0  0  0
   -1.7066   -8.1965    1.8395 H   0  0  0  0  0  0  0  0  0  0  0  0
   -0.0672   -7.5817    1.8602 H   0  0  0  0  0  0  0  0  0  0  0  0
   -0.3885   -5.7323    0.0421 N   0  0  0  0  0  0  0  0  0  0  0  0
   -0.4807   -4.9141   -1.1404 C   0  0  2  0  0  0  0  0  0  0  0  0
    0.8687   -4.9251   -1.8558 C   0  0  0  0  0  0  0  0  0  0  0  0
    1.8708   -5.4613   -1.3870 O   0  0  0  0  0  0  0  0  0  0  0  0
   -0.9943   -3.5048   -0.8353 C   0  0  0  0  0  0  0  0  0  0  0  0
    0.1044   -2.5428    0.2556 S   0  0  0  0  0  0  0  0  0  0  0  0
    0.4922   -5.7480    0.5515 H   0  0  0  0  0  0  0  0  0  0  0  0
   -1.2050   -5.4185   -1.7921 H   0  0  0  0  0  0  0  0  0  0  0  0
   -1.1199   -2.9328   -1.7603 H   0  0  0  0  0  0  0  0  0  0  0  0
   -1.9730   -3.5621   -0.3467 H   0  0  0  0  0  0  0  0  0  0  0  0
    0.8273   -4.2456   -3.0650 N   0  0  0  0  0  0  0  0  0  0  0  0
    1.9855   -4.0963   -3.9148 C   0  0  0  0  0  0  0  0  0  0  0  0
   -0.0557   -3.8691   -3.3969 H   0  0  0  0  0  0  0  0  0  0  0  0
    2.4961   -3.1515   -3.6770 H   0  0  0  0  0  0  0  0  0  0  0  0
    2.6742   -4.9375   -3.7468 H   0  0  0  0  0  0  0  0  0  0  0  0
    1.6685   -4.0867   -4.9681 H   0  0  0  0  0  0  0  0  0  0  0  0
   -6.7256    2.0330   -0.2766 C   0  0  0  0  0  0  0  0  0  0  0  0
   -7.1824    1.1039   -0.9322 O   0  0  0  0  0  0  0  0  0  0  0  0
   -7.5276    2.6077    0.8435 C   0  0  0  0  0  0  0  0  0  0  0  0
   -8.1775    3.4344    0.5145 H   0  0  0  0  0  0  0  0  0  0  0  0
   -8.2057    1.8676    1.2980 H   0  0  0  0  0  0  0  0  0  0  0  0
   -6.9411    3.0162    1.6819 H   0  0  0  0  0  0  0  0  0  0  0  0
   -5.4935    2.6382   -0.4627 N   0  0  0  0  0  0  0  0  0  0  0  0
   -4.5619    2.2388   -1.4845 C   0  0  2  0  0  0  0  0  0  0  0  0
   -3.1535    2.4674   -0.9521 C   0  0  0  0  0  0  0  0  0  0  0  0
   -2.8634    3.3945   -0.1987 O   0  0  0  0  0  0  0  0  0  0  0  0
   -4.7883    3.0138   -2.7732 C   0  0  0  0  0  0  0  0  0  0  0  0
   -5.2337    3.4049    0.1551 H   0  0  0  0  0  0  0  0  0  0  0  0
   -4.7192    1.1682   -1.6549 H   0  0  0  0  0  0  0  0  0  0  0  0
   -4.6352    4.0886   -2.6221 H   0  0  0  0  0  0  0  0  0  0  0  0
   -4.0976    2.6887   -3.5582 H   0  0  0  0  0  0  0  0  0  0  0  0
   -5.8111    2.8719   -3.1387 H   0  0  0  0  0  0  0  0  0  0  0  0
   -2.2466    1.5400   -1.4507 N   0  0  0  0  0  0  0  0  0  0  0  0
   -0.8424    1.5707   -1.1286 C   0  0  2  0  0  0  0  0  0  0  0  0
   -0.1172    2.4330   -2.1597 C   0  0  0  0  0  0  0  0  0  0  0  0
    1.0919    2.6513   -2.1186 O   0  0  0  0  0  0  0  0  0  0  0  0
   -0.2471    0.1680   -0.9838 C   0  0  0  0  0  0  0  0  0  0  0  0
   -0.9246   -0.7716    0.4057 S   0  0  0  0  0  0  0  0  0  0  0  0
   -2.5850    0.7815   -2.0381 H   0  0  0  0  0  0  0  0  0  0  0  0
   -0.7732    2.0832   -0.1610 H   0  0  0  0  0  0  0  0  0  0  0  0
   -0.4208   -0.4188   -1.8917 H   0  0  0  0  0  0  0  0  0  0  0  0
    0.8362    0.2358   -0.8365 H   0  0  0  0  0  0  0  0  0  0  0  0
   -0.9823    2.9485   -3.1144 N   0  0  0  0  0  0  0  0  0  0  0  0
   -0.5382    3.8145   -4.1815 C   0  0  2  0  0  0  0  0  0  0  0  0
   -1.6680    4.7846   -4.5009 C   0  0  0  0  0  0  0  0  0  0  0  0
   -2.8562    4.4787   -4.4258 O   0  0  0  0  0  0  0  0  0  0  0  0
   -0.1427    3.0160   -5.4138 C   0  0  0  0  0  0  0  0  0  0  0  0
   -1.9620    2.6810   -3.0979 H   0  0  0  0  0  0  0  0  0  0  0  0
    0.3245    4.3708   -3.7990 H   0  0  0  0  0  0  0  0  0  0  0  0
   -0.9943    2.4519   -5.8113 H   0  0  0  0  0  0  0  0  0  0  0  0
    0.2207    3.6718   -6.2118 H   0  0  0  0  0  0  0  0  0  0  0  0
    0.6493    2.2979   -5.1753 H   0  0  0  0  0  0  0  0  0  0  0  0
   -1.1927    6.0190   -4.9213 N   0  0  0  0  0  0  0  0  0  0  0  0
   -2.0676    7.0956   -5.3229 C   0  0  0  0  0  0  0  0  0  0  0  0
   -0.1929    6.1981   -4.9147 H   0  0  0  0  0  0  0  0  0  0  0  0
   -2.2269    7.0531   -6.4105 H   0  0  0  0  0  0  0  0  0  0  0  0
   -3.0338    6.9948   -4.8068 H   0  0  0  0  0  0  0  0  0  0  0  0
   -1.6088    8.0594   -5.0571 H   0  0  0  0  0  0  0  0  0  0  0  0
  1  3  1  0  0  0  0
  1  7  1  0  0  0  0
  1  2  2  0  0  0  0
 23 25  1  0  0  0  0
 23 29  1  0  0  0  0
 23 24  2  0  0  0  0
 50 51  1  0  0  0  0
 51 59  1  0  0  0  0
 51 52  2  0  0  0  0
  8  9  1  0  0  0  0
  9 17  1  0  0  0  0
  9 10  2  0  0  0  0
 30 31  1  0  0  0  0
 31 39  1  0  0  0  0
 31 32  2  0  0  0  0
 40 41  1  0  0  0  0
 41 49  1  0  0  0  0
 41 42  2  0  0  0  0
 50 53  1  0  0  0  0
 30 33  1  0  0  0  0
 59 60  1  0  0  0  0
 17 18  1  0  0  0  0
  8 11  1  0  0  0  0
 11 12  1  0  0  0  0
 40 43  1  0  0  0  0
 43 44  1  0  0  0  0
 49 50  1  0  0  0  0
  7  8  1  0  0  0  0
 29 30  1  0  0  0  0
 39 40  1  0  0  0  0
 12 44  1  0  0  0  0
  3  4  1  0  0  0  0
  3  5  1  0  0  0  0
  3  6  1  0  0  0  0
 25 26  1  0  0  0  0
 25 27  1  0  0  0  0
 25 28  1  0  0  0  0
 53 56  1  0  0  0  0
 53 57  1  0  0  0  0
 53 58  1  0  0  0  0
 33 36  1  0  0  0  0
 33 37  1  0  0  0  0
 33 38  1  0  0  0  0
 60 62  1  0  0  0  0
 60 63  1  0  0  0  0
 60 64  1  0  0  0  0
 18 20  1  0  0  0  0
 18 21  1  0  0  0  0
 18 22  1  0  0  0  0
 11 15  1  0  0  0  0
 11 16  1  0  0  0  0
 43 47  1  0  0  0  0
 43 48  1  0  0  0  0
 50 55  1  0  0  0  0
  8 14  1  0  0  0  0
 30 35  1  0  0  0  0
 40 46  1  0  0  0  0
 59 61  1  0  0  0  0
 17 19  1  0  0  0  0
  7 13  1  0  0  0  0
 29 34  1  0  0  0  0
 49 54  1  0  0  0  0
 39 45  1  0  0  0  0
M  END
$$$$

  -OEChem-05262214473D

 64 63  0     1  0  0  0  0  0999 V2000
   -1.4379   -6.4981    0.5200 C   0  0  0  0  0  0  0  0  0  0  0  0
   -2.5551   -6.5872    0.0244 O   0  0  0  0  0  0  0  0  0  0  0  0
   -1.1185   -7.2682    1.7582 C   0  0  0  0  0  0  0  0  0  0  0  0
   -1.3420   -6.7007    2.6758 H   0  0  0  0  0  0  0  0  0  0  0  0
   -1.7066   -8.1965    1.8395 H   0  0  0  0  0  0  0  0  0  0  0  0
   -0.0672   -7.5817    1.8602 H   0  0  0  0  0  0  0  0  0  0  0  0
   -0.3885   -5.7323    0.0421 N   0  0  0  0  0  0  0  0  0  0  0  0
   -0.4807   -4.9141   -1.1404 C   0  0  2  0  0  0  0  0  0  0  0  0
    0.8687   -4.9251   -1.8558 C   0  0  0  0  0  0  0  0  0  0  0  0
    1.8708   -5.4613   -1.3870 O   0  0  0  0  0  0  0  0  0  0  0  0
   -0.9943   -3.5048   -0.8353 C   0  0  0  0  0  0  0  0  0  0  0  0
    0.1044   -2.5428    0.2556 S   0  0  0  0  0  0  0  0  0  0  0  0
    0.4922   -5.7480    0.5515 H   0  0  0  0  0  0  0  0  0  0  0  0
   -1.2050   -5.4185   -1.7921 H   0  0  0  0  0  0  0  0  0  0  0  0
   -1.1199   -2.9328   -1.7603 H   0  0  0  0  0  0  0  0  0  0  0  0
   -1.9730   -3.5621   -0.3467 H   0  0  0  0  0  0  0  0  0  0  0  0
    0.8273   -4.2456   -3.0650 N   0  0  0  0  0  0  0  0  0  0  0  0
    1.9855   -4.0963   -3.9148 C   0  0  0  0  0  0  0  0  0  0  0  0
   -0.0557   -3.8691   -3.3969 H   0  0  0  0  0  0  0  0  0  0  0  0
    2.4961   -3.1515   -3.6770 H   0  0  0  0  0  0  0  0  0  0  0  0
    2.6742   -4.9375   -3.7468 H   0  0  0  0  0  0  0  0  0  0  0  0
    1.6685   -4.0867   -4.9681 H   0  0  0  0  0  0  0  0  0  0  0  0
   -6.7256    2.0330   -0.2766 C   0  0  0  0  0  0  0  0  0  0  0  0
   -7.1824    1.1039   -0.9322 O   0  0  0  0  0  0  0  0  0  0  0  0
   -7.5276    2.6077    0.8435 C   0  0  0  0  0  0  0  0  0  0  0  0
   -8.1775    3.4344    0.5145 H   0  0  0  0  0  0  0  0  0  0  0  0
   -8.2057    1.8676    1.2980 H   0  0  0  0  0  0  0  0  0  0  0  0
   -6.9411    3.0162    1.6819 H   0  0  0  0  0  0  0  0  0  0  0  0
   -5.4935    2.6382   -0.4627 N   0  0  0  0  0  0  0  0  0  0  0  0
   -4.5619    2.2388   -1.4845 C   0  0  2  0  0  0  0  0  0  0  0  0
   -3.1535    2.4674   -0.9521 C   0  0  0  0  0  0  0  0  0  0  0  0
   -2.8634    3.3945   -0.1987 O   0  0  0  0  0  0  0  0  0  0  0  0
   -4.7883    3.0138   -2.7732 C   0  0  0  0  0  0  0  0  0  0  0  0
   -5.2337    3.4049    0.1551 H   0  0  0  0  0  0  0  0  0  0  0  0
   -4.7192    1.1682   -1.6549 H   0  0  0  0  0  0  0  0  0  0  0  0
   -4.6352    4.0886   -2.6221 H   0  0  0  0  0  0  0  0  0  0  0  0
   -4.0976    2.6887   -3.5582 H   0  0  0  0  0  0  0  0  0  0  0  0
   -5.8111    2.8719   -3.1387 H   0  0  0  0  0  0  0  0  0  0  0  0
   -2.2466    1.5400   -1.4507 N   0  0  0  0  0  0  0  0  0  0  0  0
   -0.8424    1.5707   -1.1286 C   0  0  2  0  0  0  0  0  0  0  0  0
   -0.1172    2.4330   -2.1597 C   0  0  0  0  0  0  0  0  0  0  0  0
    1.1057    2.4404   -2.2853 O   0  0  0  0  0  0  0  0  0  0  0  0
   -0.2471    0.1680   -0.9838 C   0  0  0  0  0  0  0  0  0  0  0  0
   -0.9246   -0.7716    0.4057 S   0  0  0  0  0  0  0  0  0  0  0  0
   -2.5850    0.7815   -2.0381 H   0  0  0  0  0  0  0  0  0  0  0  0
   -0.7732    2.0832   -0.1610 H   0  0  0  0  0  0  0  0  0  0  0  0
   -0.4208   -0.4188   -1.8917 H   0  0  0  0  0  0  0  0  0  0  0  0
    0.8362    0.2358   -0.8365 H   0  0  0  0  0  0  0  0  0  0  0  0
   -0.9937    3.2096   -2.9042 N   0  0  0  0  0  0  0  0  0  0  0  0
   -0.5464    4.1269   -3.9261 C   0  0  2  0  0  0  0  0  0  0  0  0
   -1.5111    5.3050   -3.9556 C   0  0  0  0  0  0  0  0  0  0  0  0
   -2.7141    5.1927   -3.7289 O   0  0  0  0  0  0  0  0  0  0  0  0
   -0.4748    3.4488   -5.2854 C   0  0  0  0  0  0  0  0  0  0  0  0
   -1.9945    3.1082   -2.7635 H   0  0  0  0  0  0  0  0  0  0  0  0
    0.4475    4.4754   -3.6250 H   0  0  0  0  0  0  0  0  0  0  0  0
   -1.4614    3.0928   -5.6038 H   0  0  0  0  0  0  0  0  0  0  0  0
   -0.1082    4.1377   -6.0536 H   0  0  0  0  0  0  0  0  0  0  0  0
    0.1966    2.5839   -5.2546 H   0  0  0  0  0  0  0  0  0  0  0  0
   -0.8783    6.4891   -4.3071 N   0  0  0  0  0  0  0  0  0  0  0  0
   -1.5864    7.7402   -4.4456 C   0  0  0  0  0  0  0  0  0  0  0  0
    0.1290    6.4976   -4.4379 H   0  0  0  0  0  0  0  0  0  0  0  0
   -1.8963    7.8728   -5.4927 H   0  0  0  0  0  0  0  0  0  0  0  0
   -2.4759    7.7315   -3.7984 H   0  0  0  0  0  0  0  0  0  0  0  0
   -0.9265    8.5695   -4.1508 H   0  0  0  0  0  0  0  0  0  0  0  0
  1  3  1  0  0  0  0
  1  7  1  0  0  0  0
  1  2  2  0  0  0  0
 23 25  1  0  0  0  0
 23 29  1  0  0  0  0
 23 24  2  0  0  0  0
 50 51  1  0  0  0  0
 51 59  1  0  0  0  0
 51 52  2  0  0  0  0
  8  9  1  0  0  0  0
  9 17  1  0  0  0  0
  9 10  2  0  0  0  0
 30 31  1  0  0  0  0
 31 39  1  0  0  0  0
 31 32  2  0  0  0  0
 40 41  1  0  0  0  0
 41 49  1  0  0  0  0
 41 42  2  0  0  0  0
 50 53  1  0  0  0  0
 30 33  1  0  0  0  0
 59 60  1  0  0  0  0
 17 18  1  0  0  0  0
  8 11  1  0  0  0  0
 11 12  1  0  0  0  0
 40 43  1  0  0  0  0
 43 44  1  0  0  0  0
 49 50  1  0  0  0  0
  7  8  1  0  0  0  0
 29 30  1  0  0  0  0
 39 40  1  0  0  0  0
 12 44  1  0  0  0  0
  3  4  1  0  0  0  0
  3  5  1  0  0  0  0
  3  6  1  0  0  0  0
 25 26  1  0  0  0  0
 25 27  1  0  0  0  0
 25 28  1  0  0  0  0
 53 56  1  0  0  0  0
 53 57  1  0  0  0  0
 53 58  1  0  0  0  0
 33 36  1  0  0  0  0
 33 37  1  0  0  0  0
 33 38  1  0  0  0  0
 60 62  1  0  0  0  0
 60 63  1  0  0  0  0
 60 64  1  0  0  0  0
 18 20  1  0  0  0  0
 18 21  1  0  0  0  0
 18 22  1  0  0  0  0
 11 15  1  0  0  0  0
 11 16  1  0  0  0  0
 43 47  1  0  0  0  0
 43 48  1  0  0  0  0
 50 55  1  0  0  0  0
  8 14  1  0  0  0  0
 30 35  1  0  0  0  0
 40 46  1  0  0  0  0
 59 61  1  0  0  0  0
 17 19  1  0  0  0  0
  7 13  1  0  0  0  0
 29 34  1  0  0  0  0
 49 54  1  0  0  0  0
 39 45  1  0  0  0  0
M  END
$$$$

  -OEChem-05262214473D

 64 63  0     1  0  0  0  0  0999 V2000
   -1.4379   -6.4981    0.5200 C   0  0  0  0  0  0  0  0  0  0  0  0
   -2.5551   -6.5872    0.0244 O   0  0  0  0  0  0  0  0  0  0  0  0
   -1.1185   -7.2682    1.7582 C   0  0  0  0  0  0  0  0  0  0  0  0
   -1.3420   -6.7007    2.6758 H   0  0  0  0  0  0  0  0  0  0  0  0
   -1.7066   -8.1965    1.8395 H   0  0  0  0  0  0  0  0  0  0  0  0
   -0.0672   -7.5817    1.8602 H   0  0  0  0  0  0  0  0  0  0  0  0
   -0.3885   -5.7323    0.0421 N   0  0  0  0  0  0  0  0  0  0  0  0
   -0.4807   -4.9141   -1.1404 C   0  0  2  0  0  0  0  0  0  0  0  0
    0.8687   -4.9251   -1.8558 C   0  0  0  0  0  0  0  0  0  0  0  0
    1.8708   -5.4613   -1.3870 O   0  0  0  0  0  0  0  0  0  0  0  0
   -0.9943   -3.5048   -0.8353 C   0  0  0  0  0  0  0  0  0  0  0  0
    0.1044   -2.5428    0.2556 S   0  0  0  0  0  0  0  0  0  0  0  0
    0.4922   -5.7480    0.5515 H   0  0  0  0  0  0  0  0  0  0  0  0
   -1.2050   -5.4185   -1.7921 H   0  0  0  0  0  0  0  0  0  0  0  0
   -1.1199   -2.9328   -1.7603 H   0  0  0  0  0  0  0  0  0  0  0  0
   -1.9730   -3.5621   -0.3467 H   0  0  0  0  0  0  0  0  0  0  0  0
    0.8273   -4.2456   -3.0650 N   0  0  0  0  0  0  0  0  0  0  0  0
    1.9855   -4.0963   -3.9148 C   0  0  0  0  0  0  0  0  0  0  0  0
   -0.0557   -3.8691   -3.3969 H   0  0  0  0  0  0  0  0  0  0  0  0
    2.4961   -3.1515   -3.6770 H   0  0  0  0  0  0  0  0  0  0  0  0
    2.6742   -4.9375   -3.7468 H   0  0  0  0  0  0  0  0  0  0  0  0
    1.6685   -4.0867   -4.9681 H   0  0  0  0  0  0  0  0  0  0  0  0
   -6.7256    2.0330   -0.2766 C   0  0  0  0  0  0  0  0  0  0  0  0
   -7.1824    1.1039   -0.9322 O   0  0  0  0  0  0  0  0  0  0  0  0
   -7.5276    2.6077    0.8435 C   0  0  0  0  0  0  0  0  0  0  0  0
   -8.1775    3.4344    0.5145 H   0  0  0  0  0  0  0  0  0  0  0  0
   -8.2057    1.8676    1.2980 H   0  0  0  0  0  0  0  0  0  0  0  0
   -6.9411    3.0162    1.6819 H   0  0  0  0  0  0  0  0  0  0  0  0
   -5.4935    2.6382   -0.4627 N   0  0  0  0  0  0  0  0  0  0  0  0
   -4.5619    2.2388   -1.4845 C   0  0  2  0  0  0  0  0  0  0  0  0
   -3.1535    2.4674   -0.9521 C   0  0  0  0  0  0  0  0  0  0  0  0
   -2.8634    3.3945   -0.1987 O   0  0  0  0  0  0  0  0  0  0  0  0
   -4.7883    3.0138   -2.7732 C   0  0  0  0  0  0  0  0  0  0  0  0
   -5.2337    3.4049    0.1551 H   0  0  0  0  0  0  0  0  0  0  0  0
   -4.7192    1.1682   -1.6549 H   0  0  0  0  0  0  0  0  0  0  0  0
   -4.6352    4.0886   -2.6221 H   0  0  0  0  0  0  0  0  0  0  0  0
   -4.0976    2.6887   -3.5582 H   0  0  0  0  0  0  0  0  0  0  0  0
   -5.8111    2.8719   -3.1387 H   0  0  0  0  0  0  0  0  0  0  0  0
   -2.2466    1.5400   -1.4507 N   0  0  0  0  0  0  0  0  0  0  0  0
   -0.8424    1.5707   -1.1286 C   0  0  2  0  0  0  0  0  0  0  0  0
   -0.1172    2.4330   -2.1597 C   0  0  0  0  0  0  0  0  0  0  0  0
    1.0578    2.2548   -2.4742 O   0  0  0  0  0  0  0  0  0  0  0  0
   -0.2471    0.1680   -0.9838 C   0  0  0  0  0  0  0  0  0  0  0  0
   -0.9246   -0.7716    0.4057 S   0  0  0  0  0  0  0  0  0  0  0  0
   -2.5850    0.7815   -2.0381 H   0  0  0  0  0  0  0  0  0  0  0  0
   -0.7732    2.0832   -0.1610 H   0  0  0  0  0  0  0  0  0  0  0  0
   -0.4208   -0.4188   -1.8917 H   0  0  0  0  0  0  0  0  0  0  0  0
    0.8362    0.2358   -0.8365 H   0  0  0  0  0  0  0  0  0  0  0  0
   -0.9285    3.4378   -2.6674 N   0  0  0  0  0  0  0  0  0  0  0  0
   -0.4624    4.3986   -3.6398 C   0  0  2  0  0  0  0  0  0  0  0  0
   -1.1890    5.7131   -3.3877 C   0  0  0  0  0  0  0  0  0  0  0  0
   -2.3502    5.7719   -2.9887 O   0  0  0  0  0  0  0  0  0  0  0  0
   -0.7011    3.9092   -5.0597 C   0  0  0  0  0  0  0  0  0  0  0  0
   -1.9025    3.4855   -2.3833 H   0  0  0  0  0  0  0  0  0  0  0  0
    0.6101    4.5336   -3.4621 H   0  0  0  0  0  0  0  0  0  0  0  0
   -1.7702    3.7681   -5.2564 H   0  0  0  0  0  0  0  0  0  0  0  0
   -0.3214    4.6257   -5.7955 H   0  0  0  0  0  0  0  0  0  0  0  0
   -0.2023    2.9489   -5.2299 H   0  0  0  0  0  0  0  0  0  0  0  0
   -0.4027    6.8127   -3.7020 N   0  0  0  0  0  0  0  0  0  0  0  0
   -0.8808    8.1709   -3.5892 C   0  0  0  0  0  0  0  0  0  0  0  0
    0.5619    6.6720   -3.9876 H   0  0  0  0  0  0  0  0  0  0  0  0
   -1.2997    8.4940   -4.5536 H   0  0  0  0  0  0  0  0  0  0  0  0
   -1.6609    8.2218   -2.8153 H   0  0  0  0  0  0  0  0  0  0  0  0
   -0.0460    8.8316   -3.3124 H   0  0  0  0  0  0  0  0  0  0  0  0
  1  3  1  0  0  0  0
  1  7  1  0  0  0  0
  1  2  2  0  0  0  0
 23 25  1  0  0  0  0
 23 29  1  0  0  0  0
 23 24  2  0  0  0  0
 50 51  1  0  0  0  0
 51 59  1  0  0  0  0
 51 52  2  0  0  0  0
  8  9  1  0  0  0  0
  9 17  1  0  0  0  0
  9 10  2  0  0  0  0
 30 31  1  0  0  0  0
 31 39  1  0  0  0  0
 31 32  2  0  0  0  0
 40 41  1  0  0  0  0
 41 49  1  0  0  0  0
 41 42  2  0  0  0  0
 50 53  1  0  0  0  0
 30 33  1  0  0  0  0
 59 60  1  0  0  0  0
 17 18  1  0  0  0  0
  8 11  1  0  0  0  0
 11 12  1  0  0  0  0
 40 43  1  0  0  0  0
 43 44  1  0  0  0  0
 49 50  1  0  0  0  0
  7  8  1  0  0  0  0
 29 30  1  0  0  0  0
 39 40  1  0  0  0  0
 12 44  1  0  0  0  0
  3  4  1  0  0  0  0
  3  5  1  0  0  0  0
  3  6  1  0  0  0  0
 25 26  1  0  0  0  0
 25 27  1  0  0  0  0
 25 28  1  0  0  0  0
 53 56  1  0  0  0  0
 53 57  1  0  0  0  0
 53 58  1  0  0  0  0
 33 36  1  0  0  0  0
 33 37  1  0  0  0  0
 33 38  1  0  0  0  0
 60 62  1  0  0  0  0
 60 63  1  0  0  0  0
 60 64  1  0  0  0  0
 18 20  1  0  0  0  0
 18 21  1  0  0  0  0
 18 22  1  0  0  0  0
 11 15  1  0  0  0  0
 11 16  1  0  0  0  0
 43 47  1  0  0  0  0
 43 48  1  0  0  0  0
 50 55  1  0  0  0  0
  8 14  1  0  0  0  0
 30 35  1  0  0  0  0
 40 46  1  0  0  0  0
 59 61  1  0  0  0  0
 17 19  1  0  0  0  0
  7 13  1  0  0  0  0
 29 34  1  0  0  0  0
 49 54  1  0  0  0  0
 39 45  1  0  0  0  0
M  END
$$$$

  -OEChem-05262214473D

 64 63  0     1  0  0  0  0  0999 V2000
   -1.4379   -6.4981    0.5200 C   0  0  0  0  0  0  0  0  0  0  0  0
   -2.5551   -6.5872    0.0244 O   0  0  0  0  0  0  0  0  0  0  0  0
   -1.1185   -7.2682    1.7582 C   0  0  0  0  0  0  0  0  0  0  0  0
   -1.3420   -6.7007    2.6758 H   0  0  0  0  0  0  0  0  0  0  0  0
   -1.7066   -8.1965    1.8395 H   0  0  0  0  0  0  0  0  0  0  0  0
   -0.0672   -7.5817    1.8602 H   0  0  0  0  0  0  0  0  0  0  0  0
   -0.3885   -5.7323    0.0421 N   0  0  0  0  0  0  0  0  0  0  0  0
   -0.4807   -4.9141   -1.1404 C   0  0  2  0  0  0  0  0  0  0  0  0
    0.8687   -4.9251   -1.8558 C   0  0  0  0  0  0  0  0  0  0  0  0
    1.8708   -5.4613   -1.3870 O   0  0  0  0  0  0  0  0  0  0  0  0
   -0.9943   -3.5048   -0.8353 C   0  0  0  0  0  0  0  0  0  0  0  0
    0.1044   -2.5428    0.2556 S   0  0  0  0  0  0  0  0  0  0  0  0
    0.4922   -5.7480    0.5515 H   0  0  0  0  0  0  0  0  0  0  0  0
   -1.2050   -5.4185   -1.7921 H   0  0  0  0  0  0  0  0  0  0  0  0
   -1.1199   -2.9328   -1.7603 H   0  0  0  0  0  0  0  0  0  0  0  0
   -1.9730   -3.5621   -0.3467 H   0  0  0  0  0  0  0  0  0  0  0  0
    0.8273   -4.2456   -3.0650 N   0  0  0  0  0  0  0  0  0  0  0  0
    1.9855   -4.0963   -3.9148 C   0  0  0  0  0  0  0  0  0  0  0  0
   -0.0557   -3.8691   -3.3969 H   0  0  0  0  0  0  0  0  0  0  0  0
    2.4961   -3.1515   -3.6770 H   0  0  0  0  0  0  0  0  0  0  0  0
    2.6742   -4.9375   -3.7468 H   0  0  0  0  0  0  0  0  0  0  0  0
    1.6685   -4.0867   -4.9681 H   0  0  0  0  0  0  0  0  0  0  0  0
   -6.7256    2.0330   -0.2766 C   0  0  0  0  0  0  0  0  0  0  0  0
   -7.1824    1.1039   -0.9322 O   0  0  0  0  0  0  0  0  0  0  0  0
   -7.5276    2.6077    0.8435 C   0  0  0  0  0  0  0  0  0  0  0  0
   -8.1775    3.4344    0.5145 H   0  0  0  0  0  0  0  0  0  0  0  0
   -8.2057    1.8676    1.2980 H   0  0  0  0  0  0  0  0  0  0  0  0
   -6.9411    3.0162    1.6819 H   0  0  0  0  0  0  0  0  0  0  0  0
   -5.4935    2.6382   -0.4627 N   0  0  0  0  0  0  0  0  0  0  0  0
   -4.5619    2.2388   -1.4845 C   0  0  2  0  0  0  0  0  0  0  0  0
   -3.1535    2.4674   -0.9521 C   0  0  0  0  0  0  0  0  0  0  0  0
   -2.8634    3.3945   -0.1987 O   0  0  0  0  0  0  0  0  0  0  0  0
   -4.7883    3.0138   -2.7732 C   0  0  0  0  0  0  0  0  0  0  0  0
   -5.2337    3.4049    0.1551 H   0  0  0  0  0  0  0  0  0  0  0  0
   -4.7192    1.1682   -1.6549 H   0  0  0  0  0  0  0  0  0  0  0  0
   -4.6352    4.0886   -2.6221 H   0  0  0  0  0  0  0  0  0  0  0  0
   -4.0976    2.6887   -3.5582 H   0  0  0  0  0  0  0  0  0  0  0  0
   -5.8111    2.8719   -3.1387 H   0  0  0  0  0  0  0  0  0  0  0  0
   -2.2466    1.5400   -1.4507 N   0  0  0  0  0  0  0  0  0  0  0  0
   -0.8424    1.5707   -1.1286 C   0  0  2  0  0  0  0  0  0  0  0  0
   -0.1172    2.4330   -2.1597 C   0  0  0  0  0  0  0  0  0  0  0  0
    0.9515    2.1070   -2.6724 O   0  0  0  0  0  0  0  0  0  0  0  0
   -0.2471    0.1680   -0.9838 C   0  0  0  0  0  0  0  0  0  0  0  0
   -0.9246   -0.7716    0.4057 S   0  0  0  0  0  0  0  0  0  0  0  0
   -2.5850    0.7815   -2.0381 H   0  0  0  0  0  0  0  0  0  0  0  0
   -0.7732    2.0832   -0.1610 H   0  0  0  0  0  0  0  0  0  0  0  0
   -0.4208   -0.4188   -1.8917 H   0  0  0  0  0  0  0  0  0  0  0  0
    0.8362    0.2358   -0.8365 H   0  0  0  0  0  0  0  0  0  0  0  0
   -0.7909    3.6178   -2.4202 N   0  0  0  0  0  0  0  0  0  0  0  0
   -0.2919    4.6112   -3.3421 C   0  0  2  0  0  0  0  0  0  0  0  0
   -0.7236    5.9813   -2.8361 C   0  0  0  0  0  0  0  0  0  0  0  0
   -1.7894    6.1768   -2.2557 O   0  0  0  0  0  0  0  0  0  0  0  0
   -0.8063    4.3656   -4.7520 C   0  0  0  0  0  0  0  0  0  0  0  0
   -1.6920    3.7871   -1.9831 H   0  0  0  0  0  0  0  0  0  0  0  0
    0.8011    4.5413   -3.3213 H   0  0  0  0  0  0  0  0  0  0  0  0
   -1.8997    4.4316   -4.7926 H   0  0  0  0  0  0  0  0  0  0  0  0
   -0.4044    5.1027   -5.4550 H   0  0  0  0  0  0  0  0  0  0  0  0
   -0.5203    3.3682   -5.1029 H   0  0  0  0  0  0  0  0  0  0  0  0
    0.2017    6.9679   -3.1472 N   0  0  0  0  0  0  0  0  0  0  0  0
    0.0012    8.3584   -2.8122 C   0  0  0  0  0  0  0  0  0  0  0  0
    1.0763    6.7095   -3.5945 H   0  0  0  0  0  0  0  0  0  0  0  0
   -0.4777    8.8744   -3.6574 H   0  0  0  0  0  0  0  0  0  0  0  0
   -0.6443    8.4321   -1.9245 H   0  0  0  0  0  0  0  0  0  0  0  0
    0.9728    8.8279   -2.5990 H   0  0  0  0  0  0  0  0  0  0  0  0
  1  3  1  0  0  0  0
  1  7  1  0  0  0  0
  1  2  2  0  0  0  0
 23 25  1  0  0  0  0
 23 29  1  0  0  0  0
 23 24  2  0  0  0  0
 50 51  1  0  0  0  0
 51 59  1  0  0  0  0
 51 52  2  0  0  0  0
  8  9  1  0  0  0  0
  9 17  1  0  0  0  0
  9 10  2  0  0  0  0
 30 31  1  0  0  0  0
 31 39  1  0  0  0  0
 31 32  2  0  0  0  0
 40 41  1  0  0  0  0
 41 49  1  0  0  0  0
 41 42  2  0  0  0  0
 50 53  1  0  0  0  0
 30 33  1  0  0  0  0
 59 60  1  0  0  0  0
 17 18  1  0  0  0  0
  8 11  1  0  0  0  0
 11 12  1  0  0  0  0
 40 43  1  0  0  0  0
 43 44  1  0  0  0  0
 49 50  1  0  0  0  0
  7  8  1  0  0  0  0
 29 30  1  0  0  0  0
 39 40  1  0  0  0  0
 12 44  1  0  0  0  0
  3  4  1  0  0  0  0
  3  5  1  0  0  0  0
  3  6  1  0  0  0  0
 25 26  1  0  0  0  0
 25 27  1  0  0  0  0
 25 28  1  0  0  0  0
 53 56  1  0  0  0  0
 53 57  1  0  0  0  0
 53 58  1  0  0  0  0
 33 36  1  0  0  0  0
 33 37  1  0  0  0  0
 33 38  1  0  0  0  0
 60 62  1  0  0  0  0
 60 63  1  0  0  0  0
 60 64  1  0  0  0  0
 18 20  1  0  0  0  0
 18 21  1  0  0  0  0
 18 22  1  0  0  0  0
 11 15  1  0  0  0  0
 11 16  1  0  0  0  0
 43 47  1  0  0  0  0
 43 48  1  0  0  0  0
 50 55  1  0  0  0  0
  8 14  1  0  0  0  0
 30 35  1  0  0  0  0
 40 46  1  0  0  0  0
 59 61  1  0  0  0  0
 17 19  1  0  0  0  0
  7 13  1  0  0  0  0
 29 34  1  0  0  0  0
 49 54  1  0  0  0  0
 39 45  1  0  0  0  0
M  END
$$$$

  -OEChem-05262214473D

 64 63  0     1  0  0  0  0  0999 V2000
   -1.4379   -6.4981    0.5200 C   0  0  0  0  0  0  0  0  0  0  0  0
   -2.5551   -6.5872    0.0244 O   0  0  0  0  0  0  0  0  0  0  0  0
   -1.1185   -7.2682    1.7582 C   0  0  0  0  0  0  0  0  0  0  0  0
   -1.3420   -6.7007    2.6758 H   0  0  0  0  0  0  0  0  0  0  0  0
   -1.7066   -8.1965    1.8395 H   0  0  0  0  0  0  0  0  0  0  0  0
   -0.0672   -7.5817    1.8602 H   0  0  0  0  0  0  0  0  0  0  0  0
   -0.3885   -5.7323    0.0421 N   0  0  0  0  0  0  0  0  0  0  0  0
   -0.4807   -4.9141   -1.1404 C   0  0  2  0  0  0  0  0  0  0  0  0
    0.8687   -4.9251   -1.8558 C   0  0  0  0  0  0  0  0  0  0  0  0
    1.8708   -5.4613   -1.3870 O   0  0  0  0  0  0  0  0  0  0  0  0
   -0.9943   -3.5048   -0.8353 C   0  0  0  0  0  0  0  0  0  0  0  0
    0.1044   -2.5428    0.2556 S   0  0  0  0  0  0  0  0  0  0  0  0
    0.4922   -5.7480    0.5515 H   0  0  0  0  0  0  0  0  0  0  0  0
   -1.2050   -5.4185   -1.7921 H   0  0  0  0  0  0  0  0  0  0  0  0
   -1.1199   -2.9328   -1.7603 H   0  0  0  0  0  0  0  0  0  0  0  0
   -1.9730   -3.5621   -0.3467 H   0  0  0  0  0  0  0  0  0  0  0  0
    0.8273   -4.2456   -3.0650 N   0  0  0  0  0  0  0  0  0  0  0  0
    1.9855   -4.0963   -3.9148 C   0  0  0  0  0  0  0  0  0  0  0  0
   -0.0557   -3.8691   -3.3969 H   0  0  0  0  0  0  0  0  0  0  0  0
    2.4961   -3.1515   -3.6770 H   0  0  0  0  0  0  0  0  0  0  0  0
    2.6742   -4.9375   -3.7468 H   0  0  0  0  0  0  0  0  0  0  0  0
    1.6685   -4.0867   -4.9681 H   0  0  0  0  0  0  0  0  0  0  0  0
   -6.7256    2.0330   -0.2766 C   0  0  0  0  0  0  0  0  0  0  0  0
   -7.1824    1.1039   -0.9322 O   0  0  0  0  0  0  0  0  0  0  0  0
   -7.5276    2.6077    0.8435 C   0  0  0  0  0  0  0  0  0  0  0  0
   -8.1775    3.4344    0.5145 H   0  0  0  0  0  0  0  0  0  0  0  0
   -8.2057    1.8676    1.2980 H   0  0  0  0  0  0  0  0  0  0  0  0
   -6.9411    3.0162    1.6819 H   0  0  0  0  0  0  0  0  0  0  0  0
   -5.4935    2.6382   -0.4627 N   0  0  0  0  0  0  0  0  0  0  0  0
   -4.5619    2.2388   -1.4845 C   0  0  2  0  0  0  0  0  0  0  0  0
   -3.1535    2.4674   -0.9521 C   0  0  0  0  0  0  0  0  0  0  0  0
   -2.8634    3.3945   -0.1987 O   0  0  0  0  0  0  0  0  0  0  0  0
   -4.7883    3.0138   -2.7732 C   0  0  0  0  0  0  0  0  0  0  0  0
   -5.2337    3.4049    0.1551 H   0  0  0  0  0  0  0  0  0  0  0  0
   -4.7192    1.1682   -1.6549 H   0  0  0  0  0  0  0  0  0  0  0  0
   -4.6352    4.0886   -2.6221 H   0  0  0  0  0  0  0  0  0  0  0  0
   -4.0976    2.6887   -3.5582 H   0  0  0  0  0  0  0  0  0  0  0  0
   -5.8111    2.8719   -3.1387 H   0  0  0  0  0  0  0  0  0  0  0  0
   -2.2466    1.5400   -1.4507 N   0  0  0  0  0  0  0  0  0  0  0  0
   -0.8424    1.5707   -1.1286 C   0  0  2  0  0  0  0  0  0  0  0  0
   -0.1172    2.4330   -2.1597 C   0  0  0  0  0  0  0  0  0  0  0  0
    0.7941    2.0073   -2.8666 O   0  0  0  0  0  0  0  0  0  0  0  0
   -0.2471    0.1680   -0.9838 C   0  0  0  0  0  0  0  0  0  0  0  0
   -0.9246   -0.7716    0.4057 S   0  0  0  0  0  0  0  0  0  0  0  0
   -2.5850    0.7815   -2.0381 H   0  0  0  0  0  0  0  0  0  0  0  0
   -0.7732    2.0832   -0.1610 H   0  0  0  0  0  0  0  0  0  0  0  0
   -0.4208   -0.4188   -1.8917 H   0  0  0  0  0  0  0  0  0  0  0  0
    0.8362    0.2358   -0.8365 H   0  0  0  0  0  0  0  0  0  0  0  0
   -0.5905    3.7373   -2.1793 N   0  0  0  0  0  0  0  0  0  0  0  0
   -0.0466    4.7503   -3.0533 C   0  0  2  0  0  0  0  0  0  0  0  0
   -0.1466    6.0913   -2.3384 C   0  0  0  0  0  0  0  0  0  0  0  0
   -1.0698    6.3799   -1.5798 O   0  0  0  0  0  0  0  0  0  0  0  0
   -0.7832    4.7871   -4.3833 C   0  0  0  0  0  0  0  0  0  0  0  0
   -1.3776    3.9924   -1.5903 H   0  0  0  0  0  0  0  0  0  0  0  0
    1.0075    4.4981   -3.2122 H   0  0  0  0  0  0  0  0  0  0  0  0
   -1.8411    5.0382   -4.2442 H   0  0  0  0  0  0  0  0  0  0  0  0
   -0.3514    5.5360   -5.0554 H   0  0  0  0  0  0  0  0  0  0  0  0
   -0.7356    3.8132   -4.8823 H   0  0  0  0  0  0  0  0  0  0  0  0
    0.8936    6.9440   -2.6806 N   0  0  0  0  0  0  0  0  0  0  0  0
    0.9994    8.2899   -2.1674 C   0  0  0  0  0  0  0  0  0  0  0  0
    1.6372    6.6075   -3.2853 H   0  0  0  0  0  0  0  0  0  0  0  0
    0.5138    8.9880   -2.8651 H   0  0  0  0  0  0  0  0  0  0  0  0
    0.5045    8.3482   -1.1868 H   0  0  0  0  0  0  0  0  0  0  0  0
    2.0606    8.5586   -2.0592 H   0  0  0  0  0  0  0  0  0  0  0  0
  1  3  1  0  0  0  0
  1  7  1  0  0  0  0
  1  2  2  0  0  0  0
 23 25  1  0  0  0  0
 23 29  1  0  0  0  0
 23 24  2  0  0  0  0
 50 51  1  0  0  0  0
 51 59  1  0  0  0  0
 51 52  2  0  0  0  0
  8  9  1  0  0  0  0
  9 17  1  0  0  0  0
  9 10  2  0  0  0  0
 30 31  1  0  0  0  0
 31 39  1  0  0  0  0
 31 32  2  0  0  0  0
 40 41  1  0  0  0  0
 41 49  1  0  0  0  0
 41 42  2  0  0  0  0
 50 53  1  0  0  0  0
 30 33  1  0  0  0  0
 59 60  1  0  0  0  0
 17 18  1  0  0  0  0
  8 11  1  0  0  0  0
 11 12  1  0  0  0  0
 40 43  1  0  0  0  0
 43 44  1  0  0  0  0
 49 50  1  0  0  0  0
  7  8  1  0  0  0  0
 29 30  1  0  0  0  0
 39 40  1  0  0  0  0
 12 44  1  0  0  0  0
  3  4  1  0  0  0  0
  3  5  1  0  0  0  0
  3  6  1  0  0  0  0
 25 26  1  0  0  0  0
 25 27  1  0  0  0  0
 25 28  1  0  0  0  0
 53 56  1  0  0  0  0
 53 57  1  0  0  0  0
 53 58  1  0  0  0  0
 33 36  1  0  0  0  0
 33 37  1  0  0  0  0
 33 38  1  0  0  0  0
 60 62  1  0  0  0  0
 60 63  1  0  0  0  0
 60 64  1  0  0  0  0
 18 20  1  0  0  0  0
 18 21  1  0  0  0  0
 18 22  1  0  0  0  0
 11 15  1  0  0  0  0
 11 16  1  0  0  0  0
 43 47  1  0  0  0  0
 43 48  1  0  0  0  0
 50 55  1  0  0  0  0
  8 14  1  0  0  0  0
 30 35  1  0  0  0  0
 40 46  1  0  0  0  0
 59 61  1  0  0  0  0
 17 19  1  0  0  0  0
  7 13  1  0  0  0  0
 29 34  1  0  0  0  0
 49 54  1  0  0  0  0
 39 45  1  0  0  0  0
M  END
$$$$

  -OEChem-05262214473D

 64 63  0     1  0  0  0  0  0999 V2000
   -1.4379   -6.4981    0.5200 C   0  0  0  0  0  0  0  0  0  0  0  0
   -2.5551   -6.5872    0.0244 O   0  0  0  0  0  0  0  0  0  0  0  0
   -1.1185   -7.2682    1.7582 C   0  0  0  0  0  0  0  0  0  0  0  0
   -1.3420   -6.7007    2.6758 H   0  0  0  0  0  0  0  0  0  0  0  0
   -1.7066   -8.1965    1.8395 H   0  0  0  0  0  0  0  0  0  0  0  0
   -0.0672   -7.5817    1.8602 H   0  0  0  0  0  0  0  0  0  0  0  0
   -0.3885   -5.7323    0.0421 N   0  0  0  0  0  0  0  0  0  0  0  0
   -0.4807   -4.9141   -1.1404 C   0  0  2  0  0  0  0  0  0  0  0  0
    0.8687   -4.9251   -1.8558 C   0  0  0  0  0  0  0  0  0  0  0  0
    1.8708   -5.4613   -1.3870 O   0  0  0  0  0  0  0  0  0  0  0  0
   -0.9943   -3.5048   -0.8353 C   0  0  0  0  0  0  0  0  0  0  0  0
    0.1044   -2.5428    0.2556 S   0  0  0  0  0  0  0  0  0  0  0  0
    0.4922   -5.7480    0.5515 H   0  0  0  0  0  0  0  0  0  0  0  0
   -1.2050   -5.4185   -1.7921 H   0  0  0  0  0  0  0  0  0  0  0  0
   -1.1199   -2.9328   -1.7603 H   0  0  0  0  0  0  0  0  0  0  0  0
   -1.9730   -3.5621   -0.3467 H   0  0  0  0  0  0  0  0  0  0  0  0
    0.8273   -4.2456   -3.0650 N   0  0  0  0  0  0  0  0  0  0  0  0
    1.9855   -4.0963   -3.9148 C   0  0  0  0  0  0  0  0  0  0  0  0
   -0.0557   -3.8691   -3.3969 H   0  0  0  0  0  0  0  0  0  0  0  0
    2.4961   -3.1515   -3.6770 H   0  0  0  0  0  0  0  0  0  0  0  0
    2.6742   -4.9375   -3.7468 H   0  0  0  0  0  0  0  0  0  0  0  0
    1.6685   -4.0867   -4.9681 H   0  0  0  0  0  0  0  0  0  0  0  0
   -6.7256    2.0330   -0.2766 C   0  0  0  0  0  0  0  0  0  0  0  0
   -7.1824    1.1039   -0.9322 O   0  0  0  0  0  0  0  0  0  0  0  0
   -7.5276    2.6077    0.8435 C   0  0  0  0  0  0  0  0  0  0  0  0
   -8.1775    3.4344    0.5145 H   0  0  0  0  0  0  0  0  0  0  0  0
   -8.2057    1.8676    1.2980 H   0  0  0  0  0  0  0  0  0  0  0  0
   -6.9411    3.0162    1.6819 H   0  0  0  0  0  0  0  0  0  0  0  0
   -5.4935    2.6382   -0.4627 N   0  0  0  0  0  0  0  0  0  0  0  0
   -4.5619    2.2388   -1.4845 C   0  0  2  0  0  0  0  0  0  0  0  0
   -3.1535    2.4674   -0.9521 C   0  0  0  0  0  0  0  0  0  0  0  0
   -2.8634    3.3945   -0.1987 O   0  0  0  0  0  0  0  0  0  0  0  0
   -4.7883    3.0138   -2.7732 C   0  0  0  0  0  0  0  0  0  0  0  0
   -5.2337    3.4049    0.1551 H   0  0  0  0  0  0  0  0  0  0  0  0
   -4.7192    1.1682   -1.6549 H   0  0  0  0  0  0  0  0  0  0  0  0
   -4.6352    4.0886   -2.6221 H   0  0  0  0  0  0  0  0  0  0  0  0
   -4.0976    2.6887   -3.5582 H   0  0  0  0  0  0  0  0  0  0  0  0
   -5.8111    2.8719   -3.1387 H   0  0  0  0  0  0  0  0  0  0  0  0
   -2.2466    1.5400   -1.4507 N   0  0  0  0  0  0  0  0  0  0  0  0
   -0.8424    1.5707   -1.1286 C   0  0  2  0  0  0  0  0  0  0  0  0
   -0.1172    2.4330   -2.1597 C   0  0  0  0  0  0  0  0  0  0  0  0
    0.5962    1.9623   -3.0434 O   0  0  0  0  0  0  0  0  0  0  0  0
   -0.2471    0.1680   -0.9838 C   0  0  0  0  0  0  0  0  0  0  0  0
   -0.9246   -0.7716    0.4057 S   0  0  0  0  0  0  0  0  0  0  0  0
   -2.5850    0.7815   -2.0381 H   0  0  0  0  0  0  0  0  0  0  0  0
   -0.7732    2.0832   -0.1610 H   0  0  0  0  0  0  0  0  0  0  0  0
   -0.4208   -0.4188   -1.8917 H   0  0  0  0  0  0  0  0  0  0  0  0
    0.8362    0.2358   -0.8365 H   0  0  0  0  0  0  0  0  0  0  0  0
   -0.3408    3.7880   -1.9613 N   0  0  0  0  0  0  0  0  0  0  0  0
    0.2568    4.8062   -2.7932 C   0  0  2  0  0  0  0  0  0  0  0  0
    0.5027    6.0355   -1.9284 C   0  0  0  0  0  0  0  0  0  0  0  0
   -0.2406    6.3672   -1.0072 O   0  0  0  0  0  0  0  0  0  0  0  0
   -0.6334    5.1449   -3.9788 C   0  0  0  0  0  0  0  0  0  0  0  0
   -0.9806    4.0876   -1.2315 H   0  0  0  0  0  0  0  0  0  0  0  0
    1.2153    4.4069   -3.1424 H   0  0  0  0  0  0  0  0  0  0  0  0
   -1.5984    5.5464   -3.6486 H   0  0  0  0  0  0  0  0  0  0  0  0
   -0.1661    5.8962   -4.6239 H   0  0  0  0  0  0  0  0  0  0  0  0
   -0.8335    4.2535   -4.5830 H   0  0  0  0  0  0  0  0  0  0  0  0
    1.6260    6.7426   -2.3339 N   0  0  0  0  0  0  0  0  0  0  0  0
    2.0458    7.9700   -1.6990 C   0  0  0  0  0  0  0  0  0  0  0  0
    2.2063    6.3730   -3.0812 H   0  0  0  0  0  0  0  0  0  0  0  0
    1.6071    8.8272   -2.2307 H   0  0  0  0  0  0  0  0  0  0  0  0
    1.7073    7.9757   -0.6523 H   0  0  0  0  0  0  0  0  0  0  0  0
    3.1430    8.0420   -1.7299 H   0  0  0  0  0  0  0  0  0  0  0  0
  1  3  1  0  0  0  0
  1  7  1  0  0  0  0
  1  2  2  0  0  0  0
 23 25  1  0  0  0  0
 23 29  1  0  0  0  0
 23 24  2  0  0  0  0
 50 51  1  0  0  0  0
 51 59  1  0  0  0  0
 51 52  2  0  0  0  0
  8  9  1  0  0  0  0
  9 17  1  0  0  0  0
  9 10  2  0  0  0  0
 30 31  1  0  0  0  0
 31 39  1  0  0  0  0
 31 32  2  0  0  0  0
 40 41  1  0  0  0  0
 41 49  1  0  0  0  0
 41 42  2  0  0  0  0
 50 53  1  0  0  0  0
 30 33  1  0  0  0  0
 59 60  1  0  0  0  0
 17 18  1  0  0  0  0
  8 11  1  0  0  0  0
 11 12  1  0  0  0  0
 40 43  1  0  0  0  0
 43 44  1  0  0  0  0
 49 50  1  0  0  0  0
  7  8  1  0  0  0  0
 29 30  1  0  0  0  0
 39 40  1  0  0  0  0
 12 44  1  0  0  0  0
  3  4  1  0  0  0  0
  3  5  1  0  0  0  0
  3  6  1  0  0  0  0
 25 26  1  0  0  0  0
 25 27  1  0  0  0  0
 25 28  1  0  0  0  0
 53 56  1  0  0  0  0
 53 57  1  0  0  0  0
 53 58  1  0  0  0  0
 33 36  1  0  0  0  0
 33 37  1  0  0  0  0
 33 38  1  0  0  0  0
 60 62  1  0  0  0  0
 60 63  1  0  0  0  0
 60 64  1  0  0  0  0
 18 20  1  0  0  0  0
 18 21  1  0  0  0  0
 18 22  1  0  0  0  0
 11 15  1  0  0  0  0
 11 16  1  0  0  0  0
 43 47  1  0  0  0  0
 43 48  1  0  0  0  0
 50 55  1  0  0  0  0
  8 14  1  0  0  0  0
 30 35  1  0  0  0  0
 40 46  1  0  0  0  0
 59 61  1  0  0  0  0
 17 19  1  0  0  0  0
  7 13  1  0  0  0  0
 29 34  1  0  0  0  0
 49 54  1  0  0  0  0
 39 45  1  0  0  0  0
M  END
$$$$

  -OEChem-05262214473D

 64 63  0     1  0  0  0  0  0999 V2000
   -1.4379   -6.4981    0.5200 C   0  0  0  0  0  0  0  0  0  0  0  0
   -2.5551   -6.5872    0.0244 O   0  0  0  0  0  0  0  0  0  0  0  0
   -1.1185   -7.2682    1.7582 C   0  0  0  0  0  0  0  0  0  0  0  0
   -1.3420   -6.7007    2.6758 H   0  0  0  0  0  0  0  0  0  0  0  0
   -1.7066   -8.1965    1.8395 H   0  0  0  0  0  0  0  0  0  0  0  0
   -0.0672   -7.5817    1.8602 H   0  0  0  0  0  0  0  0  0  0  0  0
   -0.3885   -5.7323    0.0421 N   0  0  0  0  0  0  0  0  0  0  0  0
   -0.4807   -4.9141   -1.1404 C   0  0  2  0  0  0  0  0  0  0  0  0
    0.8687   -4.9251   -1.8558 C   0  0  0  0  0  0  0  0  0  0  0  0
    1.8708   -5.4613   -1.3870 O   0  0  0  0  0  0  0  0  0  0  0  0
   -0.9943   -3.5048   -0.8353 C   0  0  0  0  0  0  0  0  0  0  0  0
    0.1044   -2.5428    0.2556 S   0  0  0  0  0  0  0  0  0  0  0  0
    0.4922   -5.7480    0.5515 H   0  0  0  0  0  0  0  0  0  0  0  0
   -1.2050   -5.4185   -1.7921 H   0  0  0  0  0  0  0  0  0  0  0  0
   -1.1199   -2.9328   -1.7603 H   0  0  0  0  0  0  0  0  0  0  0  0
   -1.9730   -3.5621   -0.3467 H   0  0  0  0  0  0  0  0  0  0  0  0
    0.8273   -4.2456   -3.0650 N   0  0  0  0  0  0  0  0  0  0  0  0
    1.9855   -4.0963   -3.9148 C   0  0  0  0  0  0  0  0  0  0  0  0
   -0.0557   -3.8691   -3.3969 H   0  0  0  0  0  0  0  0  0  0  0  0
    2.4961   -3.1515   -3.6770 H   0  0  0  0  0  0  0  0  0  0  0  0
    2.6742   -4.9375   -3.7468 H   0  0  0  0  0  0  0  0  0  0  0  0
    1.6685   -4.0867   -4.9681 H   0  0  0  0  0  0  0  0  0  0  0  0
   -6.7256    2.0330   -0.2766 C   0  0  0  0  0  0  0  0  0  0  0  0
   -7.1824    1.1039   -0.9322 O   0  0  0  0  0  0  0  0  0  0  0  0
   -7.5276    2.6077    0.8435 C   0  0  0  0  0  0  0  0  0  0  0  0
   -8.1775    3.4344    0.5145 H   0  0  0  0  0  0  0  0  0  0  0  0
   -8.2057    1.8676    1.2980 H   0  0  0  0  0  0  0  0  0  0  0  0
   -6.9411    3.0162    1.6819 H   0  0  0  0  0  0  0  0  0  0  0  0
   -5.4935    2.6382   -0.4627 N   0  0  0  0  0  0  0  0  0  0  0  0
   -4.5619    2.2388   -1.4845 C   0  0  2  0  0  0  0  0  0  0  0  0
   -3.1535    2.4674   -0.9521 C   0  0  0  0  0  0  0  0  0  0  0  0
   -2.8634    3.3945   -0.1987 O   0  0  0  0  0  0  0  0  0  0  0  0
   -4.7883    3.0138   -2.7732 C   0  0  0  0  0  0  0  0  0  0  0  0
   -5.2337    3.4049    0.1551 H   0  0  0  0  0  0  0  0  0  0  0  0
   -4.7192    1.1682   -1.6549 H   0  0  0  0  0  0  0  0  0  0  0  0
   -4.6352    4.0886   -2.6221 H   0  0  0  0  0  0  0  0  0  0  0  0
   -4.0976    2.6887   -3.5582 H   0  0  0  0  0  0  0  0  0  0  0  0
   -5.8111    2.8719   -3.1387 H   0  0  0  0  0  0  0  0  0  0  0  0
   -2.2466    1.5400   -1.4507 N   0  0  0  0  0  0  0  0  0  0  0  0
   -0.8424    1.5707   -1.1286 C   0  0  2  0  0  0  0  0  0  0  0  0
   -0.1172    2.4330   -2.1597 C   0  0  0  0  0  0  0  0  0  0  0  0
    0.3714    1.9751   -3.1908 O   0  0  0  0  0  0  0  0  0  0  0  0
   -0.2471    0.1680   -0.9838 C   0  0  0  0  0  0  0  0  0  0  0  0
   -0.9246   -0.7716    0.4057 S   0  0  0  0  0  0  0  0  0  0  0  0
   -2.5850    0.7815   -2.0381 H   0  0  0  0  0  0  0  0  0  0  0  0
   -0.7732    2.0832   -0.1610 H   0  0  0  0  0  0  0  0  0  0  0  0
   -0.4208   -0.4188   -1.8917 H   0  0  0  0  0  0  0  0  0  0  0  0
    0.8362    0.2358   -0.8365 H   0  0  0  0  0  0  0  0  0  0  0  0
   -0.0589    3.7666   -1.7809 N   0  0  0  0  0  0  0  0  0  0  0  0
    0.5977    4.7752   -2.5793 C   0  0  2  0  0  0  0  0  0  0  0  0
    1.1801    5.8178   -1.6341 C   0  0  0  0  0  0  0  0  0  0  0  0
    0.6419    6.1397   -0.5768 O   0  0  0  0  0  0  0  0  0  0  0  0
   -0.3670    5.4146   -3.5659 C   0  0  0  0  0  0  0  0  0  0  0  0
   -0.5281    4.0660   -0.9313 H   0  0  0  0  0  0  0  0  0  0  0  0
    1.4102    4.2740   -3.1165 H   0  0  0  0  0  0  0  0  0  0  0  0
   -1.1881    5.9217   -3.0462 H   0  0  0  0  0  0  0  0  0  0  0  0
    0.1388    6.1587   -4.1899 H   0  0  0  0  0  0  0  0  0  0  0  0
   -0.8075    4.6591   -4.2255 H   0  0  0  0  0  0  0  0  0  0  0  0
    2.3489    6.3775   -2.1308 N   0  0  0  0  0  0  0  0  0  0  0  0
    3.0692    7.4207   -1.4387 C   0  0  0  0  0  0  0  0  0  0  0  0
    2.7449    6.0219   -2.9959 H   0  0  0  0  0  0  0  0  0  0  0  0
    2.7278    8.4029   -1.7975 H   0  0  0  0  0  0  0  0  0  0  0  0
    2.8822    7.3400   -0.3577 H   0  0  0  0  0  0  0  0  0  0  0  0
    4.1465    7.3135   -1.6334 H   0  0  0  0  0  0  0  0  0  0  0  0
  1  3  1  0  0  0  0
  1  7  1  0  0  0  0
  1  2  2  0  0  0  0
 23 25  1  0  0  0  0
 23 29  1  0  0  0  0
 23 24  2  0  0  0  0
 50 51  1  0  0  0  0
 51 59  1  0  0  0  0
 51 52  2  0  0  0  0
  8  9  1  0  0  0  0
  9 17  1  0  0  0  0
  9 10  2  0  0  0  0
 30 31  1  0  0  0  0
 31 39  1  0  0  0  0
 31 32  2  0  0  0  0
 40 41  1  0  0  0  0
 41 49  1  0  0  0  0
 41 42  2  0  0  0  0
 50 53  1  0  0  0  0
 30 33  1  0  0  0  0
 59 60  1  0  0  0  0
 17 18  1  0  0  0  0
  8 11  1  0  0  0  0
 11 12  1  0  0  0  0
 40 43  1  0  0  0  0
 43 44  1  0  0  0  0
 49 50  1  0  0  0  0
  7  8  1  0  0  0  0
 29 30  1  0  0  0  0
 39 40  1  0  0  0  0
 12 44  1  0  0  0  0
  3  4  1  0  0  0  0
  3  5  1  0  0  0  0
  3  6  1  0  0  0  0
 25 26  1  0  0  0  0
 25 27  1  0  0  0  0
 25 28  1  0  0  0  0
 53 56  1  0  0  0  0
 53 57  1  0  0  0  0
 53 58  1  0  0  0  0
 33 36  1  0  0  0  0
 33 37  1  0  0  0  0
 33 38  1  0  0  0  0
 60 62  1  0  0  0  0
 60 63  1  0  0  0  0
 60 64  1  0  0  0  0
 18 20  1  0  0  0  0
 18 21  1  0  0  0  0
 18 22  1  0  0  0  0
 11 15  1  0  0  0  0
 11 16  1  0  0  0  0
 43 47  1  0  0  0  0
 43 48  1  0  0  0  0
 50 55  1  0  0  0  0
  8 14  1  0  0  0  0
 30 35  1  0  0  0  0
 40 46  1  0  0  0  0
 59 61  1  0  0  0  0
 17 19  1  0  0  0  0
  7 13  1  0  0  0  0
 29 34  1  0  0  0  0
 49 54  1  0  0  0  0
 39 45  1  0  0  0  0
M  END
$$$$

  -OEChem-05262214473D

 64 63  0     1  0  0  0  0  0999 V2000
   -1.4379   -6.4981    0.5200 C   0  0  0  0  0  0  0  0  0  0  0  0
   -2.5551   -6.5872    0.0244 O   0  0  0  0  0  0  0  0  0  0  0  0
   -1.1185   -7.2682    1.7582 C   0  0  0  0  0  0  0  0  0  0  0  0
   -1.3420   -6.7007    2.6758 H   0  0  0  0  0  0  0  0  0  0  0  0
   -1.7066   -8.1965    1.8395 H   0  0  0  0  0  0  0  0  0  0  0  0
   -0.0672   -7.5817    1.8602 H   0  0  0  0  0  0  0  0  0  0  0  0
   -0.3885   -5.7323    0.0421 N   0  0  0  0  0  0  0  0  0  0  0  0
   -0.4807   -4.9141   -1.1404 C   0  0  2  0  0  0  0  0  0  0  0  0
    0.8687   -4.9251   -1.8558 C   0  0  0  0  0  0  0  0  0  0  0  0
    1.8708   -5.4613   -1.3870 O   0  0  0  0  0  0  0  0  0  0  0  0
   -0.9943   -3.5048   -0.8353 C   0  0  0  0  0  0  0  0  0  0  0  0
    0.1044   -2.5428    0.2556 S   0  0  0  0  0  0  0  0  0  0  0  0
    0.4922   -5.7480    0.5515 H   0  0  0  0  0  0  0  0  0  0  0  0
   -1.2050   -5.4185   -1.7921 H   0  0  0  0  0  0  0  0  0  0  0  0
   -1.1199   -2.9328   -1.7603 H   0  0  0  0  0  0  0  0  0  0  0  0
   -1.9730   -3.5621   -0.3467 H   0  0  0  0  0  0  0  0  0  0  0  0
    0.8273   -4.2456   -3.0650 N   0  0  0  0  0  0  0  0  0  0  0  0
    1.9855   -4.0963   -3.9148 C   0  0  0  0  0  0  0  0  0  0  0  0
   -0.0557   -3.8691   -3.3969 H   0  0  0  0  0  0  0  0  0  0  0  0
    2.4961   -3.1515   -3.6770 H   0  0  0  0  0  0  0  0  0  0  0  0
    2.6742   -4.9375   -3.7468 H   0  0  0  0  0  0  0  0  0  0  0  0
    1.6685   -4.0867   -4.9681 H   0  0  0  0  0  0  0  0  0  0  0  0
   -6.7256    2.0330   -0.2766 C   0  0  0  0  0  0  0  0  0  0  0  0
   -7.1824    1.1039   -0.9322 O   0  0  0  0  0  0  0  0  0  0  0  0
   -7.5276    2.6077    0.8435 C   0  0  0  0  0  0  0  0  0  0  0  0
   -8.1775    3.4344    0.5145 H   0  0  0  0  0  0  0  0  0  0  0  0
   -8.2057    1.8676    1.2980 H   0  0  0  0  0  0  0  0  0  0  0  0
   -6.9411    3.0162    1.6819 H   0  0  0  0  0  0  0  0  0  0  0  0
   -5.4935    2.6382   -0.4627 N   0  0  0  0  0  0  0  0  0  0  0  0
   -4.5619    2.2388   -1.4845 C   0  0  2  0  0  0  0  0  0  0  0  0
   -3.1535    2.4674   -0.9521 C   0  0  0  0  0  0  0  0  0  0  0  0
   -2.8634    3.3945   -0.1987 O   0  0  0  0  0  0  0  0  0  0  0  0
   -4.7883    3.0138   -2.7732 C   0  0  0  0  0  0  0  0  0  0  0  0
   -5.2337    3.4049    0.1551 H   0  0  0  0  0  0  0  0  0  0  0  0
   -4.7192    1.1682   -1.6549 H   0  0  0  0  0  0  0  0  0  0  0  0
   -4.6352    4.0886   -2.6221 H   0  0  0  0  0  0  0  0  0  0  0  0
   -4.0976    2.6887   -3.5582 H   0  0  0  0  0  0  0  0  0  0  0  0
   -5.8111    2.8719   -3.1387 H   0  0  0  0  0  0  0  0  0  0  0  0
   -2.2466    1.5400   -1.4507 N   0  0  0  0  0  0  0  0  0  0  0  0
   -0.8424    1.5707   -1.1286 C   0  0  2  0  0  0  0  0  0  0  0  0
   -0.1172    2.4330   -2.1597 C   0  0  0  0  0  0  0  0  0  0  0  0
    0.1349    2.0449   -3.2987 O   0  0  0  0  0  0  0  0  0  0  0  0
   -0.2471    0.1680   -0.9838 C   0  0  0  0  0  0  0  0  0  0  0  0
   -0.9246   -0.7716    0.4057 S   0  0  0  0  0  0  0  0  0  0  0  0
   -2.5850    0.7815   -2.0381 H   0  0  0  0  0  0  0  0  0  0  0  0
   -0.7732    2.0832   -0.1610 H   0  0  0  0  0  0  0  0  0  0  0  0
   -0.4208   -0.4188   -1.8917 H   0  0  0  0  0  0  0  0  0  0  0  0
    0.8362    0.2358   -0.8365 H   0  0  0  0  0  0  0  0  0  0  0  0
    0.2360    3.6745   -1.6506 N   0  0  0  0  0  0  0  0  0  0  0  0
    0.9528    4.6595   -2.4264 C   0  0  2  0  0  0  0  0  0  0  0  0
    1.8393    5.4529   -1.4756 C   0  0  0  0  0  0  0  0  0  0  0  0
    1.5175    5.7129   -0.3180 O   0  0  0  0  0  0  0  0  0  0  0  0
   -0.0023    5.5778   -3.1729 C   0  0  0  0  0  0  0  0  0  0  0  0
   -0.0509    3.9292   -0.7101 H   0  0  0  0  0  0  0  0  0  0  0  0
    1.5791    4.1083   -3.1363 H   0  0  0  0  0  0  0  0  0  0  0  0
   -0.6381    6.1385   -2.4782 H   0  0  0  0  0  0  0  0  0  0  0  0
    0.5427    6.3057   -3.7830 H   0  0  0  0  0  0  0  0  0  0  0  0
   -0.6592    5.0024   -3.8342 H   0  0  0  0  0  0  0  0  0  0  0  0
    3.0130    5.8736   -2.0851 N   0  0  0  0  0  0  0  0  0  0  0  0
    3.9997    6.6792   -1.4043 C   0  0  0  0  0  0  0  0  0  0  0  0
    3.2162    5.5782   -3.0355 H   0  0  0  0  0  0  0  0  0  0  0  0
    3.7994    7.7439   -1.5948 H   0  0  0  0  0  0  0  0  0  0  0  0
    3.9489    6.4845   -0.3228 H   0  0  0  0  0  0  0  0  0  0  0  0
    5.0025    6.4226   -1.7763 H   0  0  0  0  0  0  0  0  0  0  0  0
  1  3  1  0  0  0  0
  1  7  1  0  0  0  0
  1  2  2  0  0  0  0
 23 25  1  0  0  0  0
 23 29  1  0  0  0  0
 23 24  2  0  0  0  0
 50 51  1  0  0  0  0
 51 59  1  0  0  0  0
 51 52  2  0  0  0  0
  8  9  1  0  0  0  0
  9 17  1  0  0  0  0
  9 10  2  0  0  0  0
 30 31  1  0  0  0  0
 31 39  1  0  0  0  0
 31 32  2  0  0  0  0
 40 41  1  0  0  0  0
 41 49  1  0  0  0  0
 41 42  2  0  0  0  0
 50 53  1  0  0  0  0
 30 33  1  0  0  0  0
 59 60  1  0  0  0  0
 17 18  1  0  0  0  0
  8 11  1  0  0  0  0
 11 12  1  0  0  0  0
 40 43  1  0  0  0  0
 43 44  1  0  0  0  0
 49 50  1  0  0  0  0
  7  8  1  0  0  0  0
 29 30  1  0  0  0  0
 39 40  1  0  0  0  0
 12 44  1  0  0  0  0
  3  4  1  0  0  0  0
  3  5  1  0  0  0  0
  3  6  1  0  0  0  0
 25 26  1  0  0  0  0
 25 27  1  0  0  0  0
 25 28  1  0  0  0  0
 53 56  1  0  0  0  0
 53 57  1  0  0  0  0
 53 58  1  0  0  0  0
 33 36  1  0  0  0  0
 33 37  1  0  0  0  0
 33 38  1  0  0  0  0
 60 62  1  0  0  0  0
 60 63  1  0  0  0  0
 60 64  1  0  0  0  0
 18 20  1  0  0  0  0
 18 21  1  0  0  0  0
 18 22  1  0  0  0  0
 11 15  1  0  0  0  0
 11 16  1  0  0  0  0
 43 47  1  0  0  0  0
 43 48  1  0  0  0  0
 50 55  1  0  0  0  0
  8 14  1  0  0  0  0
 30 35  1  0  0  0  0
 40 46  1  0  0  0  0
 59 61  1  0  0  0  0
 17 19  1  0  0  0  0
  7 13  1  0  0  0  0
 29 34  1  0  0  0  0
 49 54  1  0  0  0  0
 39 45  1  0  0  0  0
M  END
$$$$

  -OEChem-05262214473D

 64 63  0     1  0  0  0  0  0999 V2000
   -1.4379   -6.4981    0.5200 C   0  0  0  0  0  0  0  0  0  0  0  0
   -2.5551   -6.5872    0.0244 O   0  0  0  0  0  0  0  0  0  0  0  0
   -1.1185   -7.2682    1.7582 C   0  0  0  0  0  0  0  0  0  0  0  0
   -1.3420   -6.7007    2.6758 H   0  0  0  0  0  0  0  0  0  0  0  0
   -1.7066   -8.1965    1.8395 H   0  0  0  0  0  0  0  0  0  0  0  0
   -0.0672   -7.5817    1.8602 H   0  0  0  0  0  0  0  0  0  0  0  0
   -0.3885   -5.7323    0.0421 N   0  0  0  0  0  0  0  0  0  0  0  0
   -0.4807   -4.9141   -1.1404 C   0  0  2  0  0  0  0  0  0  0  0  0
    0.8687   -4.9251   -1.8558 C   0  0  0  0  0  0  0  0  0  0  0  0
    1.8708   -5.4613   -1.3870 O   0  0  0  0  0  0  0  0  0  0  0  0
   -0.9943   -3.5048   -0.8353 C   0  0  0  0  0  0  0  0  0  0  0  0
    0.1044   -2.5428    0.2556 S   0  0  0  0  0  0  0  0  0  0  0  0
    0.4922   -5.7480    0.5515 H   0  0  0  0  0  0  0  0  0  0  0  0
   -1.2050   -5.4185   -1.7921 H   0  0  0  0  0  0  0  0  0  0  0  0
   -1.1199   -2.9328   -1.7603 H   0  0  0  0  0  0  0  0  0  0  0  0
   -1.9730   -3.5621   -0.3467 H   0  0  0  0  0  0  0  0  0  0  0  0
    0.8273   -4.2456   -3.0650 N   0  0  0  0  0  0  0  0  0  0  0  0
    1.9855   -4.0963   -3.9148 C   0  0  0  0  0  0  0  0  0  0  0  0
   -0.0557   -3.8691   -3.3969 H   0  0  0  0  0  0  0  0  0  0  0  0
    2.4961   -3.1515   -3.6770 H   0  0  0  0  0  0  0  0  0  0  0  0
    2.6742   -4.9375   -3.7468 H   0  0  0  0  0  0  0  0  0  0  0  0
    1.6685   -4.0867   -4.9681 H   0  0  0  0  0  0  0  0  0  0  0  0
   -6.7256    2.0330   -0.2766 C   0  0  0  0  0  0  0  0  0  0  0  0
   -7.1824    1.1039   -0.9322 O   0  0  0  0  0  0  0  0  0  0  0  0
   -7.5276    2.6077    0.8435 C   0  0  0  0  0  0  0  0  0  0  0  0
   -8.1775    3.4344    0.5145 H   0  0  0  0  0  0  0  0  0  0  0  0
   -8.2057    1.8676    1.2980 H   0  0  0  0  0  0  0  0  0  0  0  0
   -6.9411    3.0162    1.6819 H   0  0  0  0  0  0  0  0  0  0  0  0
   -5.4935    2.6382   -0.4627 N   0  0  0  0  0  0  0  0  0  0  0  0
   -4.5619    2.2388   -1.4845 C   0  0  2  0  0  0  0  0  0  0  0  0
   -3.1535    2.4674   -0.9521 C   0  0  0  0  0  0  0  0  0  0  0  0
   -2.8634    3.3945   -0.1987 O   0  0  0  0  0  0  0  0  0  0  0  0
   -4.7883    3.0138   -2.7732 C   0  0  0  0  0  0  0  0  0  0  0  0
   -5.2337    3.4049    0.1551 H   0  0  0  0  0  0  0  0  0  0  0  0
   -4.7192    1.1682   -1.6549 H   0  0  0  0  0  0  0  0  0  0  0  0
   -4.6352    4.0886   -2.6221 H   0  0  0  0  0  0  0  0  0  0  0  0
   -4.0976    2.6887   -3.5582 H   0  0  0  0  0  0  0  0  0  0  0  0
   -5.8111    2.8719   -3.1387 H   0  0  0  0  0  0  0  0  0  0  0  0
   -2.2466    1.5400   -1.4507 N   0  0  0  0  0  0  0  0  0  0  0  0
   -0.8424    1.5707   -1.1286 C   0  0  2  0  0  0  0  0  0  0  0  0
   -0.1172    2.4330   -2.1597 C   0  0  0  0  0  0  0  0  0  0  0  0
   -0.0971    2.1669   -3.3598 O   0  0  0  0  0  0  0  0  0  0  0  0
   -0.2471    0.1680   -0.9838 C   0  0  0  0  0  0  0  0  0  0  0  0
   -0.9246   -0.7716    0.4057 S   0  0  0  0  0  0  0  0  0  0  0  0
   -2.5850    0.7815   -2.0381 H   0  0  0  0  0  0  0  0  0  0  0  0
   -0.7732    2.0832   -0.1610 H   0  0  0  0  0  0  0  0  0  0  0  0
   -0.4208   -0.4188   -1.8917 H   0  0  0  0  0  0  0  0  0  0  0  0
    0.8362    0.2358   -0.8365 H   0  0  0  0  0  0  0  0  0  0  0  0
    0.5238    3.5180   -1.5790 N   0  0  0  0  0  0  0  0  0  0  0  0
    1.2979    4.4668   -2.3448 C   0  0  2  0  0  0  0  0  0  0  0  0
    2.4354    4.9659   -1.4636 C   0  0  0  0  0  0  0  0  0  0  0  0
    2.3264    5.1157   -0.2484 O   0  0  0  0  0  0  0  0  0  0  0  0
    0.4360    5.6234   -2.8266 C   0  0  0  0  0  0  0  0  0  0  0  0
    0.4185    3.6865   -0.5829 H   0  0  0  0  0  0  0  0  0  0  0  0
    1.7103    3.9211   -3.2004 H   0  0  0  0  0  0  0  0  0  0  0  0
    0.0139    6.1820   -1.9832 H   0  0  0  0  0  0  0  0  0  0  0  0
    1.0179    6.3271   -3.4309 H   0  0  0  0  0  0  0  0  0  0  0  0
   -0.3988    5.2601   -3.4356 H   0  0  0  0  0  0  0  0  0  0  0  0
    3.5732    5.2652   -2.1999 N   0  0  0  0  0  0  0  0  0  0  0  0
    4.7740    5.7962   -1.5981 C   0  0  0  0  0  0  0  0  0  0  0  0
    3.5882    5.0722   -3.1970 H   0  0  0  0  0  0  0  0  0  0  0  0
    4.7489    6.8952   -1.6367 H   0  0  0  0  0  0  0  0  0  0  0  0
    4.8349    5.4675   -0.5501 H   0  0  0  0  0  0  0  0  0  0  0  0
    5.6528    5.4300   -2.1490 H   0  0  0  0  0  0  0  0  0  0  0  0
  1  3  1  0  0  0  0
  1  7  1  0  0  0  0
  1  2  2  0  0  0  0
 23 25  1  0  0  0  0
 23 29  1  0  0  0  0
 23 24  2  0  0  0  0
 50 51  1  0  0  0  0
 51 59  1  0  0  0  0
 51 52  2  0  0  0  0
  8  9  1  0  0  0  0
  9 17  1  0  0  0  0
  9 10  2  0  0  0  0
 30 31  1  0  0  0  0
 31 39  1  0  0  0  0
 31 32  2  0  0  0  0
 40 41  1  0  0  0  0
 41 49  1  0  0  0  0
 41 42  2  0  0  0  0
 50 53  1  0  0  0  0
 30 33  1  0  0  0  0
 59 60  1  0  0  0  0
 17 18  1  0  0  0  0
  8 11  1  0  0  0  0
 11 12  1  0  0  0  0
 40 43  1  0  0  0  0
 43 44  1  0  0  0  0
 49 50  1  0  0  0  0
  7  8  1  0  0  0  0
 29 30  1  0  0  0  0
 39 40  1  0  0  0  0
 12 44  1  0  0  0  0
  3  4  1  0  0  0  0
  3  5  1  0  0  0  0
  3  6  1  0  0  0  0
 25 26  1  0  0  0  0
 25 27  1  0  0  0  0
 25 28  1  0  0  0  0
 53 56  1  0  0  0  0
 53 57  1  0  0  0  0
 53 58  1  0  0  0  0
 33 36  1  0  0  0  0
 33 37  1  0  0  0  0
 33 38  1  0  0  0  0
 60 62  1  0  0  0  0
 60 63  1  0  0  0  0
 60 64  1  0  0  0  0
 18 20  1  0  0  0  0
 18 21  1  0  0  0  0
 18 22  1  0  0  0  0
 11 15  1  0  0  0  0
 11 16  1  0  0  0  0
 43 47  1  0  0  0  0
 43 48  1  0  0  0  0
 50 55  1  0  0  0  0
  8 14  1  0  0  0  0
 30 35  1  0  0  0  0
 40 46  1  0  0  0  0
 59 61  1  0  0  0  0
 17 19  1  0  0  0  0
  7 13  1  0  0  0  0
 29 34  1  0  0  0  0
 49 54  1  0  0  0  0
 39 45  1  0  0  0  0
M  END
$$$$

  -OEChem-05262214473D

 64 63  0     1  0  0  0  0  0999 V2000
   -1.4379   -6.4981    0.5200 C   0  0  0  0  0  0  0  0  0  0  0  0
   -2.5551   -6.5872    0.0244 O   0  0  0  0  0  0  0  0  0  0  0  0
   -1.1185   -7.2682    1.7582 C   0  0  0  0  0  0  0  0  0  0  0  0
   -1.3420   -6.7007    2.6758 H   0  0  0  0  0  0  0  0  0  0  0  0
   -1.7066   -8.1965    1.8395 H   0  0  0  0  0  0  0  0  0  0  0  0
   -0.0672   -7.5817    1.8602 H   0  0  0  0  0  0  0  0  0  0  0  0
   -0.3885   -5.7323    0.0421 N   0  0  0  0  0  0  0  0  0  0  0  0
   -0.4807   -4.9141   -1.1404 C   0  0  2  0  0  0  0  0  0  0  0  0
    0.8687   -4.9251   -1.8558 C   0  0  0  0  0  0  0  0  0  0  0  0
    1.8708   -5.4613   -1.3870 O   0  0  0  0  0  0  0  0  0  0  0  0
   -0.9943   -3.5048   -0.8353 C   0  0  0  0  0  0  0  0  0  0  0  0
    0.1044   -2.5428    0.2556 S   0  0  0  0  0  0  0  0  0  0  0  0
    0.4922   -5.7480    0.5515 H   0  0  0  0  0  0  0  0  0  0  0  0
   -1.2050   -5.4185   -1.7921 H   0  0  0  0  0  0  0  0  0  0  0  0
   -1.1199   -2.9328   -1.7603 H   0  0  0  0  0  0  0  0  0  0  0  0
   -1.9730   -3.5621   -0.3467 H   0  0  0  0  0  0  0  0  0  0  0  0
    0.8273   -4.2456   -3.0650 N   0  0  0  0  0  0  0  0  0  0  0  0
    1.9855   -4.0963   -3.9148 C   0  0  0  0  0  0  0  0  0  0  0  0
   -0.0557   -3.8691   -3.3969 H   0  0  0  0  0  0  0  0  0  0  0  0
    2.4961   -3.1515   -3.6770 H   0  0  0  0  0  0  0  0  0  0  0  0
    2.6742   -4.9375   -3.7468 H   0  0  0  0  0  0  0  0  0  0  0  0
    1.6685   -4.0867   -4.9681 H   0  0  0  0  0  0  0  0  0  0  0  0
   -6.7256    2.0330   -0.2766 C   0  0  0  0  0  0  0  0  0  0  0  0
   -7.1824    1.1039   -0.9322 O   0  0  0  0  0  0  0  0  0  0  0  0
   -7.5276    2.6077    0.8435 C   0  0  0  0  0  0  0  0  0  0  0  0
   -8.1775    3.4344    0.5145 H   0  0  0  0  0  0  0  0  0  0  0  0
   -8.2057    1.8676    1.2980 H   0  0  0  0  0  0  0  0  0  0  0  0
   -6.9411    3.0162    1.6819 H   0  0  0  0  0  0  0  0  0  0  0  0
   -5.4935    2.6382   -0.4627 N   0  0  0  0  0  0  0  0  0  0  0  0
   -4.5619    2.2388   -1.4845 C   0  0  2  0  0  0  0  0  0  0  0  0
   -3.1535    2.4674   -0.9521 C   0  0  0  0  0  0  0  0  0  0  0  0
   -2.8634    3.3945   -0.1987 O   0  0  0  0  0  0  0  0  0  0  0  0
   -4.7883    3.0138   -2.7732 C   0  0  0  0  0  0  0  0  0  0  0  0
   -5.2337    3.4049    0.1551 H   0  0  0  0  0  0  0  0  0  0  0  0
   -4.7192    1.1682   -1.6549 H   0  0  0  0  0  0  0  0  0  0  0  0
   -4.6352    4.0886   -2.6221 H   0  0  0  0  0  0  0  0  0  0  0  0
   -4.0976    2.6887   -3.5582 H   0  0  0  0  0  0  0  0  0  0  0  0
   -5.8111    2.8719   -3.1387 H   0  0  0  0  0  0  0  0  0  0  0  0
   -2.2466    1.5400   -1.4507 N   0  0  0  0  0  0  0  0  0  0  0  0
   -0.8424    1.5707   -1.1286 C   0  0  2  0  0  0  0  0  0  0  0  0
   -0.1172    2.4330   -2.1597 C   0  0  0  0  0  0  0  0  0  0  0  0
   -0.3088    2.3328   -3.3700 O   0  0  0  0  0  0  0  0  0  0  0  0
   -0.2471    0.1680   -0.9838 C   0  0  0  0  0  0  0  0  0  0  0  0
   -0.9246   -0.7716    0.4057 S   0  0  0  0  0  0  0  0  0  0  0  0
   -2.5850    0.7815   -2.0381 H   0  0  0  0  0  0  0  0  0  0  0  0
   -0.7732    2.0832   -0.1610 H   0  0  0  0  0  0  0  0  0  0  0  0
   -0.4208   -0.4188   -1.8917 H   0  0  0  0  0  0  0  0  0  0  0  0
    0.8362    0.2358   -0.8365 H   0  0  0  0  0  0  0  0  0  0  0  0
    0.7849    3.3078   -1.5712 N   0  0  0  0  0  0  0  0  0  0  0  0
    1.6095    4.2104   -2.3401 C   0  0  2  0  0  0  0  0  0  0  0  0
    2.9279    4.3897   -1.5990 C   0  0  0  0  0  0  0  0  0  0  0  0
    3.0136    4.3891   -0.3728 O   0  0  0  0  0  0  0  0  0  0  0  0
    0.9179    5.5483   -2.5505 C   0  0  0  0  0  0  0  0  0  0  0  0
    0.8480    3.3544   -0.5585 H   0  0  0  0  0  0  0  0  0  0  0  0
    1.7951    3.7253   -3.3046 H   0  0  0  0  0  0  0  0  0  0  0  0
    0.7237    6.0493   -1.5950 H   0  0  0  0  0  0  0  0  0  0  0  0
    1.5321    6.2214   -3.1577 H   0  0  0  0  0  0  0  0  0  0  0  0
   -0.0440    5.4144   -3.0570 H   0  0  0  0  0  0  0  0  0  0  0  0
    3.9911    4.5937   -2.4674 N   0  0  0  0  0  0  0  0  0  0  0  0
    5.3392    4.8318   -2.0070 C   0  0  0  0  0  0  0  0  0  0  0  0
    3.8355    4.5382   -3.4697 H   0  0  0  0  0  0  0  0  0  0  0  0
    5.5117    5.9147   -1.9202 H   0  0  0  0  0  0  0  0  0  0  0  0
    5.4798    4.3582   -1.0242 H   0  0  0  0  0  0  0  0  0  0  0  0
    6.0531    4.4033   -2.7259 H   0  0  0  0  0  0  0  0  0  0  0  0
  1  3  1  0  0  0  0
  1  7  1  0  0  0  0
  1  2  2  0  0  0  0
 23 25  1  0  0  0  0
 23 29  1  0  0  0  0
 23 24  2  0  0  0  0
 50 51  1  0  0  0  0
 51 59  1  0  0  0  0
 51 52  2  0  0  0  0
  8  9  1  0  0  0  0
  9 17  1  0  0  0  0
  9 10  2  0  0  0  0
 30 31  1  0  0  0  0
 31 39  1  0  0  0  0
 31 32  2  0  0  0  0
 40 41  1  0  0  0  0
 41 49  1  0  0  0  0
 41 42  2  0  0  0  0
 50 53  1  0  0  0  0
 30 33  1  0  0  0  0
 59 60  1  0  0  0  0
 17 18  1  0  0  0  0
  8 11  1  0  0  0  0
 11 12  1  0  0  0  0
 40 43  1  0  0  0  0
 43 44  1  0  0  0  0
 49 50  1  0  0  0  0
  7  8  1  0  0  0  0
 29 30  1  0  0  0  0
 39 40  1  0  0  0  0
 12 44  1  0  0  0  0
  3  4  1  0  0  0  0
  3  5  1  0  0  0  0
  3  6  1  0  0  0  0
 25 26  1  0  0  0  0
 25 27  1  0  0  0  0
 25 28  1  0  0  0  0
 53 56  1  0  0  0  0
 53 57  1  0  0  0  0
 53 58  1  0  0  0  0
 33 36  1  0  0  0  0
 33 37  1  0  0  0  0
 33 38  1  0  0  0  0
 60 62  1  0  0  0  0
 60 63  1  0  0  0  0
 60 64  1  0  0  0  0
 18 20  1  0  0  0  0
 18 21  1  0  0  0  0
 18 22  1  0  0  0  0
 11 15  1  0  0  0  0
 11 16  1  0  0  0  0
 43 47  1  0  0  0  0
 43 48  1  0  0  0  0
 50 55  1  0  0  0  0
  8 14  1  0  0  0  0
 30 35  1  0  0  0  0
 40 46  1  0  0  0  0
 59 61  1  0  0  0  0
 17 19  1  0  0  0  0
  7 13  1  0  0  0  0
 29 34  1  0  0  0  0
 49 54  1  0  0  0  0
 39 45  1  0  0  0  0
M  END
$$$$

  -OEChem-05262214473D

 64 63  0     1  0  0  0  0  0999 V2000
   -1.4379   -6.4981    0.5200 C   0  0  0  0  0  0  0  0  0  0  0  0
   -2.5551   -6.5872    0.0244 O   0  0  0  0  0  0  0  0  0  0  0  0
   -1.1185   -7.2682    1.7582 C   0  0  0  0  0  0  0  0  0  0  0  0
   -1.3420   -6.7007    2.6758 H   0  0  0  0  0  0  0  0  0  0  0  0
   -1.7066   -8.1965    1.8395 H   0  0  0  0  0  0  0  0  0  0  0  0
   -0.0672   -7.5817    1.8602 H   0  0  0  0  0  0  0  0  0  0  0  0
   -0.3885   -5.7323    0.0421 N   0  0  0  0  0  0  0  0  0  0  0  0
   -0.4807   -4.9141   -1.1404 C   0  0  2  0  0  0  0  0  0  0  0  0
    0.8687   -4.9251   -1.8558 C   0  0  0  0  0  0  0  0  0  0  0  0
    1.8708   -5.4613   -1.3870 O   0  0  0  0  0  0  0  0  0  0  0  0
   -0.9943   -3.5048   -0.8353 C   0  0  0  0  0  0  0  0  0  0  0  0
    0.1044   -2.5428    0.2556 S   0  0  0  0  0  0  0  0  0  0  0  0
    0.4922   -5.7480    0.5515 H   0  0  0  0  0  0  0  0  0  0  0  0
   -1.2050   -5.4185   -1.7921 H   0  0  0  0  0  0  0  0  0  0  0  0
   -1.1199   -2.9328   -1.7603 H   0  0  0  0  0  0  0  0  0  0  0  0
   -1.9730   -3.5621   -0.3467 H   0  0  0  0  0  0  0  0  0  0  0  0
    0.8273   -4.2456   -3.0650 N   0  0  0  0  0  0  0  0  0  0  0  0
    1.9855   -4.0963   -3.9148 C   0  0  0  0  0  0  0  0  0  0  0  0
   -0.0557   -3.8691   -3.3969 H   0  0  0  0  0  0  0  0  0  0  0  0
    2.4961   -3.1515   -3.6770 H   0  0  0  0  0  0  0  0  0  0  0  0
    2.6742   -4.9375   -3.7468 H   0  0  0  0  0  0  0  0  0  0  0  0
    1.6685   -4.0867   -4.9681 H   0  0  0  0  0  0  0  0  0  0  0  0
   -6.7256    2.0330   -0.2766 C   0  0  0  0  0  0  0  0  0  0  0  0
   -7.1824    1.1039   -0.9322 O   0  0  0  0  0  0  0  0  0  0  0  0
   -7.5276    2.6077    0.8435 C   0  0  0  0  0  0  0  0  0  0  0  0
   -8.1775    3.4344    0.5145 H   0  0  0  0  0  0  0  0  0  0  0  0
   -8.2057    1.8676    1.2980 H   0  0  0  0  0  0  0  0  0  0  0  0
   -6.9411    3.0162    1.6819 H   0  0  0  0  0  0  0  0  0  0  0  0
   -5.4935    2.6382   -0.4627 N   0  0  0  0  0  0  0  0  0  0  0  0
   -4.5619    2.2388   -1.4845 C   0  0  2  0  0  0  0  0  0  0  0  0
   -3.1535    2.4674   -0.9521 C   0  0  0  0  0  0  0  0  0  0  0  0
   -2.8634    3.3945   -0.1987 O   0  0  0  0  0  0  0  0  0  0  0  0
   -4.7883    3.0138   -2.7732 C   0  0  0  0  0  0  0  0  0  0  0  0
   -5.2337    3.4049    0.1551 H   0  0  0  0  0  0  0  0  0  0  0  0
   -4.7192    1.1682   -1.6549 H   0  0  0  0  0  0  0  0  0  0  0  0
   -4.6352    4.0886   -2.6221 H   0  0  0  0  0  0  0  0  0  0  0  0
   -4.0976    2.6887   -3.5582 H   0  0  0  0  0  0  0  0  0  0  0  0
   -5.8111    2.8719   -3.1387 H   0  0  0  0  0  0  0  0  0  0  0  0
   -2.2466    1.5400   -1.4507 N   0  0  0  0  0  0  0  0  0  0  0  0
   -0.8424    1.5707   -1.1286 C   0  0  2  0  0  0  0  0  0  0  0  0
   -0.1172    2.4330   -2.1597 C   0  0  0  0  0  0  0  0  0  0  0  0
   -0.4858    2.5313   -3.3285 O   0  0  0  0  0  0  0  0  0  0  0  0
   -0.2471    0.1680   -0.9838 C   0  0  0  0  0  0  0  0  0  0  0  0
   -0.9246   -0.7716    0.4057 S   0  0  0  0  0  0  0  0  0  0  0  0
   -2.5850    0.7815   -2.0381 H   0  0  0  0  0  0  0  0  0  0  0  0
   -0.7732    2.0832   -0.1610 H   0  0  0  0  0  0  0  0  0  0  0  0
   -0.4208   -0.4188   -1.8917 H   0  0  0  0  0  0  0  0  0  0  0  0
    0.8362    0.2358   -0.8365 H   0  0  0  0  0  0  0  0  0  0  0  0
    1.0016    3.0581   -1.6277 N   0  0  0  0  0  0  0  0  0  0  0  0
    1.8664    3.9077   -2.4126 C   0  0  2  0  0  0  0  0  0  0  0  0
    3.2831    3.7638   -1.8726 C   0  0  0  0  0  0  0  0  0  0  0  0
    3.5323    3.5823   -0.6826 O   0  0  0  0  0  0  0  0  0  0  0  0
    1.4106    5.3577   -2.3634 C   0  0  0  0  0  0  0  0  0  0  0  0
    1.2085    2.9556   -0.6385 H   0  0  0  0  0  0  0  0  0  0  0  0
    1.8274    3.5342   -3.4416 H   0  0  0  0  0  0  0  0  0  0  0  0
    1.4428    5.7493   -1.3401 H   0  0  0  0  0  0  0  0  0  0  0  0
    2.0503    5.9959   -2.9818 H   0  0  0  0  0  0  0  0  0  0  0  0
    0.3809    5.4550   -2.7242 H   0  0  0  0  0  0  0  0  0  0  0  0
    4.2384    3.9050   -2.8694 N   0  0  0  0  0  0  0  0  0  0  0  0
    5.6569    3.8517   -2.6031 C   0  0  0  0  0  0  0  0  0  0  0  0
    3.9411    4.0127   -3.8347 H   0  0  0  0  0  0  0  0  0  0  0  0
    6.0358    4.8691   -2.4259 H   0  0  0  0  0  0  0  0  0  0  0  0
    5.8396    3.2323   -1.7126 H   0  0  0  0  0  0  0  0  0  0  0  0
    6.1760    3.4127   -3.4679 H   0  0  0  0  0  0  0  0  0  0  0  0
  1  3  1  0  0  0  0
  1  7  1  0  0  0  0
  1  2  2  0  0  0  0
 23 25  1  0  0  0  0
 23 29  1  0  0  0  0
 23 24  2  0  0  0  0
 50 51  1  0  0  0  0
 51 59  1  0  0  0  0
 51 52  2  0  0  0  0
  8  9  1  0  0  0  0
  9 17  1  0  0  0  0
  9 10  2  0  0  0  0
 30 31  1  0  0  0  0
 31 39  1  0  0  0  0
 31 32  2  0  0  0  0
 40 41  1  0  0  0  0
 41 49  1  0  0  0  0
 41 42  2  0  0  0  0
 50 53  1  0  0  0  0
 30 33  1  0  0  0  0
 59 60  1  0  0  0  0
 17 18  1  0  0  0  0
  8 11  1  0  0  0  0
 11 12  1  0  0  0  0
 40 43  1  0  0  0  0
 43 44  1  0  0  0  0
 49 50  1  0  0  0  0
  7  8  1  0  0  0  0
 29 30  1  0  0  0  0
 39 40  1  0  0  0  0
 12 44  1  0  0  0  0
  3  4  1  0  0  0  0
  3  5  1  0  0  0  0
  3  6  1  0  0  0  0
 25 26  1  0  0  0  0
 25 27  1  0  0  0  0
 25 28  1  0  0  0  0
 53 56  1  0  0  0  0
 53 57  1  0  0  0  0
 53 58  1  0  0  0  0
 33 36  1  0  0  0  0
 33 37  1  0  0  0  0
 33 38  1  0  0  0  0
 60 62  1  0  0  0  0
 60 63  1  0  0  0  0
 60 64  1  0  0  0  0
 18 20  1  0  0  0  0
 18 21  1  0  0  0  0
 18 22  1  0  0  0  0
 11 15  1  0  0  0  0
 11 16  1  0  0  0  0
 43 47  1  0  0  0  0
 43 48  1  0  0  0  0
 50 55  1  0  0  0  0
  8 14  1  0  0  0  0
 30 35  1  0  0  0  0
 40 46  1  0  0  0  0
 59 61  1  0  0  0  0
 17 19  1  0  0  0  0
  7 13  1  0  0  0  0
 29 34  1  0  0  0  0
 49 54  1  0  0  0  0
 39 45  1  0  0  0  0
M  END
$$$$

  -OEChem-05262214473D

 64 63  0     1  0  0  0  0  0999 V2000
   -1.4379   -6.4981    0.5200 C   0  0  0  0  0  0  0  0  0  0  0  0
   -2.5551   -6.5872    0.0244 O   0  0  0  0  0  0  0  0  0  0  0  0
   -1.1185   -7.2682    1.7582 C   0  0  0  0  0  0  0  0  0  0  0  0
   -1.3420   -6.7007    2.6758 H   0  0  0  0  0  0  0  0  0  0  0  0
   -1.7066   -8.1965    1.8395 H   0  0  0  0  0  0  0  0  0  0  0  0
   -0.0672   -7.5817    1.8602 H   0  0  0  0  0  0  0  0  0  0  0  0
   -0.3885   -5.7323    0.0421 N   0  0  0  0  0  0  0  0  0  0  0  0
   -0.4807   -4.9141   -1.1404 C   0  0  2  0  0  0  0  0  0  0  0  0
    0.8687   -4.9251   -1.8558 C   0  0  0  0  0  0  0  0  0  0  0  0
    1.8708   -5.4613   -1.3870 O   0  0  0  0  0  0  0  0  0  0  0  0
   -0.9943   -3.5048   -0.8353 C   0  0  0  0  0  0  0  0  0  0  0  0
    0.1044   -2.5428    0.2556 S   0  0  0  0  0  0  0  0  0  0  0  0
    0.4922   -5.7480    0.5515 H   0  0  0  0  0  0  0  0  0  0  0  0
   -1.2050   -5.4185   -1.7921 H   0  0  0  0  0  0  0  0  0  0  0  0
   -1.1199   -2.9328   -1.7603 H   0  0  0  0  0  0  0  0  0  0  0  0
   -1.9730   -3.5621   -0.3467 H   0  0  0  0  0  0  0  0  0  0  0  0
    0.8273   -4.2456   -3.0650 N   0  0  0  0  0  0  0  0  0  0  0  0
    1.9855   -4.0963   -3.9148 C   0  0  0  0  0  0  0  0  0  0  0  0
   -0.0557   -3.8691   -3.3969 H   0  0  0  0  0  0  0  0  0  0  0  0
    2.4961   -3.1515   -3.6770 H   0  0  0  0  0  0  0  0  0  0  0  0
    2.6742   -4.9375   -3.7468 H   0  0  0  0  0  0  0  0  0  0  0  0
    1.6685   -4.0867   -4.9681 H   0  0  0  0  0  0  0  0  0  0  0  0
   -6.7256    2.0330   -0.2766 C   0  0  0  0  0  0  0  0  0  0  0  0
   -7.1824    1.1039   -0.9322 O   0  0  0  0  0  0  0  0  0  0  0  0
   -7.5276    2.6077    0.8435 C   0  0  0  0  0  0  0  0  0  0  0  0
   -8.1775    3.4344    0.5145 H   0  0  0  0  0  0  0  0  0  0  0  0
   -8.2057    1.8676    1.2980 H   0  0  0  0  0  0  0  0  0  0  0  0
   -6.9411    3.0162    1.6819 H   0  0  0  0  0  0  0  0  0  0  0  0
   -5.4935    2.6382   -0.4627 N   0  0  0  0  0  0  0  0  0  0  0  0
   -4.5619    2.2388   -1.4845 C   0  0  2  0  0  0  0  0  0  0  0  0
   -3.1535    2.4674   -0.9521 C   0  0  0  0  0  0  0  0  0  0  0  0
   -2.8634    3.3945   -0.1987 O   0  0  0  0  0  0  0  0  0  0  0  0
   -4.7883    3.0138   -2.7732 C   0  0  0  0  0  0  0  0  0  0  0  0
   -5.2337    3.4049    0.1551 H   0  0  0  0  0  0  0  0  0  0  0  0
   -4.7192    1.1682   -1.6549 H   0  0  0  0  0  0  0  0  0  0  0  0
   -4.6352    4.0886   -2.6221 H   0  0  0  0  0  0  0  0  0  0  0  0
   -4.0976    2.6887   -3.5582 H   0  0  0  0  0  0  0  0  0  0  0  0
   -5.8111    2.8719   -3.1387 H   0  0  0  0  0  0  0  0  0  0  0  0
   -2.2466    1.5400   -1.4507 N   0  0  0  0  0  0  0  0  0  0  0  0
   -0.8424    1.5707   -1.1286 C   0  0  2  0  0  0  0  0  0  0  0  0
   -0.1172    2.4330   -2.1597 C   0  0  0  0  0  0  0  0  0  0  0  0
   -0.6159    2.7489   -3.2381 O   0  0  0  0  0  0  0  0  0  0  0  0
   -0.2471    0.1680   -0.9838 C   0  0  0  0  0  0  0  0  0  0  0  0
   -0.9246   -0.7716    0.4057 S   0  0  0  0  0  0  0  0  0  0  0  0
   -2.5850    0.7815   -2.0381 H   0  0  0  0  0  0  0  0  0  0  0  0
   -0.7732    2.0832   -0.1610 H   0  0  0  0  0  0  0  0  0  0  0  0
   -0.4208   -0.4188   -1.8917 H   0  0  0  0  0  0  0  0  0  0  0  0
    0.8362    0.2358   -0.8365 H   0  0  0  0  0  0  0  0  0  0  0  0
    1.1589    2.7860   -1.7445 N   0  0  0  0  0  0  0  0  0  0  0  0
    2.0510    3.5793   -2.5573 C   0  0  2  0  0  0  0  0  0  0  0  0
    3.4769    3.1308   -2.2657 C   0  0  0  0  0  0  0  0  0  0  0  0
    3.8470    2.7506   -1.1568 O   0  0  0  0  0  0  0  0  0  0  0  0
    1.8805    5.0644   -2.2781 C   0  0  0  0  0  0  0  0  0  0  0  0
    1.4753    2.5172   -0.8175 H   0  0  0  0  0  0  0  0  0  0  0  0
    1.8053    3.3608   -3.6022 H   0  0  0  0  0  0  0  0  0  0  0  0
    2.1222    5.3026   -1.2358 H   0  0  0  0  0  0  0  0  0  0  0  0
    2.5371    5.6659   -2.9154 H   0  0  0  0  0  0  0  0  0  0  0  0
    0.8472    5.3791   -2.4598 H   0  0  0  0  0  0  0  0  0  0  0  0
    4.2982    3.2459   -3.3785 N   0  0  0  0  0  0  0  0  0  0  0  0
    5.7055    2.9227   -3.3457 C   0  0  0  0  0  0  0  0  0  0  0  0
    3.8981    3.5315   -4.2674 H   0  0  0  0  0  0  0  0  0  0  0  0
    6.2853    3.8297   -3.1195 H   0  0  0  0  0  0  0  0  0  0  0  0
    5.8899    2.1665   -2.5685 H   0  0  0  0  0  0  0  0  0  0  0  0
    6.0132    2.5255   -4.3242 H   0  0  0  0  0  0  0  0  0  0  0  0
  1  3  1  0  0  0  0
  1  7  1  0  0  0  0
  1  2  2  0  0  0  0
 23 25  1  0  0  0  0
 23 29  1  0  0  0  0
 23 24  2  0  0  0  0
 50 51  1  0  0  0  0
 51 59  1  0  0  0  0
 51 52  2  0  0  0  0
  8  9  1  0  0  0  0
  9 17  1  0  0  0  0
  9 10  2  0  0  0  0
 30 31  1  0  0  0  0
 31 39  1  0  0  0  0
 31 32  2  0  0  0  0
 40 41  1  0  0  0  0
 41 49  1  0  0  0  0
 41 42  2  0  0  0  0
 50 53  1  0  0  0  0
 30 33  1  0  0  0  0
 59 60  1  0  0  0  0
 17 18  1  0  0  0  0
  8 11  1  0  0  0  0
 11 12  1  0  0  0  0
 40 43  1  0  0  0  0
 43 44  1  0  0  0  0
 49 50  1  0  0  0  0
  7  8  1  0  0  0  0
 29 30  1  0  0  0  0
 39 40  1  0  0  0  0
 12 44  1  0  0  0  0
  3  4  1  0  0  0  0
  3  5  1  0  0  0  0
  3  6  1  0  0  0  0
 25 26  1  0  0  0  0
 25 27  1  0  0  0  0
 25 28  1  0  0  0  0
 53 56  1  0  0  0  0
 53 57  1  0  0  0  0
 53 58  1  0  0  0  0
 33 36  1  0  0  0  0
 33 37  1  0  0  0  0
 33 38  1  0  0  0  0
 60 62  1  0  0  0  0
 60 63  1  0  0  0  0
 60 64  1  0  0  0  0
 18 20  1  0  0  0  0
 18 21  1  0  0  0  0
 18 22  1  0  0  0  0
 11 15  1  0  0  0  0
 11 16  1  0  0  0  0
 43 47  1  0  0  0  0
 43 48  1  0  0  0  0
 50 55  1  0  0  0  0
  8 14  1  0  0  0  0
 30 35  1  0  0  0  0
 40 46  1  0  0  0  0
 59 61  1  0  0  0  0
 17 19  1  0  0  0  0
  7 13  1  0  0  0  0
 29 34  1  0  0  0  0
 49 54  1  0  0  0  0
 39 45  1  0  0  0  0
M  END
$$$$

  -OEChem-05262214473D

 64 63  0     1  0  0  0  0  0999 V2000
   -0.9544   -6.6737   -1.5709 C   0  0  0  0  0  0  0  0  0  0  0  0
   -2.0711   -6.7002   -2.0750 O   0  0  0  0  0  0  0  0  0  0  0  0
   -0.5755   -7.7110   -0.5665 C   0  0  0  0  0  0  0  0  0  0  0  0
   -0.8192   -7.4071    0.4643 H   0  0  0  0  0  0  0  0  0  0  0  0
   -1.1085   -8.6625   -0.7232 H   0  0  0  0  0  0  0  0  0  0  0  0
    0.4932   -7.9779   -0.5449 H   0  0  0  0  0  0  0  0  0  0  0  0
    0.0432   -5.7521   -1.8380 N   0  0  0  0  0  0  0  0  0  0  0  0
   -0.1108   -4.6690   -2.7759 C   0  0  2  0  0  0  0  0  0  0  0  0
    1.2276   -4.4204   -3.4684 C   0  0  0  0  0  0  0  0  0  0  0  0
    2.2647   -4.9977   -3.1481 O   0  0  0  0  0  0  0  0  0  0  0  0
   -0.7002   -3.4148   -2.1260 C   0  0  0  0  0  0  0  0  0  0  0  0
    0.3557   -2.6961   -0.8256 S   0  0  0  0  0  0  0  0  0  0  0  0
    0.9299   -5.8440   -1.3474 H   0  0  0  0  0  0  0  0  0  0  0  0
   -0.8135   -5.0344   -3.5351 H   0  0  0  0  0  0  0  0  0  0  0  0
   -0.8703   -2.6365   -2.8770 H   0  0  0  0  0  0  0  0  0  0  0  0
   -1.6676   -3.6506   -1.6696 H   0  0  0  0  0  0  0  0  0  0  0  0
    1.1318   -3.4616   -4.4670 N   0  0  0  0  0  0  0  0  0  0  0  0
    2.2685   -3.0355   -5.2494 C   0  0  0  0  0  0  0  0  0  0  0  0
    0.2245   -3.0660   -4.6948 H   0  0  0  0  0  0  0  0  0  0  0  0
    2.7273   -2.1528   -4.7799 H   0  0  0  0  0  0  0  0  0  0  0  0
    3.0062   -3.8499   -5.2978 H   0  0  0  0  0  0  0  0  0  0  0  0
    1.9379   -2.7792   -6.2667 H   0  0  0  0  0  0  0  0  0  0  0  0
   -6.7256    2.0330   -0.2766 C   0  0  0  0  0  0  0  0  0  0  0  0
   -7.1824    1.1039   -0.9322 O   0  0  0  0  0  0  0  0  0  0  0  0
   -7.5276    2.6077    0.8435 C   0  0  0  0  0  0  0  0  0  0  0  0
   -8.1775    3.4344    0.5145 H   0  0  0  0  0  0  0  0  0  0  0  0
   -8.2057    1.8676    1.2980 H   0  0  0  0  0  0  0  0  0  0  0  0
   -6.9411    3.0162    1.6819 H   0  0  0  0  0  0  0  0  0  0  0  0
   -5.4935    2.6382   -0.4627 N   0  0  0  0  0  0  0  0  0  0  0  0
   -4.5619    2.2388   -1.4845 C   0  0  2  0  0  0  0  0  0  0  0  0
   -3.1535    2.4674   -0.9521 C   0  0  0  0  0  0  0  0  0  0  0  0
   -2.8634    3.3945   -0.1987 O   0  0  0  0  0  0  0  0  0  0  0  0
   -4.7883    3.0138   -2.7732 C   0  0  0  0  0  0  0  0  0  0  0  0
   -5.2337    3.4049    0.1551 H   0  0  0  0  0  0  0  0  0  0  0  0
   -4.7192    1.1682   -1.6549 H   0  0  0  0  0  0  0  0  0  0  0  0
   -4.6352    4.0886   -2.6221 H   0  0  0  0  0  0  0  0  0  0  0  0
   -4.0976    2.6887   -3.5582 H   0  0  0  0  0  0  0  0  0  0  0  0
   -5.8111    2.8719   -3.1387 H   0  0  0  0  0  0  0  0  0  0  0  0
   -2.2466    1.5400   -1.4507 N   0  0  0  0  0  0  0  0  0  0  0  0
   -0.8424    1.5707   -1.1286 C   0  0  2  0  0  0  0  0  0  0  0  0
   -0.1811    2.7060   -1.9074 C   0  0  0  0  0  0  0  0  0  0  0  0
   -0.7963    3.4300   -2.6875 O   0  0  0  0  0  0  0  0  0  0  0  0
   -0.1661    0.2142   -1.3414 C   0  0  0  0  0  0  0  0  0  0  0  0
   -0.7707   -1.0834   -0.2352 S   0  0  0  0  0  0  0  0  0  0  0  0
   -2.5850    0.7815   -2.0381 H   0  0  0  0  0  0  0  0  0  0  0  0
   -0.7901    1.8259   -0.0628 H   0  0  0  0  0  0  0  0  0  0  0  0
   -0.3177   -0.1340   -2.3683 H   0  0  0  0  0  0  0  0  0  0  0  0
    0.9134    0.3060   -1.1797 H   0  0  0  0  0  0  0  0  0  0  0  0
    1.1788    2.7983   -1.6474 N   0  0  0  0  0  0  0  0  0  0  0  0
    2.0287    3.7781   -2.2826 C   0  0  2  0  0  0  0  0  0  0  0  0
    3.4126    3.1641   -2.4476 C   0  0  0  0  0  0  0  0  0  0  0  0
    3.8982    2.3773   -1.6375 O   0  0  0  0  0  0  0  0  0  0  0  0
    2.0969    5.0615   -1.4696 C   0  0  0  0  0  0  0  0  0  0  0  0
    1.5980    2.1856   -0.9541 H   0  0  0  0  0  0  0  0  0  0  0  0
    1.5974    3.9786   -3.2694 H   0  0  0  0  0  0  0  0  0  0  0  0
    2.5264    4.8806   -0.4775 H   0  0  0  0  0  0  0  0  0  0  0  0
    2.7186    5.8135   -1.9667 H   0  0  0  0  0  0  0  0  0  0  0  0
    1.0973    5.4859   -1.3266 H   0  0  0  0  0  0  0  0  0  0  0  0
    4.0588    3.6312   -3.5835 N   0  0  0  0  0  0  0  0  0  0  0  0
    5.4004    3.2305   -3.9377 C   0  0  0  0  0  0  0  0  0  0  0  0
    3.5657    4.2507   -4.2197 H   0  0  0  0  0  0  0  0  0  0  0  0
    6.1206    3.9503   -3.5215 H   0  0  0  0  0  0  0  0  0  0  0  0
    5.6041    2.2299   -3.5285 H   0  0  0  0  0  0  0  0  0  0  0  0
    5.4984    3.2056   -5.0330 H   0  0  0  0  0  0  0  0  0  0  0  0
  1  3  1  0  0  0  0
  1  7  1  0  0  0  0
  1  2  2  0  0  0  0
 23 25  1  0  0  0  0
 23 29  1  0  0  0  0
 23 24  2  0  0  0  0
 50 51  1  0  0  0  0
 51 59  1  0  0  0  0
 51 52  2  0  0  0  0
  8  9  1  0  0  0  0
  9 17  1  0  0  0  0
  9 10  2  0  0  0  0
 30 31  1  0  0  0  0
 31 39  1  0  0  0  0
 31 32  2  0  0  0  0
 40 41  1  0  0  0  0
 41 49  1  0  0  0  0
 41 42  2  0  0  0  0
 50 53  1  0  0  0  0
 30 33  1  0  0  0  0
 59 60  1  0  0  0  0
 17 18  1  0  0  0  0
  8 11  1  0  0  0  0
 11 12  1  0  0  0  0
 40 43  1  0  0  0  0
 43 44  1  0  0  0  0
 49 50  1  0  0  0  0
  7  8  1  0  0  0  0
 29 30  1  0  0  0  0
 39 40  1  0  0  0  0
 12 44  1  0  0  0  0
  3  4  1  0  0  0  0
  3  5  1  0  0  0  0
  3  6  1  0  0  0  0
 25 26  1  0  0  0  0
 25 27  1  0  0  0  0
 25 28  1  0  0  0  0
 53 56  1  0  0  0  0
 53 57  1  0  0  0  0
 53 58  1  0  0  0  0
 33 36  1  0  0  0  0
 33 37  1  0  0  0  0
 33 38  1  0  0  0  0
 60 62  1  0  0  0  0
 60 63  1  0  0  0  0
 60 64  1  0  0  0  0
 18 20  1  0  0  0  0
 18 21  1  0  0  0  0
 18 22  1  0  0  0  0
 11 15  1  0  0  0  0
 11 16  1  0  0  0  0
 43 47  1  0  0  0  0
 43 48  1  0  0  0  0
 50 55  1  0  0  0  0
  8 14  1  0  0  0  0
 30 35  1  0  0  0  0
 40 46  1  0  0  0  0
 59 61  1  0  0  0  0
 17 19  1  0  0  0  0
  7 13  1  0  0  0  0
 29 34  1  0  0  0  0
 49 54  1  0  0  0  0
 39 45  1  0  0  0  0
M  END
$$$$

  -OEChem-05262214473D

 64 63  0     1  0  0  0  0  0999 V2000
   -0.9544   -6.6737   -1.5709 C   0  0  0  0  0  0  0  0  0  0  0  0
   -2.0711   -6.7002   -2.0750 O   0  0  0  0  0  0  0  0  0  0  0  0
   -0.5755   -7.7110   -0.5665 C   0  0  0  0  0  0  0  0  0  0  0  0
   -0.8192   -7.4071    0.4643 H   0  0  0  0  0  0  0  0  0  0  0  0
   -1.1085   -8.6625   -0.7232 H   0  0  0  0  0  0  0  0  0  0  0  0
    0.4932   -7.9779   -0.5449 H   0  0  0  0  0  0  0  0  0  0  0  0
    0.0432   -5.7521   -1.8380 N   0  0  0  0  0  0  0  0  0  0  0  0
   -0.1108   -4.6690   -2.7759 C   0  0  2  0  0  0  0  0  0  0  0  0
    1.2276   -4.4204   -3.4684 C   0  0  0  0  0  0  0  0  0  0  0  0
    2.2647   -4.9977   -3.1481 O   0  0  0  0  0  0  0  0  0  0  0  0
   -0.7002   -3.4148   -2.1260 C   0  0  0  0  0  0  0  0  0  0  0  0
    0.3557   -2.6961   -0.8256 S   0  0  0  0  0  0  0  0  0  0  0  0
    0.9299   -5.8440   -1.3474 H   0  0  0  0  0  0  0  0  0  0  0  0
   -0.8135   -5.0344   -3.5351 H   0  0  0  0  0  0  0  0  0  0  0  0
   -0.8703   -2.6365   -2.8770 H   0  0  0  0  0  0  0  0  0  0  0  0
   -1.6676   -3.6506   -1.6696 H   0  0  0  0  0  0  0  0  0  0  0  0
    1.1318   -3.4616   -4.4670 N   0  0  0  0  0  0  0  0  0  0  0  0
    2.2685   -3.0355   -5.2494 C   0  0  0  0  0  0  0  0  0  0  0  0
    0.2245   -3.0660   -4.6948 H   0  0  0  0  0  0  0  0  0  0  0  0
    2.7273   -2.1528   -4.7799 H   0  0  0  0  0  0  0  0  0  0  0  0
    3.0062   -3.8499   -5.2978 H   0  0  0  0  0  0  0  0  0  0  0  0
    1.9379   -2.7792   -6.2667 H   0  0  0  0  0  0  0  0  0  0  0  0
   -6.7256    2.0330   -0.2766 C   0  0  0  0  0  0  0  0  0  0  0  0
   -7.1824    1.1039   -0.9322 O   0  0  0  0  0  0  0  0  0  0  0  0
   -7.5276    2.6077    0.8435 C   0  0  0  0  0  0  0  0  0  0  0  0
   -8.1775    3.4344    0.5145 H   0  0  0  0  0  0  0  0  0  0  0  0
   -8.2057    1.8676    1.2980 H   0  0  0  0  0  0  0  0  0  0  0  0
   -6.9411    3.0162    1.6819 H   0  0  0  0  0  0  0  0  0  0  0  0
   -5.4935    2.6382   -0.4627 N   0  0  0  0  0  0  0  0  0  0  0  0
   -4.5619    2.2388   -1.4845 C   0  0  2  0  0  0  0  0  0  0  0  0
   -3.1535    2.4674   -0.9521 C   0  0  0  0  0  0  0  0  0  0  0  0
   -2.8634    3.3945   -0.1987 O   0  0  0  0  0  0  0  0  0  0  0  0
   -4.7883    3.0138   -2.7732 C   0  0  0  0  0  0  0  0  0  0  0  0
   -5.2337    3.4049    0.1551 H   0  0  0  0  0  0  0  0  0  0  0  0
   -4.7192    1.1682   -1.6549 H   0  0  0  0  0  0  0  0  0  0  0  0
   -4.6352    4.0886   -2.6221 H   0  0  0  0  0  0  0  0  0  0  0  0
   -4.0976    2.6887   -3.5582 H   0  0  0  0  0  0  0  0  0  0  0  0
   -5.8111    2.8719   -3.1387 H   0  0  0  0  0  0  0  0  0  0  0  0
   -2.2466    1.5400   -1.4507 N   0  0  0  0  0  0  0  0  0  0  0  0
   -0.8424    1.5707   -1.1286 C   0  0  2  0  0  0  0  0  0  0  0  0
   -0.1811    2.7060   -1.9074 C   0  0  0  0  0  0  0  0  0  0  0  0
   -0.8200    3.5910   -2.4730 O   0  0  0  0  0  0  0  0  0  0  0  0
   -0.1661    0.2142   -1.3414 C   0  0  0  0  0  0  0  0  0  0  0  0
   -0.7707   -1.0834   -0.2352 S   0  0  0  0  0  0  0  0  0  0  0  0
   -2.5850    0.7815   -2.0381 H   0  0  0  0  0  0  0  0  0  0  0  0
   -0.7901    1.8259   -0.0628 H   0  0  0  0  0  0  0  0  0  0  0  0
   -0.3177   -0.1340   -2.3683 H   0  0  0  0  0  0  0  0  0  0  0  0
    0.9134    0.3060   -1.1797 H   0  0  0  0  0  0  0  0  0  0  0  0
    1.2025    2.5998   -1.9166 N   0  0  0  0  0  0  0  0  0  0  0  0
    2.0514    3.5413   -2.6085 C   0  0  2  0  0  0  0  0  0  0  0  0
    3.2787    2.7897   -3.1069 C   0  0  0  0  0  0  0  0  0  0  0  0
    3.7882    1.8549   -2.4924 O   0  0  0  0  0  0  0  0  0  0  0  0
    2.4515    4.6953   -1.7025 C   0  0  0  0  0  0  0  0  0  0  0  0
    1.6506    1.8591   -1.3854 H   0  0  0  0  0  0  0  0  0  0  0  0
    1.4783    3.9142   -3.4644 H   0  0  0  0  0  0  0  0  0  0  0  0
    3.0266    4.3411   -0.8392 H   0  0  0  0  0  0  0  0  0  0  0  0
    3.0715    5.4226   -2.2368 H   0  0  0  0  0  0  0  0  0  0  0  0
    1.5666    5.2162   -1.3212 H   0  0  0  0  0  0  0  0  0  0  0  0
    3.7638    3.3136   -4.2971 N   0  0  0  0  0  0  0  0  0  0  0  0
    4.9455    2.8008   -4.9502 C   0  0  0  0  0  0  0  0  0  0  0  0
    3.2553    4.0628   -4.7573 H   0  0  0  0  0  0  0  0  0  0  0  0
    5.8256    3.3704   -4.6171 H   0  0  0  0  0  0  0  0  0  0  0  0
    5.0762    1.7397   -4.6913 H   0  0  0  0  0  0  0  0  0  0  0  0
    4.8348    2.9013   -6.0400 H   0  0  0  0  0  0  0  0  0  0  0  0
  1  3  1  0  0  0  0
  1  7  1  0  0  0  0
  1  2  2  0  0  0  0
 23 25  1  0  0  0  0
 23 29  1  0  0  0  0
 23 24  2  0  0  0  0
 50 51  1  0  0  0  0
 51 59  1  0  0  0  0
 51 52  2  0  0  0  0
  8  9  1  0  0  0  0
  9 17  1  0  0  0  0
  9 10  2  0  0  0  0
 30 31  1  0  0  0  0
 31 39  1  0  0  0  0
 31 32  2  0  0  0  0
 40 41  1  0  0  0  0
 41 49  1  0  0  0  0
 41 42  2  0  0  0  0
 50 53  1  0  0  0  0
 30 33  1  0  0  0  0
 59 60  1  0  0  0  0
 17 18  1  0  0  0  0
  8 11  1  0  0  0  0
 11 12  1  0  0  0  0
 40 43  1  0  0  0  0
 43 44  1  0  0  0  0
 49 50  1  0  0  0  0
  7  8  1  0  0  0  0
 29 30  1  0  0  0  0
 39 40  1  0  0  0  0
 12 44  1  0  0  0  0
  3  4  1  0  0  0  0
  3  5  1  0  0  0  0
  3  6  1  0  0  0  0
 25 26  1  0  0  0  0
 25 27  1  0  0  0  0
 25 28  1  0  0  0  0
 53 56  1  0  0  0  0
 53 57  1  0  0  0  0
 53 58  1  0  0  0  0
 33 36  1  0  0  0  0
 33 37  1  0  0  0  0
 33 38  1  0  0  0  0
 60 62  1  0  0  0  0
 60 63  1  0  0  0  0
 60 64  1  0  0  0  0
 18 20  1  0  0  0  0
 18 21  1  0  0  0  0
 18 22  1  0  0  0  0
 11 15  1  0  0  0  0
 11 16  1  0  0  0  0
 43 47  1  0  0  0  0
 43 48  1  0  0  0  0
 50 55  1  0  0  0  0
  8 14  1  0  0  0  0
 30 35  1  0  0  0  0
 40 46  1  0  0  0  0
 59 61  1  0  0  0  0
 17 19  1  0  0  0  0
  7 13  1  0  0  0  0
 29 34  1  0  0  0  0
 49 54  1  0  0  0  0
 39 45  1  0  0  0  0
M  END
$$$$

  -OEChem-05262214473D

 64 63  0     1  0  0  0  0  0999 V2000
   -0.9544   -6.6737   -1.5709 C   0  0  0  0  0  0  0  0  0  0  0  0
   -2.0711   -6.7002   -2.0750 O   0  0  0  0  0  0  0  0  0  0  0  0
   -0.5755   -7.7110   -0.5665 C   0  0  0  0  0  0  0  0  0  0  0  0
   -0.8192   -7.4071    0.4643 H   0  0  0  0  0  0  0  0  0  0  0  0
   -1.1085   -8.6625   -0.7232 H   0  0  0  0  0  0  0  0  0  0  0  0
    0.4932   -7.9779   -0.5449 H   0  0  0  0  0  0  0  0  0  0  0  0
    0.0432   -5.7521   -1.8380 N   0  0  0  0  0  0  0  0  0  0  0  0
   -0.1108   -4.6690   -2.7759 C   0  0  2  0  0  0  0  0  0  0  0  0
    1.2276   -4.4204   -3.4684 C   0  0  0  0  0  0  0  0  0  0  0  0
    2.2647   -4.9977   -3.1481 O   0  0  0  0  0  0  0  0  0  0  0  0
   -0.7002   -3.4148   -2.1260 C   0  0  0  0  0  0  0  0  0  0  0  0
    0.3557   -2.6961   -0.8256 S   0  0  0  0  0  0  0  0  0  0  0  0
    0.9299   -5.8440   -1.3474 H   0  0  0  0  0  0  0  0  0  0  0  0
   -0.8135   -5.0344   -3.5351 H   0  0  0  0  0  0  0  0  0  0  0  0
   -0.8703   -2.6365   -2.8770 H   0  0  0  0  0  0  0  0  0  0  0  0
   -1.6676   -3.6506   -1.6696 H   0  0  0  0  0  0  0  0  0  0  0  0
    1.1318   -3.4616   -4.4670 N   0  0  0  0  0  0  0  0  0  0  0  0
    2.2685   -3.0355   -5.2494 C   0  0  0  0  0  0  0  0  0  0  0  0
    0.2245   -3.0660   -4.6948 H   0  0  0  0  0  0  0  0  0  0  0  0
    2.7273   -2.1528   -4.7799 H   0  0  0  0  0  0  0  0  0  0  0  0
    3.0062   -3.8499   -5.2978 H   0  0  0  0  0  0  0  0  0  0  0  0
    1.9379   -2.7792   -6.2667 H   0  0  0  0  0  0  0  0  0  0  0  0
   -6.7256    2.0330   -0.2766 C   0  0  0  0  0  0  0  0  0  0  0  0
   -7.1824    1.1039   -0.9322 O   0  0  0  0  0  0  0  0  0  0  0  0
   -7.5276    2.6077    0.8435 C   0  0  0  0  0  0  0  0  0  0  0  0
   -8.1775    3.4344    0.5145 H   0  0  0  0  0  0  0  0  0  0  0  0
   -8.2057    1.8676    1.2980 H   0  0  0  0  0  0  0  0  0  0  0  0
   -6.9411    3.0162    1.6819 H   0  0  0  0  0  0  0  0  0  0  0  0
   -5.4935    2.6382   -0.4627 N   0  0  0  0  0  0  0  0  0  0  0  0
   -4.5619    2.2388   -1.4845 C   0  0  2  0  0  0  0  0  0  0  0  0
   -3.1535    2.4674   -0.9521 C   0  0  0  0  0  0  0  0  0  0  0  0
   -2.8634    3.3945   -0.1987 O   0  0  0  0  0  0  0  0  0  0  0  0
   -4.7883    3.0138   -2.7732 C   0  0  0  0  0  0  0  0  0  0  0  0
   -5.2337    3.4049    0.1551 H   0  0  0  0  0  0  0  0  0  0  0  0
   -4.7192    1.1682   -1.6549 H   0  0  0  0  0  0  0  0  0  0  0  0
   -4.6352    4.0886   -2.6221 H   0  0  0  0  0  0  0  0  0  0  0  0
   -4.0976    2.6887   -3.5582 H   0  0  0  0  0  0  0  0  0  0  0  0
   -5.8111    2.8719   -3.1387 H   0  0  0  0  0  0  0  0  0  0  0  0
   -2.2466    1.5400   -1.4507 N   0  0  0  0  0  0  0  0  0  0  0  0
   -0.8424    1.5707   -1.1286 C   0  0  2  0  0  0  0  0  0  0  0  0
   -0.1811    2.7060   -1.9074 C   0  0  0  0  0  0  0  0  0  0  0  0
   -0.7804    3.7255   -2.2433 O   0  0  0  0  0  0  0  0  0  0  0  0
   -0.1661    0.2142   -1.3414 C   0  0  0  0  0  0  0  0  0  0  0  0
   -0.7707   -1.0834   -0.2352 S   0  0  0  0  0  0  0  0  0  0  0  0
   -2.5850    0.7815   -2.0381 H   0  0  0  0  0  0  0  0  0  0  0  0
   -0.7901    1.8259   -0.0628 H   0  0  0  0  0  0  0  0  0  0  0  0
   -0.3177   -0.1340   -2.3683 H   0  0  0  0  0  0  0  0  0  0  0  0
    0.9134    0.3060   -1.1797 H   0  0  0  0  0  0  0  0  0  0  0  0
    1.1473    2.4352   -2.2035 N   0  0  0  0  0  0  0  0  0  0  0  0
    1.9794    3.3460   -2.9543 C   0  0  2  0  0  0  0  0  0  0  0  0
    2.9731    2.5197   -3.7600 C   0  0  0  0  0  0  0  0  0  0  0  0
    3.4485    1.4607   -3.3555 O   0  0  0  0  0  0  0  0  0  0  0  0
    2.7008    4.3208   -2.0367 C   0  0  0  0  0  0  0  0  0  0  0  0
    1.5753    1.5851   -1.8487 H   0  0  0  0  0  0  0  0  0  0  0  0
    1.3172    3.8896   -3.6371 H   0  0  0  0  0  0  0  0  0  0  0  0
    3.3690    3.7945   -1.3453 H   0  0  0  0  0  0  0  0  0  0  0  0
    3.3089    5.0288   -2.6093 H   0  0  0  0  0  0  0  0  0  0  0  0
    1.9854    4.8932   -1.4364 H   0  0  0  0  0  0  0  0  0  0  0  0
    3.2997    3.1256   -4.9652 N   0  0  0  0  0  0  0  0  0  0  0  0
    4.2546    2.5593   -5.8889 C   0  0  0  0  0  0  0  0  0  0  0  0
    2.8273    3.9825   -5.2378 H   0  0  0  0  0  0  0  0  0  0  0  0
    5.2534    2.9721   -5.6837 H   0  0  0  0  0  0  0  0  0  0  0  0
    4.2779    1.4662   -5.7679 H   0  0  0  0  0  0  0  0  0  0  0  0
    3.9599    2.8079   -6.9191 H   0  0  0  0  0  0  0  0  0  0  0  0
  1  3  1  0  0  0  0
  1  7  1  0  0  0  0
  1  2  2  0  0  0  0
 23 25  1  0  0  0  0
 23 29  1  0  0  0  0
 23 24  2  0  0  0  0
 50 51  1  0  0  0  0
 51 59  1  0  0  0  0
 51 52  2  0  0  0  0
  8  9  1  0  0  0  0
  9 17  1  0  0  0  0
  9 10  2  0  0  0  0
 30 31  1  0  0  0  0
 31 39  1  0  0  0  0
 31 32  2  0  0  0  0
 40 41  1  0  0  0  0
 41 49  1  0  0  0  0
 41 42  2  0  0  0  0
 50 53  1  0  0  0  0
 30 33  1  0  0  0  0
 59 60  1  0  0  0  0
 17 18  1  0  0  0  0
  8 11  1  0  0  0  0
 11 12  1  0  0  0  0
 40 43  1  0  0  0  0
 43 44  1  0  0  0  0
 49 50  1  0  0  0  0
  7  8  1  0  0  0  0
 29 30  1  0  0  0  0
 39 40  1  0  0  0  0
 12 44  1  0  0  0  0
  3  4  1  0  0  0  0
  3  5  1  0  0  0  0
  3  6  1  0  0  0  0
 25 26  1  0  0  0  0
 25 27  1  0  0  0  0
 25 28  1  0  0  0  0
 53 56  1  0  0  0  0
 53 57  1  0  0  0  0
 53 58  1  0  0  0  0
 33 36  1  0  0  0  0
 33 37  1  0  0  0  0
 33 38  1  0  0  0  0
 60 62  1  0  0  0  0
 60 63  1  0  0  0  0
 60 64  1  0  0  0  0
 18 20  1  0  0  0  0
 18 21  1  0  0  0  0
 18 22  1  0  0  0  0
 11 15  1  0  0  0  0
 11 16  1  0  0  0  0
 43 47  1  0  0  0  0
 43 48  1  0  0  0  0
 50 55  1  0  0  0  0
  8 14  1  0  0  0  0
 30 35  1  0  0  0  0
 40 46  1  0  0  0  0
 59 61  1  0  0  0  0
 17 19  1  0  0  0  0
  7 13  1  0  0  0  0
 29 34  1  0  0  0  0
 49 54  1  0  0  0  0
 39 45  1  0  0  0  0
M  END
$$$$

  -OEChem-05262214473D

 64 63  0     1  0  0  0  0  0999 V2000
   -0.9544   -6.6737   -1.5709 C   0  0  0  0  0  0  0  0  0  0  0  0
   -2.0711   -6.7002   -2.0750 O   0  0  0  0  0  0  0  0  0  0  0  0
   -0.5755   -7.7110   -0.5665 C   0  0  0  0  0  0  0  0  0  0  0  0
   -0.8192   -7.4071    0.4643 H   0  0  0  0  0  0  0  0  0  0  0  0
   -1.1085   -8.6625   -0.7232 H   0  0  0  0  0  0  0  0  0  0  0  0
    0.4932   -7.9779   -0.5449 H   0  0  0  0  0  0  0  0  0  0  0  0
    0.0432   -5.7521   -1.8380 N   0  0  0  0  0  0  0  0  0  0  0  0
   -0.1108   -4.6690   -2.7759 C   0  0  2  0  0  0  0  0  0  0  0  0
    1.2276   -4.4204   -3.4684 C   0  0  0  0  0  0  0  0  0  0  0  0
    2.2647   -4.9977   -3.1481 O   0  0  0  0  0  0  0  0  0  0  0  0
   -0.7002   -3.4148   -2.1260 C   0  0  0  0  0  0  0  0  0  0  0  0
    0.3557   -2.6961   -0.8256 S   0  0  0  0  0  0  0  0  0  0  0  0
    0.9299   -5.8440   -1.3474 H   0  0  0  0  0  0  0  0  0  0  0  0
   -0.8135   -5.0344   -3.5351 H   0  0  0  0  0  0  0  0  0  0  0  0
   -0.8703   -2.6365   -2.8770 H   0  0  0  0  0  0  0  0  0  0  0  0
   -1.6676   -3.6506   -1.6696 H   0  0  0  0  0  0  0  0  0  0  0  0
    1.1318   -3.4616   -4.4670 N   0  0  0  0  0  0  0  0  0  0  0  0
    2.2685   -3.0355   -5.2494 C   0  0  0  0  0  0  0  0  0  0  0  0
    0.2245   -3.0660   -4.6948 H   0  0  0  0  0  0  0  0  0  0  0  0
    2.7273   -2.1528   -4.7799 H   0  0  0  0  0  0  0  0  0  0  0  0
    3.0062   -3.8499   -5.2978 H   0  0  0  0  0  0  0  0  0  0  0  0
    1.9379   -2.7792   -6.2667 H   0  0  0  0  0  0  0  0  0  0  0  0
   -6.7256    2.0330   -0.2766 C   0  0  0  0  0  0  0  0  0  0  0  0
   -7.1824    1.1039   -0.9322 O   0  0  0  0  0  0  0  0  0  0  0  0
   -7.5276    2.6077    0.8435 C   0  0  0  0  0  0  0  0  0  0  0  0
   -8.1775    3.4344    0.5145 H   0  0  0  0  0  0  0  0  0  0  0  0
   -8.2057    1.8676    1.2980 H   0  0  0  0  0  0  0  0  0  0  0  0
   -6.9411    3.0162    1.6819 H   0  0  0  0  0  0  0  0  0  0  0  0
   -5.4935    2.6382   -0.4627 N   0  0  0  0  0  0  0  0  0  0  0  0
   -4.5619    2.2388   -1.4845 C   0  0  2  0  0  0  0  0  0  0  0  0
   -3.1535    2.4674   -0.9521 C   0  0  0  0  0  0  0  0  0  0  0  0
   -2.8634    3.3945   -0.1987 O   0  0  0  0  0  0  0  0  0  0  0  0
   -4.7883    3.0138   -2.7732 C   0  0  0  0  0  0  0  0  0  0  0  0
   -5.2337    3.4049    0.1551 H   0  0  0  0  0  0  0  0  0  0  0  0
   -4.7192    1.1682   -1.6549 H   0  0  0  0  0  0  0  0  0  0  0  0
   -4.6352    4.0886   -2.6221 H   0  0  0  0  0  0  0  0  0  0  0  0
   -4.0976    2.6887   -3.5582 H   0  0  0  0  0  0  0  0  0  0  0  0
   -5.8111    2.8719   -3.1387 H   0  0  0  0  0  0  0  0  0  0  0  0
   -2.2466    1.5400   -1.4507 N   0  0  0  0  0  0  0  0  0  0  0  0
   -0.8424    1.5707   -1.1286 C   0  0  2  0  0  0  0  0  0  0  0  0
   -0.1811    2.7060   -1.9074 C   0  0  0  0  0  0  0  0  0  0  0  0
   -0.6802    3.8244   -2.0140 O   0  0  0  0  0  0  0  0  0  0  0  0
   -0.1661    0.2142   -1.3414 C   0  0  0  0  0  0  0  0  0  0  0  0
   -0.7707   -1.0834   -0.2352 S   0  0  0  0  0  0  0  0  0  0  0  0
   -2.5850    0.7815   -2.0381 H   0  0  0  0  0  0  0  0  0  0  0  0
   -0.7901    1.8259   -0.0628 H   0  0  0  0  0  0  0  0  0  0  0  0
   -0.3177   -0.1340   -2.3683 H   0  0  0  0  0  0  0  0  0  0  0  0
    0.9134    0.3060   -1.1797 H   0  0  0  0  0  0  0  0  0  0  0  0
    1.0170    2.3156   -2.4884 N   0  0  0  0  0  0  0  0  0  0  0  0
    1.8175    3.2057   -3.2964 C   0  0  2  0  0  0  0  0  0  0  0  0
    2.5167    2.3724   -4.3623 C   0  0  0  0  0  0  0  0  0  0  0  0
    2.9023    1.2214   -4.1681 O   0  0  0  0  0  0  0  0  0  0  0  0
    2.8279    3.9635   -2.4494 C   0  0  0  0  0  0  0  0  0  0  0  0
    1.3773    1.3823   -2.3125 H   0  0  0  0  0  0  0  0  0  0  0  0
    1.1252    3.9064   -3.7756 H   0  0  0  0  0  0  0  0  0  0  0  0
    3.5302    3.2780   -1.9612 H   0  0  0  0  0  0  0  0  0  0  0  0
    3.4146    4.6588   -3.0590 H   0  0  0  0  0  0  0  0  0  0  0  0
    2.3251    4.5388   -1.6645 H   0  0  0  0  0  0  0  0  0  0  0  0
    2.6981    3.0802   -5.5423 N   0  0  0  0  0  0  0  0  0  0  0  0
    3.3749    2.5224   -6.6898 C   0  0  0  0  0  0  0  0  0  0  0  0
    2.3108    4.0152   -5.6287 H   0  0  0  0  0  0  0  0  0  0  0  0
    4.4429    2.7824   -6.6485 H   0  0  0  0  0  0  0  0  0  0  0  0
    3.2636    1.4280   -6.6848 H   0  0  0  0  0  0  0  0  0  0  0  0
    2.9333    2.9316   -7.6105 H   0  0  0  0  0  0  0  0  0  0  0  0
  1  3  1  0  0  0  0
  1  7  1  0  0  0  0
  1  2  2  0  0  0  0
 23 25  1  0  0  0  0
 23 29  1  0  0  0  0
 23 24  2  0  0  0  0
 50 51  1  0  0  0  0
 51 59  1  0  0  0  0
 51 52  2  0  0  0  0
  8  9  1  0  0  0  0
  9 17  1  0  0  0  0
  9 10  2  0  0  0  0
 30 31  1  0  0  0  0
 31 39  1  0  0  0  0
 31 32  2  0  0  0  0
 40 41  1  0  0  0  0
 41 49  1  0  0  0  0
 41 42  2  0  0  0  0
 50 53  1  0  0  0  0
 30 33  1  0  0  0  0
 59 60  1  0  0  0  0
 17 18  1  0  0  0  0
  8 11  1  0  0  0  0
 11 12  1  0  0  0  0
 40 43  1  0  0  0  0
 43 44  1  0  0  0  0
 49 50  1  0  0  0  0
  7  8  1  0  0  0  0
 29 30  1  0  0  0  0
 39 40  1  0  0  0  0
 12 44  1  0  0  0  0
  3  4  1  0  0  0  0
  3  5  1  0  0  0  0
  3  6  1  0  0  0  0
 25 26  1  0  0  0  0
 25 27  1  0  0  0  0
 25 28  1  0  0  0  0
 53 56  1  0  0  0  0
 53 57  1  0  0  0  0
 53 58  1  0  0  0  0
 33 36  1  0  0  0  0
 33 37  1  0  0  0  0
 33 38  1  0  0  0  0
 60 62  1  0  0  0  0
 60 63  1  0  0  0  0
 60 64  1  0  0  0  0
 18 20  1  0  0  0  0
 18 21  1  0  0  0  0
 18 22  1  0  0  0  0
 11 15  1  0  0  0  0
 11 16  1  0  0  0  0
 43 47  1  0  0  0  0
 43 48  1  0  0  0  0
 50 55  1  0  0  0  0
  8 14  1  0  0  0  0
 30 35  1  0  0  0  0
 40 46  1  0  0  0  0
 59 61  1  0  0  0  0
 17 19  1  0  0  0  0
  7 13  1  0  0  0  0
 29 34  1  0  0  0  0
 49 54  1  0  0  0  0
 39 45  1  0  0  0  0
M  END
$$$$

  -OEChem-05262214473D

 64 63  0     1  0  0  0  0  0999 V2000
   -0.9544   -6.6737   -1.5709 C   0  0  0  0  0  0  0  0  0  0  0  0
   -2.0711   -6.7002   -2.0750 O   0  0  0  0  0  0  0  0  0  0  0  0
   -0.5755   -7.7110   -0.5665 C   0  0  0  0  0  0  0  0  0  0  0  0
   -0.8192   -7.4071    0.4643 H   0  0  0  0  0  0  0  0  0  0  0  0
   -1.1085   -8.6625   -0.7232 H   0  0  0  0  0  0  0  0  0  0  0  0
    0.4932   -7.9779   -0.5449 H   0  0  0  0  0  0  0  0  0  0  0  0
    0.0432   -5.7521   -1.8380 N   0  0  0  0  0  0  0  0  0  0  0  0
   -0.1108   -4.6690   -2.7759 C   0  0  2  0  0  0  0  0  0  0  0  0
    1.2276   -4.4204   -3.4684 C   0  0  0  0  0  0  0  0  0  0  0  0
    2.2647   -4.9977   -3.1481 O   0  0  0  0  0  0  0  0  0  0  0  0
   -0.7002   -3.4148   -2.1260 C   0  0  0  0  0  0  0  0  0  0  0  0
    0.3557   -2.6961   -0.8256 S   0  0  0  0  0  0  0  0  0  0  0  0
    0.9299   -5.8440   -1.3474 H   0  0  0  0  0  0  0  0  0  0  0  0
   -0.8135   -5.0344   -3.5351 H   0  0  0  0  0  0  0  0  0  0  0  0
   -0.8703   -2.6365   -2.8770 H   0  0  0  0  0  0  0  0  0  0  0  0
   -1.6676   -3.6506   -1.6696 H   0  0  0  0  0  0  0  0  0  0  0  0
    1.1318   -3.4616   -4.4670 N   0  0  0  0  0  0  0  0  0  0  0  0
    2.2685   -3.0355   -5.2494 C   0  0  0  0  0  0  0  0  0  0  0  0
    0.2245   -3.0660   -4.6948 H   0  0  0  0  0  0  0  0  0  0  0  0
    2.7273   -2.1528   -4.7799 H   0  0  0  0  0  0  0  0  0  0  0  0
    3.0062   -3.8499   -5.2978 H   0  0  0  0  0  0  0  0  0  0  0  0
    1.9379   -2.7792   -6.2667 H   0  0  0  0  0  0  0  0  0  0  0  0
   -6.7256    2.0330   -0.2766 C   0  0  0  0  0  0  0  0  0  0  0  0
   -7.1824    1.1039   -0.9322 O   0  0  0  0  0  0  0  0  0  0  0  0
   -7.5276    2.6077    0.8435 C   0  0  0  0  0  0  0  0  0  0  0  0
   -8.1775    3.4344    0.5145 H   0  0  0  0  0  0  0  0  0  0  0  0
   -8.2057    1.8676    1.2980 H   0  0  0  0  0  0  0  0  0  0  0  0
   -6.9411    3.0162    1.6819 H   0  0  0  0  0  0  0  0  0  0  0  0
   -5.4935    2.6382   -0.4627 N   0  0  0  0  0  0  0  0  0  0  0  0
   -4.5619    2.2388   -1.4845 C   0  0  2  0  0  0  0  0  0  0  0  0
   -3.1535    2.4674   -0.9521 C   0  0  0  0  0  0  0  0  0  0  0  0
   -2.8634    3.3945   -0.1987 O   0  0  0  0  0  0  0  0  0  0  0  0
   -4.7883    3.0138   -2.7732 C   0  0  0  0  0  0  0  0  0  0  0  0
   -5.2337    3.4049    0.1551 H   0  0  0  0  0  0  0  0  0  0  0  0
   -4.7192    1.1682   -1.6549 H   0  0  0  0  0  0  0  0  0  0  0  0
   -4.6352    4.0886   -2.6221 H   0  0  0  0  0  0  0  0  0  0  0  0
   -4.0976    2.6887   -3.5582 H   0  0  0  0  0  0  0  0  0  0  0  0
   -5.8111    2.8719   -3.1387 H   0  0  0  0  0  0  0  0  0  0  0  0
   -2.2466    1.5400   -1.4507 N   0  0  0  0  0  0  0  0  0  0  0  0
   -0.8424    1.5707   -1.1286 C   0  0  2  0  0  0  0  0  0  0  0  0
   -0.1811    2.7060   -1.9074 C   0  0  0  0  0  0  0  0  0  0  0  0
   -0.5262    3.8811   -1.8006 O   0  0  0  0  0  0  0  0  0  0  0  0
   -0.1661    0.2142   -1.3414 C   0  0  0  0  0  0  0  0  0  0  0  0
   -0.7707   -1.0834   -0.2352 S   0  0  0  0  0  0  0  0  0  0  0  0
   -2.5850    0.7815   -2.0381 H   0  0  0  0  0  0  0  0  0  0  0  0
   -0.7901    1.8259   -0.0628 H   0  0  0  0  0  0  0  0  0  0  0  0
   -0.3177   -0.1340   -2.3683 H   0  0  0  0  0  0  0  0  0  0  0  0
    0.9134    0.3060   -1.1797 H   0  0  0  0  0  0  0  0  0  0  0  0
    0.8207    2.2491   -2.7520 N   0  0  0  0  0  0  0  0  0  0  0  0
    1.5768    3.1298   -3.6113 C   0  0  2  0  0  0  0  0  0  0  0  0
    1.9405    2.3578   -4.8728 C   0  0  0  0  0  0  0  0  0  0  0  0
    2.1868    1.1535   -4.8746 O   0  0  0  0  0  0  0  0  0  0  0  0
    2.8242    3.6480   -2.9126 C   0  0  0  0  0  0  0  0  0  0  0  0
    1.0701    1.2646   -2.7450 H   0  0  0  0  0  0  0  0  0  0  0  0
    0.9152    3.9635   -3.8706 H   0  0  0  0  0  0  0  0  0  0  0  0
    3.4993    2.8269   -2.6450 H   0  0  0  0  0  0  0  0  0  0  0  0
    3.3813    4.3378   -3.5551 H   0  0  0  0  0  0  0  0  0  0  0  0
    2.5626    4.1773   -1.9899 H   0  0  0  0  0  0  0  0  0  0  0  0
    1.9999    3.1803   -5.9891 N   0  0  0  0  0  0  0  0  0  0  0  0
    2.3661    2.6926   -7.2983 C   0  0  0  0  0  0  0  0  0  0  0  0
    1.7410    4.1588   -5.9032 H   0  0  0  0  0  0  0  0  0  0  0  0
    3.4494    2.8143   -7.4457 H   0  0  0  0  0  0  0  0  0  0  0  0
    2.1024    1.6278   -7.3797 H   0  0  0  0  0  0  0  0  0  0  0  0
    1.8251    3.2641   -8.0669 H   0  0  0  0  0  0  0  0  0  0  0  0
  1  3  1  0  0  0  0
  1  7  1  0  0  0  0
  1  2  2  0  0  0  0
 23 25  1  0  0  0  0
 23 29  1  0  0  0  0
 23 24  2  0  0  0  0
 50 51  1  0  0  0  0
 51 59  1  0  0  0  0
 51 52  2  0  0  0  0
  8  9  1  0  0  0  0
  9 17  1  0  0  0  0
  9 10  2  0  0  0  0
 30 31  1  0  0  0  0
 31 39  1  0  0  0  0
 31 32  2  0  0  0  0
 40 41  1  0  0  0  0
 41 49  1  0  0  0  0
 41 42  2  0  0  0  0
 50 53  1  0  0  0  0
 30 33  1  0  0  0  0
 59 60  1  0  0  0  0
 17 18  1  0  0  0  0
  8 11  1  0  0  0  0
 11 12  1  0  0  0  0
 40 43  1  0  0  0  0
 43 44  1  0  0  0  0
 49 50  1  0  0  0  0
  7  8  1  0  0  0  0
 29 30  1  0  0  0  0
 39 40  1  0  0  0  0
 12 44  1  0  0  0  0
  3  4  1  0  0  0  0
  3  5  1  0  0  0  0
  3  6  1  0  0  0  0
 25 26  1  0  0  0  0
 25 27  1  0  0  0  0
 25 28  1  0  0  0  0
 53 56  1  0  0  0  0
 53 57  1  0  0  0  0
 53 58  1  0  0  0  0
 33 36  1  0  0  0  0
 33 37  1  0  0  0  0
 33 38  1  0  0  0  0
 60 62  1  0  0  0  0
 60 63  1  0  0  0  0
 60 64  1  0  0  0  0
 18 20  1  0  0  0  0
 18 21  1  0  0  0  0
 18 22  1  0  0  0  0
 11 15  1  0  0  0  0
 11 16  1  0  0  0  0
 43 47  1  0  0  0  0
 43 48  1  0  0  0  0
 50 55  1  0  0  0  0
  8 14  1  0  0  0  0
 30 35  1  0  0  0  0
 40 46  1  0  0  0  0
 59 61  1  0  0  0  0
 17 19  1  0  0  0  0
  7 13  1  0  0  0  0
 29 34  1  0  0  0  0
 49 54  1  0  0  0  0
 39 45  1  0  0  0  0
M  END
$$$$

  -OEChem-05262214473D

 64 63  0     1  0  0  0  0  0999 V2000
   -0.9544   -6.6737   -1.5709 C   0  0  0  0  0  0  0  0  0  0  0  0
   -2.0711   -6.7002   -2.0750 O   0  0  0  0  0  0  0  0  0  0  0  0
   -0.5755   -7.7110   -0.5665 C   0  0  0  0  0  0  0  0  0  0  0  0
   -0.8192   -7.4071    0.4643 H   0  0  0  0  0  0  0  0  0  0  0  0
   -1.1085   -8.6625   -0.7232 H   0  0  0  0  0  0  0  0  0  0  0  0
    0.4932   -7.9779   -0.5449 H   0  0  0  0  0  0  0  0  0  0  0  0
    0.0432   -5.7521   -1.8380 N   0  0  0  0  0  0  0  0  0  0  0  0
   -0.1108   -4.6690   -2.7759 C   0  0  2  0  0  0  0  0  0  0  0  0
    1.2276   -4.4204   -3.4684 C   0  0  0  0  0  0  0  0  0  0  0  0
    2.2647   -4.9977   -3.1481 O   0  0  0  0  0  0  0  0  0  0  0  0
   -0.7002   -3.4148   -2.1260 C   0  0  0  0  0  0  0  0  0  0  0  0
    0.3557   -2.6961   -0.8256 S   0  0  0  0  0  0  0  0  0  0  0  0
    0.9299   -5.8440   -1.3474 H   0  0  0  0  0  0  0  0  0  0  0  0
   -0.8135   -5.0344   -3.5351 H   0  0  0  0  0  0  0  0  0  0  0  0
   -0.8703   -2.6365   -2.8770 H   0  0  0  0  0  0  0  0  0  0  0  0
   -1.6676   -3.6506   -1.6696 H   0  0  0  0  0  0  0  0  0  0  0  0
    1.1318   -3.4616   -4.4670 N   0  0  0  0  0  0  0  0  0  0  0  0
    2.2685   -3.0355   -5.2494 C   0  0  0  0  0  0  0  0  0  0  0  0
    0.2245   -3.0660   -4.6948 H   0  0  0  0  0  0  0  0  0  0  0  0
    2.7273   -2.1528   -4.7799 H   0  0  0  0  0  0  0  0  0  0  0  0
    3.0062   -3.8499   -5.2978 H   0  0  0  0  0  0  0  0  0  0  0  0
    1.9379   -2.7792   -6.2667 H   0  0  0  0  0  0  0  0  0  0  0  0
   -6.7256    2.0330   -0.2766 C   0  0  0  0  0  0  0  0  0  0  0  0
   -7.1824    1.1039   -0.9322 O   0  0  0  0  0  0  0  0  0  0  0  0
   -7.5276    2.6077    0.8435 C   0  0  0  0  0  0  0  0  0  0  0  0
   -8.1775    3.4344    0.5145 H   0  0  0  0  0  0  0  0  0  0  0  0
   -8.2057    1.8676    1.2980 H   0  0  0  0  0  0  0  0  0  0  0  0
   -6.9411    3.0162    1.6819 H   0  0  0  0  0  0  0  0  0  0  0  0
   -5.4935    2.6382   -0.4627 N   0  0  0  0  0  0  0  0  0  0  0  0
   -4.5619    2.2388   -1.4845 C   0  0  2  0  0  0  0  0  0  0  0  0
   -3.1535    2.4674   -0.9521 C   0  0  0  0  0  0  0  0  0  0  0  0
   -2.8634    3.3945   -0.1987 O   0  0  0  0  0  0  0  0  0  0  0  0
   -4.7883    3.0138   -2.7732 C   0  0  0  0  0  0  0  0  0  0  0  0
   -5.2337    3.4049    0.1551 H   0  0  0  0  0  0  0  0  0  0  0  0
   -4.7192    1.1682   -1.6549 H   0  0  0  0  0  0  0  0  0  0  0  0
   -4.6352    4.0886   -2.6221 H   0  0  0  0  0  0  0  0  0  0  0  0
   -4.0976    2.6887   -3.5582 H   0  0  0  0  0  0  0  0  0  0  0  0
   -5.8111    2.8719   -3.1387 H   0  0  0  0  0  0  0  0  0  0  0  0
   -2.2466    1.5400   -1.4507 N   0  0  0  0  0  0  0  0  0  0  0  0
   -0.8424    1.5707   -1.1286 C   0  0  2  0  0  0  0  0  0  0  0  0
   -0.1811    2.7060   -1.9074 C   0  0  0  0  0  0  0  0  0  0  0  0
   -0.3289    3.8916   -1.6178 O   0  0  0  0  0  0  0  0  0  0  0  0
   -0.1661    0.2142   -1.3414 C   0  0  0  0  0  0  0  0  0  0  0  0
   -0.7707   -1.0834   -0.2352 S   0  0  0  0  0  0  0  0  0  0  0  0
   -2.5850    0.7815   -2.0381 H   0  0  0  0  0  0  0  0  0  0  0  0
   -0.7901    1.8259   -0.0628 H   0  0  0  0  0  0  0  0  0  0  0  0
   -0.3177   -0.1340   -2.3683 H   0  0  0  0  0  0  0  0  0  0  0  0
    0.9134    0.3060   -1.1797 H   0  0  0  0  0  0  0  0  0  0  0  0
    0.5715    2.2404   -2.9762 N   0  0  0  0  0  0  0  0  0  0  0  0
    1.2738    3.1236   -3.8778 C   0  0  2  0  0  0  0  0  0  0  0  0
    1.2838    2.4770   -5.2567 C   0  0  0  0  0  0  0  0  0  0  0  0
    1.3508    1.2615   -5.4271 O   0  0  0  0  0  0  0  0  0  0  0  0
    2.6898    3.3956   -3.3946 C   0  0  0  0  0  0  0  0  0  0  0  0
    0.6745    1.2398   -3.1169 H   0  0  0  0  0  0  0  0  0  0  0  0
    0.7017    4.0570   -3.9156 H   0  0  0  0  0  0  0  0  0  0  0  0
    3.2783    2.4719   -3.3501 H   0  0  0  0  0  0  0  0  0  0  0  0
    3.2113    4.0878   -4.0639 H   0  0  0  0  0  0  0  0  0  0  0  0
    2.6817    3.8331   -2.3905 H   0  0  0  0  0  0  0  0  0  0  0  0
    1.2528    3.4193   -6.2751 N   0  0  0  0  0  0  0  0  0  0  0  0
    1.2971    3.0583   -7.6729 C   0  0  0  0  0  0  0  0  0  0  0  0
    1.1569    4.4034   -6.0426 H   0  0  0  0  0  0  0  0  0  0  0  0
    2.3405    3.0655   -8.0211 H   0  0  0  0  0  0  0  0  0  0  0  0
    0.8735    2.0518   -7.8051 H   0  0  0  0  0  0  0  0  0  0  0  0
    0.7107    3.7827   -8.2573 H   0  0  0  0  0  0  0  0  0  0  0  0
  1  3  1  0  0  0  0
  1  7  1  0  0  0  0
  1  2  2  0  0  0  0
 23 25  1  0  0  0  0
 23 29  1  0  0  0  0
 23 24  2  0  0  0  0
 50 51  1  0  0  0  0
 51 59  1  0  0  0  0
 51 52  2  0  0  0  0
  8  9  1  0  0  0  0
  9 17  1  0  0  0  0
  9 10  2  0  0  0  0
 30 31  1  0  0  0  0
 31 39  1  0  0  0  0
 31 32  2  0  0  0  0
 40 41  1  0  0  0  0
 41 49  1  0  0  0  0
 41 42  2  0  0  0  0
 50 53  1  0  0  0  0
 30 33  1  0  0  0  0
 59 60  1  0  0  0  0
 17 18  1  0  0  0  0
  8 11  1  0  0  0  0
 11 12  1  0  0  0  0
 40 43  1  0  0  0  0
 43 44  1  0  0  0  0
 49 50  1  0  0  0  0
  7  8  1  0  0  0  0
 29 30  1  0  0  0  0
 39 40  1  0  0  0  0
 12 44  1  0  0  0  0
  3  4  1  0  0  0  0
  3  5  1  0  0  0  0
  3  6  1  0  0  0  0
 25 26  1  0  0  0  0
 25 27  1  0  0  0  0
 25 28  1  0  0  0  0
 53 56  1  0  0  0  0
 53 57  1  0  0  0  0
 53 58  1  0  0  0  0
 33 36  1  0  0  0  0
 33 37  1  0  0  0  0
 33 38  1  0  0  0  0
 60 62  1  0  0  0  0
 60 63  1  0  0  0  0
 60 64  1  0  0  0  0
 18 20  1  0  0  0  0
 18 21  1  0  0  0  0
 18 22  1  0  0  0  0
 11 15  1  0  0  0  0
 11 16  1  0  0  0  0
 43 47  1  0  0  0  0
 43 48  1  0  0  0  0
 50 55  1  0  0  0  0
  8 14  1  0  0  0  0
 30 35  1  0  0  0  0
 40 46  1  0  0  0  0
 59 61  1  0  0  0  0
 17 19  1  0  0  0  0
  7 13  1  0  0  0  0
 29 34  1  0  0  0  0
 49 54  1  0  0  0  0
 39 45  1  0  0  0  0
M  END
$$$$

  -OEChem-05262214473D

 64 63  0     1  0  0  0  0  0999 V2000
   -0.9544   -6.6737   -1.5709 C   0  0  0  0  0  0  0  0  0  0  0  0
   -2.0711   -6.7002   -2.0750 O   0  0  0  0  0  0  0  0  0  0  0  0
   -0.5755   -7.7110   -0.5665 C   0  0  0  0  0  0  0  0  0  0  0  0
   -0.8192   -7.4071    0.4643 H   0  0  0  0  0  0  0  0  0  0  0  0
   -1.1085   -8.6625   -0.7232 H   0  0  0  0  0  0  0  0  0  0  0  0
    0.4932   -7.9779   -0.5449 H   0  0  0  0  0  0  0  0  0  0  0  0
    0.0432   -5.7521   -1.8380 N   0  0  0  0  0  0  0  0  0  0  0  0
   -0.1108   -4.6690   -2.7759 C   0  0  2  0  0  0  0  0  0  0  0  0
    1.2276   -4.4204   -3.4684 C   0  0  0  0  0  0  0  0  0  0  0  0
    2.2647   -4.9977   -3.1481 O   0  0  0  0  0  0  0  0  0  0  0  0
   -0.7002   -3.4148   -2.1260 C   0  0  0  0  0  0  0  0  0  0  0  0
    0.3557   -2.6961   -0.8256 S   0  0  0  0  0  0  0  0  0  0  0  0
    0.9299   -5.8440   -1.3474 H   0  0  0  0  0  0  0  0  0  0  0  0
   -0.8135   -5.0344   -3.5351 H   0  0  0  0  0  0  0  0  0  0  0  0
   -0.8703   -2.6365   -2.8770 H   0  0  0  0  0  0  0  0  0  0  0  0
   -1.6676   -3.6506   -1.6696 H   0  0  0  0  0  0  0  0  0  0  0  0
    1.1318   -3.4616   -4.4670 N   0  0  0  0  0  0  0  0  0  0  0  0
    2.2685   -3.0355   -5.2494 C   0  0  0  0  0  0  0  0  0  0  0  0
    0.2245   -3.0660   -4.6948 H   0  0  0  0  0  0  0  0  0  0  0  0
    2.7273   -2.1528   -4.7799 H   0  0  0  0  0  0  0  0  0  0  0  0
    3.0062   -3.8499   -5.2978 H   0  0  0  0  0  0  0  0  0  0  0  0
    1.9379   -2.7792   -6.2667 H   0  0  0  0  0  0  0  0  0  0  0  0
   -6.7256    2.0330   -0.2766 C   0  0  0  0  0  0  0  0  0  0  0  0
   -7.1824    1.1039   -0.9322 O   0  0  0  0  0  0  0  0  0  0  0  0
   -7.5276    2.6077    0.8435 C   0  0  0  0  0  0  0  0  0  0  0  0
   -8.1775    3.4344    0.5145 H   0  0  0  0  0  0  0  0  0  0  0  0
   -8.2057    1.8676    1.2980 H   0  0  0  0  0  0  0  0  0  0  0  0
   -6.9411    3.0162    1.6819 H   0  0  0  0  0  0  0  0  0  0  0  0
   -5.4935    2.6382   -0.4627 N   0  0  0  0  0  0  0  0  0  0  0  0
   -4.5619    2.2388   -1.4845 C   0  0  2  0  0  0  0  0  0  0  0  0
   -3.1535    2.4674   -0.9521 C   0  0  0  0  0  0  0  0  0  0  0  0
   -2.8634    3.3945   -0.1987 O   0  0  0  0  0  0  0  0  0  0  0  0
   -4.7883    3.0138   -2.7732 C   0  0  0  0  0  0  0  0  0  0  0  0
   -5.2337    3.4049    0.1551 H   0  0  0  0  0  0  0  0  0  0  0  0
   -4.7192    1.1682   -1.6549 H   0  0  0  0  0  0  0  0  0  0  0  0
   -4.6352    4.0886   -2.6221 H   0  0  0  0  0  0  0  0  0  0  0  0
   -4.0976    2.6887   -3.5582 H   0  0  0  0  0  0  0  0  0  0  0  0
   -5.8111    2.8719   -3.1387 H   0  0  0  0  0  0  0  0  0  0  0  0
   -2.2466    1.5400   -1.4507 N   0  0  0  0  0  0  0  0  0  0  0  0
   -0.8424    1.5707   -1.1286 C   0  0  2  0  0  0  0  0  0  0  0  0
   -0.1811    2.7060   -1.9074 C   0  0  0  0  0  0  0  0  0  0  0  0
   -0.1018    3.8552   -1.4780 O   0  0  0  0  0  0  0  0  0  0  0  0
   -0.1661    0.2142   -1.3414 C   0  0  0  0  0  0  0  0  0  0  0  0
   -0.7707   -1.0834   -0.2352 S   0  0  0  0  0  0  0  0  0  0  0  0
   -2.5850    0.7815   -2.0381 H   0  0  0  0  0  0  0  0  0  0  0  0
   -0.7901    1.8259   -0.0628 H   0  0  0  0  0  0  0  0  0  0  0  0
   -0.3177   -0.1340   -2.3683 H   0  0  0  0  0  0  0  0  0  0  0  0
    0.9134    0.3060   -1.1797 H   0  0  0  0  0  0  0  0  0  0  0  0
    0.2865    2.2901   -3.1459 N   0  0  0  0  0  0  0  0  0  0  0  0
    0.9289    3.1874   -4.0775 C   0  0  2  0  0  0  0  0  0  0  0  0
    0.5914    2.7219   -5.4878 C   0  0  0  0  0  0  0  0  0  0  0  0
    0.4513    1.5380   -5.7878 O   0  0  0  0  0  0  0  0  0  0  0  0
    2.4340    3.2235   -3.8626 C   0  0  0  0  0  0  0  0  0  0  0  0
    0.2177    1.3098   -3.4029 H   0  0  0  0  0  0  0  0  0  0  0  0
    0.4992    4.1806   -3.9075 H   0  0  0  0  0  0  0  0  0  0  0  0
    2.8824    2.2372   -4.0285 H   0  0  0  0  0  0  0  0  0  0  0  0
    2.9163    3.9257   -4.5507 H   0  0  0  0  0  0  0  0  0  0  0  0
    2.6743    3.5299   -2.8388 H   0  0  0  0  0  0  0  0  0  0  0  0
    0.5076    3.7808   -6.3809 N   0  0  0  0  0  0  0  0  0  0  0  0
    0.2408    3.5947   -7.7881 C   0  0  0  0  0  0  0  0  0  0  0  0
    0.5980    4.7325   -6.0375 H   0  0  0  0  0  0  0  0  0  0  0  0
    1.1919    3.5190   -8.3353 H   0  0  0  0  0  0  0  0  0  0  0  0
   -0.3395    2.6713   -7.9321 H   0  0  0  0  0  0  0  0  0  0  0  0
   -0.3339    4.4520   -8.1687 H   0  0  0  0  0  0  0  0  0  0  0  0
  1  3  1  0  0  0  0
  1  7  1  0  0  0  0
  1  2  2  0  0  0  0
 23 25  1  0  0  0  0
 23 29  1  0  0  0  0
 23 24  2  0  0  0  0
 50 51  1  0  0  0  0
 51 59  1  0  0  0  0
 51 52  2  0  0  0  0
  8  9  1  0  0  0  0
  9 17  1  0  0  0  0
  9 10  2  0  0  0  0
 30 31  1  0  0  0  0
 31 39  1  0  0  0  0
 31 32  2  0  0  0  0
 40 41  1  0  0  0  0
 41 49  1  0  0  0  0
 41 42  2  0  0  0  0
 50 53  1  0  0  0  0
 30 33  1  0  0  0  0
 59 60  1  0  0  0  0
 17 18  1  0  0  0  0
  8 11  1  0  0  0  0
 11 12  1  0  0  0  0
 40 43  1  0  0  0  0
 43 44  1  0  0  0  0
 49 50  1  0  0  0  0
  7  8  1  0  0  0  0
 29 30  1  0  0  0  0
 39 40  1  0  0  0  0
 12 44  1  0  0  0  0
  3  4  1  0  0  0  0
  3  5  1  0  0  0  0
  3  6  1  0  0  0  0
 25 26  1  0  0  0  0
 25 27  1  0  0  0  0
 25 28  1  0  0  0  0
 53 56  1  0  0  0  0
 53 57  1  0  0  0  0
 53 58  1  0  0  0  0
 33 36  1  0  0  0  0
 33 37  1  0  0  0  0
 33 38  1  0  0  0  0
 60 62  1  0  0  0  0
 60 63  1  0  0  0  0
 60 64  1  0  0  0  0
 18 20  1  0  0  0  0
 18 21  1  0  0  0  0
 18 22  1  0  0  0  0
 11 15  1  0  0  0  0
 11 16  1  0  0  0  0
 43 47  1  0  0  0  0
 43 48  1  0  0  0  0
 50 55  1  0  0  0  0
  8 14  1  0  0  0  0
 30 35  1  0  0  0  0
 40 46  1  0  0  0  0
 59 61  1  0  0  0  0
 17 19  1  0  0  0  0
  7 13  1  0  0  0  0
 29 34  1  0  0  0  0
 49 54  1  0  0  0  0
 39 45  1  0  0  0  0
M  END
$$$$

  -OEChem-05262214473D

 64 63  0     1  0  0  0  0  0999 V2000
   -0.9544   -6.6737   -1.5709 C   0  0  0  0  0  0  0  0  0  0  0  0
   -2.0711   -6.7002   -2.0750 O   0  0  0  0  0  0  0  0  0  0  0  0
   -0.5755   -7.7110   -0.5665 C   0  0  0  0  0  0  0  0  0  0  0  0
   -0.8192   -7.4071    0.4643 H   0  0  0  0  0  0  0  0  0  0  0  0
   -1.1085   -8.6625   -0.7232 H   0  0  0  0  0  0  0  0  0  0  0  0
    0.4932   -7.9779   -0.5449 H   0  0  0  0  0  0  0  0  0  0  0  0
    0.0432   -5.7521   -1.8380 N   0  0  0  0  0  0  0  0  0  0  0  0
   -0.1108   -4.6690   -2.7759 C   0  0  2  0  0  0  0  0  0  0  0  0
    1.2276   -4.4204   -3.4684 C   0  0  0  0  0  0  0  0  0  0  0  0
    2.2647   -4.9977   -3.1481 O   0  0  0  0  0  0  0  0  0  0  0  0
   -0.7002   -3.4148   -2.1260 C   0  0  0  0  0  0  0  0  0  0  0  0
    0.3557   -2.6961   -0.8256 S   0  0  0  0  0  0  0  0  0  0  0  0
    0.9299   -5.8440   -1.3474 H   0  0  0  0  0  0  0  0  0  0  0  0
   -0.8135   -5.0344   -3.5351 H   0  0  0  0  0  0  0  0  0  0  0  0
   -0.8703   -2.6365   -2.8770 H   0  0  0  0  0  0  0  0  0  0  0  0
   -1.6676   -3.6506   -1.6696 H   0  0  0  0  0  0  0  0  0  0  0  0
    1.1318   -3.4616   -4.4670 N   0  0  0  0  0  0  0  0  0  0  0  0
    2.2685   -3.0355   -5.2494 C   0  0  0  0  0  0  0  0  0  0  0  0
    0.2245   -3.0660   -4.6948 H   0  0  0  0  0  0  0  0  0  0  0  0
    2.7273   -2.1528   -4.7799 H   0  0  0  0  0  0  0  0  0  0  0  0
    3.0062   -3.8499   -5.2978 H   0  0  0  0  0  0  0  0  0  0  0  0
    1.9379   -2.7792   -6.2667 H   0  0  0  0  0  0  0  0  0  0  0  0
   -6.7256    2.0330   -0.2766 C   0  0  0  0  0  0  0  0  0  0  0  0
   -7.1824    1.1039   -0.9322 O   0  0  0  0  0  0  0  0  0  0  0  0
   -7.5276    2.6077    0.8435 C   0  0  0  0  0  0  0  0  0  0  0  0
   -8.1775    3.4344    0.5145 H   0  0  0  0  0  0  0  0  0  0  0  0
   -8.2057    1.8676    1.2980 H   0  0  0  0  0  0  0  0  0  0  0  0
   -6.9411    3.0162    1.6819 H   0  0  0  0  0  0  0  0  0  0  0  0
   -5.4935    2.6382   -0.4627 N   0  0  0  0  0  0  0  0  0  0  0  0
   -4.5619    2.2388   -1.4845 C   0  0  2  0  0  0  0  0  0  0  0  0
   -3.1535    2.4674   -0.9521 C   0  0  0  0  0  0  0  0  0  0  0  0
   -2.8634    3.3945   -0.1987 O   0  0  0  0  0  0  0  0  0  0  0  0
   -4.7883    3.0138   -2.7732 C   0  0  0  0  0  0  0  0  0  0  0  0
   -5.2337    3.4049    0.1551 H   0  0  0  0  0  0  0  0  0  0  0  0
   -4.7192    1.1682   -1.6549 H   0  0  0  0  0  0  0  0  0  0  0  0
   -4.6352    4.0886   -2.6221 H   0  0  0  0  0  0  0  0  0  0  0  0
   -4.0976    2.6887   -3.5582 H   0  0  0  0  0  0  0  0  0  0  0  0
   -5.8111    2.8719   -3.1387 H   0  0  0  0  0  0  0  0  0  0  0  0
   -2.2466    1.5400   -1.4507 N   0  0  0  0  0  0  0  0  0  0  0  0
   -0.8424    1.5707   -1.1286 C   0  0  2  0  0  0  0  0  0  0  0  0
   -0.1811    2.7060   -1.9074 C   0  0  0  0  0  0  0  0  0  0  0  0
    0.1396    3.7744   -1.3907 O   0  0  0  0  0  0  0  0  0  0  0  0
   -0.1661    0.2142   -1.3414 C   0  0  0  0  0  0  0  0  0  0  0  0
   -0.7707   -1.0834   -0.2352 S   0  0  0  0  0  0  0  0  0  0  0  0
   -2.5850    0.7815   -2.0381 H   0  0  0  0  0  0  0  0  0  0  0  0
   -0.7901    1.8259   -0.0628 H   0  0  0  0  0  0  0  0  0  0  0  0
   -0.3177   -0.1340   -2.3683 H   0  0  0  0  0  0  0  0  0  0  0  0
    0.9134    0.3060   -1.1797 H   0  0  0  0  0  0  0  0  0  0  0  0
   -0.0148    2.3946   -3.2494 N   0  0  0  0  0  0  0  0  0  0  0  0
    0.5659    3.3170   -4.1969 C   0  0  2  0  0  0  0  0  0  0  0  0
   -0.0896    3.0756   -5.5503 C   0  0  0  0  0  0  0  0  0  0  0  0
   -0.4505    1.9643   -5.9322 O   0  0  0  0  0  0  0  0  0  0  0  0
    2.0741    3.1436   -4.2848 C   0  0  0  0  0  0  0  0  0  0  0  0
   -0.2694    1.4698   -3.5833 H   0  0  0  0  0  0  0  0  0  0  0  0
    0.3214    4.3258   -3.8468 H   0  0  0  0  0  0  0  0  0  0  0  0
    2.3384    2.1387   -4.6339 H   0  0  0  0  0  0  0  0  0  0  0  0
    2.5162    3.8627   -4.9822 H   0  0  0  0  0  0  0  0  0  0  0  0
    2.5408    3.2882   -3.3044 H   0  0  0  0  0  0  0  0  0  0  0  0
   -0.1847    4.2402   -6.2992 N   0  0  0  0  0  0  0  0  0  0  0  0
   -0.7310    4.2651   -7.6360 C   0  0  0  0  0  0  0  0  0  0  0  0
    0.1026    5.1235   -5.8882 H   0  0  0  0  0  0  0  0  0  0  0  0
    0.0819    4.1438   -8.3671 H   0  0  0  0  0  0  0  0  0  0  0  0
   -1.4538    3.4440   -7.7519 H   0  0  0  0  0  0  0  0  0  0  0  0
   -1.2375    5.2264   -7.8072 H   0  0  0  0  0  0  0  0  0  0  0  0
  1  3  1  0  0  0  0
  1  7  1  0  0  0  0
  1  2  2  0  0  0  0
 23 25  1  0  0  0  0
 23 29  1  0  0  0  0
 23 24  2  0  0  0  0
 50 51  1  0  0  0  0
 51 59  1  0  0  0  0
 51 52  2  0  0  0  0
  8  9  1  0  0  0  0
  9 17  1  0  0  0  0
  9 10  2  0  0  0  0
 30 31  1  0  0  0  0
 31 39  1  0  0  0  0
 31 32  2  0  0  0  0
 40 41  1  0  0  0  0
 41 49  1  0  0  0  0
 41 42  2  0  0  0  0
 50 53  1  0  0  0  0
 30 33  1  0  0  0  0
 59 60  1  0  0  0  0
 17 18  1  0  0  0  0
  8 11  1  0  0  0  0
 11 12  1  0  0  0  0
 40 43  1  0  0  0  0
 43 44  1  0  0  0  0
 49 50  1  0  0  0  0
  7  8  1  0  0  0  0
 29 30  1  0  0  0  0
 39 40  1  0  0  0  0
 12 44  1  0  0  0  0
  3  4  1  0  0  0  0
  3  5  1  0  0  0  0
  3  6  1  0  0  0  0
 25 26  1  0  0  0  0
 25 27  1  0  0  0  0
 25 28  1  0  0  0  0
 53 56  1  0  0  0  0
 53 57  1  0  0  0  0
 53 58  1  0  0  0  0
 33 36  1  0  0  0  0
 33 37  1  0  0  0  0
 33 38  1  0  0  0  0
 60 62  1  0  0  0  0
 60 63  1  0  0  0  0
 60 64  1  0  0  0  0
 18 20  1  0  0  0  0
 18 21  1  0  0  0  0
 18 22  1  0  0  0  0
 11 15  1  0  0  0  0
 11 16  1  0  0  0  0
 43 47  1  0  0  0  0
 43 48  1  0  0  0  0
 50 55  1  0  0  0  0
  8 14  1  0  0  0  0
 30 35  1  0  0  0  0
 40 46  1  0  0  0  0
 59 61  1  0  0  0  0
 17 19  1  0  0  0  0
  7 13  1  0  0  0  0
 29 34  1  0  0  0  0
 49 54  1  0  0  0  0
 39 45  1  0  0  0  0
M  END
$$$$

  -OEChem-05262214473D

 64 63  0     1  0  0  0  0  0999 V2000
   -0.9544   -6.6737   -1.5709 C   0  0  0  0  0  0  0  0  0  0  0  0
   -2.0711   -6.7002   -2.0750 O   0  0  0  0  0  0  0  0  0  0  0  0
   -0.5755   -7.7110   -0.5665 C   0  0  0  0  0  0  0  0  0  0  0  0
   -0.8192   -7.4071    0.4643 H   0  0  0  0  0  0  0  0  0  0  0  0
   -1.1085   -8.6625   -0.7232 H   0  0  0  0  0  0  0  0  0  0  0  0
    0.4932   -7.9779   -0.5449 H   0  0  0  0  0  0  0  0  0  0  0  0
    0.0432   -5.7521   -1.8380 N   0  0  0  0  0  0  0  0  0  0  0  0
   -0.1108   -4.6690   -2.7759 C   0  0  2  0  0  0  0  0  0  0  0  0
    1.2276   -4.4204   -3.4684 C   0  0  0  0  0  0  0  0  0  0  0  0
    2.2647   -4.9977   -3.1481 O   0  0  0  0  0  0  0  0  0  0  0  0
   -0.7002   -3.4148   -2.1260 C   0  0  0  0  0  0  0  0  0  0  0  0
    0.3557   -2.6961   -0.8256 S   0  0  0  0  0  0  0  0  0  0  0  0
    0.9299   -5.8440   -1.3474 H   0  0  0  0  0  0  0  0  0  0  0  0
   -0.8135   -5.0344   -3.5351 H   0  0  0  0  0  0  0  0  0  0  0  0
   -0.8703   -2.6365   -2.8770 H   0  0  0  0  0  0  0  0  0  0  0  0
   -1.6676   -3.6506   -1.6696 H   0  0  0  0  0  0  0  0  0  0  0  0
    1.1318   -3.4616   -4.4670 N   0  0  0  0  0  0  0  0  0  0  0  0
    2.2685   -3.0355   -5.2494 C   0  0  0  0  0  0  0  0  0  0  0  0
    0.2245   -3.0660   -4.6948 H   0  0  0  0  0  0  0  0  0  0  0  0
    2.7273   -2.1528   -4.7799 H   0  0  0  0  0  0  0  0  0  0  0  0
    3.0062   -3.8499   -5.2978 H   0  0  0  0  0  0  0  0  0  0  0  0
    1.9379   -2.7792   -6.2667 H   0  0  0  0  0  0  0  0  0  0  0  0
   -6.7256    2.0330   -0.2766 C   0  0  0  0  0  0  0  0  0  0  0  0
   -7.1824    1.1039   -0.9322 O   0  0  0  0  0  0  0  0  0  0  0  0
   -7.5276    2.6077    0.8435 C   0  0  0  0  0  0  0  0  0  0  0  0
   -8.1775    3.4344    0.5145 H   0  0  0  0  0  0  0  0  0  0  0  0
   -8.2057    1.8676    1.2980 H   0  0  0  0  0  0  0  0  0  0  0  0
   -6.9411    3.0162    1.6819 H   0  0  0  0  0  0  0  0  0  0  0  0
   -5.4935    2.6382   -0.4627 N   0  0  0  0  0  0  0  0  0  0  0  0
   -4.5619    2.2388   -1.4845 C   0  0  2  0  0  0  0  0  0  0  0  0
   -3.1535    2.4674   -0.9521 C   0  0  0  0  0  0  0  0  0  0  0  0
   -2.8634    3.3945   -0.1987 O   0  0  0  0  0  0  0  0  0  0  0  0
   -4.7883    3.0138   -2.7732 C   0  0  0  0  0  0  0  0  0  0  0  0
   -5.2337    3.4049    0.1551 H   0  0  0  0  0  0  0  0  0  0  0  0
   -4.7192    1.1682   -1.6549 H   0  0  0  0  0  0  0  0  0  0  0  0
   -4.6352    4.0886   -2.6221 H   0  0  0  0  0  0  0  0  0  0  0  0
   -4.0976    2.6887   -3.5582 H   0  0  0  0  0  0  0  0  0  0  0  0
   -5.8111    2.8719   -3.1387 H   0  0  0  0  0  0  0  0  0  0  0  0
   -2.2466    1.5400   -1.4507 N   0  0  0  0  0  0  0  0  0  0  0  0
   -0.8424    1.5707   -1.1286 C   0  0  2  0  0  0  0  0  0  0  0  0
   -0.1811    2.7060   -1.9074 C   0  0  0  0  0  0  0  0  0  0  0  0
    0.3790    3.6547   -1.3619 O   0  0  0  0  0  0  0  0  0  0  0  0
   -0.1661    0.2142   -1.3414 C   0  0  0  0  0  0  0  0  0  0  0  0
   -0.7707   -1.0834   -0.2352 S   0  0  0  0  0  0  0  0  0  0  0  0
   -2.5850    0.7815   -2.0381 H   0  0  0  0  0  0  0  0  0  0  0  0
   -0.7901    1.8259   -0.0628 H   0  0  0  0  0  0  0  0  0  0  0  0
   -0.3177   -0.1340   -2.3683 H   0  0  0  0  0  0  0  0  0  0  0  0
    0.9134    0.3060   -1.1797 H   0  0  0  0  0  0  0  0  0  0  0  0
   -0.3120    2.5470   -3.2797 N   0  0  0  0  0  0  0  0  0  0  0  0
    0.2093    3.5034   -4.2279 C   0  0  2  0  0  0  0  0  0  0  0  0
   -0.7127    3.5142   -5.4401 C   0  0  0  0  0  0  0  0  0  0  0  0
   -1.2931    2.5113   -5.8504 O   0  0  0  0  0  0  0  0  0  0  0  0
    1.6348    3.1611   -4.6323 C   0  0  0  0  0  0  0  0  0  0  0  0
   -0.7535    1.7087   -3.6460 H   0  0  0  0  0  0  0  0  0  0  0  0
    0.1805    4.4827   -3.7378 H   0  0  0  0  0  0  0  0  0  0  0  0
    1.6836    2.1833   -5.1251 H   0  0  0  0  0  0  0  0  0  0  0  0
    2.0385    3.9029   -5.3292 H   0  0  0  0  0  0  0  0  0  0  0  0
    2.2904    3.1246   -3.7556 H   0  0  0  0  0  0  0  0  0  0  0  0
   -0.7772    4.7662   -6.0356 N   0  0  0  0  0  0  0  0  0  0  0  0
   -1.5519    5.0238   -7.2270 C   0  0  0  0  0  0  0  0  0  0  0  0
   -0.2955    5.5498   -5.6048 H   0  0  0  0  0  0  0  0  0  0  0  0
   -0.9140    4.8974   -8.1143 H   0  0  0  0  0  0  0  0  0  0  0  0
   -2.3934    4.3172   -7.2770 H   0  0  0  0  0  0  0  0  0  0  0  0
   -1.9386    6.0532   -7.1973 H   0  0  0  0  0  0  0  0  0  0  0  0
  1  3  1  0  0  0  0
  1  7  1  0  0  0  0
  1  2  2  0  0  0  0
 23 25  1  0  0  0  0
 23 29  1  0  0  0  0
 23 24  2  0  0  0  0
 50 51  1  0  0  0  0
 51 59  1  0  0  0  0
 51 52  2  0  0  0  0
  8  9  1  0  0  0  0
  9 17  1  0  0  0  0
  9 10  2  0  0  0  0
 30 31  1  0  0  0  0
 31 39  1  0  0  0  0
 31 32  2  0  0  0  0
 40 41  1  0  0  0  0
 41 49  1  0  0  0  0
 41 42  2  0  0  0  0
 50 53  1  0  0  0  0
 30 33  1  0  0  0  0
 59 60  1  0  0  0  0
 17 18  1  0  0  0  0
  8 11  1  0  0  0  0
 11 12  1  0  0  0  0
 40 43  1  0  0  0  0
 43 44  1  0  0  0  0
 49 50  1  0  0  0  0
  7  8  1  0  0  0  0
 29 30  1  0  0  0  0
 39 40  1  0  0  0  0
 12 44  1  0  0  0  0
  3  4  1  0  0  0  0
  3  5  1  0  0  0  0
  3  6  1  0  0  0  0
 25 26  1  0  0  0  0
 25 27  1  0  0  0  0
 25 28  1  0  0  0  0
 53 56  1  0  0  0  0
 53 57  1  0  0  0  0
 53 58  1  0  0  0  0
 33 36  1  0  0  0  0
 33 37  1  0  0  0  0
 33 38  1  0  0  0  0
 60 62  1  0  0  0  0
 60 63  1  0  0  0  0
 60 64  1  0  0  0  0
 18 20  1  0  0  0  0
 18 21  1  0  0  0  0
 18 22  1  0  0  0  0
 11 15  1  0  0  0  0
 11 16  1  0  0  0  0
 43 47  1  0  0  0  0
 43 48  1  0  0  0  0
 50 55  1  0  0  0  0
  8 14  1  0  0  0  0
 30 35  1  0  0  0  0
 40 46  1  0  0  0  0
 59 61  1  0  0  0  0
 17 19  1  0  0  0  0
  7 13  1  0  0  0  0
 29 34  1  0  0  0  0
 49 54  1  0  0  0  0
 39 45  1  0  0  0  0
M  END
$$$$

  -OEChem-05262214473D

 64 63  0     1  0  0  0  0  0999 V2000
   -0.9544   -6.6737   -1.5709 C   0  0  0  0  0  0  0  0  0  0  0  0
   -2.0711   -6.7002   -2.0750 O   0  0  0  0  0  0  0  0  0  0  0  0
   -0.5755   -7.7110   -0.5665 C   0  0  0  0  0  0  0  0  0  0  0  0
   -0.8192   -7.4071    0.4643 H   0  0  0  0  0  0  0  0  0  0  0  0
   -1.1085   -8.6625   -0.7232 H   0  0  0  0  0  0  0  0  0  0  0  0
    0.4932   -7.9779   -0.5449 H   0  0  0  0  0  0  0  0  0  0  0  0
    0.0432   -5.7521   -1.8380 N   0  0  0  0  0  0  0  0  0  0  0  0
   -0.1108   -4.6690   -2.7759 C   0  0  2  0  0  0  0  0  0  0  0  0
    1.2276   -4.4204   -3.4684 C   0  0  0  0  0  0  0  0  0  0  0  0
    2.2647   -4.9977   -3.1481 O   0  0  0  0  0  0  0  0  0  0  0  0
   -0.7002   -3.4148   -2.1260 C   0  0  0  0  0  0  0  0  0  0  0  0
    0.3557   -2.6961   -0.8256 S   0  0  0  0  0  0  0  0  0  0  0  0
    0.9299   -5.8440   -1.3474 H   0  0  0  0  0  0  0  0  0  0  0  0
   -0.8135   -5.0344   -3.5351 H   0  0  0  0  0  0  0  0  0  0  0  0
   -0.8703   -2.6365   -2.8770 H   0  0  0  0  0  0  0  0  0  0  0  0
   -1.6676   -3.6506   -1.6696 H   0  0  0  0  0  0  0  0  0  0  0  0
    1.1318   -3.4616   -4.4670 N   0  0  0  0  0  0  0  0  0  0  0  0
    2.2685   -3.0355   -5.2494 C   0  0  0  0  0  0  0  0  0  0  0  0
    0.2245   -3.0660   -4.6948 H   0  0  0  0  0  0  0  0  0  0  0  0
    2.7273   -2.1528   -4.7799 H   0  0  0  0  0  0  0  0  0  0  0  0
    3.0062   -3.8499   -5.2978 H   0  0  0  0  0  0  0  0  0  0  0  0
    1.9379   -2.7792   -6.2667 H   0  0  0  0  0  0  0  0  0  0  0  0
   -6.7256    2.0330   -0.2766 C   0  0  0  0  0  0  0  0  0  0  0  0
   -7.1824    1.1039   -0.9322 O   0  0  0  0  0  0  0  0  0  0  0  0
   -7.5276    2.6077    0.8435 C   0  0  0  0  0  0  0  0  0  0  0  0
   -8.1775    3.4344    0.5145 H   0  0  0  0  0  0  0  0  0  0  0  0
   -8.2057    1.8676    1.2980 H   0  0  0  0  0  0  0  0  0  0  0  0
   -6.9411    3.0162    1.6819 H   0  0  0  0  0  0  0  0  0  0  0  0
   -5.4935    2.6382   -0.4627 N   0  0  0  0  0  0  0  0  0  0  0  0
   -4.5619    2.2388   -1.4845 C   0  0  2  0  0  0  0  0  0  0  0  0
   -3.1535    2.4674   -0.9521 C   0  0  0  0  0  0  0  0  0  0  0  0
   -2.8634    3.3945   -0.1987 O   0  0  0  0  0  0  0  0  0  0  0  0
   -4.7883    3.0138   -2.7732 C   0  0  0  0  0  0  0  0  0  0  0  0
   -5.2337    3.4049    0.1551 H   0  0  0  0  0  0  0  0  0  0  0  0
   -4.7192    1.1682   -1.6549 H   0  0  0  0  0  0  0  0  0  0  0  0
   -4.6352    4.0886   -2.6221 H   0  0  0  0  0  0  0  0  0  0  0  0
   -4.0976    2.6887   -3.5582 H   0  0  0  0  0  0  0  0  0  0  0  0
   -5.8111    2.8719   -3.1387 H   0  0  0  0  0  0  0  0  0  0  0  0
   -2.2466    1.5400   -1.4507 N   0  0  0  0  0  0  0  0  0  0  0  0
   -0.8424    1.5707   -1.1286 C   0  0  2  0  0  0  0  0  0  0  0  0
   -0.1811    2.7060   -1.9074 C   0  0  0  0  0  0  0  0  0  0  0  0
    0.5999    3.5043   -1.3936 O   0  0  0  0  0  0  0  0  0  0  0  0
   -0.1661    0.2142   -1.3414 C   0  0  0  0  0  0  0  0  0  0  0  0
   -0.7707   -1.0834   -0.2352 S   0  0  0  0  0  0  0  0  0  0  0  0
   -2.5850    0.7815   -2.0381 H   0  0  0  0  0  0  0  0  0  0  0  0
   -0.7901    1.8259   -0.0628 H   0  0  0  0  0  0  0  0  0  0  0  0
   -0.3177   -0.1340   -2.3683 H   0  0  0  0  0  0  0  0  0  0  0  0
    0.9134    0.3060   -1.1797 H   0  0  0  0  0  0  0  0  0  0  0  0
   -0.5848    2.7368   -3.2346 N   0  0  0  0  0  0  0  0  0  0  0  0
   -0.1165    3.7341   -4.1684 C   0  0  2  0  0  0  0  0  0  0  0  0
   -1.2355    4.0077   -5.1646 C   0  0  0  0  0  0  0  0  0  0  0  0
   -2.0190    3.1416   -5.5480 O   0  0  0  0  0  0  0  0  0  0  0  0
    1.1458    3.2750   -4.8814 C   0  0  0  0  0  0  0  0  0  0  0  0
   -1.2015    2.0105   -3.5866 H   0  0  0  0  0  0  0  0  0  0  0  0
    0.0861    4.6406   -3.5877 H   0  0  0  0  0  0  0  0  0  0  0  0
    0.9624    2.3677   -5.4685 H   0  0  0  0  0  0  0  0  0  0  0  0
    1.5156    4.0438   -5.5680 H   0  0  0  0  0  0  0  0  0  0  0  0
    1.9402    3.0501   -4.1616 H   0  0  0  0  0  0  0  0  0  0  0  0
   -1.2293    5.3228   -5.6081 N   0  0  0  0  0  0  0  0  0  0  0  0
   -2.1660    5.8192   -6.5891 C   0  0  0  0  0  0  0  0  0  0  0  0
   -0.5693    5.9824   -5.2067 H   0  0  0  0  0  0  0  0  0  0  0  0
   -1.7279    5.7284   -7.5940 H   0  0  0  0  0  0  0  0  0  0  0  0
   -3.0945    5.2315   -6.5396 H   0  0  0  0  0  0  0  0  0  0  0  0
   -2.3894    6.8759   -6.3807 H   0  0  0  0  0  0  0  0  0  0  0  0
  1  3  1  0  0  0  0
  1  7  1  0  0  0  0
  1  2  2  0  0  0  0
 23 25  1  0  0  0  0
 23 29  1  0  0  0  0
 23 24  2  0  0  0  0
 50 51  1  0  0  0  0
 51 59  1  0  0  0  0
 51 52  2  0  0  0  0
  8  9  1  0  0  0  0
  9 17  1  0  0  0  0
  9 10  2  0  0  0  0
 30 31  1  0  0  0  0
 31 39  1  0  0  0  0
 31 32  2  0  0  0  0
 40 41  1  0  0  0  0
 41 49  1  0  0  0  0
 41 42  2  0  0  0  0
 50 53  1  0  0  0  0
 30 33  1  0  0  0  0
 59 60  1  0  0  0  0
 17 18  1  0  0  0  0
  8 11  1  0  0  0  0
 11 12  1  0  0  0  0
 40 43  1  0  0  0  0
 43 44  1  0  0  0  0
 49 50  1  0  0  0  0
  7  8  1  0  0  0  0
 29 30  1  0  0  0  0
 39 40  1  0  0  0  0
 12 44  1  0  0  0  0
  3  4  1  0  0  0  0
  3  5  1  0  0  0  0
  3  6  1  0  0  0  0
 25 26  1  0  0  0  0
 25 27  1  0  0  0  0
 25 28  1  0  0  0  0
 53 56  1  0  0  0  0
 53 57  1  0  0  0  0
 53 58  1  0  0  0  0
 33 36  1  0  0  0  0
 33 37  1  0  0  0  0
 33 38  1  0  0  0  0
 60 62  1  0  0  0  0
 60 63  1  0  0  0  0
 60 64  1  0  0  0  0
 18 20  1  0  0  0  0
 18 21  1  0  0  0  0
 18 22  1  0  0  0  0
 11 15  1  0  0  0  0
 11 16  1  0  0  0  0
 43 47  1  0  0  0  0
 43 48  1  0  0  0  0
 50 55  1  0  0  0  0
  8 14  1  0  0  0  0
 30 35  1  0  0  0  0
 40 46  1  0  0  0  0
 59 61  1  0  0  0  0
 17 19  1  0  0  0  0
  7 13  1  0  0  0  0
 29 34  1  0  0  0  0
 49 54  1  0  0  0  0
 39 45  1  0  0  0  0
M  END
$$$$

  -OEChem-05262214473D

 64 63  0     1  0  0  0  0  0999 V2000
   -0.9544   -6.6737   -1.5709 C   0  0  0  0  0  0  0  0  0  0  0  0
   -2.0711   -6.7002   -2.0750 O   0  0  0  0  0  0  0  0  0  0  0  0
   -0.5755   -7.7110   -0.5665 C   0  0  0  0  0  0  0  0  0  0  0  0
   -0.8192   -7.4071    0.4643 H   0  0  0  0  0  0  0  0  0  0  0  0
   -1.1085   -8.6625   -0.7232 H   0  0  0  0  0  0  0  0  0  0  0  0
    0.4932   -7.9779   -0.5449 H   0  0  0  0  0  0  0  0  0  0  0  0
    0.0432   -5.7521   -1.8380 N   0  0  0  0  0  0  0  0  0  0  0  0
   -0.1108   -4.6690   -2.7759 C   0  0  2  0  0  0  0  0  0  0  0  0
    1.2276   -4.4204   -3.4684 C   0  0  0  0  0  0  0  0  0  0  0  0
    2.2647   -4.9977   -3.1481 O   0  0  0  0  0  0  0  0  0  0  0  0
   -0.7002   -3.4148   -2.1260 C   0  0  0  0  0  0  0  0  0  0  0  0
    0.3557   -2.6961   -0.8256 S   0  0  0  0  0  0  0  0  0  0  0  0
    0.9299   -5.8440   -1.3474 H   0  0  0  0  0  0  0  0  0  0  0  0
   -0.8135   -5.0344   -3.5351 H   0  0  0  0  0  0  0  0  0  0  0  0
   -0.8703   -2.6365   -2.8770 H   0  0  0  0  0  0  0  0  0  0  0  0
   -1.6676   -3.6506   -1.6696 H   0  0  0  0  0  0  0  0  0  0  0  0
    1.1318   -3.4616   -4.4670 N   0  0  0  0  0  0  0  0  0  0  0  0
    2.2685   -3.0355   -5.2494 C   0  0  0  0  0  0  0  0  0  0  0  0
    0.2245   -3.0660   -4.6948 H   0  0  0  0  0  0  0  0  0  0  0  0
    2.7273   -2.1528   -4.7799 H   0  0  0  0  0  0  0  0  0  0  0  0
    3.0062   -3.8499   -5.2978 H   0  0  0  0  0  0  0  0  0  0  0  0
    1.9379   -2.7792   -6.2667 H   0  0  0  0  0  0  0  0  0  0  0  0
   -6.7256    2.0330   -0.2766 C   0  0  0  0  0  0  0  0  0  0  0  0
   -7.1824    1.1039   -0.9322 O   0  0  0  0  0  0  0  0  0  0  0  0
   -7.5276    2.6077    0.8435 C   0  0  0  0  0  0  0  0  0  0  0  0
   -8.1775    3.4344    0.5145 H   0  0  0  0  0  0  0  0  0  0  0  0
   -8.2057    1.8676    1.2980 H   0  0  0  0  0  0  0  0  0  0  0  0
   -6.9411    3.0162    1.6819 H   0  0  0  0  0  0  0  0  0  0  0  0
   -5.4935    2.6382   -0.4627 N   0  0  0  0  0  0  0  0  0  0  0  0
   -4.5619    2.2388   -1.4845 C   0  0  2  0  0  0  0  0  0  0  0  0
   -3.1535    2.4674   -0.9521 C   0  0  0  0  0  0  0  0  0  0  0  0
   -2.8634    3.3945   -0.1987 O   0  0  0  0  0  0  0  0  0  0  0  0
   -4.7883    3.0138   -2.7732 C   0  0  0  0  0  0  0  0  0  0  0  0
   -5.2337    3.4049    0.1551 H   0  0  0  0  0  0  0  0  0  0  0  0
   -4.7192    1.1682   -1.6549 H   0  0  0  0  0  0  0  0  0  0  0  0
   -4.6352    4.0886   -2.6221 H   0  0  0  0  0  0  0  0  0  0  0  0
   -4.0976    2.6887   -3.5582 H   0  0  0  0  0  0  0  0  0  0  0  0
   -5.8111    2.8719   -3.1387 H   0  0  0  0  0  0  0  0  0  0  0  0
   -2.2466    1.5400   -1.4507 N   0  0  0  0  0  0  0  0  0  0  0  0
   -0.8424    1.5707   -1.1286 C   0  0  2  0  0  0  0  0  0  0  0  0
   -0.1811    2.7060   -1.9074 C   0  0  0  0  0  0  0  0  0  0  0  0
    0.7874    3.3334   -1.4835 O   0  0  0  0  0  0  0  0  0  0  0  0
   -0.1661    0.2142   -1.3414 C   0  0  0  0  0  0  0  0  0  0  0  0
   -0.7707   -1.0834   -0.2352 S   0  0  0  0  0  0  0  0  0  0  0  0
   -2.5850    0.7815   -2.0381 H   0  0  0  0  0  0  0  0  0  0  0  0
   -0.7901    1.8259   -0.0628 H   0  0  0  0  0  0  0  0  0  0  0  0
   -0.3177   -0.1340   -2.3683 H   0  0  0  0  0  0  0  0  0  0  0  0
    0.9134    0.3060   -1.1797 H   0  0  0  0  0  0  0  0  0  0  0  0
   -0.8146    2.9510   -3.1174 N   0  0  0  0  0  0  0  0  0  0  0  0
   -0.3893    3.9932   -4.0224 C   0  0  2  0  0  0  0  0  0  0  0  0
   -1.6223    4.5226   -4.7427 C   0  0  0  0  0  0  0  0  0  0  0  0
   -2.5789    3.8124   -5.0456 O   0  0  0  0  0  0  0  0  0  0  0  0
    0.6407    3.4775   -5.0153 C   0  0  0  0  0  0  0  0  0  0  0  0
   -1.5831    2.3545   -3.4092 H   0  0  0  0  0  0  0  0  0  0  0  0
    0.0446    4.7888   -3.4069 H   0  0  0  0  0  0  0  0  0  0  0  0
    0.2241    2.6796   -5.6409 H   0  0  0  0  0  0  0  0  0  0  0  0
    0.9832    4.2756   -5.6822 H   0  0  0  0  0  0  0  0  0  0  0  0
    1.5139    3.0699   -4.4946 H   0  0  0  0  0  0  0  0  0  0  0  0
   -1.5104    5.8723   -5.0458 N   0  0  0  0  0  0  0  0  0  0  0  0
   -2.5315    6.5971   -5.7655 C   0  0  0  0  0  0  0  0  0  0  0  0
   -0.7002    6.3918   -4.7211 H   0  0  0  0  0  0  0  0  0  0  0  0
   -2.3042    6.5802   -6.8417 H   0  0  0  0  0  0  0  0  0  0  0  0
   -3.5091    6.1245   -5.5900 H   0  0  0  0  0  0  0  0  0  0  0  0
   -2.5591    7.6387   -5.4130 H   0  0  0  0  0  0  0  0  0  0  0  0
  1  3  1  0  0  0  0
  1  7  1  0  0  0  0
  1  2  2  0  0  0  0
 23 25  1  0  0  0  0
 23 29  1  0  0  0  0
 23 24  2  0  0  0  0
 50 51  1  0  0  0  0
 51 59  1  0  0  0  0
 51 52  2  0  0  0  0
  8  9  1  0  0  0  0
  9 17  1  0  0  0  0
  9 10  2  0  0  0  0
 30 31  1  0  0  0  0
 31 39  1  0  0  0  0
 31 32  2  0  0  0  0
 40 41  1  0  0  0  0
 41 49  1  0  0  0  0
 41 42  2  0  0  0  0
 50 53  1  0  0  0  0
 30 33  1  0  0  0  0
 59 60  1  0  0  0  0
 17 18  1  0  0  0  0
  8 11  1  0  0  0  0
 11 12  1  0  0  0  0
 40 43  1  0  0  0  0
 43 44  1  0  0  0  0
 49 50  1  0  0  0  0
  7  8  1  0  0  0  0
 29 30  1  0  0  0  0
 39 40  1  0  0  0  0
 12 44  1  0  0  0  0
  3  4  1  0  0  0  0
  3  5  1  0  0  0  0
  3  6  1  0  0  0  0
 25 26  1  0  0  0  0
 25 27  1  0  0  0  0
 25 28  1  0  0  0  0
 53 56  1  0  0  0  0
 53 57  1  0  0  0  0
 53 58  1  0  0  0  0
 33 36  1  0  0  0  0
 33 37  1  0  0  0  0
 33 38  1  0  0  0  0
 60 62  1  0  0  0  0
 60 63  1  0  0  0  0
 60 64  1  0  0  0  0
 18 20  1  0  0  0  0
 18 21  1  0  0  0  0
 18 22  1  0  0  0  0
 11 15  1  0  0  0  0
 11 16  1  0  0  0  0
 43 47  1  0  0  0  0
 43 48  1  0  0  0  0
 50 55  1  0  0  0  0
  8 14  1  0  0  0  0
 30 35  1  0  0  0  0
 40 46  1  0  0  0  0
 59 61  1  0  0  0  0
 17 19  1  0  0  0  0
  7 13  1  0  0  0  0
 29 34  1  0  0  0  0
 49 54  1  0  0  0  0
 39 45  1  0  0  0  0
M  END
$$$$

  -OEChem-05262214473D

 64 63  0     1  0  0  0  0  0999 V2000
   -0.9544   -6.6737   -1.5709 C   0  0  0  0  0  0  0  0  0  0  0  0
   -2.0711   -6.7002   -2.0750 O   0  0  0  0  0  0  0  0  0  0  0  0
   -0.5755   -7.7110   -0.5665 C   0  0  0  0  0  0  0  0  0  0  0  0
   -0.8192   -7.4071    0.4643 H   0  0  0  0  0  0  0  0  0  0  0  0
   -1.1085   -8.6625   -0.7232 H   0  0  0  0  0  0  0  0  0  0  0  0
    0.4932   -7.9779   -0.5449 H   0  0  0  0  0  0  0  0  0  0  0  0
    0.0432   -5.7521   -1.8380 N   0  0  0  0  0  0  0  0  0  0  0  0
   -0.1108   -4.6690   -2.7759 C   0  0  2  0  0  0  0  0  0  0  0  0
    1.2276   -4.4204   -3.4684 C   0  0  0  0  0  0  0  0  0  0  0  0
    2.2647   -4.9977   -3.1481 O   0  0  0  0  0  0  0  0  0  0  0  0
   -0.7002   -3.4148   -2.1260 C   0  0  0  0  0  0  0  0  0  0  0  0
    0.3557   -2.6961   -0.8256 S   0  0  0  0  0  0  0  0  0  0  0  0
    0.9299   -5.8440   -1.3474 H   0  0  0  0  0  0  0  0  0  0  0  0
   -0.8135   -5.0344   -3.5351 H   0  0  0  0  0  0  0  0  0  0  0  0
   -0.8703   -2.6365   -2.8770 H   0  0  0  0  0  0  0  0  0  0  0  0
   -1.6676   -3.6506   -1.6696 H   0  0  0  0  0  0  0  0  0  0  0  0
    1.1318   -3.4616   -4.4670 N   0  0  0  0  0  0  0  0  0  0  0  0
    2.2685   -3.0355   -5.2494 C   0  0  0  0  0  0  0  0  0  0  0  0
    0.2245   -3.0660   -4.6948 H   0  0  0  0  0  0  0  0  0  0  0  0
    2.7273   -2.1528   -4.7799 H   0  0  0  0  0  0  0  0  0  0  0  0
    3.0062   -3.8499   -5.2978 H   0  0  0  0  0  0  0  0  0  0  0  0
    1.9379   -2.7792   -6.2667 H   0  0  0  0  0  0  0  0  0  0  0  0
   -6.7256    2.0330   -0.2766 C   0  0  0  0  0  0  0  0  0  0  0  0
   -7.1824    1.1039   -0.9322 O   0  0  0  0  0  0  0  0  0  0  0  0
   -7.5276    2.6077    0.8435 C   0  0  0  0  0  0  0  0  0  0  0  0
   -8.1775    3.4344    0.5145 H   0  0  0  0  0  0  0  0  0  0  0  0
   -8.2057    1.8676    1.2980 H   0  0  0  0  0  0  0  0  0  0  0  0
   -6.9411    3.0162    1.6819 H   0  0  0  0  0  0  0  0  0  0  0  0
   -5.4935    2.6382   -0.4627 N   0  0  0  0  0  0  0  0  0  0  0  0
   -4.5619    2.2388   -1.4845 C   0  0  2  0  0  0  0  0  0  0  0  0
   -3.1535    2.4674   -0.9521 C   0  0  0  0  0  0  0  0  0  0  0  0
   -2.8634    3.3945   -0.1987 O   0  0  0  0  0  0  0  0  0  0  0  0
   -4.7883    3.0138   -2.7732 C   0  0  0  0  0  0  0  0  0  0  0  0
   -5.2337    3.4049    0.1551 H   0  0  0  0  0  0  0  0  0  0  0  0
   -4.7192    1.1682   -1.6549 H   0  0  0  0  0  0  0  0  0  0  0  0
   -4.6352    4.0886   -2.6221 H   0  0  0  0  0  0  0  0  0  0  0  0
   -4.0976    2.6887   -3.5582 H   0  0  0  0  0  0  0  0  0  0  0  0
   -5.8111    2.8719   -3.1387 H   0  0  0  0  0  0  0  0  0  0  0  0
   -2.2466    1.5400   -1.4507 N   0  0  0  0  0  0  0  0  0  0  0  0
   -0.8424    1.5707   -1.1286 C   0  0  2  0  0  0  0  0  0  0  0  0
   -0.1811    2.7060   -1.9074 C   0  0  0  0  0  0  0  0  0  0  0  0
    0.9286    3.1537   -1.6256 O   0  0  0  0  0  0  0  0  0  0  0  0
   -0.1661    0.2142   -1.3414 C   0  0  0  0  0  0  0  0  0  0  0  0
   -0.7707   -1.0834   -0.2352 S   0  0  0  0  0  0  0  0  0  0  0  0
   -2.5850    0.7815   -2.0381 H   0  0  0  0  0  0  0  0  0  0  0  0
   -0.7901    1.8259   -0.0628 H   0  0  0  0  0  0  0  0  0  0  0  0
   -0.3177   -0.1340   -2.3683 H   0  0  0  0  0  0  0  0  0  0  0  0
    0.9134    0.3060   -1.1797 H   0  0  0  0  0  0  0  0  0  0  0  0
   -0.9857    3.1752   -2.9360 N   0  0  0  0  0  0  0  0  0  0  0  0
   -0.5905    4.2631   -3.7998 C   0  0  2  0  0  0  0  0  0  0  0  0
   -1.8469    5.0237   -4.2029 C   0  0  0  0  0  0  0  0  0  0  0  0
   -2.9344    4.4779   -4.3774 O   0  0  0  0  0  0  0  0  0  0  0  0
    0.1537    3.7547   -5.0247 C   0  0  0  0  0  0  0  0  0  0  0  0
   -1.8722    2.7172   -3.1259 H   0  0  0  0  0  0  0  0  0  0  0  0
    0.0589    4.9171   -3.2077 H   0  0  0  0  0  0  0  0  0  0  0  0
   -0.4811    3.0976   -5.6303 H   0  0  0  0  0  0  0  0  0  0  0  0
    0.4775    4.5825   -5.6641 H   0  0  0  0  0  0  0  0  0  0  0  0
    1.0408    3.1826   -4.7322 H   0  0  0  0  0  0  0  0  0  0  0  0
   -1.6011    6.3771   -4.3870 N   0  0  0  0  0  0  0  0  0  0  0  0
   -2.6234    7.3044   -4.8126 C   0  0  0  0  0  0  0  0  0  0  0  0
   -0.6791    6.7501   -4.1809 H   0  0  0  0  0  0  0  0  0  0  0  0
   -2.6038    7.3948   -5.9087 H   0  0  0  0  0  0  0  0  0  0  0  0
   -3.6091    6.9353   -4.4929 H   0  0  0  0  0  0  0  0  0  0  0  0
   -2.4362    8.2894   -4.3601 H   0  0  0  0  0  0  0  0  0  0  0  0
  1  3  1  0  0  0  0
  1  7  1  0  0  0  0
  1  2  2  0  0  0  0
 23 25  1  0  0  0  0
 23 29  1  0  0  0  0
 23 24  2  0  0  0  0
 50 51  1  0  0  0  0
 51 59  1  0  0  0  0
 51 52  2  0  0  0  0
  8  9  1  0  0  0  0
  9 17  1  0  0  0  0
  9 10  2  0  0  0  0
 30 31  1  0  0  0  0
 31 39  1  0  0  0  0
 31 32  2  0  0  0  0
 40 41  1  0  0  0  0
 41 49  1  0  0  0  0
 41 42  2  0  0  0  0
 50 53  1  0  0  0  0
 30 33  1  0  0  0  0
 59 60  1  0  0  0  0
 17 18  1  0  0  0  0
  8 11  1  0  0  0  0
 11 12  1  0  0  0  0
 40 43  1  0  0  0  0
 43 44  1  0  0  0  0
 49 50  1  0  0  0  0
  7  8  1  0  0  0  0
 29 30  1  0  0  0  0
 39 40  1  0  0  0  0
 12 44  1  0  0  0  0
  3  4  1  0  0  0  0
  3  5  1  0  0  0  0
  3  6  1  0  0  0  0
 25 26  1  0  0  0  0
 25 27  1  0  0  0  0
 25 28  1  0  0  0  0
 53 56  1  0  0  0  0
 53 57  1  0  0  0  0
 53 58  1  0  0  0  0
 33 36  1  0  0  0  0
 33 37  1  0  0  0  0
 33 38  1  0  0  0  0
 60 62  1  0  0  0  0
 60 63  1  0  0  0  0
 60 64  1  0  0  0  0
 18 20  1  0  0  0  0
 18 21  1  0  0  0  0
 18 22  1  0  0  0  0
 11 15  1  0  0  0  0
 11 16  1  0  0  0  0
 43 47  1  0  0  0  0
 43 48  1  0  0  0  0
 50 55  1  0  0  0  0
  8 14  1  0  0  0  0
 30 35  1  0  0  0  0
 40 46  1  0  0  0  0
 59 61  1  0  0  0  0
 17 19  1  0  0  0  0
  7 13  1  0  0  0  0
 29 34  1  0  0  0  0
 49 54  1  0  0  0  0
 39 45  1  0  0  0  0
M  END
$$$$

  -OEChem-05262214473D

 64 63  0     1  0  0  0  0  0999 V2000
   -0.9544   -6.6737   -1.5709 C   0  0  0  0  0  0  0  0  0  0  0  0
   -2.0711   -6.7002   -2.0750 O   0  0  0  0  0  0  0  0  0  0  0  0
   -0.5755   -7.7110   -0.5665 C   0  0  0  0  0  0  0  0  0  0  0  0
   -0.8192   -7.4071    0.4643 H   0  0  0  0  0  0  0  0  0  0  0  0
   -1.1085   -8.6625   -0.7232 H   0  0  0  0  0  0  0  0  0  0  0  0
    0.4932   -7.9779   -0.5449 H   0  0  0  0  0  0  0  0  0  0  0  0
    0.0432   -5.7521   -1.8380 N   0  0  0  0  0  0  0  0  0  0  0  0
   -0.1108   -4.6690   -2.7759 C   0  0  2  0  0  0  0  0  0  0  0  0
    1.2276   -4.4204   -3.4684 C   0  0  0  0  0  0  0  0  0  0  0  0
    2.2647   -4.9977   -3.1481 O   0  0  0  0  0  0  0  0  0  0  0  0
   -0.7002   -3.4148   -2.1260 C   0  0  0  0  0  0  0  0  0  0  0  0
    0.3557   -2.6961   -0.8256 S   0  0  0  0  0  0  0  0  0  0  0  0
    0.9299   -5.8440   -1.3474 H   0  0  0  0  0  0  0  0  0  0  0  0
   -0.8135   -5.0344   -3.5351 H   0  0  0  0  0  0  0  0  0  0  0  0
   -0.8703   -2.6365   -2.8770 H   0  0  0  0  0  0  0  0  0  0  0  0
   -1.6676   -3.6506   -1.6696 H   0  0  0  0  0  0  0  0  0  0  0  0
    1.1318   -3.4616   -4.4670 N   0  0  0  0  0  0  0  0  0  0  0  0
    2.2685   -3.0355   -5.2494 C   0  0  0  0  0  0  0  0  0  0  0  0
    0.2245   -3.0660   -4.6948 H   0  0  0  0  0  0  0  0  0  0  0  0
    2.7273   -2.1528   -4.7799 H   0  0  0  0  0  0  0  0  0  0  0  0
    3.0062   -3.8499   -5.2978 H   0  0  0  0  0  0  0  0  0  0  0  0
    1.9379   -2.7792   -6.2667 H   0  0  0  0  0  0  0  0  0  0  0  0
   -6.7256    2.0330   -0.2766 C   0  0  0  0  0  0  0  0  0  0  0  0
   -7.1824    1.1039   -0.9322 O   0  0  0  0  0  0  0  0  0  0  0  0
   -7.5276    2.6077    0.8435 C   0  0  0  0  0  0  0  0  0  0  0  0
   -8.1775    3.4344    0.5145 H   0  0  0  0  0  0  0  0  0  0  0  0
   -8.2057    1.8676    1.2980 H   0  0  0  0  0  0  0  0  0  0  0  0
   -6.9411    3.0162    1.6819 H   0  0  0  0  0  0  0  0  0  0  0  0
   -5.4935    2.6382   -0.4627 N   0  0  0  0  0  0  0  0  0  0  0  0
   -4.5619    2.2388   -1.4845 C   0  0  2  0  0  0  0  0  0  0  0  0
   -3.1535    2.4674   -0.9521 C   0  0  0  0  0  0  0  0  0  0  0  0
   -2.8634    3.3945   -0.1987 O   0  0  0  0  0  0  0  0  0  0  0  0
   -4.7883    3.0138   -2.7732 C   0  0  0  0  0  0  0  0  0  0  0  0
   -5.2337    3.4049    0.1551 H   0  0  0  0  0  0  0  0  0  0  0  0
   -4.7192    1.1682   -1.6549 H   0  0  0  0  0  0  0  0  0  0  0  0
   -4.6352    4.0886   -2.6221 H   0  0  0  0  0  0  0  0  0  0  0  0
   -4.0976    2.6887   -3.5582 H   0  0  0  0  0  0  0  0  0  0  0  0
   -5.8111    2.8719   -3.1387 H   0  0  0  0  0  0  0  0  0  0  0  0
   -2.2466    1.5400   -1.4507 N   0  0  0  0  0  0  0  0  0  0  0  0
   -0.8424    1.5707   -1.1286 C   0  0  2  0  0  0  0  0  0  0  0  0
   -0.1811    2.7060   -1.9074 C   0  0  0  0  0  0  0  0  0  0  0  0
    1.0140    2.9773   -1.8101 O   0  0  0  0  0  0  0  0  0  0  0  0
   -0.1661    0.2142   -1.3414 C   0  0  0  0  0  0  0  0  0  0  0  0
   -0.7707   -1.0834   -0.2352 S   0  0  0  0  0  0  0  0  0  0  0  0
   -2.5850    0.7815   -2.0381 H   0  0  0  0  0  0  0  0  0  0  0  0
   -0.7901    1.8259   -0.0628 H   0  0  0  0  0  0  0  0  0  0  0  0
   -0.3177   -0.1340   -2.3683 H   0  0  0  0  0  0  0  0  0  0  0  0
    0.9134    0.3060   -1.1797 H   0  0  0  0  0  0  0  0  0  0  0  0
   -1.0865    3.3939   -2.7027 N   0  0  0  0  0  0  0  0  0  0  0  0
   -0.7065    4.5254   -3.5158 C   0  0  2  0  0  0  0  0  0  0  0  0
   -1.8938    5.4768   -3.5823 C   0  0  0  0  0  0  0  0  0  0  0  0
   -3.0615    5.0928   -3.5891 O   0  0  0  0  0  0  0  0  0  0  0  0
   -0.2819    4.0878   -4.9090 C   0  0  0  0  0  0  0  0  0  0  0  0
   -2.0490    3.0740   -2.7560 H   0  0  0  0  0  0  0  0  0  0  0  0
    0.1279    5.0169   -3.0037 H   0  0  0  0  0  0  0  0  0  0  0  0
   -1.1050    3.5932   -5.4377 H   0  0  0  0  0  0  0  0  0  0  0  0
    0.0330    4.9438   -5.5150 H   0  0  0  0  0  0  0  0  0  0  0  0
    0.5529    3.3805   -4.8579 H   0  0  0  0  0  0  0  0  0  0  0  0
   -1.4954    6.8029   -3.6766 N   0  0  0  0  0  0  0  0  0  0  0  0
   -2.4355    7.8929   -3.7952 C   0  0  0  0  0  0  0  0  0  0  0  0
   -0.5075    7.0328   -3.6230 H   0  0  0  0  0  0  0  0  0  0  0  0
   -2.6061    8.1166   -4.8586 H   0  0  0  0  0  0  0  0  0  0  0  0
   -3.3876    7.6088   -3.3231 H   0  0  0  0  0  0  0  0  0  0  0  0
   -2.0291    8.7837   -3.2939 H   0  0  0  0  0  0  0  0  0  0  0  0
  1  3  1  0  0  0  0
  1  7  1  0  0  0  0
  1  2  2  0  0  0  0
 23 25  1  0  0  0  0
 23 29  1  0  0  0  0
 23 24  2  0  0  0  0
 50 51  1  0  0  0  0
 51 59  1  0  0  0  0
 51 52  2  0  0  0  0
  8  9  1  0  0  0  0
  9 17  1  0  0  0  0
  9 10  2  0  0  0  0
 30 31  1  0  0  0  0
 31 39  1  0  0  0  0
 31 32  2  0  0  0  0
 40 41  1  0  0  0  0
 41 49  1  0  0  0  0
 41 42  2  0  0  0  0
 50 53  1  0  0  0  0
 30 33  1  0  0  0  0
 59 60  1  0  0  0  0
 17 18  1  0  0  0  0
  8 11  1  0  0  0  0
 11 12  1  0  0  0  0
 40 43  1  0  0  0  0
 43 44  1  0  0  0  0
 49 50  1  0  0  0  0
  7  8  1  0  0  0  0
 29 30  1  0  0  0  0
 39 40  1  0  0  0  0
 12 44  1  0  0  0  0
  3  4  1  0  0  0  0
  3  5  1  0  0  0  0
  3  6  1  0  0  0  0
 25 26  1  0  0  0  0
 25 27  1  0  0  0  0
 25 28  1  0  0  0  0
 53 56  1  0  0  0  0
 53 57  1  0  0  0  0
 53 58  1  0  0  0  0
 33 36  1  0  0  0  0
 33 37  1  0  0  0  0
 33 38  1  0  0  0  0
 60 62  1  0  0  0  0
 60 63  1  0  0  0  0
 60 64  1  0  0  0  0
 18 20  1  0  0  0  0
 18 21  1  0  0  0  0
 18 22  1  0  0  0  0
 11 15  1  0  0  0  0
 11 16  1  0  0  0  0
 43 47  1  0  0  0  0
 43 48  1  0  0  0  0
 50 55  1  0  0  0  0
  8 14  1  0  0  0  0
 30 35  1  0  0  0  0
 40 46  1  0  0  0  0
 59 61  1  0  0  0  0
 17 19  1  0  0  0  0
  7 13  1  0  0  0  0
 29 34  1  0  0  0  0
 49 54  1  0  0  0  0
 39 45  1  0  0  0  0
M  END
$$$$

  -OEChem-05262214473D

 64 63  0     1  0  0  0  0  0999 V2000
   -0.9544   -6.6737   -1.5709 C   0  0  0  0  0  0  0  0  0  0  0  0
   -2.0711   -6.7002   -2.0750 O   0  0  0  0  0  0  0  0  0  0  0  0
   -0.5755   -7.7110   -0.5665 C   0  0  0  0  0  0  0  0  0  0  0  0
   -0.8192   -7.4071    0.4643 H   0  0  0  0  0  0  0  0  0  0  0  0
   -1.1085   -8.6625   -0.7232 H   0  0  0  0  0  0  0  0  0  0  0  0
    0.4932   -7.9779   -0.5449 H   0  0  0  0  0  0  0  0  0  0  0  0
    0.0432   -5.7521   -1.8380 N   0  0  0  0  0  0  0  0  0  0  0  0
   -0.1108   -4.6690   -2.7759 C   0  0  2  0  0  0  0  0  0  0  0  0
    1.2276   -4.4204   -3.4684 C   0  0  0  0  0  0  0  0  0  0  0  0
    2.2647   -4.9977   -3.1481 O   0  0  0  0  0  0  0  0  0  0  0  0
   -0.7002   -3.4148   -2.1260 C   0  0  0  0  0  0  0  0  0  0  0  0
    0.3557   -2.6961   -0.8256 S   0  0  0  0  0  0  0  0  0  0  0  0
    0.9299   -5.8440   -1.3474 H   0  0  0  0  0  0  0  0  0  0  0  0
   -0.8135   -5.0344   -3.5351 H   0  0  0  0  0  0  0  0  0  0  0  0
   -0.8703   -2.6365   -2.8770 H   0  0  0  0  0  0  0  0  0  0  0  0
   -1.6676   -3.6506   -1.6696 H   0  0  0  0  0  0  0  0  0  0  0  0
    1.1318   -3.4616   -4.4670 N   0  0  0  0  0  0  0  0  0  0  0  0
    2.2685   -3.0355   -5.2494 C   0  0  0  0  0  0  0  0  0  0  0  0
    0.2245   -3.0660   -4.6948 H   0  0  0  0  0  0  0  0  0  0  0  0
    2.7273   -2.1528   -4.7799 H   0  0  0  0  0  0  0  0  0  0  0  0
    3.0062   -3.8499   -5.2978 H   0  0  0  0  0  0  0  0  0  0  0  0
    1.9379   -2.7792   -6.2667 H   0  0  0  0  0  0  0  0  0  0  0  0
   -6.7256    2.0330   -0.2766 C   0  0  0  0  0  0  0  0  0  0  0  0
   -7.1824    1.1039   -0.9322 O   0  0  0  0  0  0  0  0  0  0  0  0
   -7.5276    2.6077    0.8435 C   0  0  0  0  0  0  0  0  0  0  0  0
   -8.1775    3.4344    0.5145 H   0  0  0  0  0  0  0  0  0  0  0  0
   -8.2057    1.8676    1.2980 H   0  0  0  0  0  0  0  0  0  0  0  0
   -6.9411    3.0162    1.6819 H   0  0  0  0  0  0  0  0  0  0  0  0
   -5.4935    2.6382   -0.4627 N   0  0  0  0  0  0  0  0  0  0  0  0
   -4.5619    2.2388   -1.4845 C   0  0  2  0  0  0  0  0  0  0  0  0
   -3.1535    2.4674   -0.9521 C   0  0  0  0  0  0  0  0  0  0  0  0
   -2.8634    3.3945   -0.1987 O   0  0  0  0  0  0  0  0  0  0  0  0
   -4.7883    3.0138   -2.7732 C   0  0  0  0  0  0  0  0  0  0  0  0
   -5.2337    3.4049    0.1551 H   0  0  0  0  0  0  0  0  0  0  0  0
   -4.7192    1.1682   -1.6549 H   0  0  0  0  0  0  0  0  0  0  0  0
   -4.6352    4.0886   -2.6221 H   0  0  0  0  0  0  0  0  0  0  0  0
   -4.0976    2.6887   -3.5582 H   0  0  0  0  0  0  0  0  0  0  0  0
   -5.8111    2.8719   -3.1387 H   0  0  0  0  0  0  0  0  0  0  0  0
   -2.2466    1.5400   -1.4507 N   0  0  0  0  0  0  0  0  0  0  0  0
   -0.8424    1.5707   -1.1286 C   0  0  2  0  0  0  0  0  0  0  0  0
   -0.1811    2.7060   -1.9074 C   0  0  0  0  0  0  0  0  0  0  0  0
    1.0377    2.8164   -2.0246 O   0  0  0  0  0  0  0  0  0  0  0  0
   -0.1661    0.2142   -1.3414 C   0  0  0  0  0  0  0  0  0  0  0  0
   -0.7707   -1.0834   -0.2352 S   0  0  0  0  0  0  0  0  0  0  0  0
   -2.5850    0.7815   -2.0381 H   0  0  0  0  0  0  0  0  0  0  0  0
   -0.7901    1.8259   -0.0628 H   0  0  0  0  0  0  0  0  0  0  0  0
   -0.3177   -0.1340   -2.3683 H   0  0  0  0  0  0  0  0  0  0  0  0
    0.9134    0.3060   -1.1797 H   0  0  0  0  0  0  0  0  0  0  0  0
   -1.1101    3.5924   -2.4334 N   0  0  0  0  0  0  0  0  0  0  0  0
   -0.7292    4.7622   -3.1899 C   0  0  2  0  0  0  0  0  0  0  0  0
   -1.7600    5.8511   -2.9229 C   0  0  0  0  0  0  0  0  0  0  0  0
   -2.9515    5.6151   -2.7342 O   0  0  0  0  0  0  0  0  0  0  0  0
   -0.6365    4.4541   -4.6762 C   0  0  0  0  0  0  0  0  0  0  0  0
   -2.1016    3.4005   -2.3248 H   0  0  0  0  0  0  0  0  0  0  0  0
    0.2470    5.0813   -2.8087 H   0  0  0  0  0  0  0  0  0  0  0  0
   -1.6052    4.1327   -5.0760 H   0  0  0  0  0  0  0  0  0  0  0  0
   -0.3199    5.3346   -5.2449 H   0  0  0  0  0  0  0  0  0  0  0  0
    0.0835    3.6502   -4.8634 H   0  0  0  0  0  0  0  0  0  0  0  0
   -1.2004    7.1206   -2.9630 N   0  0  0  0  0  0  0  0  0  0  0  0
   -1.9807    8.3225   -2.7826 C   0  0  0  0  0  0  0  0  0  0  0  0
   -0.1971    7.2208   -3.0855 H   0  0  0  0  0  0  0  0  0  0  0  0
   -2.3111    8.6964   -3.7629 H   0  0  0  0  0  0  0  0  0  0  0  0
   -2.8597    8.0990   -2.1602 H   0  0  0  0  0  0  0  0  0  0  0  0
   -1.3655    9.0879   -2.2869 H   0  0  0  0  0  0  0  0  0  0  0  0
  1  3  1  0  0  0  0
  1  7  1  0  0  0  0
  1  2  2  0  0  0  0
 23 25  1  0  0  0  0
 23 29  1  0  0  0  0
 23 24  2  0  0  0  0
 50 51  1  0  0  0  0
 51 59  1  0  0  0  0
 51 52  2  0  0  0  0
  8  9  1  0  0  0  0
  9 17  1  0  0  0  0
  9 10  2  0  0  0  0
 30 31  1  0  0  0  0
 31 39  1  0  0  0  0
 31 32  2  0  0  0  0
 40 41  1  0  0  0  0
 41 49  1  0  0  0  0
 41 42  2  0  0  0  0
 50 53  1  0  0  0  0
 30 33  1  0  0  0  0
 59 60  1  0  0  0  0
 17 18  1  0  0  0  0
  8 11  1  0  0  0  0
 11 12  1  0  0  0  0
 40 43  1  0  0  0  0
 43 44  1  0  0  0  0
 49 50  1  0  0  0  0
  7  8  1  0  0  0  0
 29 30  1  0  0  0  0
 39 40  1  0  0  0  0
 12 44  1  0  0  0  0
  3  4  1  0  0  0  0
  3  5  1  0  0  0  0
  3  6  1  0  0  0  0
 25 26  1  0  0  0  0
 25 27  1  0  0  0  0
 25 28  1  0  0  0  0
 53 56  1  0  0  0  0
 53 57  1  0  0  0  0
 53 58  1  0  0  0  0
 33 36  1  0  0  0  0
 33 37  1  0  0  0  0
 33 38  1  0  0  0  0
 60 62  1  0  0  0  0
 60 63  1  0  0  0  0
 60 64  1  0  0  0  0
 18 20  1  0  0  0  0
 18 21  1  0  0  0  0
 18 22  1  0  0  0  0
 11 15  1  0  0  0  0
 11 16  1  0  0  0  0
 43 47  1  0  0  0  0
 43 48  1  0  0  0  0
 50 55  1  0  0  0  0
  8 14  1  0  0  0  0
 30 35  1  0  0  0  0
 40 46  1  0  0  0  0
 59 61  1  0  0  0  0
 17 19  1  0  0  0  0
  7 13  1  0  0  0  0
 29 34  1  0  0  0  0
 49 54  1  0  0  0  0
 39 45  1  0  0  0  0
M  END
$$$$

  -OEChem-05262214473D

 64 63  0     1  0  0  0  0  0999 V2000
   -0.9544   -6.6737   -1.5709 C   0  0  0  0  0  0  0  0  0  0  0  0
   -2.0711   -6.7002   -2.0750 O   0  0  0  0  0  0  0  0  0  0  0  0
   -0.5755   -7.7110   -0.5665 C   0  0  0  0  0  0  0  0  0  0  0  0
   -0.8192   -7.4071    0.4643 H   0  0  0  0  0  0  0  0  0  0  0  0
   -1.1085   -8.6625   -0.7232 H   0  0  0  0  0  0  0  0  0  0  0  0
    0.4932   -7.9779   -0.5449 H   0  0  0  0  0  0  0  0  0  0  0  0
    0.0432   -5.7521   -1.8380 N   0  0  0  0  0  0  0  0  0  0  0  0
   -0.1108   -4.6690   -2.7759 C   0  0  2  0  0  0  0  0  0  0  0  0
    1.2276   -4.4204   -3.4684 C   0  0  0  0  0  0  0  0  0  0  0  0
    2.2647   -4.9977   -3.1481 O   0  0  0  0  0  0  0  0  0  0  0  0
   -0.7002   -3.4148   -2.1260 C   0  0  0  0  0  0  0  0  0  0  0  0
    0.3557   -2.6961   -0.8256 S   0  0  0  0  0  0  0  0  0  0  0  0
    0.9299   -5.8440   -1.3474 H   0  0  0  0  0  0  0  0  0  0  0  0
   -0.8135   -5.0344   -3.5351 H   0  0  0  0  0  0  0  0  0  0  0  0
   -0.8703   -2.6365   -2.8770 H   0  0  0  0  0  0  0  0  0  0  0  0
   -1.6676   -3.6506   -1.6696 H   0  0  0  0  0  0  0  0  0  0  0  0
    1.1318   -3.4616   -4.4670 N   0  0  0  0  0  0  0  0  0  0  0  0
    2.2685   -3.0355   -5.2494 C   0  0  0  0  0  0  0  0  0  0  0  0
    0.2245   -3.0660   -4.6948 H   0  0  0  0  0  0  0  0  0  0  0  0
    2.7273   -2.1528   -4.7799 H   0  0  0  0  0  0  0  0  0  0  0  0
    3.0062   -3.8499   -5.2978 H   0  0  0  0  0  0  0  0  0  0  0  0
    1.9379   -2.7792   -6.2667 H   0  0  0  0  0  0  0  0  0  0  0  0
   -6.7256    2.0330   -0.2766 C   0  0  0  0  0  0  0  0  0  0  0  0
   -7.1824    1.1039   -0.9322 O   0  0  0  0  0  0  0  0  0  0  0  0
   -7.5276    2.6077    0.8435 C   0  0  0  0  0  0  0  0  0  0  0  0
   -8.1775    3.4344    0.5145 H   0  0  0  0  0  0  0  0  0  0  0  0
   -8.2057    1.8676    1.2980 H   0  0  0  0  0  0  0  0  0  0  0  0
   -6.9411    3.0162    1.6819 H   0  0  0  0  0  0  0  0  0  0  0  0
   -5.4935    2.6382   -0.4627 N   0  0  0  0  0  0  0  0  0  0  0  0
   -4.5619    2.2388   -1.4845 C   0  0  2  0  0  0  0  0  0  0  0  0
   -3.1535    2.4674   -0.9521 C   0  0  0  0  0  0  0  0  0  0  0  0
   -2.8634    3.3945   -0.1987 O   0  0  0  0  0  0  0  0  0  0  0  0
   -4.7883    3.0138   -2.7732 C   0  0  0  0  0  0  0  0  0  0  0  0
   -5.2337    3.4049    0.1551 H   0  0  0  0  0  0  0  0  0  0  0  0
   -4.7192    1.1682   -1.6549 H   0  0  0  0  0  0  0  0  0  0  0  0
   -4.6352    4.0886   -2.6221 H   0  0  0  0  0  0  0  0  0  0  0  0
   -4.0976    2.6887   -3.5582 H   0  0  0  0  0  0  0  0  0  0  0  0
   -5.8111    2.8719   -3.1387 H   0  0  0  0  0  0  0  0  0  0  0  0
   -2.2466    1.5400   -1.4507 N   0  0  0  0  0  0  0  0  0  0  0  0
   -0.8424    1.5707   -1.1286 C   0  0  2  0  0  0  0  0  0  0  0  0
   -0.1811    2.7060   -1.9074 C   0  0  0  0  0  0  0  0  0  0  0  0
    0.9981    2.6819   -2.2543 O   0  0  0  0  0  0  0  0  0  0  0  0
   -0.1661    0.2142   -1.3414 C   0  0  0  0  0  0  0  0  0  0  0  0
   -0.7707   -1.0834   -0.2352 S   0  0  0  0  0  0  0  0  0  0  0  0
   -2.5850    0.7815   -2.0381 H   0  0  0  0  0  0  0  0  0  0  0  0
   -0.7901    1.8259   -0.0628 H   0  0  0  0  0  0  0  0  0  0  0  0
   -0.3177   -0.1340   -2.3683 H   0  0  0  0  0  0  0  0  0  0  0  0
    0.9134    0.3060   -1.1797 H   0  0  0  0  0  0  0  0  0  0  0  0
   -1.0549    3.7571   -2.1465 N   0  0  0  0  0  0  0  0  0  0  0  0
   -0.6571    4.9575   -2.8441 C   0  0  2  0  0  0  0  0  0  0  0  0
   -1.4544    6.1212   -2.2698 C   0  0  0  0  0  0  0  0  0  0  0  0
   -2.6118    6.0093   -1.8711 O   0  0  0  0  0  0  0  0  0  0  0  0
   -0.8859    4.8286   -4.3420 C   0  0  0  0  0  0  0  0  0  0  0  0
   -2.0263    3.6744   -1.8615 H   0  0  0  0  0  0  0  0  0  0  0  0
    0.4081    5.1059   -2.6360 H   0  0  0  0  0  0  0  0  0  0  0  0
   -1.9476    4.6793   -4.5699 H   0  0  0  0  0  0  0  0  0  0  0  0
   -0.5573    5.7285   -4.8724 H   0  0  0  0  0  0  0  0  0  0  0  0
   -0.3353    3.9732   -4.7481 H   0  0  0  0  0  0  0  0  0  0  0  0
   -0.7363    7.3086   -2.2949 N   0  0  0  0  0  0  0  0  0  0  0  0
   -1.2898    8.5641   -1.8439 C   0  0  0  0  0  0  0  0  0  0  0  0
    0.2309    7.3011   -2.6050 H   0  0  0  0  0  0  0  0  0  0  0  0
   -1.7389    9.0947   -2.6964 H   0  0  0  0  0  0  0  0  0  0  0  0
   -2.0614    8.3725   -1.0837 H   0  0  0  0  0  0  0  0  0  0  0  0
   -0.4906    9.1813   -1.4077 H   0  0  0  0  0  0  0  0  0  0  0  0
  1  3  1  0  0  0  0
  1  7  1  0  0  0  0
  1  2  2  0  0  0  0
 23 25  1  0  0  0  0
 23 29  1  0  0  0  0
 23 24  2  0  0  0  0
 50 51  1  0  0  0  0
 51 59  1  0  0  0  0
 51 52  2  0  0  0  0
  8  9  1  0  0  0  0
  9 17  1  0  0  0  0
  9 10  2  0  0  0  0
 30 31  1  0  0  0  0
 31 39  1  0  0  0  0
 31 32  2  0  0  0  0
 40 41  1  0  0  0  0
 41 49  1  0  0  0  0
 41 42  2  0  0  0  0
 50 53  1  0  0  0  0
 30 33  1  0  0  0  0
 59 60  1  0  0  0  0
 17 18  1  0  0  0  0
  8 11  1  0  0  0  0
 11 12  1  0  0  0  0
 40 43  1  0  0  0  0
 43 44  1  0  0  0  0
 49 50  1  0  0  0  0
  7  8  1  0  0  0  0
 29 30  1  0  0  0  0
 39 40  1  0  0  0  0
 12 44  1  0  0  0  0
  3  4  1  0  0  0  0
  3  5  1  0  0  0  0
  3  6  1  0  0  0  0
 25 26  1  0  0  0  0
 25 27  1  0  0  0  0
 25 28  1  0  0  0  0
 53 56  1  0  0  0  0
 53 57  1  0  0  0  0
 53 58  1  0  0  0  0
 33 36  1  0  0  0  0
 33 37  1  0  0  0  0
 33 38  1  0  0  0  0
 60 62  1  0  0  0  0
 60 63  1  0  0  0  0
 60 64  1  0  0  0  0
 18 20  1  0  0  0  0
 18 21  1  0  0  0  0
 18 22  1  0  0  0  0
 11 15  1  0  0  0  0
 11 16  1  0  0  0  0
 43 47  1  0  0  0  0
 43 48  1  0  0  0  0
 50 55  1  0  0  0  0
  8 14  1  0  0  0  0
 30 35  1  0  0  0  0
 40 46  1  0  0  0  0
 59 61  1  0  0  0  0
 17 19  1  0  0  0  0
  7 13  1  0  0  0  0
 29 34  1  0  0  0  0
 49 54  1  0  0  0  0
 39 45  1  0  0  0  0
M  END
$$$$

  -OEChem-05262214473D

 64 63  0     1  0  0  0  0  0999 V2000
   -0.9544   -6.6737   -1.5709 C   0  0  0  0  0  0  0  0  0  0  0  0
   -2.0711   -6.7002   -2.0750 O   0  0  0  0  0  0  0  0  0  0  0  0
   -0.5755   -7.7110   -0.5665 C   0  0  0  0  0  0  0  0  0  0  0  0
   -0.8192   -7.4071    0.4643 H   0  0  0  0  0  0  0  0  0  0  0  0
   -1.1085   -8.6625   -0.7232 H   0  0  0  0  0  0  0  0  0  0  0  0
    0.4932   -7.9779   -0.5449 H   0  0  0  0  0  0  0  0  0  0  0  0
    0.0432   -5.7521   -1.8380 N   0  0  0  0  0  0  0  0  0  0  0  0
   -0.1108   -4.6690   -2.7759 C   0  0  2  0  0  0  0  0  0  0  0  0
    1.2276   -4.4204   -3.4684 C   0  0  0  0  0  0  0  0  0  0  0  0
    2.2647   -4.9977   -3.1481 O   0  0  0  0  0  0  0  0  0  0  0  0
   -0.7002   -3.4148   -2.1260 C   0  0  0  0  0  0  0  0  0  0  0  0
    0.3557   -2.6961   -0.8256 S   0  0  0  0  0  0  0  0  0  0  0  0
    0.9299   -5.8440   -1.3474 H   0  0  0  0  0  0  0  0  0  0  0  0
   -0.8135   -5.0344   -3.5351 H   0  0  0  0  0  0  0  0  0  0  0  0
   -0.8703   -2.6365   -2.8770 H   0  0  0  0  0  0  0  0  0  0  0  0
   -1.6676   -3.6506   -1.6696 H   0  0  0  0  0  0  0  0  0  0  0  0
    1.1318   -3.4616   -4.4670 N   0  0  0  0  0  0  0  0  0  0  0  0
    2.2685   -3.0355   -5.2494 C   0  0  0  0  0  0  0  0  0  0  0  0
    0.2245   -3.0660   -4.6948 H   0  0  0  0  0  0  0  0  0  0  0  0
    2.7273   -2.1528   -4.7799 H   0  0  0  0  0  0  0  0  0  0  0  0
    3.0062   -3.8499   -5.2978 H   0  0  0  0  0  0  0  0  0  0  0  0
    1.9379   -2.7792   -6.2667 H   0  0  0  0  0  0  0  0  0  0  0  0
   -6.7256    2.0330   -0.2766 C   0  0  0  0  0  0  0  0  0  0  0  0
   -7.1824    1.1039   -0.9322 O   0  0  0  0  0  0  0  0  0  0  0  0
   -7.5276    2.6077    0.8435 C   0  0  0  0  0  0  0  0  0  0  0  0
   -8.1775    3.4344    0.5145 H   0  0  0  0  0  0  0  0  0  0  0  0
   -8.2057    1.8676    1.2980 H   0  0  0  0  0  0  0  0  0  0  0  0
   -6.9411    3.0162    1.6819 H   0  0  0  0  0  0  0  0  0  0  0  0
   -5.4935    2.6382   -0.4627 N   0  0  0  0  0  0  0  0  0  0  0  0
   -4.5619    2.2388   -1.4845 C   0  0  2  0  0  0  0  0  0  0  0  0
   -3.1535    2.4674   -0.9521 C   0  0  0  0  0  0  0  0  0  0  0  0
   -2.8634    3.3945   -0.1987 O   0  0  0  0  0  0  0  0  0  0  0  0
   -4.7883    3.0138   -2.7732 C   0  0  0  0  0  0  0  0  0  0  0  0
   -5.2337    3.4049    0.1551 H   0  0  0  0  0  0  0  0  0  0  0  0
   -4.7192    1.1682   -1.6549 H   0  0  0  0  0  0  0  0  0  0  0  0
   -4.6352    4.0886   -2.6221 H   0  0  0  0  0  0  0  0  0  0  0  0
   -4.0976    2.6887   -3.5582 H   0  0  0  0  0  0  0  0  0  0  0  0
   -5.8111    2.8719   -3.1387 H   0  0  0  0  0  0  0  0  0  0  0  0
   -2.2466    1.5400   -1.4507 N   0  0  0  0  0  0  0  0  0  0  0  0
   -0.8424    1.5707   -1.1286 C   0  0  2  0  0  0  0  0  0  0  0  0
   -0.1811    2.7060   -1.9074 C   0  0  0  0  0  0  0  0  0  0  0  0
    0.8978    2.5830   -2.4837 O   0  0  0  0  0  0  0  0  0  0  0  0
   -0.1661    0.2142   -1.3414 C   0  0  0  0  0  0  0  0  0  0  0  0
   -0.7707   -1.0834   -0.2352 S   0  0  0  0  0  0  0  0  0  0  0  0
   -2.5850    0.7815   -2.0381 H   0  0  0  0  0  0  0  0  0  0  0  0
   -0.7901    1.8259   -0.0628 H   0  0  0  0  0  0  0  0  0  0  0  0
   -0.3177   -0.1340   -2.3683 H   0  0  0  0  0  0  0  0  0  0  0  0
    0.9134    0.3060   -1.1797 H   0  0  0  0  0  0  0  0  0  0  0  0
   -0.9247    3.8767   -1.8616 N   0  0  0  0  0  0  0  0  0  0  0  0
   -0.4953    5.0978   -2.5020 C   0  0  2  0  0  0  0  0  0  0  0  0
   -0.9980    6.2685   -1.6675 C   0  0  0  0  0  0  0  0  0  0  0  0
   -2.0656    6.2486   -1.0586 O   0  0  0  0  0  0  0  0  0  0  0  0
   -1.0130    5.1858   -3.9293 C   0  0  0  0  0  0  0  0  0  0  0  0
   -1.8283    3.8772   -1.3977 H   0  0  0  0  0  0  0  0  0  0  0  0
    0.6001    5.0891   -2.4975 H   0  0  0  0  0  0  0  0  0  0  0  0
   -2.1088    5.1958   -3.9540 H   0  0  0  0  0  0  0  0  0  0  0  0
   -0.6630    6.0985   -4.4227 H   0  0  0  0  0  0  0  0  0  0  0  0
   -0.6750    4.3276   -4.5200 H   0  0  0  0  0  0  0  0  0  0  0  0
   -0.1347    7.3540   -1.7178 N   0  0  0  0  0  0  0  0  0  0  0  0
   -0.4100    8.6010   -1.0430 C   0  0  0  0  0  0  0  0  0  0  0  0
    0.7474    7.2684   -2.2141 H   0  0  0  0  0  0  0  0  0  0  0  0
   -0.9284    9.2844   -1.7316 H   0  0  0  0  0  0  0  0  0  0  0  0
   -1.0471    8.4107   -0.1667 H   0  0  0  0  0  0  0  0  0  0  0  0
    0.5360    9.0576   -0.7164 H   0  0  0  0  0  0  0  0  0  0  0  0
  1  3  1  0  0  0  0
  1  7  1  0  0  0  0
  1  2  2  0  0  0  0
 23 25  1  0  0  0  0
 23 29  1  0  0  0  0
 23 24  2  0  0  0  0
 50 51  1  0  0  0  0
 51 59  1  0  0  0  0
 51 52  2  0  0  0  0
  8  9  1  0  0  0  0
  9 17  1  0  0  0  0
  9 10  2  0  0  0  0
 30 31  1  0  0  0  0
 31 39  1  0  0  0  0
 31 32  2  0  0  0  0
 40 41  1  0  0  0  0
 41 49  1  0  0  0  0
 41 42  2  0  0  0  0
 50 53  1  0  0  0  0
 30 33  1  0  0  0  0
 59 60  1  0  0  0  0
 17 18  1  0  0  0  0
  8 11  1  0  0  0  0
 11 12  1  0  0  0  0
 40 43  1  0  0  0  0
 43 44  1  0  0  0  0
 49 50  1  0  0  0  0
  7  8  1  0  0  0  0
 29 30  1  0  0  0  0
 39 40  1  0  0  0  0
 12 44  1  0  0  0  0
  3  4  1  0  0  0  0
  3  5  1  0  0  0  0
  3  6  1  0  0  0  0
 25 26  1  0  0  0  0
 25 27  1  0  0  0  0
 25 28  1  0  0  0  0
 53 56  1  0  0  0  0
 53 57  1  0  0  0  0
 53 58  1  0  0  0  0
 33 36  1  0  0  0  0
 33 37  1  0  0  0  0
 33 38  1  0  0  0  0
 60 62  1  0  0  0  0
 60 63  1  0  0  0  0
 60 64  1  0  0  0  0
 18 20  1  0  0  0  0
 18 21  1  0  0  0  0
 18 22  1  0  0  0  0
 11 15  1  0  0  0  0
 11 16  1  0  0  0  0
 43 47  1  0  0  0  0
 43 48  1  0  0  0  0
 50 55  1  0  0  0  0
  8 14  1  0  0  0  0
 30 35  1  0  0  0  0
 40 46  1  0  0  0  0
 59 61  1  0  0  0  0
 17 19  1  0  0  0  0
  7 13  1  0  0  0  0
 29 34  1  0  0  0  0
 49 54  1  0  0  0  0
 39 45  1  0  0  0  0
M  END
$$$$

  -OEChem-05262214473D

 64 63  0     1  0  0  0  0  0999 V2000
   -0.9544   -6.6737   -1.5709 C   0  0  0  0  0  0  0  0  0  0  0  0
   -2.0711   -6.7002   -2.0750 O   0  0  0  0  0  0  0  0  0  0  0  0
   -0.5755   -7.7110   -0.5665 C   0  0  0  0  0  0  0  0  0  0  0  0
   -0.8192   -7.4071    0.4643 H   0  0  0  0  0  0  0  0  0  0  0  0
   -1.1085   -8.6625   -0.7232 H   0  0  0  0  0  0  0  0  0  0  0  0
    0.4932   -7.9779   -0.5449 H   0  0  0  0  0  0  0  0  0  0  0  0
    0.0432   -5.7521   -1.8380 N   0  0  0  0  0  0  0  0  0  0  0  0
   -0.1108   -4.6690   -2.7759 C   0  0  2  0  0  0  0  0  0  0  0  0
    1.2276   -4.4204   -3.4684 C   0  0  0  0  0  0  0  0  0  0  0  0
    2.2647   -4.9977   -3.1481 O   0  0  0  0  0  0  0  0  0  0  0  0
   -0.7002   -3.4148   -2.1260 C   0  0  0  0  0  0  0  0  0  0  0  0
    0.3557   -2.6961   -0.8256 S   0  0  0  0  0  0  0  0  0  0  0  0
    0.9299   -5.8440   -1.3474 H   0  0  0  0  0  0  0  0  0  0  0  0
   -0.8135   -5.0344   -3.5351 H   0  0  0  0  0  0  0  0  0  0  0  0
   -0.8703   -2.6365   -2.8770 H   0  0  0  0  0  0  0  0  0  0  0  0
   -1.6676   -3.6506   -1.6696 H   0  0  0  0  0  0  0  0  0  0  0  0
    1.1318   -3.4616   -4.4670 N   0  0  0  0  0  0  0  0  0  0  0  0
    2.2685   -3.0355   -5.2494 C   0  0  0  0  0  0  0  0  0  0  0  0
    0.2245   -3.0660   -4.6948 H   0  0  0  0  0  0  0  0  0  0  0  0
    2.7273   -2.1528   -4.7799 H   0  0  0  0  0  0  0  0  0  0  0  0
    3.0062   -3.8499   -5.2978 H   0  0  0  0  0  0  0  0  0  0  0  0
    1.9379   -2.7792   -6.2667 H   0  0  0  0  0  0  0  0  0  0  0  0
   -6.7256    2.0330   -0.2766 C   0  0  0  0  0  0  0  0  0  0  0  0
   -7.1824    1.1039   -0.9322 O   0  0  0  0  0  0  0  0  0  0  0  0
   -7.5276    2.6077    0.8435 C   0  0  0  0  0  0  0  0  0  0  0  0
   -8.1775    3.4344    0.5145 H   0  0  0  0  0  0  0  0  0  0  0  0
   -8.2057    1.8676    1.2980 H   0  0  0  0  0  0  0  0  0  0  0  0
   -6.9411    3.0162    1.6819 H   0  0  0  0  0  0  0  0  0  0  0  0
   -5.4935    2.6382   -0.4627 N   0  0  0  0  0  0  0  0  0  0  0  0
   -4.5619    2.2388   -1.4845 C   0  0  2  0  0  0  0  0  0  0  0  0
   -3.1535    2.4674   -0.9521 C   0  0  0  0  0  0  0  0  0  0  0  0
   -2.8634    3.3945   -0.1987 O   0  0  0  0  0  0  0  0  0  0  0  0
   -4.7883    3.0138   -2.7732 C   0  0  0  0  0  0  0  0  0  0  0  0
   -5.2337    3.4049    0.1551 H   0  0  0  0  0  0  0  0  0  0  0  0
   -4.7192    1.1682   -1.6549 H   0  0  0  0  0  0  0  0  0  0  0  0
   -4.6352    4.0886   -2.6221 H   0  0  0  0  0  0  0  0  0  0  0  0
   -4.0976    2.6887   -3.5582 H   0  0  0  0  0  0  0  0  0  0  0  0
   -5.8111    2.8719   -3.1387 H   0  0  0  0  0  0  0  0  0  0  0  0
   -2.2466    1.5400   -1.4507 N   0  0  0  0  0  0  0  0  0  0  0  0
   -0.8424    1.5707   -1.1286 C   0  0  2  0  0  0  0  0  0  0  0  0
   -0.1811    2.7060   -1.9074 C   0  0  0  0  0  0  0  0  0  0  0  0
    0.7438    2.5263   -2.6970 O   0  0  0  0  0  0  0  0  0  0  0  0
   -0.1661    0.2142   -1.3414 C   0  0  0  0  0  0  0  0  0  0  0  0
   -0.7707   -1.0834   -0.2352 S   0  0  0  0  0  0  0  0  0  0  0  0
   -2.5850    0.7815   -2.0381 H   0  0  0  0  0  0  0  0  0  0  0  0
   -0.7901    1.8259   -0.0628 H   0  0  0  0  0  0  0  0  0  0  0  0
   -0.3177   -0.1340   -2.3683 H   0  0  0  0  0  0  0  0  0  0  0  0
    0.9134    0.3060   -1.1797 H   0  0  0  0  0  0  0  0  0  0  0  0
   -0.7283    3.9431   -1.5980 N   0  0  0  0  0  0  0  0  0  0  0  0
   -0.2546    5.1737   -2.1871 C   0  0  2  0  0  0  0  0  0  0  0  0
   -0.4218    6.2830   -1.1570 C   0  0  0  0  0  0  0  0  0  0  0  0
   -1.3501    6.3165   -0.3520 O   0  0  0  0  0  0  0  0  0  0  0  0
   -1.0092    5.5014   -3.4661 C   0  0  0  0  0  0  0  0  0  0  0  0
   -1.5211    3.9950   -0.9652 H   0  0  0  0  0  0  0  0  0  0  0  0
    0.8101    5.0320   -2.4025 H   0  0  0  0  0  0  0  0  0  0  0  0
   -2.0778    5.6469   -3.2702 H   0  0  0  0  0  0  0  0  0  0  0  0
   -0.6297    6.4194   -3.9266 H   0  0  0  0  0  0  0  0  0  0  0  0
   -0.9125    4.6892   -4.1946 H   0  0  0  0  0  0  0  0  0  0  0  0
    0.5635    7.2538   -1.2710 N   0  0  0  0  0  0  0  0  0  0  0  0
    0.5988    8.4307   -0.4346 C   0  0  0  0  0  0  0  0  0  0  0  0
    1.3172    7.1248   -1.9396 H   0  0  0  0  0  0  0  0  0  0  0  0
    0.0651    9.2525   -0.9344 H   0  0  0  0  0  0  0  0  0  0  0  0
    0.1141    8.2109    0.5281 H   0  0  0  0  0  0  0  0  0  0  0  0
    1.6442    8.7251   -0.2600 H   0  0  0  0  0  0  0  0  0  0  0  0
  1  3  1  0  0  0  0
  1  7  1  0  0  0  0
  1  2  2  0  0  0  0
 23 25  1  0  0  0  0
 23 29  1  0  0  0  0
 23 24  2  0  0  0  0
 50 51  1  0  0  0  0
 51 59  1  0  0  0  0
 51 52  2  0  0  0  0
  8  9  1  0  0  0  0
  9 17  1  0  0  0  0
  9 10  2  0  0  0  0
 30 31  1  0  0  0  0
 31 39  1  0  0  0  0
 31 32  2  0  0  0  0
 40 41  1  0  0  0  0
 41 49  1  0  0  0  0
 41 42  2  0  0  0  0
 50 53  1  0  0  0  0
 30 33  1  0  0  0  0
 59 60  1  0  0  0  0
 17 18  1  0  0  0  0
  8 11  1  0  0  0  0
 11 12  1  0  0  0  0
 40 43  1  0  0  0  0
 43 44  1  0  0  0  0
 49 50  1  0  0  0  0
  7  8  1  0  0  0  0
 29 30  1  0  0  0  0
 39 40  1  0  0  0  0
 12 44  1  0  0  0  0
  3  4  1  0  0  0  0
  3  5  1  0  0  0  0
  3  6  1  0  0  0  0
 25 26  1  0  0  0  0
 25 27  1  0  0  0  0
 25 28  1  0  0  0  0
 53 56  1  0  0  0  0
 53 57  1  0  0  0  0
 53 58  1  0  0  0  0
 33 36  1  0  0  0  0
 33 37  1  0  0  0  0
 33 38  1  0  0  0  0
 60 62  1  0  0  0  0
 60 63  1  0  0  0  0
 60 64  1  0  0  0  0
 18 20  1  0  0  0  0
 18 21  1  0  0  0  0
 18 22  1  0  0  0  0
 11 15  1  0  0  0  0
 11 16  1  0  0  0  0
 43 47  1  0  0  0  0
 43 48  1  0  0  0  0
 50 55  1  0  0  0  0
  8 14  1  0  0  0  0
 30 35  1  0  0  0  0
 40 46  1  0  0  0  0
 59 61  1  0  0  0  0
 17 19  1  0  0  0  0
  7 13  1  0  0  0  0
 29 34  1  0  0  0  0
 49 54  1  0  0  0  0
 39 45  1  0  0  0  0
M  END
$$$$

  -OEChem-05262214473D

 64 63  0     1  0  0  0  0  0999 V2000
   -0.9544   -6.6737   -1.5709 C   0  0  0  0  0  0  0  0  0  0  0  0
   -2.0711   -6.7002   -2.0750 O   0  0  0  0  0  0  0  0  0  0  0  0
   -0.5755   -7.7110   -0.5665 C   0  0  0  0  0  0  0  0  0  0  0  0
   -0.8192   -7.4071    0.4643 H   0  0  0  0  0  0  0  0  0  0  0  0
   -1.1085   -8.6625   -0.7232 H   0  0  0  0  0  0  0  0  0  0  0  0
    0.4932   -7.9779   -0.5449 H   0  0  0  0  0  0  0  0  0  0  0  0
    0.0432   -5.7521   -1.8380 N   0  0  0  0  0  0  0  0  0  0  0  0
   -0.1108   -4.6690   -2.7759 C   0  0  2  0  0  0  0  0  0  0  0  0
    1.2276   -4.4204   -3.4684 C   0  0  0  0  0  0  0  0  0  0  0  0
    2.2647   -4.9977   -3.1481 O   0  0  0  0  0  0  0  0  0  0  0  0
   -0.7002   -3.4148   -2.1260 C   0  0  0  0  0  0  0  0  0  0  0  0
    0.3557   -2.6961   -0.8256 S   0  0  0  0  0  0  0  0  0  0  0  0
    0.9299   -5.8440   -1.3474 H   0  0  0  0  0  0  0  0  0  0  0  0
   -0.8135   -5.0344   -3.5351 H   0  0  0  0  0  0  0  0  0  0  0  0
   -0.8703   -2.6365   -2.8770 H   0  0  0  0  0  0  0  0  0  0  0  0
   -1.6676   -3.6506   -1.6696 H   0  0  0  0  0  0  0  0  0  0  0  0
    1.1318   -3.4616   -4.4670 N   0  0  0  0  0  0  0  0  0  0  0  0
    2.2685   -3.0355   -5.2494 C   0  0  0  0  0  0  0  0  0  0  0  0
    0.2245   -3.0660   -4.6948 H   0  0  0  0  0  0  0  0  0  0  0  0
    2.7273   -2.1528   -4.7799 H   0  0  0  0  0  0  0  0  0  0  0  0
    3.0062   -3.8499   -5.2978 H   0  0  0  0  0  0  0  0  0  0  0  0
    1.9379   -2.7792   -6.2667 H   0  0  0  0  0  0  0  0  0  0  0  0
   -6.7256    2.0330   -0.2766 C   0  0  0  0  0  0  0  0  0  0  0  0
   -7.1824    1.1039   -0.9322 O   0  0  0  0  0  0  0  0  0  0  0  0
   -7.5276    2.6077    0.8435 C   0  0  0  0  0  0  0  0  0  0  0  0
   -8.1775    3.4344    0.5145 H   0  0  0  0  0  0  0  0  0  0  0  0
   -8.2057    1.8676    1.2980 H   0  0  0  0  0  0  0  0  0  0  0  0
   -6.9411    3.0162    1.6819 H   0  0  0  0  0  0  0  0  0  0  0  0
   -5.4935    2.6382   -0.4627 N   0  0  0  0  0  0  0  0  0  0  0  0
   -4.5619    2.2388   -1.4845 C   0  0  2  0  0  0  0  0  0  0  0  0
   -3.1535    2.4674   -0.9521 C   0  0  0  0  0  0  0  0  0  0  0  0
   -2.8634    3.3945   -0.1987 O   0  0  0  0  0  0  0  0  0  0  0  0
   -4.7883    3.0138   -2.7732 C   0  0  0  0  0  0  0  0  0  0  0  0
   -5.2337    3.4049    0.1551 H   0  0  0  0  0  0  0  0  0  0  0  0
   -4.7192    1.1682   -1.6549 H   0  0  0  0  0  0  0  0  0  0  0  0
   -4.6352    4.0886   -2.6221 H   0  0  0  0  0  0  0  0  0  0  0  0
   -4.0976    2.6887   -3.5582 H   0  0  0  0  0  0  0  0  0  0  0  0
   -5.8111    2.8719   -3.1387 H   0  0  0  0  0  0  0  0  0  0  0  0
   -2.2466    1.5400   -1.4507 N   0  0  0  0  0  0  0  0  0  0  0  0
   -0.8424    1.5707   -1.1286 C   0  0  2  0  0  0  0  0  0  0  0  0
   -0.1811    2.7060   -1.9074 C   0  0  0  0  0  0  0  0  0  0  0  0
    0.5466    2.5158   -2.8798 O   0  0  0  0  0  0  0  0  0  0  0  0
   -0.1661    0.2142   -1.3414 C   0  0  0  0  0  0  0  0  0  0  0  0
   -0.7707   -1.0834   -0.2352 S   0  0  0  0  0  0  0  0  0  0  0  0
   -2.5850    0.7815   -2.0381 H   0  0  0  0  0  0  0  0  0  0  0  0
   -0.7901    1.8259   -0.0628 H   0  0  0  0  0  0  0  0  0  0  0  0
   -0.3177   -0.1340   -2.3683 H   0  0  0  0  0  0  0  0  0  0  0  0
    0.9134    0.3060   -1.1797 H   0  0  0  0  0  0  0  0  0  0  0  0
   -0.4791    3.9518   -1.3738 N   0  0  0  0  0  0  0  0  0  0  0  0
    0.0485    5.1799   -1.9206 C   0  0  2  0  0  0  0  0  0  0  0  0
    0.2349    6.1638   -0.7732 C   0  0  0  0  0  0  0  0  0  0  0  0
   -0.5141    6.2085    0.2005 O   0  0  0  0  0  0  0  0  0  0  0  0
   -0.8749    5.7538   -2.9841 C   0  0  0  0  0  0  0  0  0  0  0  0
   -1.1255    4.0197   -0.5932 H   0  0  0  0  0  0  0  0  0  0  0  0
    1.0236    4.9384   -2.3575 H   0  0  0  0  0  0  0  0  0  0  0  0
   -1.8569    6.0019   -2.5651 H   0  0  0  0  0  0  0  0  0  0  0  0
   -0.4597    6.6695   -3.4178 H   0  0  0  0  0  0  0  0  0  0  0  0
   -1.0316    5.0333   -3.7941 H   0  0  0  0  0  0  0  0  0  0  0  0
    1.3106    7.0148   -0.9849 N   0  0  0  0  0  0  0  0  0  0  0  0
    1.6678    8.0650   -0.0600 C   0  0  0  0  0  0  0  0  0  0  0  0
    1.9013    6.8801   -1.8002 H   0  0  0  0  0  0  0  0  0  0  0  0
    1.1739    9.0013   -0.3590 H   0  0  0  0  0  0  0  0  0  0  0  0
    1.3431    7.7868    0.9535 H   0  0  0  0  0  0  0  0  0  0  0  0
    2.7586    8.2066   -0.0696 H   0  0  0  0  0  0  0  0  0  0  0  0
  1  3  1  0  0  0  0
  1  7  1  0  0  0  0
  1  2  2  0  0  0  0
 23 25  1  0  0  0  0
 23 29  1  0  0  0  0
 23 24  2  0  0  0  0
 50 51  1  0  0  0  0
 51 59  1  0  0  0  0
 51 52  2  0  0  0  0
  8  9  1  0  0  0  0
  9 17  1  0  0  0  0
  9 10  2  0  0  0  0
 30 31  1  0  0  0  0
 31 39  1  0  0  0  0
 31 32  2  0  0  0  0
 40 41  1  0  0  0  0
 41 49  1  0  0  0  0
 41 42  2  0  0  0  0
 50 53  1  0  0  0  0
 30 33  1  0  0  0  0
 59 60  1  0  0  0  0
 17 18  1  0  0  0  0
  8 11  1  0  0  0  0
 11 12  1  0  0  0  0
 40 43  1  0  0  0  0
 43 44  1  0  0  0  0
 49 50  1  0  0  0  0
  7  8  1  0  0  0  0
 29 30  1  0  0  0  0
 39 40  1  0  0  0  0
 12 44  1  0  0  0  0
  3  4  1  0  0  0  0
  3  5  1  0  0  0  0
  3  6  1  0  0  0  0
 25 26  1  0  0  0  0
 25 27  1  0  0  0  0
 25 28  1  0  0  0  0
 53 56  1  0  0  0  0
 53 57  1  0  0  0  0
 53 58  1  0  0  0  0
 33 36  1  0  0  0  0
 33 37  1  0  0  0  0
 33 38  1  0  0  0  0
 60 62  1  0  0  0  0
 60 63  1  0  0  0  0
 60 64  1  0  0  0  0
 18 20  1  0  0  0  0
 18 21  1  0  0  0  0
 18 22  1  0  0  0  0
 11 15  1  0  0  0  0
 11 16  1  0  0  0  0
 43 47  1  0  0  0  0
 43 48  1  0  0  0  0
 50 55  1  0  0  0  0
  8 14  1  0  0  0  0
 30 35  1  0  0  0  0
 40 46  1  0  0  0  0
 59 61  1  0  0  0  0
 17 19  1  0  0  0  0
  7 13  1  0  0  0  0
 29 34  1  0  0  0  0
 49 54  1  0  0  0  0
 39 45  1  0  0  0  0
M  END
$$$$

  -OEChem-05262214473D

 64 63  0     1  0  0  0  0  0999 V2000
   -0.9544   -6.6737   -1.5709 C   0  0  0  0  0  0  0  0  0  0  0  0
   -2.0711   -6.7002   -2.0750 O   0  0  0  0  0  0  0  0  0  0  0  0
   -0.5755   -7.7110   -0.5665 C   0  0  0  0  0  0  0  0  0  0  0  0
   -0.8192   -7.4071    0.4643 H   0  0  0  0  0  0  0  0  0  0  0  0
   -1.1085   -8.6625   -0.7232 H   0  0  0  0  0  0  0  0  0  0  0  0
    0.4932   -7.9779   -0.5449 H   0  0  0  0  0  0  0  0  0  0  0  0
    0.0432   -5.7521   -1.8380 N   0  0  0  0  0  0  0  0  0  0  0  0
   -0.1108   -4.6690   -2.7759 C   0  0  2  0  0  0  0  0  0  0  0  0
    1.2276   -4.4204   -3.4684 C   0  0  0  0  0  0  0  0  0  0  0  0
    2.2647   -4.9977   -3.1481 O   0  0  0  0  0  0  0  0  0  0  0  0
   -0.7002   -3.4148   -2.1260 C   0  0  0  0  0  0  0  0  0  0  0  0
    0.3557   -2.6961   -0.8256 S   0  0  0  0  0  0  0  0  0  0  0  0
    0.9299   -5.8440   -1.3474 H   0  0  0  0  0  0  0  0  0  0  0  0
   -0.8135   -5.0344   -3.5351 H   0  0  0  0  0  0  0  0  0  0  0  0
   -0.8703   -2.6365   -2.8770 H   0  0  0  0  0  0  0  0  0  0  0  0
   -1.6676   -3.6506   -1.6696 H   0  0  0  0  0  0  0  0  0  0  0  0
    1.1318   -3.4616   -4.4670 N   0  0  0  0  0  0  0  0  0  0  0  0
    2.2685   -3.0355   -5.2494 C   0  0  0  0  0  0  0  0  0  0  0  0
    0.2245   -3.0660   -4.6948 H   0  0  0  0  0  0  0  0  0  0  0  0
    2.7273   -2.1528   -4.7799 H   0  0  0  0  0  0  0  0  0  0  0  0
    3.0062   -3.8499   -5.2978 H   0  0  0  0  0  0  0  0  0  0  0  0
    1.9379   -2.7792   -6.2667 H   0  0  0  0  0  0  0  0  0  0  0  0
   -6.7256    2.0330   -0.2766 C   0  0  0  0  0  0  0  0  0  0  0  0
   -7.1824    1.1039   -0.9322 O   0  0  0  0  0  0  0  0  0  0  0  0
   -7.5276    2.6077    0.8435 C   0  0  0  0  0  0  0  0  0  0  0  0
   -8.1775    3.4344    0.5145 H   0  0  0  0  0  0  0  0  0  0  0  0
   -8.2057    1.8676    1.2980 H   0  0  0  0  0  0  0  0  0  0  0  0
   -6.9411    3.0162    1.6819 H   0  0  0  0  0  0  0  0  0  0  0  0
   -5.4935    2.6382   -0.4627 N   0  0  0  0  0  0  0  0  0  0  0  0
   -4.5619    2.2388   -1.4845 C   0  0  2  0  0  0  0  0  0  0  0  0
   -3.1535    2.4674   -0.9521 C   0  0  0  0  0  0  0  0  0  0  0  0
   -2.8634    3.3945   -0.1987 O   0  0  0  0  0  0  0  0  0  0  0  0
   -4.7883    3.0138   -2.7732 C   0  0  0  0  0  0  0  0  0  0  0  0
   -5.2337    3.4049    0.1551 H   0  0  0  0  0  0  0  0  0  0  0  0
   -4.7192    1.1682   -1.6549 H   0  0  0  0  0  0  0  0  0  0  0  0
   -4.6352    4.0886   -2.6221 H   0  0  0  0  0  0  0  0  0  0  0  0
   -4.0976    2.6887   -3.5582 H   0  0  0  0  0  0  0  0  0  0  0  0
   -5.8111    2.8719   -3.1387 H   0  0  0  0  0  0  0  0  0  0  0  0
   -2.2466    1.5400   -1.4507 N   0  0  0  0  0  0  0  0  0  0  0  0
   -0.8424    1.5707   -1.1286 C   0  0  2  0  0  0  0  0  0  0  0  0
   -0.1811    2.7060   -1.9074 C   0  0  0  0  0  0  0  0  0  0  0  0
    0.3195    2.5522   -3.0196 O   0  0  0  0  0  0  0  0  0  0  0  0
   -0.1661    0.2142   -1.3414 C   0  0  0  0  0  0  0  0  0  0  0  0
   -0.7707   -1.0834   -0.2352 S   0  0  0  0  0  0  0  0  0  0  0  0
   -2.5850    0.7815   -2.0381 H   0  0  0  0  0  0  0  0  0  0  0  0
   -0.7901    1.8259   -0.0628 H   0  0  0  0  0  0  0  0  0  0  0  0
   -0.3177   -0.1340   -2.3683 H   0  0  0  0  0  0  0  0  0  0  0  0
    0.9134    0.3060   -1.1797 H   0  0  0  0  0  0  0  0  0  0  0  0
   -0.1942    3.9022   -1.2041 N   0  0  0  0  0  0  0  0  0  0  0  0
    0.3933    5.1161   -1.7209 C   0  0  2  0  0  0  0  0  0  0  0  0
    0.9273    5.9190   -0.5421 C   0  0  0  0  0  0  0  0  0  0  0  0
    0.3854    5.9320    0.5612 O   0  0  0  0  0  0  0  0  0  0  0  0
   -0.6190    5.9258   -2.5160 C   0  0  0  0  0  0  0  0  0  0  0  0
   -0.6687    3.9497   -0.3073 H   0  0  0  0  0  0  0  0  0  0  0  0
    1.2262    4.8149   -2.3656 H   0  0  0  0  0  0  0  0  0  0  0  0
   -1.4609    6.2366   -1.8867 H   0  0  0  0  0  0  0  0  0  0  0  0
   -0.1647    6.8315   -2.9311 H   0  0  0  0  0  0  0  0  0  0  0  0
   -1.0241    5.3365   -3.3458 H   0  0  0  0  0  0  0  0  0  0  0  0
    2.0557    6.6533   -0.8791 N   0  0  0  0  0  0  0  0  0  0  0  0
    2.7241    7.5287    0.0552 C   0  0  0  0  0  0  0  0  0  0  0  0
    2.4602    6.5511   -1.8053 H   0  0  0  0  0  0  0  0  0  0  0  0
    2.3225    8.5478   -0.0447 H   0  0  0  0  0  0  0  0  0  0  0  0
    2.5560    7.1674    1.0805 H   0  0  0  0  0  0  0  0  0  0  0  0
    3.8032    7.5373   -0.1582 H   0  0  0  0  0  0  0  0  0  0  0  0
  1  3  1  0  0  0  0
  1  7  1  0  0  0  0
  1  2  2  0  0  0  0
 23 25  1  0  0  0  0
 23 29  1  0  0  0  0
 23 24  2  0  0  0  0
 50 51  1  0  0  0  0
 51 59  1  0  0  0  0
 51 52  2  0  0  0  0
  8  9  1  0  0  0  0
  9 17  1  0  0  0  0
  9 10  2  0  0  0  0
 30 31  1  0  0  0  0
 31 39  1  0  0  0  0
 31 32  2  0  0  0  0
 40 41  1  0  0  0  0
 41 49  1  0  0  0  0
 41 42  2  0  0  0  0
 50 53  1  0  0  0  0
 30 33  1  0  0  0  0
 59 60  1  0  0  0  0
 17 18  1  0  0  0  0
  8 11  1  0  0  0  0
 11 12  1  0  0  0  0
 40 43  1  0  0  0  0
 43 44  1  0  0  0  0
 49 50  1  0  0  0  0
  7  8  1  0  0  0  0
 29 30  1  0  0  0  0
 39 40  1  0  0  0  0
 12 44  1  0  0  0  0
  3  4  1  0  0  0  0
  3  5  1  0  0  0  0
  3  6  1  0  0  0  0
 25 26  1  0  0  0  0
 25 27  1  0  0  0  0
 25 28  1  0  0  0  0
 53 56  1  0  0  0  0
 53 57  1  0  0  0  0
 53 58  1  0  0  0  0
 33 36  1  0  0  0  0
 33 37  1  0  0  0  0
 33 38  1  0  0  0  0
 60 62  1  0  0  0  0
 60 63  1  0  0  0  0
 60 64  1  0  0  0  0
 18 20  1  0  0  0  0
 18 21  1  0  0  0  0
 18 22  1  0  0  0  0
 11 15  1  0  0  0  0
 11 16  1  0  0  0  0
 43 47  1  0  0  0  0
 43 48  1  0  0  0  0
 50 55  1  0  0  0  0
  8 14  1  0  0  0  0
 30 35  1  0  0  0  0
 40 46  1  0  0  0  0
 59 61  1  0  0  0  0
 17 19  1  0  0  0  0
  7 13  1  0  0  0  0
 29 34  1  0  0  0  0
 49 54  1  0  0  0  0
 39 45  1  0  0  0  0
M  END
$$$$

  -OEChem-05262214473D

 64 63  0     1  0  0  0  0  0999 V2000
   -0.9544   -6.6737   -1.5709 C   0  0  0  0  0  0  0  0  0  0  0  0
   -2.0711   -6.7002   -2.0750 O   0  0  0  0  0  0  0  0  0  0  0  0
   -0.5755   -7.7110   -0.5665 C   0  0  0  0  0  0  0  0  0  0  0  0
   -0.8192   -7.4071    0.4643 H   0  0  0  0  0  0  0  0  0  0  0  0
   -1.1085   -8.6625   -0.7232 H   0  0  0  0  0  0  0  0  0  0  0  0
    0.4932   -7.9779   -0.5449 H   0  0  0  0  0  0  0  0  0  0  0  0
    0.0432   -5.7521   -1.8380 N   0  0  0  0  0  0  0  0  0  0  0  0
   -0.1108   -4.6690   -2.7759 C   0  0  2  0  0  0  0  0  0  0  0  0
    1.2276   -4.4204   -3.4684 C   0  0  0  0  0  0  0  0  0  0  0  0
    2.2647   -4.9977   -3.1481 O   0  0  0  0  0  0  0  0  0  0  0  0
   -0.7002   -3.4148   -2.1260 C   0  0  0  0  0  0  0  0  0  0  0  0
    0.3557   -2.6961   -0.8256 S   0  0  0  0  0  0  0  0  0  0  0  0
    0.9299   -5.8440   -1.3474 H   0  0  0  0  0  0  0  0  0  0  0  0
   -0.8135   -5.0344   -3.5351 H   0  0  0  0  0  0  0  0  0  0  0  0
   -0.8703   -2.6365   -2.8770 H   0  0  0  0  0  0  0  0  0  0  0  0
   -1.6676   -3.6506   -1.6696 H   0  0  0  0  0  0  0  0  0  0  0  0
    1.1318   -3.4616   -4.4670 N   0  0  0  0  0  0  0  0  0  0  0  0
    2.2685   -3.0355   -5.2494 C   0  0  0  0  0  0  0  0  0  0  0  0
    0.2245   -3.0660   -4.6948 H   0  0  0  0  0  0  0  0  0  0  0  0
    2.7273   -2.1528   -4.7799 H   0  0  0  0  0  0  0  0  0  0  0  0
    3.0062   -3.8499   -5.2978 H   0  0  0  0  0  0  0  0  0  0  0  0
    1.9379   -2.7792   -6.2667 H   0  0  0  0  0  0  0  0  0  0  0  0
   -6.7256    2.0330   -0.2766 C   0  0  0  0  0  0  0  0  0  0  0  0
   -7.1824    1.1039   -0.9322 O   0  0  0  0  0  0  0  0  0  0  0  0
   -7.5276    2.6077    0.8435 C   0  0  0  0  0  0  0  0  0  0  0  0
   -8.1775    3.4344    0.5145 H   0  0  0  0  0  0  0  0  0  0  0  0
   -8.2057    1.8676    1.2980 H   0  0  0  0  0  0  0  0  0  0  0  0
   -6.9411    3.0162    1.6819 H   0  0  0  0  0  0  0  0  0  0  0  0
   -5.4935    2.6382   -0.4627 N   0  0  0  0  0  0  0  0  0  0  0  0
   -4.5619    2.2388   -1.4845 C   0  0  2  0  0  0  0  0  0  0  0  0
   -3.1535    2.4674   -0.9521 C   0  0  0  0  0  0  0  0  0  0  0  0
   -2.8634    3.3945   -0.1987 O   0  0  0  0  0  0  0  0  0  0  0  0
   -4.7883    3.0138   -2.7732 C   0  0  0  0  0  0  0  0  0  0  0  0
   -5.2337    3.4049    0.1551 H   0  0  0  0  0  0  0  0  0  0  0  0
   -4.7192    1.1682   -1.6549 H   0  0  0  0  0  0  0  0  0  0  0  0
   -4.6352    4.0886   -2.6221 H   0  0  0  0  0  0  0  0  0  0  0  0
   -4.0976    2.6887   -3.5582 H   0  0  0  0  0  0  0  0  0  0  0  0
   -5.8111    2.8719   -3.1387 H   0  0  0  0  0  0  0  0  0  0  0  0
   -2.2466    1.5400   -1.4507 N   0  0  0  0  0  0  0  0  0  0  0  0
   -0.8424    1.5707   -1.1286 C   0  0  2  0  0  0  0  0  0  0  0  0
   -0.1811    2.7060   -1.9074 C   0  0  0  0  0  0  0  0  0  0  0  0
    0.0780    2.6330   -3.1069 O   0  0  0  0  0  0  0  0  0  0  0  0
   -0.1661    0.2142   -1.3414 C   0  0  0  0  0  0  0  0  0  0  0  0
   -0.7707   -1.0834   -0.2352 S   0  0  0  0  0  0  0  0  0  0  0  0
   -2.5850    0.7815   -2.0381 H   0  0  0  0  0  0  0  0  0  0  0  0
   -0.7901    1.8259   -0.0628 H   0  0  0  0  0  0  0  0  0  0  0  0
   -0.3177   -0.1340   -2.3683 H   0  0  0  0  0  0  0  0  0  0  0  0
    0.9134    0.3060   -1.1797 H   0  0  0  0  0  0  0  0  0  0  0  0
    0.1072    3.7976   -1.1006 N   0  0  0  0  0  0  0  0  0  0  0  0
    0.7564    4.9865   -1.6015 C   0  0  2  0  0  0  0  0  0  0  0  0
    1.6083    5.5652   -0.4795 C   0  0  0  0  0  0  0  0  0  0  0  0
    1.2872    5.5057    0.7056 O   0  0  0  0  0  0  0  0  0  0  0  0
   -0.2592    6.0058   -2.0939 C   0  0  0  0  0  0  0  0  0  0  0  0
   -0.1816    3.7898   -0.1269 H   0  0  0  0  0  0  0  0  0  0  0  0
    1.4039    4.6697   -2.4263 H   0  0  0  0  0  0  0  0  0  0  0  0
   -0.9170    6.3351   -1.2813 H   0  0  0  0  0  0  0  0  0  0  0  0
    0.2354    6.8946   -2.4995 H   0  0  0  0  0  0  0  0  0  0  0  0
   -0.8907    5.5782   -2.8802 H   0  0  0  0  0  0  0  0  0  0  0  0
    2.7481    6.1939   -0.9608 N   0  0  0  0  0  0  0  0  0  0  0  0
    3.6959    6.8583   -0.0969 C   0  0  0  0  0  0  0  0  0  0  0  0
    2.9556    6.1601   -1.9546 H   0  0  0  0  0  0  0  0  0  0  0  0
    3.4326    7.9230   -0.0130 H   0  0  0  0  0  0  0  0  0  0  0  0
    3.6703    6.3947    0.9004 H   0  0  0  0  0  0  0  0  0  0  0  0
    4.7068    6.7629   -0.5197 H   0  0  0  0  0  0  0  0  0  0  0  0
  1  3  1  0  0  0  0
  1  7  1  0  0  0  0
  1  2  2  0  0  0  0
 23 25  1  0  0  0  0
 23 29  1  0  0  0  0
 23 24  2  0  0  0  0
 50 51  1  0  0  0  0
 51 59  1  0  0  0  0
 51 52  2  0  0  0  0
  8  9  1  0  0  0  0
  9 17  1  0  0  0  0
  9 10  2  0  0  0  0
 30 31  1  0  0  0  0
 31 39  1  0  0  0  0
 31 32  2  0  0  0  0
 40 41  1  0  0  0  0
 41 49  1  0  0  0  0
 41 42  2  0  0  0  0
 50 53  1  0  0  0  0
 30 33  1  0  0  0  0
 59 60  1  0  0  0  0
 17 18  1  0  0  0  0
  8 11  1  0  0  0  0
 11 12  1  0  0  0  0
 40 43  1  0  0  0  0
 43 44  1  0  0  0  0
 49 50  1  0  0  0  0
  7  8  1  0  0  0  0
 29 30  1  0  0  0  0
 39 40  1  0  0  0  0
 12 44  1  0  0  0  0
  3  4  1  0  0  0  0
  3  5  1  0  0  0  0
  3  6  1  0  0  0  0
 25 26  1  0  0  0  0
 25 27  1  0  0  0  0
 25 28  1  0  0  0  0
 53 56  1  0  0  0  0
 53 57  1  0  0  0  0
 53 58  1  0  0  0  0
 33 36  1  0  0  0  0
 33 37  1  0  0  0  0
 33 38  1  0  0  0  0
 60 62  1  0  0  0  0
 60 63  1  0  0  0  0
 60 64  1  0  0  0  0
 18 20  1  0  0  0  0
 18 21  1  0  0  0  0
 18 22  1  0  0  0  0
 11 15  1  0  0  0  0
 11 16  1  0  0  0  0
 43 47  1  0  0  0  0
 43 48  1  0  0  0  0
 50 55  1  0  0  0  0
  8 14  1  0  0  0  0
 30 35  1  0  0  0  0
 40 46  1  0  0  0  0
 59 61  1  0  0  0  0
 17 19  1  0  0  0  0
  7 13  1  0  0  0  0
 29 34  1  0  0  0  0
 49 54  1  0  0  0  0
 39 45  1  0  0  0  0
M  END
$$$$

  -OEChem-05262214473D

 64 63  0     1  0  0  0  0  0999 V2000
   -0.9544   -6.6737   -1.5709 C   0  0  0  0  0  0  0  0  0  0  0  0
   -2.0711   -6.7002   -2.0750 O   0  0  0  0  0  0  0  0  0  0  0  0
   -0.5755   -7.7110   -0.5665 C   0  0  0  0  0  0  0  0  0  0  0  0
   -0.8192   -7.4071    0.4643 H   0  0  0  0  0  0  0  0  0  0  0  0
   -1.1085   -8.6625   -0.7232 H   0  0  0  0  0  0  0  0  0  0  0  0
    0.4932   -7.9779   -0.5449 H   0  0  0  0  0  0  0  0  0  0  0  0
    0.0432   -5.7521   -1.8380 N   0  0  0  0  0  0  0  0  0  0  0  0
   -0.1108   -4.6690   -2.7759 C   0  0  2  0  0  0  0  0  0  0  0  0
    1.2276   -4.4204   -3.4684 C   0  0  0  0  0  0  0  0  0  0  0  0
    2.2647   -4.9977   -3.1481 O   0  0  0  0  0  0  0  0  0  0  0  0
   -0.7002   -3.4148   -2.1260 C   0  0  0  0  0  0  0  0  0  0  0  0
    0.3557   -2.6961   -0.8256 S   0  0  0  0  0  0  0  0  0  0  0  0
    0.9299   -5.8440   -1.3474 H   0  0  0  0  0  0  0  0  0  0  0  0
   -0.8135   -5.0344   -3.5351 H   0  0  0  0  0  0  0  0  0  0  0  0
   -0.8703   -2.6365   -2.8770 H   0  0  0  0  0  0  0  0  0  0  0  0
   -1.6676   -3.6506   -1.6696 H   0  0  0  0  0  0  0  0  0  0  0  0
    1.1318   -3.4616   -4.4670 N   0  0  0  0  0  0  0  0  0  0  0  0
    2.2685   -3.0355   -5.2494 C   0  0  0  0  0  0  0  0  0  0  0  0
    0.2245   -3.0660   -4.6948 H   0  0  0  0  0  0  0  0  0  0  0  0
    2.7273   -2.1528   -4.7799 H   0  0  0  0  0  0  0  0  0  0  0  0
    3.0062   -3.8499   -5.2978 H   0  0  0  0  0  0  0  0  0  0  0  0
    1.9379   -2.7792   -6.2667 H   0  0  0  0  0  0  0  0  0  0  0  0
   -6.7256    2.0330   -0.2766 C   0  0  0  0  0  0  0  0  0  0  0  0
   -7.1824    1.1039   -0.9322 O   0  0  0  0  0  0  0  0  0  0  0  0
   -7.5276    2.6077    0.8435 C   0  0  0  0  0  0  0  0  0  0  0  0
   -8.1775    3.4344    0.5145 H   0  0  0  0  0  0  0  0  0  0  0  0
   -8.2057    1.8676    1.2980 H   0  0  0  0  0  0  0  0  0  0  0  0
   -6.9411    3.0162    1.6819 H   0  0  0  0  0  0  0  0  0  0  0  0
   -5.4935    2.6382   -0.4627 N   0  0  0  0  0  0  0  0  0  0  0  0
   -4.5619    2.2388   -1.4845 C   0  0  2  0  0  0  0  0  0  0  0  0
   -3.1535    2.4674   -0.9521 C   0  0  0  0  0  0  0  0  0  0  0  0
   -2.8634    3.3945   -0.1987 O   0  0  0  0  0  0  0  0  0  0  0  0
   -4.7883    3.0138   -2.7732 C   0  0  0  0  0  0  0  0  0  0  0  0
   -5.2337    3.4049    0.1551 H   0  0  0  0  0  0  0  0  0  0  0  0
   -4.7192    1.1682   -1.6549 H   0  0  0  0  0  0  0  0  0  0  0  0
   -4.6352    4.0886   -2.6221 H   0  0  0  0  0  0  0  0  0  0  0  0
   -4.0976    2.6887   -3.5582 H   0  0  0  0  0  0  0  0  0  0  0  0
   -5.8111    2.8719   -3.1387 H   0  0  0  0  0  0  0  0  0  0  0  0
   -2.2466    1.5400   -1.4507 N   0  0  0  0  0  0  0  0  0  0  0  0
   -0.8424    1.5707   -1.1286 C   0  0  2  0  0  0  0  0  0  0  0  0
   -0.1811    2.7060   -1.9074 C   0  0  0  0  0  0  0  0  0  0  0  0
   -0.1613    2.7527   -3.1357 O   0  0  0  0  0  0  0  0  0  0  0  0
   -0.1661    0.2142   -1.3414 C   0  0  0  0  0  0  0  0  0  0  0  0
   -0.7707   -1.0834   -0.2352 S   0  0  0  0  0  0  0  0  0  0  0  0
   -2.5850    0.7815   -2.0381 H   0  0  0  0  0  0  0  0  0  0  0  0
   -0.7901    1.8259   -0.0628 H   0  0  0  0  0  0  0  0  0  0  0  0
   -0.3177   -0.1340   -2.3683 H   0  0  0  0  0  0  0  0  0  0  0  0
    0.9134    0.3060   -1.1797 H   0  0  0  0  0  0  0  0  0  0  0  0
    0.4044    3.6453   -1.0704 N   0  0  0  0  0  0  0  0  0  0  0  0
    1.1130    4.8001   -1.5705 C   0  0  2  0  0  0  0  0  0  0  0  0
    2.2314    5.1266   -0.5897 C   0  0  0  0  0  0  0  0  0  0  0  0
    2.1298    4.9588    0.6238 O   0  0  0  0  0  0  0  0  0  0  0  0
    0.1802    5.9882   -1.7464 C   0  0  0  0  0  0  0  0  0  0  0  0
    0.3025    3.5508   -0.0642 H   0  0  0  0  0  0  0  0  0  0  0  0
    1.5448    4.5128   -2.5353 H   0  0  0  0  0  0  0  0  0  0  0  0
   -0.2621    6.2905   -0.7901 H   0  0  0  0  0  0  0  0  0  0  0  0
    0.7131    6.8543   -2.1525 H   0  0  0  0  0  0  0  0  0  0  0  0
   -0.6403    5.7419   -2.4290 H   0  0  0  0  0  0  0  0  0  0  0  0
    3.3406    5.6680   -1.2244 N   0  0  0  0  0  0  0  0  0  0  0  0
    4.5167    6.0995   -0.5058 C   0  0  0  0  0  0  0  0  0  0  0  0
    3.3537    5.7337   -2.2380 H   0  0  0  0  0  0  0  0  0  0  0  0
    4.4285    7.1694   -0.2658 H   0  0  0  0  0  0  0  0  0  0  0  0
    4.6100    5.5215    0.4254 H   0  0  0  0  0  0  0  0  0  0  0  0
    5.4079    5.9361   -1.1296 H   0  0  0  0  0  0  0  0  0  0  0  0
  1  3  1  0  0  0  0
  1  7  1  0  0  0  0
  1  2  2  0  0  0  0
 23 25  1  0  0  0  0
 23 29  1  0  0  0  0
 23 24  2  0  0  0  0
 50 51  1  0  0  0  0
 51 59  1  0  0  0  0
 51 52  2  0  0  0  0
  8  9  1  0  0  0  0
  9 17  1  0  0  0  0
  9 10  2  0  0  0  0
 30 31  1  0  0  0  0
 31 39  1  0  0  0  0
 31 32  2  0  0  0  0
 40 41  1  0  0  0  0
 41 49  1  0  0  0  0
 41 42  2  0  0  0  0
 50 53  1  0  0  0  0
 30 33  1  0  0  0  0
 59 60  1  0  0  0  0
 17 18  1  0  0  0  0
  8 11  1  0  0  0  0
 11 12  1  0  0  0  0
 40 43  1  0  0  0  0
 43 44  1  0  0  0  0
 49 50  1  0  0  0  0
  7  8  1  0  0  0  0
 29 30  1  0  0  0  0
 39 40  1  0  0  0  0
 12 44  1  0  0  0  0
  3  4  1  0  0  0  0
  3  5  1  0  0  0  0
  3  6  1  0  0  0  0
 25 26  1  0  0  0  0
 25 27  1  0  0  0  0
 25 28  1  0  0  0  0
 53 56  1  0  0  0  0
 53 57  1  0  0  0  0
 53 58  1  0  0  0  0
 33 36  1  0  0  0  0
 33 37  1  0  0  0  0
 33 38  1  0  0  0  0
 60 62  1  0  0  0  0
 60 63  1  0  0  0  0
 60 64  1  0  0  0  0
 18 20  1  0  0  0  0
 18 21  1  0  0  0  0
 18 22  1  0  0  0  0
 11 15  1  0  0  0  0
 11 16  1  0  0  0  0
 43 47  1  0  0  0  0
 43 48  1  0  0  0  0
 50 55  1  0  0  0  0
  8 14  1  0  0  0  0
 30 35  1  0  0  0  0
 40 46  1  0  0  0  0
 59 61  1  0  0  0  0
 17 19  1  0  0  0  0
  7 13  1  0  0  0  0
 29 34  1  0  0  0  0
 49 54  1  0  0  0  0
 39 45  1  0  0  0  0
M  END
$$$$

  -OEChem-05262214473D

 64 63  0     1  0  0  0  0  0999 V2000
   -0.9544   -6.6737   -1.5709 C   0  0  0  0  0  0  0  0  0  0  0  0
   -2.0711   -6.7002   -2.0750 O   0  0  0  0  0  0  0  0  0  0  0  0
   -0.5755   -7.7110   -0.5665 C   0  0  0  0  0  0  0  0  0  0  0  0
   -0.8192   -7.4071    0.4643 H   0  0  0  0  0  0  0  0  0  0  0  0
   -1.1085   -8.6625   -0.7232 H   0  0  0  0  0  0  0  0  0  0  0  0
    0.4932   -7.9779   -0.5449 H   0  0  0  0  0  0  0  0  0  0  0  0
    0.0432   -5.7521   -1.8380 N   0  0  0  0  0  0  0  0  0  0  0  0
   -0.1108   -4.6690   -2.7759 C   0  0  2  0  0  0  0  0  0  0  0  0
    1.2276   -4.4204   -3.4684 C   0  0  0  0  0  0  0  0  0  0  0  0
    2.2647   -4.9977   -3.1481 O   0  0  0  0  0  0  0  0  0  0  0  0
   -0.7002   -3.4148   -2.1260 C   0  0  0  0  0  0  0  0  0  0  0  0
    0.3557   -2.6961   -0.8256 S   0  0  0  0  0  0  0  0  0  0  0  0
    0.9299   -5.8440   -1.3474 H   0  0  0  0  0  0  0  0  0  0  0  0
   -0.8135   -5.0344   -3.5351 H   0  0  0  0  0  0  0  0  0  0  0  0
   -0.8703   -2.6365   -2.8770 H   0  0  0  0  0  0  0  0  0  0  0  0
   -1.6676   -3.6506   -1.6696 H   0  0  0  0  0  0  0  0  0  0  0  0
    1.1318   -3.4616   -4.4670 N   0  0  0  0  0  0  0  0  0  0  0  0
    2.2685   -3.0355   -5.2494 C   0  0  0  0  0  0  0  0  0  0  0  0
    0.2245   -3.0660   -4.6948 H   0  0  0  0  0  0  0  0  0  0  0  0
    2.7273   -2.1528   -4.7799 H   0  0  0  0  0  0  0  0  0  0  0  0
    3.0062   -3.8499   -5.2978 H   0  0  0  0  0  0  0  0  0  0  0  0
    1.9379   -2.7792   -6.2667 H   0  0  0  0  0  0  0  0  0  0  0  0
   -6.7256    2.0330   -0.2766 C   0  0  0  0  0  0  0  0  0  0  0  0
   -7.1824    1.1039   -0.9322 O   0  0  0  0  0  0  0  0  0  0  0  0
   -7.5276    2.6077    0.8435 C   0  0  0  0  0  0  0  0  0  0  0  0
   -8.1775    3.4344    0.5145 H   0  0  0  0  0  0  0  0  0  0  0  0
   -8.2057    1.8676    1.2980 H   0  0  0  0  0  0  0  0  0  0  0  0
   -6.9411    3.0162    1.6819 H   0  0  0  0  0  0  0  0  0  0  0  0
   -5.4935    2.6382   -0.4627 N   0  0  0  0  0  0  0  0  0  0  0  0
   -4.5619    2.2388   -1.4845 C   0  0  2  0  0  0  0  0  0  0  0  0
   -3.1535    2.4674   -0.9521 C   0  0  0  0  0  0  0  0  0  0  0  0
   -2.8634    3.3945   -0.1987 O   0  0  0  0  0  0  0  0  0  0  0  0
   -4.7883    3.0138   -2.7732 C   0  0  0  0  0  0  0  0  0  0  0  0
   -5.2337    3.4049    0.1551 H   0  0  0  0  0  0  0  0  0  0  0  0
   -4.7192    1.1682   -1.6549 H   0  0  0  0  0  0  0  0  0  0  0  0
   -4.6352    4.0886   -2.6221 H   0  0  0  0  0  0  0  0  0  0  0  0
   -4.0976    2.6887   -3.5582 H   0  0  0  0  0  0  0  0  0  0  0  0
   -5.8111    2.8719   -3.1387 H   0  0  0  0  0  0  0  0  0  0  0  0
   -2.2466    1.5400   -1.4507 N   0  0  0  0  0  0  0  0  0  0  0  0
   -0.8424    1.5707   -1.1286 C   0  0  2  0  0  0  0  0  0  0  0  0
   -0.1811    2.7060   -1.9074 C   0  0  0  0  0  0  0  0  0  0  0  0
   -0.3823    2.9031   -3.1041 O   0  0  0  0  0  0  0  0  0  0  0  0
   -0.1661    0.2142   -1.3414 C   0  0  0  0  0  0  0  0  0  0  0  0
   -0.7707   -1.0834   -0.2352 S   0  0  0  0  0  0  0  0  0  0  0  0
   -2.5850    0.7815   -2.0381 H   0  0  0  0  0  0  0  0  0  0  0  0
   -0.7901    1.8259   -0.0628 H   0  0  0  0  0  0  0  0  0  0  0  0
   -0.3177   -0.1340   -2.3683 H   0  0  0  0  0  0  0  0  0  0  0  0
    0.9134    0.3060   -1.1797 H   0  0  0  0  0  0  0  0  0  0  0  0
    0.6771    3.4555   -1.1154 N   0  0  0  0  0  0  0  0  0  0  0  0
    1.4388    4.5694   -1.6300 C   0  0  2  0  0  0  0  0  0  0  0  0
    2.7542    4.6331   -0.8652 C   0  0  0  0  0  0  0  0  0  0  0  0
    2.8557    4.3284    0.3214 O   0  0  0  0  0  0  0  0  0  0  0  0
    0.6691    5.8743   -1.4972 C   0  0  0  0  0  0  0  0  0  0  0  0
    0.7506    3.2490   -0.1236 H   0  0  0  0  0  0  0  0  0  0  0  0
    1.6392    4.3549   -2.6854 H   0  0  0  0  0  0  0  0  0  0  0  0
    0.4590    6.1060   -0.4467 H   0  0  0  0  0  0  0  0  0  0  0  0
    1.2360    6.7135   -1.9137 H   0  0  0  0  0  0  0  0  0  0  0  0
   -0.2900    5.8163   -2.0230 H   0  0  0  0  0  0  0  0  0  0  0  0
    3.7927    5.1113   -1.6520 N   0  0  0  0  0  0  0  0  0  0  0  0
    5.1309    5.3041   -1.1438 C   0  0  0  0  0  0  0  0  0  0  0  0
    3.6275    5.3011   -2.6360 H   0  0  0  0  0  0  0  0  0  0  0  0
    5.2423    6.3384   -0.7861 H   0  0  0  0  0  0  0  0  0  0  0  0
    5.3110    4.6072   -0.3120 H   0  0  0  0  0  0  0  0  0  0  0  0
    5.8587    5.1133   -1.9462 H   0  0  0  0  0  0  0  0  0  0  0  0
  1  3  1  0  0  0  0
  1  7  1  0  0  0  0
  1  2  2  0  0  0  0
 23 25  1  0  0  0  0
 23 29  1  0  0  0  0
 23 24  2  0  0  0  0
 50 51  1  0  0  0  0
 51 59  1  0  0  0  0
 51 52  2  0  0  0  0
  8  9  1  0  0  0  0
  9 17  1  0  0  0  0
  9 10  2  0  0  0  0
 30 31  1  0  0  0  0
 31 39  1  0  0  0  0
 31 32  2  0  0  0  0
 40 41  1  0  0  0  0
 41 49  1  0  0  0  0
 41 42  2  0  0  0  0
 50 53  1  0  0  0  0
 30 33  1  0  0  0  0
 59 60  1  0  0  0  0
 17 18  1  0  0  0  0
  8 11  1  0  0  0  0
 11 12  1  0  0  0  0
 40 43  1  0  0  0  0
 43 44  1  0  0  0  0
 49 50  1  0  0  0  0
  7  8  1  0  0  0  0
 29 30  1  0  0  0  0
 39 40  1  0  0  0  0
 12 44  1  0  0  0  0
  3  4  1  0  0  0  0
  3  5  1  0  0  0  0
  3  6  1  0  0  0  0
 25 26  1  0  0  0  0
 25 27  1  0  0  0  0
 25 28  1  0  0  0  0
 53 56  1  0  0  0  0
 53 57  1  0  0  0  0
 53 58  1  0  0  0  0
 33 36  1  0  0  0  0
 33 37  1  0  0  0  0
 33 38  1  0  0  0  0
 60 62  1  0  0  0  0
 60 63  1  0  0  0  0
 60 64  1  0  0  0  0
 18 20  1  0  0  0  0
 18 21  1  0  0  0  0
 18 22  1  0  0  0  0
 11 15  1  0  0  0  0
 11 16  1  0  0  0  0
 43 47  1  0  0  0  0
 43 48  1  0  0  0  0
 50 55  1  0  0  0  0
  8 14  1  0  0  0  0
 30 35  1  0  0  0  0
 40 46  1  0  0  0  0
 59 61  1  0  0  0  0
 17 19  1  0  0  0  0
  7 13  1  0  0  0  0
 29 34  1  0  0  0  0
 49 54  1  0  0  0  0
 39 45  1  0  0  0  0
M  END
$$$$

  -OEChem-05262214473D

 64 63  0     1  0  0  0  0  0999 V2000
   -0.9544   -6.6737   -1.5709 C   0  0  0  0  0  0  0  0  0  0  0  0
   -2.0711   -6.7002   -2.0750 O   0  0  0  0  0  0  0  0  0  0  0  0
   -0.5755   -7.7110   -0.5665 C   0  0  0  0  0  0  0  0  0  0  0  0
   -0.8192   -7.4071    0.4643 H   0  0  0  0  0  0  0  0  0  0  0  0
   -1.1085   -8.6625   -0.7232 H   0  0  0  0  0  0  0  0  0  0  0  0
    0.4932   -7.9779   -0.5449 H   0  0  0  0  0  0  0  0  0  0  0  0
    0.0432   -5.7521   -1.8380 N   0  0  0  0  0  0  0  0  0  0  0  0
   -0.1108   -4.6690   -2.7759 C   0  0  2  0  0  0  0  0  0  0  0  0
    1.2276   -4.4204   -3.4684 C   0  0  0  0  0  0  0  0  0  0  0  0
    2.2647   -4.9977   -3.1481 O   0  0  0  0  0  0  0  0  0  0  0  0
   -0.7002   -3.4148   -2.1260 C   0  0  0  0  0  0  0  0  0  0  0  0
    0.3557   -2.6961   -0.8256 S   0  0  0  0  0  0  0  0  0  0  0  0
    0.9299   -5.8440   -1.3474 H   0  0  0  0  0  0  0  0  0  0  0  0
   -0.8135   -5.0344   -3.5351 H   0  0  0  0  0  0  0  0  0  0  0  0
   -0.8703   -2.6365   -2.8770 H   0  0  0  0  0  0  0  0  0  0  0  0
   -1.6676   -3.6506   -1.6696 H   0  0  0  0  0  0  0  0  0  0  0  0
    1.1318   -3.4616   -4.4670 N   0  0  0  0  0  0  0  0  0  0  0  0
    2.2685   -3.0355   -5.2494 C   0  0  0  0  0  0  0  0  0  0  0  0
    0.2245   -3.0660   -4.6948 H   0  0  0  0  0  0  0  0  0  0  0  0
    2.7273   -2.1528   -4.7799 H   0  0  0  0  0  0  0  0  0  0  0  0
    3.0062   -3.8499   -5.2978 H   0  0  0  0  0  0  0  0  0  0  0  0
    1.9379   -2.7792   -6.2667 H   0  0  0  0  0  0  0  0  0  0  0  0
   -6.7256    2.0330   -0.2766 C   0  0  0  0  0  0  0  0  0  0  0  0
   -7.1824    1.1039   -0.9322 O   0  0  0  0  0  0  0  0  0  0  0  0
   -7.5276    2.6077    0.8435 C   0  0  0  0  0  0  0  0  0  0  0  0
   -8.1775    3.4344    0.5145 H   0  0  0  0  0  0  0  0  0  0  0  0
   -8.2057    1.8676    1.2980 H   0  0  0  0  0  0  0  0  0  0  0  0
   -6.9411    3.0162    1.6819 H   0  0  0  0  0  0  0  0  0  0  0  0
   -5.4935    2.6382   -0.4627 N   0  0  0  0  0  0  0  0  0  0  0  0
   -4.5619    2.2388   -1.4845 C   0  0  2  0  0  0  0  0  0  0  0  0
   -3.1535    2.4674   -0.9521 C   0  0  0  0  0  0  0  0  0  0  0  0
   -2.8634    3.3945   -0.1987 O   0  0  0  0  0  0  0  0  0  0  0  0
   -4.7883    3.0138   -2.7732 C   0  0  0  0  0  0  0  0  0  0  0  0
   -5.2337    3.4049    0.1551 H   0  0  0  0  0  0  0  0  0  0  0  0
   -4.7192    1.1682   -1.6549 H   0  0  0  0  0  0  0  0  0  0  0  0
   -4.6352    4.0886   -2.6221 H   0  0  0  0  0  0  0  0  0  0  0  0
   -4.0976    2.6887   -3.5582 H   0  0  0  0  0  0  0  0  0  0  0  0
   -5.8111    2.8719   -3.1387 H   0  0  0  0  0  0  0  0  0  0  0  0
   -2.2466    1.5400   -1.4507 N   0  0  0  0  0  0  0  0  0  0  0  0
   -0.8424    1.5707   -1.1286 C   0  0  2  0  0  0  0  0  0  0  0  0
   -0.1811    2.7060   -1.9074 C   0  0  0  0  0  0  0  0  0  0  0  0
   -0.5697    3.0740   -3.0141 O   0  0  0  0  0  0  0  0  0  0  0  0
   -0.1661    0.2142   -1.3414 C   0  0  0  0  0  0  0  0  0  0  0  0
   -0.7707   -1.0834   -0.2352 S   0  0  0  0  0  0  0  0  0  0  0  0
   -2.5850    0.7815   -2.0381 H   0  0  0  0  0  0  0  0  0  0  0  0
   -0.7901    1.8259   -0.0628 H   0  0  0  0  0  0  0  0  0  0  0  0
   -0.3177   -0.1340   -2.3683 H   0  0  0  0  0  0  0  0  0  0  0  0
    0.9134    0.3060   -1.1797 H   0  0  0  0  0  0  0  0  0  0  0  0
    0.9069    3.2412   -1.2326 N   0  0  0  0  0  0  0  0  0  0  0  0
    1.7115    4.3103   -1.7760 C   0  0  2  0  0  0  0  0  0  0  0  0
    3.1411    4.1183   -1.2872 C   0  0  0  0  0  0  0  0  0  0  0  0
    3.4155    3.6576   -0.1810 O   0  0  0  0  0  0  0  0  0  0  0  0
    1.1743    5.6719   -1.3634 C   0  0  0  0  0  0  0  0  0  0  0  0
    1.1321    2.9051   -0.3010 H   0  0  0  0  0  0  0  0  0  0  0  0
    1.6807    4.2067   -2.8661 H   0  0  0  0  0  0  0  0  0  0  0  0
    1.1973    5.7942   -0.2744 H   0  0  0  0  0  0  0  0  0  0  0  0
    1.7685    6.4817   -1.7995 H   0  0  0  0  0  0  0  0  0  0  0  0
    0.1362    5.7965   -1.6899 H   0  0  0  0  0  0  0  0  0  0  0  0
    4.0738    4.5618   -2.2143 N   0  0  0  0  0  0  0  0  0  0  0  0
    5.4963    4.5263   -1.9673 C   0  0  0  0  0  0  0  0  0  0  0  0
    3.7584    4.8918   -3.1217 H   0  0  0  0  0  0  0  0  0  0  0  0
    5.8187    5.4866   -1.5384 H   0  0  0  0  0  0  0  0  0  0  0  0
    5.7256    3.7142   -1.2616 H   0  0  0  0  0  0  0  0  0  0  0  0
    6.0284    4.3506   -2.9139 H   0  0  0  0  0  0  0  0  0  0  0  0
  1  3  1  0  0  0  0
  1  7  1  0  0  0  0
  1  2  2  0  0  0  0
 23 25  1  0  0  0  0
 23 29  1  0  0  0  0
 23 24  2  0  0  0  0
 50 51  1  0  0  0  0
 51 59  1  0  0  0  0
 51 52  2  0  0  0  0
  8  9  1  0  0  0  0
  9 17  1  0  0  0  0
  9 10  2  0  0  0  0
 30 31  1  0  0  0  0
 31 39  1  0  0  0  0
 31 32  2  0  0  0  0
 40 41  1  0  0  0  0
 41 49  1  0  0  0  0
 41 42  2  0  0  0  0
 50 53  1  0  0  0  0
 30 33  1  0  0  0  0
 59 60  1  0  0  0  0
 17 18  1  0  0  0  0
  8 11  1  0  0  0  0
 11 12  1  0  0  0  0
 40 43  1  0  0  0  0
 43 44  1  0  0  0  0
 49 50  1  0  0  0  0
  7  8  1  0  0  0  0
 29 30  1  0  0  0  0
 39 40  1  0  0  0  0
 12 44  1  0  0  0  0
  3  4  1  0  0  0  0
  3  5  1  0  0  0  0
  3  6  1  0  0  0  0
 25 26  1  0  0  0  0
 25 27  1  0  0  0  0
 25 28  1  0  0  0  0
 53 56  1  0  0  0  0
 53 57  1  0  0  0  0
 53 58  1  0  0  0  0
 33 36  1  0  0  0  0
 33 37  1  0  0  0  0
 33 38  1  0  0  0  0
 60 62  1  0  0  0  0
 60 63  1  0  0  0  0
 60 64  1  0  0  0  0
 18 20  1  0  0  0  0
 18 21  1  0  0  0  0
 18 22  1  0  0  0  0
 11 15  1  0  0  0  0
 11 16  1  0  0  0  0
 43 47  1  0  0  0  0
 43 48  1  0  0  0  0
 50 55  1  0  0  0  0
  8 14  1  0  0  0  0
 30 35  1  0  0  0  0
 40 46  1  0  0  0  0
 59 61  1  0  0  0  0
 17 19  1  0  0  0  0
  7 13  1  0  0  0  0
 29 34  1  0  0  0  0
 49 54  1  0  0  0  0
 39 45  1  0  0  0  0
M  END
$$$$

  -OEChem-05262214473D

 64 63  0     1  0  0  0  0  0999 V2000
   -0.9544   -6.6737   -1.5709 C   0  0  0  0  0  0  0  0  0  0  0  0
   -2.0711   -6.7002   -2.0750 O   0  0  0  0  0  0  0  0  0  0  0  0
   -0.5755   -7.7110   -0.5665 C   0  0  0  0  0  0  0  0  0  0  0  0
   -0.8192   -7.4071    0.4643 H   0  0  0  0  0  0  0  0  0  0  0  0
   -1.1085   -8.6625   -0.7232 H   0  0  0  0  0  0  0  0  0  0  0  0
    0.4932   -7.9779   -0.5449 H   0  0  0  0  0  0  0  0  0  0  0  0
    0.0432   -5.7521   -1.8380 N   0  0  0  0  0  0  0  0  0  0  0  0
   -0.1108   -4.6690   -2.7759 C   0  0  2  0  0  0  0  0  0  0  0  0
    1.2276   -4.4204   -3.4684 C   0  0  0  0  0  0  0  0  0  0  0  0
    2.2647   -4.9977   -3.1481 O   0  0  0  0  0  0  0  0  0  0  0  0
   -0.7002   -3.4148   -2.1260 C   0  0  0  0  0  0  0  0  0  0  0  0
    0.3557   -2.6961   -0.8256 S   0  0  0  0  0  0  0  0  0  0  0  0
    0.9299   -5.8440   -1.3474 H   0  0  0  0  0  0  0  0  0  0  0  0
   -0.8135   -5.0344   -3.5351 H   0  0  0  0  0  0  0  0  0  0  0  0
   -0.8703   -2.6365   -2.8770 H   0  0  0  0  0  0  0  0  0  0  0  0
   -1.6676   -3.6506   -1.6696 H   0  0  0  0  0  0  0  0  0  0  0  0
    1.1318   -3.4616   -4.4670 N   0  0  0  0  0  0  0  0  0  0  0  0
    2.2685   -3.0355   -5.2494 C   0  0  0  0  0  0  0  0  0  0  0  0
    0.2245   -3.0660   -4.6948 H   0  0  0  0  0  0  0  0  0  0  0  0
    2.7273   -2.1528   -4.7799 H   0  0  0  0  0  0  0  0  0  0  0  0
    3.0062   -3.8499   -5.2978 H   0  0  0  0  0  0  0  0  0  0  0  0
    1.9379   -2.7792   -6.2667 H   0  0  0  0  0  0  0  0  0  0  0  0
   -6.7256    2.0330   -0.2766 C   0  0  0  0  0  0  0  0  0  0  0  0
   -7.1824    1.1039   -0.9322 O   0  0  0  0  0  0  0  0  0  0  0  0
   -7.5276    2.6077    0.8435 C   0  0  0  0  0  0  0  0  0  0  0  0
   -8.1775    3.4344    0.5145 H   0  0  0  0  0  0  0  0  0  0  0  0
   -8.2057    1.8676    1.2980 H   0  0  0  0  0  0  0  0  0  0  0  0
   -6.9411    3.0162    1.6819 H   0  0  0  0  0  0  0  0  0  0  0  0
   -5.4935    2.6382   -0.4627 N   0  0  0  0  0  0  0  0  0  0  0  0
   -4.5619    2.2388   -1.4845 C   0  0  2  0  0  0  0  0  0  0  0  0
   -3.1535    2.4674   -0.9521 C   0  0  0  0  0  0  0  0  0  0  0  0
   -2.8634    3.3945   -0.1987 O   0  0  0  0  0  0  0  0  0  0  0  0
   -4.7883    3.0138   -2.7732 C   0  0  0  0  0  0  0  0  0  0  0  0
   -5.2337    3.4049    0.1551 H   0  0  0  0  0  0  0  0  0  0  0  0
   -4.7192    1.1682   -1.6549 H   0  0  0  0  0  0  0  0  0  0  0  0
   -4.6352    4.0886   -2.6221 H   0  0  0  0  0  0  0  0  0  0  0  0
   -4.0976    2.6887   -3.5582 H   0  0  0  0  0  0  0  0  0  0  0  0
   -5.8111    2.8719   -3.1387 H   0  0  0  0  0  0  0  0  0  0  0  0
   -2.2466    1.5400   -1.4507 N   0  0  0  0  0  0  0  0  0  0  0  0
   -0.8424    1.5707   -1.1286 C   0  0  2  0  0  0  0  0  0  0  0  0
   -0.1811    2.7060   -1.9074 C   0  0  0  0  0  0  0  0  0  0  0  0
   -0.7110    3.2537   -2.8720 O   0  0  0  0  0  0  0  0  0  0  0  0
   -0.1661    0.2142   -1.3414 C   0  0  0  0  0  0  0  0  0  0  0  0
   -0.7707   -1.0834   -0.2352 S   0  0  0  0  0  0  0  0  0  0  0  0
   -2.5850    0.7815   -2.0381 H   0  0  0  0  0  0  0  0  0  0  0  0
   -0.7901    1.8259   -0.0628 H   0  0  0  0  0  0  0  0  0  0  0  0
   -0.3177   -0.1340   -2.3683 H   0  0  0  0  0  0  0  0  0  0  0  0
    0.9134    0.3060   -1.1797 H   0  0  0  0  0  0  0  0  0  0  0  0
    1.0780    3.0170   -1.4140 N   0  0  0  0  0  0  0  0  0  0  0  0
    1.9128    4.0404   -1.9986 C   0  0  2  0  0  0  0  0  0  0  0  0
    3.3656    3.6172   -1.8269 C   0  0  0  0  0  0  0  0  0  0  0  0
    3.7711    2.9921   -0.8492 O   0  0  0  0  0  0  0  0  0  0  0  0
    1.6613    5.3947   -1.3540 C   0  0  0  0  0  0  0  0  0  0  0  0
    1.4212    2.5423   -0.5843 H   0  0  0  0  0  0  0  0  0  0  0  0
    1.6665    4.0783   -3.0654 H   0  0  0  0  0  0  0  0  0  0  0  0
    1.9025    5.3762   -0.2849 H   0  0  0  0  0  0  0  0  0  0  0  0
    2.2741    6.1747   -1.8176 H   0  0  0  0  0  0  0  0  0  0  0  0
    0.6094    5.6838   -1.4524 H   0  0  0  0  0  0  0  0  0  0  0  0
    4.1645    4.0570   -2.8731 N   0  0  0  0  0  0  0  0  0  0  0  0
    5.5883    3.8190   -2.9202 C   0  0  0  0  0  0  0  0  0  0  0  0
    3.7373    4.5335   -3.6619 H   0  0  0  0  0  0  0  0  0  0  0  0
    6.1182    4.6720   -2.4714 H   0  0  0  0  0  0  0  0  0  0  0  0
    5.8256    2.9034   -2.3587 H   0  0  0  0  0  0  0  0  0  0  0  0
    5.9055    3.6999   -3.9668 H   0  0  0  0  0  0  0  0  0  0  0  0
  1  3  1  0  0  0  0
  1  7  1  0  0  0  0
  1  2  2  0  0  0  0
 23 25  1  0  0  0  0
 23 29  1  0  0  0  0
 23 24  2  0  0  0  0
 50 51  1  0  0  0  0
 51 59  1  0  0  0  0
 51 52  2  0  0  0  0
  8  9  1  0  0  0  0
  9 17  1  0  0  0  0
  9 10  2  0  0  0  0
 30 31  1  0  0  0  0
 31 39  1  0  0  0  0
 31 32  2  0  0  0  0
 40 41  1  0  0  0  0
 41 49  1  0  0  0  0
 41 42  2  0  0  0  0
 50 53  1  0  0  0  0
 30 33  1  0  0  0  0
 59 60  1  0  0  0  0
 17 18  1  0  0  0  0
  8 11  1  0  0  0  0
 11 12  1  0  0  0  0
 40 43  1  0  0  0  0
 43 44  1  0  0  0  0
 49 50  1  0  0  0  0
  7  8  1  0  0  0  0
 29 30  1  0  0  0  0
 39 40  1  0  0  0  0
 12 44  1  0  0  0  0
  3  4  1  0  0  0  0
  3  5  1  0  0  0  0
  3  6  1  0  0  0  0
 25 26  1  0  0  0  0
 25 27  1  0  0  0  0
 25 28  1  0  0  0  0
 53 56  1  0  0  0  0
 53 57  1  0  0  0  0
 53 58  1  0  0  0  0
 33 36  1  0  0  0  0
 33 37  1  0  0  0  0
 33 38  1  0  0  0  0
 60 62  1  0  0  0  0
 60 63  1  0  0  0  0
 60 64  1  0  0  0  0
 18 20  1  0  0  0  0
 18 21  1  0  0  0  0
 18 22  1  0  0  0  0
 11 15  1  0  0  0  0
 11 16  1  0  0  0  0
 43 47  1  0  0  0  0
 43 48  1  0  0  0  0
 50 55  1  0  0  0  0
  8 14  1  0  0  0  0
 30 35  1  0  0  0  0
 40 46  1  0  0  0  0
 59 61  1  0  0  0  0
 17 19  1  0  0  0  0
  7 13  1  0  0  0  0
 29 34  1  0  0  0  0
 49 54  1  0  0  0  0
 39 45  1  0  0  0  0
M  END
$$$$

  -OEChem-05262214473D

 64 63  0     1  0  0  0  0  0999 V2000
   -0.4888   -6.2880   -3.6374 C   0  0  0  0  0  0  0  0  0  0  0  0
   -1.6085   -6.2520   -4.1340 O   0  0  0  0  0  0  0  0  0  0  0  0
   -0.0383   -7.5209   -2.9266 C   0  0  0  0  0  0  0  0  0  0  0  0
   -0.2855   -7.5014   -1.8530 H   0  0  0  0  0  0  0  0  0  0  0  0
   -0.5180   -8.4317   -3.3194 H   0  0  0  0  0  0  0  0  0  0  0  0
    1.0441   -7.7216   -2.9710 H   0  0  0  0  0  0  0  0  0  0  0  0
    0.4510   -5.2720   -3.6614 N   0  0  0  0  0  0  0  0  0  0  0  0
    0.2232   -3.9985   -4.2960 C   0  0  2  0  0  0  0  0  0  0  0  0
    1.5362   -3.5053   -4.9007 C   0  0  0  0  0  0  0  0  0  0  0  0
    2.6086   -4.0830   -4.7345 O   0  0  0  0  0  0  0  0  0  0  0  0
   -0.4284   -2.9853   -3.3516 C   0  0  0  0  0  0  0  0  0  0  0  0
    0.6015   -2.5570   -1.9099 S   0  0  0  0  0  0  0  0  0  0  0  0
    1.3478   -5.4325   -3.2082 H   0  0  0  0  0  0  0  0  0  0  0  0
   -0.4672   -4.2012   -5.1241 H   0  0  0  0  0  0  0  0  0  0  0  0
   -0.6524   -2.0541   -3.8822 H   0  0  0  0  0  0  0  0  0  0  0  0
   -1.3748   -3.3847   -2.9713 H   0  0  0  0  0  0  0  0  0  0  0  0
    1.3728   -2.3332   -5.6252 N   0  0  0  0  0  0  0  0  0  0  0  0
    2.4731   -1.6577   -6.2725 C   0  0  0  0  0  0  0  0  0  0  0  0
    0.4415   -1.9467   -5.7475 H   0  0  0  0  0  0  0  0  0  0  0  0
    2.8867   -0.8966   -5.5946 H   0  0  0  0  0  0  0  0  0  0  0  0
    3.2555   -2.3891   -6.5236 H   0  0  0  0  0  0  0  0  0  0  0  0
    2.1152   -1.1732   -7.1929 H   0  0  0  0  0  0  0  0  0  0  0  0
   -6.7256    2.0330   -0.2766 C   0  0  0  0  0  0  0  0  0  0  0  0
   -7.1824    1.1039   -0.9322 O   0  0  0  0  0  0  0  0  0  0  0  0
   -7.5276    2.6077    0.8435 C   0  0  0  0  0  0  0  0  0  0  0  0
   -8.1775    3.4344    0.5145 H   0  0  0  0  0  0  0  0  0  0  0  0
   -8.2057    1.8676    1.2980 H   0  0  0  0  0  0  0  0  0  0  0  0
   -6.9411    3.0162    1.6819 H   0  0  0  0  0  0  0  0  0  0  0  0
   -5.4935    2.6382   -0.4627 N   0  0  0  0  0  0  0  0  0  0  0  0
   -4.5619    2.2388   -1.4845 C   0  0  2  0  0  0  0  0  0  0  0  0
   -3.1535    2.4674   -0.9521 C   0  0  0  0  0  0  0  0  0  0  0  0
   -2.8634    3.3945   -0.1987 O   0  0  0  0  0  0  0  0  0  0  0  0
   -4.7883    3.0138   -2.7732 C   0  0  0  0  0  0  0  0  0  0  0  0
   -5.2337    3.4049    0.1551 H   0  0  0  0  0  0  0  0  0  0  0  0
   -4.7192    1.1682   -1.6549 H   0  0  0  0  0  0  0  0  0  0  0  0
   -4.6352    4.0886   -2.6221 H   0  0  0  0  0  0  0  0  0  0  0  0
   -4.0976    2.6887   -3.5582 H   0  0  0  0  0  0  0  0  0  0  0  0
   -5.8111    2.8719   -3.1387 H   0  0  0  0  0  0  0  0  0  0  0  0
   -2.2466    1.5400   -1.4507 N   0  0  0  0  0  0  0  0  0  0  0  0
   -0.8424    1.5707   -1.1286 C   0  0  2  0  0  0  0  0  0  0  0  0
   -0.2572    2.9023   -1.5944 C   0  0  0  0  0  0  0  0  0  0  0  0
   -0.9228    3.7623   -2.1677 O   0  0  0  0  0  0  0  0  0  0  0  0
   -0.0925    0.3536   -1.6755 C   0  0  0  0  0  0  0  0  0  0  0  0
   -0.6076   -1.2139   -0.9338 S   0  0  0  0  0  0  0  0  0  0  0  0
   -2.5850    0.7815   -2.0381 H   0  0  0  0  0  0  0  0  0  0  0  0
   -0.7910    1.5517   -0.0328 H   0  0  0  0  0  0  0  0  0  0  0  0
   -0.2372    0.2672   -2.7574 H   0  0  0  0  0  0  0  0  0  0  0  0
    0.9820    0.4648   -1.4938 H   0  0  0  0  0  0  0  0  0  0  0  0
    1.0985    3.0056   -1.3169 N   0  0  0  0  0  0  0  0  0  0  0  0
    1.8827    4.1620   -1.6826 C   0  0  2  0  0  0  0  0  0  0  0  0
    3.2971    3.6914   -1.9946 C   0  0  0  0  0  0  0  0  0  0  0  0
    3.8374    2.7557   -1.4085 O   0  0  0  0  0  0  0  0  0  0  0  0
    1.8879    5.2008   -0.5720 C   0  0  0  0  0  0  0  0  0  0  0  0
    1.5610    2.2636   -0.8000 H   0  0  0  0  0  0  0  0  0  0  0  0
    1.4279    4.5790   -2.5878 H   0  0  0  0  0  0  0  0  0  0  0  0
    2.3399    4.8010    0.3431 H   0  0  0  0  0  0  0  0  0  0  0  0
    2.4592    6.0888   -0.8620 H   0  0  0  0  0  0  0  0  0  0  0  0
    0.8676    5.5161   -0.3284 H   0  0  0  0  0  0  0  0  0  0  0  0
    3.9009    4.4669   -2.9746 N   0  0  0  0  0  0  0  0  0  0  0  0
    5.2585    4.2476   -3.4159 C   0  0  0  0  0  0  0  0  0  0  0  0
    3.3649    5.1967   -3.4349 H   0  0  0  0  0  0  0  0  0  0  0  0
    5.9417    4.8801   -2.8302 H   0  0  0  0  0  0  0  0  0  0  0  0
    5.5243    3.1899   -3.2721 H   0  0  0  0  0  0  0  0  0  0  0  0
    5.3436    4.5054   -4.4819 H   0  0  0  0  0  0  0  0  0  0  0  0
  1  3  1  0  0  0  0
  1  7  1  0  0  0  0
  1  2  2  0  0  0  0
 23 25  1  0  0  0  0
 23 29  1  0  0  0  0
 23 24  2  0  0  0  0
 50 51  1  0  0  0  0
 51 59  1  0  0  0  0
 51 52  2  0  0  0  0
  8  9  1  0  0  0  0
  9 17  1  0  0  0  0
  9 10  2  0  0  0  0
 30 31  1  0  0  0  0
 31 39  1  0  0  0  0
 31 32  2  0  0  0  0
 40 41  1  0  0  0  0
 41 49  1  0  0  0  0
 41 42  2  0  0  0  0
 50 53  1  0  0  0  0
 30 33  1  0  0  0  0
 59 60  1  0  0  0  0
 17 18  1  0  0  0  0
  8 11  1  0  0  0  0
 11 12  1  0  0  0  0
 40 43  1  0  0  0  0
 43 44  1  0  0  0  0
 49 50  1  0  0  0  0
  7  8  1  0  0  0  0
 29 30  1  0  0  0  0
 39 40  1  0  0  0  0
 12 44  1  0  0  0  0
  3  4  1  0  0  0  0
  3  5  1  0  0  0  0
  3  6  1  0  0  0  0
 25 26  1  0  0  0  0
 25 27  1  0  0  0  0
 25 28  1  0  0  0  0
 53 56  1  0  0  0  0
 53 57  1  0  0  0  0
 53 58  1  0  0  0  0
 33 36  1  0  0  0  0
 33 37  1  0  0  0  0
 33 38  1  0  0  0  0
 60 62  1  0  0  0  0
 60 63  1  0  0  0  0
 60 64  1  0  0  0  0
 18 20  1  0  0  0  0
 18 21  1  0  0  0  0
 18 22  1  0  0  0  0
 11 15  1  0  0  0  0
 11 16  1  0  0  0  0
 43 47  1  0  0  0  0
 43 48  1  0  0  0  0
 50 55  1  0  0  0  0
  8 14  1  0  0  0  0
 30 35  1  0  0  0  0
 40 46  1  0  0  0  0
 59 61  1  0  0  0  0
 17 19  1  0  0  0  0
  7 13  1  0  0  0  0
 29 34  1  0  0  0  0
 49 54  1  0  0  0  0
 39 45  1  0  0  0  0
M  END
$$$$

  -OEChem-05262214473D

 64 63  0     1  0  0  0  0  0999 V2000
   -0.4888   -6.2880   -3.6374 C   0  0  0  0  0  0  0  0  0  0  0  0
   -1.6085   -6.2520   -4.1340 O   0  0  0  0  0  0  0  0  0  0  0  0
   -0.0383   -7.5209   -2.9266 C   0  0  0  0  0  0  0  0  0  0  0  0
   -0.2855   -7.5014   -1.8530 H   0  0  0  0  0  0  0  0  0  0  0  0
   -0.5180   -8.4317   -3.3194 H   0  0  0  0  0  0  0  0  0  0  0  0
    1.0441   -7.7216   -2.9710 H   0  0  0  0  0  0  0  0  0  0  0  0
    0.4510   -5.2720   -3.6614 N   0  0  0  0  0  0  0  0  0  0  0  0
    0.2232   -3.9985   -4.2960 C   0  0  2  0  0  0  0  0  0  0  0  0
    1.5362   -3.5053   -4.9007 C   0  0  0  0  0  0  0  0  0  0  0  0
    2.6086   -4.0830   -4.7345 O   0  0  0  0  0  0  0  0  0  0  0  0
   -0.4284   -2.9853   -3.3516 C   0  0  0  0  0  0  0  0  0  0  0  0
    0.6015   -2.5570   -1.9099 S   0  0  0  0  0  0  0  0  0  0  0  0
    1.3478   -5.4325   -3.2082 H   0  0  0  0  0  0  0  0  0  0  0  0
   -0.4672   -4.2012   -5.1241 H   0  0  0  0  0  0  0  0  0  0  0  0
   -0.6524   -2.0541   -3.8822 H   0  0  0  0  0  0  0  0  0  0  0  0
   -1.3748   -3.3847   -2.9713 H   0  0  0  0  0  0  0  0  0  0  0  0
    1.3728   -2.3332   -5.6252 N   0  0  0  0  0  0  0  0  0  0  0  0
    2.4731   -1.6577   -6.2725 C   0  0  0  0  0  0  0  0  0  0  0  0
    0.4415   -1.9467   -5.7475 H   0  0  0  0  0  0  0  0  0  0  0  0
    2.8867   -0.8966   -5.5946 H   0  0  0  0  0  0  0  0  0  0  0  0
    3.2555   -2.3891   -6.5236 H   0  0  0  0  0  0  0  0  0  0  0  0
    2.1152   -1.1732   -7.1929 H   0  0  0  0  0  0  0  0  0  0  0  0
   -6.7256    2.0330   -0.2766 C   0  0  0  0  0  0  0  0  0  0  0  0
   -7.1824    1.1039   -0.9322 O   0  0  0  0  0  0  0  0  0  0  0  0
   -7.5276    2.6077    0.8435 C   0  0  0  0  0  0  0  0  0  0  0  0
   -8.1775    3.4344    0.5145 H   0  0  0  0  0  0  0  0  0  0  0  0
   -8.2057    1.8676    1.2980 H   0  0  0  0  0  0  0  0  0  0  0  0
   -6.9411    3.0162    1.6819 H   0  0  0  0  0  0  0  0  0  0  0  0
   -5.4935    2.6382   -0.4627 N   0  0  0  0  0  0  0  0  0  0  0  0
   -4.5619    2.2388   -1.4845 C   0  0  2  0  0  0  0  0  0  0  0  0
   -3.1535    2.4674   -0.9521 C   0  0  0  0  0  0  0  0  0  0  0  0
   -2.8634    3.3945   -0.1987 O   0  0  0  0  0  0  0  0  0  0  0  0
   -4.7883    3.0138   -2.7732 C   0  0  0  0  0  0  0  0  0  0  0  0
   -5.2337    3.4049    0.1551 H   0  0  0  0  0  0  0  0  0  0  0  0
   -4.7192    1.1682   -1.6549 H   0  0  0  0  0  0  0  0  0  0  0  0
   -4.6352    4.0886   -2.6221 H   0  0  0  0  0  0  0  0  0  0  0  0
   -4.0976    2.6887   -3.5582 H   0  0  0  0  0  0  0  0  0  0  0  0
   -5.8111    2.8719   -3.1387 H   0  0  0  0  0  0  0  0  0  0  0  0
   -2.2466    1.5400   -1.4507 N   0  0  0  0  0  0  0  0  0  0  0  0
   -0.8424    1.5707   -1.1286 C   0  0  2  0  0  0  0  0  0  0  0  0
   -0.2572    2.9023   -1.5944 C   0  0  0  0  0  0  0  0  0  0  0  0
   -0.9529    3.8623   -1.9196 O   0  0  0  0  0  0  0  0  0  0  0  0
   -0.0925    0.3536   -1.6755 C   0  0  0  0  0  0  0  0  0  0  0  0
   -0.6076   -1.2139   -0.9338 S   0  0  0  0  0  0  0  0  0  0  0  0
   -2.5850    0.7815   -2.0381 H   0  0  0  0  0  0  0  0  0  0  0  0
   -0.7910    1.5517   -0.0328 H   0  0  0  0  0  0  0  0  0  0  0  0
   -0.2372    0.2672   -2.7574 H   0  0  0  0  0  0  0  0  0  0  0  0
    0.9820    0.4648   -1.4938 H   0  0  0  0  0  0  0  0  0  0  0  0
    1.1299    2.8831   -1.6275 N   0  0  0  0  0  0  0  0  0  0  0  0
    1.9147    4.0167   -2.0578 C   0  0  2  0  0  0  0  0  0  0  0  0
    3.1764    3.4882   -2.7274 C   0  0  0  0  0  0  0  0  0  0  0  0
    3.7463    2.4602   -2.3677 O   0  0  0  0  0  0  0  0  0  0  0  0
    2.2598    4.9264   -0.8891 C   0  0  0  0  0  0  0  0  0  0  0  0
    1.6265    2.0600   -1.2996 H   0  0  0  0  0  0  0  0  0  0  0  0
    1.3102    4.5590   -2.7930 H   0  0  0  0  0  0  0  0  0  0  0  0
    2.8654    4.4004   -0.1420 H   0  0  0  0  0  0  0  0  0  0  0  0
    2.8303    5.8000   -1.2213 H   0  0  0  0  0  0  0  0  0  0  0  0
    1.3516    5.2817   -0.3903 H   0  0  0  0  0  0  0  0  0  0  0  0
    3.6153    4.3226   -3.7459 N   0  0  0  0  0  0  0  0  0  0  0  0
    4.8158    4.0611   -4.5050 C   0  0  0  0  0  0  0  0  0  0  0  0
    3.0589    5.1325   -4.0030 H   0  0  0  0  0  0  0  0  0  0  0  0
    5.6662    4.5790   -4.0373 H   0  0  0  0  0  0  0  0  0  0  0  0
    5.0103    2.9786   -4.5220 H   0  0  0  0  0  0  0  0  0  0  0  0
    4.6854    4.4264   -5.5344 H   0  0  0  0  0  0  0  0  0  0  0  0
  1  3  1  0  0  0  0
  1  7  1  0  0  0  0
  1  2  2  0  0  0  0
 23 25  1  0  0  0  0
 23 29  1  0  0  0  0
 23 24  2  0  0  0  0
 50 51  1  0  0  0  0
 51 59  1  0  0  0  0
 51 52  2  0  0  0  0
  8  9  1  0  0  0  0
  9 17  1  0  0  0  0
  9 10  2  0  0  0  0
 30 31  1  0  0  0  0
 31 39  1  0  0  0  0
 31 32  2  0  0  0  0
 40 41  1  0  0  0  0
 41 49  1  0  0  0  0
 41 42  2  0  0  0  0
 50 53  1  0  0  0  0
 30 33  1  0  0  0  0
 59 60  1  0  0  0  0
 17 18  1  0  0  0  0
  8 11  1  0  0  0  0
 11 12  1  0  0  0  0
 40 43  1  0  0  0  0
 43 44  1  0  0  0  0
 49 50  1  0  0  0  0
  7  8  1  0  0  0  0
 29 30  1  0  0  0  0
 39 40  1  0  0  0  0
 12 44  1  0  0  0  0
  3  4  1  0  0  0  0
  3  5  1  0  0  0  0
  3  6  1  0  0  0  0
 25 26  1  0  0  0  0
 25 27  1  0  0  0  0
 25 28  1  0  0  0  0
 53 56  1  0  0  0  0
 53 57  1  0  0  0  0
 53 58  1  0  0  0  0
 33 36  1  0  0  0  0
 33 37  1  0  0  0  0
 33 38  1  0  0  0  0
 60 62  1  0  0  0  0
 60 63  1  0  0  0  0
 60 64  1  0  0  0  0
 18 20  1  0  0  0  0
 18 21  1  0  0  0  0
 18 22  1  0  0  0  0
 11 15  1  0  0  0  0
 11 16  1  0  0  0  0
 43 47  1  0  0  0  0
 43 48  1  0  0  0  0
 50 55  1  0  0  0  0
  8 14  1  0  0  0  0
 30 35  1  0  0  0  0
 40 46  1  0  0  0  0
 59 61  1  0  0  0  0
 17 19  1  0  0  0  0
  7 13  1  0  0  0  0
 29 34  1  0  0  0  0
 49 54  1  0  0  0  0
 39 45  1  0  0  0  0
M  END
$$$$

  -OEChem-05262214473D

 64 63  0     1  0  0  0  0  0999 V2000
   -0.4888   -6.2880   -3.6374 C   0  0  0  0  0  0  0  0  0  0  0  0
   -1.6085   -6.2520   -4.1340 O   0  0  0  0  0  0  0  0  0  0  0  0
   -0.0383   -7.5209   -2.9266 C   0  0  0  0  0  0  0  0  0  0  0  0
   -0.2855   -7.5014   -1.8530 H   0  0  0  0  0  0  0  0  0  0  0  0
   -0.5180   -8.4317   -3.3194 H   0  0  0  0  0  0  0  0  0  0  0  0
    1.0441   -7.7216   -2.9710 H   0  0  0  0  0  0  0  0  0  0  0  0
    0.4510   -5.2720   -3.6614 N   0  0  0  0  0  0  0  0  0  0  0  0
    0.2232   -3.9985   -4.2960 C   0  0  2  0  0  0  0  0  0  0  0  0
    1.5362   -3.5053   -4.9007 C   0  0  0  0  0  0  0  0  0  0  0  0
    2.6086   -4.0830   -4.7345 O   0  0  0  0  0  0  0  0  0  0  0  0
   -0.4284   -2.9853   -3.3516 C   0  0  0  0  0  0  0  0  0  0  0  0
    0.6015   -2.5570   -1.9099 S   0  0  0  0  0  0  0  0  0  0  0  0
    1.3478   -5.4325   -3.2082 H   0  0  0  0  0  0  0  0  0  0  0  0
   -0.4672   -4.2012   -5.1241 H   0  0  0  0  0  0  0  0  0  0  0  0
   -0.6524   -2.0541   -3.8822 H   0  0  0  0  0  0  0  0  0  0  0  0
   -1.3748   -3.3847   -2.9713 H   0  0  0  0  0  0  0  0  0  0  0  0
    1.3728   -2.3332   -5.6252 N   0  0  0  0  0  0  0  0  0  0  0  0
    2.4731   -1.6577   -6.2725 C   0  0  0  0  0  0  0  0  0  0  0  0
    0.4415   -1.9467   -5.7475 H   0  0  0  0  0  0  0  0  0  0  0  0
    2.8867   -0.8966   -5.5946 H   0  0  0  0  0  0  0  0  0  0  0  0
    3.2555   -2.3891   -6.5236 H   0  0  0  0  0  0  0  0  0  0  0  0
    2.1152   -1.1732   -7.1929 H   0  0  0  0  0  0  0  0  0  0  0  0
   -6.7256    2.0330   -0.2766 C   0  0  0  0  0  0  0  0  0  0  0  0
   -7.1824    1.1039   -0.9322 O   0  0  0  0  0  0  0  0  0  0  0  0
   -7.5276    2.6077    0.8435 C   0  0  0  0  0  0  0  0  0  0  0  0
   -8.1775    3.4344    0.5145 H   0  0  0  0  0  0  0  0  0  0  0  0
   -8.2057    1.8676    1.2980 H   0  0  0  0  0  0  0  0  0  0  0  0
   -6.9411    3.0162    1.6819 H   0  0  0  0  0  0  0  0  0  0  0  0
   -5.4935    2.6382   -0.4627 N   0  0  0  0  0  0  0  0  0  0  0  0
   -4.5619    2.2388   -1.4845 C   0  0  2  0  0  0  0  0  0  0  0  0
   -3.1535    2.4674   -0.9521 C   0  0  0  0  0  0  0  0  0  0  0  0
   -2.8634    3.3945   -0.1987 O   0  0  0  0  0  0  0  0  0  0  0  0
   -4.7883    3.0138   -2.7732 C   0  0  0  0  0  0  0  0  0  0  0  0
   -5.2337    3.4049    0.1551 H   0  0  0  0  0  0  0  0  0  0  0  0
   -4.7192    1.1682   -1.6549 H   0  0  0  0  0  0  0  0  0  0  0  0
   -4.6352    4.0886   -2.6221 H   0  0  0  0  0  0  0  0  0  0  0  0
   -4.0976    2.6887   -3.5582 H   0  0  0  0  0  0  0  0  0  0  0  0
   -5.8111    2.8719   -3.1387 H   0  0  0  0  0  0  0  0  0  0  0  0
   -2.2466    1.5400   -1.4507 N   0  0  0  0  0  0  0  0  0  0  0  0
   -0.8424    1.5707   -1.1286 C   0  0  2  0  0  0  0  0  0  0  0  0
   -0.2572    2.9023   -1.5944 C   0  0  0  0  0  0  0  0  0  0  0  0
   -0.9180    3.9367   -1.6633 O   0  0  0  0  0  0  0  0  0  0  0  0
   -0.0925    0.3536   -1.6755 C   0  0  0  0  0  0  0  0  0  0  0  0
   -0.6076   -1.2139   -0.9338 S   0  0  0  0  0  0  0  0  0  0  0  0
   -2.5850    0.7815   -2.0381 H   0  0  0  0  0  0  0  0  0  0  0  0
   -0.7910    1.5517   -0.0328 H   0  0  0  0  0  0  0  0  0  0  0  0
   -0.2372    0.2672   -2.7574 H   0  0  0  0  0  0  0  0  0  0  0  0
    0.9820    0.4648   -1.4938 H   0  0  0  0  0  0  0  0  0  0  0  0
    1.0805    2.7932   -1.9467 N   0  0  0  0  0  0  0  0  0  0  0  0
    1.8494    3.9110   -2.4418 C   0  0  2  0  0  0  0  0  0  0  0  0
    2.8783    3.3741   -3.4280 C   0  0  0  0  0  0  0  0  0  0  0  0
    3.4186    2.2770   -3.3030 O   0  0  0  0  0  0  0  0  0  0  0  0
    2.5258    4.6635   -1.3065 C   0  0  0  0  0  0  0  0  0  0  0  0
    1.5610    1.9077   -1.8172 H   0  0  0  0  0  0  0  0  0  0  0  0
    1.1485    4.5693   -2.9665 H   0  0  0  0  0  0  0  0  0  0  0  0
    3.2318    4.0200   -0.7690 H   0  0  0  0  0  0  0  0  0  0  0  0
    3.0850    5.5274   -1.6807 H   0  0  0  0  0  0  0  0  0  0  0  0
    1.7867    5.0233   -0.5826 H   0  0  0  0  0  0  0  0  0  0  0  0
    3.1541    4.2822   -4.4407 N   0  0  0  0  0  0  0  0  0  0  0  0
    4.1278    4.0240   -5.4756 C   0  0  0  0  0  0  0  0  0  0  0  0
    2.6300    5.1510   -4.4891 H   0  0  0  0  0  0  0  0  0  0  0  0
    5.1039    4.4295   -5.1709 H   0  0  0  0  0  0  0  0  0  0  0  0
    4.2151    2.9390   -5.6343 H   0  0  0  0  0  0  0  0  0  0  0  0
    3.8060    4.5065   -6.4103 H   0  0  0  0  0  0  0  0  0  0  0  0
  1  3  1  0  0  0  0
  1  7  1  0  0  0  0
  1  2  2  0  0  0  0
 23 25  1  0  0  0  0
 23 29  1  0  0  0  0
 23 24  2  0  0  0  0
 50 51  1  0  0  0  0
 51 59  1  0  0  0  0
 51 52  2  0  0  0  0
  8  9  1  0  0  0  0
  9 17  1  0  0  0  0
  9 10  2  0  0  0  0
 30 31  1  0  0  0  0
 31 39  1  0  0  0  0
 31 32  2  0  0  0  0
 40 41  1  0  0  0  0
 41 49  1  0  0  0  0
 41 42  2  0  0  0  0
 50 53  1  0  0  0  0
 30 33  1  0  0  0  0
 59 60  1  0  0  0  0
 17 18  1  0  0  0  0
  8 11  1  0  0  0  0
 11 12  1  0  0  0  0
 40 43  1  0  0  0  0
 43 44  1  0  0  0  0
 49 50  1  0  0  0  0
  7  8  1  0  0  0  0
 29 30  1  0  0  0  0
 39 40  1  0  0  0  0
 12 44  1  0  0  0  0
  3  4  1  0  0  0  0
  3  5  1  0  0  0  0
  3  6  1  0  0  0  0
 25 26  1  0  0  0  0
 25 27  1  0  0  0  0
 25 28  1  0  0  0  0
 53 56  1  0  0  0  0
 53 57  1  0  0  0  0
 53 58  1  0  0  0  0
 33 36  1  0  0  0  0
 33 37  1  0  0  0  0
 33 38  1  0  0  0  0
 60 62  1  0  0  0  0
 60 63  1  0  0  0  0
 60 64  1  0  0  0  0
 18 20  1  0  0  0  0
 18 21  1  0  0  0  0
 18 22  1  0  0  0  0
 11 15  1  0  0  0  0
 11 16  1  0  0  0  0
 43 47  1  0  0  0  0
 43 48  1  0  0  0  0
 50 55  1  0  0  0  0
  8 14  1  0  0  0  0
 30 35  1  0  0  0  0
 40 46  1  0  0  0  0
 59 61  1  0  0  0  0
 17 19  1  0  0  0  0
  7 13  1  0  0  0  0
 29 34  1  0  0  0  0
 49 54  1  0  0  0  0
 39 45  1  0  0  0  0
M  END
$$$$

  -OEChem-05262214473D

 64 63  0     1  0  0  0  0  0999 V2000
   -0.4888   -6.2880   -3.6374 C   0  0  0  0  0  0  0  0  0  0  0  0
   -1.6085   -6.2520   -4.1340 O   0  0  0  0  0  0  0  0  0  0  0  0
   -0.0383   -7.5209   -2.9266 C   0  0  0  0  0  0  0  0  0  0  0  0
   -0.2855   -7.5014   -1.8530 H   0  0  0  0  0  0  0  0  0  0  0  0
   -0.5180   -8.4317   -3.3194 H   0  0  0  0  0  0  0  0  0  0  0  0
    1.0441   -7.7216   -2.9710 H   0  0  0  0  0  0  0  0  0  0  0  0
    0.4510   -5.2720   -3.6614 N   0  0  0  0  0  0  0  0  0  0  0  0
    0.2232   -3.9985   -4.2960 C   0  0  2  0  0  0  0  0  0  0  0  0
    1.5362   -3.5053   -4.9007 C   0  0  0  0  0  0  0  0  0  0  0  0
    2.6086   -4.0830   -4.7345 O   0  0  0  0  0  0  0  0  0  0  0  0
   -0.4284   -2.9853   -3.3516 C   0  0  0  0  0  0  0  0  0  0  0  0
    0.6015   -2.5570   -1.9099 S   0  0  0  0  0  0  0  0  0  0  0  0
    1.3478   -5.4325   -3.2082 H   0  0  0  0  0  0  0  0  0  0  0  0
   -0.4672   -4.2012   -5.1241 H   0  0  0  0  0  0  0  0  0  0  0  0
   -0.6524   -2.0541   -3.8822 H   0  0  0  0  0  0  0  0  0  0  0  0
   -1.3748   -3.3847   -2.9713 H   0  0  0  0  0  0  0  0  0  0  0  0
    1.3728   -2.3332   -5.6252 N   0  0  0  0  0  0  0  0  0  0  0  0
    2.4731   -1.6577   -6.2725 C   0  0  0  0  0  0  0  0  0  0  0  0
    0.4415   -1.9467   -5.7475 H   0  0  0  0  0  0  0  0  0  0  0  0
    2.8867   -0.8966   -5.5946 H   0  0  0  0  0  0  0  0  0  0  0  0
    3.2555   -2.3891   -6.5236 H   0  0  0  0  0  0  0  0  0  0  0  0
    2.1152   -1.1732   -7.1929 H   0  0  0  0  0  0  0  0  0  0  0  0
   -6.7256    2.0330   -0.2766 C   0  0  0  0  0  0  0  0  0  0  0  0
   -7.1824    1.1039   -0.9322 O   0  0  0  0  0  0  0  0  0  0  0  0
   -7.5276    2.6077    0.8435 C   0  0  0  0  0  0  0  0  0  0  0  0
   -8.1775    3.4344    0.5145 H   0  0  0  0  0  0  0  0  0  0  0  0
   -8.2057    1.8676    1.2980 H   0  0  0  0  0  0  0  0  0  0  0  0
   -6.9411    3.0162    1.6819 H   0  0  0  0  0  0  0  0  0  0  0  0
   -5.4935    2.6382   -0.4627 N   0  0  0  0  0  0  0  0  0  0  0  0
   -4.5619    2.2388   -1.4845 C   0  0  2  0  0  0  0  0  0  0  0  0
   -3.1535    2.4674   -0.9521 C   0  0  0  0  0  0  0  0  0  0  0  0
   -2.8634    3.3945   -0.1987 O   0  0  0  0  0  0  0  0  0  0  0  0
   -4.7883    3.0138   -2.7732 C   0  0  0  0  0  0  0  0  0  0  0  0
   -5.2337    3.4049    0.1551 H   0  0  0  0  0  0  0  0  0  0  0  0
   -4.7192    1.1682   -1.6549 H   0  0  0  0  0  0  0  0  0  0  0  0
   -4.6352    4.0886   -2.6221 H   0  0  0  0  0  0  0  0  0  0  0  0
   -4.0976    2.6887   -3.5582 H   0  0  0  0  0  0  0  0  0  0  0  0
   -5.8111    2.8719   -3.1387 H   0  0  0  0  0  0  0  0  0  0  0  0
   -2.2466    1.5400   -1.4507 N   0  0  0  0  0  0  0  0  0  0  0  0
   -0.8424    1.5707   -1.1286 C   0  0  2  0  0  0  0  0  0  0  0  0
   -0.2572    2.9023   -1.5944 C   0  0  0  0  0  0  0  0  0  0  0  0
   -0.8207    3.9803   -1.4162 O   0  0  0  0  0  0  0  0  0  0  0  0
   -0.0925    0.3536   -1.6755 C   0  0  0  0  0  0  0  0  0  0  0  0
   -0.6076   -1.2139   -0.9338 S   0  0  0  0  0  0  0  0  0  0  0  0
   -2.5850    0.7815   -2.0381 H   0  0  0  0  0  0  0  0  0  0  0  0
   -0.7910    1.5517   -0.0328 H   0  0  0  0  0  0  0  0  0  0  0  0
   -0.2372    0.2672   -2.7574 H   0  0  0  0  0  0  0  0  0  0  0  0
    0.9820    0.4648   -1.4938 H   0  0  0  0  0  0  0  0  0  0  0  0
    0.9537    2.7418   -2.2529 N   0  0  0  0  0  0  0  0  0  0  0  0
    1.6915    3.8521   -2.8085 C   0  0  2  0  0  0  0  0  0  0  0  0
    2.4233    3.3569   -4.0489 C   0  0  0  0  0  0  0  0  0  0  0  0
    2.8765    2.2187   -4.1507 O   0  0  0  0  0  0  0  0  0  0  0  0
    2.6678    4.4299   -1.7958 C   0  0  0  0  0  0  0  0  0  0  0  0
    1.3689    1.8171   -2.3174 H   0  0  0  0  0  0  0  0  0  0  0  0
    0.9541    4.6092   -3.0967 H   0  0  0  0  0  0  0  0  0  0  0  0
    3.4143    3.6858   -1.4950 H   0  0  0  0  0  0  0  0  0  0  0  0
    3.2058    5.2895   -2.2090 H   0  0  0  0  0  0  0  0  0  0  0  0
    2.1431    4.7584   -0.8921 H   0  0  0  0  0  0  0  0  0  0  0  0
    2.5486    4.3486   -5.0117 N   0  0  0  0  0  0  0  0  0  0  0  0
    3.2413    4.1387   -6.2616 C   0  0  0  0  0  0  0  0  0  0  0  0
    2.1075    5.2508   -4.8600 H   0  0  0  0  0  0  0  0  0  0  0  0
    4.2931    4.4420   -6.1539 H   0  0  0  0  0  0  0  0  0  0  0  0
    3.1928    3.0738   -6.5331 H   0  0  0  0  0  0  0  0  0  0  0  0
    2.7652    4.7402   -7.0500 H   0  0  0  0  0  0  0  0  0  0  0  0
  1  3  1  0  0  0  0
  1  7  1  0  0  0  0
  1  2  2  0  0  0  0
 23 25  1  0  0  0  0
 23 29  1  0  0  0  0
 23 24  2  0  0  0  0
 50 51  1  0  0  0  0
 51 59  1  0  0  0  0
 51 52  2  0  0  0  0
  8  9  1  0  0  0  0
  9 17  1  0  0  0  0
  9 10  2  0  0  0  0
 30 31  1  0  0  0  0
 31 39  1  0  0  0  0
 31 32  2  0  0  0  0
 40 41  1  0  0  0  0
 41 49  1  0  0  0  0
 41 42  2  0  0  0  0
 50 53  1  0  0  0  0
 30 33  1  0  0  0  0
 59 60  1  0  0  0  0
 17 18  1  0  0  0  0
  8 11  1  0  0  0  0
 11 12  1  0  0  0  0
 40 43  1  0  0  0  0
 43 44  1  0  0  0  0
 49 50  1  0  0  0  0
  7  8  1  0  0  0  0
 29 30  1  0  0  0  0
 39 40  1  0  0  0  0
 12 44  1  0  0  0  0
  3  4  1  0  0  0  0
  3  5  1  0  0  0  0
  3  6  1  0  0  0  0
 25 26  1  0  0  0  0
 25 27  1  0  0  0  0
 25 28  1  0  0  0  0
 53 56  1  0  0  0  0
 53 57  1  0  0  0  0
 53 58  1  0  0  0  0
 33 36  1  0  0  0  0
 33 37  1  0  0  0  0
 33 38  1  0  0  0  0
 60 62  1  0  0  0  0
 60 63  1  0  0  0  0
 60 64  1  0  0  0  0
 18 20  1  0  0  0  0
 18 21  1  0  0  0  0
 18 22  1  0  0  0  0
 11 15  1  0  0  0  0
 11 16  1  0  0  0  0
 43 47  1  0  0  0  0
 43 48  1  0  0  0  0
 50 55  1  0  0  0  0
  8 14  1  0  0  0  0
 30 35  1  0  0  0  0
 40 46  1  0  0  0  0
 59 61  1  0  0  0  0
 17 19  1  0  0  0  0
  7 13  1  0  0  0  0
 29 34  1  0  0  0  0
 49 54  1  0  0  0  0
 39 45  1  0  0  0  0
M  END
$$$$

  -OEChem-05262214473D

 64 63  0     1  0  0  0  0  0999 V2000
   -0.4888   -6.2880   -3.6374 C   0  0  0  0  0  0  0  0  0  0  0  0
   -1.6085   -6.2520   -4.1340 O   0  0  0  0  0  0  0  0  0  0  0  0
   -0.0383   -7.5209   -2.9266 C   0  0  0  0  0  0  0  0  0  0  0  0
   -0.2855   -7.5014   -1.8530 H   0  0  0  0  0  0  0  0  0  0  0  0
   -0.5180   -8.4317   -3.3194 H   0  0  0  0  0  0  0  0  0  0  0  0
    1.0441   -7.7216   -2.9710 H   0  0  0  0  0  0  0  0  0  0  0  0
    0.4510   -5.2720   -3.6614 N   0  0  0  0  0  0  0  0  0  0  0  0
    0.2232   -3.9985   -4.2960 C   0  0  2  0  0  0  0  0  0  0  0  0
    1.5362   -3.5053   -4.9007 C   0  0  0  0  0  0  0  0  0  0  0  0
    2.6086   -4.0830   -4.7345 O   0  0  0  0  0  0  0  0  0  0  0  0
   -0.4284   -2.9853   -3.3516 C   0  0  0  0  0  0  0  0  0  0  0  0
    0.6015   -2.5570   -1.9099 S   0  0  0  0  0  0  0  0  0  0  0  0
    1.3478   -5.4325   -3.2082 H   0  0  0  0  0  0  0  0  0  0  0  0
   -0.4672   -4.2012   -5.1241 H   0  0  0  0  0  0  0  0  0  0  0  0
   -0.6524   -2.0541   -3.8822 H   0  0  0  0  0  0  0  0  0  0  0  0
   -1.3748   -3.3847   -2.9713 H   0  0  0  0  0  0  0  0  0  0  0  0
    1.3728   -2.3332   -5.6252 N   0  0  0  0  0  0  0  0  0  0  0  0
    2.4731   -1.6577   -6.2725 C   0  0  0  0  0  0  0  0  0  0  0  0
    0.4415   -1.9467   -5.7475 H   0  0  0  0  0  0  0  0  0  0  0  0
    2.8867   -0.8966   -5.5946 H   0  0  0  0  0  0  0  0  0  0  0  0
    3.2555   -2.3891   -6.5236 H   0  0  0  0  0  0  0  0  0  0  0  0
    2.1152   -1.1732   -7.1929 H   0  0  0  0  0  0  0  0  0  0  0  0
   -6.7256    2.0330   -0.2766 C   0  0  0  0  0  0  0  0  0  0  0  0
   -7.1824    1.1039   -0.9322 O   0  0  0  0  0  0  0  0  0  0  0  0
   -7.5276    2.6077    0.8435 C   0  0  0  0  0  0  0  0  0  0  0  0
   -8.1775    3.4344    0.5145 H   0  0  0  0  0  0  0  0  0  0  0  0
   -8.2057    1.8676    1.2980 H   0  0  0  0  0  0  0  0  0  0  0  0
   -6.9411    3.0162    1.6819 H   0  0  0  0  0  0  0  0  0  0  0  0
   -5.4935    2.6382   -0.4627 N   0  0  0  0  0  0  0  0  0  0  0  0
   -4.5619    2.2388   -1.4845 C   0  0  2  0  0  0  0  0  0  0  0  0
   -3.1535    2.4674   -0.9521 C   0  0  0  0  0  0  0  0  0  0  0  0
   -2.8634    3.3945   -0.1987 O   0  0  0  0  0  0  0  0  0  0  0  0
   -4.7883    3.0138   -2.7732 C   0  0  0  0  0  0  0  0  0  0  0  0
   -5.2337    3.4049    0.1551 H   0  0  0  0  0  0  0  0  0  0  0  0
   -4.7192    1.1682   -1.6549 H   0  0  0  0  0  0  0  0  0  0  0  0
   -4.6352    4.0886   -2.6221 H   0  0  0  0  0  0  0  0  0  0  0  0
   -4.0976    2.6887   -3.5582 H   0  0  0  0  0  0  0  0  0  0  0  0
   -5.8111    2.8719   -3.1387 H   0  0  0  0  0  0  0  0  0  0  0  0
   -2.2466    1.5400   -1.4507 N   0  0  0  0  0  0  0  0  0  0  0  0
   -0.8424    1.5707   -1.1286 C   0  0  2  0  0  0  0  0  0  0  0  0
   -0.2572    2.9023   -1.5944 C   0  0  0  0  0  0  0  0  0  0  0  0
   -0.6674    3.9903   -1.1952 O   0  0  0  0  0  0  0  0  0  0  0  0
   -0.0925    0.3536   -1.6755 C   0  0  0  0  0  0  0  0  0  0  0  0
   -0.6076   -1.2139   -0.9338 S   0  0  0  0  0  0  0  0  0  0  0  0
   -2.5850    0.7815   -2.0381 H   0  0  0  0  0  0  0  0  0  0  0  0
   -0.7910    1.5517   -0.0328 H   0  0  0  0  0  0  0  0  0  0  0  0
   -0.2372    0.2672   -2.7574 H   0  0  0  0  0  0  0  0  0  0  0  0
    0.9820    0.4648   -1.4938 H   0  0  0  0  0  0  0  0  0  0  0  0
    0.7580    2.7326   -2.5250 N   0  0  0  0  0  0  0  0  0  0  0  0
    1.4515    3.8441   -3.1329 C   0  0  2  0  0  0  0  0  0  0  0  0
    1.8423    3.4377   -4.5476 C   0  0  0  0  0  0  0  0  0  0  0  0
    2.1570    2.2893   -4.8529 O   0  0  0  0  0  0  0  0  0  0  0  0
    2.6761    4.2416   -2.3236 C   0  0  0  0  0  0  0  0  0  0  0  0
    1.0634    1.7944   -2.7663 H   0  0  0  0  0  0  0  0  0  0  0  0
    0.7400    4.6761   -3.1746 H   0  0  0  0  0  0  0  0  0  0  0  0
    3.4004    3.4206   -2.2706 H   0  0  0  0  0  0  0  0  0  0  0  0
    3.1845    5.1025   -2.7701 H   0  0  0  0  0  0  0  0  0  0  0  0
    2.3967    4.5050   -1.2977 H   0  0  0  0  0  0  0  0  0  0  0  0
    1.8401    4.5171   -5.4201 N   0  0  0  0  0  0  0  0  0  0  0  0
    2.2166    4.3974   -6.8093 C   0  0  0  0  0  0  0  0  0  0  0  0
    1.5269    5.4254   -5.0905 H   0  0  0  0  0  0  0  0  0  0  0  0
    3.2892    4.6155   -6.9192 H   0  0  0  0  0  0  0  0  0  0  0  0
    2.0132    3.3739   -7.1573 H   0  0  0  0  0  0  0  0  0  0  0  0
    1.6340    5.1114   -7.4098 H   0  0  0  0  0  0  0  0  0  0  0  0
  1  3  1  0  0  0  0
  1  7  1  0  0  0  0
  1  2  2  0  0  0  0
 23 25  1  0  0  0  0
 23 29  1  0  0  0  0
 23 24  2  0  0  0  0
 50 51  1  0  0  0  0
 51 59  1  0  0  0  0
 51 52  2  0  0  0  0
  8  9  1  0  0  0  0
  9 17  1  0  0  0  0
  9 10  2  0  0  0  0
 30 31  1  0  0  0  0
 31 39  1  0  0  0  0
 31 32  2  0  0  0  0
 40 41  1  0  0  0  0
 41 49  1  0  0  0  0
 41 42  2  0  0  0  0
 50 53  1  0  0  0  0
 30 33  1  0  0  0  0
 59 60  1  0  0  0  0
 17 18  1  0  0  0  0
  8 11  1  0  0  0  0
 11 12  1  0  0  0  0
 40 43  1  0  0  0  0
 43 44  1  0  0  0  0
 49 50  1  0  0  0  0
  7  8  1  0  0  0  0
 29 30  1  0  0  0  0
 39 40  1  0  0  0  0
 12 44  1  0  0  0  0
  3  4  1  0  0  0  0
  3  5  1  0  0  0  0
  3  6  1  0  0  0  0
 25 26  1  0  0  0  0
 25 27  1  0  0  0  0
 25 28  1  0  0  0  0
 53 56  1  0  0  0  0
 53 57  1  0  0  0  0
 53 58  1  0  0  0  0
 33 36  1  0  0  0  0
 33 37  1  0  0  0  0
 33 38  1  0  0  0  0
 60 62  1  0  0  0  0
 60 63  1  0  0  0  0
 60 64  1  0  0  0  0
 18 20  1  0  0  0  0
 18 21  1  0  0  0  0
 18 22  1  0  0  0  0
 11 15  1  0  0  0  0
 11 16  1  0  0  0  0
 43 47  1  0  0  0  0
 43 48  1  0  0  0  0
 50 55  1  0  0  0  0
  8 14  1  0  0  0  0
 30 35  1  0  0  0  0
 40 46  1  0  0  0  0
 59 61  1  0  0  0  0
 17 19  1  0  0  0  0
  7 13  1  0  0  0  0
 29 34  1  0  0  0  0
 49 54  1  0  0  0  0
 39 45  1  0  0  0  0
M  END
$$$$

  -OEChem-05262214473D

 64 63  0     1  0  0  0  0  0999 V2000
   -0.4888   -6.2880   -3.6374 C   0  0  0  0  0  0  0  0  0  0  0  0
   -1.6085   -6.2520   -4.1340 O   0  0  0  0  0  0  0  0  0  0  0  0
   -0.0383   -7.5209   -2.9266 C   0  0  0  0  0  0  0  0  0  0  0  0
   -0.2855   -7.5014   -1.8530 H   0  0  0  0  0  0  0  0  0  0  0  0
   -0.5180   -8.4317   -3.3194 H   0  0  0  0  0  0  0  0  0  0  0  0
    1.0441   -7.7216   -2.9710 H   0  0  0  0  0  0  0  0  0  0  0  0
    0.4510   -5.2720   -3.6614 N   0  0  0  0  0  0  0  0  0  0  0  0
    0.2232   -3.9985   -4.2960 C   0  0  2  0  0  0  0  0  0  0  0  0
    1.5362   -3.5053   -4.9007 C   0  0  0  0  0  0  0  0  0  0  0  0
    2.6086   -4.0830   -4.7345 O   0  0  0  0  0  0  0  0  0  0  0  0
   -0.4284   -2.9853   -3.3516 C   0  0  0  0  0  0  0  0  0  0  0  0
    0.6015   -2.5570   -1.9099 S   0  0  0  0  0  0  0  0  0  0  0  0
    1.3478   -5.4325   -3.2082 H   0  0  0  0  0  0  0  0  0  0  0  0
   -0.4672   -4.2012   -5.1241 H   0  0  0  0  0  0  0  0  0  0  0  0
   -0.6524   -2.0541   -3.8822 H   0  0  0  0  0  0  0  0  0  0  0  0
   -1.3748   -3.3847   -2.9713 H   0  0  0  0  0  0  0  0  0  0  0  0
    1.3728   -2.3332   -5.6252 N   0  0  0  0  0  0  0  0  0  0  0  0
    2.4731   -1.6577   -6.2725 C   0  0  0  0  0  0  0  0  0  0  0  0
    0.4415   -1.9467   -5.7475 H   0  0  0  0  0  0  0  0  0  0  0  0
    2.8867   -0.8966   -5.5946 H   0  0  0  0  0  0  0  0  0  0  0  0
    3.2555   -2.3891   -6.5236 H   0  0  0  0  0  0  0  0  0  0  0  0
    2.1152   -1.1732   -7.1929 H   0  0  0  0  0  0  0  0  0  0  0  0
   -6.7256    2.0330   -0.2766 C   0  0  0  0  0  0  0  0  0  0  0  0
   -7.1824    1.1039   -0.9322 O   0  0  0  0  0  0  0  0  0  0  0  0
   -7.5276    2.6077    0.8435 C   0  0  0  0  0  0  0  0  0  0  0  0
   -8.1775    3.4344    0.5145 H   0  0  0  0  0  0  0  0  0  0  0  0
   -8.2057    1.8676    1.2980 H   0  0  0  0  0  0  0  0  0  0  0  0
   -6.9411    3.0162    1.6819 H   0  0  0  0  0  0  0  0  0  0  0  0
   -5.4935    2.6382   -0.4627 N   0  0  0  0  0  0  0  0  0  0  0  0
   -4.5619    2.2388   -1.4845 C   0  0  2  0  0  0  0  0  0  0  0  0
   -3.1535    2.4674   -0.9521 C   0  0  0  0  0  0  0  0  0  0  0  0
   -2.8634    3.3945   -0.1987 O   0  0  0  0  0  0  0  0  0  0  0  0
   -4.7883    3.0138   -2.7732 C   0  0  0  0  0  0  0  0  0  0  0  0
   -5.2337    3.4049    0.1551 H   0  0  0  0  0  0  0  0  0  0  0  0
   -4.7192    1.1682   -1.6549 H   0  0  0  0  0  0  0  0  0  0  0  0
   -4.6352    4.0886   -2.6221 H   0  0  0  0  0  0  0  0  0  0  0  0
   -4.0976    2.6887   -3.5582 H   0  0  0  0  0  0  0  0  0  0  0  0
   -5.8111    2.8719   -3.1387 H   0  0  0  0  0  0  0  0  0  0  0  0
   -2.2466    1.5400   -1.4507 N   0  0  0  0  0  0  0  0  0  0  0  0
   -0.8424    1.5707   -1.1286 C   0  0  2  0  0  0  0  0  0  0  0  0
   -0.2572    2.9023   -1.5944 C   0  0  0  0  0  0  0  0  0  0  0  0
   -0.4687    3.9659   -1.0153 O   0  0  0  0  0  0  0  0  0  0  0  0
   -0.0925    0.3536   -1.6755 C   0  0  0  0  0  0  0  0  0  0  0  0
   -0.6076   -1.2139   -0.9338 S   0  0  0  0  0  0  0  0  0  0  0  0
   -2.5850    0.7815   -2.0381 H   0  0  0  0  0  0  0  0  0  0  0  0
   -0.7910    1.5517   -0.0328 H   0  0  0  0  0  0  0  0  0  0  0  0
   -0.2372    0.2672   -2.7574 H   0  0  0  0  0  0  0  0  0  0  0  0
    0.9820    0.4648   -1.4938 H   0  0  0  0  0  0  0  0  0  0  0  0
    0.5069    2.7661   -2.7447 N   0  0  0  0  0  0  0  0  0  0  0  0
    1.1458    3.8875   -3.3928 C   0  0  2  0  0  0  0  0  0  0  0  0
    1.1750    3.6112   -4.8902 C   0  0  0  0  0  0  0  0  0  0  0  0
    1.3091    2.4839   -5.3618 O   0  0  0  0  0  0  0  0  0  0  0  0
    2.5502    4.1115   -2.8539 C   0  0  0  0  0  0  0  0  0  0  0  0
    0.6651    1.8411   -3.1332 H   0  0  0  0  0  0  0  0  0  0  0  0
    0.5209    4.7653   -3.1950 H   0  0  0  0  0  0  0  0  0  0  0  0
    3.1910    3.2425   -3.0429 H   0  0  0  0  0  0  0  0  0  0  0  0
    3.0225    4.9793   -3.3259 H   0  0  0  0  0  0  0  0  0  0  0  0
    2.5300    4.2805   -1.7719 H   0  0  0  0  0  0  0  0  0  0  0  0
    1.0770    4.7762   -5.6380 N   0  0  0  0  0  0  0  0  0  0  0  0
    1.1238    4.7824   -7.0815 C   0  0  0  0  0  0  0  0  0  0  0  0
    0.9280    5.6626   -5.1648 H   0  0  0  0  0  0  0  0  0  0  0  0
    2.1605    4.9382   -7.4146 H   0  0  0  0  0  0  0  0  0  0  0  0
    0.7566    3.8187   -7.4643 H   0  0  0  0  0  0  0  0  0  0  0  0
    0.4894    5.5951   -7.4653 H   0  0  0  0  0  0  0  0  0  0  0  0
  1  3  1  0  0  0  0
  1  7  1  0  0  0  0
  1  2  2  0  0  0  0
 23 25  1  0  0  0  0
 23 29  1  0  0  0  0
 23 24  2  0  0  0  0
 50 51  1  0  0  0  0
 51 59  1  0  0  0  0
 51 52  2  0  0  0  0
  8  9  1  0  0  0  0
  9 17  1  0  0  0  0
  9 10  2  0  0  0  0
 30 31  1  0  0  0  0
 31 39  1  0  0  0  0
 31 32  2  0  0  0  0
 40 41  1  0  0  0  0
 41 49  1  0  0  0  0
 41 42  2  0  0  0  0
 50 53  1  0  0  0  0
 30 33  1  0  0  0  0
 59 60  1  0  0  0  0
 17 18  1  0  0  0  0
  8 11  1  0  0  0  0
 11 12  1  0  0  0  0
 40 43  1  0  0  0  0
 43 44  1  0  0  0  0
 49 50  1  0  0  0  0
  7  8  1  0  0  0  0
 29 30  1  0  0  0  0
 39 40  1  0  0  0  0
 12 44  1  0  0  0  0
  3  4  1  0  0  0  0
  3  5  1  0  0  0  0
  3  6  1  0  0  0  0
 25 26  1  0  0  0  0
 25 27  1  0  0  0  0
 25 28  1  0  0  0  0
 53 56  1  0  0  0  0
 53 57  1  0  0  0  0
 53 58  1  0  0  0  0
 33 36  1  0  0  0  0
 33 37  1  0  0  0  0
 33 38  1  0  0  0  0
 60 62  1  0  0  0  0
 60 63  1  0  0  0  0
 60 64  1  0  0  0  0
 18 20  1  0  0  0  0
 18 21  1  0  0  0  0
 18 22  1  0  0  0  0
 11 15  1  0  0  0  0
 11 16  1  0  0  0  0
 43 47  1  0  0  0  0
 43 48  1  0  0  0  0
 50 55  1  0  0  0  0
  8 14  1  0  0  0  0
 30 35  1  0  0  0  0
 40 46  1  0  0  0  0
 59 61  1  0  0  0  0
 17 19  1  0  0  0  0
  7 13  1  0  0  0  0
 29 34  1  0  0  0  0
 49 54  1  0  0  0  0
 39 45  1  0  0  0  0
M  END
$$$$

  -OEChem-05262214473D

 64 63  0     1  0  0  0  0  0999 V2000
   -0.4888   -6.2880   -3.6374 C   0  0  0  0  0  0  0  0  0  0  0  0
   -1.6085   -6.2520   -4.1340 O   0  0  0  0  0  0  0  0  0  0  0  0
   -0.0383   -7.5209   -2.9266 C   0  0  0  0  0  0  0  0  0  0  0  0
   -0.2855   -7.5014   -1.8530 H   0  0  0  0  0  0  0  0  0  0  0  0
   -0.5180   -8.4317   -3.3194 H   0  0  0  0  0  0  0  0  0  0  0  0
    1.0441   -7.7216   -2.9710 H   0  0  0  0  0  0  0  0  0  0  0  0
    0.4510   -5.2720   -3.6614 N   0  0  0  0  0  0  0  0  0  0  0  0
    0.2232   -3.9985   -4.2960 C   0  0  2  0  0  0  0  0  0  0  0  0
    1.5362   -3.5053   -4.9007 C   0  0  0  0  0  0  0  0  0  0  0  0
    2.6086   -4.0830   -4.7345 O   0  0  0  0  0  0  0  0  0  0  0  0
   -0.4284   -2.9853   -3.3516 C   0  0  0  0  0  0  0  0  0  0  0  0
    0.6015   -2.5570   -1.9099 S   0  0  0  0  0  0  0  0  0  0  0  0
    1.3478   -5.4325   -3.2082 H   0  0  0  0  0  0  0  0  0  0  0  0
   -0.4672   -4.2012   -5.1241 H   0  0  0  0  0  0  0  0  0  0  0  0
   -0.6524   -2.0541   -3.8822 H   0  0  0  0  0  0  0  0  0  0  0  0
   -1.3748   -3.3847   -2.9713 H   0  0  0  0  0  0  0  0  0  0  0  0
    1.3728   -2.3332   -5.6252 N   0  0  0  0  0  0  0  0  0  0  0  0
    2.4731   -1.6577   -6.2725 C   0  0  0  0  0  0  0  0  0  0  0  0
    0.4415   -1.9467   -5.7475 H   0  0  0  0  0  0  0  0  0  0  0  0
    2.8867   -0.8966   -5.5946 H   0  0  0  0  0  0  0  0  0  0  0  0
    3.2555   -2.3891   -6.5236 H   0  0  0  0  0  0  0  0  0  0  0  0
    2.1152   -1.1732   -7.1929 H   0  0  0  0  0  0  0  0  0  0  0  0
   -6.7256    2.0330   -0.2766 C   0  0  0  0  0  0  0  0  0  0  0  0
   -7.1824    1.1039   -0.9322 O   0  0  0  0  0  0  0  0  0  0  0  0
   -7.5276    2.6077    0.8435 C   0  0  0  0  0  0  0  0  0  0  0  0
   -8.1775    3.4344    0.5145 H   0  0  0  0  0  0  0  0  0  0  0  0
   -8.2057    1.8676    1.2980 H   0  0  0  0  0  0  0  0  0  0  0  0
   -6.9411    3.0162    1.6819 H   0  0  0  0  0  0  0  0  0  0  0  0
   -5.4935    2.6382   -0.4627 N   0  0  0  0  0  0  0  0  0  0  0  0
   -4.5619    2.2388   -1.4845 C   0  0  2  0  0  0  0  0  0  0  0  0
   -3.1535    2.4674   -0.9521 C   0  0  0  0  0  0  0  0  0  0  0  0
   -2.8634    3.3945   -0.1987 O   0  0  0  0  0  0  0  0  0  0  0  0
   -4.7883    3.0138   -2.7732 C   0  0  0  0  0  0  0  0  0  0  0  0
   -5.2337    3.4049    0.1551 H   0  0  0  0  0  0  0  0  0  0  0  0
   -4.7192    1.1682   -1.6549 H   0  0  0  0  0  0  0  0  0  0  0  0
   -4.6352    4.0886   -2.6221 H   0  0  0  0  0  0  0  0  0  0  0  0
   -4.0976    2.6887   -3.5582 H   0  0  0  0  0  0  0  0  0  0  0  0
   -5.8111    2.8719   -3.1387 H   0  0  0  0  0  0  0  0  0  0  0  0
   -2.2466    1.5400   -1.4507 N   0  0  0  0  0  0  0  0  0  0  0  0
   -0.8424    1.5707   -1.1286 C   0  0  2  0  0  0  0  0  0  0  0  0
   -0.2572    2.9023   -1.5944 C   0  0  0  0  0  0  0  0  0  0  0  0
   -0.2382    3.9088   -0.8887 O   0  0  0  0  0  0  0  0  0  0  0  0
   -0.0925    0.3536   -1.6755 C   0  0  0  0  0  0  0  0  0  0  0  0
   -0.6076   -1.2139   -0.9338 S   0  0  0  0  0  0  0  0  0  0  0  0
   -2.5850    0.7815   -2.0381 H   0  0  0  0  0  0  0  0  0  0  0  0
   -0.7910    1.5517   -0.0328 H   0  0  0  0  0  0  0  0  0  0  0  0
   -0.2372    0.2672   -2.7574 H   0  0  0  0  0  0  0  0  0  0  0  0
    0.9820    0.4648   -1.4938 H   0  0  0  0  0  0  0  0  0  0  0  0
    0.2174    2.8401   -2.8969 N   0  0  0  0  0  0  0  0  0  0  0  0
    0.7953    3.9794   -3.5706 C   0  0  2  0  0  0  0  0  0  0  0  0
    0.4668    3.8653   -5.0534 C   0  0  0  0  0  0  0  0  0  0  0  0
    0.3907    2.7893   -5.6428 O   0  0  0  0  0  0  0  0  0  0  0  0
    2.2985    4.0482   -3.3507 C   0  0  0  0  0  0  0  0  0  0  0  0
    0.2014    1.9540   -3.3931 H   0  0  0  0  0  0  0  0  0  0  0  0
    0.3118    4.8707   -3.1563 H   0  0  0  0  0  0  0  0  0  0  0  0
    2.8004    3.1635   -3.7593 H   0  0  0  0  0  0  0  0  0  0  0  0
    2.7310    4.9282   -3.8384 H   0  0  0  0  0  0  0  0  0  0  0  0
    2.5341    4.1002   -2.2823 H   0  0  0  0  0  0  0  0  0  0  0  0
    0.3111    5.1085   -5.6505 N   0  0  0  0  0  0  0  0  0  0  0  0
    0.0371    5.2677   -7.0596 C   0  0  0  0  0  0  0  0  0  0  0  0
    0.3514    5.9464   -5.0779 H   0  0  0  0  0  0  0  0  0  0  0  0
    0.9839    5.3882   -7.6065 H   0  0  0  0  0  0  0  0  0  0  0  0
   -0.4913    4.3781   -7.4331 H   0  0  0  0  0  0  0  0  0  0  0  0
   -0.5905    6.1580   -7.2127 H   0  0  0  0  0  0  0  0  0  0  0  0
  1  3  1  0  0  0  0
  1  7  1  0  0  0  0
  1  2  2  0  0  0  0
 23 25  1  0  0  0  0
 23 29  1  0  0  0  0
 23 24  2  0  0  0  0
 50 51  1  0  0  0  0
 51 59  1  0  0  0  0
 51 52  2  0  0  0  0
  8  9  1  0  0  0  0
  9 17  1  0  0  0  0
  9 10  2  0  0  0  0
 30 31  1  0  0  0  0
 31 39  1  0  0  0  0
 31 32  2  0  0  0  0
 40 41  1  0  0  0  0
 41 49  1  0  0  0  0
 41 42  2  0  0  0  0
 50 53  1  0  0  0  0
 30 33  1  0  0  0  0
 59 60  1  0  0  0  0
 17 18  1  0  0  0  0
  8 11  1  0  0  0  0
 11 12  1  0  0  0  0
 40 43  1  0  0  0  0
 43 44  1  0  0  0  0
 49 50  1  0  0  0  0
  7  8  1  0  0  0  0
 29 30  1  0  0  0  0
 39 40  1  0  0  0  0
 12 44  1  0  0  0  0
  3  4  1  0  0  0  0
  3  5  1  0  0  0  0
  3  6  1  0  0  0  0
 25 26  1  0  0  0  0
 25 27  1  0  0  0  0
 25 28  1  0  0  0  0
 53 56  1  0  0  0  0
 53 57  1  0  0  0  0
 53 58  1  0  0  0  0
 33 36  1  0  0  0  0
 33 37  1  0  0  0  0
 33 38  1  0  0  0  0
 60 62  1  0  0  0  0
 60 63  1  0  0  0  0
 60 64  1  0  0  0  0
 18 20  1  0  0  0  0
 18 21  1  0  0  0  0
 18 22  1  0  0  0  0
 11 15  1  0  0  0  0
 11 16  1  0  0  0  0
 43 47  1  0  0  0  0
 43 48  1  0  0  0  0
 50 55  1  0  0  0  0
  8 14  1  0  0  0  0
 30 35  1  0  0  0  0
 40 46  1  0  0  0  0
 59 61  1  0  0  0  0
 17 19  1  0  0  0  0
  7 13  1  0  0  0  0
 29 34  1  0  0  0  0
 49 54  1  0  0  0  0
 39 45  1  0  0  0  0
M  END
$$$$

  -OEChem-05262214473D

 64 63  0     1  0  0  0  0  0999 V2000
   -0.4888   -6.2880   -3.6374 C   0  0  0  0  0  0  0  0  0  0  0  0
   -1.6085   -6.2520   -4.1340 O   0  0  0  0  0  0  0  0  0  0  0  0
   -0.0383   -7.5209   -2.9266 C   0  0  0  0  0  0  0  0  0  0  0  0
   -0.2855   -7.5014   -1.8530 H   0  0  0  0  0  0  0  0  0  0  0  0
   -0.5180   -8.4317   -3.3194 H   0  0  0  0  0  0  0  0  0  0  0  0
    1.0441   -7.7216   -2.9710 H   0  0  0  0  0  0  0  0  0  0  0  0
    0.4510   -5.2720   -3.6614 N   0  0  0  0  0  0  0  0  0  0  0  0
    0.2232   -3.9985   -4.2960 C   0  0  2  0  0  0  0  0  0  0  0  0
    1.5362   -3.5053   -4.9007 C   0  0  0  0  0  0  0  0  0  0  0  0
    2.6086   -4.0830   -4.7345 O   0  0  0  0  0  0  0  0  0  0  0  0
   -0.4284   -2.9853   -3.3516 C   0  0  0  0  0  0  0  0  0  0  0  0
    0.6015   -2.5570   -1.9099 S   0  0  0  0  0  0  0  0  0  0  0  0
    1.3478   -5.4325   -3.2082 H   0  0  0  0  0  0  0  0  0  0  0  0
   -0.4672   -4.2012   -5.1241 H   0  0  0  0  0  0  0  0  0  0  0  0
   -0.6524   -2.0541   -3.8822 H   0  0  0  0  0  0  0  0  0  0  0  0
   -1.3748   -3.3847   -2.9713 H   0  0  0  0  0  0  0  0  0  0  0  0
    1.3728   -2.3332   -5.6252 N   0  0  0  0  0  0  0  0  0  0  0  0
    2.4731   -1.6577   -6.2725 C   0  0  0  0  0  0  0  0  0  0  0  0
    0.4415   -1.9467   -5.7475 H   0  0  0  0  0  0  0  0  0  0  0  0
    2.8867   -0.8966   -5.5946 H   0  0  0  0  0  0  0  0  0  0  0  0
    3.2555   -2.3891   -6.5236 H   0  0  0  0  0  0  0  0  0  0  0  0
    2.1152   -1.1732   -7.1929 H   0  0  0  0  0  0  0  0  0  0  0  0
   -6.7256    2.0330   -0.2766 C   0  0  0  0  0  0  0  0  0  0  0  0
   -7.1824    1.1039   -0.9322 O   0  0  0  0  0  0  0  0  0  0  0  0
   -7.5276    2.6077    0.8435 C   0  0  0  0  0  0  0  0  0  0  0  0
   -8.1775    3.4344    0.5145 H   0  0  0  0  0  0  0  0  0  0  0  0
   -8.2057    1.8676    1.2980 H   0  0  0  0  0  0  0  0  0  0  0  0
   -6.9411    3.0162    1.6819 H   0  0  0  0  0  0  0  0  0  0  0  0
   -5.4935    2.6382   -0.4627 N   0  0  0  0  0  0  0  0  0  0  0  0
   -4.5619    2.2388   -1.4845 C   0  0  2  0  0  0  0  0  0  0  0  0
   -3.1535    2.4674   -0.9521 C   0  0  0  0  0  0  0  0  0  0  0  0
   -2.8634    3.3945   -0.1987 O   0  0  0  0  0  0  0  0  0  0  0  0
   -4.7883    3.0138   -2.7732 C   0  0  0  0  0  0  0  0  0  0  0  0
   -5.2337    3.4049    0.1551 H   0  0  0  0  0  0  0  0  0  0  0  0
   -4.7192    1.1682   -1.6549 H   0  0  0  0  0  0  0  0  0  0  0  0
   -4.6352    4.0886   -2.6221 H   0  0  0  0  0  0  0  0  0  0  0  0
   -4.0976    2.6887   -3.5582 H   0  0  0  0  0  0  0  0  0  0  0  0
   -5.8111    2.8719   -3.1387 H   0  0  0  0  0  0  0  0  0  0  0  0
   -2.2466    1.5400   -1.4507 N   0  0  0  0  0  0  0  0  0  0  0  0
   -0.8424    1.5707   -1.1286 C   0  0  2  0  0  0  0  0  0  0  0  0
   -0.2572    2.9023   -1.5944 C   0  0  0  0  0  0  0  0  0  0  0  0
    0.0086    3.8230   -0.8242 O   0  0  0  0  0  0  0  0  0  0  0  0
   -0.0925    0.3536   -1.6755 C   0  0  0  0  0  0  0  0  0  0  0  0
   -0.6076   -1.2139   -0.9338 S   0  0  0  0  0  0  0  0  0  0  0  0
   -2.5850    0.7815   -2.0381 H   0  0  0  0  0  0  0  0  0  0  0  0
   -0.7910    1.5517   -0.0328 H   0  0  0  0  0  0  0  0  0  0  0  0
   -0.2372    0.2672   -2.7574 H   0  0  0  0  0  0  0  0  0  0  0  0
    0.9820    0.4648   -1.4938 H   0  0  0  0  0  0  0  0  0  0  0  0
   -0.0908    2.9496   -2.9712 N   0  0  0  0  0  0  0  0  0  0  0  0
    0.4239    4.1133   -3.6542 C   0  0  2  0  0  0  0  0  0  0  0  0
   -0.2341    4.1829   -5.0260 C   0  0  0  0  0  0  0  0  0  0  0  0
   -0.5358    3.1846   -5.6766 O   0  0  0  0  0  0  0  0  0  0  0  0
    1.9384    4.0563   -3.7801 C   0  0  0  0  0  0  0  0  0  0  0  0
   -0.2964    2.1255   -3.5282 H   0  0  0  0  0  0  0  0  0  0  0  0
    0.1268    4.9852   -3.0613 H   0  0  0  0  0  0  0  0  0  0  0  0
    2.2551    3.1892   -4.3710 H   0  0  0  0  0  0  0  0  0  0  0  0
    2.3296    4.9526   -4.2726 H   0  0  0  0  0  0  0  0  0  0  0  0
    2.4087    3.9763   -2.7941 H   0  0  0  0  0  0  0  0  0  0  0  0
   -0.4053    5.4911   -5.4569 N   0  0  0  0  0  0  0  0  0  0  0  0
   -0.9693    5.8200   -6.7452 C   0  0  0  0  0  0  0  0  0  0  0  0
   -0.1636    6.2575   -4.8357 H   0  0  0  0  0  0  0  0  0  0  0  0
   -0.1604    5.9348   -7.4817 H   0  0  0  0  0  0  0  0  0  0  0  0
   -1.6455    5.0138   -7.0659 H   0  0  0  0  0  0  0  0  0  0  0  0
   -1.5322    6.7620   -6.6691 H   0  0  0  0  0  0  0  0  0  0  0  0
  1  3  1  0  0  0  0
  1  7  1  0  0  0  0
  1  2  2  0  0  0  0
 23 25  1  0  0  0  0
 23 29  1  0  0  0  0
 23 24  2  0  0  0  0
 50 51  1  0  0  0  0
 51 59  1  0  0  0  0
 51 52  2  0  0  0  0
  8  9  1  0  0  0  0
  9 17  1  0  0  0  0
  9 10  2  0  0  0  0
 30 31  1  0  0  0  0
 31 39  1  0  0  0  0
 31 32  2  0  0  0  0
 40 41  1  0  0  0  0
 41 49  1  0  0  0  0
 41 42  2  0  0  0  0
 50 53  1  0  0  0  0
 30 33  1  0  0  0  0
 59 60  1  0  0  0  0
 17 18  1  0  0  0  0
  8 11  1  0  0  0  0
 11 12  1  0  0  0  0
 40 43  1  0  0  0  0
 43 44  1  0  0  0  0
 49 50  1  0  0  0  0
  7  8  1  0  0  0  0
 29 30  1  0  0  0  0
 39 40  1  0  0  0  0
 12 44  1  0  0  0  0
  3  4  1  0  0  0  0
  3  5  1  0  0  0  0
  3  6  1  0  0  0  0
 25 26  1  0  0  0  0
 25 27  1  0  0  0  0
 25 28  1  0  0  0  0
 53 56  1  0  0  0  0
 53 57  1  0  0  0  0
 53 58  1  0  0  0  0
 33 36  1  0  0  0  0
 33 37  1  0  0  0  0
 33 38  1  0  0  0  0
 60 62  1  0  0  0  0
 60 63  1  0  0  0  0
 60 64  1  0  0  0  0
 18 20  1  0  0  0  0
 18 21  1  0  0  0  0
 18 22  1  0  0  0  0
 11 15  1  0  0  0  0
 11 16  1  0  0  0  0
 43 47  1  0  0  0  0
 43 48  1  0  0  0  0
 50 55  1  0  0  0  0
  8 14  1  0  0  0  0
 30 35  1  0  0  0  0
 40 46  1  0  0  0  0
 59 61  1  0  0  0  0
 17 19  1  0  0  0  0
  7 13  1  0  0  0  0
 29 34  1  0  0  0  0
 49 54  1  0  0  0  0
 39 45  1  0  0  0  0
M  END
$$$$

  -OEChem-05262214473D

 64 63  0     1  0  0  0  0  0999 V2000
   -0.4888   -6.2880   -3.6374 C   0  0  0  0  0  0  0  0  0  0  0  0
   -1.6085   -6.2520   -4.1340 O   0  0  0  0  0  0  0  0  0  0  0  0
   -0.0383   -7.5209   -2.9266 C   0  0  0  0  0  0  0  0  0  0  0  0
   -0.2855   -7.5014   -1.8530 H   0  0  0  0  0  0  0  0  0  0  0  0
   -0.5180   -8.4317   -3.3194 H   0  0  0  0  0  0  0  0  0  0  0  0
    1.0441   -7.7216   -2.9710 H   0  0  0  0  0  0  0  0  0  0  0  0
    0.4510   -5.2720   -3.6614 N   0  0  0  0  0  0  0  0  0  0  0  0
    0.2232   -3.9985   -4.2960 C   0  0  2  0  0  0  0  0  0  0  0  0
    1.5362   -3.5053   -4.9007 C   0  0  0  0  0  0  0  0  0  0  0  0
    2.6086   -4.0830   -4.7345 O   0  0  0  0  0  0  0  0  0  0  0  0
   -0.4284   -2.9853   -3.3516 C   0  0  0  0  0  0  0  0  0  0  0  0
    0.6015   -2.5570   -1.9099 S   0  0  0  0  0  0  0  0  0  0  0  0
    1.3478   -5.4325   -3.2082 H   0  0  0  0  0  0  0  0  0  0  0  0
   -0.4672   -4.2012   -5.1241 H   0  0  0  0  0  0  0  0  0  0  0  0
   -0.6524   -2.0541   -3.8822 H   0  0  0  0  0  0  0  0  0  0  0  0
   -1.3748   -3.3847   -2.9713 H   0  0  0  0  0  0  0  0  0  0  0  0
    1.3728   -2.3332   -5.6252 N   0  0  0  0  0  0  0  0  0  0  0  0
    2.4731   -1.6577   -6.2725 C   0  0  0  0  0  0  0  0  0  0  0  0
    0.4415   -1.9467   -5.7475 H   0  0  0  0  0  0  0  0  0  0  0  0
    2.8867   -0.8966   -5.5946 H   0  0  0  0  0  0  0  0  0  0  0  0
    3.2555   -2.3891   -6.5236 H   0  0  0  0  0  0  0  0  0  0  0  0
    2.1152   -1.1732   -7.1929 H   0  0  0  0  0  0  0  0  0  0  0  0
   -6.7256    2.0330   -0.2766 C   0  0  0  0  0  0  0  0  0  0  0  0
   -7.1824    1.1039   -0.9322 O   0  0  0  0  0  0  0  0  0  0  0  0
   -7.5276    2.6077    0.8435 C   0  0  0  0  0  0  0  0  0  0  0  0
   -8.1775    3.4344    0.5145 H   0  0  0  0  0  0  0  0  0  0  0  0
   -8.2057    1.8676    1.2980 H   0  0  0  0  0  0  0  0  0  0  0  0
   -6.9411    3.0162    1.6819 H   0  0  0  0  0  0  0  0  0  0  0  0
   -5.4935    2.6382   -0.4627 N   0  0  0  0  0  0  0  0  0  0  0  0
   -4.5619    2.2388   -1.4845 C   0  0  2  0  0  0  0  0  0  0  0  0
   -3.1535    2.4674   -0.9521 C   0  0  0  0  0  0  0  0  0  0  0  0
   -2.8634    3.3945   -0.1987 O   0  0  0  0  0  0  0  0  0  0  0  0
   -4.7883    3.0138   -2.7732 C   0  0  0  0  0  0  0  0  0  0  0  0
   -5.2337    3.4049    0.1551 H   0  0  0  0  0  0  0  0  0  0  0  0
   -4.7192    1.1682   -1.6549 H   0  0  0  0  0  0  0  0  0  0  0  0
   -4.6352    4.0886   -2.6221 H   0  0  0  0  0  0  0  0  0  0  0  0
   -4.0976    2.6887   -3.5582 H   0  0  0  0  0  0  0  0  0  0  0  0
   -5.8111    2.8719   -3.1387 H   0  0  0  0  0  0  0  0  0  0  0  0
   -2.2466    1.5400   -1.4507 N   0  0  0  0  0  0  0  0  0  0  0  0
   -0.8424    1.5707   -1.1286 C   0  0  2  0  0  0  0  0  0  0  0  0
   -0.2572    2.9023   -1.5944 C   0  0  0  0  0  0  0  0  0  0  0  0
    0.2548    3.7141   -0.8261 O   0  0  0  0  0  0  0  0  0  0  0  0
   -0.0925    0.3536   -1.6755 C   0  0  0  0  0  0  0  0  0  0  0  0
   -0.6076   -1.2139   -0.9338 S   0  0  0  0  0  0  0  0  0  0  0  0
   -2.5850    0.7815   -2.0381 H   0  0  0  0  0  0  0  0  0  0  0  0
   -0.7910    1.5517   -0.0328 H   0  0  0  0  0  0  0  0  0  0  0  0
   -0.2372    0.2672   -2.7574 H   0  0  0  0  0  0  0  0  0  0  0  0
    0.9820    0.4648   -1.4938 H   0  0  0  0  0  0  0  0  0  0  0  0
   -0.3966    3.0870   -2.9626 N   0  0  0  0  0  0  0  0  0  0  0  0
    0.0569    4.2804   -3.6378 C   0  0  2  0  0  0  0  0  0  0  0  0
   -0.8798    4.5423   -4.8098 C   0  0  0  0  0  0  0  0  0  0  0  0
   -1.4071    3.6430   -5.4610 O   0  0  0  0  0  0  0  0  0  0  0  0
    1.4943    4.1351   -4.1127 C   0  0  0  0  0  0  0  0  0  0  0  0
   -0.7941    2.3438   -3.5295 H   0  0  0  0  0  0  0  0  0  0  0  0
   -0.0214    5.1010   -2.9165 H   0  0  0  0  0  0  0  0  0  0  0  0
    1.5925    3.3176   -4.8363 H   0  0  0  0  0  0  0  0  0  0  0  0
    1.8459    5.0510   -4.5992 H   0  0  0  0  0  0  0  0  0  0  0  0
    2.1623    3.9173   -3.2724 H   0  0  0  0  0  0  0  0  0  0  0  0
   -1.0234    5.8980   -5.0702 N   0  0  0  0  0  0  0  0  0  0  0  0
   -1.8269    6.4018   -6.1595 C   0  0  0  0  0  0  0  0  0  0  0  0
   -0.5818    6.5746   -4.4546 H   0  0  0  0  0  0  0  0  0  0  0  0
   -1.1944    6.5406   -7.0487 H   0  0  0  0  0  0  0  0  0  0  0  0
   -2.6273    5.6825   -6.3878 H   0  0  0  0  0  0  0  0  0  0  0  0
   -2.2714    7.3659   -5.8717 H   0  0  0  0  0  0  0  0  0  0  0  0
  1  3  1  0  0  0  0
  1  7  1  0  0  0  0
  1  2  2  0  0  0  0
 23 25  1  0  0  0  0
 23 29  1  0  0  0  0
 23 24  2  0  0  0  0
 50 51  1  0  0  0  0
 51 59  1  0  0  0  0
 51 52  2  0  0  0  0
  8  9  1  0  0  0  0
  9 17  1  0  0  0  0
  9 10  2  0  0  0  0
 30 31  1  0  0  0  0
 31 39  1  0  0  0  0
 31 32  2  0  0  0  0
 40 41  1  0  0  0  0
 41 49  1  0  0  0  0
 41 42  2  0  0  0  0
 50 53  1  0  0  0  0
 30 33  1  0  0  0  0
 59 60  1  0  0  0  0
 17 18  1  0  0  0  0
  8 11  1  0  0  0  0
 11 12  1  0  0  0  0
 40 43  1  0  0  0  0
 43 44  1  0  0  0  0
 49 50  1  0  0  0  0
  7  8  1  0  0  0  0
 29 30  1  0  0  0  0
 39 40  1  0  0  0  0
 12 44  1  0  0  0  0
  3  4  1  0  0  0  0
  3  5  1  0  0  0  0
  3  6  1  0  0  0  0
 25 26  1  0  0  0  0
 25 27  1  0  0  0  0
 25 28  1  0  0  0  0
 53 56  1  0  0  0  0
 53 57  1  0  0  0  0
 53 58  1  0  0  0  0
 33 36  1  0  0  0  0
 33 37  1  0  0  0  0
 33 38  1  0  0  0  0
 60 62  1  0  0  0  0
 60 63  1  0  0  0  0
 60 64  1  0  0  0  0
 18 20  1  0  0  0  0
 18 21  1  0  0  0  0
 18 22  1  0  0  0  0
 11 15  1  0  0  0  0
 11 16  1  0  0  0  0
 43 47  1  0  0  0  0
 43 48  1  0  0  0  0
 50 55  1  0  0  0  0
  8 14  1  0  0  0  0
 30 35  1  0  0  0  0
 40 46  1  0  0  0  0
 59 61  1  0  0  0  0
 17 19  1  0  0  0  0
  7 13  1  0  0  0  0
 29 34  1  0  0  0  0
 49 54  1  0  0  0  0
 39 45  1  0  0  0  0
M  END
$$$$

  -OEChem-05262214473D

 64 63  0     1  0  0  0  0  0999 V2000
   -0.4888   -6.2880   -3.6374 C   0  0  0  0  0  0  0  0  0  0  0  0
   -1.6085   -6.2520   -4.1340 O   0  0  0  0  0  0  0  0  0  0  0  0
   -0.0383   -7.5209   -2.9266 C   0  0  0  0  0  0  0  0  0  0  0  0
   -0.2855   -7.5014   -1.8530 H   0  0  0  0  0  0  0  0  0  0  0  0
   -0.5180   -8.4317   -3.3194 H   0  0  0  0  0  0  0  0  0  0  0  0
    1.0441   -7.7216   -2.9710 H   0  0  0  0  0  0  0  0  0  0  0  0
    0.4510   -5.2720   -3.6614 N   0  0  0  0  0  0  0  0  0  0  0  0
    0.2232   -3.9985   -4.2960 C   0  0  2  0  0  0  0  0  0  0  0  0
    1.5362   -3.5053   -4.9007 C   0  0  0  0  0  0  0  0  0  0  0  0
    2.6086   -4.0830   -4.7345 O   0  0  0  0  0  0  0  0  0  0  0  0
   -0.4284   -2.9853   -3.3516 C   0  0  0  0  0  0  0  0  0  0  0  0
    0.6015   -2.5570   -1.9099 S   0  0  0  0  0  0  0  0  0  0  0  0
    1.3478   -5.4325   -3.2082 H   0  0  0  0  0  0  0  0  0  0  0  0
   -0.4672   -4.2012   -5.1241 H   0  0  0  0  0  0  0  0  0  0  0  0
   -0.6524   -2.0541   -3.8822 H   0  0  0  0  0  0  0  0  0  0  0  0
   -1.3748   -3.3847   -2.9713 H   0  0  0  0  0  0  0  0  0  0  0  0
    1.3728   -2.3332   -5.6252 N   0  0  0  0  0  0  0  0  0  0  0  0
    2.4731   -1.6577   -6.2725 C   0  0  0  0  0  0  0  0  0  0  0  0
    0.4415   -1.9467   -5.7475 H   0  0  0  0  0  0  0  0  0  0  0  0
    2.8867   -0.8966   -5.5946 H   0  0  0  0  0  0  0  0  0  0  0  0
    3.2555   -2.3891   -6.5236 H   0  0  0  0  0  0  0  0  0  0  0  0
    2.1152   -1.1732   -7.1929 H   0  0  0  0  0  0  0  0  0  0  0  0
   -6.7256    2.0330   -0.2766 C   0  0  0  0  0  0  0  0  0  0  0  0
   -7.1824    1.1039   -0.9322 O   0  0  0  0  0  0  0  0  0  0  0  0
   -7.5276    2.6077    0.8435 C   0  0  0  0  0  0  0  0  0  0  0  0
   -8.1775    3.4344    0.5145 H   0  0  0  0  0  0  0  0  0  0  0  0
   -8.2057    1.8676    1.2980 H   0  0  0  0  0  0  0  0  0  0  0  0
   -6.9411    3.0162    1.6819 H   0  0  0  0  0  0  0  0  0  0  0  0
   -5.4935    2.6382   -0.4627 N   0  0  0  0  0  0  0  0  0  0  0  0
   -4.5619    2.2388   -1.4845 C   0  0  2  0  0  0  0  0  0  0  0  0
   -3.1535    2.4674   -0.9521 C   0  0  0  0  0  0  0  0  0  0  0  0
   -2.8634    3.3945   -0.1987 O   0  0  0  0  0  0  0  0  0  0  0  0
   -4.7883    3.0138   -2.7732 C   0  0  0  0  0  0  0  0  0  0  0  0
   -5.2337    3.4049    0.1551 H   0  0  0  0  0  0  0  0  0  0  0  0
   -4.7192    1.1682   -1.6549 H   0  0  0  0  0  0  0  0  0  0  0  0
   -4.6352    4.0886   -2.6221 H   0  0  0  0  0  0  0  0  0  0  0  0
   -4.0976    2.6887   -3.5582 H   0  0  0  0  0  0  0  0  0  0  0  0
   -5.8111    2.8719   -3.1387 H   0  0  0  0  0  0  0  0  0  0  0  0
   -2.2466    1.5400   -1.4507 N   0  0  0  0  0  0  0  0  0  0  0  0
   -0.8424    1.5707   -1.1286 C   0  0  2  0  0  0  0  0  0  0  0  0
   -0.2572    2.9023   -1.5944 C   0  0  0  0  0  0  0  0  0  0  0  0
    0.4835    3.5897   -0.8943 O   0  0  0  0  0  0  0  0  0  0  0  0
   -0.0925    0.3536   -1.6755 C   0  0  0  0  0  0  0  0  0  0  0  0
   -0.6076   -1.2139   -0.9338 S   0  0  0  0  0  0  0  0  0  0  0  0
   -2.5850    0.7815   -2.0381 H   0  0  0  0  0  0  0  0  0  0  0  0
   -0.7910    1.5517   -0.0328 H   0  0  0  0  0  0  0  0  0  0  0  0
   -0.2372    0.2672   -2.7574 H   0  0  0  0  0  0  0  0  0  0  0  0
    0.9820    0.4648   -1.4938 H   0  0  0  0  0  0  0  0  0  0  0  0
   -0.6791    3.2430   -2.8717 N   0  0  0  0  0  0  0  0  0  0  0  0
   -0.2807    4.4691   -3.5226 C   0  0  2  0  0  0  0  0  0  0  0  0
   -1.4263    4.9190   -4.4197 C   0  0  0  0  0  0  0  0  0  0  0  0
   -2.1639    4.1331   -5.0107 O   0  0  0  0  0  0  0  0  0  0  0  0
    0.9965    4.2793   -4.3260 C   0  0  0  0  0  0  0  0  0  0  0  0
   -1.2579    2.5940   -3.3967 H   0  0  0  0  0  0  0  0  0  0  0  0
   -0.1228    5.2102   -2.7316 H   0  0  0  0  0  0  0  0  0  0  0  0
    0.8576    3.5402   -5.1234 H   0  0  0  0  0  0  0  0  0  0  0  0
    1.3128    5.2166   -4.7956 H   0  0  0  0  0  0  0  0  0  0  0  0
    1.8116    3.9271   -3.6847 H   0  0  0  0  0  0  0  0  0  0  0  0
   -1.5011    6.3014   -4.5169 N   0  0  0  0  0  0  0  0  0  0  0  0
   -2.4772    6.9733   -5.3426 C   0  0  0  0  0  0  0  0  0  0  0  0
   -0.8747    6.8760   -3.9608 H   0  0  0  0  0  0  0  0  0  0  0  0
   -2.0476    7.1646   -6.3371 H   0  0  0  0  0  0  0  0  0  0  0  0
   -3.3698    6.3387   -5.4448 H   0  0  0  0  0  0  0  0  0  0  0  0
   -2.7579    7.9284   -4.8747 H   0  0  0  0  0  0  0  0  0  0  0  0
  1  3  1  0  0  0  0
  1  7  1  0  0  0  0
  1  2  2  0  0  0  0
 23 25  1  0  0  0  0
 23 29  1  0  0  0  0
 23 24  2  0  0  0  0
 50 51  1  0  0  0  0
 51 59  1  0  0  0  0
 51 52  2  0  0  0  0
  8  9  1  0  0  0  0
  9 17  1  0  0  0  0
  9 10  2  0  0  0  0
 30 31  1  0  0  0  0
 31 39  1  0  0  0  0
 31 32  2  0  0  0  0
 40 41  1  0  0  0  0
 41 49  1  0  0  0  0
 41 42  2  0  0  0  0
 50 53  1  0  0  0  0
 30 33  1  0  0  0  0
 59 60  1  0  0  0  0
 17 18  1  0  0  0  0
  8 11  1  0  0  0  0
 11 12  1  0  0  0  0
 40 43  1  0  0  0  0
 43 44  1  0  0  0  0
 49 50  1  0  0  0  0
  7  8  1  0  0  0  0
 29 30  1  0  0  0  0
 39 40  1  0  0  0  0
 12 44  1  0  0  0  0
  3  4  1  0  0  0  0
  3  5  1  0  0  0  0
  3  6  1  0  0  0  0
 25 26  1  0  0  0  0
 25 27  1  0  0  0  0
 25 28  1  0  0  0  0
 53 56  1  0  0  0  0
 53 57  1  0  0  0  0
 53 58  1  0  0  0  0
 33 36  1  0  0  0  0
 33 37  1  0  0  0  0
 33 38  1  0  0  0  0
 60 62  1  0  0  0  0
 60 63  1  0  0  0  0
 60 64  1  0  0  0  0
 18 20  1  0  0  0  0
 18 21  1  0  0  0  0
 18 22  1  0  0  0  0
 11 15  1  0  0  0  0
 11 16  1  0  0  0  0
 43 47  1  0  0  0  0
 43 48  1  0  0  0  0
 50 55  1  0  0  0  0
  8 14  1  0  0  0  0
 30 35  1  0  0  0  0
 40 46  1  0  0  0  0
 59 61  1  0  0  0  0
 17 19  1  0  0  0  0
  7 13  1  0  0  0  0
 29 34  1  0  0  0  0
 49 54  1  0  0  0  0
 39 45  1  0  0  0  0
M  END
$$$$

  -OEChem-05262214473D

 64 63  0     1  0  0  0  0  0999 V2000
   -0.4888   -6.2880   -3.6374 C   0  0  0  0  0  0  0  0  0  0  0  0
   -1.6085   -6.2520   -4.1340 O   0  0  0  0  0  0  0  0  0  0  0  0
   -0.0383   -7.5209   -2.9266 C   0  0  0  0  0  0  0  0  0  0  0  0
   -0.2855   -7.5014   -1.8530 H   0  0  0  0  0  0  0  0  0  0  0  0
   -0.5180   -8.4317   -3.3194 H   0  0  0  0  0  0  0  0  0  0  0  0
    1.0441   -7.7216   -2.9710 H   0  0  0  0  0  0  0  0  0  0  0  0
    0.4510   -5.2720   -3.6614 N   0  0  0  0  0  0  0  0  0  0  0  0
    0.2232   -3.9985   -4.2960 C   0  0  2  0  0  0  0  0  0  0  0  0
    1.5362   -3.5053   -4.9007 C   0  0  0  0  0  0  0  0  0  0  0  0
    2.6086   -4.0830   -4.7345 O   0  0  0  0  0  0  0  0  0  0  0  0
   -0.4284   -2.9853   -3.3516 C   0  0  0  0  0  0  0  0  0  0  0  0
    0.6015   -2.5570   -1.9099 S   0  0  0  0  0  0  0  0  0  0  0  0
    1.3478   -5.4325   -3.2082 H   0  0  0  0  0  0  0  0  0  0  0  0
   -0.4672   -4.2012   -5.1241 H   0  0  0  0  0  0  0  0  0  0  0  0
   -0.6524   -2.0541   -3.8822 H   0  0  0  0  0  0  0  0  0  0  0  0
   -1.3748   -3.3847   -2.9713 H   0  0  0  0  0  0  0  0  0  0  0  0
    1.3728   -2.3332   -5.6252 N   0  0  0  0  0  0  0  0  0  0  0  0
    2.4731   -1.6577   -6.2725 C   0  0  0  0  0  0  0  0  0  0  0  0
    0.4415   -1.9467   -5.7475 H   0  0  0  0  0  0  0  0  0  0  0  0
    2.8867   -0.8966   -5.5946 H   0  0  0  0  0  0  0  0  0  0  0  0
    3.2555   -2.3891   -6.5236 H   0  0  0  0  0  0  0  0  0  0  0  0
    2.1152   -1.1732   -7.1929 H   0  0  0  0  0  0  0  0  0  0  0  0
   -6.7256    2.0330   -0.2766 C   0  0  0  0  0  0  0  0  0  0  0  0
   -7.1824    1.1039   -0.9322 O   0  0  0  0  0  0  0  0  0  0  0  0
   -7.5276    2.6077    0.8435 C   0  0  0  0  0  0  0  0  0  0  0  0
   -8.1775    3.4344    0.5145 H   0  0  0  0  0  0  0  0  0  0  0  0
   -8.2057    1.8676    1.2980 H   0  0  0  0  0  0  0  0  0  0  0  0
   -6.9411    3.0162    1.6819 H   0  0  0  0  0  0  0  0  0  0  0  0
   -5.4935    2.6382   -0.4627 N   0  0  0  0  0  0  0  0  0  0  0  0
   -4.5619    2.2388   -1.4845 C   0  0  2  0  0  0  0  0  0  0  0  0
   -3.1535    2.4674   -0.9521 C   0  0  0  0  0  0  0  0  0  0  0  0
   -2.8634    3.3945   -0.1987 O   0  0  0  0  0  0  0  0  0  0  0  0
   -4.7883    3.0138   -2.7732 C   0  0  0  0  0  0  0  0  0  0  0  0
   -5.2337    3.4049    0.1551 H   0  0  0  0  0  0  0  0  0  0  0  0
   -4.7192    1.1682   -1.6549 H   0  0  0  0  0  0  0  0  0  0  0  0
   -4.6352    4.0886   -2.6221 H   0  0  0  0  0  0  0  0  0  0  0  0
   -4.0976    2.6887   -3.5582 H   0  0  0  0  0  0  0  0  0  0  0  0
   -5.8111    2.8719   -3.1387 H   0  0  0  0  0  0  0  0  0  0  0  0
   -2.2466    1.5400   -1.4507 N   0  0  0  0  0  0  0  0  0  0  0  0
   -0.8424    1.5707   -1.1286 C   0  0  2  0  0  0  0  0  0  0  0  0
   -0.2572    2.9023   -1.5944 C   0  0  0  0  0  0  0  0  0  0  0  0
    0.6793    3.4583   -1.0240 O   0  0  0  0  0  0  0  0  0  0  0  0
   -0.0925    0.3536   -1.6755 C   0  0  0  0  0  0  0  0  0  0  0  0
   -0.6076   -1.2139   -0.9338 S   0  0  0  0  0  0  0  0  0  0  0  0
   -2.5850    0.7815   -2.0381 H   0  0  0  0  0  0  0  0  0  0  0  0
   -0.7910    1.5517   -0.0328 H   0  0  0  0  0  0  0  0  0  0  0  0
   -0.2372    0.2672   -2.7574 H   0  0  0  0  0  0  0  0  0  0  0  0
    0.9820    0.4648   -1.4938 H   0  0  0  0  0  0  0  0  0  0  0  0
   -0.9192    3.4069   -2.7046 N   0  0  0  0  0  0  0  0  0  0  0  0
   -0.5660    4.6666   -3.3165 C   0  0  2  0  0  0  0  0  0  0  0  0
   -1.8365    5.2873   -3.8822 C   0  0  0  0  0  0  0  0  0  0  0  0
   -2.7547    4.6216   -4.3564 O   0  0  0  0  0  0  0  0  0  0  0  0
    0.4789    4.4790   -4.4054 C   0  0  0  0  0  0  0  0  0  0  0  0
   -1.6561    2.8592   -3.1390 H   0  0  0  0  0  0  0  0  0  0  0  0
   -0.1703    5.3054   -2.5194 H   0  0  0  0  0  0  0  0  0  0  0  0
    0.1005    3.8416   -5.2129 H   0  0  0  0  0  0  0  0  0  0  0  0
    0.7665    5.4381   -4.8487 H   0  0  0  0  0  0  0  0  0  0  0  0
    1.3807    4.0052   -4.0028 H   0  0  0  0  0  0  0  0  0  0  0  0
   -1.8057    6.6740   -3.8346 N   0  0  0  0  0  0  0  0  0  0  0  0
   -2.8758    7.4957   -4.3502 C   0  0  0  0  0  0  0  0  0  0  0  0
   -1.0224    7.1414   -3.3878 H   0  0  0  0  0  0  0  0  0  0  0  0
   -2.6619    7.7640   -5.3953 H   0  0  0  0  0  0  0  0  0  0  0  0
   -3.8225    6.9377   -4.3014 H   0  0  0  0  0  0  0  0  0  0  0  0
   -2.9584    8.4113   -3.7462 H   0  0  0  0  0  0  0  0  0  0  0  0
  1  3  1  0  0  0  0
  1  7  1  0  0  0  0
  1  2  2  0  0  0  0
 23 25  1  0  0  0  0
 23 29  1  0  0  0  0
 23 24  2  0  0  0  0
 50 51  1  0  0  0  0
 51 59  1  0  0  0  0
 51 52  2  0  0  0  0
  8  9  1  0  0  0  0
  9 17  1  0  0  0  0
  9 10  2  0  0  0  0
 30 31  1  0  0  0  0
 31 39  1  0  0  0  0
 31 32  2  0  0  0  0
 40 41  1  0  0  0  0
 41 49  1  0  0  0  0
 41 42  2  0  0  0  0
 50 53  1  0  0  0  0
 30 33  1  0  0  0  0
 59 60  1  0  0  0  0
 17 18  1  0  0  0  0
  8 11  1  0  0  0  0
 11 12  1  0  0  0  0
 40 43  1  0  0  0  0
 43 44  1  0  0  0  0
 49 50  1  0  0  0  0
  7  8  1  0  0  0  0
 29 30  1  0  0  0  0
 39 40  1  0  0  0  0
 12 44  1  0  0  0  0
  3  4  1  0  0  0  0
  3  5  1  0  0  0  0
  3  6  1  0  0  0  0
 25 26  1  0  0  0  0
 25 27  1  0  0  0  0
 25 28  1  0  0  0  0
 53 56  1  0  0  0  0
 53 57  1  0  0  0  0
 53 58  1  0  0  0  0
 33 36  1  0  0  0  0
 33 37  1  0  0  0  0
 33 38  1  0  0  0  0
 60 62  1  0  0  0  0
 60 63  1  0  0  0  0
 60 64  1  0  0  0  0
 18 20  1  0  0  0  0
 18 21  1  0  0  0  0
 18 22  1  0  0  0  0
 11 15  1  0  0  0  0
 11 16  1  0  0  0  0
 43 47  1  0  0  0  0
 43 48  1  0  0  0  0
 50 55  1  0  0  0  0
  8 14  1  0  0  0  0
 30 35  1  0  0  0  0
 40 46  1  0  0  0  0
 59 61  1  0  0  0  0
 17 19  1  0  0  0  0
  7 13  1  0  0  0  0
 29 34  1  0  0  0  0
 49 54  1  0  0  0  0
 39 45  1  0  0  0  0
M  END
$$$$

  -OEChem-05262214473D

 64 63  0     1  0  0  0  0  0999 V2000
   -0.4888   -6.2880   -3.6374 C   0  0  0  0  0  0  0  0  0  0  0  0
   -1.6085   -6.2520   -4.1340 O   0  0  0  0  0  0  0  0  0  0  0  0
   -0.0383   -7.5209   -2.9266 C   0  0  0  0  0  0  0  0  0  0  0  0
   -0.2855   -7.5014   -1.8530 H   0  0  0  0  0  0  0  0  0  0  0  0
   -0.5180   -8.4317   -3.3194 H   0  0  0  0  0  0  0  0  0  0  0  0
    1.0441   -7.7216   -2.9710 H   0  0  0  0  0  0  0  0  0  0  0  0
    0.4510   -5.2720   -3.6614 N   0  0  0  0  0  0  0  0  0  0  0  0
    0.2232   -3.9985   -4.2960 C   0  0  2  0  0  0  0  0  0  0  0  0
    1.5362   -3.5053   -4.9007 C   0  0  0  0  0  0  0  0  0  0  0  0
    2.6086   -4.0830   -4.7345 O   0  0  0  0  0  0  0  0  0  0  0  0
   -0.4284   -2.9853   -3.3516 C   0  0  0  0  0  0  0  0  0  0  0  0
    0.6015   -2.5570   -1.9099 S   0  0  0  0  0  0  0  0  0  0  0  0
    1.3478   -5.4325   -3.2082 H   0  0  0  0  0  0  0  0  0  0  0  0
   -0.4672   -4.2012   -5.1241 H   0  0  0  0  0  0  0  0  0  0  0  0
   -0.6524   -2.0541   -3.8822 H   0  0  0  0  0  0  0  0  0  0  0  0
   -1.3748   -3.3847   -2.9713 H   0  0  0  0  0  0  0  0  0  0  0  0
    1.3728   -2.3332   -5.6252 N   0  0  0  0  0  0  0  0  0  0  0  0
    2.4731   -1.6577   -6.2725 C   0  0  0  0  0  0  0  0  0  0  0  0
    0.4415   -1.9467   -5.7475 H   0  0  0  0  0  0  0  0  0  0  0  0
    2.8867   -0.8966   -5.5946 H   0  0  0  0  0  0  0  0  0  0  0  0
    3.2555   -2.3891   -6.5236 H   0  0  0  0  0  0  0  0  0  0  0  0
    2.1152   -1.1732   -7.1929 H   0  0  0  0  0  0  0  0  0  0  0  0
   -6.7256    2.0330   -0.2766 C   0  0  0  0  0  0  0  0  0  0  0  0
   -7.1824    1.1039   -0.9322 O   0  0  0  0  0  0  0  0  0  0  0  0
   -7.5276    2.6077    0.8435 C   0  0  0  0  0  0  0  0  0  0  0  0
   -8.1775    3.4344    0.5145 H   0  0  0  0  0  0  0  0  0  0  0  0
   -8.2057    1.8676    1.2980 H   0  0  0  0  0  0  0  0  0  0  0  0
   -6.9411    3.0162    1.6819 H   0  0  0  0  0  0  0  0  0  0  0  0
   -5.4935    2.6382   -0.4627 N   0  0  0  0  0  0  0  0  0  0  0  0
   -4.5619    2.2388   -1.4845 C   0  0  2  0  0  0  0  0  0  0  0  0
   -3.1535    2.4674   -0.9521 C   0  0  0  0  0  0  0  0  0  0  0  0
   -2.8634    3.3945   -0.1987 O   0  0  0  0  0  0  0  0  0  0  0  0
   -4.7883    3.0138   -2.7732 C   0  0  0  0  0  0  0  0  0  0  0  0
   -5.2337    3.4049    0.1551 H   0  0  0  0  0  0  0  0  0  0  0  0
   -4.7192    1.1682   -1.6549 H   0  0  0  0  0  0  0  0  0  0  0  0
   -4.6352    4.0886   -2.6221 H   0  0  0  0  0  0  0  0  0  0  0  0
   -4.0976    2.6887   -3.5582 H   0  0  0  0  0  0  0  0  0  0  0  0
   -5.8111    2.8719   -3.1387 H   0  0  0  0  0  0  0  0  0  0  0  0
   -2.2466    1.5400   -1.4507 N   0  0  0  0  0  0  0  0  0  0  0  0
   -0.8424    1.5707   -1.1286 C   0  0  2  0  0  0  0  0  0  0  0  0
   -0.2572    2.9023   -1.5944 C   0  0  0  0  0  0  0  0  0  0  0  0
    0.8287    3.3288   -1.2066 O   0  0  0  0  0  0  0  0  0  0  0  0
   -0.0925    0.3536   -1.6755 C   0  0  0  0  0  0  0  0  0  0  0  0
   -0.6076   -1.2139   -0.9338 S   0  0  0  0  0  0  0  0  0  0  0  0
   -2.5850    0.7815   -2.0381 H   0  0  0  0  0  0  0  0  0  0  0  0
   -0.7910    1.5517   -0.0328 H   0  0  0  0  0  0  0  0  0  0  0  0
   -0.2372    0.2672   -2.7574 H   0  0  0  0  0  0  0  0  0  0  0  0
    0.9820    0.4648   -1.4938 H   0  0  0  0  0  0  0  0  0  0  0  0
   -1.1005    3.5677   -2.4728 N   0  0  0  0  0  0  0  0  0  0  0  0
   -0.7794    4.8594   -3.0334 C   0  0  2  0  0  0  0  0  0  0  0  0
   -2.0823    5.6221   -3.2339 C   0  0  0  0  0  0  0  0  0  0  0  0
   -3.1390    5.0752   -3.5426 O   0  0  0  0  0  0  0  0  0  0  0  0
   -0.0233    4.7207   -4.3455 C   0  0  0  0  0  0  0  0  0  0  0  0
   -1.9618    3.1213   -2.7739 H   0  0  0  0  0  0  0  0  0  0  0  0
   -0.1608    5.3800   -2.2942 H   0  0  0  0  0  0  0  0  0  0  0  0
   -0.6272    4.2014   -5.0986 H   0  0  0  0  0  0  0  0  0  0  0  0
    0.2444    5.7004   -4.7547 H   0  0  0  0  0  0  0  0  0  0  0  0
    0.8988    4.1463   -4.2051 H   0  0  0  0  0  0  0  0  0  0  0  0
   -1.9166    6.9903   -3.0699 N   0  0  0  0  0  0  0  0  0  0  0  0
   -2.9957    7.9333   -3.2497 C   0  0  0  0  0  0  0  0  0  0  0  0
   -1.0148    7.3526   -2.7746 H   0  0  0  0  0  0  0  0  0  0  0  0
   -2.9954    8.2981   -4.2875 H   0  0  0  0  0  0  0  0  0  0  0  0
   -3.9544    7.4385   -3.0354 H   0  0  0  0  0  0  0  0  0  0  0  0
   -2.8593    8.7817   -2.5630 H   0  0  0  0  0  0  0  0  0  0  0  0
  1  3  1  0  0  0  0
  1  7  1  0  0  0  0
  1  2  2  0  0  0  0
 23 25  1  0  0  0  0
 23 29  1  0  0  0  0
 23 24  2  0  0  0  0
 50 51  1  0  0  0  0
 51 59  1  0  0  0  0
 51 52  2  0  0  0  0
  8  9  1  0  0  0  0
  9 17  1  0  0  0  0
  9 10  2  0  0  0  0
 30 31  1  0  0  0  0
 31 39  1  0  0  0  0
 31 32  2  0  0  0  0
 40 41  1  0  0  0  0
 41 49  1  0  0  0  0
 41 42  2  0  0  0  0
 50 53  1  0  0  0  0
 30 33  1  0  0  0  0
 59 60  1  0  0  0  0
 17 18  1  0  0  0  0
  8 11  1  0  0  0  0
 11 12  1  0  0  0  0
 40 43  1  0  0  0  0
 43 44  1  0  0  0  0
 49 50  1  0  0  0  0
  7  8  1  0  0  0  0
 29 30  1  0  0  0  0
 39 40  1  0  0  0  0
 12 44  1  0  0  0  0
  3  4  1  0  0  0  0
  3  5  1  0  0  0  0
  3  6  1  0  0  0  0
 25 26  1  0  0  0  0
 25 27  1  0  0  0  0
 25 28  1  0  0  0  0
 53 56  1  0  0  0  0
 53 57  1  0  0  0  0
 53 58  1  0  0  0  0
 33 36  1  0  0  0  0
 33 37  1  0  0  0  0
 33 38  1  0  0  0  0
 60 62  1  0  0  0  0
 60 63  1  0  0  0  0
 60 64  1  0  0  0  0
 18 20  1  0  0  0  0
 18 21  1  0  0  0  0
 18 22  1  0  0  0  0
 11 15  1  0  0  0  0
 11 16  1  0  0  0  0
 43 47  1  0  0  0  0
 43 48  1  0  0  0  0
 50 55  1  0  0  0  0
  8 14  1  0  0  0  0
 30 35  1  0  0  0  0
 40 46  1  0  0  0  0
 59 61  1  0  0  0  0
 17 19  1  0  0  0  0
  7 13  1  0  0  0  0
 29 34  1  0  0  0  0
 49 54  1  0  0  0  0
 39 45  1  0  0  0  0
M  END
$$$$

  -OEChem-05262214473D

 64 63  0     1  0  0  0  0  0999 V2000
   -0.4888   -6.2880   -3.6374 C   0  0  0  0  0  0  0  0  0  0  0  0
   -1.6085   -6.2520   -4.1340 O   0  0  0  0  0  0  0  0  0  0  0  0
   -0.0383   -7.5209   -2.9266 C   0  0  0  0  0  0  0  0  0  0  0  0
   -0.2855   -7.5014   -1.8530 H   0  0  0  0  0  0  0  0  0  0  0  0
   -0.5180   -8.4317   -3.3194 H   0  0  0  0  0  0  0  0  0  0  0  0
    1.0441   -7.7216   -2.9710 H   0  0  0  0  0  0  0  0  0  0  0  0
    0.4510   -5.2720   -3.6614 N   0  0  0  0  0  0  0  0  0  0  0  0
    0.2232   -3.9985   -4.2960 C   0  0  2  0  0  0  0  0  0  0  0  0
    1.5362   -3.5053   -4.9007 C   0  0  0  0  0  0  0  0  0  0  0  0
    2.6086   -4.0830   -4.7345 O   0  0  0  0  0  0  0  0  0  0  0  0
   -0.4284   -2.9853   -3.3516 C   0  0  0  0  0  0  0  0  0  0  0  0
    0.6015   -2.5570   -1.9099 S   0  0  0  0  0  0  0  0  0  0  0  0
    1.3478   -5.4325   -3.2082 H   0  0  0  0  0  0  0  0  0  0  0  0
   -0.4672   -4.2012   -5.1241 H   0  0  0  0  0  0  0  0  0  0  0  0
   -0.6524   -2.0541   -3.8822 H   0  0  0  0  0  0  0  0  0  0  0  0
   -1.3748   -3.3847   -2.9713 H   0  0  0  0  0  0  0  0  0  0  0  0
    1.3728   -2.3332   -5.6252 N   0  0  0  0  0  0  0  0  0  0  0  0
    2.4731   -1.6577   -6.2725 C   0  0  0  0  0  0  0  0  0  0  0  0
    0.4415   -1.9467   -5.7475 H   0  0  0  0  0  0  0  0  0  0  0  0
    2.8867   -0.8966   -5.5946 H   0  0  0  0  0  0  0  0  0  0  0  0
    3.2555   -2.3891   -6.5236 H   0  0  0  0  0  0  0  0  0  0  0  0
    2.1152   -1.1732   -7.1929 H   0  0  0  0  0  0  0  0  0  0  0  0
   -6.7256    2.0330   -0.2766 C   0  0  0  0  0  0  0  0  0  0  0  0
   -7.1824    1.1039   -0.9322 O   0  0  0  0  0  0  0  0  0  0  0  0
   -7.5276    2.6077    0.8435 C   0  0  0  0  0  0  0  0  0  0  0  0
   -8.1775    3.4344    0.5145 H   0  0  0  0  0  0  0  0  0  0  0  0
   -8.2057    1.8676    1.2980 H   0  0  0  0  0  0  0  0  0  0  0  0
   -6.9411    3.0162    1.6819 H   0  0  0  0  0  0  0  0  0  0  0  0
   -5.4935    2.6382   -0.4627 N   0  0  0  0  0  0  0  0  0  0  0  0
   -4.5619    2.2388   -1.4845 C   0  0  2  0  0  0  0  0  0  0  0  0
   -3.1535    2.4674   -0.9521 C   0  0  0  0  0  0  0  0  0  0  0  0
   -2.8634    3.3945   -0.1987 O   0  0  0  0  0  0  0  0  0  0  0  0
   -4.7883    3.0138   -2.7732 C   0  0  0  0  0  0  0  0  0  0  0  0
   -5.2337    3.4049    0.1551 H   0  0  0  0  0  0  0  0  0  0  0  0
   -4.7192    1.1682   -1.6549 H   0  0  0  0  0  0  0  0  0  0  0  0
   -4.6352    4.0886   -2.6221 H   0  0  0  0  0  0  0  0  0  0  0  0
   -4.0976    2.6887   -3.5582 H   0  0  0  0  0  0  0  0  0  0  0  0
   -5.8111    2.8719   -3.1387 H   0  0  0  0  0  0  0  0  0  0  0  0
   -2.2466    1.5400   -1.4507 N   0  0  0  0  0  0  0  0  0  0  0  0
   -0.8424    1.5707   -1.1286 C   0  0  2  0  0  0  0  0  0  0  0  0
   -0.2572    2.9023   -1.5944 C   0  0  0  0  0  0  0  0  0  0  0  0
    0.9216    3.2100   -1.4295 O   0  0  0  0  0  0  0  0  0  0  0  0
   -0.0925    0.3536   -1.6755 C   0  0  0  0  0  0  0  0  0  0  0  0
   -0.6076   -1.2139   -0.9338 S   0  0  0  0  0  0  0  0  0  0  0  0
   -2.5850    0.7815   -2.0381 H   0  0  0  0  0  0  0  0  0  0  0  0
   -0.7910    1.5517   -0.0328 H   0  0  0  0  0  0  0  0  0  0  0  0
   -0.2372    0.2672   -2.7574 H   0  0  0  0  0  0  0  0  0  0  0  0
    0.9820    0.4648   -1.4938 H   0  0  0  0  0  0  0  0  0  0  0  0
   -1.2106    3.7143   -2.1921 N   0  0  0  0  0  0  0  0  0  0  0  0
   -0.9064    5.0344   -2.6926 C   0  0  2  0  0  0  0  0  0  0  0  0
   -2.1470    5.9006   -2.5190 C   0  0  0  0  0  0  0  0  0  0  0  0
   -3.2908    5.4630   -2.6248 O   0  0  0  0  0  0  0  0  0  0  0  0
   -0.4757    4.9878   -4.1503 C   0  0  0  0  0  0  0  0  0  0  0  0
   -2.1539    3.3623   -2.3263 H   0  0  0  0  0  0  0  0  0  0  0  0
   -0.0950    5.4290   -2.0714 H   0  0  0  0  0  0  0  0  0  0  0  0
   -1.2759    4.5951   -4.7882 H   0  0  0  0  0  0  0  0  0  0  0  0
   -0.2180    5.9857   -4.5201 H   0  0  0  0  0  0  0  0  0  0  0  0
    0.3988    4.3406   -4.2778 H   0  0  0  0  0  0  0  0  0  0  0  0
   -1.8263    7.2287   -2.2749 N   0  0  0  0  0  0  0  0  0  0  0  0
   -2.8286    8.2564   -2.1164 C   0  0  0  0  0  0  0  0  0  0  0  0
   -0.8525    7.4951   -2.1632 H   0  0  0  0  0  0  0  0  0  0  0  0
   -3.0254    8.7305   -3.0892 H   0  0  0  0  0  0  0  0  0  0  0  0
   -3.7567    7.8072   -1.7330 H   0  0  0  0  0  0  0  0  0  0  0  0
   -2.4673    9.0143   -1.4057 H   0  0  0  0  0  0  0  0  0  0  0  0
  1  3  1  0  0  0  0
  1  7  1  0  0  0  0
  1  2  2  0  0  0  0
 23 25  1  0  0  0  0
 23 29  1  0  0  0  0
 23 24  2  0  0  0  0
 50 51  1  0  0  0  0
 51 59  1  0  0  0  0
 51 52  2  0  0  0  0
  8  9  1  0  0  0  0
  9 17  1  0  0  0  0
  9 10  2  0  0  0  0
 30 31  1  0  0  0  0
 31 39  1  0  0  0  0
 31 32  2  0  0  0  0
 40 41  1  0  0  0  0
 41 49  1  0  0  0  0
 41 42  2  0  0  0  0
 50 53  1  0  0  0  0
 30 33  1  0  0  0  0
 59 60  1  0  0  0  0
 17 18  1  0  0  0  0
  8 11  1  0  0  0  0
 11 12  1  0  0  0  0
 40 43  1  0  0  0  0
 43 44  1  0  0  0  0
 49 50  1  0  0  0  0
  7  8  1  0  0  0  0
 29 30  1  0  0  0  0
 39 40  1  0  0  0  0
 12 44  1  0  0  0  0
  3  4  1  0  0  0  0
  3  5  1  0  0  0  0
  3  6  1  0  0  0  0
 25 26  1  0  0  0  0
 25 27  1  0  0  0  0
 25 28  1  0  0  0  0
 53 56  1  0  0  0  0
 53 57  1  0  0  0  0
 53 58  1  0  0  0  0
 33 36  1  0  0  0  0
 33 37  1  0  0  0  0
 33 38  1  0  0  0  0
 60 62  1  0  0  0  0
 60 63  1  0  0  0  0
 60 64  1  0  0  0  0
 18 20  1  0  0  0  0
 18 21  1  0  0  0  0
 18 22  1  0  0  0  0
 11 15  1  0  0  0  0
 11 16  1  0  0  0  0
 43 47  1  0  0  0  0
 43 48  1  0  0  0  0
 50 55  1  0  0  0  0
  8 14  1  0  0  0  0
 30 35  1  0  0  0  0
 40 46  1  0  0  0  0
 59 61  1  0  0  0  0
 17 19  1  0  0  0  0
  7 13  1  0  0  0  0
 29 34  1  0  0  0  0
 49 54  1  0  0  0  0
 39 45  1  0  0  0  0
M  END
$$$$

  -OEChem-05262214473D

 64 63  0     1  0  0  0  0  0999 V2000
   -0.4888   -6.2880   -3.6374 C   0  0  0  0  0  0  0  0  0  0  0  0
   -1.6085   -6.2520   -4.1340 O   0  0  0  0  0  0  0  0  0  0  0  0
   -0.0383   -7.5209   -2.9266 C   0  0  0  0  0  0  0  0  0  0  0  0
   -0.2855   -7.5014   -1.8530 H   0  0  0  0  0  0  0  0  0  0  0  0
   -0.5180   -8.4317   -3.3194 H   0  0  0  0  0  0  0  0  0  0  0  0
    1.0441   -7.7216   -2.9710 H   0  0  0  0  0  0  0  0  0  0  0  0
    0.4510   -5.2720   -3.6614 N   0  0  0  0  0  0  0  0  0  0  0  0
    0.2232   -3.9985   -4.2960 C   0  0  2  0  0  0  0  0  0  0  0  0
    1.5362   -3.5053   -4.9007 C   0  0  0  0  0  0  0  0  0  0  0  0
    2.6086   -4.0830   -4.7345 O   0  0  0  0  0  0  0  0  0  0  0  0
   -0.4284   -2.9853   -3.3516 C   0  0  0  0  0  0  0  0  0  0  0  0
    0.6015   -2.5570   -1.9099 S   0  0  0  0  0  0  0  0  0  0  0  0
    1.3478   -5.4325   -3.2082 H   0  0  0  0  0  0  0  0  0  0  0  0
   -0.4672   -4.2012   -5.1241 H   0  0  0  0  0  0  0  0  0  0  0  0
   -0.6524   -2.0541   -3.8822 H   0  0  0  0  0  0  0  0  0  0  0  0
   -1.3748   -3.3847   -2.9713 H   0  0  0  0  0  0  0  0  0  0  0  0
    1.3728   -2.3332   -5.6252 N   0  0  0  0  0  0  0  0  0  0  0  0
    2.4731   -1.6577   -6.2725 C   0  0  0  0  0  0  0  0  0  0  0  0
    0.4415   -1.9467   -5.7475 H   0  0  0  0  0  0  0  0  0  0  0  0
    2.8867   -0.8966   -5.5946 H   0  0  0  0  0  0  0  0  0  0  0  0
    3.2555   -2.3891   -6.5236 H   0  0  0  0  0  0  0  0  0  0  0  0
    2.1152   -1.1732   -7.1929 H   0  0  0  0  0  0  0  0  0  0  0  0
   -6.7256    2.0330   -0.2766 C   0  0  0  0  0  0  0  0  0  0  0  0
   -7.1824    1.1039   -0.9322 O   0  0  0  0  0  0  0  0  0  0  0  0
   -7.5276    2.6077    0.8435 C   0  0  0  0  0  0  0  0  0  0  0  0
   -8.1775    3.4344    0.5145 H   0  0  0  0  0  0  0  0  0  0  0  0
   -8.2057    1.8676    1.2980 H   0  0  0  0  0  0  0  0  0  0  0  0
   -6.9411    3.0162    1.6819 H   0  0  0  0  0  0  0  0  0  0  0  0
   -5.4935    2.6382   -0.4627 N   0  0  0  0  0  0  0  0  0  0  0  0
   -4.5619    2.2388   -1.4845 C   0  0  2  0  0  0  0  0  0  0  0  0
   -3.1535    2.4674   -0.9521 C   0  0  0  0  0  0  0  0  0  0  0  0
   -2.8634    3.3945   -0.1987 O   0  0  0  0  0  0  0  0  0  0  0  0
   -4.7883    3.0138   -2.7732 C   0  0  0  0  0  0  0  0  0  0  0  0
   -5.2337    3.4049    0.1551 H   0  0  0  0  0  0  0  0  0  0  0  0
   -4.7192    1.1682   -1.6549 H   0  0  0  0  0  0  0  0  0  0  0  0
   -4.6352    4.0886   -2.6221 H   0  0  0  0  0  0  0  0  0  0  0  0
   -4.0976    2.6887   -3.5582 H   0  0  0  0  0  0  0  0  0  0  0  0
   -5.8111    2.8719   -3.1387 H   0  0  0  0  0  0  0  0  0  0  0  0
   -2.2466    1.5400   -1.4507 N   0  0  0  0  0  0  0  0  0  0  0  0
   -0.8424    1.5707   -1.1286 C   0  0  2  0  0  0  0  0  0  0  0  0
   -0.2572    2.9023   -1.5944 C   0  0  0  0  0  0  0  0  0  0  0  0
    0.9517    3.1100   -1.6776 O   0  0  0  0  0  0  0  0  0  0  0  0
   -0.0925    0.3536   -1.6755 C   0  0  0  0  0  0  0  0  0  0  0  0
   -0.6076   -1.2139   -0.9338 S   0  0  0  0  0  0  0  0  0  0  0  0
   -2.5850    0.7815   -2.0381 H   0  0  0  0  0  0  0  0  0  0  0  0
   -0.7910    1.5517   -0.0328 H   0  0  0  0  0  0  0  0  0  0  0  0
   -0.2372    0.2672   -2.7574 H   0  0  0  0  0  0  0  0  0  0  0  0
    0.9820    0.4648   -1.4938 H   0  0  0  0  0  0  0  0  0  0  0  0
   -1.2421    3.8368   -1.8815 N   0  0  0  0  0  0  0  0  0  0  0  0
   -0.9384    5.1797   -2.3175 C   0  0  2  0  0  0  0  0  0  0  0  0
   -2.0262    6.1039   -1.7863 C   0  0  0  0  0  0  0  0  0  0  0  0
   -3.1998    5.7585   -1.6656 O   0  0  0  0  0  0  0  0  0  0  0  0
   -0.8475    5.2621   -3.8333 C   0  0  0  0  0  0  0  0  0  0  0  0
   -2.2195    3.5659   -1.8267 H   0  0  0  0  0  0  0  0  0  0  0  0
    0.0228    5.4490   -1.8662 H   0  0  0  0  0  0  0  0  0  0  0  0
   -1.8014    4.9957   -4.3031 H   0  0  0  0  0  0  0  0  0  0  0  0
   -0.5892    6.2745   -4.1608 H   0  0  0  0  0  0  0  0  0  0  0  0
   -0.0852    4.5749   -4.2159 H   0  0  0  0  0  0  0  0  0  0  0  0
   -1.5407    7.3730   -1.5037 N   0  0  0  0  0  0  0  0  0  0  0  0
   -2.3860    8.4428   -1.0273 C   0  0  0  0  0  0  0  0  0  0  0  0
   -0.5464    7.5594   -1.5950 H   0  0  0  0  0  0  0  0  0  0  0  0
   -2.7499    9.0316   -1.8822 H   0  0  0  0  0  0  0  0  0  0  0  0
   -3.2427    8.0185   -0.4831 H   0  0  0  0  0  0  0  0  0  0  0  0
   -1.8092    9.0932   -0.3532 H   0  0  0  0  0  0  0  0  0  0  0  0
  1  3  1  0  0  0  0
  1  7  1  0  0  0  0
  1  2  2  0  0  0  0
 23 25  1  0  0  0  0
 23 29  1  0  0  0  0
 23 24  2  0  0  0  0
 50 51  1  0  0  0  0
 51 59  1  0  0  0  0
 51 52  2  0  0  0  0
  8  9  1  0  0  0  0
  9 17  1  0  0  0  0
  9 10  2  0  0  0  0
 30 31  1  0  0  0  0
 31 39  1  0  0  0  0
 31 32  2  0  0  0  0
 40 41  1  0  0  0  0
 41 49  1  0  0  0  0
 41 42  2  0  0  0  0
 50 53  1  0  0  0  0
 30 33  1  0  0  0  0
 59 60  1  0  0  0  0
 17 18  1  0  0  0  0
  8 11  1  0  0  0  0
 11 12  1  0  0  0  0
 40 43  1  0  0  0  0
 43 44  1  0  0  0  0
 49 50  1  0  0  0  0
  7  8  1  0  0  0  0
 29 30  1  0  0  0  0
 39 40  1  0  0  0  0
 12 44  1  0  0  0  0
  3  4  1  0  0  0  0
  3  5  1  0  0  0  0
  3  6  1  0  0  0  0
 25 26  1  0  0  0  0
 25 27  1  0  0  0  0
 25 28  1  0  0  0  0
 53 56  1  0  0  0  0
 53 57  1  0  0  0  0
 53 58  1  0  0  0  0
 33 36  1  0  0  0  0
 33 37  1  0  0  0  0
 33 38  1  0  0  0  0
 60 62  1  0  0  0  0
 60 63  1  0  0  0  0
 60 64  1  0  0  0  0
 18 20  1  0  0  0  0
 18 21  1  0  0  0  0
 18 22  1  0  0  0  0
 11 15  1  0  0  0  0
 11 16  1  0  0  0  0
 43 47  1  0  0  0  0
 43 48  1  0  0  0  0
 50 55  1  0  0  0  0
  8 14  1  0  0  0  0
 30 35  1  0  0  0  0
 40 46  1  0  0  0  0
 59 61  1  0  0  0  0
 17 19  1  0  0  0  0
  7 13  1  0  0  0  0
 29 34  1  0  0  0  0
 49 54  1  0  0  0  0
 39 45  1  0  0  0  0
M  END
$$$$

  -OEChem-05262214473D

 64 63  0     1  0  0  0  0  0999 V2000
   -0.4888   -6.2880   -3.6374 C   0  0  0  0  0  0  0  0  0  0  0  0
   -1.6085   -6.2520   -4.1340 O   0  0  0  0  0  0  0  0  0  0  0  0
   -0.0383   -7.5209   -2.9266 C   0  0  0  0  0  0  0  0  0  0  0  0
   -0.2855   -7.5014   -1.8530 H   0  0  0  0  0  0  0  0  0  0  0  0
   -0.5180   -8.4317   -3.3194 H   0  0  0  0  0  0  0  0  0  0  0  0
    1.0441   -7.7216   -2.9710 H   0  0  0  0  0  0  0  0  0  0  0  0
    0.4510   -5.2720   -3.6614 N   0  0  0  0  0  0  0  0  0  0  0  0
    0.2232   -3.9985   -4.2960 C   0  0  2  0  0  0  0  0  0  0  0  0
    1.5362   -3.5053   -4.9007 C   0  0  0  0  0  0  0  0  0  0  0  0
    2.6086   -4.0830   -4.7345 O   0  0  0  0  0  0  0  0  0  0  0  0
   -0.4284   -2.9853   -3.3516 C   0  0  0  0  0  0  0  0  0  0  0  0
    0.6015   -2.5570   -1.9099 S   0  0  0  0  0  0  0  0  0  0  0  0
    1.3478   -5.4325   -3.2082 H   0  0  0  0  0  0  0  0  0  0  0  0
   -0.4672   -4.2012   -5.1241 H   0  0  0  0  0  0  0  0  0  0  0  0
   -0.6524   -2.0541   -3.8822 H   0  0  0  0  0  0  0  0  0  0  0  0
   -1.3748   -3.3847   -2.9713 H   0  0  0  0  0  0  0  0  0  0  0  0
    1.3728   -2.3332   -5.6252 N   0  0  0  0  0  0  0  0  0  0  0  0
    2.4731   -1.6577   -6.2725 C   0  0  0  0  0  0  0  0  0  0  0  0
    0.4415   -1.9467   -5.7475 H   0  0  0  0  0  0  0  0  0  0  0  0
    2.8867   -0.8966   -5.5946 H   0  0  0  0  0  0  0  0  0  0  0  0
    3.2555   -2.3891   -6.5236 H   0  0  0  0  0  0  0  0  0  0  0  0
    2.1152   -1.1732   -7.1929 H   0  0  0  0  0  0  0  0  0  0  0  0
   -6.7256    2.0330   -0.2766 C   0  0  0  0  0  0  0  0  0  0  0  0
   -7.1824    1.1039   -0.9322 O   0  0  0  0  0  0  0  0  0  0  0  0
   -7.5276    2.6077    0.8435 C   0  0  0  0  0  0  0  0  0  0  0  0
   -8.1775    3.4344    0.5145 H   0  0  0  0  0  0  0  0  0  0  0  0
   -8.2057    1.8676    1.2980 H   0  0  0  0  0  0  0  0  0  0  0  0
   -6.9411    3.0162    1.6819 H   0  0  0  0  0  0  0  0  0  0  0  0
   -5.4935    2.6382   -0.4627 N   0  0  0  0  0  0  0  0  0  0  0  0
   -4.5619    2.2388   -1.4845 C   0  0  2  0  0  0  0  0  0  0  0  0
   -3.1535    2.4674   -0.9521 C   0  0  0  0  0  0  0  0  0  0  0  0
   -2.8634    3.3945   -0.1987 O   0  0  0  0  0  0  0  0  0  0  0  0
   -4.7883    3.0138   -2.7732 C   0  0  0  0  0  0  0  0  0  0  0  0
   -5.2337    3.4049    0.1551 H   0  0  0  0  0  0  0  0  0  0  0  0
   -4.7192    1.1682   -1.6549 H   0  0  0  0  0  0  0  0  0  0  0  0
   -4.6352    4.0886   -2.6221 H   0  0  0  0  0  0  0  0  0  0  0  0
   -4.0976    2.6887   -3.5582 H   0  0  0  0  0  0  0  0  0  0  0  0
   -5.8111    2.8719   -3.1387 H   0  0  0  0  0  0  0  0  0  0  0  0
   -2.2466    1.5400   -1.4507 N   0  0  0  0  0  0  0  0  0  0  0  0
   -0.8424    1.5707   -1.1286 C   0  0  2  0  0  0  0  0  0  0  0  0
   -0.2572    2.9023   -1.5944 C   0  0  0  0  0  0  0  0  0  0  0  0
    0.9168    3.0356   -1.9339 O   0  0  0  0  0  0  0  0  0  0  0  0
   -0.0925    0.3536   -1.6755 C   0  0  0  0  0  0  0  0  0  0  0  0
   -0.6076   -1.2139   -0.9338 S   0  0  0  0  0  0  0  0  0  0  0  0
   -2.5850    0.7815   -2.0381 H   0  0  0  0  0  0  0  0  0  0  0  0
   -0.7910    1.5517   -0.0328 H   0  0  0  0  0  0  0  0  0  0  0  0
   -0.2372    0.2672   -2.7574 H   0  0  0  0  0  0  0  0  0  0  0  0
    0.9820    0.4648   -1.4938 H   0  0  0  0  0  0  0  0  0  0  0  0
   -1.1927    3.9267   -1.5622 N   0  0  0  0  0  0  0  0  0  0  0  0
   -0.8732    5.2854   -1.9335 C   0  0  2  0  0  0  0  0  0  0  0  0
   -1.7282    6.2180   -1.0856 C   0  0  0  0  0  0  0  0  0  0  0  0
   -2.8720    5.9417   -0.7302 O   0  0  0  0  0  0  0  0  0  0  0  0
   -1.1135    5.5250   -3.4159 C   0  0  0  0  0  0  0  0  0  0  0  0
   -2.1540    3.7182   -1.3091 H   0  0  0  0  0  0  0  0  0  0  0  0
    0.1844    5.4387   -1.6926 H   0  0  0  0  0  0  0  0  0  0  0  0
   -2.1678    5.3761   -3.6761 H   0  0  0  0  0  0  0  0  0  0  0  0
   -0.8438    6.5472   -3.7014 H   0  0  0  0  0  0  0  0  0  0  0  0
   -0.5203    4.8334   -4.0237 H   0  0  0  0  0  0  0  0  0  0  0  0
   -1.0795    7.4133   -0.8089 N   0  0  0  0  0  0  0  0  0  0  0  0
   -1.6979    8.4800   -0.0567 C   0  0  0  0  0  0  0  0  0  0  0  0
   -0.1175    7.5409   -1.1089 H   0  0  0  0  0  0  0  0  0  0  0  0
   -2.1876    9.1811   -0.7485 H   0  0  0  0  0  0  0  0  0  0  0  0
   -2.4474    8.0581    0.6291 H   0  0  0  0  0  0  0  0  0  0  0  0
   -0.9298    9.0131    0.5227 H   0  0  0  0  0  0  0  0  0  0  0  0
  1  3  1  0  0  0  0
  1  7  1  0  0  0  0
  1  2  2  0  0  0  0
 23 25  1  0  0  0  0
 23 29  1  0  0  0  0
 23 24  2  0  0  0  0
 50 51  1  0  0  0  0
 51 59  1  0  0  0  0
 51 52  2  0  0  0  0
  8  9  1  0  0  0  0
  9 17  1  0  0  0  0
  9 10  2  0  0  0  0
 30 31  1  0  0  0  0
 31 39  1  0  0  0  0
 31 32  2  0  0  0  0
 40 41  1  0  0  0  0
 41 49  1  0  0  0  0
 41 42  2  0  0  0  0
 50 53  1  0  0  0  0
 30 33  1  0  0  0  0
 59 60  1  0  0  0  0
 17 18  1  0  0  0  0
  8 11  1  0  0  0  0
 11 12  1  0  0  0  0
 40 43  1  0  0  0  0
 43 44  1  0  0  0  0
 49 50  1  0  0  0  0
  7  8  1  0  0  0  0
 29 30  1  0  0  0  0
 39 40  1  0  0  0  0
 12 44  1  0  0  0  0
  3  4  1  0  0  0  0
  3  5  1  0  0  0  0
  3  6  1  0  0  0  0
 25 26  1  0  0  0  0
 25 27  1  0  0  0  0
 25 28  1  0  0  0  0
 53 56  1  0  0  0  0
 53 57  1  0  0  0  0
 53 58  1  0  0  0  0
 33 36  1  0  0  0  0
 33 37  1  0  0  0  0
 33 38  1  0  0  0  0
 60 62  1  0  0  0  0
 60 63  1  0  0  0  0
 60 64  1  0  0  0  0
 18 20  1  0  0  0  0
 18 21  1  0  0  0  0
 18 22  1  0  0  0  0
 11 15  1  0  0  0  0
 11 16  1  0  0  0  0
 43 47  1  0  0  0  0
 43 48  1  0  0  0  0
 50 55  1  0  0  0  0
  8 14  1  0  0  0  0
 30 35  1  0  0  0  0
 40 46  1  0  0  0  0
 59 61  1  0  0  0  0
 17 19  1  0  0  0  0
  7 13  1  0  0  0  0
 29 34  1  0  0  0  0
 49 54  1  0  0  0  0
 39 45  1  0  0  0  0
M  END
$$$$

  -OEChem-05262214473D

 64 63  0     1  0  0  0  0  0999 V2000
   -0.4888   -6.2880   -3.6374 C   0  0  0  0  0  0  0  0  0  0  0  0
   -1.6085   -6.2520   -4.1340 O   0  0  0  0  0  0  0  0  0  0  0  0
   -0.0383   -7.5209   -2.9266 C   0  0  0  0  0  0  0  0  0  0  0  0
   -0.2855   -7.5014   -1.8530 H   0  0  0  0  0  0  0  0  0  0  0  0
   -0.5180   -8.4317   -3.3194 H   0  0  0  0  0  0  0  0  0  0  0  0
    1.0441   -7.7216   -2.9710 H   0  0  0  0  0  0  0  0  0  0  0  0
    0.4510   -5.2720   -3.6614 N   0  0  0  0  0  0  0  0  0  0  0  0
    0.2232   -3.9985   -4.2960 C   0  0  2  0  0  0  0  0  0  0  0  0
    1.5362   -3.5053   -4.9007 C   0  0  0  0  0  0  0  0  0  0  0  0
    2.6086   -4.0830   -4.7345 O   0  0  0  0  0  0  0  0  0  0  0  0
   -0.4284   -2.9853   -3.3516 C   0  0  0  0  0  0  0  0  0  0  0  0
    0.6015   -2.5570   -1.9099 S   0  0  0  0  0  0  0  0  0  0  0  0
    1.3478   -5.4325   -3.2082 H   0  0  0  0  0  0  0  0  0  0  0  0
   -0.4672   -4.2012   -5.1241 H   0  0  0  0  0  0  0  0  0  0  0  0
   -0.6524   -2.0541   -3.8822 H   0  0  0  0  0  0  0  0  0  0  0  0
   -1.3748   -3.3847   -2.9713 H   0  0  0  0  0  0  0  0  0  0  0  0
    1.3728   -2.3332   -5.6252 N   0  0  0  0  0  0  0  0  0  0  0  0
    2.4731   -1.6577   -6.2725 C   0  0  0  0  0  0  0  0  0  0  0  0
    0.4415   -1.9467   -5.7475 H   0  0  0  0  0  0  0  0  0  0  0  0
    2.8867   -0.8966   -5.5946 H   0  0  0  0  0  0  0  0  0  0  0  0
    3.2555   -2.3891   -6.5236 H   0  0  0  0  0  0  0  0  0  0  0  0
    2.1152   -1.1732   -7.1929 H   0  0  0  0  0  0  0  0  0  0  0  0
   -6.7256    2.0330   -0.2766 C   0  0  0  0  0  0  0  0  0  0  0  0
   -7.1824    1.1039   -0.9322 O   0  0  0  0  0  0  0  0  0  0  0  0
   -7.5276    2.6077    0.8435 C   0  0  0  0  0  0  0  0  0  0  0  0
   -8.1775    3.4344    0.5145 H   0  0  0  0  0  0  0  0  0  0  0  0
   -8.2057    1.8676    1.2980 H   0  0  0  0  0  0  0  0  0  0  0  0
   -6.9411    3.0162    1.6819 H   0  0  0  0  0  0  0  0  0  0  0  0
   -5.4935    2.6382   -0.4627 N   0  0  0  0  0  0  0  0  0  0  0  0
   -4.5619    2.2388   -1.4845 C   0  0  2  0  0  0  0  0  0  0  0  0
   -3.1535    2.4674   -0.9521 C   0  0  0  0  0  0  0  0  0  0  0  0
   -2.8634    3.3945   -0.1987 O   0  0  0  0  0  0  0  0  0  0  0  0
   -4.7883    3.0138   -2.7732 C   0  0  0  0  0  0  0  0  0  0  0  0
   -5.2337    3.4049    0.1551 H   0  0  0  0  0  0  0  0  0  0  0  0
   -4.7192    1.1682   -1.6549 H   0  0  0  0  0  0  0  0  0  0  0  0
   -4.6352    4.0886   -2.6221 H   0  0  0  0  0  0  0  0  0  0  0  0
   -4.0976    2.6887   -3.5582 H   0  0  0  0  0  0  0  0  0  0  0  0
   -5.8111    2.8719   -3.1387 H   0  0  0  0  0  0  0  0  0  0  0  0
   -2.2466    1.5400   -1.4507 N   0  0  0  0  0  0  0  0  0  0  0  0
   -0.8424    1.5707   -1.1286 C   0  0  2  0  0  0  0  0  0  0  0  0
   -0.2572    2.9023   -1.5944 C   0  0  0  0  0  0  0  0  0  0  0  0
    0.8195    2.9920   -2.1810 O   0  0  0  0  0  0  0  0  0  0  0  0
   -0.0925    0.3536   -1.6755 C   0  0  0  0  0  0  0  0  0  0  0  0
   -0.6076   -1.2139   -0.9338 S   0  0  0  0  0  0  0  0  0  0  0  0
   -2.5850    0.7815   -2.0381 H   0  0  0  0  0  0  0  0  0  0  0  0
   -0.7910    1.5517   -0.0328 H   0  0  0  0  0  0  0  0  0  0  0  0
   -0.2372    0.2672   -2.7574 H   0  0  0  0  0  0  0  0  0  0  0  0
    0.9820    0.4648   -1.4938 H   0  0  0  0  0  0  0  0  0  0  0  0
   -1.0658    3.9781   -1.2561 N   0  0  0  0  0  0  0  0  0  0  0  0
   -0.7152    5.3442   -1.5668 C   0  0  2  0  0  0  0  0  0  0  0  0
   -1.2732    6.2352   -0.4648 C   0  0  0  0  0  0  0  0  0  0  0  0
   -2.3299    6.0000    0.1174 O   0  0  0  0  0  0  0  0  0  0  0  0
   -1.2555    5.7586   -2.9266 C   0  0  0  0  0  0  0  0  0  0  0  0
   -1.9619    3.8088   -0.8088 H   0  0  0  0  0  0  0  0  0  0  0  0
    0.3789    5.3988   -1.5625 H   0  0  0  0  0  0  0  0  0  0  0  0
   -2.3503    5.7103   -2.9501 H   0  0  0  0  0  0  0  0  0  0  0  0
   -0.9646    6.7851   -3.1731 H   0  0  0  0  0  0  0  0  0  0  0  0
   -0.8767    5.0983   -3.7142 H   0  0  0  0  0  0  0  0  0  0  0  0
   -0.4740    7.3470   -0.2378 N   0  0  0  0  0  0  0  0  0  0  0  0
   -0.8114    8.3653    0.7293 C   0  0  0  0  0  0  0  0  0  0  0  0
    0.4050    7.4410   -0.7380 H   0  0  0  0  0  0  0  0  0  0  0  0
   -1.3769    9.1686    0.2345 H   0  0  0  0  0  0  0  0  0  0  0  0
   -1.4252    7.9233    1.5280 H   0  0  0  0  0  0  0  0  0  0  0  0
    0.1110    8.7795    1.1623 H   0  0  0  0  0  0  0  0  0  0  0  0
  1  3  1  0  0  0  0
  1  7  1  0  0  0  0
  1  2  2  0  0  0  0
 23 25  1  0  0  0  0
 23 29  1  0  0  0  0
 23 24  2  0  0  0  0
 50 51  1  0  0  0  0
 51 59  1  0  0  0  0
 51 52  2  0  0  0  0
  8  9  1  0  0  0  0
  9 17  1  0  0  0  0
  9 10  2  0  0  0  0
 30 31  1  0  0  0  0
 31 39  1  0  0  0  0
 31 32  2  0  0  0  0
 40 41  1  0  0  0  0
 41 49  1  0  0  0  0
 41 42  2  0  0  0  0
 50 53  1  0  0  0  0
 30 33  1  0  0  0  0
 59 60  1  0  0  0  0
 17 18  1  0  0  0  0
  8 11  1  0  0  0  0
 11 12  1  0  0  0  0
 40 43  1  0  0  0  0
 43 44  1  0  0  0  0
 49 50  1  0  0  0  0
  7  8  1  0  0  0  0
 29 30  1  0  0  0  0
 39 40  1  0  0  0  0
 12 44  1  0  0  0  0
  3  4  1  0  0  0  0
  3  5  1  0  0  0  0
  3  6  1  0  0  0  0
 25 26  1  0  0  0  0
 25 27  1  0  0  0  0
 25 28  1  0  0  0  0
 53 56  1  0  0  0  0
 53 57  1  0  0  0  0
 53 58  1  0  0  0  0
 33 36  1  0  0  0  0
 33 37  1  0  0  0  0
 33 38  1  0  0  0  0
 60 62  1  0  0  0  0
 60 63  1  0  0  0  0
 60 64  1  0  0  0  0
 18 20  1  0  0  0  0
 18 21  1  0  0  0  0
 18 22  1  0  0  0  0
 11 15  1  0  0  0  0
 11 16  1  0  0  0  0
 43 47  1  0  0  0  0
 43 48  1  0  0  0  0
 50 55  1  0  0  0  0
  8 14  1  0  0  0  0
 30 35  1  0  0  0  0
 40 46  1  0  0  0  0
 59 61  1  0  0  0  0
 17 19  1  0  0  0  0
  7 13  1  0  0  0  0
 29 34  1  0  0  0  0
 49 54  1  0  0  0  0
 39 45  1  0  0  0  0
M  END
$$$$

  -OEChem-05262214473D

 64 63  0     1  0  0  0  0  0999 V2000
   -0.4888   -6.2880   -3.6374 C   0  0  0  0  0  0  0  0  0  0  0  0
   -1.6085   -6.2520   -4.1340 O   0  0  0  0  0  0  0  0  0  0  0  0
   -0.0383   -7.5209   -2.9266 C   0  0  0  0  0  0  0  0  0  0  0  0
   -0.2855   -7.5014   -1.8530 H   0  0  0  0  0  0  0  0  0  0  0  0
   -0.5180   -8.4317   -3.3194 H   0  0  0  0  0  0  0  0  0  0  0  0
    1.0441   -7.7216   -2.9710 H   0  0  0  0  0  0  0  0  0  0  0  0
    0.4510   -5.2720   -3.6614 N   0  0  0  0  0  0  0  0  0  0  0  0
    0.2232   -3.9985   -4.2960 C   0  0  2  0  0  0  0  0  0  0  0  0
    1.5362   -3.5053   -4.9007 C   0  0  0  0  0  0  0  0  0  0  0  0
    2.6086   -4.0830   -4.7345 O   0  0  0  0  0  0  0  0  0  0  0  0
   -0.4284   -2.9853   -3.3516 C   0  0  0  0  0  0  0  0  0  0  0  0
    0.6015   -2.5570   -1.9099 S   0  0  0  0  0  0  0  0  0  0  0  0
    1.3478   -5.4325   -3.2082 H   0  0  0  0  0  0  0  0  0  0  0  0
   -0.4672   -4.2012   -5.1241 H   0  0  0  0  0  0  0  0  0  0  0  0
   -0.6524   -2.0541   -3.8822 H   0  0  0  0  0  0  0  0  0  0  0  0
   -1.3748   -3.3847   -2.9713 H   0  0  0  0  0  0  0  0  0  0  0  0
    1.3728   -2.3332   -5.6252 N   0  0  0  0  0  0  0  0  0  0  0  0
    2.4731   -1.6577   -6.2725 C   0  0  0  0  0  0  0  0  0  0  0  0
    0.4415   -1.9467   -5.7475 H   0  0  0  0  0  0  0  0  0  0  0  0
    2.8867   -0.8966   -5.5946 H   0  0  0  0  0  0  0  0  0  0  0  0
    3.2555   -2.3891   -6.5236 H   0  0  0  0  0  0  0  0  0  0  0  0
    2.1152   -1.1732   -7.1929 H   0  0  0  0  0  0  0  0  0  0  0  0
   -6.7256    2.0330   -0.2766 C   0  0  0  0  0  0  0  0  0  0  0  0
   -7.1824    1.1039   -0.9322 O   0  0  0  0  0  0  0  0  0  0  0  0
   -7.5276    2.6077    0.8435 C   0  0  0  0  0  0  0  0  0  0  0  0
   -8.1775    3.4344    0.5145 H   0  0  0  0  0  0  0  0  0  0  0  0
   -8.2057    1.8676    1.2980 H   0  0  0  0  0  0  0  0  0  0  0  0
   -6.9411    3.0162    1.6819 H   0  0  0  0  0  0  0  0  0  0  0  0
   -5.4935    2.6382   -0.4627 N   0  0  0  0  0  0  0  0  0  0  0  0
   -4.5619    2.2388   -1.4845 C   0  0  2  0  0  0  0  0  0  0  0  0
   -3.1535    2.4674   -0.9521 C   0  0  0  0  0  0  0  0  0  0  0  0
   -2.8634    3.3945   -0.1987 O   0  0  0  0  0  0  0  0  0  0  0  0
   -4.7883    3.0138   -2.7732 C   0  0  0  0  0  0  0  0  0  0  0  0
   -5.2337    3.4049    0.1551 H   0  0  0  0  0  0  0  0  0  0  0  0
   -4.7192    1.1682   -1.6549 H   0  0  0  0  0  0  0  0  0  0  0  0
   -4.6352    4.0886   -2.6221 H   0  0  0  0  0  0  0  0  0  0  0  0
   -4.0976    2.6887   -3.5582 H   0  0  0  0  0  0  0  0  0  0  0  0
   -5.8111    2.8719   -3.1387 H   0  0  0  0  0  0  0  0  0  0  0  0
   -2.2466    1.5400   -1.4507 N   0  0  0  0  0  0  0  0  0  0  0  0
   -0.8424    1.5707   -1.1286 C   0  0  2  0  0  0  0  0  0  0  0  0
   -0.2572    2.9023   -1.5944 C   0  0  0  0  0  0  0  0  0  0  0  0
    0.6662    2.9820   -2.4021 O   0  0  0  0  0  0  0  0  0  0  0  0
   -0.0925    0.3536   -1.6755 C   0  0  0  0  0  0  0  0  0  0  0  0
   -0.6076   -1.2139   -0.9338 S   0  0  0  0  0  0  0  0  0  0  0  0
   -2.5850    0.7815   -2.0381 H   0  0  0  0  0  0  0  0  0  0  0  0
   -0.7910    1.5517   -0.0328 H   0  0  0  0  0  0  0  0  0  0  0  0
   -0.2372    0.2672   -2.7574 H   0  0  0  0  0  0  0  0  0  0  0  0
    0.9820    0.4648   -1.4938 H   0  0  0  0  0  0  0  0  0  0  0  0
   -0.8702    3.9873   -0.9839 N   0  0  0  0  0  0  0  0  0  0  0  0
   -0.4752    5.3522   -1.2424 C   0  0  2  0  0  0  0  0  0  0  0  0
   -0.6922    6.1543    0.0339 C   0  0  0  0  0  0  0  0  0  0  0  0
   -1.6104    5.9294    0.8196 O   0  0  0  0  0  0  0  0  0  0  0  0
   -1.2638    5.9469   -2.3988 C   0  0  0  0  0  0  0  0  0  0  0  0
   -1.6563    3.8315   -0.3599 H   0  0  0  0  0  0  0  0  0  0  0  0
    0.5929    5.3319   -1.4845 H   0  0  0  0  0  0  0  0  0  0  0  0
   -2.3364    5.9755   -2.1745 H   0  0  0  0  0  0  0  0  0  0  0  0
   -0.9433    6.9720   -2.6120 H   0  0  0  0  0  0  0  0  0  0  0  0
   -1.1302    5.3516   -3.3085 H   0  0  0  0  0  0  0  0  0  0  0  0
    0.2344    7.1785    0.1706 N   0  0  0  0  0  0  0  0  0  0  0  0
    0.2132    8.1066    1.2770 C   0  0  0  0  0  0  0  0  0  0  0  0
    0.9855    7.2665   -0.5076 H   0  0  0  0  0  0  0  0  0  0  0  0
   -0.3730    8.9951    0.9997 H   0  0  0  0  0  0  0  0  0  0  0  0
   -0.2456    7.6232    2.1521 H   0  0  0  0  0  0  0  0  0  0  0  0
    1.2423    8.4082    1.5222 H   0  0  0  0  0  0  0  0  0  0  0  0
  1  3  1  0  0  0  0
  1  7  1  0  0  0  0
  1  2  2  0  0  0  0
 23 25  1  0  0  0  0
 23 29  1  0  0  0  0
 23 24  2  0  0  0  0
 50 51  1  0  0  0  0
 51 59  1  0  0  0  0
 51 52  2  0  0  0  0
  8  9  1  0  0  0  0
  9 17  1  0  0  0  0
  9 10  2  0  0  0  0
 30 31  1  0  0  0  0
 31 39  1  0  0  0  0
 31 32  2  0  0  0  0
 40 41  1  0  0  0  0
 41 49  1  0  0  0  0
 41 42  2  0  0  0  0
 50 53  1  0  0  0  0
 30 33  1  0  0  0  0
 59 60  1  0  0  0  0
 17 18  1  0  0  0  0
  8 11  1  0  0  0  0
 11 12  1  0  0  0  0
 40 43  1  0  0  0  0
 43 44  1  0  0  0  0
 49 50  1  0  0  0  0
  7  8  1  0  0  0  0
 29 30  1  0  0  0  0
 39 40  1  0  0  0  0
 12 44  1  0  0  0  0
  3  4  1  0  0  0  0
  3  5  1  0  0  0  0
  3  6  1  0  0  0  0
 25 26  1  0  0  0  0
 25 27  1  0  0  0  0
 25 28  1  0  0  0  0
 53 56  1  0  0  0  0
 53 57  1  0  0  0  0
 53 58  1  0  0  0  0
 33 36  1  0  0  0  0
 33 37  1  0  0  0  0
 33 38  1  0  0  0  0
 60 62  1  0  0  0  0
 60 63  1  0  0  0  0
 60 64  1  0  0  0  0
 18 20  1  0  0  0  0
 18 21  1  0  0  0  0
 18 22  1  0  0  0  0
 11 15  1  0  0  0  0
 11 16  1  0  0  0  0
 43 47  1  0  0  0  0
 43 48  1  0  0  0  0
 50 55  1  0  0  0  0
  8 14  1  0  0  0  0
 30 35  1  0  0  0  0
 40 46  1  0  0  0  0
 59 61  1  0  0  0  0
 17 19  1  0  0  0  0
  7 13  1  0  0  0  0
 29 34  1  0  0  0  0
 49 54  1  0  0  0  0
 39 45  1  0  0  0  0
M  END
$$$$

  -OEChem-05262214473D

 64 63  0     1  0  0  0  0  0999 V2000
   -0.4888   -6.2880   -3.6374 C   0  0  0  0  0  0  0  0  0  0  0  0
   -1.6085   -6.2520   -4.1340 O   0  0  0  0  0  0  0  0  0  0  0  0
   -0.0383   -7.5209   -2.9266 C   0  0  0  0  0  0  0  0  0  0  0  0
   -0.2855   -7.5014   -1.8530 H   0  0  0  0  0  0  0  0  0  0  0  0
   -0.5180   -8.4317   -3.3194 H   0  0  0  0  0  0  0  0  0  0  0  0
    1.0441   -7.7216   -2.9710 H   0  0  0  0  0  0  0  0  0  0  0  0
    0.4510   -5.2720   -3.6614 N   0  0  0  0  0  0  0  0  0  0  0  0
    0.2232   -3.9985   -4.2960 C   0  0  2  0  0  0  0  0  0  0  0  0
    1.5362   -3.5053   -4.9007 C   0  0  0  0  0  0  0  0  0  0  0  0
    2.6086   -4.0830   -4.7345 O   0  0  0  0  0  0  0  0  0  0  0  0
   -0.4284   -2.9853   -3.3516 C   0  0  0  0  0  0  0  0  0  0  0  0
    0.6015   -2.5570   -1.9099 S   0  0  0  0  0  0  0  0  0  0  0  0
    1.3478   -5.4325   -3.2082 H   0  0  0  0  0  0  0  0  0  0  0  0
   -0.4672   -4.2012   -5.1241 H   0  0  0  0  0  0  0  0  0  0  0  0
   -0.6524   -2.0541   -3.8822 H   0  0  0  0  0  0  0  0  0  0  0  0
   -1.3748   -3.3847   -2.9713 H   0  0  0  0  0  0  0  0  0  0  0  0
    1.3728   -2.3332   -5.6252 N   0  0  0  0  0  0  0  0  0  0  0  0
    2.4731   -1.6577   -6.2725 C   0  0  0  0  0  0  0  0  0  0  0  0
    0.4415   -1.9467   -5.7475 H   0  0  0  0  0  0  0  0  0  0  0  0
    2.8867   -0.8966   -5.5946 H   0  0  0  0  0  0  0  0  0  0  0  0
    3.2555   -2.3891   -6.5236 H   0  0  0  0  0  0  0  0  0  0  0  0
    2.1152   -1.1732   -7.1929 H   0  0  0  0  0  0  0  0  0  0  0  0
   -6.7256    2.0330   -0.2766 C   0  0  0  0  0  0  0  0  0  0  0  0
   -7.1824    1.1039   -0.9322 O   0  0  0  0  0  0  0  0  0  0  0  0
   -7.5276    2.6077    0.8435 C   0  0  0  0  0  0  0  0  0  0  0  0
   -8.1775    3.4344    0.5145 H   0  0  0  0  0  0  0  0  0  0  0  0
   -8.2057    1.8676    1.2980 H   0  0  0  0  0  0  0  0  0  0  0  0
   -6.9411    3.0162    1.6819 H   0  0  0  0  0  0  0  0  0  0  0  0
   -5.4935    2.6382   -0.4627 N   0  0  0  0  0  0  0  0  0  0  0  0
   -4.5619    2.2388   -1.4845 C   0  0  2  0  0  0  0  0  0  0  0  0
   -3.1535    2.4674   -0.9521 C   0  0  0  0  0  0  0  0  0  0  0  0
   -2.8634    3.3945   -0.1987 O   0  0  0  0  0  0  0  0  0  0  0  0
   -4.7883    3.0138   -2.7732 C   0  0  0  0  0  0  0  0  0  0  0  0
   -5.2337    3.4049    0.1551 H   0  0  0  0  0  0  0  0  0  0  0  0
   -4.7192    1.1682   -1.6549 H   0  0  0  0  0  0  0  0  0  0  0  0
   -4.6352    4.0886   -2.6221 H   0  0  0  0  0  0  0  0  0  0  0  0
   -4.0976    2.6887   -3.5582 H   0  0  0  0  0  0  0  0  0  0  0  0
   -5.8111    2.8719   -3.1387 H   0  0  0  0  0  0  0  0  0  0  0  0
   -2.2466    1.5400   -1.4507 N   0  0  0  0  0  0  0  0  0  0  0  0
   -0.8424    1.5707   -1.1286 C   0  0  2  0  0  0  0  0  0  0  0  0
   -0.2572    2.9023   -1.5944 C   0  0  0  0  0  0  0  0  0  0  0  0
    0.4675    3.0064   -2.5820 O   0  0  0  0  0  0  0  0  0  0  0  0
   -0.0925    0.3536   -1.6755 C   0  0  0  0  0  0  0  0  0  0  0  0
   -0.6076   -1.2139   -0.9338 S   0  0  0  0  0  0  0  0  0  0  0  0
   -2.5850    0.7815   -2.0381 H   0  0  0  0  0  0  0  0  0  0  0  0
   -0.7910    1.5517   -0.0328 H   0  0  0  0  0  0  0  0  0  0  0  0
   -0.2372    0.2672   -2.7574 H   0  0  0  0  0  0  0  0  0  0  0  0
    0.9820    0.4648   -1.4938 H   0  0  0  0  0  0  0  0  0  0  0  0
   -0.6190    3.9538   -0.7642 N   0  0  0  0  0  0  0  0  0  0  0  0
   -0.1696    5.3088   -0.9824 C   0  0  2  0  0  0  0  0  0  0  0  0
   -0.0249    5.9809    0.3766 C   0  0  0  0  0  0  0  0  0  0  0  0
   -0.7626    5.7348    1.3285 O   0  0  0  0  0  0  0  0  0  0  0  0
   -1.1379    6.0771   -1.8684 C   0  0  0  0  0  0  0  0  0  0  0  0
   -1.2581    3.7848    0.0069 H   0  0  0  0  0  0  0  0  0  0  0  0
    0.8120    5.2428   -1.4642 H   0  0  0  0  0  0  0  0  0  0  0  0
   -2.1270    6.1536   -1.4022 H   0  0  0  0  0  0  0  0  0  0  0  0
   -0.7814    7.0952   -2.0562 H   0  0  0  0  0  0  0  0  0  0  0  0
   -1.2636    5.5761   -2.8343 H   0  0  0  0  0  0  0  0  0  0  0  0
    0.9976    6.9193    0.3885 N   0  0  0  0  0  0  0  0  0  0  0  0
    1.3061    7.7215    1.5492 C   0  0  0  0  0  0  0  0  0  0  0  0
    1.5845    7.0293   -0.4333 H   0  0  0  0  0  0  0  0  0  0  0  0
    0.7558    8.6724    1.4952 H   0  0  0  0  0  0  0  0  0  0  0  0
    1.0110    7.1783    2.4591 H   0  0  0  0  0  0  0  0  0  0  0  0
    2.3868    7.9246    1.5777 H   0  0  0  0  0  0  0  0  0  0  0  0
  1  3  1  0  0  0  0
  1  7  1  0  0  0  0
  1  2  2  0  0  0  0
 23 25  1  0  0  0  0
 23 29  1  0  0  0  0
 23 24  2  0  0  0  0
 50 51  1  0  0  0  0
 51 59  1  0  0  0  0
 51 52  2  0  0  0  0
  8  9  1  0  0  0  0
  9 17  1  0  0  0  0
  9 10  2  0  0  0  0
 30 31  1  0  0  0  0
 31 39  1  0  0  0  0
 31 32  2  0  0  0  0
 40 41  1  0  0  0  0
 41 49  1  0  0  0  0
 41 42  2  0  0  0  0
 50 53  1  0  0  0  0
 30 33  1  0  0  0  0
 59 60  1  0  0  0  0
 17 18  1  0  0  0  0
  8 11  1  0  0  0  0
 11 12  1  0  0  0  0
 40 43  1  0  0  0  0
 43 44  1  0  0  0  0
 49 50  1  0  0  0  0
  7  8  1  0  0  0  0
 29 30  1  0  0  0  0
 39 40  1  0  0  0  0
 12 44  1  0  0  0  0
  3  4  1  0  0  0  0
  3  5  1  0  0  0  0
  3  6  1  0  0  0  0
 25 26  1  0  0  0  0
 25 27  1  0  0  0  0
 25 28  1  0  0  0  0
 53 56  1  0  0  0  0
 53 57  1  0  0  0  0
 53 58  1  0  0  0  0
 33 36  1  0  0  0  0
 33 37  1  0  0  0  0
 33 38  1  0  0  0  0
 60 62  1  0  0  0  0
 60 63  1  0  0  0  0
 60 64  1  0  0  0  0
 18 20  1  0  0  0  0
 18 21  1  0  0  0  0
 18 22  1  0  0  0  0
 11 15  1  0  0  0  0
 11 16  1  0  0  0  0
 43 47  1  0  0  0  0
 43 48  1  0  0  0  0
 50 55  1  0  0  0  0
  8 14  1  0  0  0  0
 30 35  1  0  0  0  0
 40 46  1  0  0  0  0
 59 61  1  0  0  0  0
 17 19  1  0  0  0  0
  7 13  1  0  0  0  0
 29 34  1  0  0  0  0
 49 54  1  0  0  0  0
 39 45  1  0  0  0  0
M  END
$$$$

  -OEChem-05262214473D

 64 63  0     1  0  0  0  0  0999 V2000
   -0.4888   -6.2880   -3.6374 C   0  0  0  0  0  0  0  0  0  0  0  0
   -1.6085   -6.2520   -4.1340 O   0  0  0  0  0  0  0  0  0  0  0  0
   -0.0383   -7.5209   -2.9266 C   0  0  0  0  0  0  0  0  0  0  0  0
   -0.2855   -7.5014   -1.8530 H   0  0  0  0  0  0  0  0  0  0  0  0
   -0.5180   -8.4317   -3.3194 H   0  0  0  0  0  0  0  0  0  0  0  0
    1.0441   -7.7216   -2.9710 H   0  0  0  0  0  0  0  0  0  0  0  0
    0.4510   -5.2720   -3.6614 N   0  0  0  0  0  0  0  0  0  0  0  0
    0.2232   -3.9985   -4.2960 C   0  0  2  0  0  0  0  0  0  0  0  0
    1.5362   -3.5053   -4.9007 C   0  0  0  0  0  0  0  0  0  0  0  0
    2.6086   -4.0830   -4.7345 O   0  0  0  0  0  0  0  0  0  0  0  0
   -0.4284   -2.9853   -3.3516 C   0  0  0  0  0  0  0  0  0  0  0  0
    0.6015   -2.5570   -1.9099 S   0  0  0  0  0  0  0  0  0  0  0  0
    1.3478   -5.4325   -3.2082 H   0  0  0  0  0  0  0  0  0  0  0  0
   -0.4672   -4.2012   -5.1241 H   0  0  0  0  0  0  0  0  0  0  0  0
   -0.6524   -2.0541   -3.8822 H   0  0  0  0  0  0  0  0  0  0  0  0
   -1.3748   -3.3847   -2.9713 H   0  0  0  0  0  0  0  0  0  0  0  0
    1.3728   -2.3332   -5.6252 N   0  0  0  0  0  0  0  0  0  0  0  0
    2.4731   -1.6577   -6.2725 C   0  0  0  0  0  0  0  0  0  0  0  0
    0.4415   -1.9467   -5.7475 H   0  0  0  0  0  0  0  0  0  0  0  0
    2.8867   -0.8966   -5.5946 H   0  0  0  0  0  0  0  0  0  0  0  0
    3.2555   -2.3891   -6.5236 H   0  0  0  0  0  0  0  0  0  0  0  0
    2.1152   -1.1732   -7.1929 H   0  0  0  0  0  0  0  0  0  0  0  0
   -6.7256    2.0330   -0.2766 C   0  0  0  0  0  0  0  0  0  0  0  0
   -7.1824    1.1039   -0.9322 O   0  0  0  0  0  0  0  0  0  0  0  0
   -7.5276    2.6077    0.8435 C   0  0  0  0  0  0  0  0  0  0  0  0
   -8.1775    3.4344    0.5145 H   0  0  0  0  0  0  0  0  0  0  0  0
   -8.2057    1.8676    1.2980 H   0  0  0  0  0  0  0  0  0  0  0  0
   -6.9411    3.0162    1.6819 H   0  0  0  0  0  0  0  0  0  0  0  0
   -5.4935    2.6382   -0.4627 N   0  0  0  0  0  0  0  0  0  0  0  0
   -4.5619    2.2388   -1.4845 C   0  0  2  0  0  0  0  0  0  0  0  0
   -3.1535    2.4674   -0.9521 C   0  0  0  0  0  0  0  0  0  0  0  0
   -2.8634    3.3945   -0.1987 O   0  0  0  0  0  0  0  0  0  0  0  0
   -4.7883    3.0138   -2.7732 C   0  0  0  0  0  0  0  0  0  0  0  0
   -5.2337    3.4049    0.1551 H   0  0  0  0  0  0  0  0  0  0  0  0
   -4.7192    1.1682   -1.6549 H   0  0  0  0  0  0  0  0  0  0  0  0
   -4.6352    4.0886   -2.6221 H   0  0  0  0  0  0  0  0  0  0  0  0
   -4.0976    2.6887   -3.5582 H   0  0  0  0  0  0  0  0  0  0  0  0
   -5.8111    2.8719   -3.1387 H   0  0  0  0  0  0  0  0  0  0  0  0
   -2.2466    1.5400   -1.4507 N   0  0  0  0  0  0  0  0  0  0  0  0
   -0.8424    1.5707   -1.1286 C   0  0  2  0  0  0  0  0  0  0  0  0
   -0.2572    2.9023   -1.5944 C   0  0  0  0  0  0  0  0  0  0  0  0
    0.2369    3.0635   -2.7085 O   0  0  0  0  0  0  0  0  0  0  0  0
   -0.0925    0.3536   -1.6755 C   0  0  0  0  0  0  0  0  0  0  0  0
   -0.6076   -1.2139   -0.9338 S   0  0  0  0  0  0  0  0  0  0  0  0
   -2.5850    0.7815   -2.0381 H   0  0  0  0  0  0  0  0  0  0  0  0
   -0.7910    1.5517   -0.0328 H   0  0  0  0  0  0  0  0  0  0  0  0
   -0.2372    0.2672   -2.7574 H   0  0  0  0  0  0  0  0  0  0  0  0
    0.9820    0.4648   -1.4938 H   0  0  0  0  0  0  0  0  0  0  0  0
   -0.3295    3.8798   -0.6121 N   0  0  0  0  0  0  0  0  0  0  0  0
    0.1809    5.2170   -0.8046 C   0  0  2  0  0  0  0  0  0  0  0  0
    0.6834    5.7267    0.5397 C   0  0  0  0  0  0  0  0  0  0  0  0
    0.1559    5.4294    1.6095 O   0  0  0  0  0  0  0  0  0  0  0  0
   -0.8863    6.1403   -1.3716 C   0  0  0  0  0  0  0  0  0  0  0  0
   -0.7943    3.6719    0.2668 H   0  0  0  0  0  0  0  0  0  0  0  0
    1.0212    5.1373   -1.5029 H   0  0  0  0  0  0  0  0  0  0  0  0
   -1.7363    6.2326   -0.6858 H   0  0  0  0  0  0  0  0  0  0  0  0
   -0.4898    7.1464   -1.5437 H   0  0  0  0  0  0  0  0  0  0  0  0
   -1.2677    5.7565   -2.3240 H   0  0  0  0  0  0  0  0  0  0  0  0
    1.7635    6.5871    0.4010 N   0  0  0  0  0  0  0  0  0  0  0  0
    2.3928    7.2362    1.5273 C   0  0  0  0  0  0  0  0  0  0  0  0
    2.1611    6.7454   -0.5202 H   0  0  0  0  0  0  0  0  0  0  0  0
    1.9324    8.2224    1.6870 H   0  0  0  0  0  0  0  0  0  0  0  0
    2.2589    6.6190    2.4279 H   0  0  0  0  0  0  0  0  0  0  0  0
    3.4668    7.3616    1.3251 H   0  0  0  0  0  0  0  0  0  0  0  0
  1  3  1  0  0  0  0
  1  7  1  0  0  0  0
  1  2  2  0  0  0  0
 23 25  1  0  0  0  0
 23 29  1  0  0  0  0
 23 24  2  0  0  0  0
 50 51  1  0  0  0  0
 51 59  1  0  0  0  0
 51 52  2  0  0  0  0
  8  9  1  0  0  0  0
  9 17  1  0  0  0  0
  9 10  2  0  0  0  0
 30 31  1  0  0  0  0
 31 39  1  0  0  0  0
 31 32  2  0  0  0  0
 40 41  1  0  0  0  0
 41 49  1  0  0  0  0
 41 42  2  0  0  0  0
 50 53  1  0  0  0  0
 30 33  1  0  0  0  0
 59 60  1  0  0  0  0
 17 18  1  0  0  0  0
  8 11  1  0  0  0  0
 11 12  1  0  0  0  0
 40 43  1  0  0  0  0
 43 44  1  0  0  0  0
 49 50  1  0  0  0  0
  7  8  1  0  0  0  0
 29 30  1  0  0  0  0
 39 40  1  0  0  0  0
 12 44  1  0  0  0  0
  3  4  1  0  0  0  0
  3  5  1  0  0  0  0
  3  6  1  0  0  0  0
 25 26  1  0  0  0  0
 25 27  1  0  0  0  0
 25 28  1  0  0  0  0
 53 56  1  0  0  0  0
 53 57  1  0  0  0  0
 53 58  1  0  0  0  0
 33 36  1  0  0  0  0
 33 37  1  0  0  0  0
 33 38  1  0  0  0  0
 60 62  1  0  0  0  0
 60 63  1  0  0  0  0
 60 64  1  0  0  0  0
 18 20  1  0  0  0  0
 18 21  1  0  0  0  0
 18 22  1  0  0  0  0
 11 15  1  0  0  0  0
 11 16  1  0  0  0  0
 43 47  1  0  0  0  0
 43 48  1  0  0  0  0
 50 55  1  0  0  0  0
  8 14  1  0  0  0  0
 30 35  1  0  0  0  0
 40 46  1  0  0  0  0
 59 61  1  0  0  0  0
 17 19  1  0  0  0  0
  7 13  1  0  0  0  0
 29 34  1  0  0  0  0
 49 54  1  0  0  0  0
 39 45  1  0  0  0  0
M  END
$$$$

  -OEChem-05262214473D

 64 63  0     1  0  0  0  0  0999 V2000
   -0.4888   -6.2880   -3.6374 C   0  0  0  0  0  0  0  0  0  0  0  0
   -1.6085   -6.2520   -4.1340 O   0  0  0  0  0  0  0  0  0  0  0  0
   -0.0383   -7.5209   -2.9266 C   0  0  0  0  0  0  0  0  0  0  0  0
   -0.2855   -7.5014   -1.8530 H   0  0  0  0  0  0  0  0  0  0  0  0
   -0.5180   -8.4317   -3.3194 H   0  0  0  0  0  0  0  0  0  0  0  0
    1.0441   -7.7216   -2.9710 H   0  0  0  0  0  0  0  0  0  0  0  0
    0.4510   -5.2720   -3.6614 N   0  0  0  0  0  0  0  0  0  0  0  0
    0.2232   -3.9985   -4.2960 C   0  0  2  0  0  0  0  0  0  0  0  0
    1.5362   -3.5053   -4.9007 C   0  0  0  0  0  0  0  0  0  0  0  0
    2.6086   -4.0830   -4.7345 O   0  0  0  0  0  0  0  0  0  0  0  0
   -0.4284   -2.9853   -3.3516 C   0  0  0  0  0  0  0  0  0  0  0  0
    0.6015   -2.5570   -1.9099 S   0  0  0  0  0  0  0  0  0  0  0  0
    1.3478   -5.4325   -3.2082 H   0  0  0  0  0  0  0  0  0  0  0  0
   -0.4672   -4.2012   -5.1241 H   0  0  0  0  0  0  0  0  0  0  0  0
   -0.6524   -2.0541   -3.8822 H   0  0  0  0  0  0  0  0  0  0  0  0
   -1.3748   -3.3847   -2.9713 H   0  0  0  0  0  0  0  0  0  0  0  0
    1.3728   -2.3332   -5.6252 N   0  0  0  0  0  0  0  0  0  0  0  0
    2.4731   -1.6577   -6.2725 C   0  0  0  0  0  0  0  0  0  0  0  0
    0.4415   -1.9467   -5.7475 H   0  0  0  0  0  0  0  0  0  0  0  0
    2.8867   -0.8966   -5.5946 H   0  0  0  0  0  0  0  0  0  0  0  0
    3.2555   -2.3891   -6.5236 H   0  0  0  0  0  0  0  0  0  0  0  0
    2.1152   -1.1732   -7.1929 H   0  0  0  0  0  0  0  0  0  0  0  0
   -6.7256    2.0330   -0.2766 C   0  0  0  0  0  0  0  0  0  0  0  0
   -7.1824    1.1039   -0.9322 O   0  0  0  0  0  0  0  0  0  0  0  0
   -7.5276    2.6077    0.8435 C   0  0  0  0  0  0  0  0  0  0  0  0
   -8.1775    3.4344    0.5145 H   0  0  0  0  0  0  0  0  0  0  0  0
   -8.2057    1.8676    1.2980 H   0  0  0  0  0  0  0  0  0  0  0  0
   -6.9411    3.0162    1.6819 H   0  0  0  0  0  0  0  0  0  0  0  0
   -5.4935    2.6382   -0.4627 N   0  0  0  0  0  0  0  0  0  0  0  0
   -4.5619    2.2388   -1.4845 C   0  0  2  0  0  0  0  0  0  0  0  0
   -3.1535    2.4674   -0.9521 C   0  0  0  0  0  0  0  0  0  0  0  0
   -2.8634    3.3945   -0.1987 O   0  0  0  0  0  0  0  0  0  0  0  0
   -4.7883    3.0138   -2.7732 C   0  0  0  0  0  0  0  0  0  0  0  0
   -5.2337    3.4049    0.1551 H   0  0  0  0  0  0  0  0  0  0  0  0
   -4.7192    1.1682   -1.6549 H   0  0  0  0  0  0  0  0  0  0  0  0
   -4.6352    4.0886   -2.6221 H   0  0  0  0  0  0  0  0  0  0  0  0
   -4.0976    2.6887   -3.5582 H   0  0  0  0  0  0  0  0  0  0  0  0
   -5.8111    2.8719   -3.1387 H   0  0  0  0  0  0  0  0  0  0  0  0
   -2.2466    1.5400   -1.4507 N   0  0  0  0  0  0  0  0  0  0  0  0
   -0.8424    1.5707   -1.1286 C   0  0  2  0  0  0  0  0  0  0  0  0
   -0.2572    2.9023   -1.5944 C   0  0  0  0  0  0  0  0  0  0  0  0
   -0.0098    3.1493   -2.7730 O   0  0  0  0  0  0  0  0  0  0  0  0
   -0.0925    0.3536   -1.6755 C   0  0  0  0  0  0  0  0  0  0  0  0
   -0.6076   -1.2139   -0.9338 S   0  0  0  0  0  0  0  0  0  0  0  0
   -2.5850    0.7815   -2.0381 H   0  0  0  0  0  0  0  0  0  0  0  0
   -0.7910    1.5517   -0.0328 H   0  0  0  0  0  0  0  0  0  0  0  0
   -0.2372    0.2672   -2.7574 H   0  0  0  0  0  0  0  0  0  0  0  0
    0.9820    0.4648   -1.4938 H   0  0  0  0  0  0  0  0  0  0  0  0
   -0.0214    3.7703   -0.5377 N   0  0  0  0  0  0  0  0  0  0  0  0
    0.5523    5.0830   -0.7210 C   0  0  2  0  0  0  0  0  0  0  0  0
    1.3842    5.4091    0.5123 C   0  0  0  0  0  0  0  0  0  0  0  0
    1.0824    5.0341    1.6434 O   0  0  0  0  0  0  0  0  0  0  0  0
   -0.5261    6.1322   -0.9422 C   0  0  0  0  0  0  0  0  0  0  0  0
   -0.2966    3.5004    0.4020 H   0  0  0  0  0  0  0  0  0  0  0  0
    1.2062    5.0228   -1.5979 H   0  0  0  0  0  0  0  0  0  0  0  0
   -1.1911    6.2069   -0.0741 H   0  0  0  0  0  0  0  0  0  0  0  0
   -0.0885    7.1219   -1.1095 H   0  0  0  0  0  0  0  0  0  0  0  0
   -1.1423    5.8804   -1.8122 H   0  0  0  0  0  0  0  0  0  0  0  0
    2.4799    6.2045    0.2074 N   0  0  0  0  0  0  0  0  0  0  0  0
    3.3992    6.6839    1.2128 C   0  0  0  0  0  0  0  0  0  0  0  0
    2.6761    6.4344   -0.7624 H   0  0  0  0  0  0  0  0  0  0  0  0
    3.0766    7.6758    1.5622 H   0  0  0  0  0  0  0  0  0  0  0  0
    3.4131    5.9833    2.0607 H   0  0  0  0  0  0  0  0  0  0  0  0
    4.4084    6.7576    0.7815 H   0  0  0  0  0  0  0  0  0  0  0  0
  1  3  1  0  0  0  0
  1  7  1  0  0  0  0
  1  2  2  0  0  0  0
 23 25  1  0  0  0  0
 23 29  1  0  0  0  0
 23 24  2  0  0  0  0
 50 51  1  0  0  0  0
 51 59  1  0  0  0  0
 51 52  2  0  0  0  0
  8  9  1  0  0  0  0
  9 17  1  0  0  0  0
  9 10  2  0  0  0  0
 30 31  1  0  0  0  0
 31 39  1  0  0  0  0
 31 32  2  0  0  0  0
 40 41  1  0  0  0  0
 41 49  1  0  0  0  0
 41 42  2  0  0  0  0
 50 53  1  0  0  0  0
 30 33  1  0  0  0  0
 59 60  1  0  0  0  0
 17 18  1  0  0  0  0
  8 11  1  0  0  0  0
 11 12  1  0  0  0  0
 40 43  1  0  0  0  0
 43 44  1  0  0  0  0
 49 50  1  0  0  0  0
  7  8  1  0  0  0  0
 29 30  1  0  0  0  0
 39 40  1  0  0  0  0
 12 44  1  0  0  0  0
  3  4  1  0  0  0  0
  3  5  1  0  0  0  0
  3  6  1  0  0  0  0
 25 26  1  0  0  0  0
 25 27  1  0  0  0  0
 25 28  1  0  0  0  0
 53 56  1  0  0  0  0
 53 57  1  0  0  0  0
 53 58  1  0  0  0  0
 33 36  1  0  0  0  0
 33 37  1  0  0  0  0
 33 38  1  0  0  0  0
 60 62  1  0  0  0  0
 60 63  1  0  0  0  0
 60 64  1  0  0  0  0
 18 20  1  0  0  0  0
 18 21  1  0  0  0  0
 18 22  1  0  0  0  0
 11 15  1  0  0  0  0
 11 16  1  0  0  0  0
 43 47  1  0  0  0  0
 43 48  1  0  0  0  0
 50 55  1  0  0  0  0
  8 14  1  0  0  0  0
 30 35  1  0  0  0  0
 40 46  1  0  0  0  0
 59 61  1  0  0  0  0
 17 19  1  0  0  0  0
  7 13  1  0  0  0  0
 29 34  1  0  0  0  0
 49 54  1  0  0  0  0
 39 45  1  0  0  0  0
M  END
$$$$

  -OEChem-05262214473D

 64 63  0     1  0  0  0  0  0999 V2000
   -0.4888   -6.2880   -3.6374 C   0  0  0  0  0  0  0  0  0  0  0  0
   -1.6085   -6.2520   -4.1340 O   0  0  0  0  0  0  0  0  0  0  0  0
   -0.0383   -7.5209   -2.9266 C   0  0  0  0  0  0  0  0  0  0  0  0
   -0.2855   -7.5014   -1.8530 H   0  0  0  0  0  0  0  0  0  0  0  0
   -0.5180   -8.4317   -3.3194 H   0  0  0  0  0  0  0  0  0  0  0  0
    1.0441   -7.7216   -2.9710 H   0  0  0  0  0  0  0  0  0  0  0  0
    0.4510   -5.2720   -3.6614 N   0  0  0  0  0  0  0  0  0  0  0  0
    0.2232   -3.9985   -4.2960 C   0  0  2  0  0  0  0  0  0  0  0  0
    1.5362   -3.5053   -4.9007 C   0  0  0  0  0  0  0  0  0  0  0  0
    2.6086   -4.0830   -4.7345 O   0  0  0  0  0  0  0  0  0  0  0  0
   -0.4284   -2.9853   -3.3516 C   0  0  0  0  0  0  0  0  0  0  0  0
    0.6015   -2.5570   -1.9099 S   0  0  0  0  0  0  0  0  0  0  0  0
    1.3478   -5.4325   -3.2082 H   0  0  0  0  0  0  0  0  0  0  0  0
   -0.4672   -4.2012   -5.1241 H   0  0  0  0  0  0  0  0  0  0  0  0
   -0.6524   -2.0541   -3.8822 H   0  0  0  0  0  0  0  0  0  0  0  0
   -1.3748   -3.3847   -2.9713 H   0  0  0  0  0  0  0  0  0  0  0  0
    1.3728   -2.3332   -5.6252 N   0  0  0  0  0  0  0  0  0  0  0  0
    2.4731   -1.6577   -6.2725 C   0  0  0  0  0  0  0  0  0  0  0  0
    0.4415   -1.9467   -5.7475 H   0  0  0  0  0  0  0  0  0  0  0  0
    2.8867   -0.8966   -5.5946 H   0  0  0  0  0  0  0  0  0  0  0  0
    3.2555   -2.3891   -6.5236 H   0  0  0  0  0  0  0  0  0  0  0  0
    2.1152   -1.1732   -7.1929 H   0  0  0  0  0  0  0  0  0  0  0  0
   -6.7256    2.0330   -0.2766 C   0  0  0  0  0  0  0  0  0  0  0  0
   -7.1824    1.1039   -0.9322 O   0  0  0  0  0  0  0  0  0  0  0  0
   -7.5276    2.6077    0.8435 C   0  0  0  0  0  0  0  0  0  0  0  0
   -8.1775    3.4344    0.5145 H   0  0  0  0  0  0  0  0  0  0  0  0
   -8.2057    1.8676    1.2980 H   0  0  0  0  0  0  0  0  0  0  0  0
   -6.9411    3.0162    1.6819 H   0  0  0  0  0  0  0  0  0  0  0  0
   -5.4935    2.6382   -0.4627 N   0  0  0  0  0  0  0  0  0  0  0  0
   -4.5619    2.2388   -1.4845 C   0  0  2  0  0  0  0  0  0  0  0  0
   -3.1535    2.4674   -0.9521 C   0  0  0  0  0  0  0  0  0  0  0  0
   -2.8634    3.3945   -0.1987 O   0  0  0  0  0  0  0  0  0  0  0  0
   -4.7883    3.0138   -2.7732 C   0  0  0  0  0  0  0  0  0  0  0  0
   -5.2337    3.4049    0.1551 H   0  0  0  0  0  0  0  0  0  0  0  0
   -4.7192    1.1682   -1.6549 H   0  0  0  0  0  0  0  0  0  0  0  0
   -4.6352    4.0886   -2.6221 H   0  0  0  0  0  0  0  0  0  0  0  0
   -4.0976    2.6887   -3.5582 H   0  0  0  0  0  0  0  0  0  0  0  0
   -5.8111    2.8719   -3.1387 H   0  0  0  0  0  0  0  0  0  0  0  0
   -2.2466    1.5400   -1.4507 N   0  0  0  0  0  0  0  0  0  0  0  0
   -0.8424    1.5707   -1.1286 C   0  0  2  0  0  0  0  0  0  0  0  0
   -0.2572    2.9023   -1.5944 C   0  0  0  0  0  0  0  0  0  0  0  0
   -0.2560    3.2582   -2.7711 O   0  0  0  0  0  0  0  0  0  0  0  0
   -0.0925    0.3536   -1.6755 C   0  0  0  0  0  0  0  0  0  0  0  0
   -0.6076   -1.2139   -0.9338 S   0  0  0  0  0  0  0  0  0  0  0  0
   -2.5850    0.7815   -2.0381 H   0  0  0  0  0  0  0  0  0  0  0  0
   -0.7910    1.5517   -0.0328 H   0  0  0  0  0  0  0  0  0  0  0  0
   -0.2372    0.2672   -2.7574 H   0  0  0  0  0  0  0  0  0  0  0  0
    0.9820    0.4648   -1.4938 H   0  0  0  0  0  0  0  0  0  0  0  0
    0.2844    3.6329   -0.5463 N   0  0  0  0  0  0  0  0  0  0  0  0
    0.9193    4.9160   -0.7374 C   0  0  2  0  0  0  0  0  0  0  0  0
    2.0299    5.0497    0.2961 C   0  0  0  0  0  0  0  0  0  0  0  0
    1.9537    4.5758    1.4278 O   0  0  0  0  0  0  0  0  0  0  0  0
   -0.0820    6.0534   -0.6096 C   0  0  0  0  0  0  0  0  0  0  0  0
    0.2011    3.2821    0.4032 H   0  0  0  0  0  0  0  0  0  0  0  0
    1.3544    4.9070   -1.7427 H   0  0  0  0  0  0  0  0  0  0  0  0
   -0.5285    6.0785    0.3912 H   0  0  0  0  0  0  0  0  0  0  0  0
    0.3952    7.0235   -0.7829 H   0  0  0  0  0  0  0  0  0  0  0  0
   -0.8958    5.9394   -1.3338 H   0  0  0  0  0  0  0  0  0  0  0  0
    3.0980    5.7976   -0.1793 N   0  0  0  0  0  0  0  0  0  0  0  0
    4.2568    6.1022    0.6272 C   0  0  0  0  0  0  0  0  0  0  0  0
    3.0942    6.1173   -1.1434 H   0  0  0  0  0  0  0  0  0  0  0  0
    4.1106    7.0700    1.1292 H   0  0  0  0  0  0  0  0  0  0  0  0
    4.3949    5.3146    1.3826 H   0  0  0  0  0  0  0  0  0  0  0  0
    5.1477    6.1537   -0.0159 H   0  0  0  0  0  0  0  0  0  0  0  0
  1  3  1  0  0  0  0
  1  7  1  0  0  0  0
  1  2  2  0  0  0  0
 23 25  1  0  0  0  0
 23 29  1  0  0  0  0
 23 24  2  0  0  0  0
 50 51  1  0  0  0  0
 51 59  1  0  0  0  0
 51 52  2  0  0  0  0
  8  9  1  0  0  0  0
  9 17  1  0  0  0  0
  9 10  2  0  0  0  0
 30 31  1  0  0  0  0
 31 39  1  0  0  0  0
 31 32  2  0  0  0  0
 40 41  1  0  0  0  0
 41 49  1  0  0  0  0
 41 42  2  0  0  0  0
 50 53  1  0  0  0  0
 30 33  1  0  0  0  0
 59 60  1  0  0  0  0
 17 18  1  0  0  0  0
  8 11  1  0  0  0  0
 11 12  1  0  0  0  0
 40 43  1  0  0  0  0
 43 44  1  0  0  0  0
 49 50  1  0  0  0  0
  7  8  1  0  0  0  0
 29 30  1  0  0  0  0
 39 40  1  0  0  0  0
 12 44  1  0  0  0  0
  3  4  1  0  0  0  0
  3  5  1  0  0  0  0
  3  6  1  0  0  0  0
 25 26  1  0  0  0  0
 25 27  1  0  0  0  0
 25 28  1  0  0  0  0
 53 56  1  0  0  0  0
 53 57  1  0  0  0  0
 53 58  1  0  0  0  0
 33 36  1  0  0  0  0
 33 37  1  0  0  0  0
 33 38  1  0  0  0  0
 60 62  1  0  0  0  0
 60 63  1  0  0  0  0
 60 64  1  0  0  0  0
 18 20  1  0  0  0  0
 18 21  1  0  0  0  0
 18 22  1  0  0  0  0
 11 15  1  0  0  0  0
 11 16  1  0  0  0  0
 43 47  1  0  0  0  0
 43 48  1  0  0  0  0
 50 55  1  0  0  0  0
  8 14  1  0  0  0  0
 30 35  1  0  0  0  0
 40 46  1  0  0  0  0
 59 61  1  0  0  0  0
 17 19  1  0  0  0  0
  7 13  1  0  0  0  0
 29 34  1  0  0  0  0
 49 54  1  0  0  0  0
 39 45  1  0  0  0  0
M  END
$$$$

  -OEChem-05262214473D

 64 63  0     1  0  0  0  0  0999 V2000
   -0.4888   -6.2880   -3.6374 C   0  0  0  0  0  0  0  0  0  0  0  0
   -1.6085   -6.2520   -4.1340 O   0  0  0  0  0  0  0  0  0  0  0  0
   -0.0383   -7.5209   -2.9266 C   0  0  0  0  0  0  0  0  0  0  0  0
   -0.2855   -7.5014   -1.8530 H   0  0  0  0  0  0  0  0  0  0  0  0
   -0.5180   -8.4317   -3.3194 H   0  0  0  0  0  0  0  0  0  0  0  0
    1.0441   -7.7216   -2.9710 H   0  0  0  0  0  0  0  0  0  0  0  0
    0.4510   -5.2720   -3.6614 N   0  0  0  0  0  0  0  0  0  0  0  0
    0.2232   -3.9985   -4.2960 C   0  0  2  0  0  0  0  0  0  0  0  0
    1.5362   -3.5053   -4.9007 C   0  0  0  0  0  0  0  0  0  0  0  0
    2.6086   -4.0830   -4.7345 O   0  0  0  0  0  0  0  0  0  0  0  0
   -0.4284   -2.9853   -3.3516 C   0  0  0  0  0  0  0  0  0  0  0  0
    0.6015   -2.5570   -1.9099 S   0  0  0  0  0  0  0  0  0  0  0  0
    1.3478   -5.4325   -3.2082 H   0  0  0  0  0  0  0  0  0  0  0  0
   -0.4672   -4.2012   -5.1241 H   0  0  0  0  0  0  0  0  0  0  0  0
   -0.6524   -2.0541   -3.8822 H   0  0  0  0  0  0  0  0  0  0  0  0
   -1.3748   -3.3847   -2.9713 H   0  0  0  0  0  0  0  0  0  0  0  0
    1.3728   -2.3332   -5.6252 N   0  0  0  0  0  0  0  0  0  0  0  0
    2.4731   -1.6577   -6.2725 C   0  0  0  0  0  0  0  0  0  0  0  0
    0.4415   -1.9467   -5.7475 H   0  0  0  0  0  0  0  0  0  0  0  0
    2.8867   -0.8966   -5.5946 H   0  0  0  0  0  0  0  0  0  0  0  0
    3.2555   -2.3891   -6.5236 H   0  0  0  0  0  0  0  0  0  0  0  0
    2.1152   -1.1732   -7.1929 H   0  0  0  0  0  0  0  0  0  0  0  0
   -6.7256    2.0330   -0.2766 C   0  0  0  0  0  0  0  0  0  0  0  0
   -7.1824    1.1039   -0.9322 O   0  0  0  0  0  0  0  0  0  0  0  0
   -7.5276    2.6077    0.8435 C   0  0  0  0  0  0  0  0  0  0  0  0
   -8.1775    3.4344    0.5145 H   0  0  0  0  0  0  0  0  0  0  0  0
   -8.2057    1.8676    1.2980 H   0  0  0  0  0  0  0  0  0  0  0  0
   -6.9411    3.0162    1.6819 H   0  0  0  0  0  0  0  0  0  0  0  0
   -5.4935    2.6382   -0.4627 N   0  0  0  0  0  0  0  0  0  0  0  0
   -4.5619    2.2388   -1.4845 C   0  0  2  0  0  0  0  0  0  0  0  0
   -3.1535    2.4674   -0.9521 C   0  0  0  0  0  0  0  0  0  0  0  0
   -2.8634    3.3945   -0.1987 O   0  0  0  0  0  0  0  0  0  0  0  0
   -4.7883    3.0138   -2.7732 C   0  0  0  0  0  0  0  0  0  0  0  0
   -5.2337    3.4049    0.1551 H   0  0  0  0  0  0  0  0  0  0  0  0
   -4.7192    1.1682   -1.6549 H   0  0  0  0  0  0  0  0  0  0  0  0
   -4.6352    4.0886   -2.6221 H   0  0  0  0  0  0  0  0  0  0  0  0
   -4.0976    2.6887   -3.5582 H   0  0  0  0  0  0  0  0  0  0  0  0
   -5.8111    2.8719   -3.1387 H   0  0  0  0  0  0  0  0  0  0  0  0
   -2.2466    1.5400   -1.4507 N   0  0  0  0  0  0  0  0  0  0  0  0
   -0.8424    1.5707   -1.1286 C   0  0  2  0  0  0  0  0  0  0  0  0
   -0.2572    2.9023   -1.5944 C   0  0  0  0  0  0  0  0  0  0  0  0
   -0.4847    3.3826   -2.7030 O   0  0  0  0  0  0  0  0  0  0  0  0
   -0.0925    0.3536   -1.6755 C   0  0  0  0  0  0  0  0  0  0  0  0
   -0.6076   -1.2139   -0.9338 S   0  0  0  0  0  0  0  0  0  0  0  0
   -2.5850    0.7815   -2.0381 H   0  0  0  0  0  0  0  0  0  0  0  0
   -0.7910    1.5517   -0.0328 H   0  0  0  0  0  0  0  0  0  0  0  0
   -0.2372    0.2672   -2.7574 H   0  0  0  0  0  0  0  0  0  0  0  0
    0.9820    0.4648   -1.4938 H   0  0  0  0  0  0  0  0  0  0  0  0
    0.5670    3.4770   -0.6372 N   0  0  0  0  0  0  0  0  0  0  0  0
    1.2570    4.7273   -0.8526 C   0  0  2  0  0  0  0  0  0  0  0  0
    2.5764    4.6731   -0.0940 C   0  0  0  0  0  0  0  0  0  0  0  0
    2.7105    4.0856    0.9775 O   0  0  0  0  0  0  0  0  0  0  0  0
    0.4158    5.9092   -0.3963 C   0  0  0  0  0  0  0  0  0  0  0  0
    0.6649    3.0319    0.2705 H   0  0  0  0  0  0  0  0  0  0  0  0
    1.4557    4.7978   -1.9276 H   0  0  0  0  0  0  0  0  0  0  0  0
    0.2064    5.8559    0.6783 H   0  0  0  0  0  0  0  0  0  0  0  0
    0.9284    6.8580   -0.5865 H   0  0  0  0  0  0  0  0  0  0  0  0
   -0.5452    5.9295   -0.9215 H   0  0  0  0  0  0  0  0  0  0  0  0
    3.5757    5.3941   -0.7326 N   0  0  0  0  0  0  0  0  0  0  0  0
    4.9070    5.5306   -0.1897 C   0  0  0  0  0  0  0  0  0  0  0  0
    3.3872    5.8158   -1.6373 H   0  0  0  0  0  0  0  0  0  0  0  0
    4.9638    6.4460    0.4176 H   0  0  0  0  0  0  0  0  0  0  0  0
    5.1375    4.6584    0.4396 H   0  0  0  0  0  0  0  0  0  0  0  0
    5.6341    5.5912   -1.0129 H   0  0  0  0  0  0  0  0  0  0  0  0
  1  3  1  0  0  0  0
  1  7  1  0  0  0  0
  1  2  2  0  0  0  0
 23 25  1  0  0  0  0
 23 29  1  0  0  0  0
 23 24  2  0  0  0  0
 50 51  1  0  0  0  0
 51 59  1  0  0  0  0
 51 52  2  0  0  0  0
  8  9  1  0  0  0  0
  9 17  1  0  0  0  0
  9 10  2  0  0  0  0
 30 31  1  0  0  0  0
 31 39  1  0  0  0  0
 31 32  2  0  0  0  0
 40 41  1  0  0  0  0
 41 49  1  0  0  0  0
 41 42  2  0  0  0  0
 50 53  1  0  0  0  0
 30 33  1  0  0  0  0
 59 60  1  0  0  0  0
 17 18  1  0  0  0  0
  8 11  1  0  0  0  0
 11 12  1  0  0  0  0
 40 43  1  0  0  0  0
 43 44  1  0  0  0  0
 49 50  1  0  0  0  0
  7  8  1  0  0  0  0
 29 30  1  0  0  0  0
 39 40  1  0  0  0  0
 12 44  1  0  0  0  0
  3  4  1  0  0  0  0
  3  5  1  0  0  0  0
  3  6  1  0  0  0  0
 25 26  1  0  0  0  0
 25 27  1  0  0  0  0
 25 28  1  0  0  0  0
 53 56  1  0  0  0  0
 53 57  1  0  0  0  0
 53 58  1  0  0  0  0
 33 36  1  0  0  0  0
 33 37  1  0  0  0  0
 33 38  1  0  0  0  0
 60 62  1  0  0  0  0
 60 63  1  0  0  0  0
 60 64  1  0  0  0  0
 18 20  1  0  0  0  0
 18 21  1  0  0  0  0
 18 22  1  0  0  0  0
 11 15  1  0  0  0  0
 11 16  1  0  0  0  0
 43 47  1  0  0  0  0
 43 48  1  0  0  0  0
 50 55  1  0  0  0  0
  8 14  1  0  0  0  0
 30 35  1  0  0  0  0
 40 46  1  0  0  0  0
 59 61  1  0  0  0  0
 17 19  1  0  0  0  0
  7 13  1  0  0  0  0
 29 34  1  0  0  0  0
 49 54  1  0  0  0  0
 39 45  1  0  0  0  0
M  END
$$$$

  -OEChem-05262214473D

 64 63  0     1  0  0  0  0  0999 V2000
   -0.4888   -6.2880   -3.6374 C   0  0  0  0  0  0  0  0  0  0  0  0
   -1.6085   -6.2520   -4.1340 O   0  0  0  0  0  0  0  0  0  0  0  0
   -0.0383   -7.5209   -2.9266 C   0  0  0  0  0  0  0  0  0  0  0  0
   -0.2855   -7.5014   -1.8530 H   0  0  0  0  0  0  0  0  0  0  0  0
   -0.5180   -8.4317   -3.3194 H   0  0  0  0  0  0  0  0  0  0  0  0
    1.0441   -7.7216   -2.9710 H   0  0  0  0  0  0  0  0  0  0  0  0
    0.4510   -5.2720   -3.6614 N   0  0  0  0  0  0  0  0  0  0  0  0
    0.2232   -3.9985   -4.2960 C   0  0  2  0  0  0  0  0  0  0  0  0
    1.5362   -3.5053   -4.9007 C   0  0  0  0  0  0  0  0  0  0  0  0
    2.6086   -4.0830   -4.7345 O   0  0  0  0  0  0  0  0  0  0  0  0
   -0.4284   -2.9853   -3.3516 C   0  0  0  0  0  0  0  0  0  0  0  0
    0.6015   -2.5570   -1.9099 S   0  0  0  0  0  0  0  0  0  0  0  0
    1.3478   -5.4325   -3.2082 H   0  0  0  0  0  0  0  0  0  0  0  0
   -0.4672   -4.2012   -5.1241 H   0  0  0  0  0  0  0  0  0  0  0  0
   -0.6524   -2.0541   -3.8822 H   0  0  0  0  0  0  0  0  0  0  0  0
   -1.3748   -3.3847   -2.9713 H   0  0  0  0  0  0  0  0  0  0  0  0
    1.3728   -2.3332   -5.6252 N   0  0  0  0  0  0  0  0  0  0  0  0
    2.4731   -1.6577   -6.2725 C   0  0  0  0  0  0  0  0  0  0  0  0
    0.4415   -1.9467   -5.7475 H   0  0  0  0  0  0  0  0  0  0  0  0
    2.8867   -0.8966   -5.5946 H   0  0  0  0  0  0  0  0  0  0  0  0
    3.2555   -2.3891   -6.5236 H   0  0  0  0  0  0  0  0  0  0  0  0
    2.1152   -1.1732   -7.1929 H   0  0  0  0  0  0  0  0  0  0  0  0
   -6.7256    2.0330   -0.2766 C   0  0  0  0  0  0  0  0  0  0  0  0
   -7.1824    1.1039   -0.9322 O   0  0  0  0  0  0  0  0  0  0  0  0
   -7.5276    2.6077    0.8435 C   0  0  0  0  0  0  0  0  0  0  0  0
   -8.1775    3.4344    0.5145 H   0  0  0  0  0  0  0  0  0  0  0  0
   -8.2057    1.8676    1.2980 H   0  0  0  0  0  0  0  0  0  0  0  0
   -6.9411    3.0162    1.6819 H   0  0  0  0  0  0  0  0  0  0  0  0
   -5.4935    2.6382   -0.4627 N   0  0  0  0  0  0  0  0  0  0  0  0
   -4.5619    2.2388   -1.4845 C   0  0  2  0  0  0  0  0  0  0  0  0
   -3.1535    2.4674   -0.9521 C   0  0  0  0  0  0  0  0  0  0  0  0
   -2.8634    3.3945   -0.1987 O   0  0  0  0  0  0  0  0  0  0  0  0
   -4.7883    3.0138   -2.7732 C   0  0  0  0  0  0  0  0  0  0  0  0
   -5.2337    3.4049    0.1551 H   0  0  0  0  0  0  0  0  0  0  0  0
   -4.7192    1.1682   -1.6549 H   0  0  0  0  0  0  0  0  0  0  0  0
   -4.6352    4.0886   -2.6221 H   0  0  0  0  0  0  0  0  0  0  0  0
   -4.0976    2.6887   -3.5582 H   0  0  0  0  0  0  0  0  0  0  0  0
   -5.8111    2.8719   -3.1387 H   0  0  0  0  0  0  0  0  0  0  0  0
   -2.2466    1.5400   -1.4507 N   0  0  0  0  0  0  0  0  0  0  0  0
   -0.8424    1.5707   -1.1286 C   0  0  2  0  0  0  0  0  0  0  0  0
   -0.2572    2.9023   -1.5944 C   0  0  0  0  0  0  0  0  0  0  0  0
   -0.6805    3.5140   -2.5732 O   0  0  0  0  0  0  0  0  0  0  0  0
   -0.0925    0.3536   -1.6755 C   0  0  0  0  0  0  0  0  0  0  0  0
   -0.6076   -1.2139   -0.9338 S   0  0  0  0  0  0  0  0  0  0  0  0
   -2.5850    0.7815   -2.0381 H   0  0  0  0  0  0  0  0  0  0  0  0
   -0.7910    1.5517   -0.0328 H   0  0  0  0  0  0  0  0  0  0  0  0
   -0.2372    0.2672   -2.7574 H   0  0  0  0  0  0  0  0  0  0  0  0
    0.9820    0.4648   -1.4938 H   0  0  0  0  0  0  0  0  0  0  0  0
    0.8071    3.3130   -0.8043 N   0  0  0  0  0  0  0  0  0  0  0  0
    1.5422    4.5298   -1.0588 C   0  0  2  0  0  0  0  0  0  0  0  0
    2.9866    4.3048   -0.6315 C   0  0  0  0  0  0  0  0  0  0  0  0
    3.3012    3.5971    0.3231 O   0  0  0  0  0  0  0  0  0  0  0  0
    0.9334    5.7095   -0.3169 C   0  0  0  0  0  0  0  0  0  0  0  0
    1.0632    2.7667    0.0128 H   0  0  0  0  0  0  0  0  0  0  0  0
    1.5033    4.7026   -2.1398 H   0  0  0  0  0  0  0  0  0  0  0  0
    0.9635    5.5545    0.7678 H   0  0  0  0  0  0  0  0  0  0  0  0
    1.4746    6.6364   -0.5334 H   0  0  0  0  0  0  0  0  0  0  0  0
   -0.1142    5.8514   -0.6034 H   0  0  0  0  0  0  0  0  0  0  0  0
    3.8803    5.0215   -1.4149 N   0  0  0  0  0  0  0  0  0  0  0  0
    5.3057    5.0082   -1.1822 C   0  0  0  0  0  0  0  0  0  0  0  0
    3.5349    5.5505   -2.2103 H   0  0  0  0  0  0  0  0  0  0  0  0
    5.5781    5.8466   -0.5242 H   0  0  0  0  0  0  0  0  0  0  0  0
    5.5901    4.0594   -0.7038 H   0  0  0  0  0  0  0  0  0  0  0  0
    5.8346    5.1083   -2.1414 H   0  0  0  0  0  0  0  0  0  0  0  0
  1  3  1  0  0  0  0
  1  7  1  0  0  0  0
  1  2  2  0  0  0  0
 23 25  1  0  0  0  0
 23 29  1  0  0  0  0
 23 24  2  0  0  0  0
 50 51  1  0  0  0  0
 51 59  1  0  0  0  0
 51 52  2  0  0  0  0
  8  9  1  0  0  0  0
  9 17  1  0  0  0  0
  9 10  2  0  0  0  0
 30 31  1  0  0  0  0
 31 39  1  0  0  0  0
 31 32  2  0  0  0  0
 40 41  1  0  0  0  0
 41 49  1  0  0  0  0
 41 42  2  0  0  0  0
 50 53  1  0  0  0  0
 30 33  1  0  0  0  0
 59 60  1  0  0  0  0
 17 18  1  0  0  0  0
  8 11  1  0  0  0  0
 11 12  1  0  0  0  0
 40 43  1  0  0  0  0
 43 44  1  0  0  0  0
 49 50  1  0  0  0  0
  7  8  1  0  0  0  0
 29 30  1  0  0  0  0
 39 40  1  0  0  0  0
 12 44  1  0  0  0  0
  3  4  1  0  0  0  0
  3  5  1  0  0  0  0
  3  6  1  0  0  0  0
 25 26  1  0  0  0  0
 25 27  1  0  0  0  0
 25 28  1  0  0  0  0
 53 56  1  0  0  0  0
 53 57  1  0  0  0  0
 53 58  1  0  0  0  0
 33 36  1  0  0  0  0
 33 37  1  0  0  0  0
 33 38  1  0  0  0  0
 60 62  1  0  0  0  0
 60 63  1  0  0  0  0
 60 64  1  0  0  0  0
 18 20  1  0  0  0  0
 18 21  1  0  0  0  0
 18 22  1  0  0  0  0
 11 15  1  0  0  0  0
 11 16  1  0  0  0  0
 43 47  1  0  0  0  0
 43 48  1  0  0  0  0
 50 55  1  0  0  0  0
  8 14  1  0  0  0  0
 30 35  1  0  0  0  0
 40 46  1  0  0  0  0
 59 61  1  0  0  0  0
 17 19  1  0  0  0  0
  7 13  1  0  0  0  0
 29 34  1  0  0  0  0
 49 54  1  0  0  0  0
 39 45  1  0  0  0  0
M  END
$$$$

  -OEChem-05262214473D

 64 63  0     1  0  0  0  0  0999 V2000
   -0.4888   -6.2880   -3.6374 C   0  0  0  0  0  0  0  0  0  0  0  0
   -1.6085   -6.2520   -4.1340 O   0  0  0  0  0  0  0  0  0  0  0  0
   -0.0383   -7.5209   -2.9266 C   0  0  0  0  0  0  0  0  0  0  0  0
   -0.2855   -7.5014   -1.8530 H   0  0  0  0  0  0  0  0  0  0  0  0
   -0.5180   -8.4317   -3.3194 H   0  0  0  0  0  0  0  0  0  0  0  0
    1.0441   -7.7216   -2.9710 H   0  0  0  0  0  0  0  0  0  0  0  0
    0.4510   -5.2720   -3.6614 N   0  0  0  0  0  0  0  0  0  0  0  0
    0.2232   -3.9985   -4.2960 C   0  0  2  0  0  0  0  0  0  0  0  0
    1.5362   -3.5053   -4.9007 C   0  0  0  0  0  0  0  0  0  0  0  0
    2.6086   -4.0830   -4.7345 O   0  0  0  0  0  0  0  0  0  0  0  0
   -0.4284   -2.9853   -3.3516 C   0  0  0  0  0  0  0  0  0  0  0  0
    0.6015   -2.5570   -1.9099 S   0  0  0  0  0  0  0  0  0  0  0  0
    1.3478   -5.4325   -3.2082 H   0  0  0  0  0  0  0  0  0  0  0  0
   -0.4672   -4.2012   -5.1241 H   0  0  0  0  0  0  0  0  0  0  0  0
   -0.6524   -2.0541   -3.8822 H   0  0  0  0  0  0  0  0  0  0  0  0
   -1.3748   -3.3847   -2.9713 H   0  0  0  0  0  0  0  0  0  0  0  0
    1.3728   -2.3332   -5.6252 N   0  0  0  0  0  0  0  0  0  0  0  0
    2.4731   -1.6577   -6.2725 C   0  0  0  0  0  0  0  0  0  0  0  0
    0.4415   -1.9467   -5.7475 H   0  0  0  0  0  0  0  0  0  0  0  0
    2.8867   -0.8966   -5.5946 H   0  0  0  0  0  0  0  0  0  0  0  0
    3.2555   -2.3891   -6.5236 H   0  0  0  0  0  0  0  0  0  0  0  0
    2.1152   -1.1732   -7.1929 H   0  0  0  0  0  0  0  0  0  0  0  0
   -6.7256    2.0330   -0.2766 C   0  0  0  0  0  0  0  0  0  0  0  0
   -7.1824    1.1039   -0.9322 O   0  0  0  0  0  0  0  0  0  0  0  0
   -7.5276    2.6077    0.8435 C   0  0  0  0  0  0  0  0  0  0  0  0
   -8.1775    3.4344    0.5145 H   0  0  0  0  0  0  0  0  0  0  0  0
   -8.2057    1.8676    1.2980 H   0  0  0  0  0  0  0  0  0  0  0  0
   -6.9411    3.0162    1.6819 H   0  0  0  0  0  0  0  0  0  0  0  0
   -5.4935    2.6382   -0.4627 N   0  0  0  0  0  0  0  0  0  0  0  0
   -4.5619    2.2388   -1.4845 C   0  0  2  0  0  0  0  0  0  0  0  0
   -3.1535    2.4674   -0.9521 C   0  0  0  0  0  0  0  0  0  0  0  0
   -2.8634    3.3945   -0.1987 O   0  0  0  0  0  0  0  0  0  0  0  0
   -4.7883    3.0138   -2.7732 C   0  0  0  0  0  0  0  0  0  0  0  0
   -5.2337    3.4049    0.1551 H   0  0  0  0  0  0  0  0  0  0  0  0
   -4.7192    1.1682   -1.6549 H   0  0  0  0  0  0  0  0  0  0  0  0
   -4.6352    4.0886   -2.6221 H   0  0  0  0  0  0  0  0  0  0  0  0
   -4.0976    2.6887   -3.5582 H   0  0  0  0  0  0  0  0  0  0  0  0
   -5.8111    2.8719   -3.1387 H   0  0  0  0  0  0  0  0  0  0  0  0
   -2.2466    1.5400   -1.4507 N   0  0  0  0  0  0  0  0  0  0  0  0
   -0.8424    1.5707   -1.1286 C   0  0  2  0  0  0  0  0  0  0  0  0
   -0.2572    2.9023   -1.5944 C   0  0  0  0  0  0  0  0  0  0  0  0
   -0.8299    3.6435   -2.3906 O   0  0  0  0  0  0  0  0  0  0  0  0
   -0.0925    0.3536   -1.6755 C   0  0  0  0  0  0  0  0  0  0  0  0
   -0.6076   -1.2139   -0.9338 S   0  0  0  0  0  0  0  0  0  0  0  0
   -2.5850    0.7815   -2.0381 H   0  0  0  0  0  0  0  0  0  0  0  0
   -0.7910    1.5517   -0.0328 H   0  0  0  0  0  0  0  0  0  0  0  0
   -0.2372    0.2672   -2.7574 H   0  0  0  0  0  0  0  0  0  0  0  0
    0.9820    0.4648   -1.4938 H   0  0  0  0  0  0  0  0  0  0  0  0
    0.9884    3.1522   -1.0361 N   0  0  0  0  0  0  0  0  0  0  0  0
    1.7556    4.3370   -1.3419 C   0  0  2  0  0  0  0  0  0  0  0  0
    3.2324    3.9700   -1.2798 C   0  0  0  0  0  0  0  0  0  0  0  0
    3.6856    3.1435   -0.4907 O   0  0  0  0  0  0  0  0  0  0  0  0
    1.4355    5.4679   -0.3768 C   0  0  0  0  0  0  0  0  0  0  0  0
    1.3688    2.5046   -0.3523 H   0  0  0  0  0  0  0  0  0  0  0  0
    1.4938    4.6280   -2.3650 H   0  0  0  0  0  0  0  0  0  0  0  0
    1.6912    5.1947    0.6534 H   0  0  0  0  0  0  0  0  0  0  0  0
    1.9967    6.3741   -0.6274 H   0  0  0  0  0  0  0  0  0  0  0  0
    0.3676    5.7104   -0.4011 H   0  0  0  0  0  0  0  0  0  0  0  0
    3.9912    4.7053   -2.1796 N   0  0  0  0  0  0  0  0  0  0  0  0
    5.4256    4.5706   -2.2826 C   0  0  0  0  0  0  0  0  0  0  0  0
    3.5273    5.3393   -2.8234 H   0  0  0  0  0  0  0  0  0  0  0  0
    5.9117    5.3125   -1.6319 H   0  0  0  0  0  0  0  0  0  0  0  0
    5.7221    3.5586   -1.9698 H   0  0  0  0  0  0  0  0  0  0  0  0
    5.7355    4.7379   -3.3247 H   0  0  0  0  0  0  0  0  0  0  0  0
  1  3  1  0  0  0  0
  1  7  1  0  0  0  0
  1  2  2  0  0  0  0
 23 25  1  0  0  0  0
 23 29  1  0  0  0  0
 23 24  2  0  0  0  0
 50 51  1  0  0  0  0
 51 59  1  0  0  0  0
 51 52  2  0  0  0  0
  8  9  1  0  0  0  0
  9 17  1  0  0  0  0
  9 10  2  0  0  0  0
 30 31  1  0  0  0  0
 31 39  1  0  0  0  0
 31 32  2  0  0  0  0
 40 41  1  0  0  0  0
 41 49  1  0  0  0  0
 41 42  2  0  0  0  0
 50 53  1  0  0  0  0
 30 33  1  0  0  0  0
 59 60  1  0  0  0  0
 17 18  1  0  0  0  0
  8 11  1  0  0  0  0
 11 12  1  0  0  0  0
 40 43  1  0  0  0  0
 43 44  1  0  0  0  0
 49 50  1  0  0  0  0
  7  8  1  0  0  0  0
 29 30  1  0  0  0  0
 39 40  1  0  0  0  0
 12 44  1  0  0  0  0
  3  4  1  0  0  0  0
  3  5  1  0  0  0  0
  3  6  1  0  0  0  0
 25 26  1  0  0  0  0
 25 27  1  0  0  0  0
 25 28  1  0  0  0  0
 53 56  1  0  0  0  0
 53 57  1  0  0  0  0
 53 58  1  0  0  0  0
 33 36  1  0  0  0  0
 33 37  1  0  0  0  0
 33 38  1  0  0  0  0
 60 62  1  0  0  0  0
 60 63  1  0  0  0  0
 60 64  1  0  0  0  0
 18 20  1  0  0  0  0
 18 21  1  0  0  0  0
 18 22  1  0  0  0  0
 11 15  1  0  0  0  0
 11 16  1  0  0  0  0
 43 47  1  0  0  0  0
 43 48  1  0  0  0  0
 50 55  1  0  0  0  0
  8 14  1  0  0  0  0
 30 35  1  0  0  0  0
 40 46  1  0  0  0  0
 59 61  1  0  0  0  0
 17 19  1  0  0  0  0
  7 13  1  0  0  0  0
 29 34  1  0  0  0  0
 49 54  1  0  0  0  0
 39 45  1  0  0  0  0
M  END
$$$$

  -OEChem-05262214473D

 64 63  0     1  0  0  0  0  0999 V2000
   -0.0727   -5.3673   -5.5388 C   0  0  0  0  0  0  0  0  0  0  0  0
   -1.1990   -5.2729   -6.0124 O   0  0  0  0  0  0  0  0  0  0  0  0
    0.4567   -6.7109   -5.1613 C   0  0  0  0  0  0  0  0  0  0  0  0
    0.2226   -6.9772   -4.1180 H   0  0  0  0  0  0  0  0  0  0  0  0
    0.0247   -7.5199   -5.7722 H   0  0  0  0  0  0  0  0  0  0  0  0
    1.5481   -6.8302   -5.2529 H   0  0  0  0  0  0  0  0  0  0  0  0
    0.8071   -4.3248   -5.3038 N   0  0  0  0  0  0  0  0  0  0  0  0
    0.4987   -2.9480   -5.5969 C   0  0  2  0  0  0  0  0  0  0  0  0
    1.7734   -2.2424   -6.0551 C   0  0  0  0  0  0  0  0  0  0  0  0
    2.8791   -2.7795   -6.0380 O   0  0  0  0  0  0  0  0  0  0  0  0
   -0.1975   -2.2455   -4.4286 C   0  0  0  0  0  0  0  0  0  0  0  0
    0.8248   -2.1349   -2.9236 S   0  0  0  0  0  0  0  0  0  0  0  0
    1.7174   -4.5416   -4.9041 H   0  0  0  0  0  0  0  0  0  0  0  0
   -0.1897   -2.9756   -6.4507 H   0  0  0  0  0  0  0  0  0  0  0  0
   -0.4812   -1.2255   -4.7075 H   0  0  0  0  0  0  0  0  0  0  0  0
   -1.1145   -2.7826   -4.1633 H   0  0  0  0  0  0  0  0  0  0  0  0
    1.5340   -0.9371   -6.4606 N   0  0  0  0  0  0  0  0  0  0  0  0
    2.5853   -0.0571   -6.9144 C   0  0  0  0  0  0  0  0  0  0  0  0
    0.5806   -0.5875   -6.4832 H   0  0  0  0  0  0  0  0  0  0  0  0
    2.9635    0.5314   -6.0655 H   0  0  0  0  0  0  0  0  0  0  0  0
    3.4049   -0.6544   -7.3404 H   0  0  0  0  0  0  0  0  0  0  0  0
    2.1885    0.6220   -7.6834 H   0  0  0  0  0  0  0  0  0  0  0  0
   -6.7256    2.0330   -0.2766 C   0  0  0  0  0  0  0  0  0  0  0  0
   -7.1824    1.1039   -0.9322 O   0  0  0  0  0  0  0  0  0  0  0  0
   -7.5276    2.6077    0.8435 C   0  0  0  0  0  0  0  0  0  0  0  0
   -8.1775    3.4344    0.5145 H   0  0  0  0  0  0  0  0  0  0  0  0
   -8.2057    1.8676    1.2980 H   0  0  0  0  0  0  0  0  0  0  0  0
   -6.9411    3.0162    1.6819 H   0  0  0  0  0  0  0  0  0  0  0  0
   -5.4935    2.6382   -0.4627 N   0  0  0  0  0  0  0  0  0  0  0  0
   -4.5619    2.2388   -1.4845 C   0  0  2  0  0  0  0  0  0  0  0  0
   -3.1535    2.4674   -0.9521 C   0  0  0  0  0  0  0  0  0  0  0  0
   -2.8634    3.3945   -0.1987 O   0  0  0  0  0  0  0  0  0  0  0  0
   -4.7883    3.0138   -2.7732 C   0  0  0  0  0  0  0  0  0  0  0  0
   -5.2337    3.4049    0.1551 H   0  0  0  0  0  0  0  0  0  0  0  0
   -4.7192    1.1682   -1.6549 H   0  0  0  0  0  0  0  0  0  0  0  0
   -4.6352    4.0886   -2.6221 H   0  0  0  0  0  0  0  0  0  0  0  0
   -4.0976    2.6887   -3.5582 H   0  0  0  0  0  0  0  0  0  0  0  0
   -5.8111    2.8719   -3.1387 H   0  0  0  0  0  0  0  0  0  0  0  0
   -2.2466    1.5400   -1.4507 N   0  0  0  0  0  0  0  0  0  0  0  0
   -0.8424    1.5707   -1.1286 C   0  0  2  0  0  0  0  0  0  0  0  0
   -0.3403    3.0087   -1.2421 C   0  0  0  0  0  0  0  0  0  0  0  0
   -1.0614    3.9449   -1.5811 O   0  0  0  0  0  0  0  0  0  0  0  0
   -0.0313    0.5768   -1.9636 C   0  0  0  0  0  0  0  0  0  0  0  0
   -0.4464   -1.1544   -1.6425 S   0  0  0  0  0  0  0  0  0  0  0  0
   -2.5850    0.7815   -2.0381 H   0  0  0  0  0  0  0  0  0  0  0  0
   -0.7758    1.2792   -0.0730 H   0  0  0  0  0  0  0  0  0  0  0  0
   -0.1849    0.7576   -3.0324 H   0  0  0  0  0  0  0  0  0  0  0  0
    1.0373    0.7014   -1.7576 H   0  0  0  0  0  0  0  0  0  0  0  0
    1.0107    3.1179   -0.9450 N   0  0  0  0  0  0  0  0  0  0  0  0
    1.7227    4.3729   -1.0056 C   0  0  2  0  0  0  0  0  0  0  0  0
    3.1576    4.0799   -1.4235 C   0  0  0  0  0  0  0  0  0  0  0  0
    3.7580    3.0600   -1.0914 O   0  0  0  0  0  0  0  0  0  0  0  0
    1.6830    5.0967    0.3313 C   0  0  0  0  0  0  0  0  0  0  0  0
    1.5215    2.2979   -0.6311 H   0  0  0  0  0  0  0  0  0  0  0  0
    1.2332    4.9773   -1.7770 H   0  0  0  0  0  0  0  0  0  0  0  0
    2.1688    4.5064    1.1168 H   0  0  0  0  0  0  0  0  0  0  0  0
    2.1987    6.0611    0.2759 H   0  0  0  0  0  0  0  0  0  0  0  0
    0.6496    5.2802    0.6446 H   0  0  0  0  0  0  0  0  0  0  0  0
    3.7033    5.1113   -2.1749 N   0  0  0  0  0  0  0  0  0  0  0  0
    5.0654    5.0902   -2.6547 C   0  0  0  0  0  0  0  0  0  0  0  0
    3.1206    5.9010   -2.4371 H   0  0  0  0  0  0  0  0  0  0  0  0
    5.7189    5.5936   -1.9270 H   0  0  0  0  0  0  0  0  0  0  0  0
    5.3931    4.0479   -2.7820 H   0  0  0  0  0  0  0  0  0  0  0  0
    5.1218    5.6129   -3.6209 H   0  0  0  0  0  0  0  0  0  0  0  0
  1  3  1  0  0  0  0
  1  7  1  0  0  0  0
  1  2  2  0  0  0  0
 23 25  1  0  0  0  0
 23 29  1  0  0  0  0
 23 24  2  0  0  0  0
 50 51  1  0  0  0  0
 51 59  1  0  0  0  0
 51 52  2  0  0  0  0
  8  9  1  0  0  0  0
  9 17  1  0  0  0  0
  9 10  2  0  0  0  0
 30 31  1  0  0  0  0
 31 39  1  0  0  0  0
 31 32  2  0  0  0  0
 40 41  1  0  0  0  0
 41 49  1  0  0  0  0
 41 42  2  0  0  0  0
 50 53  1  0  0  0  0
 30 33  1  0  0  0  0
 59 60  1  0  0  0  0
 17 18  1  0  0  0  0
  8 11  1  0  0  0  0
 11 12  1  0  0  0  0
 40 43  1  0  0  0  0
 43 44  1  0  0  0  0
 49 50  1  0  0  0  0
  7  8  1  0  0  0  0
 29 30  1  0  0  0  0
 39 40  1  0  0  0  0
 12 44  1  0  0  0  0
  3  4  1  0  0  0  0
  3  5  1  0  0  0  0
  3  6  1  0  0  0  0
 25 26  1  0  0  0  0
 25 27  1  0  0  0  0
 25 28  1  0  0  0  0
 53 56  1  0  0  0  0
 53 57  1  0  0  0  0
 53 58  1  0  0  0  0
 33 36  1  0  0  0  0
 33 37  1  0  0  0  0
 33 38  1  0  0  0  0
 60 62  1  0  0  0  0
 60 63  1  0  0  0  0
 60 64  1  0  0  0  0
 18 20  1  0  0  0  0
 18 21  1  0  0  0  0
 18 22  1  0  0  0  0
 11 15  1  0  0  0  0
 11 16  1  0  0  0  0
 43 47  1  0  0  0  0
 43 48  1  0  0  0  0
 50 55  1  0  0  0  0
  8 14  1  0  0  0  0
 30 35  1  0  0  0  0
 40 46  1  0  0  0  0
 59 61  1  0  0  0  0
 17 19  1  0  0  0  0
  7 13  1  0  0  0  0
 29 34  1  0  0  0  0
 49 54  1  0  0  0  0
 39 45  1  0  0  0  0
M  END
$$$$

  -OEChem-05262214473D

 64 63  0     1  0  0  0  0  0999 V2000
   -0.0727   -5.3673   -5.5388 C   0  0  0  0  0  0  0  0  0  0  0  0
   -1.1990   -5.2729   -6.0124 O   0  0  0  0  0  0  0  0  0  0  0  0
    0.4567   -6.7109   -5.1613 C   0  0  0  0  0  0  0  0  0  0  0  0
    0.2226   -6.9772   -4.1180 H   0  0  0  0  0  0  0  0  0  0  0  0
    0.0247   -7.5199   -5.7722 H   0  0  0  0  0  0  0  0  0  0  0  0
    1.5481   -6.8302   -5.2529 H   0  0  0  0  0  0  0  0  0  0  0  0
    0.8071   -4.3248   -5.3038 N   0  0  0  0  0  0  0  0  0  0  0  0
    0.4987   -2.9480   -5.5969 C   0  0  2  0  0  0  0  0  0  0  0  0
    1.7734   -2.2424   -6.0551 C   0  0  0  0  0  0  0  0  0  0  0  0
    2.8791   -2.7795   -6.0380 O   0  0  0  0  0  0  0  0  0  0  0  0
   -0.1975   -2.2455   -4.4286 C   0  0  0  0  0  0  0  0  0  0  0  0
    0.8248   -2.1349   -2.9236 S   0  0  0  0  0  0  0  0  0  0  0  0
    1.7174   -4.5416   -4.9041 H   0  0  0  0  0  0  0  0  0  0  0  0
   -0.1897   -2.9756   -6.4507 H   0  0  0  0  0  0  0  0  0  0  0  0
   -0.4812   -1.2255   -4.7075 H   0  0  0  0  0  0  0  0  0  0  0  0
   -1.1145   -2.7826   -4.1633 H   0  0  0  0  0  0  0  0  0  0  0  0
    1.5340   -0.9371   -6.4606 N   0  0  0  0  0  0  0  0  0  0  0  0
    2.5853   -0.0571   -6.9144 C   0  0  0  0  0  0  0  0  0  0  0  0
    0.5806   -0.5875   -6.4832 H   0  0  0  0  0  0  0  0  0  0  0  0
    2.9635    0.5314   -6.0655 H   0  0  0  0  0  0  0  0  0  0  0  0
    3.4049   -0.6544   -7.3404 H   0  0  0  0  0  0  0  0  0  0  0  0
    2.1885    0.6220   -7.6834 H   0  0  0  0  0  0  0  0  0  0  0  0
   -6.7256    2.0330   -0.2766 C   0  0  0  0  0  0  0  0  0  0  0  0
   -7.1824    1.1039   -0.9322 O   0  0  0  0  0  0  0  0  0  0  0  0
   -7.5276    2.6077    0.8435 C   0  0  0  0  0  0  0  0  0  0  0  0
   -8.1775    3.4344    0.5145 H   0  0  0  0  0  0  0  0  0  0  0  0
   -8.2057    1.8676    1.2980 H   0  0  0  0  0  0  0  0  0  0  0  0
   -6.9411    3.0162    1.6819 H   0  0  0  0  0  0  0  0  0  0  0  0
   -5.4935    2.6382   -0.4627 N   0  0  0  0  0  0  0  0  0  0  0  0
   -4.5619    2.2388   -1.4845 C   0  0  2  0  0  0  0  0  0  0  0  0
   -3.1535    2.4674   -0.9521 C   0  0  0  0  0  0  0  0  0  0  0  0
   -2.8634    3.3945   -0.1987 O   0  0  0  0  0  0  0  0  0  0  0  0
   -4.7883    3.0138   -2.7732 C   0  0  0  0  0  0  0  0  0  0  0  0
   -5.2337    3.4049    0.1551 H   0  0  0  0  0  0  0  0  0  0  0  0
   -4.7192    1.1682   -1.6549 H   0  0  0  0  0  0  0  0  0  0  0  0
   -4.6352    4.0886   -2.6221 H   0  0  0  0  0  0  0  0  0  0  0  0
   -4.0976    2.6887   -3.5582 H   0  0  0  0  0  0  0  0  0  0  0  0
   -5.8111    2.8719   -3.1387 H   0  0  0  0  0  0  0  0  0  0  0  0
   -2.2466    1.5400   -1.4507 N   0  0  0  0  0  0  0  0  0  0  0  0
   -0.8424    1.5707   -1.1286 C   0  0  2  0  0  0  0  0  0  0  0  0
   -0.3403    3.0087   -1.2421 C   0  0  0  0  0  0  0  0  0  0  0  0
   -1.0939    3.9772   -1.3159 O   0  0  0  0  0  0  0  0  0  0  0  0
   -0.0313    0.5768   -1.9636 C   0  0  0  0  0  0  0  0  0  0  0  0
   -0.4464   -1.1544   -1.6425 S   0  0  0  0  0  0  0  0  0  0  0  0
   -2.5850    0.7815   -2.0381 H   0  0  0  0  0  0  0  0  0  0  0  0
   -0.7758    1.2792   -0.0730 H   0  0  0  0  0  0  0  0  0  0  0  0
   -0.1849    0.7576   -3.0324 H   0  0  0  0  0  0  0  0  0  0  0  0
    1.0373    0.7014   -1.7576 H   0  0  0  0  0  0  0  0  0  0  0  0
    1.0451    3.0797   -1.2763 N   0  0  0  0  0  0  0  0  0  0  0  0
    1.7581    4.3290   -1.4052 C   0  0  2  0  0  0  0  0  0  0  0  0
    3.0392    4.0612   -2.1840 C   0  0  0  0  0  0  0  0  0  0  0  0
    3.6716    3.0109   -2.0944 O   0  0  0  0  0  0  0  0  0  0  0  0
    2.0658    4.9334   -0.0440 C   0  0  0  0  0  0  0  0  0  0  0  0
    1.5921    2.2310   -1.1659 H   0  0  0  0  0  0  0  0  0  0  0  0
    1.1141    5.0028   -1.9808 H   0  0  0  0  0  0  0  0  0  0  0  0
    2.7100    4.2725    0.5472 H   0  0  0  0  0  0  0  0  0  0  0  0
    2.5811    5.8944   -0.1439 H   0  0  0  0  0  0  0  0  0  0  0  0
    1.1453    5.0978    0.5265 H   0  0  0  0  0  0  0  0  0  0  0  0
    3.4165    5.1496   -2.9581 N   0  0  0  0  0  0  0  0  0  0  0  0
    4.6201    5.1587   -3.7564 C   0  0  0  0  0  0  0  0  0  0  0  0
    2.8114    5.9642   -3.0036 H   0  0  0  0  0  0  0  0  0  0  0  0
    5.4454    5.5908   -3.1715 H   0  0  0  0  0  0  0  0  0  0  0  0
    4.8759    4.1287   -4.0457 H   0  0  0  0  0  0  0  0  0  0  0  0
    4.4557    5.7634   -4.6605 H   0  0  0  0  0  0  0  0  0  0  0  0
  1  3  1  0  0  0  0
  1  7  1  0  0  0  0
  1  2  2  0  0  0  0
 23 25  1  0  0  0  0
 23 29  1  0  0  0  0
 23 24  2  0  0  0  0
 50 51  1  0  0  0  0
 51 59  1  0  0  0  0
 51 52  2  0  0  0  0
  8  9  1  0  0  0  0
  9 17  1  0  0  0  0
  9 10  2  0  0  0  0
 30 31  1  0  0  0  0
 31 39  1  0  0  0  0
 31 32  2  0  0  0  0
 40 41  1  0  0  0  0
 41 49  1  0  0  0  0
 41 42  2  0  0  0  0
 50 53  1  0  0  0  0
 30 33  1  0  0  0  0
 59 60  1  0  0  0  0
 17 18  1  0  0  0  0
  8 11  1  0  0  0  0
 11 12  1  0  0  0  0
 40 43  1  0  0  0  0
 43 44  1  0  0  0  0
 49 50  1  0  0  0  0
  7  8  1  0  0  0  0
 29 30  1  0  0  0  0
 39 40  1  0  0  0  0
 12 44  1  0  0  0  0
  3  4  1  0  0  0  0
  3  5  1  0  0  0  0
  3  6  1  0  0  0  0
 25 26  1  0  0  0  0
 25 27  1  0  0  0  0
 25 28  1  0  0  0  0
 53 56  1  0  0  0  0
 53 57  1  0  0  0  0
 53 58  1  0  0  0  0
 33 36  1  0  0  0  0
 33 37  1  0  0  0  0
 33 38  1  0  0  0  0
 60 62  1  0  0  0  0
 60 63  1  0  0  0  0
 60 64  1  0  0  0  0
 18 20  1  0  0  0  0
 18 21  1  0  0  0  0
 18 22  1  0  0  0  0
 11 15  1  0  0  0  0
 11 16  1  0  0  0  0
 43 47  1  0  0  0  0
 43 48  1  0  0  0  0
 50 55  1  0  0  0  0
  8 14  1  0  0  0  0
 30 35  1  0  0  0  0
 40 46  1  0  0  0  0
 59 61  1  0  0  0  0
 17 19  1  0  0  0  0
  7 13  1  0  0  0  0
 29 34  1  0  0  0  0
 49 54  1  0  0  0  0
 39 45  1  0  0  0  0
M  END
$$$$

  -OEChem-05262214473D

 64 63  0     1  0  0  0  0  0999 V2000
   -0.0727   -5.3673   -5.5388 C   0  0  0  0  0  0  0  0  0  0  0  0
   -1.1990   -5.2729   -6.0124 O   0  0  0  0  0  0  0  0  0  0  0  0
    0.4567   -6.7109   -5.1613 C   0  0  0  0  0  0  0  0  0  0  0  0
    0.2226   -6.9772   -4.1180 H   0  0  0  0  0  0  0  0  0  0  0  0
    0.0247   -7.5199   -5.7722 H   0  0  0  0  0  0  0  0  0  0  0  0
    1.5481   -6.8302   -5.2529 H   0  0  0  0  0  0  0  0  0  0  0  0
    0.8071   -4.3248   -5.3038 N   0  0  0  0  0  0  0  0  0  0  0  0
    0.4987   -2.9480   -5.5969 C   0  0  2  0  0  0  0  0  0  0  0  0
    1.7734   -2.2424   -6.0551 C   0  0  0  0  0  0  0  0  0  0  0  0
    2.8791   -2.7795   -6.0380 O   0  0  0  0  0  0  0  0  0  0  0  0
   -0.1975   -2.2455   -4.4286 C   0  0  0  0  0  0  0  0  0  0  0  0
    0.8248   -2.1349   -2.9236 S   0  0  0  0  0  0  0  0  0  0  0  0
    1.7174   -4.5416   -4.9041 H   0  0  0  0  0  0  0  0  0  0  0  0
   -0.1897   -2.9756   -6.4507 H   0  0  0  0  0  0  0  0  0  0  0  0
   -0.4812   -1.2255   -4.7075 H   0  0  0  0  0  0  0  0  0  0  0  0
   -1.1145   -2.7826   -4.1633 H   0  0  0  0  0  0  0  0  0  0  0  0
    1.5340   -0.9371   -6.4606 N   0  0  0  0  0  0  0  0  0  0  0  0
    2.5853   -0.0571   -6.9144 C   0  0  0  0  0  0  0  0  0  0  0  0
    0.5806   -0.5875   -6.4832 H   0  0  0  0  0  0  0  0  0  0  0  0
    2.9635    0.5314   -6.0655 H   0  0  0  0  0  0  0  0  0  0  0  0
    3.4049   -0.6544   -7.3404 H   0  0  0  0  0  0  0  0  0  0  0  0
    2.1885    0.6220   -7.6834 H   0  0  0  0  0  0  0  0  0  0  0  0
   -6.7256    2.0330   -0.2766 C   0  0  0  0  0  0  0  0  0  0  0  0
   -7.1824    1.1039   -0.9322 O   0  0  0  0  0  0  0  0  0  0  0  0
   -7.5276    2.6077    0.8435 C   0  0  0  0  0  0  0  0  0  0  0  0
   -8.1775    3.4344    0.5145 H   0  0  0  0  0  0  0  0  0  0  0  0
   -8.2057    1.8676    1.2980 H   0  0  0  0  0  0  0  0  0  0  0  0
   -6.9411    3.0162    1.6819 H   0  0  0  0  0  0  0  0  0  0  0  0
   -5.4935    2.6382   -0.4627 N   0  0  0  0  0  0  0  0  0  0  0  0
   -4.5619    2.2388   -1.4845 C   0  0  2  0  0  0  0  0  0  0  0  0
   -3.1535    2.4674   -0.9521 C   0  0  0  0  0  0  0  0  0  0  0  0
   -2.8634    3.3945   -0.1987 O   0  0  0  0  0  0  0  0  0  0  0  0
   -4.7883    3.0138   -2.7732 C   0  0  0  0  0  0  0  0  0  0  0  0
   -5.2337    3.4049    0.1551 H   0  0  0  0  0  0  0  0  0  0  0  0
   -4.7192    1.1682   -1.6549 H   0  0  0  0  0  0  0  0  0  0  0  0
   -4.6352    4.0886   -2.6221 H   0  0  0  0  0  0  0  0  0  0  0  0
   -4.0976    2.6887   -3.5582 H   0  0  0  0  0  0  0  0  0  0  0  0
   -5.8111    2.8719   -3.1387 H   0  0  0  0  0  0  0  0  0  0  0  0
   -2.2466    1.5400   -1.4507 N   0  0  0  0  0  0  0  0  0  0  0  0
   -0.8424    1.5707   -1.1286 C   0  0  2  0  0  0  0  0  0  0  0  0
   -0.3403    3.0087   -1.2421 C   0  0  0  0  0  0  0  0  0  0  0  0
   -1.0601    3.9865   -1.0490 O   0  0  0  0  0  0  0  0  0  0  0  0
   -0.0313    0.5768   -1.9636 C   0  0  0  0  0  0  0  0  0  0  0  0
   -0.4464   -1.1544   -1.6425 S   0  0  0  0  0  0  0  0  0  0  0  0
   -2.5850    0.7815   -2.0381 H   0  0  0  0  0  0  0  0  0  0  0  0
   -0.7758    1.2792   -0.0730 H   0  0  0  0  0  0  0  0  0  0  0  0
   -0.1849    0.7576   -3.0324 H   0  0  0  0  0  0  0  0  0  0  0  0
    1.0373    0.7014   -1.7576 H   0  0  0  0  0  0  0  0  0  0  0  0
    0.9968    3.0704   -1.6081 N   0  0  0  0  0  0  0  0  0  0  0  0
    1.6941    4.3199   -1.8035 C   0  0  2  0  0  0  0  0  0  0  0  0
    2.7391    4.1101   -2.8914 C   0  0  0  0  0  0  0  0  0  0  0  0
    3.3428    3.0506   -3.0462 O   0  0  0  0  0  0  0  0  0  0  0  0
    2.3410    4.8003   -0.5138 C   0  0  0  0  0  0  0  0  0  0  0  0
    1.5287    2.2106   -1.7052 H   0  0  0  0  0  0  0  0  0  0  0  0
    0.9500    5.0471   -2.1465 H   0  0  0  0  0  0  0  0  0  0  0  0
    3.0895    4.0845   -0.1547 H   0  0  0  0  0  0  0  0  0  0  0  0
    2.8450    5.7618   -0.6568 H   0  0  0  0  0  0  0  0  0  0  0  0
    1.5919    4.9220    0.2761 H   0  0  0  0  0  0  0  0  0  0  0  0
    2.9494    5.2587   -3.6415 N   0  0  0  0  0  0  0  0  0  0  0  0
    3.9228    5.3272   -4.7063 C   0  0  0  0  0  0  0  0  0  0  0  0
    2.3759    6.0794   -3.4702 H   0  0  0  0  0  0  0  0  0  0  0  0
    4.8780    5.6992   -4.3072 H   0  0  0  0  0  0  0  0  0  0  0  0
    4.0699    4.3242   -5.1335 H   0  0  0  0  0  0  0  0  0  0  0  0
    3.5619    6.0100   -5.4895 H   0  0  0  0  0  0  0  0  0  0  0  0
  1  3  1  0  0  0  0
  1  7  1  0  0  0  0
  1  2  2  0  0  0  0
 23 25  1  0  0  0  0
 23 29  1  0  0  0  0
 23 24  2  0  0  0  0
 50 51  1  0  0  0  0
 51 59  1  0  0  0  0
 51 52  2  0  0  0  0
  8  9  1  0  0  0  0
  9 17  1  0  0  0  0
  9 10  2  0  0  0  0
 30 31  1  0  0  0  0
 31 39  1  0  0  0  0
 31 32  2  0  0  0  0
 40 41  1  0  0  0  0
 41 49  1  0  0  0  0
 41 42  2  0  0  0  0
 50 53  1  0  0  0  0
 30 33  1  0  0  0  0
 59 60  1  0  0  0  0
 17 18  1  0  0  0  0
  8 11  1  0  0  0  0
 11 12  1  0  0  0  0
 40 43  1  0  0  0  0
 43 44  1  0  0  0  0
 49 50  1  0  0  0  0
  7  8  1  0  0  0  0
 29 30  1  0  0  0  0
 39 40  1  0  0  0  0
 12 44  1  0  0  0  0
  3  4  1  0  0  0  0
  3  5  1  0  0  0  0
  3  6  1  0  0  0  0
 25 26  1  0  0  0  0
 25 27  1  0  0  0  0
 25 28  1  0  0  0  0
 53 56  1  0  0  0  0
 53 57  1  0  0  0  0
 53 58  1  0  0  0  0
 33 36  1  0  0  0  0
 33 37  1  0  0  0  0
 33 38  1  0  0  0  0
 60 62  1  0  0  0  0
 60 63  1  0  0  0  0
 60 64  1  0  0  0  0
 18 20  1  0  0  0  0
 18 21  1  0  0  0  0
 18 22  1  0  0  0  0
 11 15  1  0  0  0  0
 11 16  1  0  0  0  0
 43 47  1  0  0  0  0
 43 48  1  0  0  0  0
 50 55  1  0  0  0  0
  8 14  1  0  0  0  0
 30 35  1  0  0  0  0
 40 46  1  0  0  0  0
 59 61  1  0  0  0  0
 17 19  1  0  0  0  0
  7 13  1  0  0  0  0
 29 34  1  0  0  0  0
 49 54  1  0  0  0  0
 39 45  1  0  0  0  0
M  END
$$$$

  -OEChem-05262214473D

 64 63  0     1  0  0  0  0  0999 V2000
   -0.0727   -5.3673   -5.5388 C   0  0  0  0  0  0  0  0  0  0  0  0
   -1.1990   -5.2729   -6.0124 O   0  0  0  0  0  0  0  0  0  0  0  0
    0.4567   -6.7109   -5.1613 C   0  0  0  0  0  0  0  0  0  0  0  0
    0.2226   -6.9772   -4.1180 H   0  0  0  0  0  0  0  0  0  0  0  0
    0.0247   -7.5199   -5.7722 H   0  0  0  0  0  0  0  0  0  0  0  0
    1.5481   -6.8302   -5.2529 H   0  0  0  0  0  0  0  0  0  0  0  0
    0.8071   -4.3248   -5.3038 N   0  0  0  0  0  0  0  0  0  0  0  0
    0.4987   -2.9480   -5.5969 C   0  0  2  0  0  0  0  0  0  0  0  0
    1.7734   -2.2424   -6.0551 C   0  0  0  0  0  0  0  0  0  0  0  0
    2.8791   -2.7795   -6.0380 O   0  0  0  0  0  0  0  0  0  0  0  0
   -0.1975   -2.2455   -4.4286 C   0  0  0  0  0  0  0  0  0  0  0  0
    0.8248   -2.1349   -2.9236 S   0  0  0  0  0  0  0  0  0  0  0  0
    1.7174   -4.5416   -4.9041 H   0  0  0  0  0  0  0  0  0  0  0  0
   -0.1897   -2.9756   -6.4507 H   0  0  0  0  0  0  0  0  0  0  0  0
   -0.4812   -1.2255   -4.7075 H   0  0  0  0  0  0  0  0  0  0  0  0
   -1.1145   -2.7826   -4.1633 H   0  0  0  0  0  0  0  0  0  0  0  0
    1.5340   -0.9371   -6.4606 N   0  0  0  0  0  0  0  0  0  0  0  0
    2.5853   -0.0571   -6.9144 C   0  0  0  0  0  0  0  0  0  0  0  0
    0.5806   -0.5875   -6.4832 H   0  0  0  0  0  0  0  0  0  0  0  0
    2.9635    0.5314   -6.0655 H   0  0  0  0  0  0  0  0  0  0  0  0
    3.4049   -0.6544   -7.3404 H   0  0  0  0  0  0  0  0  0  0  0  0
    2.1885    0.6220   -7.6834 H   0  0  0  0  0  0  0  0  0  0  0  0
   -6.7256    2.0330   -0.2766 C   0  0  0  0  0  0  0  0  0  0  0  0
   -7.1824    1.1039   -0.9322 O   0  0  0  0  0  0  0  0  0  0  0  0
   -7.5276    2.6077    0.8435 C   0  0  0  0  0  0  0  0  0  0  0  0
   -8.1775    3.4344    0.5145 H   0  0  0  0  0  0  0  0  0  0  0  0
   -8.2057    1.8676    1.2980 H   0  0  0  0  0  0  0  0  0  0  0  0
   -6.9411    3.0162    1.6819 H   0  0  0  0  0  0  0  0  0  0  0  0
   -5.4935    2.6382   -0.4627 N   0  0  0  0  0  0  0  0  0  0  0  0
   -4.5619    2.2388   -1.4845 C   0  0  2  0  0  0  0  0  0  0  0  0
   -3.1535    2.4674   -0.9521 C   0  0  0  0  0  0  0  0  0  0  0  0
   -2.8634    3.3945   -0.1987 O   0  0  0  0  0  0  0  0  0  0  0  0
   -4.7883    3.0138   -2.7732 C   0  0  0  0  0  0  0  0  0  0  0  0
   -5.2337    3.4049    0.1551 H   0  0  0  0  0  0  0  0  0  0  0  0
   -4.7192    1.1682   -1.6549 H   0  0  0  0  0  0  0  0  0  0  0  0
   -4.6352    4.0886   -2.6221 H   0  0  0  0  0  0  0  0  0  0  0  0
   -4.0976    2.6887   -3.5582 H   0  0  0  0  0  0  0  0  0  0  0  0
   -5.8111    2.8719   -3.1387 H   0  0  0  0  0  0  0  0  0  0  0  0
   -2.2466    1.5400   -1.4507 N   0  0  0  0  0  0  0  0  0  0  0  0
   -0.8424    1.5707   -1.1286 C   0  0  2  0  0  0  0  0  0  0  0  0
   -0.3403    3.0087   -1.2421 C   0  0  0  0  0  0  0  0  0  0  0  0
   -0.9622    3.9720   -0.7987 O   0  0  0  0  0  0  0  0  0  0  0  0
   -0.0313    0.5768   -1.9636 C   0  0  0  0  0  0  0  0  0  0  0  0
   -0.4464   -1.1544   -1.6425 S   0  0  0  0  0  0  0  0  0  0  0  0
   -2.5850    0.7815   -2.0381 H   0  0  0  0  0  0  0  0  0  0  0  0
   -0.7758    1.2792   -0.0730 H   0  0  0  0  0  0  0  0  0  0  0  0
   -0.1849    0.7576   -3.0324 H   0  0  0  0  0  0  0  0  0  0  0  0
    1.0373    0.7014   -1.7576 H   0  0  0  0  0  0  0  0  0  0  0  0
    0.8691    3.0905   -1.9175 N   0  0  0  0  0  0  0  0  0  0  0  0
    1.5350    4.3463   -2.1735 C   0  0  2  0  0  0  0  0  0  0  0  0
    2.2778    4.2233   -3.4973 C   0  0  0  0  0  0  0  0  0  0  0  0
    2.7940    3.1762   -3.8822 O   0  0  0  0  0  0  0  0  0  0  0  0
    2.4897    4.7063   -1.0459 C   0  0  0  0  0  0  0  0  0  0  0  0
    1.3357    2.2379   -2.2125 H   0  0  0  0  0  0  0  0  0  0  0  0
    0.7519    5.1070   -2.2628 H   0  0  0  0  0  0  0  0  0  0  0  0
    3.2814    3.9554   -0.9412 H   0  0  0  0  0  0  0  0  0  0  0  0
    2.9723    5.6722   -1.2278 H   0  0  0  0  0  0  0  0  0  0  0  0
    1.9589    4.7650   -0.0896 H   0  0  0  0  0  0  0  0  0  0  0  0
    2.3338    5.4313   -4.1785 N   0  0  0  0  0  0  0  0  0  0  0  0
    3.0211    5.5841   -5.4395 C   0  0  0  0  0  0  0  0  0  0  0  0
    1.8438    6.2388   -3.8049 H   0  0  0  0  0  0  0  0  0  0  0  0
    4.0552    5.9115   -5.2568 H   0  0  0  0  0  0  0  0  0  0  0  0
    3.0301    4.6211   -5.9712 H   0  0  0  0  0  0  0  0  0  0  0  0
    2.5013    6.3360   -6.0515 H   0  0  0  0  0  0  0  0  0  0  0  0
  1  3  1  0  0  0  0
  1  7  1  0  0  0  0
  1  2  2  0  0  0  0
 23 25  1  0  0  0  0
 23 29  1  0  0  0  0
 23 24  2  0  0  0  0
 50 51  1  0  0  0  0
 51 59  1  0  0  0  0
 51 52  2  0  0  0  0
  8  9  1  0  0  0  0
  9 17  1  0  0  0  0
  9 10  2  0  0  0  0
 30 31  1  0  0  0  0
 31 39  1  0  0  0  0
 31 32  2  0  0  0  0
 40 41  1  0  0  0  0
 41 49  1  0  0  0  0
 41 42  2  0  0  0  0
 50 53  1  0  0  0  0
 30 33  1  0  0  0  0
 59 60  1  0  0  0  0
 17 18  1  0  0  0  0
  8 11  1  0  0  0  0
 11 12  1  0  0  0  0
 40 43  1  0  0  0  0
 43 44  1  0  0  0  0
 49 50  1  0  0  0  0
  7  8  1  0  0  0  0
 29 30  1  0  0  0  0
 39 40  1  0  0  0  0
 12 44  1  0  0  0  0
  3  4  1  0  0  0  0
  3  5  1  0  0  0  0
  3  6  1  0  0  0  0
 25 26  1  0  0  0  0
 25 27  1  0  0  0  0
 25 28  1  0  0  0  0
 53 56  1  0  0  0  0
 53 57  1  0  0  0  0
 53 58  1  0  0  0  0
 33 36  1  0  0  0  0
 33 37  1  0  0  0  0
 33 38  1  0  0  0  0
 60 62  1  0  0  0  0
 60 63  1  0  0  0  0
 60 64  1  0  0  0  0
 18 20  1  0  0  0  0
 18 21  1  0  0  0  0
 18 22  1  0  0  0  0
 11 15  1  0  0  0  0
 11 16  1  0  0  0  0
 43 47  1  0  0  0  0
 43 48  1  0  0  0  0
 50 55  1  0  0  0  0
  8 14  1  0  0  0  0
 30 35  1  0  0  0  0
 40 46  1  0  0  0  0
 59 61  1  0  0  0  0
 17 19  1  0  0  0  0
  7 13  1  0  0  0  0
 29 34  1  0  0  0  0
 49 54  1  0  0  0  0
 39 45  1  0  0  0  0
M  END
$$$$

  -OEChem-05262214473D

 64 63  0     1  0  0  0  0  0999 V2000
   -0.0727   -5.3673   -5.5388 C   0  0  0  0  0  0  0  0  0  0  0  0
   -1.1990   -5.2729   -6.0124 O   0  0  0  0  0  0  0  0  0  0  0  0
    0.4567   -6.7109   -5.1613 C   0  0  0  0  0  0  0  0  0  0  0  0
    0.2226   -6.9772   -4.1180 H   0  0  0  0  0  0  0  0  0  0  0  0
    0.0247   -7.5199   -5.7722 H   0  0  0  0  0  0  0  0  0  0  0  0
    1.5481   -6.8302   -5.2529 H   0  0  0  0  0  0  0  0  0  0  0  0
    0.8071   -4.3248   -5.3038 N   0  0  0  0  0  0  0  0  0  0  0  0
    0.4987   -2.9480   -5.5969 C   0  0  2  0  0  0  0  0  0  0  0  0
    1.7734   -2.2424   -6.0551 C   0  0  0  0  0  0  0  0  0  0  0  0
    2.8791   -2.7795   -6.0380 O   0  0  0  0  0  0  0  0  0  0  0  0
   -0.1975   -2.2455   -4.4286 C   0  0  0  0  0  0  0  0  0  0  0  0
    0.8248   -2.1349   -2.9236 S   0  0  0  0  0  0  0  0  0  0  0  0
    1.7174   -4.5416   -4.9041 H   0  0  0  0  0  0  0  0  0  0  0  0
   -0.1897   -2.9756   -6.4507 H   0  0  0  0  0  0  0  0  0  0  0  0
   -0.4812   -1.2255   -4.7075 H   0  0  0  0  0  0  0  0  0  0  0  0
   -1.1145   -2.7826   -4.1633 H   0  0  0  0  0  0  0  0  0  0  0  0
    1.5340   -0.9371   -6.4606 N   0  0  0  0  0  0  0  0  0  0  0  0
    2.5853   -0.0571   -6.9144 C   0  0  0  0  0  0  0  0  0  0  0  0
    0.5806   -0.5875   -6.4832 H   0  0  0  0  0  0  0  0  0  0  0  0
    2.9635    0.5314   -6.0655 H   0  0  0  0  0  0  0  0  0  0  0  0
    3.4049   -0.6544   -7.3404 H   0  0  0  0  0  0  0  0  0  0  0  0
    2.1885    0.6220   -7.6834 H   0  0  0  0  0  0  0  0  0  0  0  0
   -6.7256    2.0330   -0.2766 C   0  0  0  0  0  0  0  0  0  0  0  0
   -7.1824    1.1039   -0.9322 O   0  0  0  0  0  0  0  0  0  0  0  0
   -7.5276    2.6077    0.8435 C   0  0  0  0  0  0  0  0  0  0  0  0
   -8.1775    3.4344    0.5145 H   0  0  0  0  0  0  0  0  0  0  0  0
   -8.2057    1.8676    1.2980 H   0  0  0  0  0  0  0  0  0  0  0  0
   -6.9411    3.0162    1.6819 H   0  0  0  0  0  0  0  0  0  0  0  0
   -5.4935    2.6382   -0.4627 N   0  0  0  0  0  0  0  0  0  0  0  0
   -4.5619    2.2388   -1.4845 C   0  0  2  0  0  0  0  0  0  0  0  0
   -3.1535    2.4674   -0.9521 C   0  0  0  0  0  0  0  0  0  0  0  0
   -2.8634    3.3945   -0.1987 O   0  0  0  0  0  0  0  0  0  0  0  0
   -4.7883    3.0138   -2.7732 C   0  0  0  0  0  0  0  0  0  0  0  0
   -5.2337    3.4049    0.1551 H   0  0  0  0  0  0  0  0  0  0  0  0
   -4.7192    1.1682   -1.6549 H   0  0  0  0  0  0  0  0  0  0  0  0
   -4.6352    4.0886   -2.6221 H   0  0  0  0  0  0  0  0  0  0  0  0
   -4.0976    2.6887   -3.5582 H   0  0  0  0  0  0  0  0  0  0  0  0
   -5.8111    2.8719   -3.1387 H   0  0  0  0  0  0  0  0  0  0  0  0
   -2.2466    1.5400   -1.4507 N   0  0  0  0  0  0  0  0  0  0  0  0
   -0.8424    1.5707   -1.1286 C   0  0  2  0  0  0  0  0  0  0  0  0
   -0.3403    3.0087   -1.2421 C   0  0  0  0  0  0  0  0  0  0  0  0
   -0.8069    3.9349   -0.5820 O   0  0  0  0  0  0  0  0  0  0  0  0
   -0.0313    0.5768   -1.9636 C   0  0  0  0  0  0  0  0  0  0  0  0
   -0.4464   -1.1544   -1.6425 S   0  0  0  0  0  0  0  0  0  0  0  0
   -2.5850    0.7815   -2.0381 H   0  0  0  0  0  0  0  0  0  0  0  0
   -0.7758    1.2792   -0.0730 H   0  0  0  0  0  0  0  0  0  0  0  0
   -0.1849    0.7576   -3.0324 H   0  0  0  0  0  0  0  0  0  0  0  0
    1.0373    0.7014   -1.7576 H   0  0  0  0  0  0  0  0  0  0  0  0
    0.6708    3.1387   -2.1836 N   0  0  0  0  0  0  0  0  0  0  0  0
    1.2917    4.4062   -2.4899 C   0  0  2  0  0  0  0  0  0  0  0  0
    1.6868    4.3931   -3.9606 C   0  0  0  0  0  0  0  0  0  0  0  0
    2.0626    3.3792   -4.5452 O   0  0  0  0  0  0  0  0  0  0  0  0
    2.5020    4.6579   -1.6041 C   0  0  0  0  0  0  0  0  0  0  0  0
    1.0261    2.3112   -2.6532 H   0  0  0  0  0  0  0  0  0  0  0  0
    0.5333    5.1787   -2.3217 H   0  0  0  0  0  0  0  0  0  0  0  0
    3.2726    3.8939   -1.7587 H   0  0  0  0  0  0  0  0  0  0  0  0
    2.9545    5.6318   -1.8180 H   0  0  0  0  0  0  0  0  0  0  0  0
    2.2212    4.6374   -0.5455 H   0  0  0  0  0  0  0  0  0  0  0  0
    1.6116    5.6555   -4.5325 N   0  0  0  0  0  0  0  0  0  0  0  0
    1.9764    5.9120   -5.9062 C   0  0  0  0  0  0  0  0  0  0  0  0
    1.2513    6.4314   -3.9849 H   0  0  0  0  0  0  0  0  0  0  0  0
    3.0332    6.2132   -5.9554 H   0  0  0  0  0  0  0  0  0  0  0  0
    1.8273    4.9992   -6.5016 H   0  0  0  0  0  0  0  0  0  0  0  0
    1.3461    6.7190   -6.3082 H   0  0  0  0  0  0  0  0  0  0  0  0
  1  3  1  0  0  0  0
  1  7  1  0  0  0  0
  1  2  2  0  0  0  0
 23 25  1  0  0  0  0
 23 29  1  0  0  0  0
 23 24  2  0  0  0  0
 50 51  1  0  0  0  0
 51 59  1  0  0  0  0
 51 52  2  0  0  0  0
  8  9  1  0  0  0  0
  9 17  1  0  0  0  0
  9 10  2  0  0  0  0
 30 31  1  0  0  0  0
 31 39  1  0  0  0  0
 31 32  2  0  0  0  0
 40 41  1  0  0  0  0
 41 49  1  0  0  0  0
 41 42  2  0  0  0  0
 50 53  1  0  0  0  0
 30 33  1  0  0  0  0
 59 60  1  0  0  0  0
 17 18  1  0  0  0  0
  8 11  1  0  0  0  0
 11 12  1  0  0  0  0
 40 43  1  0  0  0  0
 43 44  1  0  0  0  0
 49 50  1  0  0  0  0
  7  8  1  0  0  0  0
 29 30  1  0  0  0  0
 39 40  1  0  0  0  0
 12 44  1  0  0  0  0
  3  4  1  0  0  0  0
  3  5  1  0  0  0  0
  3  6  1  0  0  0  0
 25 26  1  0  0  0  0
 25 27  1  0  0  0  0
 25 28  1  0  0  0  0
 53 56  1  0  0  0  0
 53 57  1  0  0  0  0
 53 58  1  0  0  0  0
 33 36  1  0  0  0  0
 33 37  1  0  0  0  0
 33 38  1  0  0  0  0
 60 62  1  0  0  0  0
 60 63  1  0  0  0  0
 60 64  1  0  0  0  0
 18 20  1  0  0  0  0
 18 21  1  0  0  0  0
 18 22  1  0  0  0  0
 11 15  1  0  0  0  0
 11 16  1  0  0  0  0
 43 47  1  0  0  0  0
 43 48  1  0  0  0  0
 50 55  1  0  0  0  0
  8 14  1  0  0  0  0
 30 35  1  0  0  0  0
 40 46  1  0  0  0  0
 59 61  1  0  0  0  0
 17 19  1  0  0  0  0
  7 13  1  0  0  0  0
 29 34  1  0  0  0  0
 49 54  1  0  0  0  0
 39 45  1  0  0  0  0
M  END
$$$$

  -OEChem-05262214473D

 64 63  0     1  0  0  0  0  0999 V2000
   -0.0727   -5.3673   -5.5388 C   0  0  0  0  0  0  0  0  0  0  0  0
   -1.1990   -5.2729   -6.0124 O   0  0  0  0  0  0  0  0  0  0  0  0
    0.4567   -6.7109   -5.1613 C   0  0  0  0  0  0  0  0  0  0  0  0
    0.2226   -6.9772   -4.1180 H   0  0  0  0  0  0  0  0  0  0  0  0
    0.0247   -7.5199   -5.7722 H   0  0  0  0  0  0  0  0  0  0  0  0
    1.5481   -6.8302   -5.2529 H   0  0  0  0  0  0  0  0  0  0  0  0
    0.8071   -4.3248   -5.3038 N   0  0  0  0  0  0  0  0  0  0  0  0
    0.4987   -2.9480   -5.5969 C   0  0  2  0  0  0  0  0  0  0  0  0
    1.7734   -2.2424   -6.0551 C   0  0  0  0  0  0  0  0  0  0  0  0
    2.8791   -2.7795   -6.0380 O   0  0  0  0  0  0  0  0  0  0  0  0
   -0.1975   -2.2455   -4.4286 C   0  0  0  0  0  0  0  0  0  0  0  0
    0.8248   -2.1349   -2.9236 S   0  0  0  0  0  0  0  0  0  0  0  0
    1.7174   -4.5416   -4.9041 H   0  0  0  0  0  0  0  0  0  0  0  0
   -0.1897   -2.9756   -6.4507 H   0  0  0  0  0  0  0  0  0  0  0  0
   -0.4812   -1.2255   -4.7075 H   0  0  0  0  0  0  0  0  0  0  0  0
   -1.1145   -2.7826   -4.1633 H   0  0  0  0  0  0  0  0  0  0  0  0
    1.5340   -0.9371   -6.4606 N   0  0  0  0  0  0  0  0  0  0  0  0
    2.5853   -0.0571   -6.9144 C   0  0  0  0  0  0  0  0  0  0  0  0
    0.5806   -0.5875   -6.4832 H   0  0  0  0  0  0  0  0  0  0  0  0
    2.9635    0.5314   -6.0655 H   0  0  0  0  0  0  0  0  0  0  0  0
    3.4049   -0.6544   -7.3404 H   0  0  0  0  0  0  0  0  0  0  0  0
    2.1885    0.6220   -7.6834 H   0  0  0  0  0  0  0  0  0  0  0  0
   -6.7256    2.0330   -0.2766 C   0  0  0  0  0  0  0  0  0  0  0  0
   -7.1824    1.1039   -0.9322 O   0  0  0  0  0  0  0  0  0  0  0  0
   -7.5276    2.6077    0.8435 C   0  0  0  0  0  0  0  0  0  0  0  0
   -8.1775    3.4344    0.5145 H   0  0  0  0  0  0  0  0  0  0  0  0
   -8.2057    1.8676    1.2980 H   0  0  0  0  0  0  0  0  0  0  0  0
   -6.9411    3.0162    1.6819 H   0  0  0  0  0  0  0  0  0  0  0  0
   -5.4935    2.6382   -0.4627 N   0  0  0  0  0  0  0  0  0  0  0  0
   -4.5619    2.2388   -1.4845 C   0  0  2  0  0  0  0  0  0  0  0  0
   -3.1535    2.4674   -0.9521 C   0  0  0  0  0  0  0  0  0  0  0  0
   -2.8634    3.3945   -0.1987 O   0  0  0  0  0  0  0  0  0  0  0  0
   -4.7883    3.0138   -2.7732 C   0  0  0  0  0  0  0  0  0  0  0  0
   -5.2337    3.4049    0.1551 H   0  0  0  0  0  0  0  0  0  0  0  0
   -4.7192    1.1682   -1.6549 H   0  0  0  0  0  0  0  0  0  0  0  0
   -4.6352    4.0886   -2.6221 H   0  0  0  0  0  0  0  0  0  0  0  0
   -4.0976    2.6887   -3.5582 H   0  0  0  0  0  0  0  0  0  0  0  0
   -5.8111    2.8719   -3.1387 H   0  0  0  0  0  0  0  0  0  0  0  0
   -2.2466    1.5400   -1.4507 N   0  0  0  0  0  0  0  0  0  0  0  0
   -0.8424    1.5707   -1.1286 C   0  0  2  0  0  0  0  0  0  0  0  0
   -0.3403    3.0087   -1.2421 C   0  0  0  0  0  0  0  0  0  0  0  0
   -0.6048    3.8777   -0.4137 O   0  0  0  0  0  0  0  0  0  0  0  0
   -0.0313    0.5768   -1.9636 C   0  0  0  0  0  0  0  0  0  0  0  0
   -0.4464   -1.1544   -1.6425 S   0  0  0  0  0  0  0  0  0  0  0  0
   -2.5850    0.7815   -2.0381 H   0  0  0  0  0  0  0  0  0  0  0  0
   -0.7758    1.2792   -0.0730 H   0  0  0  0  0  0  0  0  0  0  0  0
   -0.1849    0.7576   -3.0324 H   0  0  0  0  0  0  0  0  0  0  0  0
    1.0373    0.7014   -1.7576 H   0  0  0  0  0  0  0  0  0  0  0  0
    0.4153    3.2118   -2.3881 N   0  0  0  0  0  0  0  0  0  0  0  0
    0.9807    4.4958   -2.7310 C   0  0  2  0  0  0  0  0  0  0  0  0
    1.0063    4.6079   -4.2497 C   0  0  0  0  0  0  0  0  0  0  0  0
    1.1985    3.6458   -4.9902 O   0  0  0  0  0  0  0  0  0  0  0  0
    2.3768    4.6585   -2.1504 C   0  0  0  0  0  0  0  0  0  0  0  0
    0.6212    2.4254   -2.9972 H   0  0  0  0  0  0  0  0  0  0  0  0
    0.3093    5.2571   -2.3193 H   0  0  0  0  0  0  0  0  0  0  0  0
    3.0637    3.9043   -2.5513 H   0  0  0  0  0  0  0  0  0  0  0  0
    2.7927    5.6434   -2.3871 H   0  0  0  0  0  0  0  0  0  0  0  0
    2.3611    4.5479   -1.0608 H   0  0  0  0  0  0  0  0  0  0  0  0
    0.8321    5.9161   -4.6794 N   0  0  0  0  0  0  0  0  0  0  0  0
    0.8598    6.2886   -6.0745 C   0  0  0  0  0  0  0  0  0  0  0  0
    0.6389    6.6443   -3.9981 H   0  0  0  0  0  0  0  0  0  0  0  0
    1.8815    6.5838   -6.3555 H   0  0  0  0  0  0  0  0  0  0  0  0
    0.5435    5.4327   -6.6888 H   0  0  0  0  0  0  0  0  0  0  0  0
    0.1752    7.1331   -6.2420 H   0  0  0  0  0  0  0  0  0  0  0  0
  1  3  1  0  0  0  0
  1  7  1  0  0  0  0
  1  2  2  0  0  0  0
 23 25  1  0  0  0  0
 23 29  1  0  0  0  0
 23 24  2  0  0  0  0
 50 51  1  0  0  0  0
 51 59  1  0  0  0  0
 51 52  2  0  0  0  0
  8  9  1  0  0  0  0
  9 17  1  0  0  0  0
  9 10  2  0  0  0  0
 30 31  1  0  0  0  0
 31 39  1  0  0  0  0
 31 32  2  0  0  0  0
 40 41  1  0  0  0  0
 41 49  1  0  0  0  0
 41 42  2  0  0  0  0
 50 53  1  0  0  0  0
 30 33  1  0  0  0  0
 59 60  1  0  0  0  0
 17 18  1  0  0  0  0
  8 11  1  0  0  0  0
 11 12  1  0  0  0  0
 40 43  1  0  0  0  0
 43 44  1  0  0  0  0
 49 50  1  0  0  0  0
  7  8  1  0  0  0  0
 29 30  1  0  0  0  0
 39 40  1  0  0  0  0
 12 44  1  0  0  0  0
  3  4  1  0  0  0  0
  3  5  1  0  0  0  0
  3  6  1  0  0  0  0
 25 26  1  0  0  0  0
 25 27  1  0  0  0  0
 25 28  1  0  0  0  0
 53 56  1  0  0  0  0
 53 57  1  0  0  0  0
 53 58  1  0  0  0  0
 33 36  1  0  0  0  0
 33 37  1  0  0  0  0
 33 38  1  0  0  0  0
 60 62  1  0  0  0  0
 60 63  1  0  0  0  0
 60 64  1  0  0  0  0
 18 20  1  0  0  0  0
 18 21  1  0  0  0  0
 18 22  1  0  0  0  0
 11 15  1  0  0  0  0
 11 16  1  0  0  0  0
 43 47  1  0  0  0  0
 43 48  1  0  0  0  0
 50 55  1  0  0  0  0
  8 14  1  0  0  0  0
 30 35  1  0  0  0  0
 40 46  1  0  0  0  0
 59 61  1  0  0  0  0
 17 19  1  0  0  0  0
  7 13  1  0  0  0  0
 29 34  1  0  0  0  0
 49 54  1  0  0  0  0
 39 45  1  0  0  0  0
M  END
$$$$

  -OEChem-05262214473D

 64 63  0     1  0  0  0  0  0999 V2000
   -0.0727   -5.3673   -5.5388 C   0  0  0  0  0  0  0  0  0  0  0  0
   -1.1990   -5.2729   -6.0124 O   0  0  0  0  0  0  0  0  0  0  0  0
    0.4567   -6.7109   -5.1613 C   0  0  0  0  0  0  0  0  0  0  0  0
    0.2226   -6.9772   -4.1180 H   0  0  0  0  0  0  0  0  0  0  0  0
    0.0247   -7.5199   -5.7722 H   0  0  0  0  0  0  0  0  0  0  0  0
    1.5481   -6.8302   -5.2529 H   0  0  0  0  0  0  0  0  0  0  0  0
    0.8071   -4.3248   -5.3038 N   0  0  0  0  0  0  0  0  0  0  0  0
    0.4987   -2.9480   -5.5969 C   0  0  2  0  0  0  0  0  0  0  0  0
    1.7734   -2.2424   -6.0551 C   0  0  0  0  0  0  0  0  0  0  0  0
    2.8791   -2.7795   -6.0380 O   0  0  0  0  0  0  0  0  0  0  0  0
   -0.1975   -2.2455   -4.4286 C   0  0  0  0  0  0  0  0  0  0  0  0
    0.8248   -2.1349   -2.9236 S   0  0  0  0  0  0  0  0  0  0  0  0
    1.7174   -4.5416   -4.9041 H   0  0  0  0  0  0  0  0  0  0  0  0
   -0.1897   -2.9756   -6.4507 H   0  0  0  0  0  0  0  0  0  0  0  0
   -0.4812   -1.2255   -4.7075 H   0  0  0  0  0  0  0  0  0  0  0  0
   -1.1145   -2.7826   -4.1633 H   0  0  0  0  0  0  0  0  0  0  0  0
    1.5340   -0.9371   -6.4606 N   0  0  0  0  0  0  0  0  0  0  0  0
    2.5853   -0.0571   -6.9144 C   0  0  0  0  0  0  0  0  0  0  0  0
    0.5806   -0.5875   -6.4832 H   0  0  0  0  0  0  0  0  0  0  0  0
    2.9635    0.5314   -6.0655 H   0  0  0  0  0  0  0  0  0  0  0  0
    3.4049   -0.6544   -7.3404 H   0  0  0  0  0  0  0  0  0  0  0  0
    2.1885    0.6220   -7.6834 H   0  0  0  0  0  0  0  0  0  0  0  0
   -6.7256    2.0330   -0.2766 C   0  0  0  0  0  0  0  0  0  0  0  0
   -7.1824    1.1039   -0.9322 O   0  0  0  0  0  0  0  0  0  0  0  0
   -7.5276    2.6077    0.8435 C   0  0  0  0  0  0  0  0  0  0  0  0
   -8.1775    3.4344    0.5145 H   0  0  0  0  0  0  0  0  0  0  0  0
   -8.2057    1.8676    1.2980 H   0  0  0  0  0  0  0  0  0  0  0  0
   -6.9411    3.0162    1.6819 H   0  0  0  0  0  0  0  0  0  0  0  0
   -5.4935    2.6382   -0.4627 N   0  0  0  0  0  0  0  0  0  0  0  0
   -4.5619    2.2388   -1.4845 C   0  0  2  0  0  0  0  0  0  0  0  0
   -3.1535    2.4674   -0.9521 C   0  0  0  0  0  0  0  0  0  0  0  0
   -2.8634    3.3945   -0.1987 O   0  0  0  0  0  0  0  0  0  0  0  0
   -4.7883    3.0138   -2.7732 C   0  0  0  0  0  0  0  0  0  0  0  0
   -5.2337    3.4049    0.1551 H   0  0  0  0  0  0  0  0  0  0  0  0
   -4.7192    1.1682   -1.6549 H   0  0  0  0  0  0  0  0  0  0  0  0
   -4.6352    4.0886   -2.6221 H   0  0  0  0  0  0  0  0  0  0  0  0
   -4.0976    2.6887   -3.5582 H   0  0  0  0  0  0  0  0  0  0  0  0
   -5.8111    2.8719   -3.1387 H   0  0  0  0  0  0  0  0  0  0  0  0
   -2.2466    1.5400   -1.4507 N   0  0  0  0  0  0  0  0  0  0  0  0
   -0.8424    1.5707   -1.1286 C   0  0  2  0  0  0  0  0  0  0  0  0
   -0.3403    3.0087   -1.2421 C   0  0  0  0  0  0  0  0  0  0  0  0
   -0.3697    3.8042   -0.3053 O   0  0  0  0  0  0  0  0  0  0  0  0
   -0.0313    0.5768   -1.9636 C   0  0  0  0  0  0  0  0  0  0  0  0
   -0.4464   -1.1544   -1.6425 S   0  0  0  0  0  0  0  0  0  0  0  0
   -2.5850    0.7815   -2.0381 H   0  0  0  0  0  0  0  0  0  0  0  0
   -0.7758    1.2792   -0.0730 H   0  0  0  0  0  0  0  0  0  0  0  0
   -0.1849    0.7576   -3.0324 H   0  0  0  0  0  0  0  0  0  0  0  0
    1.0373    0.7014   -1.7576 H   0  0  0  0  0  0  0  0  0  0  0  0
    0.1201    3.3047   -2.5173 N   0  0  0  0  0  0  0  0  0  0  0  0
    0.6233    4.6088   -2.8806 C   0  0  2  0  0  0  0  0  0  0  0  0
    0.2826    4.8531   -4.3447 C   0  0  0  0  0  0  0  0  0  0  0  0
    0.2605    3.9578   -5.1867 O   0  0  0  0  0  0  0  0  0  0  0  0
    2.1228    4.7079   -2.6476 C   0  0  0  0  0  0  0  0  0  0  0  0
    0.1484    2.5728   -3.2210 H   0  0  0  0  0  0  0  0  0  0  0  0
    0.0949    5.3370   -2.2556 H   0  0  0  0  0  0  0  0  0  0  0  0
    2.6690    3.9857   -3.2652 H   0  0  0  0  0  0  0  0  0  0  0  0
    2.4979    5.7061   -2.8965 H   0  0  0  0  0  0  0  0  0  0  0  0
    2.3689    4.5026   -1.6001 H   0  0  0  0  0  0  0  0  0  0  0  0
    0.0484    6.1953   -4.6091 N   0  0  0  0  0  0  0  0  0  0  0  0
   -0.2524    6.6882   -5.9329 C   0  0  0  0  0  0  0  0  0  0  0  0
    0.0481    6.8627   -3.8434 H   0  0  0  0  0  0  0  0  0  0  0  0
    0.6788    6.9979   -6.4299 H   0  0  0  0  0  0  0  0  0  0  0  0
   -0.7339    5.8921   -6.5198 H   0  0  0  0  0  0  0  0  0  0  0  0
   -0.9318    7.5500   -5.8575 H   0  0  0  0  0  0  0  0  0  0  0  0
  1  3  1  0  0  0  0
  1  7  1  0  0  0  0
  1  2  2  0  0  0  0
 23 25  1  0  0  0  0
 23 29  1  0  0  0  0
 23 24  2  0  0  0  0
 50 51  1  0  0  0  0
 51 59  1  0  0  0  0
 51 52  2  0  0  0  0
  8  9  1  0  0  0  0
  9 17  1  0  0  0  0
  9 10  2  0  0  0  0
 30 31  1  0  0  0  0
 31 39  1  0  0  0  0
 31 32  2  0  0  0  0
 40 41  1  0  0  0  0
 41 49  1  0  0  0  0
 41 42  2  0  0  0  0
 50 53  1  0  0  0  0
 30 33  1  0  0  0  0
 59 60  1  0  0  0  0
 17 18  1  0  0  0  0
  8 11  1  0  0  0  0
 11 12  1  0  0  0  0
 40 43  1  0  0  0  0
 43 44  1  0  0  0  0
 49 50  1  0  0  0  0
  7  8  1  0  0  0  0
 29 30  1  0  0  0  0
 39 40  1  0  0  0  0
 12 44  1  0  0  0  0
  3  4  1  0  0  0  0
  3  5  1  0  0  0  0
  3  6  1  0  0  0  0
 25 26  1  0  0  0  0
 25 27  1  0  0  0  0
 25 28  1  0  0  0  0
 53 56  1  0  0  0  0
 53 57  1  0  0  0  0
 53 58  1  0  0  0  0
 33 36  1  0  0  0  0
 33 37  1  0  0  0  0
 33 38  1  0  0  0  0
 60 62  1  0  0  0  0
 60 63  1  0  0  0  0
 60 64  1  0  0  0  0
 18 20  1  0  0  0  0
 18 21  1  0  0  0  0
 18 22  1  0  0  0  0
 11 15  1  0  0  0  0
 11 16  1  0  0  0  0
 43 47  1  0  0  0  0
 43 48  1  0  0  0  0
 50 55  1  0  0  0  0
  8 14  1  0  0  0  0
 30 35  1  0  0  0  0
 40 46  1  0  0  0  0
 59 61  1  0  0  0  0
 17 19  1  0  0  0  0
  7 13  1  0  0  0  0
 29 34  1  0  0  0  0
 49 54  1  0  0  0  0
 39 45  1  0  0  0  0
M  END
$$$$

  -OEChem-05262214473D

 64 63  0     1  0  0  0  0  0999 V2000
   -0.0727   -5.3673   -5.5388 C   0  0  0  0  0  0  0  0  0  0  0  0
   -1.1990   -5.2729   -6.0124 O   0  0  0  0  0  0  0  0  0  0  0  0
    0.4567   -6.7109   -5.1613 C   0  0  0  0  0  0  0  0  0  0  0  0
    0.2226   -6.9772   -4.1180 H   0  0  0  0  0  0  0  0  0  0  0  0
    0.0247   -7.5199   -5.7722 H   0  0  0  0  0  0  0  0  0  0  0  0
    1.5481   -6.8302   -5.2529 H   0  0  0  0  0  0  0  0  0  0  0  0
    0.8071   -4.3248   -5.3038 N   0  0  0  0  0  0  0  0  0  0  0  0
    0.4987   -2.9480   -5.5969 C   0  0  2  0  0  0  0  0  0  0  0  0
    1.7734   -2.2424   -6.0551 C   0  0  0  0  0  0  0  0  0  0  0  0
    2.8791   -2.7795   -6.0380 O   0  0  0  0  0  0  0  0  0  0  0  0
   -0.1975   -2.2455   -4.4286 C   0  0  0  0  0  0  0  0  0  0  0  0
    0.8248   -2.1349   -2.9236 S   0  0  0  0  0  0  0  0  0  0  0  0
    1.7174   -4.5416   -4.9041 H   0  0  0  0  0  0  0  0  0  0  0  0
   -0.1897   -2.9756   -6.4507 H   0  0  0  0  0  0  0  0  0  0  0  0
   -0.4812   -1.2255   -4.7075 H   0  0  0  0  0  0  0  0  0  0  0  0
   -1.1145   -2.7826   -4.1633 H   0  0  0  0  0  0  0  0  0  0  0  0
    1.5340   -0.9371   -6.4606 N   0  0  0  0  0  0  0  0  0  0  0  0
    2.5853   -0.0571   -6.9144 C   0  0  0  0  0  0  0  0  0  0  0  0
    0.5806   -0.5875   -6.4832 H   0  0  0  0  0  0  0  0  0  0  0  0
    2.9635    0.5314   -6.0655 H   0  0  0  0  0  0  0  0  0  0  0  0
    3.4049   -0.6544   -7.3404 H   0  0  0  0  0  0  0  0  0  0  0  0
    2.1885    0.6220   -7.6834 H   0  0  0  0  0  0  0  0  0  0  0  0
   -6.7256    2.0330   -0.2766 C   0  0  0  0  0  0  0  0  0  0  0  0
   -7.1824    1.1039   -0.9322 O   0  0  0  0  0  0  0  0  0  0  0  0
   -7.5276    2.6077    0.8435 C   0  0  0  0  0  0  0  0  0  0  0  0
   -8.1775    3.4344    0.5145 H   0  0  0  0  0  0  0  0  0  0  0  0
   -8.2057    1.8676    1.2980 H   0  0  0  0  0  0  0  0  0  0  0  0
   -6.9411    3.0162    1.6819 H   0  0  0  0  0  0  0  0  0  0  0  0
   -5.4935    2.6382   -0.4627 N   0  0  0  0  0  0  0  0  0  0  0  0
   -4.5619    2.2388   -1.4845 C   0  0  2  0  0  0  0  0  0  0  0  0
   -3.1535    2.4674   -0.9521 C   0  0  0  0  0  0  0  0  0  0  0  0
   -2.8634    3.3945   -0.1987 O   0  0  0  0  0  0  0  0  0  0  0  0
   -4.7883    3.0138   -2.7732 C   0  0  0  0  0  0  0  0  0  0  0  0
   -5.2337    3.4049    0.1551 H   0  0  0  0  0  0  0  0  0  0  0  0
   -4.7192    1.1682   -1.6549 H   0  0  0  0  0  0  0  0  0  0  0  0
   -4.6352    4.0886   -2.6221 H   0  0  0  0  0  0  0  0  0  0  0  0
   -4.0976    2.6887   -3.5582 H   0  0  0  0  0  0  0  0  0  0  0  0
   -5.8111    2.8719   -3.1387 H   0  0  0  0  0  0  0  0  0  0  0  0
   -2.2466    1.5400   -1.4507 N   0  0  0  0  0  0  0  0  0  0  0  0
   -0.8424    1.5707   -1.1286 C   0  0  2  0  0  0  0  0  0  0  0  0
   -0.3403    3.0087   -1.2421 C   0  0  0  0  0  0  0  0  0  0  0  0
   -0.1176    3.7194   -0.2640 O   0  0  0  0  0  0  0  0  0  0  0  0
   -0.0313    0.5768   -1.9636 C   0  0  0  0  0  0  0  0  0  0  0  0
   -0.4464   -1.1544   -1.6425 S   0  0  0  0  0  0  0  0  0  0  0  0
   -2.5850    0.7815   -2.0381 H   0  0  0  0  0  0  0  0  0  0  0  0
   -0.7758    1.2792   -0.0730 H   0  0  0  0  0  0  0  0  0  0  0  0
   -0.1849    0.7576   -3.0324 H   0  0  0  0  0  0  0  0  0  0  0  0
    1.0373    0.7014   -1.7576 H   0  0  0  0  0  0  0  0  0  0  0  0
   -0.1947    3.4111   -2.5621 N   0  0  0  0  0  0  0  0  0  0  0  0
    0.2438    4.7375   -2.9284 C   0  0  2  0  0  0  0  0  0  0  0  0
   -0.4348    5.1119   -4.2394 C   0  0  0  0  0  0  0  0  0  0  0  0
   -0.6874    4.2939   -5.1215 O   0  0  0  0  0  0  0  0  0  0  0  0
    1.7573    4.8028   -3.0617 C   0  0  0  0  0  0  0  0  0  0  0  0
   -0.3600    2.7434   -3.3095 H   0  0  0  0  0  0  0  0  0  0  0  0
   -0.0950    5.4128   -2.1352 H   0  0  0  0  0  0  0  0  0  0  0  0
    2.1154    4.1327   -3.8517 H   0  0  0  0  0  0  0  0  0  0  0  0
    2.0902    5.8157   -3.3113 H   0  0  0  0  0  0  0  0  0  0  0  0
    2.2441    4.5045   -2.1269 H   0  0  0  0  0  0  0  0  0  0  0  0
   -0.6861    6.4741   -4.3265 N   0  0  0  0  0  0  0  0  0  0  0  0
   -1.2846    7.0835   -5.4912 C   0  0  0  0  0  0  0  0  0  0  0  0
   -0.4806    7.0720   -3.5316 H   0  0  0  0  0  0  0  0  0  0  0  0
   -0.4932    7.4273   -6.1733 H   0  0  0  0  0  0  0  0  0  0  0  0
   -1.9177    6.3460   -6.0063 H   0  0  0  0  0  0  0  0  0  0  0  0
   -1.8993    7.9413   -5.1809 H   0  0  0  0  0  0  0  0  0  0  0  0
  1  3  1  0  0  0  0
  1  7  1  0  0  0  0
  1  2  2  0  0  0  0
 23 25  1  0  0  0  0
 23 29  1  0  0  0  0
 23 24  2  0  0  0  0
 50 51  1  0  0  0  0
 51 59  1  0  0  0  0
 51 52  2  0  0  0  0
  8  9  1  0  0  0  0
  9 17  1  0  0  0  0
  9 10  2  0  0  0  0
 30 31  1  0  0  0  0
 31 39  1  0  0  0  0
 31 32  2  0  0  0  0
 40 41  1  0  0  0  0
 41 49  1  0  0  0  0
 41 42  2  0  0  0  0
 50 53  1  0  0  0  0
 30 33  1  0  0  0  0
 59 60  1  0  0  0  0
 17 18  1  0  0  0  0
  8 11  1  0  0  0  0
 11 12  1  0  0  0  0
 40 43  1  0  0  0  0
 43 44  1  0  0  0  0
 49 50  1  0  0  0  0
  7  8  1  0  0  0  0
 29 30  1  0  0  0  0
 39 40  1  0  0  0  0
 12 44  1  0  0  0  0
  3  4  1  0  0  0  0
  3  5  1  0  0  0  0
  3  6  1  0  0  0  0
 25 26  1  0  0  0  0
 25 27  1  0  0  0  0
 25 28  1  0  0  0  0
 53 56  1  0  0  0  0
 53 57  1  0  0  0  0
 53 58  1  0  0  0  0
 33 36  1  0  0  0  0
 33 37  1  0  0  0  0
 33 38  1  0  0  0  0
 60 62  1  0  0  0  0
 60 63  1  0  0  0  0
 60 64  1  0  0  0  0
 18 20  1  0  0  0  0
 18 21  1  0  0  0  0
 18 22  1  0  0  0  0
 11 15  1  0  0  0  0
 11 16  1  0  0  0  0
 43 47  1  0  0  0  0
 43 48  1  0  0  0  0
 50 55  1  0  0  0  0
  8 14  1  0  0  0  0
 30 35  1  0  0  0  0
 40 46  1  0  0  0  0
 59 61  1  0  0  0  0
 17 19  1  0  0  0  0
  7 13  1  0  0  0  0
 29 34  1  0  0  0  0
 49 54  1  0  0  0  0
 39 45  1  0  0  0  0
M  END
$$$$

  -OEChem-05262214473D

 64 63  0     1  0  0  0  0  0999 V2000
   -0.0727   -5.3673   -5.5388 C   0  0  0  0  0  0  0  0  0  0  0  0
   -1.1990   -5.2729   -6.0124 O   0  0  0  0  0  0  0  0  0  0  0  0
    0.4567   -6.7109   -5.1613 C   0  0  0  0  0  0  0  0  0  0  0  0
    0.2226   -6.9772   -4.1180 H   0  0  0  0  0  0  0  0  0  0  0  0
    0.0247   -7.5199   -5.7722 H   0  0  0  0  0  0  0  0  0  0  0  0
    1.5481   -6.8302   -5.2529 H   0  0  0  0  0  0  0  0  0  0  0  0
    0.8071   -4.3248   -5.3038 N   0  0  0  0  0  0  0  0  0  0  0  0
    0.4987   -2.9480   -5.5969 C   0  0  2  0  0  0  0  0  0  0  0  0
    1.7734   -2.2424   -6.0551 C   0  0  0  0  0  0  0  0  0  0  0  0
    2.8791   -2.7795   -6.0380 O   0  0  0  0  0  0  0  0  0  0  0  0
   -0.1975   -2.2455   -4.4286 C   0  0  0  0  0  0  0  0  0  0  0  0
    0.8248   -2.1349   -2.9236 S   0  0  0  0  0  0  0  0  0  0  0  0
    1.7174   -4.5416   -4.9041 H   0  0  0  0  0  0  0  0  0  0  0  0
   -0.1897   -2.9756   -6.4507 H   0  0  0  0  0  0  0  0  0  0  0  0
   -0.4812   -1.2255   -4.7075 H   0  0  0  0  0  0  0  0  0  0  0  0
   -1.1145   -2.7826   -4.1633 H   0  0  0  0  0  0  0  0  0  0  0  0
    1.5340   -0.9371   -6.4606 N   0  0  0  0  0  0  0  0  0  0  0  0
    2.5853   -0.0571   -6.9144 C   0  0  0  0  0  0  0  0  0  0  0  0
    0.5806   -0.5875   -6.4832 H   0  0  0  0  0  0  0  0  0  0  0  0
    2.9635    0.5314   -6.0655 H   0  0  0  0  0  0  0  0  0  0  0  0
    3.4049   -0.6544   -7.3404 H   0  0  0  0  0  0  0  0  0  0  0  0
    2.1885    0.6220   -7.6834 H   0  0  0  0  0  0  0  0  0  0  0  0
   -6.7256    2.0330   -0.2766 C   0  0  0  0  0  0  0  0  0  0  0  0
   -7.1824    1.1039   -0.9322 O   0  0  0  0  0  0  0  0  0  0  0  0
   -7.5276    2.6077    0.8435 C   0  0  0  0  0  0  0  0  0  0  0  0
   -8.1775    3.4344    0.5145 H   0  0  0  0  0  0  0  0  0  0  0  0
   -8.2057    1.8676    1.2980 H   0  0  0  0  0  0  0  0  0  0  0  0
   -6.9411    3.0162    1.6819 H   0  0  0  0  0  0  0  0  0  0  0  0
   -5.4935    2.6382   -0.4627 N   0  0  0  0  0  0  0  0  0  0  0  0
   -4.5619    2.2388   -1.4845 C   0  0  2  0  0  0  0  0  0  0  0  0
   -3.1535    2.4674   -0.9521 C   0  0  0  0  0  0  0  0  0  0  0  0
   -2.8634    3.3945   -0.1987 O   0  0  0  0  0  0  0  0  0  0  0  0
   -4.7883    3.0138   -2.7732 C   0  0  0  0  0  0  0  0  0  0  0  0
   -5.2337    3.4049    0.1551 H   0  0  0  0  0  0  0  0  0  0  0  0
   -4.7192    1.1682   -1.6549 H   0  0  0  0  0  0  0  0  0  0  0  0
   -4.6352    4.0886   -2.6221 H   0  0  0  0  0  0  0  0  0  0  0  0
   -4.0976    2.6887   -3.5582 H   0  0  0  0  0  0  0  0  0  0  0  0
   -5.8111    2.8719   -3.1387 H   0  0  0  0  0  0  0  0  0  0  0  0
   -2.2466    1.5400   -1.4507 N   0  0  0  0  0  0  0  0  0  0  0  0
   -0.8424    1.5707   -1.1286 C   0  0  2  0  0  0  0  0  0  0  0  0
   -0.3403    3.0087   -1.2421 C   0  0  0  0  0  0  0  0  0  0  0  0
    0.1343    3.6291   -0.2929 O   0  0  0  0  0  0  0  0  0  0  0  0
   -0.0313    0.5768   -1.9636 C   0  0  0  0  0  0  0  0  0  0  0  0
   -0.4464   -1.1544   -1.6425 S   0  0  0  0  0  0  0  0  0  0  0  0
   -2.5850    0.7815   -2.0381 H   0  0  0  0  0  0  0  0  0  0  0  0
   -0.7758    1.2792   -0.0730 H   0  0  0  0  0  0  0  0  0  0  0  0
   -0.1849    0.7576   -3.0324 H   0  0  0  0  0  0  0  0  0  0  0  0
    1.0373    0.7014   -1.7576 H   0  0  0  0  0  0  0  0  0  0  0  0
   -0.5077    3.5237   -2.5197 N   0  0  0  0  0  0  0  0  0  0  0  0
   -0.1320    4.8732   -2.8711 C   0  0  2  0  0  0  0  0  0  0  0  0
   -1.0971    5.3668   -3.9408 C   0  0  0  0  0  0  0  0  0  0  0  0
   -1.5806    4.6313   -4.7989 O   0  0  0  0  0  0  0  0  0  0  0  0
    1.3051    4.9368   -3.3645 C   0  0  0  0  0  0  0  0  0  0  0  0
   -0.8694    2.9254   -3.2566 H   0  0  0  0  0  0  0  0  0  0  0  0
   -0.2477    5.4795   -1.9661 H   0  0  0  0  0  0  0  0  0  0  0  0
    1.4405    4.3353   -4.2707 H   0  0  0  0  0  0  0  0  0  0  0  0
    1.5975    5.9647   -3.6034 H   0  0  0  0  0  0  0  0  0  0  0  0
    1.9953    4.5537   -2.6051 H   0  0  0  0  0  0  0  0  0  0  0  0
   -1.3214    6.7335   -3.8509 N   0  0  0  0  0  0  0  0  0  0  0  0
   -2.1664    7.4476   -4.7793 C   0  0  0  0  0  0  0  0  0  0  0  0
   -0.9112    7.2577   -3.0836 H   0  0  0  0  0  0  0  0  0  0  0  0
   -1.5544    7.8429   -5.6034 H   0  0  0  0  0  0  0  0  0  0  0  0
   -2.9272    6.7635   -5.1832 H   0  0  0  0  0  0  0  0  0  0  0  0
   -2.6615    8.2803   -4.2583 H   0  0  0  0  0  0  0  0  0  0  0  0
  1  3  1  0  0  0  0
  1  7  1  0  0  0  0
  1  2  2  0  0  0  0
 23 25  1  0  0  0  0
 23 29  1  0  0  0  0
 23 24  2  0  0  0  0
 50 51  1  0  0  0  0
 51 59  1  0  0  0  0
 51 52  2  0  0  0  0
  8  9  1  0  0  0  0
  9 17  1  0  0  0  0
  9 10  2  0  0  0  0
 30 31  1  0  0  0  0
 31 39  1  0  0  0  0
 31 32  2  0  0  0  0
 40 41  1  0  0  0  0
 41 49  1  0  0  0  0
 41 42  2  0  0  0  0
 50 53  1  0  0  0  0
 30 33  1  0  0  0  0
 59 60  1  0  0  0  0
 17 18  1  0  0  0  0
  8 11  1  0  0  0  0
 11 12  1  0  0  0  0
 40 43  1  0  0  0  0
 43 44  1  0  0  0  0
 49 50  1  0  0  0  0
  7  8  1  0  0  0  0
 29 30  1  0  0  0  0
 39 40  1  0  0  0  0
 12 44  1  0  0  0  0
  3  4  1  0  0  0  0
  3  5  1  0  0  0  0
  3  6  1  0  0  0  0
 25 26  1  0  0  0  0
 25 27  1  0  0  0  0
 25 28  1  0  0  0  0
 53 56  1  0  0  0  0
 53 57  1  0  0  0  0
 53 58  1  0  0  0  0
 33 36  1  0  0  0  0
 33 37  1  0  0  0  0
 33 38  1  0  0  0  0
 60 62  1  0  0  0  0
 60 63  1  0  0  0  0
 60 64  1  0  0  0  0
 18 20  1  0  0  0  0
 18 21  1  0  0  0  0
 18 22  1  0  0  0  0
 11 15  1  0  0  0  0
 11 16  1  0  0  0  0
 43 47  1  0  0  0  0
 43 48  1  0  0  0  0
 50 55  1  0  0  0  0
  8 14  1  0  0  0  0
 30 35  1  0  0  0  0
 40 46  1  0  0  0  0
 59 61  1  0  0  0  0
 17 19  1  0  0  0  0
  7 13  1  0  0  0  0
 29 34  1  0  0  0  0
 49 54  1  0  0  0  0
 39 45  1  0  0  0  0
M  END
$$$$

  -OEChem-05262214473D

 64 63  0     1  0  0  0  0  0999 V2000
   -0.0727   -5.3673   -5.5388 C   0  0  0  0  0  0  0  0  0  0  0  0
   -1.1990   -5.2729   -6.0124 O   0  0  0  0  0  0  0  0  0  0  0  0
    0.4567   -6.7109   -5.1613 C   0  0  0  0  0  0  0  0  0  0  0  0
    0.2226   -6.9772   -4.1180 H   0  0  0  0  0  0  0  0  0  0  0  0
    0.0247   -7.5199   -5.7722 H   0  0  0  0  0  0  0  0  0  0  0  0
    1.5481   -6.8302   -5.2529 H   0  0  0  0  0  0  0  0  0  0  0  0
    0.8071   -4.3248   -5.3038 N   0  0  0  0  0  0  0  0  0  0  0  0
    0.4987   -2.9480   -5.5969 C   0  0  2  0  0  0  0  0  0  0  0  0
    1.7734   -2.2424   -6.0551 C   0  0  0  0  0  0  0  0  0  0  0  0
    2.8791   -2.7795   -6.0380 O   0  0  0  0  0  0  0  0  0  0  0  0
   -0.1975   -2.2455   -4.4286 C   0  0  0  0  0  0  0  0  0  0  0  0
    0.8248   -2.1349   -2.9236 S   0  0  0  0  0  0  0  0  0  0  0  0
    1.7174   -4.5416   -4.9041 H   0  0  0  0  0  0  0  0  0  0  0  0
   -0.1897   -2.9756   -6.4507 H   0  0  0  0  0  0  0  0  0  0  0  0
   -0.4812   -1.2255   -4.7075 H   0  0  0  0  0  0  0  0  0  0  0  0
   -1.1145   -2.7826   -4.1633 H   0  0  0  0  0  0  0  0  0  0  0  0
    1.5340   -0.9371   -6.4606 N   0  0  0  0  0  0  0  0  0  0  0  0
    2.5853   -0.0571   -6.9144 C   0  0  0  0  0  0  0  0  0  0  0  0
    0.5806   -0.5875   -6.4832 H   0  0  0  0  0  0  0  0  0  0  0  0
    2.9635    0.5314   -6.0655 H   0  0  0  0  0  0  0  0  0  0  0  0
    3.4049   -0.6544   -7.3404 H   0  0  0  0  0  0  0  0  0  0  0  0
    2.1885    0.6220   -7.6834 H   0  0  0  0  0  0  0  0  0  0  0  0
   -6.7256    2.0330   -0.2766 C   0  0  0  0  0  0  0  0  0  0  0  0
   -7.1824    1.1039   -0.9322 O   0  0  0  0  0  0  0  0  0  0  0  0
   -7.5276    2.6077    0.8435 C   0  0  0  0  0  0  0  0  0  0  0  0
   -8.1775    3.4344    0.5145 H   0  0  0  0  0  0  0  0  0  0  0  0
   -8.2057    1.8676    1.2980 H   0  0  0  0  0  0  0  0  0  0  0  0
   -6.9411    3.0162    1.6819 H   0  0  0  0  0  0  0  0  0  0  0  0
   -5.4935    2.6382   -0.4627 N   0  0  0  0  0  0  0  0  0  0  0  0
   -4.5619    2.2388   -1.4845 C   0  0  2  0  0  0  0  0  0  0  0  0
   -3.1535    2.4674   -0.9521 C   0  0  0  0  0  0  0  0  0  0  0  0
   -2.8634    3.3945   -0.1987 O   0  0  0  0  0  0  0  0  0  0  0  0
   -4.7883    3.0138   -2.7732 C   0  0  0  0  0  0  0  0  0  0  0  0
   -5.2337    3.4049    0.1551 H   0  0  0  0  0  0  0  0  0  0  0  0
   -4.7192    1.1682   -1.6549 H   0  0  0  0  0  0  0  0  0  0  0  0
   -4.6352    4.0886   -2.6221 H   0  0  0  0  0  0  0  0  0  0  0  0
   -4.0976    2.6887   -3.5582 H   0  0  0  0  0  0  0  0  0  0  0  0
   -5.8111    2.8719   -3.1387 H   0  0  0  0  0  0  0  0  0  0  0  0
   -2.2466    1.5400   -1.4507 N   0  0  0  0  0  0  0  0  0  0  0  0
   -0.8424    1.5707   -1.1286 C   0  0  2  0  0  0  0  0  0  0  0  0
   -0.3403    3.0087   -1.2421 C   0  0  0  0  0  0  0  0  0  0  0  0
    0.3689    3.5396   -0.3898 O   0  0  0  0  0  0  0  0  0  0  0  0
   -0.0313    0.5768   -1.9636 C   0  0  0  0  0  0  0  0  0  0  0  0
   -0.4464   -1.1544   -1.6425 S   0  0  0  0  0  0  0  0  0  0  0  0
   -2.5850    0.7815   -2.0381 H   0  0  0  0  0  0  0  0  0  0  0  0
   -0.7758    1.2792   -0.0730 H   0  0  0  0  0  0  0  0  0  0  0  0
   -0.1849    0.7576   -3.0324 H   0  0  0  0  0  0  0  0  0  0  0  0
    1.0373    0.7014   -1.7576 H   0  0  0  0  0  0  0  0  0  0  0  0
   -0.7975    3.6349   -2.3929 N   0  0  0  0  0  0  0  0  0  0  0  0
   -0.4783    5.0067   -2.7126 C   0  0  2  0  0  0  0  0  0  0  0  0
   -1.6592    5.6003   -3.4693 C   0  0  0  0  0  0  0  0  0  0  0  0
   -2.3583    4.9469   -4.2409 O   0  0  0  0  0  0  0  0  0  0  0  0
    0.7972    5.1007   -3.5354 C   0  0  0  0  0  0  0  0  0  0  0  0
   -1.3450    3.1065   -3.0658 H   0  0  0  0  0  0  0  0  0  0  0  0
   -0.3527    5.5325   -1.7598 H   0  0  0  0  0  0  0  0  0  0  0  0
    0.6905    4.5795   -4.4938 H   0  0  0  0  0  0  0  0  0  0  0  0
    1.0533    6.1429   -3.7527 H   0  0  0  0  0  0  0  0  0  0  0  0
    1.6393    4.6466   -3.0022 H   0  0  0  0  0  0  0  0  0  0  0  0
   -1.8141    6.9558   -3.2146 N   0  0  0  0  0  0  0  0  0  0  0  0
   -2.8376    7.7557   -3.8459 C   0  0  0  0  0  0  0  0  0  0  0  0
   -1.2145    7.4073   -2.5303 H   0  0  0  0  0  0  0  0  0  0  0  0
   -2.4326    8.2162   -4.7590 H   0  0  0  0  0  0  0  0  0  0  0  0
   -3.6938    7.1162   -4.1066 H   0  0  0  0  0  0  0  0  0  0  0  0
   -3.1664    8.5439   -3.1526 H   0  0  0  0  0  0  0  0  0  0  0  0
  1  3  1  0  0  0  0
  1  7  1  0  0  0  0
  1  2  2  0  0  0  0
 23 25  1  0  0  0  0
 23 29  1  0  0  0  0
 23 24  2  0  0  0  0
 50 51  1  0  0  0  0
 51 59  1  0  0  0  0
 51 52  2  0  0  0  0
  8  9  1  0  0  0  0
  9 17  1  0  0  0  0
  9 10  2  0  0  0  0
 30 31  1  0  0  0  0
 31 39  1  0  0  0  0
 31 32  2  0  0  0  0
 40 41  1  0  0  0  0
 41 49  1  0  0  0  0
 41 42  2  0  0  0  0
 50 53  1  0  0  0  0
 30 33  1  0  0  0  0
 59 60  1  0  0  0  0
 17 18  1  0  0  0  0
  8 11  1  0  0  0  0
 11 12  1  0  0  0  0
 40 43  1  0  0  0  0
 43 44  1  0  0  0  0
 49 50  1  0  0  0  0
  7  8  1  0  0  0  0
 29 30  1  0  0  0  0
 39 40  1  0  0  0  0
 12 44  1  0  0  0  0
  3  4  1  0  0  0  0
  3  5  1  0  0  0  0
  3  6  1  0  0  0  0
 25 26  1  0  0  0  0
 25 27  1  0  0  0  0
 25 28  1  0  0  0  0
 53 56  1  0  0  0  0
 53 57  1  0  0  0  0
 53 58  1  0  0  0  0
 33 36  1  0  0  0  0
 33 37  1  0  0  0  0
 33 38  1  0  0  0  0
 60 62  1  0  0  0  0
 60 63  1  0  0  0  0
 60 64  1  0  0  0  0
 18 20  1  0  0  0  0
 18 21  1  0  0  0  0
 18 22  1  0  0  0  0
 11 15  1  0  0  0  0
 11 16  1  0  0  0  0
 43 47  1  0  0  0  0
 43 48  1  0  0  0  0
 50 55  1  0  0  0  0
  8 14  1  0  0  0  0
 30 35  1  0  0  0  0
 40 46  1  0  0  0  0
 59 61  1  0  0  0  0
 17 19  1  0  0  0  0
  7 13  1  0  0  0  0
 29 34  1  0  0  0  0
 49 54  1  0  0  0  0
 39 45  1  0  0  0  0
M  END
$$$$

  -OEChem-05262214473D

 64 63  0     1  0  0  0  0  0999 V2000
   -0.0727   -5.3673   -5.5388 C   0  0  0  0  0  0  0  0  0  0  0  0
   -1.1990   -5.2729   -6.0124 O   0  0  0  0  0  0  0  0  0  0  0  0
    0.4567   -6.7109   -5.1613 C   0  0  0  0  0  0  0  0  0  0  0  0
    0.2226   -6.9772   -4.1180 H   0  0  0  0  0  0  0  0  0  0  0  0
    0.0247   -7.5199   -5.7722 H   0  0  0  0  0  0  0  0  0  0  0  0
    1.5481   -6.8302   -5.2529 H   0  0  0  0  0  0  0  0  0  0  0  0
    0.8071   -4.3248   -5.3038 N   0  0  0  0  0  0  0  0  0  0  0  0
    0.4987   -2.9480   -5.5969 C   0  0  2  0  0  0  0  0  0  0  0  0
    1.7734   -2.2424   -6.0551 C   0  0  0  0  0  0  0  0  0  0  0  0
    2.8791   -2.7795   -6.0380 O   0  0  0  0  0  0  0  0  0  0  0  0
   -0.1975   -2.2455   -4.4286 C   0  0  0  0  0  0  0  0  0  0  0  0
    0.8248   -2.1349   -2.9236 S   0  0  0  0  0  0  0  0  0  0  0  0
    1.7174   -4.5416   -4.9041 H   0  0  0  0  0  0  0  0  0  0  0  0
   -0.1897   -2.9756   -6.4507 H   0  0  0  0  0  0  0  0  0  0  0  0
   -0.4812   -1.2255   -4.7075 H   0  0  0  0  0  0  0  0  0  0  0  0
   -1.1145   -2.7826   -4.1633 H   0  0  0  0  0  0  0  0  0  0  0  0
    1.5340   -0.9371   -6.4606 N   0  0  0  0  0  0  0  0  0  0  0  0
    2.5853   -0.0571   -6.9144 C   0  0  0  0  0  0  0  0  0  0  0  0
    0.5806   -0.5875   -6.4832 H   0  0  0  0  0  0  0  0  0  0  0  0
    2.9635    0.5314   -6.0655 H   0  0  0  0  0  0  0  0  0  0  0  0
    3.4049   -0.6544   -7.3404 H   0  0  0  0  0  0  0  0  0  0  0  0
    2.1885    0.6220   -7.6834 H   0  0  0  0  0  0  0  0  0  0  0  0
   -6.7256    2.0330   -0.2766 C   0  0  0  0  0  0  0  0  0  0  0  0
   -7.1824    1.1039   -0.9322 O   0  0  0  0  0  0  0  0  0  0  0  0
   -7.5276    2.6077    0.8435 C   0  0  0  0  0  0  0  0  0  0  0  0
   -8.1775    3.4344    0.5145 H   0  0  0  0  0  0  0  0  0  0  0  0
   -8.2057    1.8676    1.2980 H   0  0  0  0  0  0  0  0  0  0  0  0
   -6.9411    3.0162    1.6819 H   0  0  0  0  0  0  0  0  0  0  0  0
   -5.4935    2.6382   -0.4627 N   0  0  0  0  0  0  0  0  0  0  0  0
   -4.5619    2.2388   -1.4845 C   0  0  2  0  0  0  0  0  0  0  0  0
   -3.1535    2.4674   -0.9521 C   0  0  0  0  0  0  0  0  0  0  0  0
   -2.8634    3.3945   -0.1987 O   0  0  0  0  0  0  0  0  0  0  0  0
   -4.7883    3.0138   -2.7732 C   0  0  0  0  0  0  0  0  0  0  0  0
   -5.2337    3.4049    0.1551 H   0  0  0  0  0  0  0  0  0  0  0  0
   -4.7192    1.1682   -1.6549 H   0  0  0  0  0  0  0  0  0  0  0  0
   -4.6352    4.0886   -2.6221 H   0  0  0  0  0  0  0  0  0  0  0  0
   -4.0976    2.6887   -3.5582 H   0  0  0  0  0  0  0  0  0  0  0  0
   -5.8111    2.8719   -3.1387 H   0  0  0  0  0  0  0  0  0  0  0  0
   -2.2466    1.5400   -1.4507 N   0  0  0  0  0  0  0  0  0  0  0  0
   -0.8424    1.5707   -1.1286 C   0  0  2  0  0  0  0  0  0  0  0  0
   -0.3403    3.0087   -1.2421 C   0  0  0  0  0  0  0  0  0  0  0  0
    0.5701    3.4568   -0.5482 O   0  0  0  0  0  0  0  0  0  0  0  0
   -0.0313    0.5768   -1.9636 C   0  0  0  0  0  0  0  0  0  0  0  0
   -0.4464   -1.1544   -1.6425 S   0  0  0  0  0  0  0  0  0  0  0  0
   -2.5850    0.7815   -2.0381 H   0  0  0  0  0  0  0  0  0  0  0  0
   -0.7758    1.2792   -0.0730 H   0  0  0  0  0  0  0  0  0  0  0  0
   -0.1849    0.7576   -3.0324 H   0  0  0  0  0  0  0  0  0  0  0  0
    1.0373    0.7014   -1.7576 H   0  0  0  0  0  0  0  0  0  0  0  0
   -1.0444    3.7371   -2.1904 N   0  0  0  0  0  0  0  0  0  0  0  0
   -0.7717    5.1288   -2.4638 C   0  0  2  0  0  0  0  0  0  0  0  0
   -2.0828    5.7965   -2.8570 C   0  0  0  0  0  0  0  0  0  0  0  0
   -2.9675    5.2193   -3.4856 O   0  0  0  0  0  0  0  0  0  0  0  0
    0.2680    5.2833   -3.5628 C   0  0  0  0  0  0  0  0  0  0  0  0
   -1.7544    3.2744   -2.7503 H   0  0  0  0  0  0  0  0  0  0  0  0
   -0.4029    5.5681   -1.5305 H   0  0  0  0  0  0  0  0  0  0  0  0
   -0.0837    4.8489   -4.5058 H   0  0  0  0  0  0  0  0  0  0  0  0
    0.4946    6.3382   -3.7492 H   0  0  0  0  0  0  0  0  0  0  0  0
    1.2005    4.7770   -3.2911 H   0  0  0  0  0  0  0  0  0  0  0  0
   -2.1307    7.1258   -2.4609 N   0  0  0  0  0  0  0  0  0  0  0  0
   -3.2526    7.9868   -2.7545 C   0  0  0  0  0  0  0  0  0  0  0  0
   -1.3697    7.5106   -1.9091 H   0  0  0  0  0  0  0  0  0  0  0  0
   -3.0679    8.5219   -3.6976 H   0  0  0  0  0  0  0  0  0  0  0  0
   -4.1651    7.3800   -2.8499 H   0  0  0  0  0  0  0  0  0  0  0  0
   -3.3796    8.7142   -1.9391 H   0  0  0  0  0  0  0  0  0  0  0  0
  1  3  1  0  0  0  0
  1  7  1  0  0  0  0
  1  2  2  0  0  0  0
 23 25  1  0  0  0  0
 23 29  1  0  0  0  0
 23 24  2  0  0  0  0
 50 51  1  0  0  0  0
 51 59  1  0  0  0  0
 51 52  2  0  0  0  0
  8  9  1  0  0  0  0
  9 17  1  0  0  0  0
  9 10  2  0  0  0  0
 30 31  1  0  0  0  0
 31 39  1  0  0  0  0
 31 32  2  0  0  0  0
 40 41  1  0  0  0  0
 41 49  1  0  0  0  0
 41 42  2  0  0  0  0
 50 53  1  0  0  0  0
 30 33  1  0  0  0  0
 59 60  1  0  0  0  0
 17 18  1  0  0  0  0
  8 11  1  0  0  0  0
 11 12  1  0  0  0  0
 40 43  1  0  0  0  0
 43 44  1  0  0  0  0
 49 50  1  0  0  0  0
  7  8  1  0  0  0  0
 29 30  1  0  0  0  0
 39 40  1  0  0  0  0
 12 44  1  0  0  0  0
  3  4  1  0  0  0  0
  3  5  1  0  0  0  0
  3  6  1  0  0  0  0
 25 26  1  0  0  0  0
 25 27  1  0  0  0  0
 25 28  1  0  0  0  0
 53 56  1  0  0  0  0
 53 57  1  0  0  0  0
 53 58  1  0  0  0  0
 33 36  1  0  0  0  0
 33 37  1  0  0  0  0
 33 38  1  0  0  0  0
 60 62  1  0  0  0  0
 60 63  1  0  0  0  0
 60 64  1  0  0  0  0
 18 20  1  0  0  0  0
 18 21  1  0  0  0  0
 18 22  1  0  0  0  0
 11 15  1  0  0  0  0
 11 16  1  0  0  0  0
 43 47  1  0  0  0  0
 43 48  1  0  0  0  0
 50 55  1  0  0  0  0
  8 14  1  0  0  0  0
 30 35  1  0  0  0  0
 40 46  1  0  0  0  0
 59 61  1  0  0  0  0
 17 19  1  0  0  0  0
  7 13  1  0  0  0  0
 29 34  1  0  0  0  0
 49 54  1  0  0  0  0
 39 45  1  0  0  0  0
M  END
$$$$

  -OEChem-05262214473D

 64 63  0     1  0  0  0  0  0999 V2000
   -0.0727   -5.3673   -5.5388 C   0  0  0  0  0  0  0  0  0  0  0  0
   -1.1990   -5.2729   -6.0124 O   0  0  0  0  0  0  0  0  0  0  0  0
    0.4567   -6.7109   -5.1613 C   0  0  0  0  0  0  0  0  0  0  0  0
    0.2226   -6.9772   -4.1180 H   0  0  0  0  0  0  0  0  0  0  0  0
    0.0247   -7.5199   -5.7722 H   0  0  0  0  0  0  0  0  0  0  0  0
    1.5481   -6.8302   -5.2529 H   0  0  0  0  0  0  0  0  0  0  0  0
    0.8071   -4.3248   -5.3038 N   0  0  0  0  0  0  0  0  0  0  0  0
    0.4987   -2.9480   -5.5969 C   0  0  2  0  0  0  0  0  0  0  0  0
    1.7734   -2.2424   -6.0551 C   0  0  0  0  0  0  0  0  0  0  0  0
    2.8791   -2.7795   -6.0380 O   0  0  0  0  0  0  0  0  0  0  0  0
   -0.1975   -2.2455   -4.4286 C   0  0  0  0  0  0  0  0  0  0  0  0
    0.8248   -2.1349   -2.9236 S   0  0  0  0  0  0  0  0  0  0  0  0
    1.7174   -4.5416   -4.9041 H   0  0  0  0  0  0  0  0  0  0  0  0
   -0.1897   -2.9756   -6.4507 H   0  0  0  0  0  0  0  0  0  0  0  0
   -0.4812   -1.2255   -4.7075 H   0  0  0  0  0  0  0  0  0  0  0  0
   -1.1145   -2.7826   -4.1633 H   0  0  0  0  0  0  0  0  0  0  0  0
    1.5340   -0.9371   -6.4606 N   0  0  0  0  0  0  0  0  0  0  0  0
    2.5853   -0.0571   -6.9144 C   0  0  0  0  0  0  0  0  0  0  0  0
    0.5806   -0.5875   -6.4832 H   0  0  0  0  0  0  0  0  0  0  0  0
    2.9635    0.5314   -6.0655 H   0  0  0  0  0  0  0  0  0  0  0  0
    3.4049   -0.6544   -7.3404 H   0  0  0  0  0  0  0  0  0  0  0  0
    2.1885    0.6220   -7.6834 H   0  0  0  0  0  0  0  0  0  0  0  0
   -6.7256    2.0330   -0.2766 C   0  0  0  0  0  0  0  0  0  0  0  0
   -7.1824    1.1039   -0.9322 O   0  0  0  0  0  0  0  0  0  0  0  0
   -7.5276    2.6077    0.8435 C   0  0  0  0  0  0  0  0  0  0  0  0
   -8.1775    3.4344    0.5145 H   0  0  0  0  0  0  0  0  0  0  0  0
   -8.2057    1.8676    1.2980 H   0  0  0  0  0  0  0  0  0  0  0  0
   -6.9411    3.0162    1.6819 H   0  0  0  0  0  0  0  0  0  0  0  0
   -5.4935    2.6382   -0.4627 N   0  0  0  0  0  0  0  0  0  0  0  0
   -4.5619    2.2388   -1.4845 C   0  0  2  0  0  0  0  0  0  0  0  0
   -3.1535    2.4674   -0.9521 C   0  0  0  0  0  0  0  0  0  0  0  0
   -2.8634    3.3945   -0.1987 O   0  0  0  0  0  0  0  0  0  0  0  0
   -4.7883    3.0138   -2.7732 C   0  0  0  0  0  0  0  0  0  0  0  0
   -5.2337    3.4049    0.1551 H   0  0  0  0  0  0  0  0  0  0  0  0
   -4.7192    1.1682   -1.6549 H   0  0  0  0  0  0  0  0  0  0  0  0
   -4.6352    4.0886   -2.6221 H   0  0  0  0  0  0  0  0  0  0  0  0
   -4.0976    2.6887   -3.5582 H   0  0  0  0  0  0  0  0  0  0  0  0
   -5.8111    2.8719   -3.1387 H   0  0  0  0  0  0  0  0  0  0  0  0
   -2.2466    1.5400   -1.4507 N   0  0  0  0  0  0  0  0  0  0  0  0
   -0.8424    1.5707   -1.1286 C   0  0  2  0  0  0  0  0  0  0  0  0
   -0.3403    3.0087   -1.2421 C   0  0  0  0  0  0  0  0  0  0  0  0
    0.7244    3.3864   -0.7572 O   0  0  0  0  0  0  0  0  0  0  0  0
   -0.0313    0.5768   -1.9636 C   0  0  0  0  0  0  0  0  0  0  0  0
   -0.4464   -1.1544   -1.6425 S   0  0  0  0  0  0  0  0  0  0  0  0
   -2.5850    0.7815   -2.0381 H   0  0  0  0  0  0  0  0  0  0  0  0
   -0.7758    1.2792   -0.0730 H   0  0  0  0  0  0  0  0  0  0  0  0
   -0.1849    0.7576   -3.0324 H   0  0  0  0  0  0  0  0  0  0  0  0
    1.0373    0.7014   -1.7576 H   0  0  0  0  0  0  0  0  0  0  0  0
   -1.2316    3.8234   -1.9258 N   0  0  0  0  0  0  0  0  0  0  0  0
   -0.9921    5.2312   -2.1416 C   0  0  2  0  0  0  0  0  0  0  0  0
   -2.3389    5.9422   -2.1457 C   0  0  0  0  0  0  0  0  0  0  0  0
   -3.3666    5.4298   -2.5844 O   0  0  0  0  0  0  0  0  0  0  0  0
   -0.2463    5.4722   -3.4448 C   0  0  0  0  0  0  0  0  0  0  0  0
   -2.0697    3.4176   -2.3315 H   0  0  0  0  0  0  0  0  0  0  0  0
   -0.3948    5.5840   -1.2938 H   0  0  0  0  0  0  0  0  0  0  0  0
   -0.8293    5.1250   -4.3057 H   0  0  0  0  0  0  0  0  0  0  0  0
   -0.0404    6.5374   -3.5930 H   0  0  0  0  0  0  0  0  0  0  0  0
    0.7088    4.9360   -3.4522 H   0  0  0  0  0  0  0  0  0  0  0  0
   -2.2496    7.2321   -1.6414 N   0  0  0  0  0  0  0  0  0  0  0  0
   -3.3830    8.1251   -1.5794 C   0  0  0  0  0  0  0  0  0  0  0  0
   -1.3662    7.5604   -1.2625 H   0  0  0  0  0  0  0  0  0  0  0  0
   -3.4171    8.7391   -2.4915 H   0  0  0  0  0  0  0  0  0  0  0  0
   -4.3091    7.5370   -1.4987 H   0  0  0  0  0  0  0  0  0  0  0  0
   -3.2865    8.7795   -0.7005 H   0  0  0  0  0  0  0  0  0  0  0  0
  1  3  1  0  0  0  0
  1  7  1  0  0  0  0
  1  2  2  0  0  0  0
 23 25  1  0  0  0  0
 23 29  1  0  0  0  0
 23 24  2  0  0  0  0
 50 51  1  0  0  0  0
 51 59  1  0  0  0  0
 51 52  2  0  0  0  0
  8  9  1  0  0  0  0
  9 17  1  0  0  0  0
  9 10  2  0  0  0  0
 30 31  1  0  0  0  0
 31 39  1  0  0  0  0
 31 32  2  0  0  0  0
 40 41  1  0  0  0  0
 41 49  1  0  0  0  0
 41 42  2  0  0  0  0
 50 53  1  0  0  0  0
 30 33  1  0  0  0  0
 59 60  1  0  0  0  0
 17 18  1  0  0  0  0
  8 11  1  0  0  0  0
 11 12  1  0  0  0  0
 40 43  1  0  0  0  0
 43 44  1  0  0  0  0
 49 50  1  0  0  0  0
  7  8  1  0  0  0  0
 29 30  1  0  0  0  0
 39 40  1  0  0  0  0
 12 44  1  0  0  0  0
  3  4  1  0  0  0  0
  3  5  1  0  0  0  0
  3  6  1  0  0  0  0
 25 26  1  0  0  0  0
 25 27  1  0  0  0  0
 25 28  1  0  0  0  0
 53 56  1  0  0  0  0
 53 57  1  0  0  0  0
 53 58  1  0  0  0  0
 33 36  1  0  0  0  0
 33 37  1  0  0  0  0
 33 38  1  0  0  0  0
 60 62  1  0  0  0  0
 60 63  1  0  0  0  0
 60 64  1  0  0  0  0
 18 20  1  0  0  0  0
 18 21  1  0  0  0  0
 18 22  1  0  0  0  0
 11 15  1  0  0  0  0
 11 16  1  0  0  0  0
 43 47  1  0  0  0  0
 43 48  1  0  0  0  0
 50 55  1  0  0  0  0
  8 14  1  0  0  0  0
 30 35  1  0  0  0  0
 40 46  1  0  0  0  0
 59 61  1  0  0  0  0
 17 19  1  0  0  0  0
  7 13  1  0  0  0  0
 29 34  1  0  0  0  0
 49 54  1  0  0  0  0
 39 45  1  0  0  0  0
M  END
$$$$

  -OEChem-05262214473D

 64 63  0     1  0  0  0  0  0999 V2000
   -0.0727   -5.3673   -5.5388 C   0  0  0  0  0  0  0  0  0  0  0  0
   -1.1990   -5.2729   -6.0124 O   0  0  0  0  0  0  0  0  0  0  0  0
    0.4567   -6.7109   -5.1613 C   0  0  0  0  0  0  0  0  0  0  0  0
    0.2226   -6.9772   -4.1180 H   0  0  0  0  0  0  0  0  0  0  0  0
    0.0247   -7.5199   -5.7722 H   0  0  0  0  0  0  0  0  0  0  0  0
    1.5481   -6.8302   -5.2529 H   0  0  0  0  0  0  0  0  0  0  0  0
    0.8071   -4.3248   -5.3038 N   0  0  0  0  0  0  0  0  0  0  0  0
    0.4987   -2.9480   -5.5969 C   0  0  2  0  0  0  0  0  0  0  0  0
    1.7734   -2.2424   -6.0551 C   0  0  0  0  0  0  0  0  0  0  0  0
    2.8791   -2.7795   -6.0380 O   0  0  0  0  0  0  0  0  0  0  0  0
   -0.1975   -2.2455   -4.4286 C   0  0  0  0  0  0  0  0  0  0  0  0
    0.8248   -2.1349   -2.9236 S   0  0  0  0  0  0  0  0  0  0  0  0
    1.7174   -4.5416   -4.9041 H   0  0  0  0  0  0  0  0  0  0  0  0
   -0.1897   -2.9756   -6.4507 H   0  0  0  0  0  0  0  0  0  0  0  0
   -0.4812   -1.2255   -4.7075 H   0  0  0  0  0  0  0  0  0  0  0  0
   -1.1145   -2.7826   -4.1633 H   0  0  0  0  0  0  0  0  0  0  0  0
    1.5340   -0.9371   -6.4606 N   0  0  0  0  0  0  0  0  0  0  0  0
    2.5853   -0.0571   -6.9144 C   0  0  0  0  0  0  0  0  0  0  0  0
    0.5806   -0.5875   -6.4832 H   0  0  0  0  0  0  0  0  0  0  0  0
    2.9635    0.5314   -6.0655 H   0  0  0  0  0  0  0  0  0  0  0  0
    3.4049   -0.6544   -7.3404 H   0  0  0  0  0  0  0  0  0  0  0  0
    2.1885    0.6220   -7.6834 H   0  0  0  0  0  0  0  0  0  0  0  0
   -6.7256    2.0330   -0.2766 C   0  0  0  0  0  0  0  0  0  0  0  0
   -7.1824    1.1039   -0.9322 O   0  0  0  0  0  0  0  0  0  0  0  0
   -7.5276    2.6077    0.8435 C   0  0  0  0  0  0  0  0  0  0  0  0
   -8.1775    3.4344    0.5145 H   0  0  0  0  0  0  0  0  0  0  0  0
   -8.2057    1.8676    1.2980 H   0  0  0  0  0  0  0  0  0  0  0  0
   -6.9411    3.0162    1.6819 H   0  0  0  0  0  0  0  0  0  0  0  0
   -5.4935    2.6382   -0.4627 N   0  0  0  0  0  0  0  0  0  0  0  0
   -4.5619    2.2388   -1.4845 C   0  0  2  0  0  0  0  0  0  0  0  0
   -3.1535    2.4674   -0.9521 C   0  0  0  0  0  0  0  0  0  0  0  0
   -2.8634    3.3945   -0.1987 O   0  0  0  0  0  0  0  0  0  0  0  0
   -4.7883    3.0138   -2.7732 C   0  0  0  0  0  0  0  0  0  0  0  0
   -5.2337    3.4049    0.1551 H   0  0  0  0  0  0  0  0  0  0  0  0
   -4.7192    1.1682   -1.6549 H   0  0  0  0  0  0  0  0  0  0  0  0
   -4.6352    4.0886   -2.6221 H   0  0  0  0  0  0  0  0  0  0  0  0
   -4.0976    2.6887   -3.5582 H   0  0  0  0  0  0  0  0  0  0  0  0
   -5.8111    2.8719   -3.1387 H   0  0  0  0  0  0  0  0  0  0  0  0
   -2.2466    1.5400   -1.4507 N   0  0  0  0  0  0  0  0  0  0  0  0
   -0.8424    1.5707   -1.1286 C   0  0  2  0  0  0  0  0  0  0  0  0
   -0.3403    3.0087   -1.2421 C   0  0  0  0  0  0  0  0  0  0  0  0
    0.8210    3.3333   -1.0027 O   0  0  0  0  0  0  0  0  0  0  0  0
   -0.0313    0.5768   -1.9636 C   0  0  0  0  0  0  0  0  0  0  0  0
   -0.4464   -1.1544   -1.6425 S   0  0  0  0  0  0  0  0  0  0  0  0
   -2.5850    0.7815   -2.0381 H   0  0  0  0  0  0  0  0  0  0  0  0
   -0.7758    1.2792   -0.0730 H   0  0  0  0  0  0  0  0  0  0  0  0
   -0.1849    0.7576   -3.0324 H   0  0  0  0  0  0  0  0  0  0  0  0
    1.0373    0.7014   -1.7576 H   0  0  0  0  0  0  0  0  0  0  0  0
   -1.3463    3.8878   -1.6173 N   0  0  0  0  0  0  0  0  0  0  0  0
   -1.1245    5.3069   -1.7680 C   0  0  2  0  0  0  0  0  0  0  0  0
   -2.4102    6.0272   -1.3838 C   0  0  0  0  0  0  0  0  0  0  0  0
   -3.5284    5.5642   -1.5987 O   0  0  0  0  0  0  0  0  0  0  0  0
   -0.7107    5.6545   -3.1895 C   0  0  0  0  0  0  0  0  0  0  0  0
   -2.2695    3.5264   -1.8379 H   0  0  0  0  0  0  0  0  0  0  0  0
   -0.3290    5.5790   -1.0657 H   0  0  0  0  0  0  0  0  0  0  0  0
   -1.4953    5.3891   -3.9073 H   0  0  0  0  0  0  0  0  0  0  0  0
   -0.5153    6.7267   -3.2949 H   0  0  0  0  0  0  0  0  0  0  0  0
    0.1976    5.1127   -3.4745 H   0  0  0  0  0  0  0  0  0  0  0  0
   -2.1628    7.2673   -0.8117 N   0  0  0  0  0  0  0  0  0  0  0  0
   -3.2201    8.1613   -0.4009 C   0  0  0  0  0  0  0  0  0  0  0  0
   -1.2044    7.5535   -0.6345 H   0  0  0  0  0  0  0  0  0  0  0  0
   -3.4562    8.8529   -1.2230 H   0  0  0  0  0  0  0  0  0  0  0  0
   -4.1159    7.5765   -0.1451 H   0  0  0  0  0  0  0  0  0  0  0  0
   -2.8935    8.7354    0.4787 H   0  0  0  0  0  0  0  0  0  0  0  0
  1  3  1  0  0  0  0
  1  7  1  0  0  0  0
  1  2  2  0  0  0  0
 23 25  1  0  0  0  0
 23 29  1  0  0  0  0
 23 24  2  0  0  0  0
 50 51  1  0  0  0  0
 51 59  1  0  0  0  0
 51 52  2  0  0  0  0
  8  9  1  0  0  0  0
  9 17  1  0  0  0  0
  9 10  2  0  0  0  0
 30 31  1  0  0  0  0
 31 39  1  0  0  0  0
 31 32  2  0  0  0  0
 40 41  1  0  0  0  0
 41 49  1  0  0  0  0
 41 42  2  0  0  0  0
 50 53  1  0  0  0  0
 30 33  1  0  0  0  0
 59 60  1  0  0  0  0
 17 18  1  0  0  0  0
  8 11  1  0  0  0  0
 11 12  1  0  0  0  0
 40 43  1  0  0  0  0
 43 44  1  0  0  0  0
 49 50  1  0  0  0  0
  7  8  1  0  0  0  0
 29 30  1  0  0  0  0
 39 40  1  0  0  0  0
 12 44  1  0  0  0  0
  3  4  1  0  0  0  0
  3  5  1  0  0  0  0
  3  6  1  0  0  0  0
 25 26  1  0  0  0  0
 25 27  1  0  0  0  0
 25 28  1  0  0  0  0
 53 56  1  0  0  0  0
 53 57  1  0  0  0  0
 53 58  1  0  0  0  0
 33 36  1  0  0  0  0
 33 37  1  0  0  0  0
 33 38  1  0  0  0  0
 60 62  1  0  0  0  0
 60 63  1  0  0  0  0
 60 64  1  0  0  0  0
 18 20  1  0  0  0  0
 18 21  1  0  0  0  0
 18 22  1  0  0  0  0
 11 15  1  0  0  0  0
 11 16  1  0  0  0  0
 43 47  1  0  0  0  0
 43 48  1  0  0  0  0
 50 55  1  0  0  0  0
  8 14  1  0  0  0  0
 30 35  1  0  0  0  0
 40 46  1  0  0  0  0
 59 61  1  0  0  0  0
 17 19  1  0  0  0  0
  7 13  1  0  0  0  0
 29 34  1  0  0  0  0
 49 54  1  0  0  0  0
 39 45  1  0  0  0  0
M  END
$$$$

  -OEChem-05262214473D

 64 63  0     1  0  0  0  0  0999 V2000
   -0.0727   -5.3673   -5.5388 C   0  0  0  0  0  0  0  0  0  0  0  0
   -1.1990   -5.2729   -6.0124 O   0  0  0  0  0  0  0  0  0  0  0  0
    0.4567   -6.7109   -5.1613 C   0  0  0  0  0  0  0  0  0  0  0  0
    0.2226   -6.9772   -4.1180 H   0  0  0  0  0  0  0  0  0  0  0  0
    0.0247   -7.5199   -5.7722 H   0  0  0  0  0  0  0  0  0  0  0  0
    1.5481   -6.8302   -5.2529 H   0  0  0  0  0  0  0  0  0  0  0  0
    0.8071   -4.3248   -5.3038 N   0  0  0  0  0  0  0  0  0  0  0  0
    0.4987   -2.9480   -5.5969 C   0  0  2  0  0  0  0  0  0  0  0  0
    1.7734   -2.2424   -6.0551 C   0  0  0  0  0  0  0  0  0  0  0  0
    2.8791   -2.7795   -6.0380 O   0  0  0  0  0  0  0  0  0  0  0  0
   -0.1975   -2.2455   -4.4286 C   0  0  0  0  0  0  0  0  0  0  0  0
    0.8248   -2.1349   -2.9236 S   0  0  0  0  0  0  0  0  0  0  0  0
    1.7174   -4.5416   -4.9041 H   0  0  0  0  0  0  0  0  0  0  0  0
   -0.1897   -2.9756   -6.4507 H   0  0  0  0  0  0  0  0  0  0  0  0
   -0.4812   -1.2255   -4.7075 H   0  0  0  0  0  0  0  0  0  0  0  0
   -1.1145   -2.7826   -4.1633 H   0  0  0  0  0  0  0  0  0  0  0  0
    1.5340   -0.9371   -6.4606 N   0  0  0  0  0  0  0  0  0  0  0  0
    2.5853   -0.0571   -6.9144 C   0  0  0  0  0  0  0  0  0  0  0  0
    0.5806   -0.5875   -6.4832 H   0  0  0  0  0  0  0  0  0  0  0  0
    2.9635    0.5314   -6.0655 H   0  0  0  0  0  0  0  0  0  0  0  0
    3.4049   -0.6544   -7.3404 H   0  0  0  0  0  0  0  0  0  0  0  0
    2.1885    0.6220   -7.6834 H   0  0  0  0  0  0  0  0  0  0  0  0
   -6.7256    2.0330   -0.2766 C   0  0  0  0  0  0  0  0  0  0  0  0
   -7.1824    1.1039   -0.9322 O   0  0  0  0  0  0  0  0  0  0  0  0
   -7.5276    2.6077    0.8435 C   0  0  0  0  0  0  0  0  0  0  0  0
   -8.1775    3.4344    0.5145 H   0  0  0  0  0  0  0  0  0  0  0  0
   -8.2057    1.8676    1.2980 H   0  0  0  0  0  0  0  0  0  0  0  0
   -6.9411    3.0162    1.6819 H   0  0  0  0  0  0  0  0  0  0  0  0
   -5.4935    2.6382   -0.4627 N   0  0  0  0  0  0  0  0  0  0  0  0
   -4.5619    2.2388   -1.4845 C   0  0  2  0  0  0  0  0  0  0  0  0
   -3.1535    2.4674   -0.9521 C   0  0  0  0  0  0  0  0  0  0  0  0
   -2.8634    3.3945   -0.1987 O   0  0  0  0  0  0  0  0  0  0  0  0
   -4.7883    3.0138   -2.7732 C   0  0  0  0  0  0  0  0  0  0  0  0
   -5.2337    3.4049    0.1551 H   0  0  0  0  0  0  0  0  0  0  0  0
   -4.7192    1.1682   -1.6549 H   0  0  0  0  0  0  0  0  0  0  0  0
   -4.6352    4.0886   -2.6221 H   0  0  0  0  0  0  0  0  0  0  0  0
   -4.0976    2.6887   -3.5582 H   0  0  0  0  0  0  0  0  0  0  0  0
   -5.8111    2.8719   -3.1387 H   0  0  0  0  0  0  0  0  0  0  0  0
   -2.2466    1.5400   -1.4507 N   0  0  0  0  0  0  0  0  0  0  0  0
   -0.8424    1.5707   -1.1286 C   0  0  2  0  0  0  0  0  0  0  0  0
   -0.3403    3.0087   -1.2421 C   0  0  0  0  0  0  0  0  0  0  0  0
    0.8535    3.3010   -1.2680 O   0  0  0  0  0  0  0  0  0  0  0  0
   -0.0313    0.5768   -1.9636 C   0  0  0  0  0  0  0  0  0  0  0  0
   -0.4464   -1.1544   -1.6425 S   0  0  0  0  0  0  0  0  0  0  0  0
   -2.5850    0.7815   -2.0381 H   0  0  0  0  0  0  0  0  0  0  0  0
   -0.7758    1.2792   -0.0730 H   0  0  0  0  0  0  0  0  0  0  0  0
   -0.1849    0.7576   -3.0324 H   0  0  0  0  0  0  0  0  0  0  0  0
    1.0373    0.7014   -1.7576 H   0  0  0  0  0  0  0  0  0  0  0  0
   -1.3806    3.9259   -1.2860 N   0  0  0  0  0  0  0  0  0  0  0  0
   -1.1599    5.3508   -1.3683 C   0  0  2  0  0  0  0  0  0  0  0  0
   -2.2918    6.0459   -0.6232 C   0  0  0  0  0  0  0  0  0  0  0  0
   -3.4420    5.6132   -0.5958 O   0  0  0  0  0  0  0  0  0  0  0  0
   -1.0935    5.8178   -2.8141 C   0  0  0  0  0  0  0  0  0  0  0  0
   -2.3402    3.5932   -1.3032 H   0  0  0  0  0  0  0  0  0  0  0  0
   -0.2099    5.5535   -0.8619 H   0  0  0  0  0  0  0  0  0  0  0  0
   -2.0365    5.6230   -3.3378 H   0  0  0  0  0  0  0  0  0  0  0  0
   -0.8977    6.8934   -2.8750 H   0  0  0  0  0  0  0  0  0  0  0  0
   -0.2981    5.2951   -3.3563 H   0  0  0  0  0  0  0  0  0  0  0  0
   -1.8760    7.2290   -0.0285 N   0  0  0  0  0  0  0  0  0  0  0  0
   -2.7747    8.0928    0.7008 C   0  0  0  0  0  0  0  0  0  0  0  0
   -0.8952    7.4903   -0.0680 H   0  0  0  0  0  0  0  0  0  0  0  0
   -3.1828    8.8558    0.0215 H   0  0  0  0  0  0  0  0  0  0  0  0
   -3.5987    7.4957    1.1186 H   0  0  0  0  0  0  0  0  0  0  0  0
   -2.2274    8.5850    1.5183 H   0  0  0  0  0  0  0  0  0  0  0  0
  1  3  1  0  0  0  0
  1  7  1  0  0  0  0
  1  2  2  0  0  0  0
 23 25  1  0  0  0  0
 23 29  1  0  0  0  0
 23 24  2  0  0  0  0
 50 51  1  0  0  0  0
 51 59  1  0  0  0  0
 51 52  2  0  0  0  0
  8  9  1  0  0  0  0
  9 17  1  0  0  0  0
  9 10  2  0  0  0  0
 30 31  1  0  0  0  0
 31 39  1  0  0  0  0
 31 32  2  0  0  0  0
 40 41  1  0  0  0  0
 41 49  1  0  0  0  0
 41 42  2  0  0  0  0
 50 53  1  0  0  0  0
 30 33  1  0  0  0  0
 59 60  1  0  0  0  0
 17 18  1  0  0  0  0
  8 11  1  0  0  0  0
 11 12  1  0  0  0  0
 40 43  1  0  0  0  0
 43 44  1  0  0  0  0
 49 50  1  0  0  0  0
  7  8  1  0  0  0  0
 29 30  1  0  0  0  0
 39 40  1  0  0  0  0
 12 44  1  0  0  0  0
  3  4  1  0  0  0  0
  3  5  1  0  0  0  0
  3  6  1  0  0  0  0
 25 26  1  0  0  0  0
 25 27  1  0  0  0  0
 25 28  1  0  0  0  0
 53 56  1  0  0  0  0
 53 57  1  0  0  0  0
 53 58  1  0  0  0  0
 33 36  1  0  0  0  0
 33 37  1  0  0  0  0
 33 38  1  0  0  0  0
 60 62  1  0  0  0  0
 60 63  1  0  0  0  0
 60 64  1  0  0  0  0
 18 20  1  0  0  0  0
 18 21  1  0  0  0  0
 18 22  1  0  0  0  0
 11 15  1  0  0  0  0
 11 16  1  0  0  0  0
 43 47  1  0  0  0  0
 43 48  1  0  0  0  0
 50 55  1  0  0  0  0
  8 14  1  0  0  0  0
 30 35  1  0  0  0  0
 40 46  1  0  0  0  0
 59 61  1  0  0  0  0
 17 19  1  0  0  0  0
  7 13  1  0  0  0  0
 29 34  1  0  0  0  0
 49 54  1  0  0  0  0
 39 45  1  0  0  0  0
M  END
$$$$

  -OEChem-05262214473D

 64 63  0     1  0  0  0  0  0999 V2000
   -0.0727   -5.3673   -5.5388 C   0  0  0  0  0  0  0  0  0  0  0  0
   -1.1990   -5.2729   -6.0124 O   0  0  0  0  0  0  0  0  0  0  0  0
    0.4567   -6.7109   -5.1613 C   0  0  0  0  0  0  0  0  0  0  0  0
    0.2226   -6.9772   -4.1180 H   0  0  0  0  0  0  0  0  0  0  0  0
    0.0247   -7.5199   -5.7722 H   0  0  0  0  0  0  0  0  0  0  0  0
    1.5481   -6.8302   -5.2529 H   0  0  0  0  0  0  0  0  0  0  0  0
    0.8071   -4.3248   -5.3038 N   0  0  0  0  0  0  0  0  0  0  0  0
    0.4987   -2.9480   -5.5969 C   0  0  2  0  0  0  0  0  0  0  0  0
    1.7734   -2.2424   -6.0551 C   0  0  0  0  0  0  0  0  0  0  0  0
    2.8791   -2.7795   -6.0380 O   0  0  0  0  0  0  0  0  0  0  0  0
   -0.1975   -2.2455   -4.4286 C   0  0  0  0  0  0  0  0  0  0  0  0
    0.8248   -2.1349   -2.9236 S   0  0  0  0  0  0  0  0  0  0  0  0
    1.7174   -4.5416   -4.9041 H   0  0  0  0  0  0  0  0  0  0  0  0
   -0.1897   -2.9756   -6.4507 H   0  0  0  0  0  0  0  0  0  0  0  0
   -0.4812   -1.2255   -4.7075 H   0  0  0  0  0  0  0  0  0  0  0  0
   -1.1145   -2.7826   -4.1633 H   0  0  0  0  0  0  0  0  0  0  0  0
    1.5340   -0.9371   -6.4606 N   0  0  0  0  0  0  0  0  0  0  0  0
    2.5853   -0.0571   -6.9144 C   0  0  0  0  0  0  0  0  0  0  0  0
    0.5806   -0.5875   -6.4832 H   0  0  0  0  0  0  0  0  0  0  0  0
    2.9635    0.5314   -6.0655 H   0  0  0  0  0  0  0  0  0  0  0  0
    3.4049   -0.6544   -7.3404 H   0  0  0  0  0  0  0  0  0  0  0  0
    2.1885    0.6220   -7.6834 H   0  0  0  0  0  0  0  0  0  0  0  0
   -6.7256    2.0330   -0.2766 C   0  0  0  0  0  0  0  0  0  0  0  0
   -7.1824    1.1039   -0.9322 O   0  0  0  0  0  0  0  0  0  0  0  0
   -7.5276    2.6077    0.8435 C   0  0  0  0  0  0  0  0  0  0  0  0
   -8.1775    3.4344    0.5145 H   0  0  0  0  0  0  0  0  0  0  0  0
   -8.2057    1.8676    1.2980 H   0  0  0  0  0  0  0  0  0  0  0  0
   -6.9411    3.0162    1.6819 H   0  0  0  0  0  0  0  0  0  0  0  0
   -5.4935    2.6382   -0.4627 N   0  0  0  0  0  0  0  0  0  0  0  0
   -4.5619    2.2388   -1.4845 C   0  0  2  0  0  0  0  0  0  0  0  0
   -3.1535    2.4674   -0.9521 C   0  0  0  0  0  0  0  0  0  0  0  0
   -2.8634    3.3945   -0.1987 O   0  0  0  0  0  0  0  0  0  0  0  0
   -4.7883    3.0138   -2.7732 C   0  0  0  0  0  0  0  0  0  0  0  0
   -5.2337    3.4049    0.1551 H   0  0  0  0  0  0  0  0  0  0  0  0
   -4.7192    1.1682   -1.6549 H   0  0  0  0  0  0  0  0  0  0  0  0
   -4.6352    4.0886   -2.6221 H   0  0  0  0  0  0  0  0  0  0  0  0
   -4.0976    2.6887   -3.5582 H   0  0  0  0  0  0  0  0  0  0  0  0
   -5.8111    2.8719   -3.1387 H   0  0  0  0  0  0  0  0  0  0  0  0
   -2.2466    1.5400   -1.4507 N   0  0  0  0  0  0  0  0  0  0  0  0
   -0.8424    1.5707   -1.1286 C   0  0  2  0  0  0  0  0  0  0  0  0
   -0.3403    3.0087   -1.2421 C   0  0  0  0  0  0  0  0  0  0  0  0
    0.8197    3.2917   -1.5348 O   0  0  0  0  0  0  0  0  0  0  0  0
   -0.0313    0.5768   -1.9636 C   0  0  0  0  0  0  0  0  0  0  0  0
   -0.4464   -1.1544   -1.6425 S   0  0  0  0  0  0  0  0  0  0  0  0
   -2.5850    0.7815   -2.0381 H   0  0  0  0  0  0  0  0  0  0  0  0
   -0.7758    1.2792   -0.0730 H   0  0  0  0  0  0  0  0  0  0  0  0
   -0.1849    0.7576   -3.0324 H   0  0  0  0  0  0  0  0  0  0  0  0
    1.0373    0.7014   -1.7576 H   0  0  0  0  0  0  0  0  0  0  0  0
   -1.3323    3.9353   -0.9543 N   0  0  0  0  0  0  0  0  0  0  0  0
   -1.0959    5.3599   -0.9700 C   0  0  2  0  0  0  0  0  0  0  0  0
   -1.9917    5.9970    0.0841 C   0  0  0  0  0  0  0  0  0  0  0  0
   -3.1132    5.5736    0.3561 O   0  0  0  0  0  0  0  0  0  0  0  0
   -1.3687    5.9510   -2.3444 C   0  0  0  0  0  0  0  0  0  0  0  0
   -2.2768    3.6137   -0.7638 H   0  0  0  0  0  0  0  0  0  0  0  0
   -0.0457    5.5093   -0.6963 H   0  0  0  0  0  0  0  0  0  0  0  0
   -2.4160    5.8110   -2.6358 H   0  0  0  0  0  0  0  0  0  0  0  0
   -1.1615    7.0261   -2.3622 H   0  0  0  0  0  0  0  0  0  0  0  0
   -0.7447    5.4708   -3.1059 H   0  0  0  0  0  0  0  0  0  0  0  0
   -1.4089    7.1199    0.6548 N   0  0  0  0  0  0  0  0  0  0  0  0
   -2.0775    7.9244    1.6507 C   0  0  0  0  0  0  0  0  0  0  0  0
   -0.4597    7.3751    0.3985 H   0  0  0  0  0  0  0  0  0  0  0  0
   -2.6153    8.7473    1.1573 H   0  0  0  0  0  0  0  0  0  0  0  0
   -2.7927    7.3002    2.2064 H   0  0  0  0  0  0  0  0  0  0  0  0
   -1.3336    8.3383    2.3473 H   0  0  0  0  0  0  0  0  0  0  0  0
  1  3  1  0  0  0  0
  1  7  1  0  0  0  0
  1  2  2  0  0  0  0
 23 25  1  0  0  0  0
 23 29  1  0  0  0  0
 23 24  2  0  0  0  0
 50 51  1  0  0  0  0
 51 59  1  0  0  0  0
 51 52  2  0  0  0  0
  8  9  1  0  0  0  0
  9 17  1  0  0  0  0
  9 10  2  0  0  0  0
 30 31  1  0  0  0  0
 31 39  1  0  0  0  0
 31 32  2  0  0  0  0
 40 41  1  0  0  0  0
 41 49  1  0  0  0  0
 41 42  2  0  0  0  0
 50 53  1  0  0  0  0
 30 33  1  0  0  0  0
 59 60  1  0  0  0  0
 17 18  1  0  0  0  0
  8 11  1  0  0  0  0
 11 12  1  0  0  0  0
 40 43  1  0  0  0  0
 43 44  1  0  0  0  0
 49 50  1  0  0  0  0
  7  8  1  0  0  0  0
 29 30  1  0  0  0  0
 39 40  1  0  0  0  0
 12 44  1  0  0  0  0
  3  4  1  0  0  0  0
  3  5  1  0  0  0  0
  3  6  1  0  0  0  0
 25 26  1  0  0  0  0
 25 27  1  0  0  0  0
 25 28  1  0  0  0  0
 53 56  1  0  0  0  0
 53 57  1  0  0  0  0
 53 58  1  0  0  0  0
 33 36  1  0  0  0  0
 33 37  1  0  0  0  0
 33 38  1  0  0  0  0
 60 62  1  0  0  0  0
 60 63  1  0  0  0  0
 60 64  1  0  0  0  0
 18 20  1  0  0  0  0
 18 21  1  0  0  0  0
 18 22  1  0  0  0  0
 11 15  1  0  0  0  0
 11 16  1  0  0  0  0
 43 47  1  0  0  0  0
 43 48  1  0  0  0  0
 50 55  1  0  0  0  0
  8 14  1  0  0  0  0
 30 35  1  0  0  0  0
 40 46  1  0  0  0  0
 59 61  1  0  0  0  0
 17 19  1  0  0  0  0
  7 13  1  0  0  0  0
 29 34  1  0  0  0  0
 49 54  1  0  0  0  0
 39 45  1  0  0  0  0
M  END
$$$$

  -OEChem-05262214473D

 64 63  0     1  0  0  0  0  0999 V2000
   -0.0727   -5.3673   -5.5388 C   0  0  0  0  0  0  0  0  0  0  0  0
   -1.1990   -5.2729   -6.0124 O   0  0  0  0  0  0  0  0  0  0  0  0
    0.4567   -6.7109   -5.1613 C   0  0  0  0  0  0  0  0  0  0  0  0
    0.2226   -6.9772   -4.1180 H   0  0  0  0  0  0  0  0  0  0  0  0
    0.0247   -7.5199   -5.7722 H   0  0  0  0  0  0  0  0  0  0  0  0
    1.5481   -6.8302   -5.2529 H   0  0  0  0  0  0  0  0  0  0  0  0
    0.8071   -4.3248   -5.3038 N   0  0  0  0  0  0  0  0  0  0  0  0
    0.4987   -2.9480   -5.5969 C   0  0  2  0  0  0  0  0  0  0  0  0
    1.7734   -2.2424   -6.0551 C   0  0  0  0  0  0  0  0  0  0  0  0
    2.8791   -2.7795   -6.0380 O   0  0  0  0  0  0  0  0  0  0  0  0
   -0.1975   -2.2455   -4.4286 C   0  0  0  0  0  0  0  0  0  0  0  0
    0.8248   -2.1349   -2.9236 S   0  0  0  0  0  0  0  0  0  0  0  0
    1.7174   -4.5416   -4.9041 H   0  0  0  0  0  0  0  0  0  0  0  0
   -0.1897   -2.9756   -6.4507 H   0  0  0  0  0  0  0  0  0  0  0  0
   -0.4812   -1.2255   -4.7075 H   0  0  0  0  0  0  0  0  0  0  0  0
   -1.1145   -2.7826   -4.1633 H   0  0  0  0  0  0  0  0  0  0  0  0
    1.5340   -0.9371   -6.4606 N   0  0  0  0  0  0  0  0  0  0  0  0
    2.5853   -0.0571   -6.9144 C   0  0  0  0  0  0  0  0  0  0  0  0
    0.5806   -0.5875   -6.4832 H   0  0  0  0  0  0  0  0  0  0  0  0
    2.9635    0.5314   -6.0655 H   0  0  0  0  0  0  0  0  0  0  0  0
    3.4049   -0.6544   -7.3404 H   0  0  0  0  0  0  0  0  0  0  0  0
    2.1885    0.6220   -7.6834 H   0  0  0  0  0  0  0  0  0  0  0  0
   -6.7256    2.0330   -0.2766 C   0  0  0  0  0  0  0  0  0  0  0  0
   -7.1824    1.1039   -0.9322 O   0  0  0  0  0  0  0  0  0  0  0  0
   -7.5276    2.6077    0.8435 C   0  0  0  0  0  0  0  0  0  0  0  0
   -8.1775    3.4344    0.5145 H   0  0  0  0  0  0  0  0  0  0  0  0
   -8.2057    1.8676    1.2980 H   0  0  0  0  0  0  0  0  0  0  0  0
   -6.9411    3.0162    1.6819 H   0  0  0  0  0  0  0  0  0  0  0  0
   -5.4935    2.6382   -0.4627 N   0  0  0  0  0  0  0  0  0  0  0  0
   -4.5619    2.2388   -1.4845 C   0  0  2  0  0  0  0  0  0  0  0  0
   -3.1535    2.4674   -0.9521 C   0  0  0  0  0  0  0  0  0  0  0  0
   -2.8634    3.3945   -0.1987 O   0  0  0  0  0  0  0  0  0  0  0  0
   -4.7883    3.0138   -2.7732 C   0  0  0  0  0  0  0  0  0  0  0  0
   -5.2337    3.4049    0.1551 H   0  0  0  0  0  0  0  0  0  0  0  0
   -4.7192    1.1682   -1.6549 H   0  0  0  0  0  0  0  0  0  0  0  0
   -4.6352    4.0886   -2.6221 H   0  0  0  0  0  0  0  0  0  0  0  0
   -4.0976    2.6887   -3.5582 H   0  0  0  0  0  0  0  0  0  0  0  0
   -5.8111    2.8719   -3.1387 H   0  0  0  0  0  0  0  0  0  0  0  0
   -2.2466    1.5400   -1.4507 N   0  0  0  0  0  0  0  0  0  0  0  0
   -0.8424    1.5707   -1.1286 C   0  0  2  0  0  0  0  0  0  0  0  0
   -0.3403    3.0087   -1.2421 C   0  0  0  0  0  0  0  0  0  0  0  0
    0.7218    3.3062   -1.7851 O   0  0  0  0  0  0  0  0  0  0  0  0
   -0.0313    0.5768   -1.9636 C   0  0  0  0  0  0  0  0  0  0  0  0
   -0.4464   -1.1544   -1.6425 S   0  0  0  0  0  0  0  0  0  0  0  0
   -2.5850    0.7815   -2.0381 H   0  0  0  0  0  0  0  0  0  0  0  0
   -0.7758    1.2792   -0.0730 H   0  0  0  0  0  0  0  0  0  0  0  0
   -0.1849    0.7576   -3.0324 H   0  0  0  0  0  0  0  0  0  0  0  0
    1.0373    0.7014   -1.7576 H   0  0  0  0  0  0  0  0  0  0  0  0
   -1.2047    3.9151   -0.6448 N   0  0  0  0  0  0  0  0  0  0  0  0
   -0.9368    5.3336   -0.6000 C   0  0  2  0  0  0  0  0  0  0  0  0
   -1.5304    5.8838    0.6901 C   0  0  0  0  0  0  0  0  0  0  0  0
   -2.5644    5.4480    1.1920 O   0  0  0  0  0  0  0  0  0  0  0  0
   -1.5174    6.0450   -1.8122 C   0  0  0  0  0  0  0  0  0  0  0  0
   -2.0837    3.5864   -0.2565 H   0  0  0  0  0  0  0  0  0  0  0  0
    0.1524    5.4493   -0.5800 H   0  0  0  0  0  0  0  0  0  0  0  0
   -2.6079    5.9401   -1.8493 H   0  0  0  0  0  0  0  0  0  0  0  0
   -1.2889    7.1156   -1.7912 H   0  0  0  0  0  0  0  0  0  0  0  0
   -1.1117    5.6279   -2.7403 H   0  0  0  0  0  0  0  0  0  0  0  0
   -0.7933    6.9473    1.1918 N   0  0  0  0  0  0  0  0  0  0  0  0
   -1.1757    7.6674    2.3839 C   0  0  0  0  0  0  0  0  0  0  0  0
    0.0724    7.2157    0.7332 H   0  0  0  0  0  0  0  0  0  0  0  0
   -1.7926    8.5350    2.1068 H   0  0  0  0  0  0  0  0  0  0  0  0
   -1.7529    7.0032    3.0441 H   0  0  0  0  0  0  0  0  0  0  0  0
   -0.2729    8.0124    2.9093 H   0  0  0  0  0  0  0  0  0  0  0  0
  1  3  1  0  0  0  0
  1  7  1  0  0  0  0
  1  2  2  0  0  0  0
 23 25  1  0  0  0  0
 23 29  1  0  0  0  0
 23 24  2  0  0  0  0
 50 51  1  0  0  0  0
 51 59  1  0  0  0  0
 51 52  2  0  0  0  0
  8  9  1  0  0  0  0
  9 17  1  0  0  0  0
  9 10  2  0  0  0  0
 30 31  1  0  0  0  0
 31 39  1  0  0  0  0
 31 32  2  0  0  0  0
 40 41  1  0  0  0  0
 41 49  1  0  0  0  0
 41 42  2  0  0  0  0
 50 53  1  0  0  0  0
 30 33  1  0  0  0  0
 59 60  1  0  0  0  0
 17 18  1  0  0  0  0
  8 11  1  0  0  0  0
 11 12  1  0  0  0  0
 40 43  1  0  0  0  0
 43 44  1  0  0  0  0
 49 50  1  0  0  0  0
  7  8  1  0  0  0  0
 29 30  1  0  0  0  0
 39 40  1  0  0  0  0
 12 44  1  0  0  0  0
  3  4  1  0  0  0  0
  3  5  1  0  0  0  0
  3  6  1  0  0  0  0
 25 26  1  0  0  0  0
 25 27  1  0  0  0  0
 25 28  1  0  0  0  0
 53 56  1  0  0  0  0
 53 57  1  0  0  0  0
 53 58  1  0  0  0  0
 33 36  1  0  0  0  0
 33 37  1  0  0  0  0
 33 38  1  0  0  0  0
 60 62  1  0  0  0  0
 60 63  1  0  0  0  0
 60 64  1  0  0  0  0
 18 20  1  0  0  0  0
 18 21  1  0  0  0  0
 18 22  1  0  0  0  0
 11 15  1  0  0  0  0
 11 16  1  0  0  0  0
 43 47  1  0  0  0  0
 43 48  1  0  0  0  0
 50 55  1  0  0  0  0
  8 14  1  0  0  0  0
 30 35  1  0  0  0  0
 40 46  1  0  0  0  0
 59 61  1  0  0  0  0
 17 19  1  0  0  0  0
  7 13  1  0  0  0  0
 29 34  1  0  0  0  0
 49 54  1  0  0  0  0
 39 45  1  0  0  0  0
M  END
$$$$

  -OEChem-05262214473D

 64 63  0     1  0  0  0  0  0999 V2000
   -0.0727   -5.3673   -5.5388 C   0  0  0  0  0  0  0  0  0  0  0  0
   -1.1990   -5.2729   -6.0124 O   0  0  0  0  0  0  0  0  0  0  0  0
    0.4567   -6.7109   -5.1613 C   0  0  0  0  0  0  0  0  0  0  0  0
    0.2226   -6.9772   -4.1180 H   0  0  0  0  0  0  0  0  0  0  0  0
    0.0247   -7.5199   -5.7722 H   0  0  0  0  0  0  0  0  0  0  0  0
    1.5481   -6.8302   -5.2529 H   0  0  0  0  0  0  0  0  0  0  0  0
    0.8071   -4.3248   -5.3038 N   0  0  0  0  0  0  0  0  0  0  0  0
    0.4987   -2.9480   -5.5969 C   0  0  2  0  0  0  0  0  0  0  0  0
    1.7734   -2.2424   -6.0551 C   0  0  0  0  0  0  0  0  0  0  0  0
    2.8791   -2.7795   -6.0380 O   0  0  0  0  0  0  0  0  0  0  0  0
   -0.1975   -2.2455   -4.4286 C   0  0  0  0  0  0  0  0  0  0  0  0
    0.8248   -2.1349   -2.9236 S   0  0  0  0  0  0  0  0  0  0  0  0
    1.7174   -4.5416   -4.9041 H   0  0  0  0  0  0  0  0  0  0  0  0
   -0.1897   -2.9756   -6.4507 H   0  0  0  0  0  0  0  0  0  0  0  0
   -0.4812   -1.2255   -4.7075 H   0  0  0  0  0  0  0  0  0  0  0  0
   -1.1145   -2.7826   -4.1633 H   0  0  0  0  0  0  0  0  0  0  0  0
    1.5340   -0.9371   -6.4606 N   0  0  0  0  0  0  0  0  0  0  0  0
    2.5853   -0.0571   -6.9144 C   0  0  0  0  0  0  0  0  0  0  0  0
    0.5806   -0.5875   -6.4832 H   0  0  0  0  0  0  0  0  0  0  0  0
    2.9635    0.5314   -6.0655 H   0  0  0  0  0  0  0  0  0  0  0  0
    3.4049   -0.6544   -7.3404 H   0  0  0  0  0  0  0  0  0  0  0  0
    2.1885    0.6220   -7.6834 H   0  0  0  0  0  0  0  0  0  0  0  0
   -6.7256    2.0330   -0.2766 C   0  0  0  0  0  0  0  0  0  0  0  0
   -7.1824    1.1039   -0.9322 O   0  0  0  0  0  0  0  0  0  0  0  0
   -7.5276    2.6077    0.8435 C   0  0  0  0  0  0  0  0  0  0  0  0
   -8.1775    3.4344    0.5145 H   0  0  0  0  0  0  0  0  0  0  0  0
   -8.2057    1.8676    1.2980 H   0  0  0  0  0  0  0  0  0  0  0  0
   -6.9411    3.0162    1.6819 H   0  0  0  0  0  0  0  0  0  0  0  0
   -5.4935    2.6382   -0.4627 N   0  0  0  0  0  0  0  0  0  0  0  0
   -4.5619    2.2388   -1.4845 C   0  0  2  0  0  0  0  0  0  0  0  0
   -3.1535    2.4674   -0.9521 C   0  0  0  0  0  0  0  0  0  0  0  0
   -2.8634    3.3945   -0.1987 O   0  0  0  0  0  0  0  0  0  0  0  0
   -4.7883    3.0138   -2.7732 C   0  0  0  0  0  0  0  0  0  0  0  0
   -5.2337    3.4049    0.1551 H   0  0  0  0  0  0  0  0  0  0  0  0
   -4.7192    1.1682   -1.6549 H   0  0  0  0  0  0  0  0  0  0  0  0
   -4.6352    4.0886   -2.6221 H   0  0  0  0  0  0  0  0  0  0  0  0
   -4.0976    2.6887   -3.5582 H   0  0  0  0  0  0  0  0  0  0  0  0
   -5.8111    2.8719   -3.1387 H   0  0  0  0  0  0  0  0  0  0  0  0
   -2.2466    1.5400   -1.4507 N   0  0  0  0  0  0  0  0  0  0  0  0
   -0.8424    1.5707   -1.1286 C   0  0  2  0  0  0  0  0  0  0  0  0
   -0.3403    3.0087   -1.2421 C   0  0  0  0  0  0  0  0  0  0  0  0
    0.5665    3.3433   -2.0018 O   0  0  0  0  0  0  0  0  0  0  0  0
   -0.0313    0.5768   -1.9636 C   0  0  0  0  0  0  0  0  0  0  0  0
   -0.4464   -1.1544   -1.6425 S   0  0  0  0  0  0  0  0  0  0  0  0
   -2.5850    0.7815   -2.0381 H   0  0  0  0  0  0  0  0  0  0  0  0
   -0.7758    1.2792   -0.0730 H   0  0  0  0  0  0  0  0  0  0  0  0
   -0.1849    0.7576   -3.0324 H   0  0  0  0  0  0  0  0  0  0  0  0
    1.0373    0.7014   -1.7576 H   0  0  0  0  0  0  0  0  0  0  0  0
   -1.0063    3.8669   -0.3788 N   0  0  0  0  0  0  0  0  0  0  0  0
   -0.6934    5.2736   -0.2837 C   0  0  2  0  0  0  0  0  0  0  0  0
   -0.9394    5.7140    1.1534 C   0  0  0  0  0  0  0  0  0  0  0  0
   -1.8330    5.2449    1.8551 O   0  0  0  0  0  0  0  0  0  0  0  0
   -1.5296    6.0933   -1.2540 C   0  0  0  0  0  0  0  0  0  0  0  0
   -1.7742    3.5131    0.1842 H   0  0  0  0  0  0  0  0  0  0  0  0
    0.3709    5.3776   -0.5211 H   0  0  0  0  0  0  0  0  0  0  0  0
   -2.5991    6.0016   -1.0319 H   0  0  0  0  0  0  0  0  0  0  0  0
   -1.2710    7.1560   -1.2010 H   0  0  0  0  0  0  0  0  0  0  0  0
   -1.3740    5.7555   -2.2843 H   0  0  0  0  0  0  0  0  0  0  0  0
   -0.0711    6.7231    1.5458 N   0  0  0  0  0  0  0  0  0  0  0  0
   -0.1310    7.3395    2.8506 C   0  0  0  0  0  0  0  0  0  0  0  0
    0.6649    7.0230    0.9133 H   0  0  0  0  0  0  0  0  0  0  0  0
   -0.7705    8.2333    2.8054 H   0  0  0  0  0  0  0  0  0  0  0  0
   -0.5501    6.6251    3.5745 H   0  0  0  0  0  0  0  0  0  0  0  0
    0.8822    7.6293    3.1659 H   0  0  0  0  0  0  0  0  0  0  0  0
  1  3  1  0  0  0  0
  1  7  1  0  0  0  0
  1  2  2  0  0  0  0
 23 25  1  0  0  0  0
 23 29  1  0  0  0  0
 23 24  2  0  0  0  0
 50 51  1  0  0  0  0
 51 59  1  0  0  0  0
 51 52  2  0  0  0  0
  8  9  1  0  0  0  0
  9 17  1  0  0  0  0
  9 10  2  0  0  0  0
 30 31  1  0  0  0  0
 31 39  1  0  0  0  0
 31 32  2  0  0  0  0
 40 41  1  0  0  0  0
 41 49  1  0  0  0  0
 41 42  2  0  0  0  0
 50 53  1  0  0  0  0
 30 33  1  0  0  0  0
 59 60  1  0  0  0  0
 17 18  1  0  0  0  0
  8 11  1  0  0  0  0
 11 12  1  0  0  0  0
 40 43  1  0  0  0  0
 43 44  1  0  0  0  0
 49 50  1  0  0  0  0
  7  8  1  0  0  0  0
 29 30  1  0  0  0  0
 39 40  1  0  0  0  0
 12 44  1  0  0  0  0
  3  4  1  0  0  0  0
  3  5  1  0  0  0  0
  3  6  1  0  0  0  0
 25 26  1  0  0  0  0
 25 27  1  0  0  0  0
 25 28  1  0  0  0  0
 53 56  1  0  0  0  0
 53 57  1  0  0  0  0
 53 58  1  0  0  0  0
 33 36  1  0  0  0  0
 33 37  1  0  0  0  0
 33 38  1  0  0  0  0
 60 62  1  0  0  0  0
 60 63  1  0  0  0  0
 60 64  1  0  0  0  0
 18 20  1  0  0  0  0
 18 21  1  0  0  0  0
 18 22  1  0  0  0  0
 11 15  1  0  0  0  0
 11 16  1  0  0  0  0
 43 47  1  0  0  0  0
 43 48  1  0  0  0  0
 50 55  1  0  0  0  0
  8 14  1  0  0  0  0
 30 35  1  0  0  0  0
 40 46  1  0  0  0  0
 59 61  1  0  0  0  0
 17 19  1  0  0  0  0
  7 13  1  0  0  0  0
 29 34  1  0  0  0  0
 49 54  1  0  0  0  0
 39 45  1  0  0  0  0
M  END
$$$$

  -OEChem-05262214473D

 64 63  0     1  0  0  0  0  0999 V2000
   -0.0727   -5.3673   -5.5388 C   0  0  0  0  0  0  0  0  0  0  0  0
   -1.1990   -5.2729   -6.0124 O   0  0  0  0  0  0  0  0  0  0  0  0
    0.4567   -6.7109   -5.1613 C   0  0  0  0  0  0  0  0  0  0  0  0
    0.2226   -6.9772   -4.1180 H   0  0  0  0  0  0  0  0  0  0  0  0
    0.0247   -7.5199   -5.7722 H   0  0  0  0  0  0  0  0  0  0  0  0
    1.5481   -6.8302   -5.2529 H   0  0  0  0  0  0  0  0  0  0  0  0
    0.8071   -4.3248   -5.3038 N   0  0  0  0  0  0  0  0  0  0  0  0
    0.4987   -2.9480   -5.5969 C   0  0  2  0  0  0  0  0  0  0  0  0
    1.7734   -2.2424   -6.0551 C   0  0  0  0  0  0  0  0  0  0  0  0
    2.8791   -2.7795   -6.0380 O   0  0  0  0  0  0  0  0  0  0  0  0
   -0.1975   -2.2455   -4.4286 C   0  0  0  0  0  0  0  0  0  0  0  0
    0.8248   -2.1349   -2.9236 S   0  0  0  0  0  0  0  0  0  0  0  0
    1.7174   -4.5416   -4.9041 H   0  0  0  0  0  0  0  0  0  0  0  0
   -0.1897   -2.9756   -6.4507 H   0  0  0  0  0  0  0  0  0  0  0  0
   -0.4812   -1.2255   -4.7075 H   0  0  0  0  0  0  0  0  0  0  0  0
   -1.1145   -2.7826   -4.1633 H   0  0  0  0  0  0  0  0  0  0  0  0
    1.5340   -0.9371   -6.4606 N   0  0  0  0  0  0  0  0  0  0  0  0
    2.5853   -0.0571   -6.9144 C   0  0  0  0  0  0  0  0  0  0  0  0
    0.5806   -0.5875   -6.4832 H   0  0  0  0  0  0  0  0  0  0  0  0
    2.9635    0.5314   -6.0655 H   0  0  0  0  0  0  0  0  0  0  0  0
    3.4049   -0.6544   -7.3404 H   0  0  0  0  0  0  0  0  0  0  0  0
    2.1885    0.6220   -7.6834 H   0  0  0  0  0  0  0  0  0  0  0  0
   -6.7256    2.0330   -0.2766 C   0  0  0  0  0  0  0  0  0  0  0  0
   -7.1824    1.1039   -0.9322 O   0  0  0  0  0  0  0  0  0  0  0  0
   -7.5276    2.6077    0.8435 C   0  0  0  0  0  0  0  0  0  0  0  0
   -8.1775    3.4344    0.5145 H   0  0  0  0  0  0  0  0  0  0  0  0
   -8.2057    1.8676    1.2980 H   0  0  0  0  0  0  0  0  0  0  0  0
   -6.9411    3.0162    1.6819 H   0  0  0  0  0  0  0  0  0  0  0  0
   -5.4935    2.6382   -0.4627 N   0  0  0  0  0  0  0  0  0  0  0  0
   -4.5619    2.2388   -1.4845 C   0  0  2  0  0  0  0  0  0  0  0  0
   -3.1535    2.4674   -0.9521 C   0  0  0  0  0  0  0  0  0  0  0  0
   -2.8634    3.3945   -0.1987 O   0  0  0  0  0  0  0  0  0  0  0  0
   -4.7883    3.0138   -2.7732 C   0  0  0  0  0  0  0  0  0  0  0  0
   -5.2337    3.4049    0.1551 H   0  0  0  0  0  0  0  0  0  0  0  0
   -4.7192    1.1682   -1.6549 H   0  0  0  0  0  0  0  0  0  0  0  0
   -4.6352    4.0886   -2.6221 H   0  0  0  0  0  0  0  0  0  0  0  0
   -4.0976    2.6887   -3.5582 H   0  0  0  0  0  0  0  0  0  0  0  0
   -5.8111    2.8719   -3.1387 H   0  0  0  0  0  0  0  0  0  0  0  0
   -2.2466    1.5400   -1.4507 N   0  0  0  0  0  0  0  0  0  0  0  0
   -0.8424    1.5707   -1.1286 C   0  0  2  0  0  0  0  0  0  0  0  0
   -0.3403    3.0087   -1.2421 C   0  0  0  0  0  0  0  0  0  0  0  0
    0.3644    3.4005   -2.1701 O   0  0  0  0  0  0  0  0  0  0  0  0
   -0.0313    0.5768   -1.9636 C   0  0  0  0  0  0  0  0  0  0  0  0
   -0.4464   -1.1544   -1.6425 S   0  0  0  0  0  0  0  0  0  0  0  0
   -2.5850    0.7815   -2.0381 H   0  0  0  0  0  0  0  0  0  0  0  0
   -0.7758    1.2792   -0.0730 H   0  0  0  0  0  0  0  0  0  0  0  0
   -0.1849    0.7576   -3.0324 H   0  0  0  0  0  0  0  0  0  0  0  0
    1.0373    0.7014   -1.7576 H   0  0  0  0  0  0  0  0  0  0  0  0
   -0.7509    3.7939   -0.1742 N   0  0  0  0  0  0  0  0  0  0  0  0
   -0.3825    5.1841   -0.0425 C   0  0  2  0  0  0  0  0  0  0  0  0
   -0.2588    5.4992    1.4424 C   0  0  0  0  0  0  0  0  0  0  0  0
   -0.9689    4.9783    2.3001 O   0  0  0  0  0  0  0  0  0  0  0  0
   -1.4045    6.0928   -0.7077 C   0  0  0  0  0  0  0  0  0  0  0  0
   -1.3692    3.3988    0.5282 H   0  0  0  0  0  0  0  0  0  0  0  0
    0.5950    5.2992   -0.5235 H   0  0  0  0  0  0  0  0  0  0  0  0
   -2.3902    5.9913   -0.2392 H   0  0  0  0  0  0  0  0  0  0  0  0
   -1.1092    7.1445   -0.6318 H   0  0  0  0  0  0  0  0  0  0  0  0
   -1.5139    5.8450   -1.7691 H   0  0  0  0  0  0  0  0  0  0  0  0
    0.7084    6.4625    1.6927 N   0  0  0  0  0  0  0  0  0  0  0  0
    0.9856    6.9629    3.0189 C   0  0  0  0  0  0  0  0  0  0  0  0
    1.2774    6.8102    0.9265 H   0  0  0  0  0  0  0  0  0  0  0  0
    0.3811    7.8628    3.2056 H   0  0  0  0  0  0  0  0  0  0  0  0
    0.7337    6.1916    3.7617 H   0  0  0  0  0  0  0  0  0  0  0  0
    2.0532    7.2152    3.0998 H   0  0  0  0  0  0  0  0  0  0  0  0
  1  3  1  0  0  0  0
  1  7  1  0  0  0  0
  1  2  2  0  0  0  0
 23 25  1  0  0  0  0
 23 29  1  0  0  0  0
 23 24  2  0  0  0  0
 50 51  1  0  0  0  0
 51 59  1  0  0  0  0
 51 52  2  0  0  0  0
  8  9  1  0  0  0  0
  9 17  1  0  0  0  0
  9 10  2  0  0  0  0
 30 31  1  0  0  0  0
 31 39  1  0  0  0  0
 31 32  2  0  0  0  0
 40 41  1  0  0  0  0
 41 49  1  0  0  0  0
 41 42  2  0  0  0  0
 50 53  1  0  0  0  0
 30 33  1  0  0  0  0
 59 60  1  0  0  0  0
 17 18  1  0  0  0  0
  8 11  1  0  0  0  0
 11 12  1  0  0  0  0
 40 43  1  0  0  0  0
 43 44  1  0  0  0  0
 49 50  1  0  0  0  0
  7  8  1  0  0  0  0
 29 30  1  0  0  0  0
 39 40  1  0  0  0  0
 12 44  1  0  0  0  0
  3  4  1  0  0  0  0
  3  5  1  0  0  0  0
  3  6  1  0  0  0  0
 25 26  1  0  0  0  0
 25 27  1  0  0  0  0
 25 28  1  0  0  0  0
 53 56  1  0  0  0  0
 53 57  1  0  0  0  0
 53 58  1  0  0  0  0
 33 36  1  0  0  0  0
 33 37  1  0  0  0  0
 33 38  1  0  0  0  0
 60 62  1  0  0  0  0
 60 63  1  0  0  0  0
 60 64  1  0  0  0  0
 18 20  1  0  0  0  0
 18 21  1  0  0  0  0
 18 22  1  0  0  0  0
 11 15  1  0  0  0  0
 11 16  1  0  0  0  0
 43 47  1  0  0  0  0
 43 48  1  0  0  0  0
 50 55  1  0  0  0  0
  8 14  1  0  0  0  0
 30 35  1  0  0  0  0
 40 46  1  0  0  0  0
 59 61  1  0  0  0  0
 17 19  1  0  0  0  0
  7 13  1  0  0  0  0
 29 34  1  0  0  0  0
 49 54  1  0  0  0  0
 39 45  1  0  0  0  0
M  END
$$$$

  -OEChem-05262214473D

 64 63  0     1  0  0  0  0  0999 V2000
   -0.0727   -5.3673   -5.5388 C   0  0  0  0  0  0  0  0  0  0  0  0
   -1.1990   -5.2729   -6.0124 O   0  0  0  0  0  0  0  0  0  0  0  0
    0.4567   -6.7109   -5.1613 C   0  0  0  0  0  0  0  0  0  0  0  0
    0.2226   -6.9772   -4.1180 H   0  0  0  0  0  0  0  0  0  0  0  0
    0.0247   -7.5199   -5.7722 H   0  0  0  0  0  0  0  0  0  0  0  0
    1.5481   -6.8302   -5.2529 H   0  0  0  0  0  0  0  0  0  0  0  0
    0.8071   -4.3248   -5.3038 N   0  0  0  0  0  0  0  0  0  0  0  0
    0.4987   -2.9480   -5.5969 C   0  0  2  0  0  0  0  0  0  0  0  0
    1.7734   -2.2424   -6.0551 C   0  0  0  0  0  0  0  0  0  0  0  0
    2.8791   -2.7795   -6.0380 O   0  0  0  0  0  0  0  0  0  0  0  0
   -0.1975   -2.2455   -4.4286 C   0  0  0  0  0  0  0  0  0  0  0  0
    0.8248   -2.1349   -2.9236 S   0  0  0  0  0  0  0  0  0  0  0  0
    1.7174   -4.5416   -4.9041 H   0  0  0  0  0  0  0  0  0  0  0  0
   -0.1897   -2.9756   -6.4507 H   0  0  0  0  0  0  0  0  0  0  0  0
   -0.4812   -1.2255   -4.7075 H   0  0  0  0  0  0  0  0  0  0  0  0
   -1.1145   -2.7826   -4.1633 H   0  0  0  0  0  0  0  0  0  0  0  0
    1.5340   -0.9371   -6.4606 N   0  0  0  0  0  0  0  0  0  0  0  0
    2.5853   -0.0571   -6.9144 C   0  0  0  0  0  0  0  0  0  0  0  0
    0.5806   -0.5875   -6.4832 H   0  0  0  0  0  0  0  0  0  0  0  0
    2.9635    0.5314   -6.0655 H   0  0  0  0  0  0  0  0  0  0  0  0
    3.4049   -0.6544   -7.3404 H   0  0  0  0  0  0  0  0  0  0  0  0
    2.1885    0.6220   -7.6834 H   0  0  0  0  0  0  0  0  0  0  0  0
   -6.7256    2.0330   -0.2766 C   0  0  0  0  0  0  0  0  0  0  0  0
   -7.1824    1.1039   -0.9322 O   0  0  0  0  0  0  0  0  0  0  0  0
   -7.5276    2.6077    0.8435 C   0  0  0  0  0  0  0  0  0  0  0  0
   -8.1775    3.4344    0.5145 H   0  0  0  0  0  0  0  0  0  0  0  0
   -8.2057    1.8676    1.2980 H   0  0  0  0  0  0  0  0  0  0  0  0
   -6.9411    3.0162    1.6819 H   0  0  0  0  0  0  0  0  0  0  0  0
   -5.4935    2.6382   -0.4627 N   0  0  0  0  0  0  0  0  0  0  0  0
   -4.5619    2.2388   -1.4845 C   0  0  2  0  0  0  0  0  0  0  0  0
   -3.1535    2.4674   -0.9521 C   0  0  0  0  0  0  0  0  0  0  0  0
   -2.8634    3.3945   -0.1987 O   0  0  0  0  0  0  0  0  0  0  0  0
   -4.7883    3.0138   -2.7732 C   0  0  0  0  0  0  0  0  0  0  0  0
   -5.2337    3.4049    0.1551 H   0  0  0  0  0  0  0  0  0  0  0  0
   -4.7192    1.1682   -1.6549 H   0  0  0  0  0  0  0  0  0  0  0  0
   -4.6352    4.0886   -2.6221 H   0  0  0  0  0  0  0  0  0  0  0  0
   -4.0976    2.6887   -3.5582 H   0  0  0  0  0  0  0  0  0  0  0  0
   -5.8111    2.8719   -3.1387 H   0  0  0  0  0  0  0  0  0  0  0  0
   -2.2466    1.5400   -1.4507 N   0  0  0  0  0  0  0  0  0  0  0  0
   -0.8424    1.5707   -1.1286 C   0  0  2  0  0  0  0  0  0  0  0  0
   -0.3403    3.0087   -1.2421 C   0  0  0  0  0  0  0  0  0  0  0  0
    0.1293    3.4740   -2.2786 O   0  0  0  0  0  0  0  0  0  0  0  0
   -0.0313    0.5768   -1.9636 C   0  0  0  0  0  0  0  0  0  0  0  0
   -0.4464   -1.1544   -1.6425 S   0  0  0  0  0  0  0  0  0  0  0  0
   -2.5850    0.7815   -2.0381 H   0  0  0  0  0  0  0  0  0  0  0  0
   -0.7758    1.2792   -0.0730 H   0  0  0  0  0  0  0  0  0  0  0  0
   -0.1849    0.7576   -3.0324 H   0  0  0  0  0  0  0  0  0  0  0  0
    1.0373    0.7014   -1.7576 H   0  0  0  0  0  0  0  0  0  0  0  0
   -0.4557    3.7010   -0.0451 N   0  0  0  0  0  0  0  0  0  0  0  0
   -0.0251    5.0711    0.1071 C   0  0  2  0  0  0  0  0  0  0  0  0
    0.4648    5.2541    1.5375 C   0  0  0  0  0  0  0  0  0  0  0  0
   -0.0309    4.6664    2.4966 O   0  0  0  0  0  0  0  0  0  0  0  0
   -1.1505    6.0433   -0.2106 C   0  0  0  0  0  0  0  0  0  0  0  0
   -0.8964    3.2514    0.7520 H   0  0  0  0  0  0  0  0  0  0  0  0
    0.8093    5.2193   -0.5871 H   0  0  0  0  0  0  0  0  0  0  0  0
   -1.9955    5.9098    0.4747 H   0  0  0  0  0  0  0  0  0  0  0  0
   -0.8144    7.0818   -0.1225 H   0  0  0  0  0  0  0  0  0  0  0  0
   -1.5217    5.8903   -1.2297 H   0  0  0  0  0  0  0  0  0  0  0  0
    1.4921    6.1833    1.6225 N   0  0  0  0  0  0  0  0  0  0  0  0
    2.0978    6.5633    2.8773 C   0  0  0  0  0  0  0  0  0  0  0  0
    1.8681    6.5918    0.7718 H   0  0  0  0  0  0  0  0  0  0  0  0
    1.5839    7.4487    3.2799 H   0  0  0  0  0  0  0  0  0  0  0  0
    2.0111    5.7323    3.5928 H   0  0  0  0  0  0  0  0  0  0  0  0
    3.1602    6.7983    2.7153 H   0  0  0  0  0  0  0  0  0  0  0  0
  1  3  1  0  0  0  0
  1  7  1  0  0  0  0
  1  2  2  0  0  0  0
 23 25  1  0  0  0  0
 23 29  1  0  0  0  0
 23 24  2  0  0  0  0
 50 51  1  0  0  0  0
 51 59  1  0  0  0  0
 51 52  2  0  0  0  0
  8  9  1  0  0  0  0
  9 17  1  0  0  0  0
  9 10  2  0  0  0  0
 30 31  1  0  0  0  0
 31 39  1  0  0  0  0
 31 32  2  0  0  0  0
 40 41  1  0  0  0  0
 41 49  1  0  0  0  0
 41 42  2  0  0  0  0
 50 53  1  0  0  0  0
 30 33  1  0  0  0  0
 59 60  1  0  0  0  0
 17 18  1  0  0  0  0
  8 11  1  0  0  0  0
 11 12  1  0  0  0  0
 40 43  1  0  0  0  0
 43 44  1  0  0  0  0
 49 50  1  0  0  0  0
  7  8  1  0  0  0  0
 29 30  1  0  0  0  0
 39 40  1  0  0  0  0
 12 44  1  0  0  0  0
  3  4  1  0  0  0  0
  3  5  1  0  0  0  0
  3  6  1  0  0  0  0
 25 26  1  0  0  0  0
 25 27  1  0  0  0  0
 25 28  1  0  0  0  0
 53 56  1  0  0  0  0
 53 57  1  0  0  0  0
 53 58  1  0  0  0  0
 33 36  1  0  0  0  0
 33 37  1  0  0  0  0
 33 38  1  0  0  0  0
 60 62  1  0  0  0  0
 60 63  1  0  0  0  0
 60 64  1  0  0  0  0
 18 20  1  0  0  0  0
 18 21  1  0  0  0  0
 18 22  1  0  0  0  0
 11 15  1  0  0  0  0
 11 16  1  0  0  0  0
 43 47  1  0  0  0  0
 43 48  1  0  0  0  0
 50 55  1  0  0  0  0
  8 14  1  0  0  0  0
 30 35  1  0  0  0  0
 40 46  1  0  0  0  0
 59 61  1  0  0  0  0
 17 19  1  0  0  0  0
  7 13  1  0  0  0  0
 29 34  1  0  0  0  0
 49 54  1  0  0  0  0
 39 45  1  0  0  0  0
M  END
$$$$

  -OEChem-05262214473D

 64 63  0     1  0  0  0  0  0999 V2000
   -0.0727   -5.3673   -5.5388 C   0  0  0  0  0  0  0  0  0  0  0  0
   -1.1990   -5.2729   -6.0124 O   0  0  0  0  0  0  0  0  0  0  0  0
    0.4567   -6.7109   -5.1613 C   0  0  0  0  0  0  0  0  0  0  0  0
    0.2226   -6.9772   -4.1180 H   0  0  0  0  0  0  0  0  0  0  0  0
    0.0247   -7.5199   -5.7722 H   0  0  0  0  0  0  0  0  0  0  0  0
    1.5481   -6.8302   -5.2529 H   0  0  0  0  0  0  0  0  0  0  0  0
    0.8071   -4.3248   -5.3038 N   0  0  0  0  0  0  0  0  0  0  0  0
    0.4987   -2.9480   -5.5969 C   0  0  2  0  0  0  0  0  0  0  0  0
    1.7734   -2.2424   -6.0551 C   0  0  0  0  0  0  0  0  0  0  0  0
    2.8791   -2.7795   -6.0380 O   0  0  0  0  0  0  0  0  0  0  0  0
   -0.1975   -2.2455   -4.4286 C   0  0  0  0  0  0  0  0  0  0  0  0
    0.8248   -2.1349   -2.9236 S   0  0  0  0  0  0  0  0  0  0  0  0
    1.7174   -4.5416   -4.9041 H   0  0  0  0  0  0  0  0  0  0  0  0
   -0.1897   -2.9756   -6.4507 H   0  0  0  0  0  0  0  0  0  0  0  0
   -0.4812   -1.2255   -4.7075 H   0  0  0  0  0  0  0  0  0  0  0  0
   -1.1145   -2.7826   -4.1633 H   0  0  0  0  0  0  0  0  0  0  0  0
    1.5340   -0.9371   -6.4606 N   0  0  0  0  0  0  0  0  0  0  0  0
    2.5853   -0.0571   -6.9144 C   0  0  0  0  0  0  0  0  0  0  0  0
    0.5806   -0.5875   -6.4832 H   0  0  0  0  0  0  0  0  0  0  0  0
    2.9635    0.5314   -6.0655 H   0  0  0  0  0  0  0  0  0  0  0  0
    3.4049   -0.6544   -7.3404 H   0  0  0  0  0  0  0  0  0  0  0  0
    2.1885    0.6220   -7.6834 H   0  0  0  0  0  0  0  0  0  0  0  0
   -6.7256    2.0330   -0.2766 C   0  0  0  0  0  0  0  0  0  0  0  0
   -7.1824    1.1039   -0.9322 O   0  0  0  0  0  0  0  0  0  0  0  0
   -7.5276    2.6077    0.8435 C   0  0  0  0  0  0  0  0  0  0  0  0
   -8.1775    3.4344    0.5145 H   0  0  0  0  0  0  0  0  0  0  0  0
   -8.2057    1.8676    1.2980 H   0  0  0  0  0  0  0  0  0  0  0  0
   -6.9411    3.0162    1.6819 H   0  0  0  0  0  0  0  0  0  0  0  0
   -5.4935    2.6382   -0.4627 N   0  0  0  0  0  0  0  0  0  0  0  0
   -4.5619    2.2388   -1.4845 C   0  0  2  0  0  0  0  0  0  0  0  0
   -3.1535    2.4674   -0.9521 C   0  0  0  0  0  0  0  0  0  0  0  0
   -2.8634    3.3945   -0.1987 O   0  0  0  0  0  0  0  0  0  0  0  0
   -4.7883    3.0138   -2.7732 C   0  0  0  0  0  0  0  0  0  0  0  0
   -5.2337    3.4049    0.1551 H   0  0  0  0  0  0  0  0  0  0  0  0
   -4.7192    1.1682   -1.6549 H   0  0  0  0  0  0  0  0  0  0  0  0
   -4.6352    4.0886   -2.6221 H   0  0  0  0  0  0  0  0  0  0  0  0
   -4.0976    2.6887   -3.5582 H   0  0  0  0  0  0  0  0  0  0  0  0
   -5.8111    2.8719   -3.1387 H   0  0  0  0  0  0  0  0  0  0  0  0
   -2.2466    1.5400   -1.4507 N   0  0  0  0  0  0  0  0  0  0  0  0
   -0.8424    1.5707   -1.1286 C   0  0  2  0  0  0  0  0  0  0  0  0
   -0.3403    3.0087   -1.2421 C   0  0  0  0  0  0  0  0  0  0  0  0
   -0.1228    3.5588   -2.3198 O   0  0  0  0  0  0  0  0  0  0  0  0
   -0.0313    0.5768   -1.9636 C   0  0  0  0  0  0  0  0  0  0  0  0
   -0.4464   -1.1544   -1.6425 S   0  0  0  0  0  0  0  0  0  0  0  0
   -2.5850    0.7815   -2.0381 H   0  0  0  0  0  0  0  0  0  0  0  0
   -0.7758    1.2792   -0.0730 H   0  0  0  0  0  0  0  0  0  0  0  0
   -0.1849    0.7576   -3.0324 H   0  0  0  0  0  0  0  0  0  0  0  0
    1.0373    0.7014   -1.7576 H   0  0  0  0  0  0  0  0  0  0  0  0
   -0.1408    3.5946   -0.0002 N   0  0  0  0  0  0  0  0  0  0  0  0
    0.3544    4.9424    0.1548 C   0  0  2  0  0  0  0  0  0  0  0  0
    1.1822    4.9952    1.4321 C   0  0  0  0  0  0  0  0  0  0  0  0
    0.9170    4.3302    2.4314 O   0  0  0  0  0  0  0  0  0  0  0  0
   -0.7850    5.9484    0.2035 C   0  0  0  0  0  0  0  0  0  0  0  0
   -0.3880    3.0809    0.8405 H   0  0  0  0  0  0  0  0  0  0  0  0
    0.9993    5.1435   -0.7076 H   0  0  0  0  0  0  0  0  0  0  0  0
   -1.4419    5.7628    1.0611 H   0  0  0  0  0  0  0  0  0  0  0  0
   -0.4068    6.9722    0.2923 H   0  0  0  0  0  0  0  0  0  0  0  0
   -1.3969    5.8883   -0.7030 H   0  0  0  0  0  0  0  0  0  0  0  0
    2.2267    5.9045    1.3399 N   0  0  0  0  0  0  0  0  0  0  0  0
    3.1300    6.1680    2.4356 C   0  0  0  0  0  0  0  0  0  0  0  0
    2.3968    6.3825    0.4599 H   0  0  0  0  0  0  0  0  0  0  0  0
    2.7558    7.0192    3.0234 H   0  0  0  0  0  0  0  0  0  0  0  0
    3.1949    5.2784    3.0792 H   0  0  0  0  0  0  0  0  0  0  0  0
    4.1277    6.4070    2.0387 H   0  0  0  0  0  0  0  0  0  0  0  0
  1  3  1  0  0  0  0
  1  7  1  0  0  0  0
  1  2  2  0  0  0  0
 23 25  1  0  0  0  0
 23 29  1  0  0  0  0
 23 24  2  0  0  0  0
 50 51  1  0  0  0  0
 51 59  1  0  0  0  0
 51 52  2  0  0  0  0
  8  9  1  0  0  0  0
  9 17  1  0  0  0  0
  9 10  2  0  0  0  0
 30 31  1  0  0  0  0
 31 39  1  0  0  0  0
 31 32  2  0  0  0  0
 40 41  1  0  0  0  0
 41 49  1  0  0  0  0
 41 42  2  0  0  0  0
 50 53  1  0  0  0  0
 30 33  1  0  0  0  0
 59 60  1  0  0  0  0
 17 18  1  0  0  0  0
  8 11  1  0  0  0  0
 11 12  1  0  0  0  0
 40 43  1  0  0  0  0
 43 44  1  0  0  0  0
 49 50  1  0  0  0  0
  7  8  1  0  0  0  0
 29 30  1  0  0  0  0
 39 40  1  0  0  0  0
 12 44  1  0  0  0  0
  3  4  1  0  0  0  0
  3  5  1  0  0  0  0
  3  6  1  0  0  0  0
 25 26  1  0  0  0  0
 25 27  1  0  0  0  0
 25 28  1  0  0  0  0
 53 56  1  0  0  0  0
 53 57  1  0  0  0  0
 53 58  1  0  0  0  0
 33 36  1  0  0  0  0
 33 37  1  0  0  0  0
 33 38  1  0  0  0  0
 60 62  1  0  0  0  0
 60 63  1  0  0  0  0
 60 64  1  0  0  0  0
 18 20  1  0  0  0  0
 18 21  1  0  0  0  0
 18 22  1  0  0  0  0
 11 15  1  0  0  0  0
 11 16  1  0  0  0  0
 43 47  1  0  0  0  0
 43 48  1  0  0  0  0
 50 55  1  0  0  0  0
  8 14  1  0  0  0  0
 30 35  1  0  0  0  0
 40 46  1  0  0  0  0
 59 61  1  0  0  0  0
 17 19  1  0  0  0  0
  7 13  1  0  0  0  0
 29 34  1  0  0  0  0
 49 54  1  0  0  0  0
 39 45  1  0  0  0  0
M  END
$$$$

  -OEChem-05262214473D

 64 63  0     1  0  0  0  0  0999 V2000
   -0.0727   -5.3673   -5.5388 C   0  0  0  0  0  0  0  0  0  0  0  0
   -1.1990   -5.2729   -6.0124 O   0  0  0  0  0  0  0  0  0  0  0  0
    0.4567   -6.7109   -5.1613 C   0  0  0  0  0  0  0  0  0  0  0  0
    0.2226   -6.9772   -4.1180 H   0  0  0  0  0  0  0  0  0  0  0  0
    0.0247   -7.5199   -5.7722 H   0  0  0  0  0  0  0  0  0  0  0  0
    1.5481   -6.8302   -5.2529 H   0  0  0  0  0  0  0  0  0  0  0  0
    0.8071   -4.3248   -5.3038 N   0  0  0  0  0  0  0  0  0  0  0  0
    0.4987   -2.9480   -5.5969 C   0  0  2  0  0  0  0  0  0  0  0  0
    1.7734   -2.2424   -6.0551 C   0  0  0  0  0  0  0  0  0  0  0  0
    2.8791   -2.7795   -6.0380 O   0  0  0  0  0  0  0  0  0  0  0  0
   -0.1975   -2.2455   -4.4286 C   0  0  0  0  0  0  0  0  0  0  0  0
    0.8248   -2.1349   -2.9236 S   0  0  0  0  0  0  0  0  0  0  0  0
    1.7174   -4.5416   -4.9041 H   0  0  0  0  0  0  0  0  0  0  0  0
   -0.1897   -2.9756   -6.4507 H   0  0  0  0  0  0  0  0  0  0  0  0
   -0.4812   -1.2255   -4.7075 H   0  0  0  0  0  0  0  0  0  0  0  0
   -1.1145   -2.7826   -4.1633 H   0  0  0  0  0  0  0  0  0  0  0  0
    1.5340   -0.9371   -6.4606 N   0  0  0  0  0  0  0  0  0  0  0  0
    2.5853   -0.0571   -6.9144 C   0  0  0  0  0  0  0  0  0  0  0  0
    0.5806   -0.5875   -6.4832 H   0  0  0  0  0  0  0  0  0  0  0  0
    2.9635    0.5314   -6.0655 H   0  0  0  0  0  0  0  0  0  0  0  0
    3.4049   -0.6544   -7.3404 H   0  0  0  0  0  0  0  0  0  0  0  0
    2.1885    0.6220   -7.6834 H   0  0  0  0  0  0  0  0  0  0  0  0
   -6.7256    2.0330   -0.2766 C   0  0  0  0  0  0  0  0  0  0  0  0
   -7.1824    1.1039   -0.9322 O   0  0  0  0  0  0  0  0  0  0  0  0
   -7.5276    2.6077    0.8435 C   0  0  0  0  0  0  0  0  0  0  0  0
   -8.1775    3.4344    0.5145 H   0  0  0  0  0  0  0  0  0  0  0  0
   -8.2057    1.8676    1.2980 H   0  0  0  0  0  0  0  0  0  0  0  0
   -6.9411    3.0162    1.6819 H   0  0  0  0  0  0  0  0  0  0  0  0
   -5.4935    2.6382   -0.4627 N   0  0  0  0  0  0  0  0  0  0  0  0
   -4.5619    2.2388   -1.4845 C   0  0  2  0  0  0  0  0  0  0  0  0
   -3.1535    2.4674   -0.9521 C   0  0  0  0  0  0  0  0  0  0  0  0
   -2.8634    3.3945   -0.1987 O   0  0  0  0  0  0  0  0  0  0  0  0
   -4.7883    3.0138   -2.7732 C   0  0  0  0  0  0  0  0  0  0  0  0
   -5.2337    3.4049    0.1551 H   0  0  0  0  0  0  0  0  0  0  0  0
   -4.7192    1.1682   -1.6549 H   0  0  0  0  0  0  0  0  0  0  0  0
   -4.6352    4.0886   -2.6221 H   0  0  0  0  0  0  0  0  0  0  0  0
   -4.0976    2.6887   -3.5582 H   0  0  0  0  0  0  0  0  0  0  0  0
   -5.8111    2.8719   -3.1387 H   0  0  0  0  0  0  0  0  0  0  0  0
   -2.2466    1.5400   -1.4507 N   0  0  0  0  0  0  0  0  0  0  0  0
   -0.8424    1.5707   -1.1286 C   0  0  2  0  0  0  0  0  0  0  0  0
   -0.3403    3.0087   -1.2421 C   0  0  0  0  0  0  0  0  0  0  0  0
   -0.3747    3.6491   -2.2910 O   0  0  0  0  0  0  0  0  0  0  0  0
   -0.0313    0.5768   -1.9636 C   0  0  0  0  0  0  0  0  0  0  0  0
   -0.4464   -1.1544   -1.6425 S   0  0  0  0  0  0  0  0  0  0  0  0
   -2.5850    0.7815   -2.0381 H   0  0  0  0  0  0  0  0  0  0  0  0
   -0.7758    1.2792   -0.0730 H   0  0  0  0  0  0  0  0  0  0  0  0
   -0.1849    0.7576   -3.0324 H   0  0  0  0  0  0  0  0  0  0  0  0
    1.0373    0.7014   -1.7576 H   0  0  0  0  0  0  0  0  0  0  0  0
    0.1722    3.4820   -0.0426 N   0  0  0  0  0  0  0  0  0  0  0  0
    0.7302    4.8066    0.0975 C   0  0  2  0  0  0  0  0  0  0  0  0
    1.8446    4.7404    1.1335 C   0  0  0  0  0  0  0  0  0  0  0  0
    1.8102    3.9928    2.1088 O   0  0  0  0  0  0  0  0  0  0  0  0
   -0.3328    5.8144    0.5064 C   0  0  0  0  0  0  0  0  0  0  0  0
    0.1213    2.8989    0.7876 H   0  0  0  0  0  0  0  0  0  0  0  0
    1.1520    5.0768   -0.8767 H   0  0  0  0  0  0  0  0  0  0  0  0
   -0.7670    5.5603    1.4802 H   0  0  0  0  0  0  0  0  0  0  0  0
    0.0860    6.8232    0.5844 H   0  0  0  0  0  0  0  0  0  0  0  0
   -1.1481    5.8392   -0.2247 H   0  0  0  0  0  0  0  0  0  0  0  0
    2.8619    5.6451    0.8642 N   0  0  0  0  0  0  0  0  0  0  0  0
    4.0117    5.8039    1.7237 C   0  0  0  0  0  0  0  0  0  0  0  0
    2.8274    6.1968    0.0120 H   0  0  0  0  0  0  0  0  0  0  0  0
    3.8170    6.6037    2.4535 H   0  0  0  0  0  0  0  0  0  0  0  0
    4.2044    4.8608    2.2561 H   0  0  0  0  0  0  0  0  0  0  0  0
    4.8899    6.0680    1.1161 H   0  0  0  0  0  0  0  0  0  0  0  0
  1  3  1  0  0  0  0
  1  7  1  0  0  0  0
  1  2  2  0  0  0  0
 23 25  1  0  0  0  0
 23 29  1  0  0  0  0
 23 24  2  0  0  0  0
 50 51  1  0  0  0  0
 51 59  1  0  0  0  0
 51 52  2  0  0  0  0
  8  9  1  0  0  0  0
  9 17  1  0  0  0  0
  9 10  2  0  0  0  0
 30 31  1  0  0  0  0
 31 39  1  0  0  0  0
 31 32  2  0  0  0  0
 40 41  1  0  0  0  0
 41 49  1  0  0  0  0
 41 42  2  0  0  0  0
 50 53  1  0  0  0  0
 30 33  1  0  0  0  0
 59 60  1  0  0  0  0
 17 18  1  0  0  0  0
  8 11  1  0  0  0  0
 11 12  1  0  0  0  0
 40 43  1  0  0  0  0
 43 44  1  0  0  0  0
 49 50  1  0  0  0  0
  7  8  1  0  0  0  0
 29 30  1  0  0  0  0
 39 40  1  0  0  0  0
 12 44  1  0  0  0  0
  3  4  1  0  0  0  0
  3  5  1  0  0  0  0
  3  6  1  0  0  0  0
 25 26  1  0  0  0  0
 25 27  1  0  0  0  0
 25 28  1  0  0  0  0
 53 56  1  0  0  0  0
 53 57  1  0  0  0  0
 53 58  1  0  0  0  0
 33 36  1  0  0  0  0
 33 37  1  0  0  0  0
 33 38  1  0  0  0  0
 60 62  1  0  0  0  0
 60 63  1  0  0  0  0
 60 64  1  0  0  0  0
 18 20  1  0  0  0  0
 18 21  1  0  0  0  0
 18 22  1  0  0  0  0
 11 15  1  0  0  0  0
 11 16  1  0  0  0  0
 43 47  1  0  0  0  0
 43 48  1  0  0  0  0
 50 55  1  0  0  0  0
  8 14  1  0  0  0  0
 30 35  1  0  0  0  0
 40 46  1  0  0  0  0
 59 61  1  0  0  0  0
 17 19  1  0  0  0  0
  7 13  1  0  0  0  0
 29 34  1  0  0  0  0
 49 54  1  0  0  0  0
 39 45  1  0  0  0  0
M  END
$$$$

  -OEChem-05262214473D

 64 63  0     1  0  0  0  0  0999 V2000
   -0.0727   -5.3673   -5.5388 C   0  0  0  0  0  0  0  0  0  0  0  0
   -1.1990   -5.2729   -6.0124 O   0  0  0  0  0  0  0  0  0  0  0  0
    0.4567   -6.7109   -5.1613 C   0  0  0  0  0  0  0  0  0  0  0  0
    0.2226   -6.9772   -4.1180 H   0  0  0  0  0  0  0  0  0  0  0  0
    0.0247   -7.5199   -5.7722 H   0  0  0  0  0  0  0  0  0  0  0  0
    1.5481   -6.8302   -5.2529 H   0  0  0  0  0  0  0  0  0  0  0  0
    0.8071   -4.3248   -5.3038 N   0  0  0  0  0  0  0  0  0  0  0  0
    0.4987   -2.9480   -5.5969 C   0  0  2  0  0  0  0  0  0  0  0  0
    1.7734   -2.2424   -6.0551 C   0  0  0  0  0  0  0  0  0  0  0  0
    2.8791   -2.7795   -6.0380 O   0  0  0  0  0  0  0  0  0  0  0  0
   -0.1975   -2.2455   -4.4286 C   0  0  0  0  0  0  0  0  0  0  0  0
    0.8248   -2.1349   -2.9236 S   0  0  0  0  0  0  0  0  0  0  0  0
    1.7174   -4.5416   -4.9041 H   0  0  0  0  0  0  0  0  0  0  0  0
   -0.1897   -2.9756   -6.4507 H   0  0  0  0  0  0  0  0  0  0  0  0
   -0.4812   -1.2255   -4.7075 H   0  0  0  0  0  0  0  0  0  0  0  0
   -1.1145   -2.7826   -4.1633 H   0  0  0  0  0  0  0  0  0  0  0  0
    1.5340   -0.9371   -6.4606 N   0  0  0  0  0  0  0  0  0  0  0  0
    2.5853   -0.0571   -6.9144 C   0  0  0  0  0  0  0  0  0  0  0  0
    0.5806   -0.5875   -6.4832 H   0  0  0  0  0  0  0  0  0  0  0  0
    2.9635    0.5314   -6.0655 H   0  0  0  0  0  0  0  0  0  0  0  0
    3.4049   -0.6544   -7.3404 H   0  0  0  0  0  0  0  0  0  0  0  0
    2.1885    0.6220   -7.6834 H   0  0  0  0  0  0  0  0  0  0  0  0
   -6.7256    2.0330   -0.2766 C   0  0  0  0  0  0  0  0  0  0  0  0
   -7.1824    1.1039   -0.9322 O   0  0  0  0  0  0  0  0  0  0  0  0
   -7.5276    2.6077    0.8435 C   0  0  0  0  0  0  0  0  0  0  0  0
   -8.1775    3.4344    0.5145 H   0  0  0  0  0  0  0  0  0  0  0  0
   -8.2057    1.8676    1.2980 H   0  0  0  0  0  0  0  0  0  0  0  0
   -6.9411    3.0162    1.6819 H   0  0  0  0  0  0  0  0  0  0  0  0
   -5.4935    2.6382   -0.4627 N   0  0  0  0  0  0  0  0  0  0  0  0
   -4.5619    2.2388   -1.4845 C   0  0  2  0  0  0  0  0  0  0  0  0
   -3.1535    2.4674   -0.9521 C   0  0  0  0  0  0  0  0  0  0  0  0
   -2.8634    3.3945   -0.1987 O   0  0  0  0  0  0  0  0  0  0  0  0
   -4.7883    3.0138   -2.7732 C   0  0  0  0  0  0  0  0  0  0  0  0
   -5.2337    3.4049    0.1551 H   0  0  0  0  0  0  0  0  0  0  0  0
   -4.7192    1.1682   -1.6549 H   0  0  0  0  0  0  0  0  0  0  0  0
   -4.6352    4.0886   -2.6221 H   0  0  0  0  0  0  0  0  0  0  0  0
   -4.0976    2.6887   -3.5582 H   0  0  0  0  0  0  0  0  0  0  0  0
   -5.8111    2.8719   -3.1387 H   0  0  0  0  0  0  0  0  0  0  0  0
   -2.2466    1.5400   -1.4507 N   0  0  0  0  0  0  0  0  0  0  0  0
   -0.8424    1.5707   -1.1286 C   0  0  2  0  0  0  0  0  0  0  0  0
   -0.3403    3.0087   -1.2421 C   0  0  0  0  0  0  0  0  0  0  0  0
   -0.6093    3.7386   -2.1941 O   0  0  0  0  0  0  0  0  0  0  0  0
   -0.0313    0.5768   -1.9636 C   0  0  0  0  0  0  0  0  0  0  0  0
   -0.4464   -1.1544   -1.6425 S   0  0  0  0  0  0  0  0  0  0  0  0
   -2.5850    0.7815   -2.0381 H   0  0  0  0  0  0  0  0  0  0  0  0
   -0.7758    1.2792   -0.0730 H   0  0  0  0  0  0  0  0  0  0  0  0
   -0.1849    0.7576   -3.0324 H   0  0  0  0  0  0  0  0  0  0  0  0
    1.0373    0.7014   -1.7576 H   0  0  0  0  0  0  0  0  0  0  0  0
    0.4620    3.3707   -0.1694 N   0  0  0  0  0  0  0  0  0  0  0  0
    1.0765    4.6732   -0.0609 C   0  0  2  0  0  0  0  0  0  0  0  0
    2.4067    4.5069    0.6620 C   0  0  0  0  0  0  0  0  0  0  0  0
    2.5879    3.6772    1.5508 O   0  0  0  0  0  0  0  0  0  0  0  0
    0.1752    5.6506    0.6773 C   0  0  0  0  0  0  0  0  0  0  0  0
    0.5969    2.7177    0.5968 H   0  0  0  0  0  0  0  0  0  0  0  0
    1.2570    5.0238   -1.0829 H   0  0  0  0  0  0  0  0  0  0  0  0
   -0.0169    5.3160    1.7033 H   0  0  0  0  0  0  0  0  0  0  0  0
    0.6302    6.6450    0.7337 H   0  0  0  0  0  0  0  0  0  0  0  0
   -0.7921    5.7463    0.1724 H   0  0  0  0  0  0  0  0  0  0  0  0
    3.3547    5.4228    0.2279 N   0  0  0  0  0  0  0  0  0  0  0  0
    4.6830    5.4958    0.7903 C   0  0  0  0  0  0  0  0  0  0  0  0
    3.1307    6.0472   -0.5414 H   0  0  0  0  0  0  0  0  0  0  0  0
    4.6952    6.2303    1.6090 H   0  0  0  0  0  0  0  0  0  0  0  0
    4.9710    4.5082    1.1795 H   0  0  0  0  0  0  0  0  0  0  0  0
    5.3947    5.8044    0.0104 H   0  0  0  0  0  0  0  0  0  0  0  0
  1  3  1  0  0  0  0
  1  7  1  0  0  0  0
  1  2  2  0  0  0  0
 23 25  1  0  0  0  0
 23 29  1  0  0  0  0
 23 24  2  0  0  0  0
 50 51  1  0  0  0  0
 51 59  1  0  0  0  0
 51 52  2  0  0  0  0
  8  9  1  0  0  0  0
  9 17  1  0  0  0  0
  9 10  2  0  0  0  0
 30 31  1  0  0  0  0
 31 39  1  0  0  0  0
 31 32  2  0  0  0  0
 40 41  1  0  0  0  0
 41 49  1  0  0  0  0
 41 42  2  0  0  0  0
 50 53  1  0  0  0  0
 30 33  1  0  0  0  0
 59 60  1  0  0  0  0
 17 18  1  0  0  0  0
  8 11  1  0  0  0  0
 11 12  1  0  0  0  0
 40 43  1  0  0  0  0
 43 44  1  0  0  0  0
 49 50  1  0  0  0  0
  7  8  1  0  0  0  0
 29 30  1  0  0  0  0
 39 40  1  0  0  0  0
 12 44  1  0  0  0  0
  3  4  1  0  0  0  0
  3  5  1  0  0  0  0
  3  6  1  0  0  0  0
 25 26  1  0  0  0  0
 25 27  1  0  0  0  0
 25 28  1  0  0  0  0
 53 56  1  0  0  0  0
 53 57  1  0  0  0  0
 53 58  1  0  0  0  0
 33 36  1  0  0  0  0
 33 37  1  0  0  0  0
 33 38  1  0  0  0  0
 60 62  1  0  0  0  0
 60 63  1  0  0  0  0
 60 64  1  0  0  0  0
 18 20  1  0  0  0  0
 18 21  1  0  0  0  0
 18 22  1  0  0  0  0
 11 15  1  0  0  0  0
 11 16  1  0  0  0  0
 43 47  1  0  0  0  0
 43 48  1  0  0  0  0
 50 55  1  0  0  0  0
  8 14  1  0  0  0  0
 30 35  1  0  0  0  0
 40 46  1  0  0  0  0
 59 61  1  0  0  0  0
 17 19  1  0  0  0  0
  7 13  1  0  0  0  0
 29 34  1  0  0  0  0
 49 54  1  0  0  0  0
 39 45  1  0  0  0  0
M  END
$$$$

  -OEChem-05262214473D

 64 63  0     1  0  0  0  0  0999 V2000
   -0.0727   -5.3673   -5.5388 C   0  0  0  0  0  0  0  0  0  0  0  0
   -1.1990   -5.2729   -6.0124 O   0  0  0  0  0  0  0  0  0  0  0  0
    0.4567   -6.7109   -5.1613 C   0  0  0  0  0  0  0  0  0  0  0  0
    0.2226   -6.9772   -4.1180 H   0  0  0  0  0  0  0  0  0  0  0  0
    0.0247   -7.5199   -5.7722 H   0  0  0  0  0  0  0  0  0  0  0  0
    1.5481   -6.8302   -5.2529 H   0  0  0  0  0  0  0  0  0  0  0  0
    0.8071   -4.3248   -5.3038 N   0  0  0  0  0  0  0  0  0  0  0  0
    0.4987   -2.9480   -5.5969 C   0  0  2  0  0  0  0  0  0  0  0  0
    1.7734   -2.2424   -6.0551 C   0  0  0  0  0  0  0  0  0  0  0  0
    2.8791   -2.7795   -6.0380 O   0  0  0  0  0  0  0  0  0  0  0  0
   -0.1975   -2.2455   -4.4286 C   0  0  0  0  0  0  0  0  0  0  0  0
    0.8248   -2.1349   -2.9236 S   0  0  0  0  0  0  0  0  0  0  0  0
    1.7174   -4.5416   -4.9041 H   0  0  0  0  0  0  0  0  0  0  0  0
   -0.1897   -2.9756   -6.4507 H   0  0  0  0  0  0  0  0  0  0  0  0
   -0.4812   -1.2255   -4.7075 H   0  0  0  0  0  0  0  0  0  0  0  0
   -1.1145   -2.7826   -4.1633 H   0  0  0  0  0  0  0  0  0  0  0  0
    1.5340   -0.9371   -6.4606 N   0  0  0  0  0  0  0  0  0  0  0  0
    2.5853   -0.0571   -6.9144 C   0  0  0  0  0  0  0  0  0  0  0  0
    0.5806   -0.5875   -6.4832 H   0  0  0  0  0  0  0  0  0  0  0  0
    2.9635    0.5314   -6.0655 H   0  0  0  0  0  0  0  0  0  0  0  0
    3.4049   -0.6544   -7.3404 H   0  0  0  0  0  0  0  0  0  0  0  0
    2.1885    0.6220   -7.6834 H   0  0  0  0  0  0  0  0  0  0  0  0
   -6.7256    2.0330   -0.2766 C   0  0  0  0  0  0  0  0  0  0  0  0
   -7.1824    1.1039   -0.9322 O   0  0  0  0  0  0  0  0  0  0  0  0
   -7.5276    2.6077    0.8435 C   0  0  0  0  0  0  0  0  0  0  0  0
   -8.1775    3.4344    0.5145 H   0  0  0  0  0  0  0  0  0  0  0  0
   -8.2057    1.8676    1.2980 H   0  0  0  0  0  0  0  0  0  0  0  0
   -6.9411    3.0162    1.6819 H   0  0  0  0  0  0  0  0  0  0  0  0
   -5.4935    2.6382   -0.4627 N   0  0  0  0  0  0  0  0  0  0  0  0
   -4.5619    2.2388   -1.4845 C   0  0  2  0  0  0  0  0  0  0  0  0
   -3.1535    2.4674   -0.9521 C   0  0  0  0  0  0  0  0  0  0  0  0
   -2.8634    3.3945   -0.1987 O   0  0  0  0  0  0  0  0  0  0  0  0
   -4.7883    3.0138   -2.7732 C   0  0  0  0  0  0  0  0  0  0  0  0
   -5.2337    3.4049    0.1551 H   0  0  0  0  0  0  0  0  0  0  0  0
   -4.7192    1.1682   -1.6549 H   0  0  0  0  0  0  0  0  0  0  0  0
   -4.6352    4.0886   -2.6221 H   0  0  0  0  0  0  0  0  0  0  0  0
   -4.0976    2.6887   -3.5582 H   0  0  0  0  0  0  0  0  0  0  0  0
   -5.8111    2.8719   -3.1387 H   0  0  0  0  0  0  0  0  0  0  0  0
   -2.2466    1.5400   -1.4507 N   0  0  0  0  0  0  0  0  0  0  0  0
   -0.8424    1.5707   -1.1286 C   0  0  2  0  0  0  0  0  0  0  0  0
   -0.3403    3.0087   -1.2421 C   0  0  0  0  0  0  0  0  0  0  0  0
   -0.8105    3.8214   -2.0357 O   0  0  0  0  0  0  0  0  0  0  0  0
   -0.0313    0.5768   -1.9636 C   0  0  0  0  0  0  0  0  0  0  0  0
   -0.4464   -1.1544   -1.6425 S   0  0  0  0  0  0  0  0  0  0  0  0
   -2.5850    0.7815   -2.0381 H   0  0  0  0  0  0  0  0  0  0  0  0
   -0.7758    1.2792   -0.0730 H   0  0  0  0  0  0  0  0  0  0  0  0
   -0.1849    0.7576   -3.0324 H   0  0  0  0  0  0  0  0  0  0  0  0
    1.0373    0.7014   -1.7576 H   0  0  0  0  0  0  0  0  0  0  0  0
    0.7089    3.2685   -0.3720 N   0  0  0  0  0  0  0  0  0  0  0  0
    1.3699    4.5511   -0.3097 C   0  0  2  0  0  0  0  0  0  0  0  0
    2.8302    4.3106    0.0497 C   0  0  0  0  0  0  0  0  0  0  0  0
    3.1971    3.4049    0.7954 O   0  0  0  0  0  0  0  0  0  0  0  0
    0.7043    5.4680    0.7047 C   0  0  0  0  0  0  0  0  0  0  0  0
    1.0063    2.5499    0.2813 H   0  0  0  0  0  0  0  0  0  0  0  0
    1.3072    4.9882   -1.3122 H   0  0  0  0  0  0  0  0  0  0  0  0
    0.7573    5.0466    1.7152 H   0  0  0  0  0  0  0  0  0  0  0  0
    1.1888    6.4496    0.7302 H   0  0  0  0  0  0  0  0  0  0  0  0
   -0.3533    5.6159    0.4613 H   0  0  0  0  0  0  0  0  0  0  0  0
    3.6713    5.2527   -0.5257 N   0  0  0  0  0  0  0  0  0  0  0  0
    5.0980    5.2647   -0.3011 C   0  0  0  0  0  0  0  0  0  0  0  0
    3.2859    5.9439   -1.1625 H   0  0  0  0  0  0  0  0  0  0  0  0
    5.3305    5.9246    0.5476 H   0  0  0  0  0  0  0  0  0  0  0  0
    5.4423    4.2443   -0.0772 H   0  0  0  0  0  0  0  0  0  0  0  0
    5.6079    5.6341   -1.2031 H   0  0  0  0  0  0  0  0  0  0  0  0
  1  3  1  0  0  0  0
  1  7  1  0  0  0  0
  1  2  2  0  0  0  0
 23 25  1  0  0  0  0
 23 29  1  0  0  0  0
 23 24  2  0  0  0  0
 50 51  1  0  0  0  0
 51 59  1  0  0  0  0
 51 52  2  0  0  0  0
  8  9  1  0  0  0  0
  9 17  1  0  0  0  0
  9 10  2  0  0  0  0
 30 31  1  0  0  0  0
 31 39  1  0  0  0  0
 31 32  2  0  0  0  0
 40 41  1  0  0  0  0
 41 49  1  0  0  0  0
 41 42  2  0  0  0  0
 50 53  1  0  0  0  0
 30 33  1  0  0  0  0
 59 60  1  0  0  0  0
 17 18  1  0  0  0  0
  8 11  1  0  0  0  0
 11 12  1  0  0  0  0
 40 43  1  0  0  0  0
 43 44  1  0  0  0  0
 49 50  1  0  0  0  0
  7  8  1  0  0  0  0
 29 30  1  0  0  0  0
 39 40  1  0  0  0  0
 12 44  1  0  0  0  0
  3  4  1  0  0  0  0
  3  5  1  0  0  0  0
  3  6  1  0  0  0  0
 25 26  1  0  0  0  0
 25 27  1  0  0  0  0
 25 28  1  0  0  0  0
 53 56  1  0  0  0  0
 53 57  1  0  0  0  0
 53 58  1  0  0  0  0
 33 36  1  0  0  0  0
 33 37  1  0  0  0  0
 33 38  1  0  0  0  0
 60 62  1  0  0  0  0
 60 63  1  0  0  0  0
 60 64  1  0  0  0  0
 18 20  1  0  0  0  0
 18 21  1  0  0  0  0
 18 22  1  0  0  0  0
 11 15  1  0  0  0  0
 11 16  1  0  0  0  0
 43 47  1  0  0  0  0
 43 48  1  0  0  0  0
 50 55  1  0  0  0  0
  8 14  1  0  0  0  0
 30 35  1  0  0  0  0
 40 46  1  0  0  0  0
 59 61  1  0  0  0  0
 17 19  1  0  0  0  0
  7 13  1  0  0  0  0
 29 34  1  0  0  0  0
 49 54  1  0  0  0  0
 39 45  1  0  0  0  0
M  END
$$$$

  -OEChem-05262214473D

 64 63  0     1  0  0  0  0  0999 V2000
   -0.0727   -5.3673   -5.5388 C   0  0  0  0  0  0  0  0  0  0  0  0
   -1.1990   -5.2729   -6.0124 O   0  0  0  0  0  0  0  0  0  0  0  0
    0.4567   -6.7109   -5.1613 C   0  0  0  0  0  0  0  0  0  0  0  0
    0.2226   -6.9772   -4.1180 H   0  0  0  0  0  0  0  0  0  0  0  0
    0.0247   -7.5199   -5.7722 H   0  0  0  0  0  0  0  0  0  0  0  0
    1.5481   -6.8302   -5.2529 H   0  0  0  0  0  0  0  0  0  0  0  0
    0.8071   -4.3248   -5.3038 N   0  0  0  0  0  0  0  0  0  0  0  0
    0.4987   -2.9480   -5.5969 C   0  0  2  0  0  0  0  0  0  0  0  0
    1.7734   -2.2424   -6.0551 C   0  0  0  0  0  0  0  0  0  0  0  0
    2.8791   -2.7795   -6.0380 O   0  0  0  0  0  0  0  0  0  0  0  0
   -0.1975   -2.2455   -4.4286 C   0  0  0  0  0  0  0  0  0  0  0  0
    0.8248   -2.1349   -2.9236 S   0  0  0  0  0  0  0  0  0  0  0  0
    1.7174   -4.5416   -4.9041 H   0  0  0  0  0  0  0  0  0  0  0  0
   -0.1897   -2.9756   -6.4507 H   0  0  0  0  0  0  0  0  0  0  0  0
   -0.4812   -1.2255   -4.7075 H   0  0  0  0  0  0  0  0  0  0  0  0
   -1.1145   -2.7826   -4.1633 H   0  0  0  0  0  0  0  0  0  0  0  0
    1.5340   -0.9371   -6.4606 N   0  0  0  0  0  0  0  0  0  0  0  0
    2.5853   -0.0571   -6.9144 C   0  0  0  0  0  0  0  0  0  0  0  0
    0.5806   -0.5875   -6.4832 H   0  0  0  0  0  0  0  0  0  0  0  0
    2.9635    0.5314   -6.0655 H   0  0  0  0  0  0  0  0  0  0  0  0
    3.4049   -0.6544   -7.3404 H   0  0  0  0  0  0  0  0  0  0  0  0
    2.1885    0.6220   -7.6834 H   0  0  0  0  0  0  0  0  0  0  0  0
   -6.7256    2.0330   -0.2766 C   0  0  0  0  0  0  0  0  0  0  0  0
   -7.1824    1.1039   -0.9322 O   0  0  0  0  0  0  0  0  0  0  0  0
   -7.5276    2.6077    0.8435 C   0  0  0  0  0  0  0  0  0  0  0  0
   -8.1775    3.4344    0.5145 H   0  0  0  0  0  0  0  0  0  0  0  0
   -8.2057    1.8676    1.2980 H   0  0  0  0  0  0  0  0  0  0  0  0
   -6.9411    3.0162    1.6819 H   0  0  0  0  0  0  0  0  0  0  0  0
   -5.4935    2.6382   -0.4627 N   0  0  0  0  0  0  0  0  0  0  0  0
   -4.5619    2.2388   -1.4845 C   0  0  2  0  0  0  0  0  0  0  0  0
   -3.1535    2.4674   -0.9521 C   0  0  0  0  0  0  0  0  0  0  0  0
   -2.8634    3.3945   -0.1987 O   0  0  0  0  0  0  0  0  0  0  0  0
   -4.7883    3.0138   -2.7732 C   0  0  0  0  0  0  0  0  0  0  0  0
   -5.2337    3.4049    0.1551 H   0  0  0  0  0  0  0  0  0  0  0  0
   -4.7192    1.1682   -1.6549 H   0  0  0  0  0  0  0  0  0  0  0  0
   -4.6352    4.0886   -2.6221 H   0  0  0  0  0  0  0  0  0  0  0  0
   -4.0976    2.6887   -3.5582 H   0  0  0  0  0  0  0  0  0  0  0  0
   -5.8111    2.8719   -3.1387 H   0  0  0  0  0  0  0  0  0  0  0  0
   -2.2466    1.5400   -1.4507 N   0  0  0  0  0  0  0  0  0  0  0  0
   -0.8424    1.5707   -1.1286 C   0  0  2  0  0  0  0  0  0  0  0  0
   -0.3403    3.0087   -1.2421 C   0  0  0  0  0  0  0  0  0  0  0  0
   -0.9647    3.8918   -1.8266 O   0  0  0  0  0  0  0  0  0  0  0  0
   -0.0313    0.5768   -1.9636 C   0  0  0  0  0  0  0  0  0  0  0  0
   -0.4464   -1.1544   -1.6425 S   0  0  0  0  0  0  0  0  0  0  0  0
   -2.5850    0.7815   -2.0381 H   0  0  0  0  0  0  0  0  0  0  0  0
   -0.7758    1.2792   -0.0730 H   0  0  0  0  0  0  0  0  0  0  0  0
   -0.1849    0.7576   -3.0324 H   0  0  0  0  0  0  0  0  0  0  0  0
    1.0373    0.7014   -1.7576 H   0  0  0  0  0  0  0  0  0  0  0  0
    0.8961    3.1823   -0.6365 N   0  0  0  0  0  0  0  0  0  0  0  0
    1.5903    4.4487   -0.6319 C   0  0  2  0  0  0  0  0  0  0  0  0
    3.0863    4.1650   -0.6616 C   0  0  0  0  0  0  0  0  0  0  0  0
    3.5962    3.1943   -0.1058 O   0  0  0  0  0  0  0  0  0  0  0  0
    1.2186    5.2791    0.5867 C   0  0  0  0  0  0  0  0  0  0  0  0
    1.3217    2.4067   -0.1376 H   0  0  0  0  0  0  0  0  0  0  0  0
    1.2990    4.9724   -1.5490 H   0  0  0  0  0  0  0  0  0  0  0  0
    1.5028    4.7705    1.5152 H   0  0  0  0  0  0  0  0  0  0  0  0
    1.7238    6.2505    0.5740 H   0  0  0  0  0  0  0  0  0  0  0  0
    0.1384    5.4569    0.6224 H   0  0  0  0  0  0  0  0  0  0  0  0
    3.7902    5.1465   -1.3453 N   0  0  0  0  0  0  0  0  0  0  0  0
    5.2284    5.1264   -1.4762 C   0  0  0  0  0  0  0  0  0  0  0  0
    3.2825    5.8940   -1.8091 H   0  0  0  0  0  0  0  0  0  0  0  0
    5.6797    5.7075   -0.6584 H   0  0  0  0  0  0  0  0  0  0  0  0
    5.5863    4.0873   -1.4284 H   0  0  0  0  0  0  0  0  0  0  0  0
    5.5148    5.5688   -2.4417 H   0  0  0  0  0  0  0  0  0  0  0  0
  1  3  1  0  0  0  0
  1  7  1  0  0  0  0
  1  2  2  0  0  0  0
 23 25  1  0  0  0  0
 23 29  1  0  0  0  0
 23 24  2  0  0  0  0
 50 51  1  0  0  0  0
 51 59  1  0  0  0  0
 51 52  2  0  0  0  0
  8  9  1  0  0  0  0
  9 17  1  0  0  0  0
  9 10  2  0  0  0  0
 30 31  1  0  0  0  0
 31 39  1  0  0  0  0
 31 32  2  0  0  0  0
 40 41  1  0  0  0  0
 41 49  1  0  0  0  0
 41 42  2  0  0  0  0
 50 53  1  0  0  0  0
 30 33  1  0  0  0  0
 59 60  1  0  0  0  0
 17 18  1  0  0  0  0
  8 11  1  0  0  0  0
 11 12  1  0  0  0  0
 40 43  1  0  0  0  0
 43 44  1  0  0  0  0
 49 50  1  0  0  0  0
  7  8  1  0  0  0  0
 29 30  1  0  0  0  0
 39 40  1  0  0  0  0
 12 44  1  0  0  0  0
  3  4  1  0  0  0  0
  3  5  1  0  0  0  0
  3  6  1  0  0  0  0
 25 26  1  0  0  0  0
 25 27  1  0  0  0  0
 25 28  1  0  0  0  0
 53 56  1  0  0  0  0
 53 57  1  0  0  0  0
 53 58  1  0  0  0  0
 33 36  1  0  0  0  0
 33 37  1  0  0  0  0
 33 38  1  0  0  0  0
 60 62  1  0  0  0  0
 60 63  1  0  0  0  0
 60 64  1  0  0  0  0
 18 20  1  0  0  0  0
 18 21  1  0  0  0  0
 18 22  1  0  0  0  0
 11 15  1  0  0  0  0
 11 16  1  0  0  0  0
 43 47  1  0  0  0  0
 43 48  1  0  0  0  0
 50 55  1  0  0  0  0
  8 14  1  0  0  0  0
 30 35  1  0  0  0  0
 40 46  1  0  0  0  0
 59 61  1  0  0  0  0
 17 19  1  0  0  0  0
  7 13  1  0  0  0  0
 29 34  1  0  0  0  0
 49 54  1  0  0  0  0
 39 45  1  0  0  0  0
M  END
$$$$

  -OEChem-05262214473D

 64 63  0     1  0  0  0  0  0999 V2000
    0.2654   -3.9743   -7.1455 C   0  0  0  0  0  0  0  0  0  0  0  0
   -0.8705   -3.8297   -7.5821 O   0  0  0  0  0  0  0  0  0  0  0  0
    0.8756   -5.3364   -7.1183 C   0  0  0  0  0  0  0  0  0  0  0  0
    0.6706   -5.8702   -6.1765 H   0  0  0  0  0  0  0  0  0  0  0  0
    0.4827   -5.9891   -7.9144 H   0  0  0  0  0  0  0  0  0  0  0  0
    1.9708   -5.3646   -7.2349 H   0  0  0  0  0  0  0  0  0  0  0  0
    1.0872   -2.9751   -6.6534 N   0  0  0  0  0  0  0  0  0  0  0  0
    0.6968   -1.5894   -6.5901 C   0  0  2  0  0  0  0  0  0  0  0  0
    1.9231   -0.7176   -6.8529 C   0  0  0  0  0  0  0  0  0  0  0  0
    3.0578   -1.1759   -6.9699 O   0  0  0  0  0  0  0  0  0  0  0  0
   -0.0232   -1.2460   -5.2837 C   0  0  0  0  0  0  0  0  0  0  0  0
    1.0105   -1.4587   -3.7975 S   0  0  0  0  0  0  0  0  0  0  0  0
    2.0135   -3.2319   -6.3195 H   0  0  0  0  0  0  0  0  0  0  0  0
    0.0002   -1.4411   -7.4246 H   0  0  0  0  0  0  0  0  0  0  0  0
   -0.3683   -0.2070   -5.2966 H   0  0  0  0  0  0  0  0  0  0  0  0
   -0.9045   -1.8854   -5.1642 H   0  0  0  0  0  0  0  0  0  0  0  0
    1.6042    0.6314   -6.9164 N   0  0  0  0  0  0  0  0  0  0  0  0
    2.5976    1.6574   -7.1314 C   0  0  0  0  0  0  0  0  0  0  0  0
    0.6322    0.9189   -6.8519 H   0  0  0  0  0  0  0  0  0  0  0  0
    2.9525    2.0341   -6.1608 H   0  0  0  0  0  0  0  0  0  0  0  0
    3.4444    1.2358   -7.6928 H   0  0  0  0  0  0  0  0  0  0  0  0
    2.1527    2.4840   -7.7049 H   0  0  0  0  0  0  0  0  0  0  0  0
   -6.7256    2.0330   -0.2766 C   0  0  0  0  0  0  0  0  0  0  0  0
   -7.1824    1.1039   -0.9322 O   0  0  0  0  0  0  0  0  0  0  0  0
   -7.5276    2.6077    0.8435 C   0  0  0  0  0  0  0  0  0  0  0  0
   -8.1775    3.4344    0.5145 H   0  0  0  0  0  0  0  0  0  0  0  0
   -8.2057    1.8676    1.2980 H   0  0  0  0  0  0  0  0  0  0  0  0
   -6.9411    3.0162    1.6819 H   0  0  0  0  0  0  0  0  0  0  0  0
   -5.4935    2.6382   -0.4627 N   0  0  0  0  0  0  0  0  0  0  0  0
   -4.5619    2.2388   -1.4845 C   0  0  2  0  0  0  0  0  0  0  0  0
   -3.1535    2.4674   -0.9521 C   0  0  0  0  0  0  0  0  0  0  0  0
   -2.8634    3.3945   -0.1987 O   0  0  0  0  0  0  0  0  0  0  0  0
   -4.7883    3.0138   -2.7732 C   0  0  0  0  0  0  0  0  0  0  0  0
   -5.2337    3.4049    0.1551 H   0  0  0  0  0  0  0  0  0  0  0  0
   -4.7192    1.1682   -1.6549 H   0  0  0  0  0  0  0  0  0  0  0  0
   -4.6352    4.0886   -2.6221 H   0  0  0  0  0  0  0  0  0  0  0  0
   -4.0976    2.6887   -3.5582 H   0  0  0  0  0  0  0  0  0  0  0  0
   -5.8111    2.8719   -3.1387 H   0  0  0  0  0  0  0  0  0  0  0  0
   -2.2466    1.5400   -1.4507 N   0  0  0  0  0  0  0  0  0  0  0  0
   -0.8424    1.5707   -1.1286 C   0  0  2  0  0  0  0  0  0  0  0  0
   -0.4248    3.0177   -0.8746 C   0  0  0  0  0  0  0  0  0  0  0  0
   -1.2025    3.9653   -0.9677 O   0  0  0  0  0  0  0  0  0  0  0  0
    0.0133    0.8687   -2.1858 C   0  0  0  0  0  0  0  0  0  0  0  0
   -0.2979   -0.9089   -2.3128 S   0  0  0  0  0  0  0  0  0  0  0  0
   -2.5850    0.7815   -2.0381 H   0  0  0  0  0  0  0  0  0  0  0  0
   -0.7456    1.0270   -0.1806 H   0  0  0  0  0  0  0  0  0  0  0  0
   -0.1641    1.3037   -3.1748 H   0  0  0  0  0  0  0  0  0  0  0  0
    1.0757    0.9996   -1.9531 H   0  0  0  0  0  0  0  0  0  0  0  0
    0.9215    3.1274   -0.5569 N   0  0  0  0  0  0  0  0  0  0  0  0
    1.5598    4.3967   -0.2974 C   0  0  2  0  0  0  0  0  0  0  0  0
    3.0035    4.3031   -0.7731 C   0  0  0  0  0  0  0  0  0  0  0  0
    3.6655    3.2693   -0.7080 O   0  0  0  0  0  0  0  0  0  0  0  0
    1.4960    4.7566    1.1788 C   0  0  0  0  0  0  0  0  0  0  0  0
    1.4823    2.2862   -0.4592 H   0  0  0  0  0  0  0  0  0  0  0  0
    1.0266    5.1463   -0.8923 H   0  0  0  0  0  0  0  0  0  0  0  0
    2.0249    4.0169    1.7908 H   0  0  0  0  0  0  0  0  0  0  0  0
    1.9550    5.7323    1.3695 H   0  0  0  0  0  0  0  0  0  0  0  0
    0.4579    4.7943    1.5262 H   0  0  0  0  0  0  0  0  0  0  0  0
    3.4796    5.5207   -1.2388 N   0  0  0  0  0  0  0  0  0  0  0  0
    4.8344    5.7010   -1.7058 C   0  0  0  0  0  0  0  0  0  0  0  0
    2.8494    6.3154   -1.2943 H   0  0  0  0  0  0  0  0  0  0  0  0
    5.4674    6.0421   -0.8733 H   0  0  0  0  0  0  0  0  0  0  0  0
    5.2194    4.7454   -2.0914 H   0  0  0  0  0  0  0  0  0  0  0  0
    4.8483    6.4527   -2.5087 H   0  0  0  0  0  0  0  0  0  0  0  0
  1  3  1  0  0  0  0
  1  7  1  0  0  0  0
  1  2  2  0  0  0  0
 23 25  1  0  0  0  0
 23 29  1  0  0  0  0
 23 24  2  0  0  0  0
 50 51  1  0  0  0  0
 51 59  1  0  0  0  0
 51 52  2  0  0  0  0
  8  9  1  0  0  0  0
  9 17  1  0  0  0  0
  9 10  2  0  0  0  0
 30 31  1  0  0  0  0
 31 39  1  0  0  0  0
 31 32  2  0  0  0  0
 40 41  1  0  0  0  0
 41 49  1  0  0  0  0
 41 42  2  0  0  0  0
 50 53  1  0  0  0  0
 30 33  1  0  0  0  0
 59 60  1  0  0  0  0
 17 18  1  0  0  0  0
  8 11  1  0  0  0  0
 11 12  1  0  0  0  0
 40 43  1  0  0  0  0
 43 44  1  0  0  0  0
 49 50  1  0  0  0  0
  7  8  1  0  0  0  0
 29 30  1  0  0  0  0
 39 40  1  0  0  0  0
 12 44  1  0  0  0  0
  3  4  1  0  0  0  0
  3  5  1  0  0  0  0
  3  6  1  0  0  0  0
 25 26  1  0  0  0  0
 25 27  1  0  0  0  0
 25 28  1  0  0  0  0
 53 56  1  0  0  0  0
 53 57  1  0  0  0  0
 53 58  1  0  0  0  0
 33 36  1  0  0  0  0
 33 37  1  0  0  0  0
 33 38  1  0  0  0  0
 60 62  1  0  0  0  0
 60 63  1  0  0  0  0
 60 64  1  0  0  0  0
 18 20  1  0  0  0  0
 18 21  1  0  0  0  0
 18 22  1  0  0  0  0
 11 15  1  0  0  0  0
 11 16  1  0  0  0  0
 43 47  1  0  0  0  0
 43 48  1  0  0  0  0
 50 55  1  0  0  0  0
  8 14  1  0  0  0  0
 30 35  1  0  0  0  0
 40 46  1  0  0  0  0
 59 61  1  0  0  0  0
 17 19  1  0  0  0  0
  7 13  1  0  0  0  0
 29 34  1  0  0  0  0
 49 54  1  0  0  0  0
 39 45  1  0  0  0  0
M  END
$$$$

  -OEChem-05262214473D

 64 63  0     1  0  0  0  0  0999 V2000
    0.2654   -3.9743   -7.1455 C   0  0  0  0  0  0  0  0  0  0  0  0
   -0.8705   -3.8297   -7.5821 O   0  0  0  0  0  0  0  0  0  0  0  0
    0.8756   -5.3364   -7.1183 C   0  0  0  0  0  0  0  0  0  0  0  0
    0.6706   -5.8702   -6.1765 H   0  0  0  0  0  0  0  0  0  0  0  0
    0.4827   -5.9891   -7.9144 H   0  0  0  0  0  0  0  0  0  0  0  0
    1.9708   -5.3646   -7.2349 H   0  0  0  0  0  0  0  0  0  0  0  0
    1.0872   -2.9751   -6.6534 N   0  0  0  0  0  0  0  0  0  0  0  0
    0.6968   -1.5894   -6.5901 C   0  0  2  0  0  0  0  0  0  0  0  0
    1.9231   -0.7176   -6.8529 C   0  0  0  0  0  0  0  0  0  0  0  0
    3.0578   -1.1759   -6.9699 O   0  0  0  0  0  0  0  0  0  0  0  0
   -0.0232   -1.2460   -5.2837 C   0  0  0  0  0  0  0  0  0  0  0  0
    1.0105   -1.4587   -3.7975 S   0  0  0  0  0  0  0  0  0  0  0  0
    2.0135   -3.2319   -6.3195 H   0  0  0  0  0  0  0  0  0  0  0  0
    0.0002   -1.4411   -7.4246 H   0  0  0  0  0  0  0  0  0  0  0  0
   -0.3683   -0.2070   -5.2966 H   0  0  0  0  0  0  0  0  0  0  0  0
   -0.9045   -1.8854   -5.1642 H   0  0  0  0  0  0  0  0  0  0  0  0
    1.6042    0.6314   -6.9164 N   0  0  0  0  0  0  0  0  0  0  0  0
    2.5976    1.6574   -7.1314 C   0  0  0  0  0  0  0  0  0  0  0  0
    0.6322    0.9189   -6.8519 H   0  0  0  0  0  0  0  0  0  0  0  0
    2.9525    2.0341   -6.1608 H   0  0  0  0  0  0  0  0  0  0  0  0
    3.4444    1.2358   -7.6928 H   0  0  0  0  0  0  0  0  0  0  0  0
    2.1527    2.4840   -7.7049 H   0  0  0  0  0  0  0  0  0  0  0  0
   -6.7256    2.0330   -0.2766 C   0  0  0  0  0  0  0  0  0  0  0  0
   -7.1824    1.1039   -0.9322 O   0  0  0  0  0  0  0  0  0  0  0  0
   -7.5276    2.6077    0.8435 C   0  0  0  0  0  0  0  0  0  0  0  0
   -8.1775    3.4344    0.5145 H   0  0  0  0  0  0  0  0  0  0  0  0
   -8.2057    1.8676    1.2980 H   0  0  0  0  0  0  0  0  0  0  0  0
   -6.9411    3.0162    1.6819 H   0  0  0  0  0  0  0  0  0  0  0  0
   -5.4935    2.6382   -0.4627 N   0  0  0  0  0  0  0  0  0  0  0  0
   -4.5619    2.2388   -1.4845 C   0  0  2  0  0  0  0  0  0  0  0  0
   -3.1535    2.4674   -0.9521 C   0  0  0  0  0  0  0  0  0  0  0  0
   -2.8634    3.3945   -0.1987 O   0  0  0  0  0  0  0  0  0  0  0  0
   -4.7883    3.0138   -2.7732 C   0  0  0  0  0  0  0  0  0  0  0  0
   -5.2337    3.4049    0.1551 H   0  0  0  0  0  0  0  0  0  0  0  0
   -4.7192    1.1682   -1.6549 H   0  0  0  0  0  0  0  0  0  0  0  0
   -4.6352    4.0886   -2.6221 H   0  0  0  0  0  0  0  0  0  0  0  0
   -4.0976    2.6887   -3.5582 H   0  0  0  0  0  0  0  0  0  0  0  0
   -5.8111    2.8719   -3.1387 H   0  0  0  0  0  0  0  0  0  0  0  0
   -2.2466    1.5400   -1.4507 N   0  0  0  0  0  0  0  0  0  0  0  0
   -0.8424    1.5707   -1.1286 C   0  0  2  0  0  0  0  0  0  0  0  0
   -0.4248    3.0177   -0.8746 C   0  0  0  0  0  0  0  0  0  0  0  0
   -1.2334    3.9277   -0.7030 O   0  0  0  0  0  0  0  0  0  0  0  0
    0.0133    0.8687   -2.1858 C   0  0  0  0  0  0  0  0  0  0  0  0
   -0.2979   -0.9089   -2.3128 S   0  0  0  0  0  0  0  0  0  0  0  0
   -2.5850    0.7815   -2.0381 H   0  0  0  0  0  0  0  0  0  0  0  0
   -0.7456    1.0270   -0.1806 H   0  0  0  0  0  0  0  0  0  0  0  0
   -0.1641    1.3037   -3.1748 H   0  0  0  0  0  0  0  0  0  0  0  0
    1.0757    0.9996   -1.9531 H   0  0  0  0  0  0  0  0  0  0  0  0
    0.9537    3.1761   -0.8871 N   0  0  0  0  0  0  0  0  0  0  0  0
    1.5924    4.4571   -0.6951 C   0  0  2  0  0  0  0  0  0  0  0  0
    2.8765    4.4697   -1.5139 C   0  0  0  0  0  0  0  0  0  0  0  0
    3.5690    3.4697   -1.6910 O   0  0  0  0  0  0  0  0  0  0  0  0
    1.8827    4.7159    0.7751 C   0  0  0  0  0  0  0  0  0  0  0  0
    1.5497    2.3605   -0.9933 H   0  0  0  0  0  0  0  0  0  0  0  0
    0.9036    5.2153   -1.0833 H   0  0  0  0  0  0  0  0  0  0  0  0
    2.5712    3.9661    1.1816 H   0  0  0  0  0  0  0  0  0  0  0  0
    2.3409    5.6995    0.9219 H   0  0  0  0  0  0  0  0  0  0  0  0
    0.9618    4.6769    1.3669 H   0  0  0  0  0  0  0  0  0  0  0  0
    3.1810    5.7383   -1.9876 N   0  0  0  0  0  0  0  0  0  0  0  0
    4.3717    6.0188   -2.7554 C   0  0  0  0  0  0  0  0  0  0  0  0
    2.5298    6.5011   -1.8272 H   0  0  0  0  0  0  0  0  0  0  0  0
    5.1785    6.3370   -2.0788 H   0  0  0  0  0  0  0  0  0  0  0  0
    4.6821    5.1117   -3.2948 H   0  0  0  0  0  0  0  0  0  0  0  0
    4.1613    6.8211   -3.4779 H   0  0  0  0  0  0  0  0  0  0  0  0
  1  3  1  0  0  0  0
  1  7  1  0  0  0  0
  1  2  2  0  0  0  0
 23 25  1  0  0  0  0
 23 29  1  0  0  0  0
 23 24  2  0  0  0  0
 50 51  1  0  0  0  0
 51 59  1  0  0  0  0
 51 52  2  0  0  0  0
  8  9  1  0  0  0  0
  9 17  1  0  0  0  0
  9 10  2  0  0  0  0
 30 31  1  0  0  0  0
 31 39  1  0  0  0  0
 31 32  2  0  0  0  0
 40 41  1  0  0  0  0
 41 49  1  0  0  0  0
 41 42  2  0  0  0  0
 50 53  1  0  0  0  0
 30 33  1  0  0  0  0
 59 60  1  0  0  0  0
 17 18  1  0  0  0  0
  8 11  1  0  0  0  0
 11 12  1  0  0  0  0
 40 43  1  0  0  0  0
 43 44  1  0  0  0  0
 49 50  1  0  0  0  0
  7  8  1  0  0  0  0
 29 30  1  0  0  0  0
 39 40  1  0  0  0  0
 12 44  1  0  0  0  0
  3  4  1  0  0  0  0
  3  5  1  0  0  0  0
  3  6  1  0  0  0  0
 25 26  1  0  0  0  0
 25 27  1  0  0  0  0
 25 28  1  0  0  0  0
 53 56  1  0  0  0  0
 53 57  1  0  0  0  0
 53 58  1  0  0  0  0
 33 36  1  0  0  0  0
 33 37  1  0  0  0  0
 33 38  1  0  0  0  0
 60 62  1  0  0  0  0
 60 63  1  0  0  0  0
 60 64  1  0  0  0  0
 18 20  1  0  0  0  0
 18 21  1  0  0  0  0
 18 22  1  0  0  0  0
 11 15  1  0  0  0  0
 11 16  1  0  0  0  0
 43 47  1  0  0  0  0
 43 48  1  0  0  0  0
 50 55  1  0  0  0  0
  8 14  1  0  0  0  0
 30 35  1  0  0  0  0
 40 46  1  0  0  0  0
 59 61  1  0  0  0  0
 17 19  1  0  0  0  0
  7 13  1  0  0  0  0
 29 34  1  0  0  0  0
 49 54  1  0  0  0  0
 39 45  1  0  0  0  0
M  END
$$$$

  -OEChem-05262214473D

 64 63  0     1  0  0  0  0  0999 V2000
    0.2654   -3.9743   -7.1455 C   0  0  0  0  0  0  0  0  0  0  0  0
   -0.8705   -3.8297   -7.5821 O   0  0  0  0  0  0  0  0  0  0  0  0
    0.8756   -5.3364   -7.1183 C   0  0  0  0  0  0  0  0  0  0  0  0
    0.6706   -5.8702   -6.1765 H   0  0  0  0  0  0  0  0  0  0  0  0
    0.4827   -5.9891   -7.9144 H   0  0  0  0  0  0  0  0  0  0  0  0
    1.9708   -5.3646   -7.2349 H   0  0  0  0  0  0  0  0  0  0  0  0
    1.0872   -2.9751   -6.6534 N   0  0  0  0  0  0  0  0  0  0  0  0
    0.6968   -1.5894   -6.5901 C   0  0  2  0  0  0  0  0  0  0  0  0
    1.9231   -0.7176   -6.8529 C   0  0  0  0  0  0  0  0  0  0  0  0
    3.0578   -1.1759   -6.9699 O   0  0  0  0  0  0  0  0  0  0  0  0
   -0.0232   -1.2460   -5.2837 C   0  0  0  0  0  0  0  0  0  0  0  0
    1.0105   -1.4587   -3.7975 S   0  0  0  0  0  0  0  0  0  0  0  0
    2.0135   -3.2319   -6.3195 H   0  0  0  0  0  0  0  0  0  0  0  0
    0.0002   -1.4411   -7.4246 H   0  0  0  0  0  0  0  0  0  0  0  0
   -0.3683   -0.2070   -5.2966 H   0  0  0  0  0  0  0  0  0  0  0  0
   -0.9045   -1.8854   -5.1642 H   0  0  0  0  0  0  0  0  0  0  0  0
    1.6042    0.6314   -6.9164 N   0  0  0  0  0  0  0  0  0  0  0  0
    2.5976    1.6574   -7.1314 C   0  0  0  0  0  0  0  0  0  0  0  0
    0.6322    0.9189   -6.8519 H   0  0  0  0  0  0  0  0  0  0  0  0
    2.9525    2.0341   -6.1608 H   0  0  0  0  0  0  0  0  0  0  0  0
    3.4444    1.2358   -7.6928 H   0  0  0  0  0  0  0  0  0  0  0  0
    2.1527    2.4840   -7.7049 H   0  0  0  0  0  0  0  0  0  0  0  0
   -6.7256    2.0330   -0.2766 C   0  0  0  0  0  0  0  0  0  0  0  0
   -7.1824    1.1039   -0.9322 O   0  0  0  0  0  0  0  0  0  0  0  0
   -7.5276    2.6077    0.8435 C   0  0  0  0  0  0  0  0  0  0  0  0
   -8.1775    3.4344    0.5145 H   0  0  0  0  0  0  0  0  0  0  0  0
   -8.2057    1.8676    1.2980 H   0  0  0  0  0  0  0  0  0  0  0  0
   -6.9411    3.0162    1.6819 H   0  0  0  0  0  0  0  0  0  0  0  0
   -5.4935    2.6382   -0.4627 N   0  0  0  0  0  0  0  0  0  0  0  0
   -4.5619    2.2388   -1.4845 C   0  0  2  0  0  0  0  0  0  0  0  0
   -3.1535    2.4674   -0.9521 C   0  0  0  0  0  0  0  0  0  0  0  0
   -2.8634    3.3945   -0.1987 O   0  0  0  0  0  0  0  0  0  0  0  0
   -4.7883    3.0138   -2.7732 C   0  0  0  0  0  0  0  0  0  0  0  0
   -5.2337    3.4049    0.1551 H   0  0  0  0  0  0  0  0  0  0  0  0
   -4.7192    1.1682   -1.6549 H   0  0  0  0  0  0  0  0  0  0  0  0
   -4.6352    4.0886   -2.6221 H   0  0  0  0  0  0  0  0  0  0  0  0
   -4.0976    2.6887   -3.5582 H   0  0  0  0  0  0  0  0  0  0  0  0
   -5.8111    2.8719   -3.1387 H   0  0  0  0  0  0  0  0  0  0  0  0
   -2.2466    1.5400   -1.4507 N   0  0  0  0  0  0  0  0  0  0  0  0
   -0.8424    1.5707   -1.1286 C   0  0  2  0  0  0  0  0  0  0  0  0
   -0.4248    3.0177   -0.8746 C   0  0  0  0  0  0  0  0  0  0  0  0
   -1.1967    3.8714   -0.4424 O   0  0  0  0  0  0  0  0  0  0  0  0
    0.0133    0.8687   -2.1858 C   0  0  0  0  0  0  0  0  0  0  0  0
   -0.2979   -0.9089   -2.3128 S   0  0  0  0  0  0  0  0  0  0  0  0
   -2.5850    0.7815   -2.0381 H   0  0  0  0  0  0  0  0  0  0  0  0
   -0.7456    1.0270   -0.1806 H   0  0  0  0  0  0  0  0  0  0  0  0
   -0.1641    1.3037   -3.1748 H   0  0  0  0  0  0  0  0  0  0  0  0
    1.0757    0.9996   -1.9531 H   0  0  0  0  0  0  0  0  0  0  0  0
    0.9017    3.2479   -1.2105 N   0  0  0  0  0  0  0  0  0  0  0  0
    1.5239    4.5450   -1.0830 C   0  0  2  0  0  0  0  0  0  0  0  0
    2.5650    4.6777   -2.1866 C   0  0  0  0  0  0  0  0  0  0  0  0
    3.2262    3.7286   -2.6027 O   0  0  0  0  0  0  0  0  0  0  0  0
    2.1589    4.7217    0.2875 C   0  0  0  0  0  0  0  0  0  0  0  0
    1.4806    2.4730   -1.5206 H   0  0  0  0  0  0  0  0  0  0  0  0
    0.7351    5.2902   -1.2328 H   0  0  0  0  0  0  0  0  0  0  0  0
    2.9517    3.9837    0.4557 H   0  0  0  0  0  0  0  0  0  0  0  0
    2.6052    5.7161    0.3927 H   0  0  0  0  0  0  0  0  0  0  0  0
    1.4144    4.5964    1.0811 H   0  0  0  0  0  0  0  0  0  0  0  0
    2.6996    5.9886   -2.6222 N   0  0  0  0  0  0  0  0  0  0  0  0
    3.6537    6.3800   -3.6334 C   0  0  0  0  0  0  0  0  0  0  0  0
    2.0824    6.7045   -2.2503 H   0  0  0  0  0  0  0  0  0  0  0  0
    4.5911    6.6948   -3.1515 H   0  0  0  0  0  0  0  0  0  0  0  0
    3.8523    5.5275   -4.2996 H   0  0  0  0  0  0  0  0  0  0  0  0
    3.2442    7.2159   -4.2196 H   0  0  0  0  0  0  0  0  0  0  0  0
  1  3  1  0  0  0  0
  1  7  1  0  0  0  0
  1  2  2  0  0  0  0
 23 25  1  0  0  0  0
 23 29  1  0  0  0  0
 23 24  2  0  0  0  0
 50 51  1  0  0  0  0
 51 59  1  0  0  0  0
 51 52  2  0  0  0  0
  8  9  1  0  0  0  0
  9 17  1  0  0  0  0
  9 10  2  0  0  0  0
 30 31  1  0  0  0  0
 31 39  1  0  0  0  0
 31 32  2  0  0  0  0
 40 41  1  0  0  0  0
 41 49  1  0  0  0  0
 41 42  2  0  0  0  0
 50 53  1  0  0  0  0
 30 33  1  0  0  0  0
 59 60  1  0  0  0  0
 17 18  1  0  0  0  0
  8 11  1  0  0  0  0
 11 12  1  0  0  0  0
 40 43  1  0  0  0  0
 43 44  1  0  0  0  0
 49 50  1  0  0  0  0
  7  8  1  0  0  0  0
 29 30  1  0  0  0  0
 39 40  1  0  0  0  0
 12 44  1  0  0  0  0
  3  4  1  0  0  0  0
  3  5  1  0  0  0  0
  3  6  1  0  0  0  0
 25 26  1  0  0  0  0
 25 27  1  0  0  0  0
 25 28  1  0  0  0  0
 53 56  1  0  0  0  0
 53 57  1  0  0  0  0
 53 58  1  0  0  0  0
 33 36  1  0  0  0  0
 33 37  1  0  0  0  0
 33 38  1  0  0  0  0
 60 62  1  0  0  0  0
 60 63  1  0  0  0  0
 60 64  1  0  0  0  0
 18 20  1  0  0  0  0
 18 21  1  0  0  0  0
 18 22  1  0  0  0  0
 11 15  1  0  0  0  0
 11 16  1  0  0  0  0
 43 47  1  0  0  0  0
 43 48  1  0  0  0  0
 50 55  1  0  0  0  0
  8 14  1  0  0  0  0
 30 35  1  0  0  0  0
 40 46  1  0  0  0  0
 59 61  1  0  0  0  0
 17 19  1  0  0  0  0
  7 13  1  0  0  0  0
 29 34  1  0  0  0  0
 49 54  1  0  0  0  0
 39 45  1  0  0  0  0
M  END
$$$$

  -OEChem-05262214473D

 64 63  0     1  0  0  0  0  0999 V2000
    0.2654   -3.9743   -7.1455 C   0  0  0  0  0  0  0  0  0  0  0  0
   -0.8705   -3.8297   -7.5821 O   0  0  0  0  0  0  0  0  0  0  0  0
    0.8756   -5.3364   -7.1183 C   0  0  0  0  0  0  0  0  0  0  0  0
    0.6706   -5.8702   -6.1765 H   0  0  0  0  0  0  0  0  0  0  0  0
    0.4827   -5.9891   -7.9144 H   0  0  0  0  0  0  0  0  0  0  0  0
    1.9708   -5.3646   -7.2349 H   0  0  0  0  0  0  0  0  0  0  0  0
    1.0872   -2.9751   -6.6534 N   0  0  0  0  0  0  0  0  0  0  0  0
    0.6968   -1.5894   -6.5901 C   0  0  2  0  0  0  0  0  0  0  0  0
    1.9231   -0.7176   -6.8529 C   0  0  0  0  0  0  0  0  0  0  0  0
    3.0578   -1.1759   -6.9699 O   0  0  0  0  0  0  0  0  0  0  0  0
   -0.0232   -1.2460   -5.2837 C   0  0  0  0  0  0  0  0  0  0  0  0
    1.0105   -1.4587   -3.7975 S   0  0  0  0  0  0  0  0  0  0  0  0
    2.0135   -3.2319   -6.3195 H   0  0  0  0  0  0  0  0  0  0  0  0
    0.0002   -1.4411   -7.4246 H   0  0  0  0  0  0  0  0  0  0  0  0
   -0.3683   -0.2070   -5.2966 H   0  0  0  0  0  0  0  0  0  0  0  0
   -0.9045   -1.8854   -5.1642 H   0  0  0  0  0  0  0  0  0  0  0  0
    1.6042    0.6314   -6.9164 N   0  0  0  0  0  0  0  0  0  0  0  0
    2.5976    1.6574   -7.1314 C   0  0  0  0  0  0  0  0  0  0  0  0
    0.6322    0.9189   -6.8519 H   0  0  0  0  0  0  0  0  0  0  0  0
    2.9525    2.0341   -6.1608 H   0  0  0  0  0  0  0  0  0  0  0  0
    3.4444    1.2358   -7.6928 H   0  0  0  0  0  0  0  0  0  0  0  0
    2.1527    2.4840   -7.7049 H   0  0  0  0  0  0  0  0  0  0  0  0
   -6.7256    2.0330   -0.2766 C   0  0  0  0  0  0  0  0  0  0  0  0
   -7.1824    1.1039   -0.9322 O   0  0  0  0  0  0  0  0  0  0  0  0
   -7.5276    2.6077    0.8435 C   0  0  0  0  0  0  0  0  0  0  0  0
   -8.1775    3.4344    0.5145 H   0  0  0  0  0  0  0  0  0  0  0  0
   -8.2057    1.8676    1.2980 H   0  0  0  0  0  0  0  0  0  0  0  0
   -6.9411    3.0162    1.6819 H   0  0  0  0  0  0  0  0  0  0  0  0
   -5.4935    2.6382   -0.4627 N   0  0  0  0  0  0  0  0  0  0  0  0
   -4.5619    2.2388   -1.4845 C   0  0  2  0  0  0  0  0  0  0  0  0
   -3.1535    2.4674   -0.9521 C   0  0  0  0  0  0  0  0  0  0  0  0
   -2.8634    3.3945   -0.1987 O   0  0  0  0  0  0  0  0  0  0  0  0
   -4.7883    3.0138   -2.7732 C   0  0  0  0  0  0  0  0  0  0  0  0
   -5.2337    3.4049    0.1551 H   0  0  0  0  0  0  0  0  0  0  0  0
   -4.7192    1.1682   -1.6549 H   0  0  0  0  0  0  0  0  0  0  0  0
   -4.6352    4.0886   -2.6221 H   0  0  0  0  0  0  0  0  0  0  0  0
   -4.0976    2.6887   -3.5582 H   0  0  0  0  0  0  0  0  0  0  0  0
   -5.8111    2.8719   -3.1387 H   0  0  0  0  0  0  0  0  0  0  0  0
   -2.2466    1.5400   -1.4507 N   0  0  0  0  0  0  0  0  0  0  0  0
   -0.8424    1.5707   -1.1286 C   0  0  2  0  0  0  0  0  0  0  0  0
   -0.4248    3.0177   -0.8746 C   0  0  0  0  0  0  0  0  0  0  0  0
   -1.0949    3.8001   -0.2036 O   0  0  0  0  0  0  0  0  0  0  0  0
    0.0133    0.8687   -2.1858 C   0  0  0  0  0  0  0  0  0  0  0  0
   -0.2979   -0.9089   -2.3128 S   0  0  0  0  0  0  0  0  0  0  0  0
   -2.5850    0.7815   -2.0381 H   0  0  0  0  0  0  0  0  0  0  0  0
   -0.7456    1.0270   -0.1806 H   0  0  0  0  0  0  0  0  0  0  0  0
   -0.1641    1.3037   -3.1748 H   0  0  0  0  0  0  0  0  0  0  0  0
    1.0757    0.9996   -1.9531 H   0  0  0  0  0  0  0  0  0  0  0  0
    0.7691    3.3378   -1.5051 N   0  0  0  0  0  0  0  0  0  0  0  0
    1.3588    4.6543   -1.4347 C   0  0  2  0  0  0  0  0  0  0  0  0
    2.0902    4.9128   -2.7453 C   0  0  0  0  0  0  0  0  0  0  0  0
    2.6604    4.0285   -3.3809 O   0  0  0  0  0  0  0  0  0  0  0  0
    2.3059    4.7738   -0.2509 C   0  0  0  0  0  0  0  0  0  0  0  0
    1.2798    2.6160   -2.0049 H   0  0  0  0  0  0  0  0  0  0  0  0
    0.5324    5.3658   -1.3305 H   0  0  0  0  0  0  0  0  0  0  0  0
    3.1405    4.0685   -0.3376 H   0  0  0  0  0  0  0  0  0  0  0  0
    2.7301    5.7809   -0.1822 H   0  0  0  0  0  0  0  0  0  0  0  0
    1.7850    4.5584    0.6883 H   0  0  0  0  0  0  0  0  0  0  0  0
    2.0683    6.2545   -3.0994 N   0  0  0  0  0  0  0  0  0  0  0  0
    2.7293    6.7603   -4.2797 C   0  0  0  0  0  0  0  0  0  0  0  0
    1.5378    6.9117   -2.5350 H   0  0  0  0  0  0  0  0  0  0  0  0
    3.7453    7.0910   -4.0183 H   0  0  0  0  0  0  0  0  0  0  0  0
    2.7864    5.9646   -5.0372 H   0  0  0  0  0  0  0  0  0  0  0  0
    2.1595    7.6103   -4.6832 H   0  0  0  0  0  0  0  0  0  0  0  0
  1  3  1  0  0  0  0
  1  7  1  0  0  0  0
  1  2  2  0  0  0  0
 23 25  1  0  0  0  0
 23 29  1  0  0  0  0
 23 24  2  0  0  0  0
 50 51  1  0  0  0  0
 51 59  1  0  0  0  0
 51 52  2  0  0  0  0
  8  9  1  0  0  0  0
  9 17  1  0  0  0  0
  9 10  2  0  0  0  0
 30 31  1  0  0  0  0
 31 39  1  0  0  0  0
 31 32  2  0  0  0  0
 40 41  1  0  0  0  0
 41 49  1  0  0  0  0
 41 42  2  0  0  0  0
 50 53  1  0  0  0  0
 30 33  1  0  0  0  0
 59 60  1  0  0  0  0
 17 18  1  0  0  0  0
  8 11  1  0  0  0  0
 11 12  1  0  0  0  0
 40 43  1  0  0  0  0
 43 44  1  0  0  0  0
 49 50  1  0  0  0  0
  7  8  1  0  0  0  0
 29 30  1  0  0  0  0
 39 40  1  0  0  0  0
 12 44  1  0  0  0  0
  3  4  1  0  0  0  0
  3  5  1  0  0  0  0
  3  6  1  0  0  0  0
 25 26  1  0  0  0  0
 25 27  1  0  0  0  0
 25 28  1  0  0  0  0
 53 56  1  0  0  0  0
 53 57  1  0  0  0  0
 53 58  1  0  0  0  0
 33 36  1  0  0  0  0
 33 37  1  0  0  0  0
 33 38  1  0  0  0  0
 60 62  1  0  0  0  0
 60 63  1  0  0  0  0
 60 64  1  0  0  0  0
 18 20  1  0  0  0  0
 18 21  1  0  0  0  0
 18 22  1  0  0  0  0
 11 15  1  0  0  0  0
 11 16  1  0  0  0  0
 43 47  1  0  0  0  0
 43 48  1  0  0  0  0
 50 55  1  0  0  0  0
  8 14  1  0  0  0  0
 30 35  1  0  0  0  0
 40 46  1  0  0  0  0
 59 61  1  0  0  0  0
 17 19  1  0  0  0  0
  7 13  1  0  0  0  0
 29 34  1  0  0  0  0
 49 54  1  0  0  0  0
 39 45  1  0  0  0  0
M  END
$$$$

  -OEChem-05262214473D

 64 63  0     1  0  0  0  0  0999 V2000
    0.2654   -3.9743   -7.1455 C   0  0  0  0  0  0  0  0  0  0  0  0
   -0.8705   -3.8297   -7.5821 O   0  0  0  0  0  0  0  0  0  0  0  0
    0.8756   -5.3364   -7.1183 C   0  0  0  0  0  0  0  0  0  0  0  0
    0.6706   -5.8702   -6.1765 H   0  0  0  0  0  0  0  0  0  0  0  0
    0.4827   -5.9891   -7.9144 H   0  0  0  0  0  0  0  0  0  0  0  0
    1.9708   -5.3646   -7.2349 H   0  0  0  0  0  0  0  0  0  0  0  0
    1.0872   -2.9751   -6.6534 N   0  0  0  0  0  0  0  0  0  0  0  0
    0.6968   -1.5894   -6.5901 C   0  0  2  0  0  0  0  0  0  0  0  0
    1.9231   -0.7176   -6.8529 C   0  0  0  0  0  0  0  0  0  0  0  0
    3.0578   -1.1759   -6.9699 O   0  0  0  0  0  0  0  0  0  0  0  0
   -0.0232   -1.2460   -5.2837 C   0  0  0  0  0  0  0  0  0  0  0  0
    1.0105   -1.4587   -3.7975 S   0  0  0  0  0  0  0  0  0  0  0  0
    2.0135   -3.2319   -6.3195 H   0  0  0  0  0  0  0  0  0  0  0  0
    0.0002   -1.4411   -7.4246 H   0  0  0  0  0  0  0  0  0  0  0  0
   -0.3683   -0.2070   -5.2966 H   0  0  0  0  0  0  0  0  0  0  0  0
   -0.9045   -1.8854   -5.1642 H   0  0  0  0  0  0  0  0  0  0  0  0
    1.6042    0.6314   -6.9164 N   0  0  0  0  0  0  0  0  0  0  0  0
    2.5976    1.6574   -7.1314 C   0  0  0  0  0  0  0  0  0  0  0  0
    0.6322    0.9189   -6.8519 H   0  0  0  0  0  0  0  0  0  0  0  0
    2.9525    2.0341   -6.1608 H   0  0  0  0  0  0  0  0  0  0  0  0
    3.4444    1.2358   -7.6928 H   0  0  0  0  0  0  0  0  0  0  0  0
    2.1527    2.4840   -7.7049 H   0  0  0  0  0  0  0  0  0  0  0  0
   -6.7256    2.0330   -0.2766 C   0  0  0  0  0  0  0  0  0  0  0  0
   -7.1824    1.1039   -0.9322 O   0  0  0  0  0  0  0  0  0  0  0  0
   -7.5276    2.6077    0.8435 C   0  0  0  0  0  0  0  0  0  0  0  0
   -8.1775    3.4344    0.5145 H   0  0  0  0  0  0  0  0  0  0  0  0
   -8.2057    1.8676    1.2980 H   0  0  0  0  0  0  0  0  0  0  0  0
   -6.9411    3.0162    1.6819 H   0  0  0  0  0  0  0  0  0  0  0  0
   -5.4935    2.6382   -0.4627 N   0  0  0  0  0  0  0  0  0  0  0  0
   -4.5619    2.2388   -1.4845 C   0  0  2  0  0  0  0  0  0  0  0  0
   -3.1535    2.4674   -0.9521 C   0  0  0  0  0  0  0  0  0  0  0  0
   -2.8634    3.3945   -0.1987 O   0  0  0  0  0  0  0  0  0  0  0  0
   -4.7883    3.0138   -2.7732 C   0  0  0  0  0  0  0  0  0  0  0  0
   -5.2337    3.4049    0.1551 H   0  0  0  0  0  0  0  0  0  0  0  0
   -4.7192    1.1682   -1.6549 H   0  0  0  0  0  0  0  0  0  0  0  0
   -4.6352    4.0886   -2.6221 H   0  0  0  0  0  0  0  0  0  0  0  0
   -4.0976    2.6887   -3.5582 H   0  0  0  0  0  0  0  0  0  0  0  0
   -5.8111    2.8719   -3.1387 H   0  0  0  0  0  0  0  0  0  0  0  0
   -2.2466    1.5400   -1.4507 N   0  0  0  0  0  0  0  0  0  0  0  0
   -0.8424    1.5707   -1.1286 C   0  0  2  0  0  0  0  0  0  0  0  0
   -0.4248    3.0177   -0.8746 C   0  0  0  0  0  0  0  0  0  0  0  0
   -0.9350    3.7188   -0.0030 O   0  0  0  0  0  0  0  0  0  0  0  0
    0.0133    0.8687   -2.1858 C   0  0  0  0  0  0  0  0  0  0  0  0
   -0.2979   -0.9089   -2.3128 S   0  0  0  0  0  0  0  0  0  0  0  0
   -2.5850    0.7815   -2.0381 H   0  0  0  0  0  0  0  0  0  0  0  0
   -0.7456    1.0270   -0.1806 H   0  0  0  0  0  0  0  0  0  0  0  0
   -0.1641    1.3037   -3.1748 H   0  0  0  0  0  0  0  0  0  0  0  0
    1.0757    0.9996   -1.9531 H   0  0  0  0  0  0  0  0  0  0  0  0
    0.5649    3.4399   -1.7508 N   0  0  0  0  0  0  0  0  0  0  0  0
    1.1083    4.7778   -1.7261 C   0  0  2  0  0  0  0  0  0  0  0  0
    1.4845    5.1589   -3.1518 C   0  0  0  0  0  0  0  0  0  0  0  0
    1.9101    4.3489   -3.9727 O   0  0  0  0  0  0  0  0  0  0  0  0
    2.3136    4.8685   -0.8032 C   0  0  0  0  0  0  0  0  0  0  0  0
    0.9609    2.7797   -2.4134 H   0  0  0  0  0  0  0  0  0  0  0  0
    0.3093    5.4371   -1.3699 H   0  0  0  0  0  0  0  0  0  0  0  0
    3.1246    4.2146   -1.1441 H   0  0  0  0  0  0  0  0  0  0  0  0
    2.7070    5.8897   -0.7635 H   0  0  0  0  0  0  0  0  0  0  0  0
    2.0482    4.5654    0.2154 H   0  0  0  0  0  0  0  0  0  0  0  0
    1.3299    6.5180   -3.3867 N   0  0  0  0  0  0  0  0  0  0  0  0
    1.6616    7.1335   -4.6505 C   0  0  0  0  0  0  0  0  0  0  0  0
    0.9330    7.1084   -2.6618 H   0  0  0  0  0  0  0  0  0  0  0  0
    2.6988    7.4987   -4.6201 H   0  0  0  0  0  0  0  0  0  0  0  0
    1.5572    6.3931   -5.4573 H   0  0  0  0  0  0  0  0  0  0  0  0
    0.9811    7.9774   -4.8370 H   0  0  0  0  0  0  0  0  0  0  0  0
  1  3  1  0  0  0  0
  1  7  1  0  0  0  0
  1  2  2  0  0  0  0
 23 25  1  0  0  0  0
 23 29  1  0  0  0  0
 23 24  2  0  0  0  0
 50 51  1  0  0  0  0
 51 59  1  0  0  0  0
 51 52  2  0  0  0  0
  8  9  1  0  0  0  0
  9 17  1  0  0  0  0
  9 10  2  0  0  0  0
 30 31  1  0  0  0  0
 31 39  1  0  0  0  0
 31 32  2  0  0  0  0
 40 41  1  0  0  0  0
 41 49  1  0  0  0  0
 41 42  2  0  0  0  0
 50 53  1  0  0  0  0
 30 33  1  0  0  0  0
 59 60  1  0  0  0  0
 17 18  1  0  0  0  0
  8 11  1  0  0  0  0
 11 12  1  0  0  0  0
 40 43  1  0  0  0  0
 43 44  1  0  0  0  0
 49 50  1  0  0  0  0
  7  8  1  0  0  0  0
 29 30  1  0  0  0  0
 39 40  1  0  0  0  0
 12 44  1  0  0  0  0
  3  4  1  0  0  0  0
  3  5  1  0  0  0  0
  3  6  1  0  0  0  0
 25 26  1  0  0  0  0
 25 27  1  0  0  0  0
 25 28  1  0  0  0  0
 53 56  1  0  0  0  0
 53 57  1  0  0  0  0
 53 58  1  0  0  0  0
 33 36  1  0  0  0  0
 33 37  1  0  0  0  0
 33 38  1  0  0  0  0
 60 62  1  0  0  0  0
 60 63  1  0  0  0  0
 60 64  1  0  0  0  0
 18 20  1  0  0  0  0
 18 21  1  0  0  0  0
 18 22  1  0  0  0  0
 11 15  1  0  0  0  0
 11 16  1  0  0  0  0
 43 47  1  0  0  0  0
 43 48  1  0  0  0  0
 50 55  1  0  0  0  0
  8 14  1  0  0  0  0
 30 35  1  0  0  0  0
 40 46  1  0  0  0  0
 59 61  1  0  0  0  0
 17 19  1  0  0  0  0
  7 13  1  0  0  0  0
 29 34  1  0  0  0  0
 49 54  1  0  0  0  0
 39 45  1  0  0  0  0
M  END
$$$$

  -OEChem-05262214473D

 64 63  0     1  0  0  0  0  0999 V2000
    0.2654   -3.9743   -7.1455 C   0  0  0  0  0  0  0  0  0  0  0  0
   -0.8705   -3.8297   -7.5821 O   0  0  0  0  0  0  0  0  0  0  0  0
    0.8756   -5.3364   -7.1183 C   0  0  0  0  0  0  0  0  0  0  0  0
    0.6706   -5.8702   -6.1765 H   0  0  0  0  0  0  0  0  0  0  0  0
    0.4827   -5.9891   -7.9144 H   0  0  0  0  0  0  0  0  0  0  0  0
    1.9708   -5.3646   -7.2349 H   0  0  0  0  0  0  0  0  0  0  0  0
    1.0872   -2.9751   -6.6534 N   0  0  0  0  0  0  0  0  0  0  0  0
    0.6968   -1.5894   -6.5901 C   0  0  2  0  0  0  0  0  0  0  0  0
    1.9231   -0.7176   -6.8529 C   0  0  0  0  0  0  0  0  0  0  0  0
    3.0578   -1.1759   -6.9699 O   0  0  0  0  0  0  0  0  0  0  0  0
   -0.0232   -1.2460   -5.2837 C   0  0  0  0  0  0  0  0  0  0  0  0
    1.0105   -1.4587   -3.7975 S   0  0  0  0  0  0  0  0  0  0  0  0
    2.0135   -3.2319   -6.3195 H   0  0  0  0  0  0  0  0  0  0  0  0
    0.0002   -1.4411   -7.4246 H   0  0  0  0  0  0  0  0  0  0  0  0
   -0.3683   -0.2070   -5.2966 H   0  0  0  0  0  0  0  0  0  0  0  0
   -0.9045   -1.8854   -5.1642 H   0  0  0  0  0  0  0  0  0  0  0  0
    1.6042    0.6314   -6.9164 N   0  0  0  0  0  0  0  0  0  0  0  0
    2.5976    1.6574   -7.1314 C   0  0  0  0  0  0  0  0  0  0  0  0
    0.6322    0.9189   -6.8519 H   0  0  0  0  0  0  0  0  0  0  0  0
    2.9525    2.0341   -6.1608 H   0  0  0  0  0  0  0  0  0  0  0  0
    3.4444    1.2358   -7.6928 H   0  0  0  0  0  0  0  0  0  0  0  0
    2.1527    2.4840   -7.7049 H   0  0  0  0  0  0  0  0  0  0  0  0
   -6.7256    2.0330   -0.2766 C   0  0  0  0  0  0  0  0  0  0  0  0
   -7.1824    1.1039   -0.9322 O   0  0  0  0  0  0  0  0  0  0  0  0
   -7.5276    2.6077    0.8435 C   0  0  0  0  0  0  0  0  0  0  0  0
   -8.1775    3.4344    0.5145 H   0  0  0  0  0  0  0  0  0  0  0  0
   -8.2057    1.8676    1.2980 H   0  0  0  0  0  0  0  0  0  0  0  0
   -6.9411    3.0162    1.6819 H   0  0  0  0  0  0  0  0  0  0  0  0
   -5.4935    2.6382   -0.4627 N   0  0  0  0  0  0  0  0  0  0  0  0
   -4.5619    2.2388   -1.4845 C   0  0  2  0  0  0  0  0  0  0  0  0
   -3.1535    2.4674   -0.9521 C   0  0  0  0  0  0  0  0  0  0  0  0
   -2.8634    3.3945   -0.1987 O   0  0  0  0  0  0  0  0  0  0  0  0
   -4.7883    3.0138   -2.7732 C   0  0  0  0  0  0  0  0  0  0  0  0
   -5.2337    3.4049    0.1551 H   0  0  0  0  0  0  0  0  0  0  0  0
   -4.7192    1.1682   -1.6549 H   0  0  0  0  0  0  0  0  0  0  0  0
   -4.6352    4.0886   -2.6221 H   0  0  0  0  0  0  0  0  0  0  0  0
   -4.0976    2.6887   -3.5582 H   0  0  0  0  0  0  0  0  0  0  0  0
   -5.8111    2.8719   -3.1387 H   0  0  0  0  0  0  0  0  0  0  0  0
   -2.2466    1.5400   -1.4507 N   0  0  0  0  0  0  0  0  0  0  0  0
   -0.8424    1.5707   -1.1286 C   0  0  2  0  0  0  0  0  0  0  0  0
   -0.4248    3.0177   -0.8746 C   0  0  0  0  0  0  0  0  0  0  0  0
   -0.7278    3.6328    0.1458 O   0  0  0  0  0  0  0  0  0  0  0  0
    0.0133    0.8687   -2.1858 C   0  0  0  0  0  0  0  0  0  0  0  0
   -0.2979   -0.9089   -2.3128 S   0  0  0  0  0  0  0  0  0  0  0  0
   -2.5850    0.7815   -2.0381 H   0  0  0  0  0  0  0  0  0  0  0  0
   -0.7456    1.0270   -0.1806 H   0  0  0  0  0  0  0  0  0  0  0  0
   -0.1641    1.3037   -3.1748 H   0  0  0  0  0  0  0  0  0  0  0  0
    1.0757    0.9996   -1.9531 H   0  0  0  0  0  0  0  0  0  0  0  0
    0.3031    3.5470   -1.9308 N   0  0  0  0  0  0  0  0  0  0  0  0
    0.7897    4.9068   -1.9375 C   0  0  2  0  0  0  0  0  0  0  0  0
    0.7891    5.3994   -3.3786 C   0  0  0  0  0  0  0  0  0  0  0  0
    1.0264    4.6679   -4.3376 O   0  0  0  0  0  0  0  0  0  0  0  0
    2.1816    4.9994   -1.3319 C   0  0  0  0  0  0  0  0  0  0  0  0
    0.5456    2.9530   -2.7182 H   0  0  0  0  0  0  0  0  0  0  0  0
    0.0812    5.4991   -1.3482 H   0  0  0  0  0  0  0  0  0  0  0  0
    2.9053    4.4122   -1.9089 H   0  0  0  0  0  0  0  0  0  0  0  0
    2.5374    6.0348   -1.3116 H   0  0  0  0  0  0  0  0  0  0  0  0
    2.1863    4.6170   -0.3055 H   0  0  0  0  0  0  0  0  0  0  0  0
    0.5350    6.7611   -3.4646 N   0  0  0  0  0  0  0  0  0  0  0  0
    0.5233    7.4742   -4.7205 C   0  0  0  0  0  0  0  0  0  0  0  0
    0.3092    7.2815   -2.6219 H   0  0  0  0  0  0  0  0  0  0  0  0
    1.5227    7.8900   -4.9160 H   0  0  0  0  0  0  0  0  0  0  0  0
    0.2484    6.7838   -5.5315 H   0  0  0  0  0  0  0  0  0  0  0  0
   -0.2106    8.2921   -4.6707 H   0  0  0  0  0  0  0  0  0  0  0  0
  1  3  1  0  0  0  0
  1  7  1  0  0  0  0
  1  2  2  0  0  0  0
 23 25  1  0  0  0  0
 23 29  1  0  0  0  0
 23 24  2  0  0  0  0
 50 51  1  0  0  0  0
 51 59  1  0  0  0  0
 51 52  2  0  0  0  0
  8  9  1  0  0  0  0
  9 17  1  0  0  0  0
  9 10  2  0  0  0  0
 30 31  1  0  0  0  0
 31 39  1  0  0  0  0
 31 32  2  0  0  0  0
 40 41  1  0  0  0  0
 41 49  1  0  0  0  0
 41 42  2  0  0  0  0
 50 53  1  0  0  0  0
 30 33  1  0  0  0  0
 59 60  1  0  0  0  0
 17 18  1  0  0  0  0
  8 11  1  0  0  0  0
 11 12  1  0  0  0  0
 40 43  1  0  0  0  0
 43 44  1  0  0  0  0
 49 50  1  0  0  0  0
  7  8  1  0  0  0  0
 29 30  1  0  0  0  0
 39 40  1  0  0  0  0
 12 44  1  0  0  0  0
  3  4  1  0  0  0  0
  3  5  1  0  0  0  0
  3  6  1  0  0  0  0
 25 26  1  0  0  0  0
 25 27  1  0  0  0  0
 25 28  1  0  0  0  0
 53 56  1  0  0  0  0
 53 57  1  0  0  0  0
 53 58  1  0  0  0  0
 33 36  1  0  0  0  0
 33 37  1  0  0  0  0
 33 38  1  0  0  0  0
 60 62  1  0  0  0  0
 60 63  1  0  0  0  0
 60 64  1  0  0  0  0
 18 20  1  0  0  0  0
 18 21  1  0  0  0  0
 18 22  1  0  0  0  0
 11 15  1  0  0  0  0
 11 16  1  0  0  0  0
 43 47  1  0  0  0  0
 43 48  1  0  0  0  0
 50 55  1  0  0  0  0
  8 14  1  0  0  0  0
 30 35  1  0  0  0  0
 40 46  1  0  0  0  0
 59 61  1  0  0  0  0
 17 19  1  0  0  0  0
  7 13  1  0  0  0  0
 29 34  1  0  0  0  0
 49 54  1  0  0  0  0
 39 45  1  0  0  0  0
M  END
$$$$

  -OEChem-05262214473D

 64 63  0     1  0  0  0  0  0999 V2000
    0.2654   -3.9743   -7.1455 C   0  0  0  0  0  0  0  0  0  0  0  0
   -0.8705   -3.8297   -7.5821 O   0  0  0  0  0  0  0  0  0  0  0  0
    0.8756   -5.3364   -7.1183 C   0  0  0  0  0  0  0  0  0  0  0  0
    0.6706   -5.8702   -6.1765 H   0  0  0  0  0  0  0  0  0  0  0  0
    0.4827   -5.9891   -7.9144 H   0  0  0  0  0  0  0  0  0  0  0  0
    1.9708   -5.3646   -7.2349 H   0  0  0  0  0  0  0  0  0  0  0  0
    1.0872   -2.9751   -6.6534 N   0  0  0  0  0  0  0  0  0  0  0  0
    0.6968   -1.5894   -6.5901 C   0  0  2  0  0  0  0  0  0  0  0  0
    1.9231   -0.7176   -6.8529 C   0  0  0  0  0  0  0  0  0  0  0  0
    3.0578   -1.1759   -6.9699 O   0  0  0  0  0  0  0  0  0  0  0  0
   -0.0232   -1.2460   -5.2837 C   0  0  0  0  0  0  0  0  0  0  0  0
    1.0105   -1.4587   -3.7975 S   0  0  0  0  0  0  0  0  0  0  0  0
    2.0135   -3.2319   -6.3195 H   0  0  0  0  0  0  0  0  0  0  0  0
    0.0002   -1.4411   -7.4246 H   0  0  0  0  0  0  0  0  0  0  0  0
   -0.3683   -0.2070   -5.2966 H   0  0  0  0  0  0  0  0  0  0  0  0
   -0.9045   -1.8854   -5.1642 H   0  0  0  0  0  0  0  0  0  0  0  0
    1.6042    0.6314   -6.9164 N   0  0  0  0  0  0  0  0  0  0  0  0
    2.5976    1.6574   -7.1314 C   0  0  0  0  0  0  0  0  0  0  0  0
    0.6322    0.9189   -6.8519 H   0  0  0  0  0  0  0  0  0  0  0  0
    2.9525    2.0341   -6.1608 H   0  0  0  0  0  0  0  0  0  0  0  0
    3.4444    1.2358   -7.6928 H   0  0  0  0  0  0  0  0  0  0  0  0
    2.1527    2.4840   -7.7049 H   0  0  0  0  0  0  0  0  0  0  0  0
   -6.7256    2.0330   -0.2766 C   0  0  0  0  0  0  0  0  0  0  0  0
   -7.1824    1.1039   -0.9322 O   0  0  0  0  0  0  0  0  0  0  0  0
   -7.5276    2.6077    0.8435 C   0  0  0  0  0  0  0  0  0  0  0  0
   -8.1775    3.4344    0.5145 H   0  0  0  0  0  0  0  0  0  0  0  0
   -8.2057    1.8676    1.2980 H   0  0  0  0  0  0  0  0  0  0  0  0
   -6.9411    3.0162    1.6819 H   0  0  0  0  0  0  0  0  0  0  0  0
   -5.4935    2.6382   -0.4627 N   0  0  0  0  0  0  0  0  0  0  0  0
   -4.5619    2.2388   -1.4845 C   0  0  2  0  0  0  0  0  0  0  0  0
   -3.1535    2.4674   -0.9521 C   0  0  0  0  0  0  0  0  0  0  0  0
   -2.8634    3.3945   -0.1987 O   0  0  0  0  0  0  0  0  0  0  0  0
   -4.7883    3.0138   -2.7732 C   0  0  0  0  0  0  0  0  0  0  0  0
   -5.2337    3.4049    0.1551 H   0  0  0  0  0  0  0  0  0  0  0  0
   -4.7192    1.1682   -1.6549 H   0  0  0  0  0  0  0  0  0  0  0  0
   -4.6352    4.0886   -2.6221 H   0  0  0  0  0  0  0  0  0  0  0  0
   -4.0976    2.6887   -3.5582 H   0  0  0  0  0  0  0  0  0  0  0  0
   -5.8111    2.8719   -3.1387 H   0  0  0  0  0  0  0  0  0  0  0  0
   -2.2466    1.5400   -1.4507 N   0  0  0  0  0  0  0  0  0  0  0  0
   -0.8424    1.5707   -1.1286 C   0  0  2  0  0  0  0  0  0  0  0  0
   -0.4248    3.0177   -0.8746 C   0  0  0  0  0  0  0  0  0  0  0  0
   -0.4875    3.5483    0.2326 O   0  0  0  0  0  0  0  0  0  0  0  0
    0.0133    0.8687   -2.1858 C   0  0  0  0  0  0  0  0  0  0  0  0
   -0.2979   -0.9089   -2.3128 S   0  0  0  0  0  0  0  0  0  0  0  0
   -2.5850    0.7815   -2.0381 H   0  0  0  0  0  0  0  0  0  0  0  0
   -0.7456    1.0270   -0.1806 H   0  0  0  0  0  0  0  0  0  0  0  0
   -0.1641    1.3037   -3.1748 H   0  0  0  0  0  0  0  0  0  0  0  0
    1.0757    0.9996   -1.9531 H   0  0  0  0  0  0  0  0  0  0  0  0
    0.0014    3.6520   -2.0329 N   0  0  0  0  0  0  0  0  0  0  0  0
    0.4245    5.0327   -2.0544 C   0  0  2  0  0  0  0  0  0  0  0  0
    0.0515    5.6178   -3.4101 C   0  0  0  0  0  0  0  0  0  0  0  0
    0.0697    4.9639   -4.4508 O   0  0  0  0  0  0  0  0  0  0  0  0
    1.9188    5.1576   -1.8010 C   0  0  0  0  0  0  0  0  0  0  0  0
    0.0623    3.1241   -2.8985 H   0  0  0  0  0  0  0  0  0  0  0  0
   -0.1365    5.5477   -1.2669 H   0  0  0  0  0  0  0  0  0  0  0  0
    2.4973    4.6476   -2.5799 H   0  0  0  0  0  0  0  0  0  0  0  0
    2.2329    6.2065   -1.7892 H   0  0  0  0  0  0  0  0  0  0  0  0
    2.1897    4.7096   -0.8388 H   0  0  0  0  0  0  0  0  0  0  0  0
   -0.2624    6.9672   -3.3276 N   0  0  0  0  0  0  0  0  0  0  0  0
   -0.6081    7.7594   -4.4848 C   0  0  0  0  0  0  0  0  0  0  0  0
   -0.2910    7.4189   -2.4183 H   0  0  0  0  0  0  0  0  0  0  0  0
    0.2974    8.2383   -4.8857 H   0  0  0  0  0  0  0  0  0  0  0  0
   -1.0508    7.1101   -5.2545 H   0  0  0  0  0  0  0  0  0  0  0  0
   -1.3345    8.5331   -4.1956 H   0  0  0  0  0  0  0  0  0  0  0  0
  1  3  1  0  0  0  0
  1  7  1  0  0  0  0
  1  2  2  0  0  0  0
 23 25  1  0  0  0  0
 23 29  1  0  0  0  0
 23 24  2  0  0  0  0
 50 51  1  0  0  0  0
 51 59  1  0  0  0  0
 51 52  2  0  0  0  0
  8  9  1  0  0  0  0
  9 17  1  0  0  0  0
  9 10  2  0  0  0  0
 30 31  1  0  0  0  0
 31 39  1  0  0  0  0
 31 32  2  0  0  0  0
 40 41  1  0  0  0  0
 41 49  1  0  0  0  0
 41 42  2  0  0  0  0
 50 53  1  0  0  0  0
 30 33  1  0  0  0  0
 59 60  1  0  0  0  0
 17 18  1  0  0  0  0
  8 11  1  0  0  0  0
 11 12  1  0  0  0  0
 40 43  1  0  0  0  0
 43 44  1  0  0  0  0
 49 50  1  0  0  0  0
  7  8  1  0  0  0  0
 29 30  1  0  0  0  0
 39 40  1  0  0  0  0
 12 44  1  0  0  0  0
  3  4  1  0  0  0  0
  3  5  1  0  0  0  0
  3  6  1  0  0  0  0
 25 26  1  0  0  0  0
 25 27  1  0  0  0  0
 25 28  1  0  0  0  0
 53 56  1  0  0  0  0
 53 57  1  0  0  0  0
 53 58  1  0  0  0  0
 33 36  1  0  0  0  0
 33 37  1  0  0  0  0
 33 38  1  0  0  0  0
 60 62  1  0  0  0  0
 60 63  1  0  0  0  0
 60 64  1  0  0  0  0
 18 20  1  0  0  0  0
 18 21  1  0  0  0  0
 18 22  1  0  0  0  0
 11 15  1  0  0  0  0
 11 16  1  0  0  0  0
 43 47  1  0  0  0  0
 43 48  1  0  0  0  0
 50 55  1  0  0  0  0
  8 14  1  0  0  0  0
 30 35  1  0  0  0  0
 40 46  1  0  0  0  0
 59 61  1  0  0  0  0
 17 19  1  0  0  0  0
  7 13  1  0  0  0  0
 29 34  1  0  0  0  0
 49 54  1  0  0  0  0
 39 45  1  0  0  0  0
M  END
$$$$

  -OEChem-05262214473D

 64 63  0     1  0  0  0  0  0999 V2000
    0.2654   -3.9743   -7.1455 C   0  0  0  0  0  0  0  0  0  0  0  0
   -0.8705   -3.8297   -7.5821 O   0  0  0  0  0  0  0  0  0  0  0  0
    0.8756   -5.3364   -7.1183 C   0  0  0  0  0  0  0  0  0  0  0  0
    0.6706   -5.8702   -6.1765 H   0  0  0  0  0  0  0  0  0  0  0  0
    0.4827   -5.9891   -7.9144 H   0  0  0  0  0  0  0  0  0  0  0  0
    1.9708   -5.3646   -7.2349 H   0  0  0  0  0  0  0  0  0  0  0  0
    1.0872   -2.9751   -6.6534 N   0  0  0  0  0  0  0  0  0  0  0  0
    0.6968   -1.5894   -6.5901 C   0  0  2  0  0  0  0  0  0  0  0  0
    1.9231   -0.7176   -6.8529 C   0  0  0  0  0  0  0  0  0  0  0  0
    3.0578   -1.1759   -6.9699 O   0  0  0  0  0  0  0  0  0  0  0  0
   -0.0232   -1.2460   -5.2837 C   0  0  0  0  0  0  0  0  0  0  0  0
    1.0105   -1.4587   -3.7975 S   0  0  0  0  0  0  0  0  0  0  0  0
    2.0135   -3.2319   -6.3195 H   0  0  0  0  0  0  0  0  0  0  0  0
    0.0002   -1.4411   -7.4246 H   0  0  0  0  0  0  0  0  0  0  0  0
   -0.3683   -0.2070   -5.2966 H   0  0  0  0  0  0  0  0  0  0  0  0
   -0.9045   -1.8854   -5.1642 H   0  0  0  0  0  0  0  0  0  0  0  0
    1.6042    0.6314   -6.9164 N   0  0  0  0  0  0  0  0  0  0  0  0
    2.5976    1.6574   -7.1314 C   0  0  0  0  0  0  0  0  0  0  0  0
    0.6322    0.9189   -6.8519 H   0  0  0  0  0  0  0  0  0  0  0  0
    2.9525    2.0341   -6.1608 H   0  0  0  0  0  0  0  0  0  0  0  0
    3.4444    1.2358   -7.6928 H   0  0  0  0  0  0  0  0  0  0  0  0
    2.1527    2.4840   -7.7049 H   0  0  0  0  0  0  0  0  0  0  0  0
   -6.7256    2.0330   -0.2766 C   0  0  0  0  0  0  0  0  0  0  0  0
   -7.1824    1.1039   -0.9322 O   0  0  0  0  0  0  0  0  0  0  0  0
   -7.5276    2.6077    0.8435 C   0  0  0  0  0  0  0  0  0  0  0  0
   -8.1775    3.4344    0.5145 H   0  0  0  0  0  0  0  0  0  0  0  0
   -8.2057    1.8676    1.2980 H   0  0  0  0  0  0  0  0  0  0  0  0
   -6.9411    3.0162    1.6819 H   0  0  0  0  0  0  0  0  0  0  0  0
   -5.4935    2.6382   -0.4627 N   0  0  0  0  0  0  0  0  0  0  0  0
   -4.5619    2.2388   -1.4845 C   0  0  2  0  0  0  0  0  0  0  0  0
   -3.1535    2.4674   -0.9521 C   0  0  0  0  0  0  0  0  0  0  0  0
   -2.8634    3.3945   -0.1987 O   0  0  0  0  0  0  0  0  0  0  0  0
   -4.7883    3.0138   -2.7732 C   0  0  0  0  0  0  0  0  0  0  0  0
   -5.2337    3.4049    0.1551 H   0  0  0  0  0  0  0  0  0  0  0  0
   -4.7192    1.1682   -1.6549 H   0  0  0  0  0  0  0  0  0  0  0  0
   -4.6352    4.0886   -2.6221 H   0  0  0  0  0  0  0  0  0  0  0  0
   -4.0976    2.6887   -3.5582 H   0  0  0  0  0  0  0  0  0  0  0  0
   -5.8111    2.8719   -3.1387 H   0  0  0  0  0  0  0  0  0  0  0  0
   -2.2466    1.5400   -1.4507 N   0  0  0  0  0  0  0  0  0  0  0  0
   -0.8424    1.5707   -1.1286 C   0  0  2  0  0  0  0  0  0  0  0  0
   -0.4248    3.0177   -0.8746 C   0  0  0  0  0  0  0  0  0  0  0  0
   -0.2305    3.4707    0.2516 O   0  0  0  0  0  0  0  0  0  0  0  0
    0.0133    0.8687   -2.1858 C   0  0  0  0  0  0  0  0  0  0  0  0
   -0.2979   -0.9089   -2.3128 S   0  0  0  0  0  0  0  0  0  0  0  0
   -2.5850    0.7815   -2.0381 H   0  0  0  0  0  0  0  0  0  0  0  0
   -0.7456    1.0270   -0.1806 H   0  0  0  0  0  0  0  0  0  0  0  0
   -0.1641    1.3037   -3.1748 H   0  0  0  0  0  0  0  0  0  0  0  0
    1.0757    0.9996   -1.9531 H   0  0  0  0  0  0  0  0  0  0  0  0
   -0.3195    3.7476   -2.0500 N   0  0  0  0  0  0  0  0  0  0  0  0
    0.0377    5.1469   -2.0688 C   0  0  2  0  0  0  0  0  0  0  0  0
   -0.6781    5.7993   -3.2442 C   0  0  0  0  0  0  0  0  0  0  0  0
   -0.8950    5.2167   -4.3047 O   0  0  0  0  0  0  0  0  0  0  0  0
    1.5431    5.3322   -2.1784 C   0  0  0  0  0  0  0  0  0  0  0  0
   -0.4561    3.2814   -2.9420 H   0  0  0  0  0  0  0  0  0  0  0  0
   -0.3289    5.5795   -1.1315 H   0  0  0  0  0  0  0  0  0  0  0  0
    1.9287    4.9050   -3.1113 H   0  0  0  0  0  0  0  0  0  0  0  0
    1.8144    6.3930   -2.1638 H   0  0  0  0  0  0  0  0  0  0  0  0
    2.0582    4.8370   -1.3482 H   0  0  0  0  0  0  0  0  0  0  0  0
   -1.0080    7.1223   -2.9852 N   0  0  0  0  0  0  0  0  0  0  0  0
   -1.6554    7.9694   -3.9595 C   0  0  0  0  0  0  0  0  0  0  0  0
   -0.8267    7.5115   -2.0647 H   0  0  0  0  0  0  0  0  0  0  0  0
   -0.8937    8.5198   -4.5313 H   0  0  0  0  0  0  0  0  0  0  0  0
   -2.2518    7.3498   -4.6453 H   0  0  0  0  0  0  0  0  0  0  0  0
   -2.3140    8.6838   -3.4440 H   0  0  0  0  0  0  0  0  0  0  0  0
  1  3  1  0  0  0  0
  1  7  1  0  0  0  0
  1  2  2  0  0  0  0
 23 25  1  0  0  0  0
 23 29  1  0  0  0  0
 23 24  2  0  0  0  0
 50 51  1  0  0  0  0
 51 59  1  0  0  0  0
 51 52  2  0  0  0  0
  8  9  1  0  0  0  0
  9 17  1  0  0  0  0
  9 10  2  0  0  0  0
 30 31  1  0  0  0  0
 31 39  1  0  0  0  0
 31 32  2  0  0  0  0
 40 41  1  0  0  0  0
 41 49  1  0  0  0  0
 41 42  2  0  0  0  0
 50 53  1  0  0  0  0
 30 33  1  0  0  0  0
 59 60  1  0  0  0  0
 17 18  1  0  0  0  0
  8 11  1  0  0  0  0
 11 12  1  0  0  0  0
 40 43  1  0  0  0  0
 43 44  1  0  0  0  0
 49 50  1  0  0  0  0
  7  8  1  0  0  0  0
 29 30  1  0  0  0  0
 39 40  1  0  0  0  0
 12 44  1  0  0  0  0
  3  4  1  0  0  0  0
  3  5  1  0  0  0  0
  3  6  1  0  0  0  0
 25 26  1  0  0  0  0
 25 27  1  0  0  0  0
 25 28  1  0  0  0  0
 53 56  1  0  0  0  0
 53 57  1  0  0  0  0
 53 58  1  0  0  0  0
 33 36  1  0  0  0  0
 33 37  1  0  0  0  0
 33 38  1  0  0  0  0
 60 62  1  0  0  0  0
 60 63  1  0  0  0  0
 60 64  1  0  0  0  0
 18 20  1  0  0  0  0
 18 21  1  0  0  0  0
 18 22  1  0  0  0  0
 11 15  1  0  0  0  0
 11 16  1  0  0  0  0
 43 47  1  0  0  0  0
 43 48  1  0  0  0  0
 50 55  1  0  0  0  0
  8 14  1  0  0  0  0
 30 35  1  0  0  0  0
 40 46  1  0  0  0  0
 59 61  1  0  0  0  0
 17 19  1  0  0  0  0
  7 13  1  0  0  0  0
 29 34  1  0  0  0  0
 49 54  1  0  0  0  0
 39 45  1  0  0  0  0
M  END
$$$$

  -OEChem-05262214473D

 64 63  0     1  0  0  0  0  0999 V2000
    0.2654   -3.9743   -7.1455 C   0  0  0  0  0  0  0  0  0  0  0  0
   -0.8705   -3.8297   -7.5821 O   0  0  0  0  0  0  0  0  0  0  0  0
    0.8756   -5.3364   -7.1183 C   0  0  0  0  0  0  0  0  0  0  0  0
    0.6706   -5.8702   -6.1765 H   0  0  0  0  0  0  0  0  0  0  0  0
    0.4827   -5.9891   -7.9144 H   0  0  0  0  0  0  0  0  0  0  0  0
    1.9708   -5.3646   -7.2349 H   0  0  0  0  0  0  0  0  0  0  0  0
    1.0872   -2.9751   -6.6534 N   0  0  0  0  0  0  0  0  0  0  0  0
    0.6968   -1.5894   -6.5901 C   0  0  2  0  0  0  0  0  0  0  0  0
    1.9231   -0.7176   -6.8529 C   0  0  0  0  0  0  0  0  0  0  0  0
    3.0578   -1.1759   -6.9699 O   0  0  0  0  0  0  0  0  0  0  0  0
   -0.0232   -1.2460   -5.2837 C   0  0  0  0  0  0  0  0  0  0  0  0
    1.0105   -1.4587   -3.7975 S   0  0  0  0  0  0  0  0  0  0  0  0
    2.0135   -3.2319   -6.3195 H   0  0  0  0  0  0  0  0  0  0  0  0
    0.0002   -1.4411   -7.4246 H   0  0  0  0  0  0  0  0  0  0  0  0
   -0.3683   -0.2070   -5.2966 H   0  0  0  0  0  0  0  0  0  0  0  0
   -0.9045   -1.8854   -5.1642 H   0  0  0  0  0  0  0  0  0  0  0  0
    1.6042    0.6314   -6.9164 N   0  0  0  0  0  0  0  0  0  0  0  0
    2.5976    1.6574   -7.1314 C   0  0  0  0  0  0  0  0  0  0  0  0
    0.6322    0.9189   -6.8519 H   0  0  0  0  0  0  0  0  0  0  0  0
    2.9525    2.0341   -6.1608 H   0  0  0  0  0  0  0  0  0  0  0  0
    3.4444    1.2358   -7.6928 H   0  0  0  0  0  0  0  0  0  0  0  0
    2.1527    2.4840   -7.7049 H   0  0  0  0  0  0  0  0  0  0  0  0
   -6.7256    2.0330   -0.2766 C   0  0  0  0  0  0  0  0  0  0  0  0
   -7.1824    1.1039   -0.9322 O   0  0  0  0  0  0  0  0  0  0  0  0
   -7.5276    2.6077    0.8435 C   0  0  0  0  0  0  0  0  0  0  0  0
   -8.1775    3.4344    0.5145 H   0  0  0  0  0  0  0  0  0  0  0  0
   -8.2057    1.8676    1.2980 H   0  0  0  0  0  0  0  0  0  0  0  0
   -6.9411    3.0162    1.6819 H   0  0  0  0  0  0  0  0  0  0  0  0
   -5.4935    2.6382   -0.4627 N   0  0  0  0  0  0  0  0  0  0  0  0
   -4.5619    2.2388   -1.4845 C   0  0  2  0  0  0  0  0  0  0  0  0
   -3.1535    2.4674   -0.9521 C   0  0  0  0  0  0  0  0  0  0  0  0
   -2.8634    3.3945   -0.1987 O   0  0  0  0  0  0  0  0  0  0  0  0
   -4.7883    3.0138   -2.7732 C   0  0  0  0  0  0  0  0  0  0  0  0
   -5.2337    3.4049    0.1551 H   0  0  0  0  0  0  0  0  0  0  0  0
   -4.7192    1.1682   -1.6549 H   0  0  0  0  0  0  0  0  0  0  0  0
   -4.6352    4.0886   -2.6221 H   0  0  0  0  0  0  0  0  0  0  0  0
   -4.0976    2.6887   -3.5582 H   0  0  0  0  0  0  0  0  0  0  0  0
   -5.8111    2.8719   -3.1387 H   0  0  0  0  0  0  0  0  0  0  0  0
   -2.2466    1.5400   -1.4507 N   0  0  0  0  0  0  0  0  0  0  0  0
   -0.8424    1.5707   -1.1286 C   0  0  2  0  0  0  0  0  0  0  0  0
   -0.4248    3.0177   -0.8746 C   0  0  0  0  0  0  0  0  0  0  0  0
    0.0258    3.4056    0.2014 O   0  0  0  0  0  0  0  0  0  0  0  0
    0.0133    0.8687   -2.1858 C   0  0  0  0  0  0  0  0  0  0  0  0
   -0.2979   -0.9089   -2.3128 S   0  0  0  0  0  0  0  0  0  0  0  0
   -2.5850    0.7815   -2.0381 H   0  0  0  0  0  0  0  0  0  0  0  0
   -0.7456    1.0270   -0.1806 H   0  0  0  0  0  0  0  0  0  0  0  0
   -0.1641    1.3037   -3.1748 H   0  0  0  0  0  0  0  0  0  0  0  0
    1.0757    0.9996   -1.9531 H   0  0  0  0  0  0  0  0  0  0  0  0
   -0.6379    3.8274   -1.9812 N   0  0  0  0  0  0  0  0  0  0  0  0
   -0.3445    5.2415   -1.9798 C   0  0  2  0  0  0  0  0  0  0  0  0
   -1.3500    5.9314   -2.8922 C   0  0  0  0  0  0  0  0  0  0  0  0
   -1.8018    5.4089   -3.9091 O   0  0  0  0  0  0  0  0  0  0  0  0
    1.0801    5.5115   -2.4385 C   0  0  0  0  0  0  0  0  0  0  0  0
   -0.9743    3.4140   -2.8458 H   0  0  0  0  0  0  0  0  0  0  0  0
   -0.4830    5.5923   -0.9513 H   0  0  0  0  0  0  0  0  0  0  0  0
    1.2380    5.1668   -3.4670 H   0  0  0  0  0  0  0  0  0  0  0  0
    1.3102    6.5817   -2.4097 H   0  0  0  0  0  0  0  0  0  0  0  0
    1.8008    4.9904   -1.7991 H   0  0  0  0  0  0  0  0  0  0  0  0
   -1.6508    7.2157   -2.4607 N   0  0  0  0  0  0  0  0  0  0  0  0
   -2.5472    8.0901   -3.1805 C   0  0  0  0  0  0  0  0  0  0  0  0
   -1.2614    7.5528   -1.5853 H   0  0  0  0  0  0  0  0  0  0  0  0
   -1.9695    8.7155   -3.8770 H   0  0  0  0  0  0  0  0  0  0  0  0
   -3.2729    7.4865   -3.7454 H   0  0  0  0  0  0  0  0  0  0  0  0
   -3.0823    8.7341   -2.4672 H   0  0  0  0  0  0  0  0  0  0  0  0
  1  3  1  0  0  0  0
  1  7  1  0  0  0  0
  1  2  2  0  0  0  0
 23 25  1  0  0  0  0
 23 29  1  0  0  0  0
 23 24  2  0  0  0  0
 50 51  1  0  0  0  0
 51 59  1  0  0  0  0
 51 52  2  0  0  0  0
  8  9  1  0  0  0  0
  9 17  1  0  0  0  0
  9 10  2  0  0  0  0
 30 31  1  0  0  0  0
 31 39  1  0  0  0  0
 31 32  2  0  0  0  0
 40 41  1  0  0  0  0
 41 49  1  0  0  0  0
 41 42  2  0  0  0  0
 50 53  1  0  0  0  0
 30 33  1  0  0  0  0
 59 60  1  0  0  0  0
 17 18  1  0  0  0  0
  8 11  1  0  0  0  0
 11 12  1  0  0  0  0
 40 43  1  0  0  0  0
 43 44  1  0  0  0  0
 49 50  1  0  0  0  0
  7  8  1  0  0  0  0
 29 30  1  0  0  0  0
 39 40  1  0  0  0  0
 12 44  1  0  0  0  0
  3  4  1  0  0  0  0
  3  5  1  0  0  0  0
  3  6  1  0  0  0  0
 25 26  1  0  0  0  0
 25 27  1  0  0  0  0
 25 28  1  0  0  0  0
 53 56  1  0  0  0  0
 53 57  1  0  0  0  0
 53 58  1  0  0  0  0
 33 36  1  0  0  0  0
 33 37  1  0  0  0  0
 33 38  1  0  0  0  0
 60 62  1  0  0  0  0
 60 63  1  0  0  0  0
 60 64  1  0  0  0  0
 18 20  1  0  0  0  0
 18 21  1  0  0  0  0
 18 22  1  0  0  0  0
 11 15  1  0  0  0  0
 11 16  1  0  0  0  0
 43 47  1  0  0  0  0
 43 48  1  0  0  0  0
 50 55  1  0  0  0  0
  8 14  1  0  0  0  0
 30 35  1  0  0  0  0
 40 46  1  0  0  0  0
 59 61  1  0  0  0  0
 17 19  1  0  0  0  0
  7 13  1  0  0  0  0
 29 34  1  0  0  0  0
 49 54  1  0  0  0  0
 39 45  1  0  0  0  0
M  END
$$$$

  -OEChem-05262214473D

 64 63  0     1  0  0  0  0  0999 V2000
    0.2654   -3.9743   -7.1455 C   0  0  0  0  0  0  0  0  0  0  0  0
   -0.8705   -3.8297   -7.5821 O   0  0  0  0  0  0  0  0  0  0  0  0
    0.8756   -5.3364   -7.1183 C   0  0  0  0  0  0  0  0  0  0  0  0
    0.6706   -5.8702   -6.1765 H   0  0  0  0  0  0  0  0  0  0  0  0
    0.4827   -5.9891   -7.9144 H   0  0  0  0  0  0  0  0  0  0  0  0
    1.9708   -5.3646   -7.2349 H   0  0  0  0  0  0  0  0  0  0  0  0
    1.0872   -2.9751   -6.6534 N   0  0  0  0  0  0  0  0  0  0  0  0
    0.6968   -1.5894   -6.5901 C   0  0  2  0  0  0  0  0  0  0  0  0
    1.9231   -0.7176   -6.8529 C   0  0  0  0  0  0  0  0  0  0  0  0
    3.0578   -1.1759   -6.9699 O   0  0  0  0  0  0  0  0  0  0  0  0
   -0.0232   -1.2460   -5.2837 C   0  0  0  0  0  0  0  0  0  0  0  0
    1.0105   -1.4587   -3.7975 S   0  0  0  0  0  0  0  0  0  0  0  0
    2.0135   -3.2319   -6.3195 H   0  0  0  0  0  0  0  0  0  0  0  0
    0.0002   -1.4411   -7.4246 H   0  0  0  0  0  0  0  0  0  0  0  0
   -0.3683   -0.2070   -5.2966 H   0  0  0  0  0  0  0  0  0  0  0  0
   -0.9045   -1.8854   -5.1642 H   0  0  0  0  0  0  0  0  0  0  0  0
    1.6042    0.6314   -6.9164 N   0  0  0  0  0  0  0  0  0  0  0  0
    2.5976    1.6574   -7.1314 C   0  0  0  0  0  0  0  0  0  0  0  0
    0.6322    0.9189   -6.8519 H   0  0  0  0  0  0  0  0  0  0  0  0
    2.9525    2.0341   -6.1608 H   0  0  0  0  0  0  0  0  0  0  0  0
    3.4444    1.2358   -7.6928 H   0  0  0  0  0  0  0  0  0  0  0  0
    2.1527    2.4840   -7.7049 H   0  0  0  0  0  0  0  0  0  0  0  0
   -6.7256    2.0330   -0.2766 C   0  0  0  0  0  0  0  0  0  0  0  0
   -7.1824    1.1039   -0.9322 O   0  0  0  0  0  0  0  0  0  0  0  0
   -7.5276    2.6077    0.8435 C   0  0  0  0  0  0  0  0  0  0  0  0
   -8.1775    3.4344    0.5145 H   0  0  0  0  0  0  0  0  0  0  0  0
   -8.2057    1.8676    1.2980 H   0  0  0  0  0  0  0  0  0  0  0  0
   -6.9411    3.0162    1.6819 H   0  0  0  0  0  0  0  0  0  0  0  0
   -5.4935    2.6382   -0.4627 N   0  0  0  0  0  0  0  0  0  0  0  0
   -4.5619    2.2388   -1.4845 C   0  0  2  0  0  0  0  0  0  0  0  0
   -3.1535    2.4674   -0.9521 C   0  0  0  0  0  0  0  0  0  0  0  0
   -2.8634    3.3945   -0.1987 O   0  0  0  0  0  0  0  0  0  0  0  0
   -4.7883    3.0138   -2.7732 C   0  0  0  0  0  0  0  0  0  0  0  0
   -5.2337    3.4049    0.1551 H   0  0  0  0  0  0  0  0  0  0  0  0
   -4.7192    1.1682   -1.6549 H   0  0  0  0  0  0  0  0  0  0  0  0
   -4.6352    4.0886   -2.6221 H   0  0  0  0  0  0  0  0  0  0  0  0
   -4.0976    2.6887   -3.5582 H   0  0  0  0  0  0  0  0  0  0  0  0
   -5.8111    2.8719   -3.1387 H   0  0  0  0  0  0  0  0  0  0  0  0
   -2.2466    1.5400   -1.4507 N   0  0  0  0  0  0  0  0  0  0  0  0
   -0.8424    1.5707   -1.1286 C   0  0  2  0  0  0  0  0  0  0  0  0
   -0.4248    3.0177   -0.8746 C   0  0  0  0  0  0  0  0  0  0  0  0
    0.2639    3.3572    0.0855 O   0  0  0  0  0  0  0  0  0  0  0  0
    0.0133    0.8687   -2.1858 C   0  0  0  0  0  0  0  0  0  0  0  0
   -0.2979   -0.9089   -2.3128 S   0  0  0  0  0  0  0  0  0  0  0  0
   -2.5850    0.7815   -2.0381 H   0  0  0  0  0  0  0  0  0  0  0  0
   -0.7456    1.0270   -0.1806 H   0  0  0  0  0  0  0  0  0  0  0  0
   -0.1641    1.3037   -3.1748 H   0  0  0  0  0  0  0  0  0  0  0  0
    1.0757    0.9996   -1.9531 H   0  0  0  0  0  0  0  0  0  0  0  0
   -0.9319    3.8859   -1.8310 N   0  0  0  0  0  0  0  0  0  0  0  0
   -0.6958    5.3102   -1.7935 C   0  0  2  0  0  0  0  0  0  0  0  0
   -1.9184    6.0052   -2.3781 C   0  0  0  0  0  0  0  0  0  0  0  0
   -2.5889    5.5276   -3.2910 O   0  0  0  0  0  0  0  0  0  0  0  0
    0.5615    5.6831   -2.5635 C   0  0  0  0  0  0  0  0  0  0  0  0
   -1.4569    3.5131   -2.6165 H   0  0  0  0  0  0  0  0  0  0  0  0
   -0.5882    5.5853   -0.7386 H   0  0  0  0  0  0  0  0  0  0  0  0
    0.4723    5.4150   -3.6226 H   0  0  0  0  0  0  0  0  0  0  0  0
    0.7548    6.7596   -2.5102 H   0  0  0  0  0  0  0  0  0  0  0  0
    1.4350    5.1594   -2.1605 H   0  0  0  0  0  0  0  0  0  0  0  0
   -2.1472    7.2412   -1.7899 N   0  0  0  0  0  0  0  0  0  0  0  0
   -3.2228    8.1131   -2.2008 C   0  0  0  0  0  0  0  0  0  0  0  0
   -1.5655    7.5400   -1.0126 H   0  0  0  0  0  0  0  0  0  0  0  0
   -2.8566    8.8118   -2.9674 H   0  0  0  0  0  0  0  0  0  0  0  0
   -4.0444    7.5110   -2.6161 H   0  0  0  0  0  0  0  0  0  0  0  0
   -3.5871    8.6805   -1.3317 H   0  0  0  0  0  0  0  0  0  0  0  0
  1  3  1  0  0  0  0
  1  7  1  0  0  0  0
  1  2  2  0  0  0  0
 23 25  1  0  0  0  0
 23 29  1  0  0  0  0
 23 24  2  0  0  0  0
 50 51  1  0  0  0  0
 51 59  1  0  0  0  0
 51 52  2  0  0  0  0
  8  9  1  0  0  0  0
  9 17  1  0  0  0  0
  9 10  2  0  0  0  0
 30 31  1  0  0  0  0
 31 39  1  0  0  0  0
 31 32  2  0  0  0  0
 40 41  1  0  0  0  0
 41 49  1  0  0  0  0
 41 42  2  0  0  0  0
 50 53  1  0  0  0  0
 30 33  1  0  0  0  0
 59 60  1  0  0  0  0
 17 18  1  0  0  0  0
  8 11  1  0  0  0  0
 11 12  1  0  0  0  0
 40 43  1  0  0  0  0
 43 44  1  0  0  0  0
 49 50  1  0  0  0  0
  7  8  1  0  0  0  0
 29 30  1  0  0  0  0
 39 40  1  0  0  0  0
 12 44  1  0  0  0  0
  3  4  1  0  0  0  0
  3  5  1  0  0  0  0
  3  6  1  0  0  0  0
 25 26  1  0  0  0  0
 25 27  1  0  0  0  0
 25 28  1  0  0  0  0
 53 56  1  0  0  0  0
 53 57  1  0  0  0  0
 53 58  1  0  0  0  0
 33 36  1  0  0  0  0
 33 37  1  0  0  0  0
 33 38  1  0  0  0  0
 60 62  1  0  0  0  0
 60 63  1  0  0  0  0
 60 64  1  0  0  0  0
 18 20  1  0  0  0  0
 18 21  1  0  0  0  0
 18 22  1  0  0  0  0
 11 15  1  0  0  0  0
 11 16  1  0  0  0  0
 43 47  1  0  0  0  0
 43 48  1  0  0  0  0
 50 55  1  0  0  0  0
  8 14  1  0  0  0  0
 30 35  1  0  0  0  0
 40 46  1  0  0  0  0
 59 61  1  0  0  0  0
 17 19  1  0  0  0  0
  7 13  1  0  0  0  0
 29 34  1  0  0  0  0
 49 54  1  0  0  0  0
 39 45  1  0  0  0  0
M  END
$$$$

  -OEChem-05262214473D

 64 63  0     1  0  0  0  0  0999 V2000
    0.2654   -3.9743   -7.1455 C   0  0  0  0  0  0  0  0  0  0  0  0
   -0.8705   -3.8297   -7.5821 O   0  0  0  0  0  0  0  0  0  0  0  0
    0.8756   -5.3364   -7.1183 C   0  0  0  0  0  0  0  0  0  0  0  0
    0.6706   -5.8702   -6.1765 H   0  0  0  0  0  0  0  0  0  0  0  0
    0.4827   -5.9891   -7.9144 H   0  0  0  0  0  0  0  0  0  0  0  0
    1.9708   -5.3646   -7.2349 H   0  0  0  0  0  0  0  0  0  0  0  0
    1.0872   -2.9751   -6.6534 N   0  0  0  0  0  0  0  0  0  0  0  0
    0.6968   -1.5894   -6.5901 C   0  0  2  0  0  0  0  0  0  0  0  0
    1.9231   -0.7176   -6.8529 C   0  0  0  0  0  0  0  0  0  0  0  0
    3.0578   -1.1759   -6.9699 O   0  0  0  0  0  0  0  0  0  0  0  0
   -0.0232   -1.2460   -5.2837 C   0  0  0  0  0  0  0  0  0  0  0  0
    1.0105   -1.4587   -3.7975 S   0  0  0  0  0  0  0  0  0  0  0  0
    2.0135   -3.2319   -6.3195 H   0  0  0  0  0  0  0  0  0  0  0  0
    0.0002   -1.4411   -7.4246 H   0  0  0  0  0  0  0  0  0  0  0  0
   -0.3683   -0.2070   -5.2966 H   0  0  0  0  0  0  0  0  0  0  0  0
   -0.9045   -1.8854   -5.1642 H   0  0  0  0  0  0  0  0  0  0  0  0
    1.6042    0.6314   -6.9164 N   0  0  0  0  0  0  0  0  0  0  0  0
    2.5976    1.6574   -7.1314 C   0  0  0  0  0  0  0  0  0  0  0  0
    0.6322    0.9189   -6.8519 H   0  0  0  0  0  0  0  0  0  0  0  0
    2.9525    2.0341   -6.1608 H   0  0  0  0  0  0  0  0  0  0  0  0
    3.4444    1.2358   -7.6928 H   0  0  0  0  0  0  0  0  0  0  0  0
    2.1527    2.4840   -7.7049 H   0  0  0  0  0  0  0  0  0  0  0  0
   -6.7256    2.0330   -0.2766 C   0  0  0  0  0  0  0  0  0  0  0  0
   -7.1824    1.1039   -0.9322 O   0  0  0  0  0  0  0  0  0  0  0  0
   -7.5276    2.6077    0.8435 C   0  0  0  0  0  0  0  0  0  0  0  0
   -8.1775    3.4344    0.5145 H   0  0  0  0  0  0  0  0  0  0  0  0
   -8.2057    1.8676    1.2980 H   0  0  0  0  0  0  0  0  0  0  0  0
   -6.9411    3.0162    1.6819 H   0  0  0  0  0  0  0  0  0  0  0  0
   -5.4935    2.6382   -0.4627 N   0  0  0  0  0  0  0  0  0  0  0  0
   -4.5619    2.2388   -1.4845 C   0  0  2  0  0  0  0  0  0  0  0  0
   -3.1535    2.4674   -0.9521 C   0  0  0  0  0  0  0  0  0  0  0  0
   -2.8634    3.3945   -0.1987 O   0  0  0  0  0  0  0  0  0  0  0  0
   -4.7883    3.0138   -2.7732 C   0  0  0  0  0  0  0  0  0  0  0  0
   -5.2337    3.4049    0.1551 H   0  0  0  0  0  0  0  0  0  0  0  0
   -4.7192    1.1682   -1.6549 H   0  0  0  0  0  0  0  0  0  0  0  0
   -4.6352    4.0886   -2.6221 H   0  0  0  0  0  0  0  0  0  0  0  0
   -4.0976    2.6887   -3.5582 H   0  0  0  0  0  0  0  0  0  0  0  0
   -5.8111    2.8719   -3.1387 H   0  0  0  0  0  0  0  0  0  0  0  0
   -2.2466    1.5400   -1.4507 N   0  0  0  0  0  0  0  0  0  0  0  0
   -0.8424    1.5707   -1.1286 C   0  0  2  0  0  0  0  0  0  0  0  0
   -0.4248    3.0177   -0.8746 C   0  0  0  0  0  0  0  0  0  0  0  0
    0.4674    3.3290   -0.0883 O   0  0  0  0  0  0  0  0  0  0  0  0
    0.0133    0.8687   -2.1858 C   0  0  0  0  0  0  0  0  0  0  0  0
   -0.2979   -0.9089   -2.3128 S   0  0  0  0  0  0  0  0  0  0  0  0
   -2.5850    0.7815   -2.0381 H   0  0  0  0  0  0  0  0  0  0  0  0
   -0.7456    1.0270   -0.1806 H   0  0  0  0  0  0  0  0  0  0  0  0
   -0.1641    1.3037   -3.1748 H   0  0  0  0  0  0  0  0  0  0  0  0
    1.0757    0.9996   -1.9531 H   0  0  0  0  0  0  0  0  0  0  0  0
   -1.1816    3.9191   -1.6096 N   0  0  0  0  0  0  0  0  0  0  0  0
   -0.9924    5.3483   -1.5225 C   0  0  2  0  0  0  0  0  0  0  0  0
   -2.3445    6.0156   -1.7369 C   0  0  0  0  0  0  0  0  0  0  0  0
   -3.2028    5.5646   -2.4925 O   0  0  0  0  0  0  0  0  0  0  0  0
    0.0224    5.8354   -2.5450 C   0  0  0  0  0  0  0  0  0  0  0  0
   -1.8712    3.5717   -2.2696 H   0  0  0  0  0  0  0  0  0  0  0  0
   -0.6373    5.5590   -0.5078 H   0  0  0  0  0  0  0  0  0  0  0  0
   -0.3161    5.6329   -3.5677 H   0  0  0  0  0  0  0  0  0  0  0  0
    0.1860    6.9147   -2.4586 H   0  0  0  0  0  0  0  0  0  0  0  0
    0.9858    5.3325   -2.4081 H   0  0  0  0  0  0  0  0  0  0  0  0
   -2.4632    7.1970   -1.0183 N   0  0  0  0  0  0  0  0  0  0  0  0
   -3.6362    8.0369   -1.0872 C   0  0  0  0  0  0  0  0  0  0  0  0
   -1.7183    7.4741   -0.3858 H   0  0  0  0  0  0  0  0  0  0  0  0
   -3.4946    8.8023   -1.8644 H   0  0  0  0  0  0  0  0  0  0  0  0
   -4.5137    7.4215   -1.3344 H   0  0  0  0  0  0  0  0  0  0  0  0
   -3.7939    8.5266   -0.1149 H   0  0  0  0  0  0  0  0  0  0  0  0
  1  3  1  0  0  0  0
  1  7  1  0  0  0  0
  1  2  2  0  0  0  0
 23 25  1  0  0  0  0
 23 29  1  0  0  0  0
 23 24  2  0  0  0  0
 50 51  1  0  0  0  0
 51 59  1  0  0  0  0
 51 52  2  0  0  0  0
  8  9  1  0  0  0  0
  9 17  1  0  0  0  0
  9 10  2  0  0  0  0
 30 31  1  0  0  0  0
 31 39  1  0  0  0  0
 31 32  2  0  0  0  0
 40 41  1  0  0  0  0
 41 49  1  0  0  0  0
 41 42  2  0  0  0  0
 50 53  1  0  0  0  0
 30 33  1  0  0  0  0
 59 60  1  0  0  0  0
 17 18  1  0  0  0  0
  8 11  1  0  0  0  0
 11 12  1  0  0  0  0
 40 43  1  0  0  0  0
 43 44  1  0  0  0  0
 49 50  1  0  0  0  0
  7  8  1  0  0  0  0
 29 30  1  0  0  0  0
 39 40  1  0  0  0  0
 12 44  1  0  0  0  0
  3  4  1  0  0  0  0
  3  5  1  0  0  0  0
  3  6  1  0  0  0  0
 25 26  1  0  0  0  0
 25 27  1  0  0  0  0
 25 28  1  0  0  0  0
 53 56  1  0  0  0  0
 53 57  1  0  0  0  0
 53 58  1  0  0  0  0
 33 36  1  0  0  0  0
 33 37  1  0  0  0  0
 33 38  1  0  0  0  0
 60 62  1  0  0  0  0
 60 63  1  0  0  0  0
 60 64  1  0  0  0  0
 18 20  1  0  0  0  0
 18 21  1  0  0  0  0
 18 22  1  0  0  0  0
 11 15  1  0  0  0  0
 11 16  1  0  0  0  0
 43 47  1  0  0  0  0
 43 48  1  0  0  0  0
 50 55  1  0  0  0  0
  8 14  1  0  0  0  0
 30 35  1  0  0  0  0
 40 46  1  0  0  0  0
 59 61  1  0  0  0  0
 17 19  1  0  0  0  0
  7 13  1  0  0  0  0
 29 34  1  0  0  0  0
 49 54  1  0  0  0  0
 39 45  1  0  0  0  0
M  END
$$$$

  -OEChem-05262214473D

 64 63  0     1  0  0  0  0  0999 V2000
    0.2654   -3.9743   -7.1455 C   0  0  0  0  0  0  0  0  0  0  0  0
   -0.8705   -3.8297   -7.5821 O   0  0  0  0  0  0  0  0  0  0  0  0
    0.8756   -5.3364   -7.1183 C   0  0  0  0  0  0  0  0  0  0  0  0
    0.6706   -5.8702   -6.1765 H   0  0  0  0  0  0  0  0  0  0  0  0
    0.4827   -5.9891   -7.9144 H   0  0  0  0  0  0  0  0  0  0  0  0
    1.9708   -5.3646   -7.2349 H   0  0  0  0  0  0  0  0  0  0  0  0
    1.0872   -2.9751   -6.6534 N   0  0  0  0  0  0  0  0  0  0  0  0
    0.6968   -1.5894   -6.5901 C   0  0  2  0  0  0  0  0  0  0  0  0
    1.9231   -0.7176   -6.8529 C   0  0  0  0  0  0  0  0  0  0  0  0
    3.0578   -1.1759   -6.9699 O   0  0  0  0  0  0  0  0  0  0  0  0
   -0.0232   -1.2460   -5.2837 C   0  0  0  0  0  0  0  0  0  0  0  0
    1.0105   -1.4587   -3.7975 S   0  0  0  0  0  0  0  0  0  0  0  0
    2.0135   -3.2319   -6.3195 H   0  0  0  0  0  0  0  0  0  0  0  0
    0.0002   -1.4411   -7.4246 H   0  0  0  0  0  0  0  0  0  0  0  0
   -0.3683   -0.2070   -5.2966 H   0  0  0  0  0  0  0  0  0  0  0  0
   -0.9045   -1.8854   -5.1642 H   0  0  0  0  0  0  0  0  0  0  0  0
    1.6042    0.6314   -6.9164 N   0  0  0  0  0  0  0  0  0  0  0  0
    2.5976    1.6574   -7.1314 C   0  0  0  0  0  0  0  0  0  0  0  0
    0.6322    0.9189   -6.8519 H   0  0  0  0  0  0  0  0  0  0  0  0
    2.9525    2.0341   -6.1608 H   0  0  0  0  0  0  0  0  0  0  0  0
    3.4444    1.2358   -7.6928 H   0  0  0  0  0  0  0  0  0  0  0  0
    2.1527    2.4840   -7.7049 H   0  0  0  0  0  0  0  0  0  0  0  0
   -6.7256    2.0330   -0.2766 C   0  0  0  0  0  0  0  0  0  0  0  0
   -7.1824    1.1039   -0.9322 O   0  0  0  0  0  0  0  0  0  0  0  0
   -7.5276    2.6077    0.8435 C   0  0  0  0  0  0  0  0  0  0  0  0
   -8.1775    3.4344    0.5145 H   0  0  0  0  0  0  0  0  0  0  0  0
   -8.2057    1.8676    1.2980 H   0  0  0  0  0  0  0  0  0  0  0  0
   -6.9411    3.0162    1.6819 H   0  0  0  0  0  0  0  0  0  0  0  0
   -5.4935    2.6382   -0.4627 N   0  0  0  0  0  0  0  0  0  0  0  0
   -4.5619    2.2388   -1.4845 C   0  0  2  0  0  0  0  0  0  0  0  0
   -3.1535    2.4674   -0.9521 C   0  0  0  0  0  0  0  0  0  0  0  0
   -2.8634    3.3945   -0.1987 O   0  0  0  0  0  0  0  0  0  0  0  0
   -4.7883    3.0138   -2.7732 C   0  0  0  0  0  0  0  0  0  0  0  0
   -5.2337    3.4049    0.1551 H   0  0  0  0  0  0  0  0  0  0  0  0
   -4.7192    1.1682   -1.6549 H   0  0  0  0  0  0  0  0  0  0  0  0
   -4.6352    4.0886   -2.6221 H   0  0  0  0  0  0  0  0  0  0  0  0
   -4.0976    2.6887   -3.5582 H   0  0  0  0  0  0  0  0  0  0  0  0
   -5.8111    2.8719   -3.1387 H   0  0  0  0  0  0  0  0  0  0  0  0
   -2.2466    1.5400   -1.4507 N   0  0  0  0  0  0  0  0  0  0  0  0
   -0.8424    1.5707   -1.1286 C   0  0  2  0  0  0  0  0  0  0  0  0
   -0.4248    3.0177   -0.8746 C   0  0  0  0  0  0  0  0  0  0  0  0
    0.6227    3.3228   -0.3080 O   0  0  0  0  0  0  0  0  0  0  0  0
    0.0133    0.8687   -2.1858 C   0  0  0  0  0  0  0  0  0  0  0  0
   -0.2979   -0.9089   -2.3128 S   0  0  0  0  0  0  0  0  0  0  0  0
   -2.5850    0.7815   -2.0381 H   0  0  0  0  0  0  0  0  0  0  0  0
   -0.7456    1.0270   -0.1806 H   0  0  0  0  0  0  0  0  0  0  0  0
   -0.1641    1.3037   -3.1748 H   0  0  0  0  0  0  0  0  0  0  0  0
    1.0757    0.9996   -1.9531 H   0  0  0  0  0  0  0  0  0  0  0  0
   -1.3700    3.9248   -1.3322 N   0  0  0  0  0  0  0  0  0  0  0  0
   -1.2141    5.3531   -1.1853 C   0  0  2  0  0  0  0  0  0  0  0  0
   -2.5993    5.9620   -1.0124 C   0  0  0  0  0  0  0  0  0  0  0  0
   -3.6016    5.5175   -1.5681 O   0  0  0  0  0  0  0  0  0  0  0  0
   -0.5003    5.9580   -2.3841 C   0  0  0  0  0  0  0  0  0  0  0  0
   -2.1888    3.5860   -1.8288 H   0  0  0  0  0  0  0  0  0  0  0  0
   -0.6270    5.5151   -0.2748 H   0  0  0  0  0  0  0  0  0  0  0  0
   -1.0735    5.8056   -3.3058 H   0  0  0  0  0  0  0  0  0  0  0  0
   -0.3575    7.0364   -2.2582 H   0  0  0  0  0  0  0  0  0  0  0  0
    0.4838    5.4979   -2.5247 H   0  0  0  0  0  0  0  0  0  0  0  0
   -2.5774    7.0861   -0.1987 N   0  0  0  0  0  0  0  0  0  0  0  0
   -3.7591    7.8668    0.0845 C   0  0  0  0  0  0  0  0  0  0  0  0
   -1.7094    7.3595    0.2525 H   0  0  0  0  0  0  0  0  0  0  0  0
   -3.8399    8.6877   -0.6432 H   0  0  0  0  0  0  0  0  0  0  0  0
   -4.6489    7.2241    0.0124 H   0  0  0  0  0  0  0  0  0  0  0  0
   -3.6887    8.2830    1.1002 H   0  0  0  0  0  0  0  0  0  0  0  0
  1  3  1  0  0  0  0
  1  7  1  0  0  0  0
  1  2  2  0  0  0  0
 23 25  1  0  0  0  0
 23 29  1  0  0  0  0
 23 24  2  0  0  0  0
 50 51  1  0  0  0  0
 51 59  1  0  0  0  0
 51 52  2  0  0  0  0
  8  9  1  0  0  0  0
  9 17  1  0  0  0  0
  9 10  2  0  0  0  0
 30 31  1  0  0  0  0
 31 39  1  0  0  0  0
 31 32  2  0  0  0  0
 40 41  1  0  0  0  0
 41 49  1  0  0  0  0
 41 42  2  0  0  0  0
 50 53  1  0  0  0  0
 30 33  1  0  0  0  0
 59 60  1  0  0  0  0
 17 18  1  0  0  0  0
  8 11  1  0  0  0  0
 11 12  1  0  0  0  0
 40 43  1  0  0  0  0
 43 44  1  0  0  0  0
 49 50  1  0  0  0  0
  7  8  1  0  0  0  0
 29 30  1  0  0  0  0
 39 40  1  0  0  0  0
 12 44  1  0  0  0  0
  3  4  1  0  0  0  0
  3  5  1  0  0  0  0
  3  6  1  0  0  0  0
 25 26  1  0  0  0  0
 25 27  1  0  0  0  0
 25 28  1  0  0  0  0
 53 56  1  0  0  0  0
 53 57  1  0  0  0  0
 53 58  1  0  0  0  0
 33 36  1  0  0  0  0
 33 37  1  0  0  0  0
 33 38  1  0  0  0  0
 60 62  1  0  0  0  0
 60 63  1  0  0  0  0
 60 64  1  0  0  0  0
 18 20  1  0  0  0  0
 18 21  1  0  0  0  0
 18 22  1  0  0  0  0
 11 15  1  0  0  0  0
 11 16  1  0  0  0  0
 43 47  1  0  0  0  0
 43 48  1  0  0  0  0
 50 55  1  0  0  0  0
  8 14  1  0  0  0  0
 30 35  1  0  0  0  0
 40 46  1  0  0  0  0
 59 61  1  0  0  0  0
 17 19  1  0  0  0  0
  7 13  1  0  0  0  0
 29 34  1  0  0  0  0
 49 54  1  0  0  0  0
 39 45  1  0  0  0  0
M  END
$$$$

  -OEChem-05262214473D

 64 63  0     1  0  0  0  0  0999 V2000
    0.2654   -3.9743   -7.1455 C   0  0  0  0  0  0  0  0  0  0  0  0
   -0.8705   -3.8297   -7.5821 O   0  0  0  0  0  0  0  0  0  0  0  0
    0.8756   -5.3364   -7.1183 C   0  0  0  0  0  0  0  0  0  0  0  0
    0.6706   -5.8702   -6.1765 H   0  0  0  0  0  0  0  0  0  0  0  0
    0.4827   -5.9891   -7.9144 H   0  0  0  0  0  0  0  0  0  0  0  0
    1.9708   -5.3646   -7.2349 H   0  0  0  0  0  0  0  0  0  0  0  0
    1.0872   -2.9751   -6.6534 N   0  0  0  0  0  0  0  0  0  0  0  0
    0.6968   -1.5894   -6.5901 C   0  0  2  0  0  0  0  0  0  0  0  0
    1.9231   -0.7176   -6.8529 C   0  0  0  0  0  0  0  0  0  0  0  0
    3.0578   -1.1759   -6.9699 O   0  0  0  0  0  0  0  0  0  0  0  0
   -0.0232   -1.2460   -5.2837 C   0  0  0  0  0  0  0  0  0  0  0  0
    1.0105   -1.4587   -3.7975 S   0  0  0  0  0  0  0  0  0  0  0  0
    2.0135   -3.2319   -6.3195 H   0  0  0  0  0  0  0  0  0  0  0  0
    0.0002   -1.4411   -7.4246 H   0  0  0  0  0  0  0  0  0  0  0  0
   -0.3683   -0.2070   -5.2966 H   0  0  0  0  0  0  0  0  0  0  0  0
   -0.9045   -1.8854   -5.1642 H   0  0  0  0  0  0  0  0  0  0  0  0
    1.6042    0.6314   -6.9164 N   0  0  0  0  0  0  0  0  0  0  0  0
    2.5976    1.6574   -7.1314 C   0  0  0  0  0  0  0  0  0  0  0  0
    0.6322    0.9189   -6.8519 H   0  0  0  0  0  0  0  0  0  0  0  0
    2.9525    2.0341   -6.1608 H   0  0  0  0  0  0  0  0  0  0  0  0
    3.4444    1.2358   -7.6928 H   0  0  0  0  0  0  0  0  0  0  0  0
    2.1527    2.4840   -7.7049 H   0  0  0  0  0  0  0  0  0  0  0  0
   -6.7256    2.0330   -0.2766 C   0  0  0  0  0  0  0  0  0  0  0  0
   -7.1824    1.1039   -0.9322 O   0  0  0  0  0  0  0  0  0  0  0  0
   -7.5276    2.6077    0.8435 C   0  0  0  0  0  0  0  0  0  0  0  0
   -8.1775    3.4344    0.5145 H   0  0  0  0  0  0  0  0  0  0  0  0
   -8.2057    1.8676    1.2980 H   0  0  0  0  0  0  0  0  0  0  0  0
   -6.9411    3.0162    1.6819 H   0  0  0  0  0  0  0  0  0  0  0  0
   -5.4935    2.6382   -0.4627 N   0  0  0  0  0  0  0  0  0  0  0  0
   -4.5619    2.2388   -1.4845 C   0  0  2  0  0  0  0  0  0  0  0  0
   -3.1535    2.4674   -0.9521 C   0  0  0  0  0  0  0  0  0  0  0  0
   -2.8634    3.3945   -0.1987 O   0  0  0  0  0  0  0  0  0  0  0  0
   -4.7883    3.0138   -2.7732 C   0  0  0  0  0  0  0  0  0  0  0  0
   -5.2337    3.4049    0.1551 H   0  0  0  0  0  0  0  0  0  0  0  0
   -4.7192    1.1682   -1.6549 H   0  0  0  0  0  0  0  0  0  0  0  0
   -4.6352    4.0886   -2.6221 H   0  0  0  0  0  0  0  0  0  0  0  0
   -4.0976    2.6887   -3.5582 H   0  0  0  0  0  0  0  0  0  0  0  0
   -5.8111    2.8719   -3.1387 H   0  0  0  0  0  0  0  0  0  0  0  0
   -2.2466    1.5400   -1.4507 N   0  0  0  0  0  0  0  0  0  0  0  0
   -0.8424    1.5707   -1.1286 C   0  0  2  0  0  0  0  0  0  0  0  0
   -0.4248    3.0177   -0.8746 C   0  0  0  0  0  0  0  0  0  0  0  0
    0.7190    3.3390   -0.5588 O   0  0  0  0  0  0  0  0  0  0  0  0
    0.0133    0.8687   -2.1858 C   0  0  0  0  0  0  0  0  0  0  0  0
   -0.2979   -0.9089   -2.3128 S   0  0  0  0  0  0  0  0  0  0  0  0
   -2.5850    0.7815   -2.0381 H   0  0  0  0  0  0  0  0  0  0  0  0
   -0.7456    1.0270   -0.1806 H   0  0  0  0  0  0  0  0  0  0  0  0
   -0.1641    1.3037   -3.1748 H   0  0  0  0  0  0  0  0  0  0  0  0
    1.0757    0.9996   -1.9531 H   0  0  0  0  0  0  0  0  0  0  0  0
   -1.4842    3.9026   -1.0177 N   0  0  0  0  0  0  0  0  0  0  0  0
   -1.3458    5.3243   -0.8049 C   0  0  2  0  0  0  0  0  0  0  0  0
   -2.6655    5.8480   -0.2538 C   0  0  0  0  0  0  0  0  0  0  0  0
   -3.7581    5.3894   -0.5808 O   0  0  0  0  0  0  0  0  0  0  0  0
   -0.9709    6.0426   -2.0919 C   0  0  0  0  0  0  0  0  0  0  0  0
   -2.3880    3.5549   -1.3241 H   0  0  0  0  0  0  0  0  0  0  0  0
   -0.5581    5.4567   -0.0552 H   0  0  0  0  0  0  0  0  0  0  0  0
   -1.7484    5.9212   -2.8550 H   0  0  0  0  0  0  0  0  0  0  0  0
   -0.8385    7.1163   -1.9229 H   0  0  0  0  0  0  0  0  0  0  0  0
   -0.0369    5.6442   -2.5026 H   0  0  0  0  0  0  0  0  0  0  0  0
   -2.4819    6.9161    0.6131 N   0  0  0  0  0  0  0  0  0  0  0  0
   -3.5832    7.6142    1.2343 C   0  0  0  0  0  0  0  0  0  0  0  0
   -1.5393    7.2040    0.8587 H   0  0  0  0  0  0  0  0  0  0  0  0
   -3.8692    8.4757    0.6129 H   0  0  0  0  0  0  0  0  0  0  0  0
   -4.4408    6.9323    1.3325 H   0  0  0  0  0  0  0  0  0  0  0  0
   -3.2786    7.9662    2.2309 H   0  0  0  0  0  0  0  0  0  0  0  0
  1  3  1  0  0  0  0
  1  7  1  0  0  0  0
  1  2  2  0  0  0  0
 23 25  1  0  0  0  0
 23 29  1  0  0  0  0
 23 24  2  0  0  0  0
 50 51  1  0  0  0  0
 51 59  1  0  0  0  0
 51 52  2  0  0  0  0
  8  9  1  0  0  0  0
  9 17  1  0  0  0  0
  9 10  2  0  0  0  0
 30 31  1  0  0  0  0
 31 39  1  0  0  0  0
 31 32  2  0  0  0  0
 40 41  1  0  0  0  0
 41 49  1  0  0  0  0
 41 42  2  0  0  0  0
 50 53  1  0  0  0  0
 30 33  1  0  0  0  0
 59 60  1  0  0  0  0
 17 18  1  0  0  0  0
  8 11  1  0  0  0  0
 11 12  1  0  0  0  0
 40 43  1  0  0  0  0
 43 44  1  0  0  0  0
 49 50  1  0  0  0  0
  7  8  1  0  0  0  0
 29 30  1  0  0  0  0
 39 40  1  0  0  0  0
 12 44  1  0  0  0  0
  3  4  1  0  0  0  0
  3  5  1  0  0  0  0
  3  6  1  0  0  0  0
 25 26  1  0  0  0  0
 25 27  1  0  0  0  0
 25 28  1  0  0  0  0
 53 56  1  0  0  0  0
 53 57  1  0  0  0  0
 53 58  1  0  0  0  0
 33 36  1  0  0  0  0
 33 37  1  0  0  0  0
 33 38  1  0  0  0  0
 60 62  1  0  0  0  0
 60 63  1  0  0  0  0
 60 64  1  0  0  0  0
 18 20  1  0  0  0  0
 18 21  1  0  0  0  0
 18 22  1  0  0  0  0
 11 15  1  0  0  0  0
 11 16  1  0  0  0  0
 43 47  1  0  0  0  0
 43 48  1  0  0  0  0
 50 55  1  0  0  0  0
  8 14  1  0  0  0  0
 30 35  1  0  0  0  0
 40 46  1  0  0  0  0
 59 61  1  0  0  0  0
 17 19  1  0  0  0  0
  7 13  1  0  0  0  0
 29 34  1  0  0  0  0
 49 54  1  0  0  0  0
 39 45  1  0  0  0  0
M  END
$$$$

  -OEChem-05262214473D

 64 63  0     1  0  0  0  0  0999 V2000
    0.2654   -3.9743   -7.1455 C   0  0  0  0  0  0  0  0  0  0  0  0
   -0.8705   -3.8297   -7.5821 O   0  0  0  0  0  0  0  0  0  0  0  0
    0.8756   -5.3364   -7.1183 C   0  0  0  0  0  0  0  0  0  0  0  0
    0.6706   -5.8702   -6.1765 H   0  0  0  0  0  0  0  0  0  0  0  0
    0.4827   -5.9891   -7.9144 H   0  0  0  0  0  0  0  0  0  0  0  0
    1.9708   -5.3646   -7.2349 H   0  0  0  0  0  0  0  0  0  0  0  0
    1.0872   -2.9751   -6.6534 N   0  0  0  0  0  0  0  0  0  0  0  0
    0.6968   -1.5894   -6.5901 C   0  0  2  0  0  0  0  0  0  0  0  0
    1.9231   -0.7176   -6.8529 C   0  0  0  0  0  0  0  0  0  0  0  0
    3.0578   -1.1759   -6.9699 O   0  0  0  0  0  0  0  0  0  0  0  0
   -0.0232   -1.2460   -5.2837 C   0  0  0  0  0  0  0  0  0  0  0  0
    1.0105   -1.4587   -3.7975 S   0  0  0  0  0  0  0  0  0  0  0  0
    2.0135   -3.2319   -6.3195 H   0  0  0  0  0  0  0  0  0  0  0  0
    0.0002   -1.4411   -7.4246 H   0  0  0  0  0  0  0  0  0  0  0  0
   -0.3683   -0.2070   -5.2966 H   0  0  0  0  0  0  0  0  0  0  0  0
   -0.9045   -1.8854   -5.1642 H   0  0  0  0  0  0  0  0  0  0  0  0
    1.6042    0.6314   -6.9164 N   0  0  0  0  0  0  0  0  0  0  0  0
    2.5976    1.6574   -7.1314 C   0  0  0  0  0  0  0  0  0  0  0  0
    0.6322    0.9189   -6.8519 H   0  0  0  0  0  0  0  0  0  0  0  0
    2.9525    2.0341   -6.1608 H   0  0  0  0  0  0  0  0  0  0  0  0
    3.4444    1.2358   -7.6928 H   0  0  0  0  0  0  0  0  0  0  0  0
    2.1527    2.4840   -7.7049 H   0  0  0  0  0  0  0  0  0  0  0  0
   -6.7256    2.0330   -0.2766 C   0  0  0  0  0  0  0  0  0  0  0  0
   -7.1824    1.1039   -0.9322 O   0  0  0  0  0  0  0  0  0  0  0  0
   -7.5276    2.6077    0.8435 C   0  0  0  0  0  0  0  0  0  0  0  0
   -8.1775    3.4344    0.5145 H   0  0  0  0  0  0  0  0  0  0  0  0
   -8.2057    1.8676    1.2980 H   0  0  0  0  0  0  0  0  0  0  0  0
   -6.9411    3.0162    1.6819 H   0  0  0  0  0  0  0  0  0  0  0  0
   -5.4935    2.6382   -0.4627 N   0  0  0  0  0  0  0  0  0  0  0  0
   -4.5619    2.2388   -1.4845 C   0  0  2  0  0  0  0  0  0  0  0  0
   -3.1535    2.4674   -0.9521 C   0  0  0  0  0  0  0  0  0  0  0  0
   -2.8634    3.3945   -0.1987 O   0  0  0  0  0  0  0  0  0  0  0  0
   -4.7883    3.0138   -2.7732 C   0  0  0  0  0  0  0  0  0  0  0  0
   -5.2337    3.4049    0.1551 H   0  0  0  0  0  0  0  0  0  0  0  0
   -4.7192    1.1682   -1.6549 H   0  0  0  0  0  0  0  0  0  0  0  0
   -4.6352    4.0886   -2.6221 H   0  0  0  0  0  0  0  0  0  0  0  0
   -4.0976    2.6887   -3.5582 H   0  0  0  0  0  0  0  0  0  0  0  0
   -5.8111    2.8719   -3.1387 H   0  0  0  0  0  0  0  0  0  0  0  0
   -2.2466    1.5400   -1.4507 N   0  0  0  0  0  0  0  0  0  0  0  0
   -0.8424    1.5707   -1.1286 C   0  0  2  0  0  0  0  0  0  0  0  0
   -0.4248    3.0177   -0.8746 C   0  0  0  0  0  0  0  0  0  0  0  0
    0.7499    3.3765   -0.8235 O   0  0  0  0  0  0  0  0  0  0  0  0
    0.0133    0.8687   -2.1858 C   0  0  0  0  0  0  0  0  0  0  0  0
   -0.2979   -0.9089   -2.3128 S   0  0  0  0  0  0  0  0  0  0  0  0
   -2.5850    0.7815   -2.0381 H   0  0  0  0  0  0  0  0  0  0  0  0
   -0.7456    1.0270   -0.1806 H   0  0  0  0  0  0  0  0  0  0  0  0
   -0.1641    1.3037   -3.1748 H   0  0  0  0  0  0  0  0  0  0  0  0
    1.0757    0.9996   -1.9531 H   0  0  0  0  0  0  0  0  0  0  0  0
   -1.5163    3.8539   -0.6875 N   0  0  0  0  0  0  0  0  0  0  0  0
   -1.3785    5.2639   -0.4072 C   0  0  2  0  0  0  0  0  0  0  0  0
   -2.5385    5.6813    0.4871 C   0  0  0  0  0  0  0  0  0  0  0  0
   -3.6617    5.1890    0.4022 O   0  0  0  0  0  0  0  0  0  0  0  0
   -1.3576    6.0833   -1.6882 C   0  0  0  0  0  0  0  0  0  0  0  0
   -2.4554    3.4807   -0.7899 H   0  0  0  0  0  0  0  0  0  0  0  0
   -0.4351    5.3877    0.1358 H   0  0  0  0  0  0  0  0  0  0  0  0
   -2.2946    5.9719   -2.2458 H   0  0  0  0  0  0  0  0  0  0  0  0
   -1.2244    7.1491   -1.4753 H   0  0  0  0  0  0  0  0  0  0  0  0
   -0.5407    5.7617   -2.3433 H   0  0  0  0  0  0  0  0  0  0  0  0
   -2.1833    6.6985    1.3619 N   0  0  0  0  0  0  0  0  0  0  0  0
   -3.1205    7.2964    2.2839 C   0  0  0  0  0  0  0  0  0  0  0  0
   -1.2197    7.0183    1.3915 H   0  0  0  0  0  0  0  0  0  0  0  0
   -3.5802    8.1807    1.8184 H   0  0  0  0  0  0  0  0  0  0  0  0
   -3.9035    6.5661    2.5359 H   0  0  0  0  0  0  0  0  0  0  0  0
   -2.5916    7.5978    3.2001 H   0  0  0  0  0  0  0  0  0  0  0  0
  1  3  1  0  0  0  0
  1  7  1  0  0  0  0
  1  2  2  0  0  0  0
 23 25  1  0  0  0  0
 23 29  1  0  0  0  0
 23 24  2  0  0  0  0
 50 51  1  0  0  0  0
 51 59  1  0  0  0  0
 51 52  2  0  0  0  0
  8  9  1  0  0  0  0
  9 17  1  0  0  0  0
  9 10  2  0  0  0  0
 30 31  1  0  0  0  0
 31 39  1  0  0  0  0
 31 32  2  0  0  0  0
 40 41  1  0  0  0  0
 41 49  1  0  0  0  0
 41 42  2  0  0  0  0
 50 53  1  0  0  0  0
 30 33  1  0  0  0  0
 59 60  1  0  0  0  0
 17 18  1  0  0  0  0
  8 11  1  0  0  0  0
 11 12  1  0  0  0  0
 40 43  1  0  0  0  0
 43 44  1  0  0  0  0
 49 50  1  0  0  0  0
  7  8  1  0  0  0  0
 29 30  1  0  0  0  0
 39 40  1  0  0  0  0
 12 44  1  0  0  0  0
  3  4  1  0  0  0  0
  3  5  1  0  0  0  0
  3  6  1  0  0  0  0
 25 26  1  0  0  0  0
 25 27  1  0  0  0  0
 25 28  1  0  0  0  0
 53 56  1  0  0  0  0
 53 57  1  0  0  0  0
 53 58  1  0  0  0  0
 33 36  1  0  0  0  0
 33 37  1  0  0  0  0
 33 38  1  0  0  0  0
 60 62  1  0  0  0  0
 60 63  1  0  0  0  0
 60 64  1  0  0  0  0
 18 20  1  0  0  0  0
 18 21  1  0  0  0  0
 18 22  1  0  0  0  0
 11 15  1  0  0  0  0
 11 16  1  0  0  0  0
 43 47  1  0  0  0  0
 43 48  1  0  0  0  0
 50 55  1  0  0  0  0
  8 14  1  0  0  0  0
 30 35  1  0  0  0  0
 40 46  1  0  0  0  0
 59 61  1  0  0  0  0
 17 19  1  0  0  0  0
  7 13  1  0  0  0  0
 29 34  1  0  0  0  0
 49 54  1  0  0  0  0
 39 45  1  0  0  0  0
M  END
$$$$

  -OEChem-05262214473D

 64 63  0     1  0  0  0  0  0999 V2000
    0.2654   -3.9743   -7.1455 C   0  0  0  0  0  0  0  0  0  0  0  0
   -0.8705   -3.8297   -7.5821 O   0  0  0  0  0  0  0  0  0  0  0  0
    0.8756   -5.3364   -7.1183 C   0  0  0  0  0  0  0  0  0  0  0  0
    0.6706   -5.8702   -6.1765 H   0  0  0  0  0  0  0  0  0  0  0  0
    0.4827   -5.9891   -7.9144 H   0  0  0  0  0  0  0  0  0  0  0  0
    1.9708   -5.3646   -7.2349 H   0  0  0  0  0  0  0  0  0  0  0  0
    1.0872   -2.9751   -6.6534 N   0  0  0  0  0  0  0  0  0  0  0  0
    0.6968   -1.5894   -6.5901 C   0  0  2  0  0  0  0  0  0  0  0  0
    1.9231   -0.7176   -6.8529 C   0  0  0  0  0  0  0  0  0  0  0  0
    3.0578   -1.1759   -6.9699 O   0  0  0  0  0  0  0  0  0  0  0  0
   -0.0232   -1.2460   -5.2837 C   0  0  0  0  0  0  0  0  0  0  0  0
    1.0105   -1.4587   -3.7975 S   0  0  0  0  0  0  0  0  0  0  0  0
    2.0135   -3.2319   -6.3195 H   0  0  0  0  0  0  0  0  0  0  0  0
    0.0002   -1.4411   -7.4246 H   0  0  0  0  0  0  0  0  0  0  0  0
   -0.3683   -0.2070   -5.2966 H   0  0  0  0  0  0  0  0  0  0  0  0
   -0.9045   -1.8854   -5.1642 H   0  0  0  0  0  0  0  0  0  0  0  0
    1.6042    0.6314   -6.9164 N   0  0  0  0  0  0  0  0  0  0  0  0
    2.5976    1.6574   -7.1314 C   0  0  0  0  0  0  0  0  0  0  0  0
    0.6322    0.9189   -6.8519 H   0  0  0  0  0  0  0  0  0  0  0  0
    2.9525    2.0341   -6.1608 H   0  0  0  0  0  0  0  0  0  0  0  0
    3.4444    1.2358   -7.6928 H   0  0  0  0  0  0  0  0  0  0  0  0
    2.1527    2.4840   -7.7049 H   0  0  0  0  0  0  0  0  0  0  0  0
   -6.7256    2.0330   -0.2766 C   0  0  0  0  0  0  0  0  0  0  0  0
   -7.1824    1.1039   -0.9322 O   0  0  0  0  0  0  0  0  0  0  0  0
   -7.5276    2.6077    0.8435 C   0  0  0  0  0  0  0  0  0  0  0  0
   -8.1775    3.4344    0.5145 H   0  0  0  0  0  0  0  0  0  0  0  0
   -8.2057    1.8676    1.2980 H   0  0  0  0  0  0  0  0  0  0  0  0
   -6.9411    3.0162    1.6819 H   0  0  0  0  0  0  0  0  0  0  0  0
   -5.4935    2.6382   -0.4627 N   0  0  0  0  0  0  0  0  0  0  0  0
   -4.5619    2.2388   -1.4845 C   0  0  2  0  0  0  0  0  0  0  0  0
   -3.1535    2.4674   -0.9521 C   0  0  0  0  0  0  0  0  0  0  0  0
   -2.8634    3.3945   -0.1987 O   0  0  0  0  0  0  0  0  0  0  0  0
   -4.7883    3.0138   -2.7732 C   0  0  0  0  0  0  0  0  0  0  0  0
   -5.2337    3.4049    0.1551 H   0  0  0  0  0  0  0  0  0  0  0  0
   -4.7192    1.1682   -1.6549 H   0  0  0  0  0  0  0  0  0  0  0  0
   -4.6352    4.0886   -2.6221 H   0  0  0  0  0  0  0  0  0  0  0  0
   -4.0976    2.6887   -3.5582 H   0  0  0  0  0  0  0  0  0  0  0  0
   -5.8111    2.8719   -3.1387 H   0  0  0  0  0  0  0  0  0  0  0  0
   -2.2466    1.5400   -1.4507 N   0  0  0  0  0  0  0  0  0  0  0  0
   -0.8424    1.5707   -1.1286 C   0  0  2  0  0  0  0  0  0  0  0  0
   -0.4248    3.0177   -0.8746 C   0  0  0  0  0  0  0  0  0  0  0  0
    0.7132    3.4329   -1.0841 O   0  0  0  0  0  0  0  0  0  0  0  0
    0.0133    0.8687   -2.1858 C   0  0  0  0  0  0  0  0  0  0  0  0
   -0.2979   -0.9089   -2.3128 S   0  0  0  0  0  0  0  0  0  0  0  0
   -2.5850    0.7815   -2.0381 H   0  0  0  0  0  0  0  0  0  0  0  0
   -0.7456    1.0270   -0.1806 H   0  0  0  0  0  0  0  0  0  0  0  0
   -0.1641    1.3037   -3.1748 H   0  0  0  0  0  0  0  0  0  0  0  0
    1.0757    0.9996   -1.9531 H   0  0  0  0  0  0  0  0  0  0  0  0
   -1.4644    3.7821   -0.3641 N   0  0  0  0  0  0  0  0  0  0  0  0
   -1.3099    5.1761   -0.0193 C   0  0  2  0  0  0  0  0  0  0  0  0
   -2.2270    5.4733    1.1597 C   0  0  0  0  0  0  0  0  0  0  0  0
   -3.3189    4.9300    1.3139 O   0  0  0  0  0  0  0  0  0  0  0  0
   -1.6338    6.0774   -1.2006 C   0  0  0  0  0  0  0  0  0  0  0  0
   -2.3864    3.3682   -0.2627 H   0  0  0  0  0  0  0  0  0  0  0  0
   -0.2666    5.3128    0.2853 H   0  0  0  0  0  0  0  0  0  0  0  0
   -2.6751    5.9543   -1.5199 H   0  0  0  0  0  0  0  0  0  0  0  0
   -1.4887    7.1325   -0.9461 H   0  0  0  0  0  0  0  0  0  0  0  0
   -0.9934    5.8421   -2.0575 H   0  0  0  0  0  0  0  0  0  0  0  0
   -1.7020    6.4482    1.9965 N   0  0  0  0  0  0  0  0  0  0  0  0
   -2.4025    6.9352    3.1618 C   0  0  0  0  0  0  0  0  0  0  0  0
   -0.7723    6.8149    1.8147 H   0  0  0  0  0  0  0  0  0  0  0  0
   -2.9929    7.8229    2.8911 H   0  0  0  0  0  0  0  0  0  0  0  0
   -3.0736    6.1502    3.5407 H   0  0  0  0  0  0  0  0  0  0  0  0
   -1.6745    7.2030    3.9418 H   0  0  0  0  0  0  0  0  0  0  0  0
  1  3  1  0  0  0  0
  1  7  1  0  0  0  0
  1  2  2  0  0  0  0
 23 25  1  0  0  0  0
 23 29  1  0  0  0  0
 23 24  2  0  0  0  0
 50 51  1  0  0  0  0
 51 59  1  0  0  0  0
 51 52  2  0  0  0  0
  8  9  1  0  0  0  0
  9 17  1  0  0  0  0
  9 10  2  0  0  0  0
 30 31  1  0  0  0  0
 31 39  1  0  0  0  0
 31 32  2  0  0  0  0
 40 41  1  0  0  0  0
 41 49  1  0  0  0  0
 41 42  2  0  0  0  0
 50 53  1  0  0  0  0
 30 33  1  0  0  0  0
 59 60  1  0  0  0  0
 17 18  1  0  0  0  0
  8 11  1  0  0  0  0
 11 12  1  0  0  0  0
 40 43  1  0  0  0  0
 43 44  1  0  0  0  0
 49 50  1  0  0  0  0
  7  8  1  0  0  0  0
 29 30  1  0  0  0  0
 39 40  1  0  0  0  0
 12 44  1  0  0  0  0
  3  4  1  0  0  0  0
  3  5  1  0  0  0  0
  3  6  1  0  0  0  0
 25 26  1  0  0  0  0
 25 27  1  0  0  0  0
 25 28  1  0  0  0  0
 53 56  1  0  0  0  0
 53 57  1  0  0  0  0
 53 58  1  0  0  0  0
 33 36  1  0  0  0  0
 33 37  1  0  0  0  0
 33 38  1  0  0  0  0
 60 62  1  0  0  0  0
 60 63  1  0  0  0  0
 60 64  1  0  0  0  0
 18 20  1  0  0  0  0
 18 21  1  0  0  0  0
 18 22  1  0  0  0  0
 11 15  1  0  0  0  0
 11 16  1  0  0  0  0
 43 47  1  0  0  0  0
 43 48  1  0  0  0  0
 50 55  1  0  0  0  0
  8 14  1  0  0  0  0
 30 35  1  0  0  0  0
 40 46  1  0  0  0  0
 59 61  1  0  0  0  0
 17 19  1  0  0  0  0
  7 13  1  0  0  0  0
 29 34  1  0  0  0  0
 49 54  1  0  0  0  0
 39 45  1  0  0  0  0
M  END
$$$$

  -OEChem-05262214473D

 64 63  0     1  0  0  0  0  0999 V2000
    0.2654   -3.9743   -7.1455 C   0  0  0  0  0  0  0  0  0  0  0  0
   -0.8705   -3.8297   -7.5821 O   0  0  0  0  0  0  0  0  0  0  0  0
    0.8756   -5.3364   -7.1183 C   0  0  0  0  0  0  0  0  0  0  0  0
    0.6706   -5.8702   -6.1765 H   0  0  0  0  0  0  0  0  0  0  0  0
    0.4827   -5.9891   -7.9144 H   0  0  0  0  0  0  0  0  0  0  0  0
    1.9708   -5.3646   -7.2349 H   0  0  0  0  0  0  0  0  0  0  0  0
    1.0872   -2.9751   -6.6534 N   0  0  0  0  0  0  0  0  0  0  0  0
    0.6968   -1.5894   -6.5901 C   0  0  2  0  0  0  0  0  0  0  0  0
    1.9231   -0.7176   -6.8529 C   0  0  0  0  0  0  0  0  0  0  0  0
    3.0578   -1.1759   -6.9699 O   0  0  0  0  0  0  0  0  0  0  0  0
   -0.0232   -1.2460   -5.2837 C   0  0  0  0  0  0  0  0  0  0  0  0
    1.0105   -1.4587   -3.7975 S   0  0  0  0  0  0  0  0  0  0  0  0
    2.0135   -3.2319   -6.3195 H   0  0  0  0  0  0  0  0  0  0  0  0
    0.0002   -1.4411   -7.4246 H   0  0  0  0  0  0  0  0  0  0  0  0
   -0.3683   -0.2070   -5.2966 H   0  0  0  0  0  0  0  0  0  0  0  0
   -0.9045   -1.8854   -5.1642 H   0  0  0  0  0  0  0  0  0  0  0  0
    1.6042    0.6314   -6.9164 N   0  0  0  0  0  0  0  0  0  0  0  0
    2.5976    1.6574   -7.1314 C   0  0  0  0  0  0  0  0  0  0  0  0
    0.6322    0.9189   -6.8519 H   0  0  0  0  0  0  0  0  0  0  0  0
    2.9525    2.0341   -6.1608 H   0  0  0  0  0  0  0  0  0  0  0  0
    3.4444    1.2358   -7.6928 H   0  0  0  0  0  0  0  0  0  0  0  0
    2.1527    2.4840   -7.7049 H   0  0  0  0  0  0  0  0  0  0  0  0
   -6.7256    2.0330   -0.2766 C   0  0  0  0  0  0  0  0  0  0  0  0
   -7.1824    1.1039   -0.9322 O   0  0  0  0  0  0  0  0  0  0  0  0
   -7.5276    2.6077    0.8435 C   0  0  0  0  0  0  0  0  0  0  0  0
   -8.1775    3.4344    0.5145 H   0  0  0  0  0  0  0  0  0  0  0  0
   -8.2057    1.8676    1.2980 H   0  0  0  0  0  0  0  0  0  0  0  0
   -6.9411    3.0162    1.6819 H   0  0  0  0  0  0  0  0  0  0  0  0
   -5.4935    2.6382   -0.4627 N   0  0  0  0  0  0  0  0  0  0  0  0
   -4.5619    2.2388   -1.4845 C   0  0  2  0  0  0  0  0  0  0  0  0
   -3.1535    2.4674   -0.9521 C   0  0  0  0  0  0  0  0  0  0  0  0
   -2.8634    3.3945   -0.1987 O   0  0  0  0  0  0  0  0  0  0  0  0
   -4.7883    3.0138   -2.7732 C   0  0  0  0  0  0  0  0  0  0  0  0
   -5.2337    3.4049    0.1551 H   0  0  0  0  0  0  0  0  0  0  0  0
   -4.7192    1.1682   -1.6549 H   0  0  0  0  0  0  0  0  0  0  0  0
   -4.6352    4.0886   -2.6221 H   0  0  0  0  0  0  0  0  0  0  0  0
   -4.0976    2.6887   -3.5582 H   0  0  0  0  0  0  0  0  0  0  0  0
   -5.8111    2.8719   -3.1387 H   0  0  0  0  0  0  0  0  0  0  0  0
   -2.2466    1.5400   -1.4507 N   0  0  0  0  0  0  0  0  0  0  0  0
   -0.8424    1.5707   -1.1286 C   0  0  2  0  0  0  0  0  0  0  0  0
   -0.4248    3.0177   -0.8746 C   0  0  0  0  0  0  0  0  0  0  0  0
    0.6114    3.5041   -1.3229 O   0  0  0  0  0  0  0  0  0  0  0  0
    0.0133    0.8687   -2.1858 C   0  0  0  0  0  0  0  0  0  0  0  0
   -0.2979   -0.9089   -2.3128 S   0  0  0  0  0  0  0  0  0  0  0  0
   -2.5850    0.7815   -2.0381 H   0  0  0  0  0  0  0  0  0  0  0  0
   -0.7456    1.0270   -0.1806 H   0  0  0  0  0  0  0  0  0  0  0  0
   -0.1641    1.3037   -3.1748 H   0  0  0  0  0  0  0  0  0  0  0  0
    1.0757    0.9996   -1.9531 H   0  0  0  0  0  0  0  0  0  0  0  0
   -1.3318    3.6922   -0.0695 N   0  0  0  0  0  0  0  0  0  0  0  0
   -1.1448    5.0667    0.3323 C   0  0  2  0  0  0  0  0  0  0  0  0
   -1.7522    5.2382    1.7184 C   0  0  0  0  0  0  0  0  0  0  0  0
   -2.7530    4.6302    2.0921 O   0  0  0  0  0  0  0  0  0  0  0  0
   -1.7808    6.0254   -0.6622 C   0  0  0  0  0  0  0  0  0  0  0  0
   -2.1855    3.2252    0.2216 H   0  0  0  0  0  0  0  0  0  0  0  0
   -0.0639    5.2372    0.3830 H   0  0  0  0  0  0  0  0  0  0  0  0
   -2.8639    5.8696   -0.7266 H   0  0  0  0  0  0  0  0  0  0  0  0
   -1.6136    7.0677   -0.3712 H   0  0  0  0  0  0  0  0  0  0  0  0
   -1.3639    5.8801   -1.6647 H   0  0  0  0  0  0  0  0  0  0  0  0
   -1.0706    6.1822    2.4737 N   0  0  0  0  0  0  0  0  0  0  0  0
   -1.4781    6.5549    3.8082 C   0  0  0  0  0  0  0  0  0  0  0  0
   -0.2277    6.6078    2.0993 H   0  0  0  0  0  0  0  0  0  0  0  0
   -2.1471    7.4267    3.7579 H   0  0  0  0  0  0  0  0  0  0  0  0
   -2.0078    5.7132    4.2783 H   0  0  0  0  0  0  0  0  0  0  0  0
   -0.5898    6.8086    4.4054 H   0  0  0  0  0  0  0  0  0  0  0  0
  1  3  1  0  0  0  0
  1  7  1  0  0  0  0
  1  2  2  0  0  0  0
 23 25  1  0  0  0  0
 23 29  1  0  0  0  0
 23 24  2  0  0  0  0
 50 51  1  0  0  0  0
 51 59  1  0  0  0  0
 51 52  2  0  0  0  0
  8  9  1  0  0  0  0
  9 17  1  0  0  0  0
  9 10  2  0  0  0  0
 30 31  1  0  0  0  0
 31 39  1  0  0  0  0
 31 32  2  0  0  0  0
 40 41  1  0  0  0  0
 41 49  1  0  0  0  0
 41 42  2  0  0  0  0
 50 53  1  0  0  0  0
 30 33  1  0  0  0  0
 59 60  1  0  0  0  0
 17 18  1  0  0  0  0
  8 11  1  0  0  0  0
 11 12  1  0  0  0  0
 40 43  1  0  0  0  0
 43 44  1  0  0  0  0
 49 50  1  0  0  0  0
  7  8  1  0  0  0  0
 29 30  1  0  0  0  0
 39 40  1  0  0  0  0
 12 44  1  0  0  0  0
  3  4  1  0  0  0  0
  3  5  1  0  0  0  0
  3  6  1  0  0  0  0
 25 26  1  0  0  0  0
 25 27  1  0  0  0  0
 25 28  1  0  0  0  0
 53 56  1  0  0  0  0
 53 57  1  0  0  0  0
 53 58  1  0  0  0  0
 33 36  1  0  0  0  0
 33 37  1  0  0  0  0
 33 38  1  0  0  0  0
 60 62  1  0  0  0  0
 60 63  1  0  0  0  0
 60 64  1  0  0  0  0
 18 20  1  0  0  0  0
 18 21  1  0  0  0  0
 18 22  1  0  0  0  0
 11 15  1  0  0  0  0
 11 16  1  0  0  0  0
 43 47  1  0  0  0  0
 43 48  1  0  0  0  0
 50 55  1  0  0  0  0
  8 14  1  0  0  0  0
 30 35  1  0  0  0  0
 40 46  1  0  0  0  0
 59 61  1  0  0  0  0
 17 19  1  0  0  0  0
  7 13  1  0  0  0  0
 29 34  1  0  0  0  0
 49 54  1  0  0  0  0
 39 45  1  0  0  0  0
M  END
$$$$

  -OEChem-05262214473D

 64 63  0     1  0  0  0  0  0999 V2000
    0.2654   -3.9743   -7.1455 C   0  0  0  0  0  0  0  0  0  0  0  0
   -0.8705   -3.8297   -7.5821 O   0  0  0  0  0  0  0  0  0  0  0  0
    0.8756   -5.3364   -7.1183 C   0  0  0  0  0  0  0  0  0  0  0  0
    0.6706   -5.8702   -6.1765 H   0  0  0  0  0  0  0  0  0  0  0  0
    0.4827   -5.9891   -7.9144 H   0  0  0  0  0  0  0  0  0  0  0  0
    1.9708   -5.3646   -7.2349 H   0  0  0  0  0  0  0  0  0  0  0  0
    1.0872   -2.9751   -6.6534 N   0  0  0  0  0  0  0  0  0  0  0  0
    0.6968   -1.5894   -6.5901 C   0  0  2  0  0  0  0  0  0  0  0  0
    1.9231   -0.7176   -6.8529 C   0  0  0  0  0  0  0  0  0  0  0  0
    3.0578   -1.1759   -6.9699 O   0  0  0  0  0  0  0  0  0  0  0  0
   -0.0232   -1.2460   -5.2837 C   0  0  0  0  0  0  0  0  0  0  0  0
    1.0105   -1.4587   -3.7975 S   0  0  0  0  0  0  0  0  0  0  0  0
    2.0135   -3.2319   -6.3195 H   0  0  0  0  0  0  0  0  0  0  0  0
    0.0002   -1.4411   -7.4246 H   0  0  0  0  0  0  0  0  0  0  0  0
   -0.3683   -0.2070   -5.2966 H   0  0  0  0  0  0  0  0  0  0  0  0
   -0.9045   -1.8854   -5.1642 H   0  0  0  0  0  0  0  0  0  0  0  0
    1.6042    0.6314   -6.9164 N   0  0  0  0  0  0  0  0  0  0  0  0
    2.5976    1.6574   -7.1314 C   0  0  0  0  0  0  0  0  0  0  0  0
    0.6322    0.9189   -6.8519 H   0  0  0  0  0  0  0  0  0  0  0  0
    2.9525    2.0341   -6.1608 H   0  0  0  0  0  0  0  0  0  0  0  0
    3.4444    1.2358   -7.6928 H   0  0  0  0  0  0  0  0  0  0  0  0
    2.1527    2.4840   -7.7049 H   0  0  0  0  0  0  0  0  0  0  0  0
   -6.7256    2.0330   -0.2766 C   0  0  0  0  0  0  0  0  0  0  0  0
   -7.1824    1.1039   -0.9322 O   0  0  0  0  0  0  0  0  0  0  0  0
   -7.5276    2.6077    0.8435 C   0  0  0  0  0  0  0  0  0  0  0  0
   -8.1775    3.4344    0.5145 H   0  0  0  0  0  0  0  0  0  0  0  0
   -8.2057    1.8676    1.2980 H   0  0  0  0  0  0  0  0  0  0  0  0
   -6.9411    3.0162    1.6819 H   0  0  0  0  0  0  0  0  0  0  0  0
   -5.4935    2.6382   -0.4627 N   0  0  0  0  0  0  0  0  0  0  0  0
   -4.5619    2.2388   -1.4845 C   0  0  2  0  0  0  0  0  0  0  0  0
   -3.1535    2.4674   -0.9521 C   0  0  0  0  0  0  0  0  0  0  0  0
   -2.8634    3.3945   -0.1987 O   0  0  0  0  0  0  0  0  0  0  0  0
   -4.7883    3.0138   -2.7732 C   0  0  0  0  0  0  0  0  0  0  0  0
   -5.2337    3.4049    0.1551 H   0  0  0  0  0  0  0  0  0  0  0  0
   -4.7192    1.1682   -1.6549 H   0  0  0  0  0  0  0  0  0  0  0  0
   -4.6352    4.0886   -2.6221 H   0  0  0  0  0  0  0  0  0  0  0  0
   -4.0976    2.6887   -3.5582 H   0  0  0  0  0  0  0  0  0  0  0  0
   -5.8111    2.8719   -3.1387 H   0  0  0  0  0  0  0  0  0  0  0  0
   -2.2466    1.5400   -1.4507 N   0  0  0  0  0  0  0  0  0  0  0  0
   -0.8424    1.5707   -1.1286 C   0  0  2  0  0  0  0  0  0  0  0  0
   -0.4248    3.0177   -0.8746 C   0  0  0  0  0  0  0  0  0  0  0  0
    0.4515    3.5855   -1.5235 O   0  0  0  0  0  0  0  0  0  0  0  0
    0.0133    0.8687   -2.1858 C   0  0  0  0  0  0  0  0  0  0  0  0
   -0.2979   -0.9089   -2.3128 S   0  0  0  0  0  0  0  0  0  0  0  0
   -2.5850    0.7815   -2.0381 H   0  0  0  0  0  0  0  0  0  0  0  0
   -0.7456    1.0270   -0.1806 H   0  0  0  0  0  0  0  0  0  0  0  0
   -0.1641    1.3037   -3.1748 H   0  0  0  0  0  0  0  0  0  0  0  0
    1.0757    0.9996   -1.9531 H   0  0  0  0  0  0  0  0  0  0  0  0
   -1.1276    3.5901    0.1761 N   0  0  0  0  0  0  0  0  0  0  0  0
   -0.8944    4.9433    0.6238 C   0  0  2  0  0  0  0  0  0  0  0  0
   -1.1465    4.9921    2.1250 C   0  0  0  0  0  0  0  0  0  0  0  0
   -2.0027    4.3098    2.6839 O   0  0  0  0  0  0  0  0  0  0  0  0
   -1.7885    5.9307   -0.1099 C   0  0  0  0  0  0  0  0  0  0  0  0
   -1.8666    3.0615    0.6301 H   0  0  0  0  0  0  0  0  0  0  0  0
    0.1591    5.1659    0.4224 H   0  0  0  0  0  0  0  0  0  0  0  0
   -2.8480    5.7234    0.0799 H   0  0  0  0  0  0  0  0  0  0  0  0
   -1.5904    6.9589    0.2101 H   0  0  0  0  0  0  0  0  0  0  0  0
   -1.6272    5.8731   -1.1918 H   0  0  0  0  0  0  0  0  0  0  0  0
   -0.3323    5.9187    2.7610 N   0  0  0  0  0  0  0  0  0  0  0  0
   -0.4104    6.1817    4.1790 C   0  0  0  0  0  0  0  0  0  0  0  0
    0.3771    6.4110    2.2261 H   0  0  0  0  0  0  0  0  0  0  0  0
   -1.1005    7.0191    4.3597 H   0  0  0  0  0  0  0  0  0  0  0  0
   -0.7786    5.2847    4.6985 H   0  0  0  0  0  0  0  0  0  0  0  0
    0.5886    6.4415    4.5592 H   0  0  0  0  0  0  0  0  0  0  0  0
  1  3  1  0  0  0  0
  1  7  1  0  0  0  0
  1  2  2  0  0  0  0
 23 25  1  0  0  0  0
 23 29  1  0  0  0  0
 23 24  2  0  0  0  0
 50 51  1  0  0  0  0
 51 59  1  0  0  0  0
 51 52  2  0  0  0  0
  8  9  1  0  0  0  0
  9 17  1  0  0  0  0
  9 10  2  0  0  0  0
 30 31  1  0  0  0  0
 31 39  1  0  0  0  0
 31 32  2  0  0  0  0
 40 41  1  0  0  0  0
 41 49  1  0  0  0  0
 41 42  2  0  0  0  0
 50 53  1  0  0  0  0
 30 33  1  0  0  0  0
 59 60  1  0  0  0  0
 17 18  1  0  0  0  0
  8 11  1  0  0  0  0
 11 12  1  0  0  0  0
 40 43  1  0  0  0  0
 43 44  1  0  0  0  0
 49 50  1  0  0  0  0
  7  8  1  0  0  0  0
 29 30  1  0  0  0  0
 39 40  1  0  0  0  0
 12 44  1  0  0  0  0
  3  4  1  0  0  0  0
  3  5  1  0  0  0  0
  3  6  1  0  0  0  0
 25 26  1  0  0  0  0
 25 27  1  0  0  0  0
 25 28  1  0  0  0  0
 53 56  1  0  0  0  0
 53 57  1  0  0  0  0
 53 58  1  0  0  0  0
 33 36  1  0  0  0  0
 33 37  1  0  0  0  0
 33 38  1  0  0  0  0
 60 62  1  0  0  0  0
 60 63  1  0  0  0  0
 60 64  1  0  0  0  0
 18 20  1  0  0  0  0
 18 21  1  0  0  0  0
 18 22  1  0  0  0  0
 11 15  1  0  0  0  0
 11 16  1  0  0  0  0
 43 47  1  0  0  0  0
 43 48  1  0  0  0  0
 50 55  1  0  0  0  0
  8 14  1  0  0  0  0
 30 35  1  0  0  0  0
 40 46  1  0  0  0  0
 59 61  1  0  0  0  0
 17 19  1  0  0  0  0
  7 13  1  0  0  0  0
 29 34  1  0  0  0  0
 49 54  1  0  0  0  0
 39 45  1  0  0  0  0
M  END
$$$$

  -OEChem-05262214473D

 64 63  0     1  0  0  0  0  0999 V2000
    0.2654   -3.9743   -7.1455 C   0  0  0  0  0  0  0  0  0  0  0  0
   -0.8705   -3.8297   -7.5821 O   0  0  0  0  0  0  0  0  0  0  0  0
    0.8756   -5.3364   -7.1183 C   0  0  0  0  0  0  0  0  0  0  0  0
    0.6706   -5.8702   -6.1765 H   0  0  0  0  0  0  0  0  0  0  0  0
    0.4827   -5.9891   -7.9144 H   0  0  0  0  0  0  0  0  0  0  0  0
    1.9708   -5.3646   -7.2349 H   0  0  0  0  0  0  0  0  0  0  0  0
    1.0872   -2.9751   -6.6534 N   0  0  0  0  0  0  0  0  0  0  0  0
    0.6968   -1.5894   -6.5901 C   0  0  2  0  0  0  0  0  0  0  0  0
    1.9231   -0.7176   -6.8529 C   0  0  0  0  0  0  0  0  0  0  0  0
    3.0578   -1.1759   -6.9699 O   0  0  0  0  0  0  0  0  0  0  0  0
   -0.0232   -1.2460   -5.2837 C   0  0  0  0  0  0  0  0  0  0  0  0
    1.0105   -1.4587   -3.7975 S   0  0  0  0  0  0  0  0  0  0  0  0
    2.0135   -3.2319   -6.3195 H   0  0  0  0  0  0  0  0  0  0  0  0
    0.0002   -1.4411   -7.4246 H   0  0  0  0  0  0  0  0  0  0  0  0
   -0.3683   -0.2070   -5.2966 H   0  0  0  0  0  0  0  0  0  0  0  0
   -0.9045   -1.8854   -5.1642 H   0  0  0  0  0  0  0  0  0  0  0  0
    1.6042    0.6314   -6.9164 N   0  0  0  0  0  0  0  0  0  0  0  0
    2.5976    1.6574   -7.1314 C   0  0  0  0  0  0  0  0  0  0  0  0
    0.6322    0.9189   -6.8519 H   0  0  0  0  0  0  0  0  0  0  0  0
    2.9525    2.0341   -6.1608 H   0  0  0  0  0  0  0  0  0  0  0  0
    3.4444    1.2358   -7.6928 H   0  0  0  0  0  0  0  0  0  0  0  0
    2.1527    2.4840   -7.7049 H   0  0  0  0  0  0  0  0  0  0  0  0
   -6.7256    2.0330   -0.2766 C   0  0  0  0  0  0  0  0  0  0  0  0
   -7.1824    1.1039   -0.9322 O   0  0  0  0  0  0  0  0  0  0  0  0
   -7.5276    2.6077    0.8435 C   0  0  0  0  0  0  0  0  0  0  0  0
   -8.1775    3.4344    0.5145 H   0  0  0  0  0  0  0  0  0  0  0  0
   -8.2057    1.8676    1.2980 H   0  0  0  0  0  0  0  0  0  0  0  0
   -6.9411    3.0162    1.6819 H   0  0  0  0  0  0  0  0  0  0  0  0
   -5.4935    2.6382   -0.4627 N   0  0  0  0  0  0  0  0  0  0  0  0
   -4.5619    2.2388   -1.4845 C   0  0  2  0  0  0  0  0  0  0  0  0
   -3.1535    2.4674   -0.9521 C   0  0  0  0  0  0  0  0  0  0  0  0
   -2.8634    3.3945   -0.1987 O   0  0  0  0  0  0  0  0  0  0  0  0
   -4.7883    3.0138   -2.7732 C   0  0  0  0  0  0  0  0  0  0  0  0
   -5.2337    3.4049    0.1551 H   0  0  0  0  0  0  0  0  0  0  0  0
   -4.7192    1.1682   -1.6549 H   0  0  0  0  0  0  0  0  0  0  0  0
   -4.6352    4.0886   -2.6221 H   0  0  0  0  0  0  0  0  0  0  0  0
   -4.0976    2.6887   -3.5582 H   0  0  0  0  0  0  0  0  0  0  0  0
   -5.8111    2.8719   -3.1387 H   0  0  0  0  0  0  0  0  0  0  0  0
   -2.2466    1.5400   -1.4507 N   0  0  0  0  0  0  0  0  0  0  0  0
   -0.8424    1.5707   -1.1286 C   0  0  2  0  0  0  0  0  0  0  0  0
   -0.4248    3.0177   -0.8746 C   0  0  0  0  0  0  0  0  0  0  0  0
    0.2443    3.6714   -1.6723 O   0  0  0  0  0  0  0  0  0  0  0  0
    0.0133    0.8687   -2.1858 C   0  0  0  0  0  0  0  0  0  0  0  0
   -0.2979   -0.9089   -2.3128 S   0  0  0  0  0  0  0  0  0  0  0  0
   -2.5850    0.7815   -2.0381 H   0  0  0  0  0  0  0  0  0  0  0  0
   -0.7456    1.0270   -0.1806 H   0  0  0  0  0  0  0  0  0  0  0  0
   -0.1641    1.3037   -3.1748 H   0  0  0  0  0  0  0  0  0  0  0  0
    1.0757    0.9996   -1.9531 H   0  0  0  0  0  0  0  0  0  0  0  0
   -0.8657    3.4830    0.3561 N   0  0  0  0  0  0  0  0  0  0  0  0
   -0.5757    4.8142    0.8351 C   0  0  2  0  0  0  0  0  0  0  0  0
   -0.4511    4.7516    2.3517 C   0  0  0  0  0  0  0  0  0  0  0  0
   -1.1191    3.9907    3.0488 O   0  0  0  0  0  0  0  0  0  0  0  0
   -1.6565    5.7998    0.4188 C   0  0  0  0  0  0  0  0  0  0  0  0
   -1.4514    2.8882    0.9349 H   0  0  0  0  0  0  0  0  0  0  0  0
    0.3873    5.1039    0.4006 H   0  0  0  0  0  0  0  0  0  0  0  0
   -2.6287    5.5259    0.8447 H   0  0  0  0  0  0  0  0  0  0  0  0
   -1.4209    6.8138    0.7582 H   0  0  0  0  0  0  0  0  0  0  0  0
   -1.7653    5.8215   -0.6709 H   0  0  0  0  0  0  0  0  0  0  0  0
    0.4627    5.6756    2.8389 N   0  0  0  0  0  0  0  0  0  0  0  0
    0.7279    5.8410    4.2490 C   0  0  0  0  0  0  0  0  0  0  0  0
    1.0009    6.2380    2.1863 H   0  0  0  0  0  0  0  0  0  0  0  0
    0.0755    6.6278    4.6555 H   0  0  0  0  0  0  0  0  0  0  0  0
    0.5302    4.8940    4.7726 H   0  0  0  0  0  0  0  0  0  0  0  0
    1.7803    6.1268    4.3929 H   0  0  0  0  0  0  0  0  0  0  0  0
  1  3  1  0  0  0  0
  1  7  1  0  0  0  0
  1  2  2  0  0  0  0
 23 25  1  0  0  0  0
 23 29  1  0  0  0  0
 23 24  2  0  0  0  0
 50 51  1  0  0  0  0
 51 59  1  0  0  0  0
 51 52  2  0  0  0  0
  8  9  1  0  0  0  0
  9 17  1  0  0  0  0
  9 10  2  0  0  0  0
 30 31  1  0  0  0  0
 31 39  1  0  0  0  0
 31 32  2  0  0  0  0
 40 41  1  0  0  0  0
 41 49  1  0  0  0  0
 41 42  2  0  0  0  0
 50 53  1  0  0  0  0
 30 33  1  0  0  0  0
 59 60  1  0  0  0  0
 17 18  1  0  0  0  0
  8 11  1  0  0  0  0
 11 12  1  0  0  0  0
 40 43  1  0  0  0  0
 43 44  1  0  0  0  0
 49 50  1  0  0  0  0
  7  8  1  0  0  0  0
 29 30  1  0  0  0  0
 39 40  1  0  0  0  0
 12 44  1  0  0  0  0
  3  4  1  0  0  0  0
  3  5  1  0  0  0  0
  3  6  1  0  0  0  0
 25 26  1  0  0  0  0
 25 27  1  0  0  0  0
 25 28  1  0  0  0  0
 53 56  1  0  0  0  0
 53 57  1  0  0  0  0
 53 58  1  0  0  0  0
 33 36  1  0  0  0  0
 33 37  1  0  0  0  0
 33 38  1  0  0  0  0
 60 62  1  0  0  0  0
 60 63  1  0  0  0  0
 60 64  1  0  0  0  0
 18 20  1  0  0  0  0
 18 21  1  0  0  0  0
 18 22  1  0  0  0  0
 11 15  1  0  0  0  0
 11 16  1  0  0  0  0
 43 47  1  0  0  0  0
 43 48  1  0  0  0  0
 50 55  1  0  0  0  0
  8 14  1  0  0  0  0
 30 35  1  0  0  0  0
 40 46  1  0  0  0  0
 59 61  1  0  0  0  0
 17 19  1  0  0  0  0
  7 13  1  0  0  0  0
 29 34  1  0  0  0  0
 49 54  1  0  0  0  0
 39 45  1  0  0  0  0
M  END
$$$$

  -OEChem-05262214473D

 64 63  0     1  0  0  0  0  0999 V2000
    0.2654   -3.9743   -7.1455 C   0  0  0  0  0  0  0  0  0  0  0  0
   -0.8705   -3.8297   -7.5821 O   0  0  0  0  0  0  0  0  0  0  0  0
    0.8756   -5.3364   -7.1183 C   0  0  0  0  0  0  0  0  0  0  0  0
    0.6706   -5.8702   -6.1765 H   0  0  0  0  0  0  0  0  0  0  0  0
    0.4827   -5.9891   -7.9144 H   0  0  0  0  0  0  0  0  0  0  0  0
    1.9708   -5.3646   -7.2349 H   0  0  0  0  0  0  0  0  0  0  0  0
    1.0872   -2.9751   -6.6534 N   0  0  0  0  0  0  0  0  0  0  0  0
    0.6968   -1.5894   -6.5901 C   0  0  2  0  0  0  0  0  0  0  0  0
    1.9231   -0.7176   -6.8529 C   0  0  0  0  0  0  0  0  0  0  0  0
    3.0578   -1.1759   -6.9699 O   0  0  0  0  0  0  0  0  0  0  0  0
   -0.0232   -1.2460   -5.2837 C   0  0  0  0  0  0  0  0  0  0  0  0
    1.0105   -1.4587   -3.7975 S   0  0  0  0  0  0  0  0  0  0  0  0
    2.0135   -3.2319   -6.3195 H   0  0  0  0  0  0  0  0  0  0  0  0
    0.0002   -1.4411   -7.4246 H   0  0  0  0  0  0  0  0  0  0  0  0
   -0.3683   -0.2070   -5.2966 H   0  0  0  0  0  0  0  0  0  0  0  0
   -0.9045   -1.8854   -5.1642 H   0  0  0  0  0  0  0  0  0  0  0  0
    1.6042    0.6314   -6.9164 N   0  0  0  0  0  0  0  0  0  0  0  0
    2.5976    1.6574   -7.1314 C   0  0  0  0  0  0  0  0  0  0  0  0
    0.6322    0.9189   -6.8519 H   0  0  0  0  0  0  0  0  0  0  0  0
    2.9525    2.0341   -6.1608 H   0  0  0  0  0  0  0  0  0  0  0  0
    3.4444    1.2358   -7.6928 H   0  0  0  0  0  0  0  0  0  0  0  0
    2.1527    2.4840   -7.7049 H   0  0  0  0  0  0  0  0  0  0  0  0
   -6.7256    2.0330   -0.2766 C   0  0  0  0  0  0  0  0  0  0  0  0
   -7.1824    1.1039   -0.9322 O   0  0  0  0  0  0  0  0  0  0  0  0
   -7.5276    2.6077    0.8435 C   0  0  0  0  0  0  0  0  0  0  0  0
   -8.1775    3.4344    0.5145 H   0  0  0  0  0  0  0  0  0  0  0  0
   -8.2057    1.8676    1.2980 H   0  0  0  0  0  0  0  0  0  0  0  0
   -6.9411    3.0162    1.6819 H   0  0  0  0  0  0  0  0  0  0  0  0
   -5.4935    2.6382   -0.4627 N   0  0  0  0  0  0  0  0  0  0  0  0
   -4.5619    2.2388   -1.4845 C   0  0  2  0  0  0  0  0  0  0  0  0
   -3.1535    2.4674   -0.9521 C   0  0  0  0  0  0  0  0  0  0  0  0
   -2.8634    3.3945   -0.1987 O   0  0  0  0  0  0  0  0  0  0  0  0
   -4.7883    3.0138   -2.7732 C   0  0  0  0  0  0  0  0  0  0  0  0
   -5.2337    3.4049    0.1551 H   0  0  0  0  0  0  0  0  0  0  0  0
   -4.7192    1.1682   -1.6549 H   0  0  0  0  0  0  0  0  0  0  0  0
   -4.6352    4.0886   -2.6221 H   0  0  0  0  0  0  0  0  0  0  0  0
   -4.0976    2.6887   -3.5582 H   0  0  0  0  0  0  0  0  0  0  0  0
   -5.8111    2.8719   -3.1387 H   0  0  0  0  0  0  0  0  0  0  0  0
   -2.2466    1.5400   -1.4507 N   0  0  0  0  0  0  0  0  0  0  0  0
   -0.8424    1.5707   -1.1286 C   0  0  2  0  0  0  0  0  0  0  0  0
   -0.4248    3.0177   -0.8746 C   0  0  0  0  0  0  0  0  0  0  0  0
    0.0040    3.7560   -1.7591 O   0  0  0  0  0  0  0  0  0  0  0  0
    0.0133    0.8687   -2.1858 C   0  0  0  0  0  0  0  0  0  0  0  0
   -0.2979   -0.9089   -2.3128 S   0  0  0  0  0  0  0  0  0  0  0  0
   -2.5850    0.7815   -2.0381 H   0  0  0  0  0  0  0  0  0  0  0  0
   -0.7456    1.0270   -0.1806 H   0  0  0  0  0  0  0  0  0  0  0  0
   -0.1641    1.3037   -3.1748 H   0  0  0  0  0  0  0  0  0  0  0  0
    1.0757    0.9996   -1.9531 H   0  0  0  0  0  0  0  0  0  0  0  0
   -0.5641    3.3780    0.4582 N   0  0  0  0  0  0  0  0  0  0  0  0
   -0.2105    4.6883    0.9520 C   0  0  2  0  0  0  0  0  0  0  0  0
    0.2865    4.5332    2.3832 C   0  0  0  0  0  0  0  0  0  0  0  0
   -0.1623    3.6947    3.1621 O   0  0  0  0  0  0  0  0  0  0  0  0
   -1.3937    5.6416    0.8879 C   0  0  0  0  0  0  0  0  0  0  0  0
   -0.9680    2.7170    1.1152 H   0  0  0  0  0  0  0  0  0  0  0  0
    0.6050    5.0553    0.3193 H   0  0  0  0  0  0  0  0  0  0  0  0
   -2.2208    5.2904    1.5157 H   0  0  0  0  0  0  0  0  0  0  0  0
   -1.1164    6.6421    1.2358 H   0  0  0  0  0  0  0  0  0  0  0  0
   -1.7687    5.7289   -0.1376 H   0  0  0  0  0  0  0  0  0  0  0  0
    1.2601    5.4695    2.7019 N   0  0  0  0  0  0  0  0  0  0  0  0
    1.8593    5.5558    4.0133 C   0  0  0  0  0  0  0  0  0  0  0  0
    1.6011    6.1005    1.9826 H   0  0  0  0  0  0  0  0  0  0  0  0
    1.3008    6.2795    4.6252 H   0  0  0  0  0  0  0  0  0  0  0  0
    1.8294    4.5677    4.4956 H   0  0  0  0  0  0  0  0  0  0  0  0
    2.9042    5.8858    3.9178 H   0  0  0  0  0  0  0  0  0  0  0  0
  1  3  1  0  0  0  0
  1  7  1  0  0  0  0
  1  2  2  0  0  0  0
 23 25  1  0  0  0  0
 23 29  1  0  0  0  0
 23 24  2  0  0  0  0
 50 51  1  0  0  0  0
 51 59  1  0  0  0  0
 51 52  2  0  0  0  0
  8  9  1  0  0  0  0
  9 17  1  0  0  0  0
  9 10  2  0  0  0  0
 30 31  1  0  0  0  0
 31 39  1  0  0  0  0
 31 32  2  0  0  0  0
 40 41  1  0  0  0  0
 41 49  1  0  0  0  0
 41 42  2  0  0  0  0
 50 53  1  0  0  0  0
 30 33  1  0  0  0  0
 59 60  1  0  0  0  0
 17 18  1  0  0  0  0
  8 11  1  0  0  0  0
 11 12  1  0  0  0  0
 40 43  1  0  0  0  0
 43 44  1  0  0  0  0
 49 50  1  0  0  0  0
  7  8  1  0  0  0  0
 29 30  1  0  0  0  0
 39 40  1  0  0  0  0
 12 44  1  0  0  0  0
  3  4  1  0  0  0  0
  3  5  1  0  0  0  0
  3  6  1  0  0  0  0
 25 26  1  0  0  0  0
 25 27  1  0  0  0  0
 25 28  1  0  0  0  0
 53 56  1  0  0  0  0
 53 57  1  0  0  0  0
 53 58  1  0  0  0  0
 33 36  1  0  0  0  0
 33 37  1  0  0  0  0
 33 38  1  0  0  0  0
 60 62  1  0  0  0  0
 60 63  1  0  0  0  0
 60 64  1  0  0  0  0
 18 20  1  0  0  0  0
 18 21  1  0  0  0  0
 18 22  1  0  0  0  0
 11 15  1  0  0  0  0
 11 16  1  0  0  0  0
 43 47  1  0  0  0  0
 43 48  1  0  0  0  0
 50 55  1  0  0  0  0
  8 14  1  0  0  0  0
 30 35  1  0  0  0  0
 40 46  1  0  0  0  0
 59 61  1  0  0  0  0
 17 19  1  0  0  0  0
  7 13  1  0  0  0  0
 29 34  1  0  0  0  0
 49 54  1  0  0  0  0
 39 45  1  0  0  0  0
M  END
$$$$

  -OEChem-05262214473D

 64 63  0     1  0  0  0  0  0999 V2000
    0.2654   -3.9743   -7.1455 C   0  0  0  0  0  0  0  0  0  0  0  0
   -0.8705   -3.8297   -7.5821 O   0  0  0  0  0  0  0  0  0  0  0  0
    0.8756   -5.3364   -7.1183 C   0  0  0  0  0  0  0  0  0  0  0  0
    0.6706   -5.8702   -6.1765 H   0  0  0  0  0  0  0  0  0  0  0  0
    0.4827   -5.9891   -7.9144 H   0  0  0  0  0  0  0  0  0  0  0  0
    1.9708   -5.3646   -7.2349 H   0  0  0  0  0  0  0  0  0  0  0  0
    1.0872   -2.9751   -6.6534 N   0  0  0  0  0  0  0  0  0  0  0  0
    0.6968   -1.5894   -6.5901 C   0  0  2  0  0  0  0  0  0  0  0  0
    1.9231   -0.7176   -6.8529 C   0  0  0  0  0  0  0  0  0  0  0  0
    3.0578   -1.1759   -6.9699 O   0  0  0  0  0  0  0  0  0  0  0  0
   -0.0232   -1.2460   -5.2837 C   0  0  0  0  0  0  0  0  0  0  0  0
    1.0105   -1.4587   -3.7975 S   0  0  0  0  0  0  0  0  0  0  0  0
    2.0135   -3.2319   -6.3195 H   0  0  0  0  0  0  0  0  0  0  0  0
    0.0002   -1.4411   -7.4246 H   0  0  0  0  0  0  0  0  0  0  0  0
   -0.3683   -0.2070   -5.2966 H   0  0  0  0  0  0  0  0  0  0  0  0
   -0.9045   -1.8854   -5.1642 H   0  0  0  0  0  0  0  0  0  0  0  0
    1.6042    0.6314   -6.9164 N   0  0  0  0  0  0  0  0  0  0  0  0
    2.5976    1.6574   -7.1314 C   0  0  0  0  0  0  0  0  0  0  0  0
    0.6322    0.9189   -6.8519 H   0  0  0  0  0  0  0  0  0  0  0  0
    2.9525    2.0341   -6.1608 H   0  0  0  0  0  0  0  0  0  0  0  0
    3.4444    1.2358   -7.6928 H   0  0  0  0  0  0  0  0  0  0  0  0
    2.1527    2.4840   -7.7049 H   0  0  0  0  0  0  0  0  0  0  0  0
   -6.7256    2.0330   -0.2766 C   0  0  0  0  0  0  0  0  0  0  0  0
   -7.1824    1.1039   -0.9322 O   0  0  0  0  0  0  0  0  0  0  0  0
   -7.5276    2.6077    0.8435 C   0  0  0  0  0  0  0  0  0  0  0  0
   -8.1775    3.4344    0.5145 H   0  0  0  0  0  0  0  0  0  0  0  0
   -8.2057    1.8676    1.2980 H   0  0  0  0  0  0  0  0  0  0  0  0
   -6.9411    3.0162    1.6819 H   0  0  0  0  0  0  0  0  0  0  0  0
   -5.4935    2.6382   -0.4627 N   0  0  0  0  0  0  0  0  0  0  0  0
   -4.5619    2.2388   -1.4845 C   0  0  2  0  0  0  0  0  0  0  0  0
   -3.1535    2.4674   -0.9521 C   0  0  0  0  0  0  0  0  0  0  0  0
   -2.8634    3.3945   -0.1987 O   0  0  0  0  0  0  0  0  0  0  0  0
   -4.7883    3.0138   -2.7732 C   0  0  0  0  0  0  0  0  0  0  0  0
   -5.2337    3.4049    0.1551 H   0  0  0  0  0  0  0  0  0  0  0  0
   -4.7192    1.1682   -1.6549 H   0  0  0  0  0  0  0  0  0  0  0  0
   -4.6352    4.0886   -2.6221 H   0  0  0  0  0  0  0  0  0  0  0  0
   -4.0976    2.6887   -3.5582 H   0  0  0  0  0  0  0  0  0  0  0  0
   -5.8111    2.8719   -3.1387 H   0  0  0  0  0  0  0  0  0  0  0  0
   -2.2466    1.5400   -1.4507 N   0  0  0  0  0  0  0  0  0  0  0  0
   -0.8424    1.5707   -1.1286 C   0  0  2  0  0  0  0  0  0  0  0  0
   -0.4248    3.0177   -0.8746 C   0  0  0  0  0  0  0  0  0  0  0  0
   -0.2530    3.8335   -1.7781 O   0  0  0  0  0  0  0  0  0  0  0  0
    0.0133    0.8687   -2.1858 C   0  0  0  0  0  0  0  0  0  0  0  0
   -0.2979   -0.9089   -2.3128 S   0  0  0  0  0  0  0  0  0  0  0  0
   -2.5850    0.7815   -2.0381 H   0  0  0  0  0  0  0  0  0  0  0  0
   -0.7456    1.0270   -0.1806 H   0  0  0  0  0  0  0  0  0  0  0  0
   -0.1641    1.3037   -3.1748 H   0  0  0  0  0  0  0  0  0  0  0  0
    1.0757    0.9996   -1.9531 H   0  0  0  0  0  0  0  0  0  0  0  0
   -0.2431    3.2823    0.4754 N   0  0  0  0  0  0  0  0  0  0  0  0
    0.1763    4.5741    0.9665 C   0  0  2  0  0  0  0  0  0  0  0  0
    1.0162    4.3518    2.2173 C   0  0  0  0  0  0  0  0  0  0  0  0
    0.8023    3.4420    3.0159 O   0  0  0  0  0  0  0  0  0  0  0  0
   -1.0180    5.4669    1.2653 C   0  0  0  0  0  0  0  0  0  0  0  0
   -0.4496    2.5598    1.1587 H   0  0  0  0  0  0  0  0  0  0  0  0
    0.7974    5.0235    0.1840 H   0  0  0  0  0  0  0  0  0  0  0  0
   -1.6521    5.0330    2.0471 H   0  0  0  0  0  0  0  0  0  0  0  0
   -0.6978    6.4556    1.6103 H   0  0  0  0  0  0  0  0  0  0  0  0
   -1.6372    5.6015    0.3718 H   0  0  0  0  0  0  0  0  0  0  0  0
    2.0057    5.3145    2.3596 N   0  0  0  0  0  0  0  0  0  0  0  0
    2.9065    5.3458    3.4880 C   0  0  0  0  0  0  0  0  0  0  0  0
    2.1368    6.0080    1.6290 H   0  0  0  0  0  0  0  0  0  0  0  0
    2.4919    5.9979    4.2709 H   0  0  0  0  0  0  0  0  0  0  0  0
    3.0305    4.3280    3.8864 H   0  0  0  0  0  0  0  0  0  0  0  0
    3.8837    5.7351    3.1662 H   0  0  0  0  0  0  0  0  0  0  0  0
  1  3  1  0  0  0  0
  1  7  1  0  0  0  0
  1  2  2  0  0  0  0
 23 25  1  0  0  0  0
 23 29  1  0  0  0  0
 23 24  2  0  0  0  0
 50 51  1  0  0  0  0
 51 59  1  0  0  0  0
 51 52  2  0  0  0  0
  8  9  1  0  0  0  0
  9 17  1  0  0  0  0
  9 10  2  0  0  0  0
 30 31  1  0  0  0  0
 31 39  1  0  0  0  0
 31 32  2  0  0  0  0
 40 41  1  0  0  0  0
 41 49  1  0  0  0  0
 41 42  2  0  0  0  0
 50 53  1  0  0  0  0
 30 33  1  0  0  0  0
 59 60  1  0  0  0  0
 17 18  1  0  0  0  0
  8 11  1  0  0  0  0
 11 12  1  0  0  0  0
 40 43  1  0  0  0  0
 43 44  1  0  0  0  0
 49 50  1  0  0  0  0
  7  8  1  0  0  0  0
 29 30  1  0  0  0  0
 39 40  1  0  0  0  0
 12 44  1  0  0  0  0
  3  4  1  0  0  0  0
  3  5  1  0  0  0  0
  3  6  1  0  0  0  0
 25 26  1  0  0  0  0
 25 27  1  0  0  0  0
 25 28  1  0  0  0  0
 53 56  1  0  0  0  0
 53 57  1  0  0  0  0
 53 58  1  0  0  0  0
 33 36  1  0  0  0  0
 33 37  1  0  0  0  0
 33 38  1  0  0  0  0
 60 62  1  0  0  0  0
 60 63  1  0  0  0  0
 60 64  1  0  0  0  0
 18 20  1  0  0  0  0
 18 21  1  0  0  0  0
 18 22  1  0  0  0  0
 11 15  1  0  0  0  0
 11 16  1  0  0  0  0
 43 47  1  0  0  0  0
 43 48  1  0  0  0  0
 50 55  1  0  0  0  0
  8 14  1  0  0  0  0
 30 35  1  0  0  0  0
 40 46  1  0  0  0  0
 59 61  1  0  0  0  0
 17 19  1  0  0  0  0
  7 13  1  0  0  0  0
 29 34  1  0  0  0  0
 49 54  1  0  0  0  0
 39 45  1  0  0  0  0
M  END
$$$$

  -OEChem-05262214473D

 64 63  0     1  0  0  0  0  0999 V2000
    0.2654   -3.9743   -7.1455 C   0  0  0  0  0  0  0  0  0  0  0  0
   -0.8705   -3.8297   -7.5821 O   0  0  0  0  0  0  0  0  0  0  0  0
    0.8756   -5.3364   -7.1183 C   0  0  0  0  0  0  0  0  0  0  0  0
    0.6706   -5.8702   -6.1765 H   0  0  0  0  0  0  0  0  0  0  0  0
    0.4827   -5.9891   -7.9144 H   0  0  0  0  0  0  0  0  0  0  0  0
    1.9708   -5.3646   -7.2349 H   0  0  0  0  0  0  0  0  0  0  0  0
    1.0872   -2.9751   -6.6534 N   0  0  0  0  0  0  0  0  0  0  0  0
    0.6968   -1.5894   -6.5901 C   0  0  2  0  0  0  0  0  0  0  0  0
    1.9231   -0.7176   -6.8529 C   0  0  0  0  0  0  0  0  0  0  0  0
    3.0578   -1.1759   -6.9699 O   0  0  0  0  0  0  0  0  0  0  0  0
   -0.0232   -1.2460   -5.2837 C   0  0  0  0  0  0  0  0  0  0  0  0
    1.0105   -1.4587   -3.7975 S   0  0  0  0  0  0  0  0  0  0  0  0
    2.0135   -3.2319   -6.3195 H   0  0  0  0  0  0  0  0  0  0  0  0
    0.0002   -1.4411   -7.4246 H   0  0  0  0  0  0  0  0  0  0  0  0
   -0.3683   -0.2070   -5.2966 H   0  0  0  0  0  0  0  0  0  0  0  0
   -0.9045   -1.8854   -5.1642 H   0  0  0  0  0  0  0  0  0  0  0  0
    1.6042    0.6314   -6.9164 N   0  0  0  0  0  0  0  0  0  0  0  0
    2.5976    1.6574   -7.1314 C   0  0  0  0  0  0  0  0  0  0  0  0
    0.6322    0.9189   -6.8519 H   0  0  0  0  0  0  0  0  0  0  0  0
    2.9525    2.0341   -6.1608 H   0  0  0  0  0  0  0  0  0  0  0  0
    3.4444    1.2358   -7.6928 H   0  0  0  0  0  0  0  0  0  0  0  0
    2.1527    2.4840   -7.7049 H   0  0  0  0  0  0  0  0  0  0  0  0
   -6.7256    2.0330   -0.2766 C   0  0  0  0  0  0  0  0  0  0  0  0
   -7.1824    1.1039   -0.9322 O   0  0  0  0  0  0  0  0  0  0  0  0
   -7.5276    2.6077    0.8435 C   0  0  0  0  0  0  0  0  0  0  0  0
   -8.1775    3.4344    0.5145 H   0  0  0  0  0  0  0  0  0  0  0  0
   -8.2057    1.8676    1.2980 H   0  0  0  0  0  0  0  0  0  0  0  0
   -6.9411    3.0162    1.6819 H   0  0  0  0  0  0  0  0  0  0  0  0
   -5.4935    2.6382   -0.4627 N   0  0  0  0  0  0  0  0  0  0  0  0
   -4.5619    2.2388   -1.4845 C   0  0  2  0  0  0  0  0  0  0  0  0
   -3.1535    2.4674   -0.9521 C   0  0  0  0  0  0  0  0  0  0  0  0
   -2.8634    3.3945   -0.1987 O   0  0  0  0  0  0  0  0  0  0  0  0
   -4.7883    3.0138   -2.7732 C   0  0  0  0  0  0  0  0  0  0  0  0
   -5.2337    3.4049    0.1551 H   0  0  0  0  0  0  0  0  0  0  0  0
   -4.7192    1.1682   -1.6549 H   0  0  0  0  0  0  0  0  0  0  0  0
   -4.6352    4.0886   -2.6221 H   0  0  0  0  0  0  0  0  0  0  0  0
   -4.0976    2.6887   -3.5582 H   0  0  0  0  0  0  0  0  0  0  0  0
   -5.8111    2.8719   -3.1387 H   0  0  0  0  0  0  0  0  0  0  0  0
   -2.2466    1.5400   -1.4507 N   0  0  0  0  0  0  0  0  0  0  0  0
   -0.8424    1.5707   -1.1286 C   0  0  2  0  0  0  0  0  0  0  0  0
   -0.4248    3.0177   -0.8746 C   0  0  0  0  0  0  0  0  0  0  0  0
   -0.5093    3.8987   -1.7279 O   0  0  0  0  0  0  0  0  0  0  0  0
    0.0133    0.8687   -2.1858 C   0  0  0  0  0  0  0  0  0  0  0  0
   -0.2979   -0.9089   -2.3128 S   0  0  0  0  0  0  0  0  0  0  0  0
   -2.5850    0.7815   -2.0381 H   0  0  0  0  0  0  0  0  0  0  0  0
   -0.7456    1.0270   -0.1806 H   0  0  0  0  0  0  0  0  0  0  0  0
   -0.1641    1.3037   -3.1748 H   0  0  0  0  0  0  0  0  0  0  0  0
    1.0757    0.9996   -1.9531 H   0  0  0  0  0  0  0  0  0  0  0  0
    0.0752    3.2026    0.4066 N   0  0  0  0  0  0  0  0  0  0  0  0
    0.5584    4.4795    0.8775 C   0  0  2  0  0  0  0  0  0  0  0  0
    1.6881    4.2196    1.8653 C   0  0  0  0  0  0  0  0  0  0  0  0
    1.7091    3.2497    2.6203 O   0  0  0  0  0  0  0  0  0  0  0  0
   -0.5551    5.2877    1.5254 C   0  0  0  0  0  0  0  0  0  0  0  0
    0.0686    2.4271    1.0626 H   0  0  0  0  0  0  0  0  0  0  0  0
    0.9515    5.0107    0.0038 H   0  0  0  0  0  0  0  0  0  0  0  0
   -0.9614    4.7713    2.4027 H   0  0  0  0  0  0  0  0  0  0  0  0
   -0.1937    6.2669    1.8563 H   0  0  0  0  0  0  0  0  0  0  0  0
   -1.3798    5.4481    0.8227 H   0  0  0  0  0  0  0  0  0  0  0  0
    2.6485    5.2210    1.8351 N   0  0  0  0  0  0  0  0  0  0  0  0
    3.7984    5.2251    2.7090 C   0  0  0  0  0  0  0  0  0  0  0  0
    2.5715    5.9667    1.1496 H   0  0  0  0  0  0  0  0  0  0  0  0
    3.5677    5.8023    3.6166 H   0  0  0  0  0  0  0  0  0  0  0  0
    4.0515    4.1913    2.9865 H   0  0  0  0  0  0  0  0  0  0  0  0
    4.6520    5.6848    2.1894 H   0  0  0  0  0  0  0  0  0  0  0  0
  1  3  1  0  0  0  0
  1  7  1  0  0  0  0
  1  2  2  0  0  0  0
 23 25  1  0  0  0  0
 23 29  1  0  0  0  0
 23 24  2  0  0  0  0
 50 51  1  0  0  0  0
 51 59  1  0  0  0  0
 51 52  2  0  0  0  0
  8  9  1  0  0  0  0
  9 17  1  0  0  0  0
  9 10  2  0  0  0  0
 30 31  1  0  0  0  0
 31 39  1  0  0  0  0
 31 32  2  0  0  0  0
 40 41  1  0  0  0  0
 41 49  1  0  0  0  0
 41 42  2  0  0  0  0
 50 53  1  0  0  0  0
 30 33  1  0  0  0  0
 59 60  1  0  0  0  0
 17 18  1  0  0  0  0
  8 11  1  0  0  0  0
 11 12  1  0  0  0  0
 40 43  1  0  0  0  0
 43 44  1  0  0  0  0
 49 50  1  0  0  0  0
  7  8  1  0  0  0  0
 29 30  1  0  0  0  0
 39 40  1  0  0  0  0
 12 44  1  0  0  0  0
  3  4  1  0  0  0  0
  3  5  1  0  0  0  0
  3  6  1  0  0  0  0
 25 26  1  0  0  0  0
 25 27  1  0  0  0  0
 25 28  1  0  0  0  0
 53 56  1  0  0  0  0
 53 57  1  0  0  0  0
 53 58  1  0  0  0  0
 33 36  1  0  0  0  0
 33 37  1  0  0  0  0
 33 38  1  0  0  0  0
 60 62  1  0  0  0  0
 60 63  1  0  0  0  0
 60 64  1  0  0  0  0
 18 20  1  0  0  0  0
 18 21  1  0  0  0  0
 18 22  1  0  0  0  0
 11 15  1  0  0  0  0
 11 16  1  0  0  0  0
 43 47  1  0  0  0  0
 43 48  1  0  0  0  0
 50 55  1  0  0  0  0
  8 14  1  0  0  0  0
 30 35  1  0  0  0  0
 40 46  1  0  0  0  0
 59 61  1  0  0  0  0
 17 19  1  0  0  0  0
  7 13  1  0  0  0  0
 29 34  1  0  0  0  0
 49 54  1  0  0  0  0
 39 45  1  0  0  0  0
M  END
$$$$

  -OEChem-05262214473D

 64 63  0     1  0  0  0  0  0999 V2000
    0.2654   -3.9743   -7.1455 C   0  0  0  0  0  0  0  0  0  0  0  0
   -0.8705   -3.8297   -7.5821 O   0  0  0  0  0  0  0  0  0  0  0  0
    0.8756   -5.3364   -7.1183 C   0  0  0  0  0  0  0  0  0  0  0  0
    0.6706   -5.8702   -6.1765 H   0  0  0  0  0  0  0  0  0  0  0  0
    0.4827   -5.9891   -7.9144 H   0  0  0  0  0  0  0  0  0  0  0  0
    1.9708   -5.3646   -7.2349 H   0  0  0  0  0  0  0  0  0  0  0  0
    1.0872   -2.9751   -6.6534 N   0  0  0  0  0  0  0  0  0  0  0  0
    0.6968   -1.5894   -6.5901 C   0  0  2  0  0  0  0  0  0  0  0  0
    1.9231   -0.7176   -6.8529 C   0  0  0  0  0  0  0  0  0  0  0  0
    3.0578   -1.1759   -6.9699 O   0  0  0  0  0  0  0  0  0  0  0  0
   -0.0232   -1.2460   -5.2837 C   0  0  0  0  0  0  0  0  0  0  0  0
    1.0105   -1.4587   -3.7975 S   0  0  0  0  0  0  0  0  0  0  0  0
    2.0135   -3.2319   -6.3195 H   0  0  0  0  0  0  0  0  0  0  0  0
    0.0002   -1.4411   -7.4246 H   0  0  0  0  0  0  0  0  0  0  0  0
   -0.3683   -0.2070   -5.2966 H   0  0  0  0  0  0  0  0  0  0  0  0
   -0.9045   -1.8854   -5.1642 H   0  0  0  0  0  0  0  0  0  0  0  0
    1.6042    0.6314   -6.9164 N   0  0  0  0  0  0  0  0  0  0  0  0
    2.5976    1.6574   -7.1314 C   0  0  0  0  0  0  0  0  0  0  0  0
    0.6322    0.9189   -6.8519 H   0  0  0  0  0  0  0  0  0  0  0  0
    2.9525    2.0341   -6.1608 H   0  0  0  0  0  0  0  0  0  0  0  0
    3.4444    1.2358   -7.6928 H   0  0  0  0  0  0  0  0  0  0  0  0
    2.1527    2.4840   -7.7049 H   0  0  0  0  0  0  0  0  0  0  0  0
   -6.7256    2.0330   -0.2766 C   0  0  0  0  0  0  0  0  0  0  0  0
   -7.1824    1.1039   -0.9322 O   0  0  0  0  0  0  0  0  0  0  0  0
   -7.5276    2.6077    0.8435 C   0  0  0  0  0  0  0  0  0  0  0  0
   -8.1775    3.4344    0.5145 H   0  0  0  0  0  0  0  0  0  0  0  0
   -8.2057    1.8676    1.2980 H   0  0  0  0  0  0  0  0  0  0  0  0
   -6.9411    3.0162    1.6819 H   0  0  0  0  0  0  0  0  0  0  0  0
   -5.4935    2.6382   -0.4627 N   0  0  0  0  0  0  0  0  0  0  0  0
   -4.5619    2.2388   -1.4845 C   0  0  2  0  0  0  0  0  0  0  0  0
   -3.1535    2.4674   -0.9521 C   0  0  0  0  0  0  0  0  0  0  0  0
   -2.8634    3.3945   -0.1987 O   0  0  0  0  0  0  0  0  0  0  0  0
   -4.7883    3.0138   -2.7732 C   0  0  0  0  0  0  0  0  0  0  0  0
   -5.2337    3.4049    0.1551 H   0  0  0  0  0  0  0  0  0  0  0  0
   -4.7192    1.1682   -1.6549 H   0  0  0  0  0  0  0  0  0  0  0  0
   -4.6352    4.0886   -2.6221 H   0  0  0  0  0  0  0  0  0  0  0  0
   -4.0976    2.6887   -3.5582 H   0  0  0  0  0  0  0  0  0  0  0  0
   -5.8111    2.8719   -3.1387 H   0  0  0  0  0  0  0  0  0  0  0  0
   -2.2466    1.5400   -1.4507 N   0  0  0  0  0  0  0  0  0  0  0  0
   -0.8424    1.5707   -1.1286 C   0  0  2  0  0  0  0  0  0  0  0  0
   -0.4248    3.0177   -0.8746 C   0  0  0  0  0  0  0  0  0  0  0  0
   -0.7474    3.9470   -1.6120 O   0  0  0  0  0  0  0  0  0  0  0  0
    0.0133    0.8687   -2.1858 C   0  0  0  0  0  0  0  0  0  0  0  0
   -0.2979   -0.9089   -2.3128 S   0  0  0  0  0  0  0  0  0  0  0  0
   -2.5850    0.7815   -2.0381 H   0  0  0  0  0  0  0  0  0  0  0  0
   -0.7456    1.0270   -0.1806 H   0  0  0  0  0  0  0  0  0  0  0  0
   -0.1641    1.3037   -3.1748 H   0  0  0  0  0  0  0  0  0  0  0  0
    1.0757    0.9996   -1.9531 H   0  0  0  0  0  0  0  0  0  0  0  0
    0.3693    3.1441    0.2563 N   0  0  0  0  0  0  0  0  0  0  0  0
    0.9097    4.4108    0.6912 C   0  0  2  0  0  0  0  0  0  0  0  0
    2.2564    4.1458    1.3512 C   0  0  0  0  0  0  0  0  0  0  0  0
    2.4963    3.1311    2.0022 O   0  0  0  0  0  0  0  0  0  0  0  0
   -0.0364    5.1160    1.6504 C   0  0  0  0  0  0  0  0  0  0  0  0
    0.5512    2.3281    0.8332 H   0  0  0  0  0  0  0  0  0  0  0  0
    1.0566    5.0177   -0.2089 H   0  0  0  0  0  0  0  0  0  0  0  0
   -0.1958    4.5230    2.5584 H   0  0  0  0  0  0  0  0  0  0  0  0
    0.3618    6.0890    1.9568 H   0  0  0  0  0  0  0  0  0  0  0  0
   -1.0140    5.2791    1.1841 H   0  0  0  0  0  0  0  0  0  0  0  0
    3.1449    5.1955    1.1642 N   0  0  0  0  0  0  0  0  0  0  0  0
    4.4740    5.2021    1.7293 C   0  0  0  0  0  0  0  0  0  0  0  0
    2.8756    5.9794    0.5769 H   0  0  0  0  0  0  0  0  0  0  0  0
    4.4548    5.7059    2.7069 H   0  0  0  0  0  0  0  0  0  0  0  0
    4.8230    4.1668    1.8572 H   0  0  0  0  0  0  0  0  0  0  0  0
    5.1568    5.7384    1.0539 H   0  0  0  0  0  0  0  0  0  0  0  0
  1  3  1  0  0  0  0
  1  7  1  0  0  0  0
  1  2  2  0  0  0  0
 23 25  1  0  0  0  0
 23 29  1  0  0  0  0
 23 24  2  0  0  0  0
 50 51  1  0  0  0  0
 51 59  1  0  0  0  0
 51 52  2  0  0  0  0
  8  9  1  0  0  0  0
  9 17  1  0  0  0  0
  9 10  2  0  0  0  0
 30 31  1  0  0  0  0
 31 39  1  0  0  0  0
 31 32  2  0  0  0  0
 40 41  1  0  0  0  0
 41 49  1  0  0  0  0
 41 42  2  0  0  0  0
 50 53  1  0  0  0  0
 30 33  1  0  0  0  0
 59 60  1  0  0  0  0
 17 18  1  0  0  0  0
  8 11  1  0  0  0  0
 11 12  1  0  0  0  0
 40 43  1  0  0  0  0
 43 44  1  0  0  0  0
 49 50  1  0  0  0  0
  7  8  1  0  0  0  0
 29 30  1  0  0  0  0
 39 40  1  0  0  0  0
 12 44  1  0  0  0  0
  3  4  1  0  0  0  0
  3  5  1  0  0  0  0
  3  6  1  0  0  0  0
 25 26  1  0  0  0  0
 25 27  1  0  0  0  0
 25 28  1  0  0  0  0
 53 56  1  0  0  0  0
 53 57  1  0  0  0  0
 53 58  1  0  0  0  0
 33 36  1  0  0  0  0
 33 37  1  0  0  0  0
 33 38  1  0  0  0  0
 60 62  1  0  0  0  0
 60 63  1  0  0  0  0
 60 64  1  0  0  0  0
 18 20  1  0  0  0  0
 18 21  1  0  0  0  0
 18 22  1  0  0  0  0
 11 15  1  0  0  0  0
 11 16  1  0  0  0  0
 43 47  1  0  0  0  0
 43 48  1  0  0  0  0
 50 55  1  0  0  0  0
  8 14  1  0  0  0  0
 30 35  1  0  0  0  0
 40 46  1  0  0  0  0
 59 61  1  0  0  0  0
 17 19  1  0  0  0  0
  7 13  1  0  0  0  0
 29 34  1  0  0  0  0
 49 54  1  0  0  0  0
 39 45  1  0  0  0  0
M  END
$$$$

  -OEChem-05262214473D

 64 63  0     1  0  0  0  0  0999 V2000
    0.2654   -3.9743   -7.1455 C   0  0  0  0  0  0  0  0  0  0  0  0
   -0.8705   -3.8297   -7.5821 O   0  0  0  0  0  0  0  0  0  0  0  0
    0.8756   -5.3364   -7.1183 C   0  0  0  0  0  0  0  0  0  0  0  0
    0.6706   -5.8702   -6.1765 H   0  0  0  0  0  0  0  0  0  0  0  0
    0.4827   -5.9891   -7.9144 H   0  0  0  0  0  0  0  0  0  0  0  0
    1.9708   -5.3646   -7.2349 H   0  0  0  0  0  0  0  0  0  0  0  0
    1.0872   -2.9751   -6.6534 N   0  0  0  0  0  0  0  0  0  0  0  0
    0.6968   -1.5894   -6.5901 C   0  0  2  0  0  0  0  0  0  0  0  0
    1.9231   -0.7176   -6.8529 C   0  0  0  0  0  0  0  0  0  0  0  0
    3.0578   -1.1759   -6.9699 O   0  0  0  0  0  0  0  0  0  0  0  0
   -0.0232   -1.2460   -5.2837 C   0  0  0  0  0  0  0  0  0  0  0  0
    1.0105   -1.4587   -3.7975 S   0  0  0  0  0  0  0  0  0  0  0  0
    2.0135   -3.2319   -6.3195 H   0  0  0  0  0  0  0  0  0  0  0  0
    0.0002   -1.4411   -7.4246 H   0  0  0  0  0  0  0  0  0  0  0  0
   -0.3683   -0.2070   -5.2966 H   0  0  0  0  0  0  0  0  0  0  0  0
   -0.9045   -1.8854   -5.1642 H   0  0  0  0  0  0  0  0  0  0  0  0
    1.6042    0.6314   -6.9164 N   0  0  0  0  0  0  0  0  0  0  0  0
    2.5976    1.6574   -7.1314 C   0  0  0  0  0  0  0  0  0  0  0  0
    0.6322    0.9189   -6.8519 H   0  0  0  0  0  0  0  0  0  0  0  0
    2.9525    2.0341   -6.1608 H   0  0  0  0  0  0  0  0  0  0  0  0
    3.4444    1.2358   -7.6928 H   0  0  0  0  0  0  0  0  0  0  0  0
    2.1527    2.4840   -7.7049 H   0  0  0  0  0  0  0  0  0  0  0  0
   -6.7256    2.0330   -0.2766 C   0  0  0  0  0  0  0  0  0  0  0  0
   -7.1824    1.1039   -0.9322 O   0  0  0  0  0  0  0  0  0  0  0  0
   -7.5276    2.6077    0.8435 C   0  0  0  0  0  0  0  0  0  0  0  0
   -8.1775    3.4344    0.5145 H   0  0  0  0  0  0  0  0  0  0  0  0
   -8.2057    1.8676    1.2980 H   0  0  0  0  0  0  0  0  0  0  0  0
   -6.9411    3.0162    1.6819 H   0  0  0  0  0  0  0  0  0  0  0  0
   -5.4935    2.6382   -0.4627 N   0  0  0  0  0  0  0  0  0  0  0  0
   -4.5619    2.2388   -1.4845 C   0  0  2  0  0  0  0  0  0  0  0  0
   -3.1535    2.4674   -0.9521 C   0  0  0  0  0  0  0  0  0  0  0  0
   -2.8634    3.3945   -0.1987 O   0  0  0  0  0  0  0  0  0  0  0  0
   -4.7883    3.0138   -2.7732 C   0  0  0  0  0  0  0  0  0  0  0  0
   -5.2337    3.4049    0.1551 H   0  0  0  0  0  0  0  0  0  0  0  0
   -4.7192    1.1682   -1.6549 H   0  0  0  0  0  0  0  0  0  0  0  0
   -4.6352    4.0886   -2.6221 H   0  0  0  0  0  0  0  0  0  0  0  0
   -4.0976    2.6887   -3.5582 H   0  0  0  0  0  0  0  0  0  0  0  0
   -5.8111    2.8719   -3.1387 H   0  0  0  0  0  0  0  0  0  0  0  0
   -2.2466    1.5400   -1.4507 N   0  0  0  0  0  0  0  0  0  0  0  0
   -0.8424    1.5707   -1.1286 C   0  0  2  0  0  0  0  0  0  0  0  0
   -0.4248    3.0177   -0.8746 C   0  0  0  0  0  0  0  0  0  0  0  0
   -0.9509    3.9753   -1.4382 O   0  0  0  0  0  0  0  0  0  0  0  0
    0.0133    0.8687   -2.1858 C   0  0  0  0  0  0  0  0  0  0  0  0
   -0.2979   -0.9089   -2.3128 S   0  0  0  0  0  0  0  0  0  0  0  0
   -2.5850    0.7815   -2.0381 H   0  0  0  0  0  0  0  0  0  0  0  0
   -0.7456    1.0270   -0.1806 H   0  0  0  0  0  0  0  0  0  0  0  0
   -0.1641    1.3037   -3.1748 H   0  0  0  0  0  0  0  0  0  0  0  0
    1.0757    0.9996   -1.9531 H   0  0  0  0  0  0  0  0  0  0  0  0
    0.6190    3.1109    0.0350 N   0  0  0  0  0  0  0  0  0  0  0  0
    1.2064    4.3728    0.4202 C   0  0  2  0  0  0  0  0  0  0  0  0
    2.6826    4.1354    0.7101 C   0  0  0  0  0  0  0  0  0  0  0  0
    3.1102    3.0940    1.2038 O   0  0  0  0  0  0  0  0  0  0  0  0
    0.5027    4.9637    1.6319 C   0  0  0  0  0  0  0  0  0  0  0  0
    0.9654    2.2694    0.4863 H   0  0  0  0  0  0  0  0  0  0  0  0
    1.1058    5.0440   -0.4397 H   0  0  0  0  0  0  0  0  0  0  0  0
    0.5926    4.3051    2.5034 H   0  0  0  0  0  0  0  0  0  0  0  0
    0.9306    5.9339    1.9052 H   0  0  0  0  0  0  0  0  0  0  0  0
   -0.5648    5.1061    1.4317 H   0  0  0  0  0  0  0  0  0  0  0  0
    3.4609    5.2397    0.3926 N   0  0  0  0  0  0  0  0  0  0  0  0
    4.8873    5.2783    0.6157 C   0  0  0  0  0  0  0  0  0  0  0  0
    3.0285    6.0453   -0.0499 H   0  0  0  0  0  0  0  0  0  0  0  0
    5.0928    5.7154    1.6040 H   0  0  0  0  0  0  0  0  0  0  0  0
    5.2924    4.2563    0.5755 H   0  0  0  0  0  0  0  0  0  0  0  0
    5.3636    5.8923   -0.1629 H   0  0  0  0  0  0  0  0  0  0  0  0
  1  3  1  0  0  0  0
  1  7  1  0  0  0  0
  1  2  2  0  0  0  0
 23 25  1  0  0  0  0
 23 29  1  0  0  0  0
 23 24  2  0  0  0  0
 50 51  1  0  0  0  0
 51 59  1  0  0  0  0
 51 52  2  0  0  0  0
  8  9  1  0  0  0  0
  9 17  1  0  0  0  0
  9 10  2  0  0  0  0
 30 31  1  0  0  0  0
 31 39  1  0  0  0  0
 31 32  2  0  0  0  0
 40 41  1  0  0  0  0
 41 49  1  0  0  0  0
 41 42  2  0  0  0  0
 50 53  1  0  0  0  0
 30 33  1  0  0  0  0
 59 60  1  0  0  0  0
 17 18  1  0  0  0  0
  8 11  1  0  0  0  0
 11 12  1  0  0  0  0
 40 43  1  0  0  0  0
 43 44  1  0  0  0  0
 49 50  1  0  0  0  0
  7  8  1  0  0  0  0
 29 30  1  0  0  0  0
 39 40  1  0  0  0  0
 12 44  1  0  0  0  0
  3  4  1  0  0  0  0
  3  5  1  0  0  0  0
  3  6  1  0  0  0  0
 25 26  1  0  0  0  0
 25 27  1  0  0  0  0
 25 28  1  0  0  0  0
 53 56  1  0  0  0  0
 53 57  1  0  0  0  0
 53 58  1  0  0  0  0
 33 36  1  0  0  0  0
 33 37  1  0  0  0  0
 33 38  1  0  0  0  0
 60 62  1  0  0  0  0
 60 63  1  0  0  0  0
 60 64  1  0  0  0  0
 18 20  1  0  0  0  0
 18 21  1  0  0  0  0
 18 22  1  0  0  0  0
 11 15  1  0  0  0  0
 11 16  1  0  0  0  0
 43 47  1  0  0  0  0
 43 48  1  0  0  0  0
 50 55  1  0  0  0  0
  8 14  1  0  0  0  0
 30 35  1  0  0  0  0
 40 46  1  0  0  0  0
 59 61  1  0  0  0  0
 17 19  1  0  0  0  0
  7 13  1  0  0  0  0
 29 34  1  0  0  0  0
 49 54  1  0  0  0  0
 39 45  1  0  0  0  0
M  END
$$$$

  -OEChem-05262214473D

 64 63  0     1  0  0  0  0  0999 V2000
    0.2654   -3.9743   -7.1455 C   0  0  0  0  0  0  0  0  0  0  0  0
   -0.8705   -3.8297   -7.5821 O   0  0  0  0  0  0  0  0  0  0  0  0
    0.8756   -5.3364   -7.1183 C   0  0  0  0  0  0  0  0  0  0  0  0
    0.6706   -5.8702   -6.1765 H   0  0  0  0  0  0  0  0  0  0  0  0
    0.4827   -5.9891   -7.9144 H   0  0  0  0  0  0  0  0  0  0  0  0
    1.9708   -5.3646   -7.2349 H   0  0  0  0  0  0  0  0  0  0  0  0
    1.0872   -2.9751   -6.6534 N   0  0  0  0  0  0  0  0  0  0  0  0
    0.6968   -1.5894   -6.5901 C   0  0  2  0  0  0  0  0  0  0  0  0
    1.9231   -0.7176   -6.8529 C   0  0  0  0  0  0  0  0  0  0  0  0
    3.0578   -1.1759   -6.9699 O   0  0  0  0  0  0  0  0  0  0  0  0
   -0.0232   -1.2460   -5.2837 C   0  0  0  0  0  0  0  0  0  0  0  0
    1.0105   -1.4587   -3.7975 S   0  0  0  0  0  0  0  0  0  0  0  0
    2.0135   -3.2319   -6.3195 H   0  0  0  0  0  0  0  0  0  0  0  0
    0.0002   -1.4411   -7.4246 H   0  0  0  0  0  0  0  0  0  0  0  0
   -0.3683   -0.2070   -5.2966 H   0  0  0  0  0  0  0  0  0  0  0  0
   -0.9045   -1.8854   -5.1642 H   0  0  0  0  0  0  0  0  0  0  0  0
    1.6042    0.6314   -6.9164 N   0  0  0  0  0  0  0  0  0  0  0  0
    2.5976    1.6574   -7.1314 C   0  0  0  0  0  0  0  0  0  0  0  0
    0.6322    0.9189   -6.8519 H   0  0  0  0  0  0  0  0  0  0  0  0
    2.9525    2.0341   -6.1608 H   0  0  0  0  0  0  0  0  0  0  0  0
    3.4444    1.2358   -7.6928 H   0  0  0  0  0  0  0  0  0  0  0  0
    2.1527    2.4840   -7.7049 H   0  0  0  0  0  0  0  0  0  0  0  0
   -6.7256    2.0330   -0.2766 C   0  0  0  0  0  0  0  0  0  0  0  0
   -7.1824    1.1039   -0.9322 O   0  0  0  0  0  0  0  0  0  0  0  0
   -7.5276    2.6077    0.8435 C   0  0  0  0  0  0  0  0  0  0  0  0
   -8.1775    3.4344    0.5145 H   0  0  0  0  0  0  0  0  0  0  0  0
   -8.2057    1.8676    1.2980 H   0  0  0  0  0  0  0  0  0  0  0  0
   -6.9411    3.0162    1.6819 H   0  0  0  0  0  0  0  0  0  0  0  0
   -5.4935    2.6382   -0.4627 N   0  0  0  0  0  0  0  0  0  0  0  0
   -4.5619    2.2388   -1.4845 C   0  0  2  0  0  0  0  0  0  0  0  0
   -3.1535    2.4674   -0.9521 C   0  0  0  0  0  0  0  0  0  0  0  0
   -2.8634    3.3945   -0.1987 O   0  0  0  0  0  0  0  0  0  0  0  0
   -4.7883    3.0138   -2.7732 C   0  0  0  0  0  0  0  0  0  0  0  0
   -5.2337    3.4049    0.1551 H   0  0  0  0  0  0  0  0  0  0  0  0
   -4.7192    1.1682   -1.6549 H   0  0  0  0  0  0  0  0  0  0  0  0
   -4.6352    4.0886   -2.6221 H   0  0  0  0  0  0  0  0  0  0  0  0
   -4.0976    2.6887   -3.5582 H   0  0  0  0  0  0  0  0  0  0  0  0
   -5.8111    2.8719   -3.1387 H   0  0  0  0  0  0  0  0  0  0  0  0
   -2.2466    1.5400   -1.4507 N   0  0  0  0  0  0  0  0  0  0  0  0
   -0.8424    1.5707   -1.1286 C   0  0  2  0  0  0  0  0  0  0  0  0
   -0.4248    3.0177   -0.8746 C   0  0  0  0  0  0  0  0  0  0  0  0
   -1.1062    3.9815   -1.2185 O   0  0  0  0  0  0  0  0  0  0  0  0
    0.0133    0.8687   -2.1858 C   0  0  0  0  0  0  0  0  0  0  0  0
   -0.2979   -0.9089   -2.3128 S   0  0  0  0  0  0  0  0  0  0  0  0
   -2.5850    0.7815   -2.0381 H   0  0  0  0  0  0  0  0  0  0  0  0
   -0.7456    1.0270   -0.1806 H   0  0  0  0  0  0  0  0  0  0  0  0
   -0.1641    1.3037   -3.1748 H   0  0  0  0  0  0  0  0  0  0  0  0
    1.0757    0.9996   -1.9531 H   0  0  0  0  0  0  0  0  0  0  0  0
    0.8073    3.1052   -0.2424 N   0  0  0  0  0  0  0  0  0  0  0  0
    1.4281    4.3680    0.0830 C   0  0  2  0  0  0  0  0  0  0  0  0
    2.9374    4.1890   -0.0145 C   0  0  0  0  0  0  0  0  0  0  0  0
    3.5090    3.1412    0.2794 O   0  0  0  0  0  0  0  0  0  0  0  0
    1.0253    4.8411    1.4710 C   0  0  0  0  0  0  0  0  0  0  0  0
    1.2830    2.2552    0.0455 H   0  0  0  0  0  0  0  0  0  0  0  0
    1.0955    5.0879   -0.6728 H   0  0  0  0  0  0  0  0  0  0  0  0
    1.3501    4.1325    2.2416 H   0  0  0  0  0  0  0  0  0  0  0  0
    1.4740    5.8122    1.7048 H   0  0  0  0  0  0  0  0  0  0  0  0
   -0.0627    4.9407    1.5483 H   0  0  0  0  0  0  0  0  0  0  0  0
    3.5751    5.3506   -0.4270 N   0  0  0  0  0  0  0  0  0  0  0  0
    5.0103    5.4484   -0.5560 C   0  0  0  0  0  0  0  0  0  0  0  0
    3.0195    6.1599   -0.6881 H   0  0  0  0  0  0  0  0  0  0  0  0
    5.4382    5.8301    0.3828 H   0  0  0  0  0  0  0  0  0  0  0  0
    5.4276    4.4537   -0.7713 H   0  0  0  0  0  0  0  0  0  0  0  0
    5.2584    6.1359   -1.3780 H   0  0  0  0  0  0  0  0  0  0  0  0
  1  3  1  0  0  0  0
  1  7  1  0  0  0  0
  1  2  2  0  0  0  0
 23 25  1  0  0  0  0
 23 29  1  0  0  0  0
 23 24  2  0  0  0  0
 50 51  1  0  0  0  0
 51 59  1  0  0  0  0
 51 52  2  0  0  0  0
  8  9  1  0  0  0  0
  9 17  1  0  0  0  0
  9 10  2  0  0  0  0
 30 31  1  0  0  0  0
 31 39  1  0  0  0  0
 31 32  2  0  0  0  0
 40 41  1  0  0  0  0
 41 49  1  0  0  0  0
 41 42  2  0  0  0  0
 50 53  1  0  0  0  0
 30 33  1  0  0  0  0
 59 60  1  0  0  0  0
 17 18  1  0  0  0  0
  8 11  1  0  0  0  0
 11 12  1  0  0  0  0
 40 43  1  0  0  0  0
 43 44  1  0  0  0  0
 49 50  1  0  0  0  0
  7  8  1  0  0  0  0
 29 30  1  0  0  0  0
 39 40  1  0  0  0  0
 12 44  1  0  0  0  0
  3  4  1  0  0  0  0
  3  5  1  0  0  0  0
  3  6  1  0  0  0  0
 25 26  1  0  0  0  0
 25 27  1  0  0  0  0
 25 28  1  0  0  0  0
 53 56  1  0  0  0  0
 53 57  1  0  0  0  0
 53 58  1  0  0  0  0
 33 36  1  0  0  0  0
 33 37  1  0  0  0  0
 33 38  1  0  0  0  0
 60 62  1  0  0  0  0
 60 63  1  0  0  0  0
 60 64  1  0  0  0  0
 18 20  1  0  0  0  0
 18 21  1  0  0  0  0
 18 22  1  0  0  0  0
 11 15  1  0  0  0  0
 11 16  1  0  0  0  0
 43 47  1  0  0  0  0
 43 48  1  0  0  0  0
 50 55  1  0  0  0  0
  8 14  1  0  0  0  0
 30 35  1  0  0  0  0
 40 46  1  0  0  0  0
 59 61  1  0  0  0  0
 17 19  1  0  0  0  0
  7 13  1  0  0  0  0
 29 34  1  0  0  0  0
 49 54  1  0  0  0  0
 39 45  1  0  0  0  0
M  END
$$$$

  -OEChem-05262214473D

 64 63  0     1  0  0  0  0  0999 V2000
    0.5026   -2.2040   -8.3480 C   0  0  0  0  0  0  0  0  0  0  0  0
   -0.6453   -2.0208   -8.7362 O   0  0  0  0  0  0  0  0  0  0  0  0
    1.1899   -3.4908   -8.6643 C   0  0  0  0  0  0  0  0  0  0  0  0
    1.0280   -4.2559   -7.8881 H   0  0  0  0  0  0  0  0  0  0  0  0
    0.8247   -3.9436   -9.6001 H   0  0  0  0  0  0  0  0  0  0  0  0
    2.2833   -3.4245   -8.7822 H   0  0  0  0  0  0  0  0  0  0  0  0
    1.2722   -1.3147   -7.6181 N   0  0  0  0  0  0  0  0  0  0  0  0
    0.8041   -0.0150   -7.2079 C   0  0  2  0  0  0  0  0  0  0  0  0
    1.9751    0.9651   -7.2398 C   0  0  0  0  0  0  0  0  0  0  0  0
    3.1325    0.6183   -7.4665 O   0  0  0  0  0  0  0  0  0  0  0  0
    0.0826   -0.0548   -5.8585 C   0  0  0  0  0  0  0  0  0  0  0  0
    1.1459   -0.5743   -4.4721 S   0  0  0  0  0  0  0  0  0  0  0  0
    2.2159   -1.5927   -7.3581 H   0  0  0  0  0  0  0  0  0  0  0  0
    0.0894    0.2978   -7.9792 H   0  0  0  0  0  0  0  0  0  0  0  0
   -0.3214    0.9318   -5.6095 H   0  0  0  0  0  0  0  0  0  0  0  0
   -0.7591   -0.7542   -5.9059 H   0  0  0  0  0  0  0  0  0  0  0  0
    1.5788    2.2655   -6.9614 N   0  0  0  0  0  0  0  0  0  0  0  0
    2.5091    3.3689   -6.9086 C   0  0  0  0  0  0  0  0  0  0  0  0
    0.5929    2.4700   -6.8283 H   0  0  0  0  0  0  0  0  0  0  0  0
    2.8544    3.5089   -5.8737 H   0  0  0  0  0  0  0  0  0  0  0  0
    3.3713    3.1527   -7.5566 H   0  0  0  0  0  0  0  0  0  0  0  0
    2.0103    4.2858   -7.2558 H   0  0  0  0  0  0  0  0  0  0  0  0
   -6.7256    2.0330   -0.2766 C   0  0  0  0  0  0  0  0  0  0  0  0
   -7.1824    1.1039   -0.9322 O   0  0  0  0  0  0  0  0  0  0  0  0
   -7.5276    2.6077    0.8435 C   0  0  0  0  0  0  0  0  0  0  0  0
   -8.1775    3.4344    0.5145 H   0  0  0  0  0  0  0  0  0  0  0  0
   -8.2057    1.8676    1.2980 H   0  0  0  0  0  0  0  0  0  0  0  0
   -6.9411    3.0162    1.6819 H   0  0  0  0  0  0  0  0  0  0  0  0
   -5.4935    2.6382   -0.4627 N   0  0  0  0  0  0  0  0  0  0  0  0
   -4.5619    2.2388   -1.4845 C   0  0  2  0  0  0  0  0  0  0  0  0
   -3.1535    2.4674   -0.9521 C   0  0  0  0  0  0  0  0  0  0  0  0
   -2.8634    3.3945   -0.1987 O   0  0  0  0  0  0  0  0  0  0  0  0
   -4.7883    3.0138   -2.7732 C   0  0  0  0  0  0  0  0  0  0  0  0
   -5.2337    3.4049    0.1551 H   0  0  0  0  0  0  0  0  0  0  0  0
   -4.7192    1.1682   -1.6549 H   0  0  0  0  0  0  0  0  0  0  0  0
   -4.6352    4.0886   -2.6221 H   0  0  0  0  0  0  0  0  0  0  0  0
   -4.0976    2.6887   -3.5582 H   0  0  0  0  0  0  0  0  0  0  0  0
   -5.8111    2.8719   -3.1387 H   0  0  0  0  0  0  0  0  0  0  0  0
   -2.2466    1.5400   -1.4507 N   0  0  0  0  0  0  0  0  0  0  0  0
   -0.8424    1.5707   -1.1286 C   0  0  2  0  0  0  0  0  0  0  0  0
   -0.5050    2.9289   -0.5168 C   0  0  0  0  0  0  0  0  0  0  0  0
   -1.3367    3.8221   -0.3693 O   0  0  0  0  0  0  0  0  0  0  0  0
    0.0383    1.2092   -2.3271 C   0  0  0  0  0  0  0  0  0  0  0  0
   -0.1725   -0.4941   -2.8992 S   0  0  0  0  0  0  0  0  0  0  0  0
   -2.5850    0.7815   -2.0381 H   0  0  0  0  0  0  0  0  0  0  0  0
   -0.7024    0.8122   -0.3483 H   0  0  0  0  0  0  0  0  0  0  0  0
   -0.1765    1.8682   -3.1746 H   0  0  0  0  0  0  0  0  0  0  0  0
    1.0943    1.3392   -2.0669 H   0  0  0  0  0  0  0  0  0  0  0  0
    0.8369    3.0336   -0.1792 N   0  0  0  0  0  0  0  0  0  0  0  0
    1.4049    4.2317    0.3935 C   0  0  2  0  0  0  0  0  0  0  0  0
    2.8454    4.3456   -0.0876 C   0  0  0  0  0  0  0  0  0  0  0  0
    3.5661    3.3695   -0.2843 O   0  0  0  0  0  0  0  0  0  0  0  0
    1.3398    4.2035    1.9126 C   0  0  0  0  0  0  0  0  0  0  0  0
    1.4461    2.2293   -0.2959 H   0  0  0  0  0  0  0  0  0  0  0  0
    0.8221    5.0744    0.0060 H   0  0  0  0  0  0  0  0  0  0  0  0
    1.9180    3.3657    2.3191 H   0  0  0  0  0  0  0  0  0  0  0  0
    1.7447    5.1248    2.3442 H   0  0  0  0  0  0  0  0  0  0  0  0
    0.3058    4.0915    2.2563 H   0  0  0  0  0  0  0  0  0  0  0  0
    3.2450    5.6671   -0.2301 N   0  0  0  0  0  0  0  0  0  0  0  0
    4.5811    6.0383   -0.6339 C   0  0  0  0  0  0  0  0  0  0  0  0
    2.5698    6.4118   -0.0845 H   0  0  0  0  0  0  0  0  0  0  0  0
    5.2043    6.1950    0.2589 H   0  0  0  0  0  0  0  0  0  0  0  0
    5.0151    5.2350   -1.2474 H   0  0  0  0  0  0  0  0  0  0  0  0
    4.5417    6.9676   -1.2211 H   0  0  0  0  0  0  0  0  0  0  0  0
  1  3  1  0  0  0  0
  1  7  1  0  0  0  0
  1  2  2  0  0  0  0
 23 25  1  0  0  0  0
 23 29  1  0  0  0  0
 23 24  2  0  0  0  0
 50 51  1  0  0  0  0
 51 59  1  0  0  0  0
 51 52  2  0  0  0  0
  8  9  1  0  0  0  0
  9 17  1  0  0  0  0
  9 10  2  0  0  0  0
 30 31  1  0  0  0  0
 31 39  1  0  0  0  0
 31 32  2  0  0  0  0
 40 41  1  0  0  0  0
 41 49  1  0  0  0  0
 41 42  2  0  0  0  0
 50 53  1  0  0  0  0
 30 33  1  0  0  0  0
 59 60  1  0  0  0  0
 17 18  1  0  0  0  0
  8 11  1  0  0  0  0
 11 12  1  0  0  0  0
 40 43  1  0  0  0  0
 43 44  1  0  0  0  0
 49 50  1  0  0  0  0
  7  8  1  0  0  0  0
 29 30  1  0  0  0  0
 39 40  1  0  0  0  0
 12 44  1  0  0  0  0
  3  4  1  0  0  0  0
  3  5  1  0  0  0  0
  3  6  1  0  0  0  0
 25 26  1  0  0  0  0
 25 27  1  0  0  0  0
 25 28  1  0  0  0  0
 53 56  1  0  0  0  0
 53 57  1  0  0  0  0
 53 58  1  0  0  0  0
 33 36  1  0  0  0  0
 33 37  1  0  0  0  0
 33 38  1  0  0  0  0
 60 62  1  0  0  0  0
 60 63  1  0  0  0  0
 60 64  1  0  0  0  0
 18 20  1  0  0  0  0
 18 21  1  0  0  0  0
 18 22  1  0  0  0  0
 11 15  1  0  0  0  0
 11 16  1  0  0  0  0
 43 47  1  0  0  0  0
 43 48  1  0  0  0  0
 50 55  1  0  0  0  0
  8 14  1  0  0  0  0
 30 35  1  0  0  0  0
 40 46  1  0  0  0  0
 59 61  1  0  0  0  0
 17 19  1  0  0  0  0
  7 13  1  0  0  0  0
 29 34  1  0  0  0  0
 49 54  1  0  0  0  0
 39 45  1  0  0  0  0
M  END
$$$$

  -OEChem-05262214473D

 64 63  0     1  0  0  0  0  0999 V2000
    0.5026   -2.2040   -8.3480 C   0  0  0  0  0  0  0  0  0  0  0  0
   -0.6453   -2.0208   -8.7362 O   0  0  0  0  0  0  0  0  0  0  0  0
    1.1899   -3.4908   -8.6643 C   0  0  0  0  0  0  0  0  0  0  0  0
    1.0280   -4.2559   -7.8881 H   0  0  0  0  0  0  0  0  0  0  0  0
    0.8247   -3.9436   -9.6001 H   0  0  0  0  0  0  0  0  0  0  0  0
    2.2833   -3.4245   -8.7822 H   0  0  0  0  0  0  0  0  0  0  0  0
    1.2722   -1.3147   -7.6181 N   0  0  0  0  0  0  0  0  0  0  0  0
    0.8041   -0.0150   -7.2079 C   0  0  2  0  0  0  0  0  0  0  0  0
    1.9751    0.9651   -7.2398 C   0  0  0  0  0  0  0  0  0  0  0  0
    3.1325    0.6183   -7.4665 O   0  0  0  0  0  0  0  0  0  0  0  0
    0.0826   -0.0548   -5.8585 C   0  0  0  0  0  0  0  0  0  0  0  0
    1.1459   -0.5743   -4.4721 S   0  0  0  0  0  0  0  0  0  0  0  0
    2.2159   -1.5927   -7.3581 H   0  0  0  0  0  0  0  0  0  0  0  0
    0.0894    0.2978   -7.9792 H   0  0  0  0  0  0  0  0  0  0  0  0
   -0.3214    0.9318   -5.6095 H   0  0  0  0  0  0  0  0  0  0  0  0
   -0.7591   -0.7542   -5.9059 H   0  0  0  0  0  0  0  0  0  0  0  0
    1.5788    2.2655   -6.9614 N   0  0  0  0  0  0  0  0  0  0  0  0
    2.5091    3.3689   -6.9086 C   0  0  0  0  0  0  0  0  0  0  0  0
    0.5929    2.4700   -6.8283 H   0  0  0  0  0  0  0  0  0  0  0  0
    2.8544    3.5089   -5.8737 H   0  0  0  0  0  0  0  0  0  0  0  0
    3.3713    3.1527   -7.5566 H   0  0  0  0  0  0  0  0  0  0  0  0
    2.0103    4.2858   -7.2558 H   0  0  0  0  0  0  0  0  0  0  0  0
   -6.7256    2.0330   -0.2766 C   0  0  0  0  0  0  0  0  0  0  0  0
   -7.1824    1.1039   -0.9322 O   0  0  0  0  0  0  0  0  0  0  0  0
   -7.5276    2.6077    0.8435 C   0  0  0  0  0  0  0  0  0  0  0  0
   -8.1775    3.4344    0.5145 H   0  0  0  0  0  0  0  0  0  0  0  0
   -8.2057    1.8676    1.2980 H   0  0  0  0  0  0  0  0  0  0  0  0
   -6.9411    3.0162    1.6819 H   0  0  0  0  0  0  0  0  0  0  0  0
   -5.4935    2.6382   -0.4627 N   0  0  0  0  0  0  0  0  0  0  0  0
   -4.5619    2.2388   -1.4845 C   0  0  2  0  0  0  0  0  0  0  0  0
   -3.1535    2.4674   -0.9521 C   0  0  0  0  0  0  0  0  0  0  0  0
   -2.8634    3.3945   -0.1987 O   0  0  0  0  0  0  0  0  0  0  0  0
   -4.7883    3.0138   -2.7732 C   0  0  0  0  0  0  0  0  0  0  0  0
   -5.2337    3.4049    0.1551 H   0  0  0  0  0  0  0  0  0  0  0  0
   -4.7192    1.1682   -1.6549 H   0  0  0  0  0  0  0  0  0  0  0  0
   -4.6352    4.0886   -2.6221 H   0  0  0  0  0  0  0  0  0  0  0  0
   -4.0976    2.6887   -3.5582 H   0  0  0  0  0  0  0  0  0  0  0  0
   -5.8111    2.8719   -3.1387 H   0  0  0  0  0  0  0  0  0  0  0  0
   -2.2466    1.5400   -1.4507 N   0  0  0  0  0  0  0  0  0  0  0  0
   -0.8424    1.5707   -1.1286 C   0  0  2  0  0  0  0  0  0  0  0  0
   -0.5050    2.9289   -0.5168 C   0  0  0  0  0  0  0  0  0  0  0  0
   -1.3619    3.7173   -0.1226 O   0  0  0  0  0  0  0  0  0  0  0  0
    0.0383    1.2092   -2.3271 C   0  0  0  0  0  0  0  0  0  0  0  0
   -0.1725   -0.4941   -2.8992 S   0  0  0  0  0  0  0  0  0  0  0  0
   -2.5850    0.7815   -2.0381 H   0  0  0  0  0  0  0  0  0  0  0  0
   -0.7024    0.8122   -0.3483 H   0  0  0  0  0  0  0  0  0  0  0  0
   -0.1765    1.8682   -3.1746 H   0  0  0  0  0  0  0  0  0  0  0  0
    1.0943    1.3392   -2.0669 H   0  0  0  0  0  0  0  0  0  0  0  0
    0.8620    3.1658   -0.4864 N   0  0  0  0  0  0  0  0  0  0  0  0
    1.4289    4.3921    0.0239 C   0  0  2  0  0  0  0  0  0  0  0  0
    2.6995    4.6859   -0.7627 C   0  0  0  0  0  0  0  0  0  0  0  0
    3.4457    3.8051   -1.1851 O   0  0  0  0  0  0  0  0  0  0  0  0
    1.7229    4.2885    1.5124 C   0  0  0  0  0  0  0  0  0  0  0  0
    1.5022    2.4396   -0.7938 H   0  0  0  0  0  0  0  0  0  0  0  0
    0.6929    5.1820   -0.1617 H   0  0  0  0  0  0  0  0  0  0  0  0
    2.4583    3.5022    1.7179 H   0  0  0  0  0  0  0  0  0  0  0  0
    2.1260    5.2285    1.9036 H   0  0  0  0  0  0  0  0  0  0  0  0
    0.8134    4.0478    2.0734 H   0  0  0  0  0  0  0  0  0  0  0  0
    2.9248    6.0485   -0.9003 N   0  0  0  0  0  0  0  0  0  0  0  0
    4.0875    6.5827   -1.5702 C   0  0  0  0  0  0  0  0  0  0  0  0
    2.2332    6.7068   -0.5538 H   0  0  0  0  0  0  0  0  0  0  0  0
    4.8834    6.7668   -0.8337 H   0  0  0  0  0  0  0  0  0  0  0  0
    4.4422    5.8607   -2.3205 H   0  0  0  0  0  0  0  0  0  0  0  0
    3.8223    7.5275   -2.0673 H   0  0  0  0  0  0  0  0  0  0  0  0
  1  3  1  0  0  0  0
  1  7  1  0  0  0  0
  1  2  2  0  0  0  0
 23 25  1  0  0  0  0
 23 29  1  0  0  0  0
 23 24  2  0  0  0  0
 50 51  1  0  0  0  0
 51 59  1  0  0  0  0
 51 52  2  0  0  0  0
  8  9  1  0  0  0  0
  9 17  1  0  0  0  0
  9 10  2  0  0  0  0
 30 31  1  0  0  0  0
 31 39  1  0  0  0  0
 31 32  2  0  0  0  0
 40 41  1  0  0  0  0
 41 49  1  0  0  0  0
 41 42  2  0  0  0  0
 50 53  1  0  0  0  0
 30 33  1  0  0  0  0
 59 60  1  0  0  0  0
 17 18  1  0  0  0  0
  8 11  1  0  0  0  0
 11 12  1  0  0  0  0
 40 43  1  0  0  0  0
 43 44  1  0  0  0  0
 49 50  1  0  0  0  0
  7  8  1  0  0  0  0
 29 30  1  0  0  0  0
 39 40  1  0  0  0  0
 12 44  1  0  0  0  0
  3  4  1  0  0  0  0
  3  5  1  0  0  0  0
  3  6  1  0  0  0  0
 25 26  1  0  0  0  0
 25 27  1  0  0  0  0
 25 28  1  0  0  0  0
 53 56  1  0  0  0  0
 53 57  1  0  0  0  0
 53 58  1  0  0  0  0
 33 36  1  0  0  0  0
 33 37  1  0  0  0  0
 33 38  1  0  0  0  0
 60 62  1  0  0  0  0
 60 63  1  0  0  0  0
 60 64  1  0  0  0  0
 18 20  1  0  0  0  0
 18 21  1  0  0  0  0
 18 22  1  0  0  0  0
 11 15  1  0  0  0  0
 11 16  1  0  0  0  0
 43 47  1  0  0  0  0
 43 48  1  0  0  0  0
 50 55  1  0  0  0  0
  8 14  1  0  0  0  0
 30 35  1  0  0  0  0
 40 46  1  0  0  0  0
 59 61  1  0  0  0  0
 17 19  1  0  0  0  0
  7 13  1  0  0  0  0
 29 34  1  0  0  0  0
 49 54  1  0  0  0  0
 39 45  1  0  0  0  0
M  END
$$$$

  -OEChem-05262214473D

 64 63  0     1  0  0  0  0  0999 V2000
    0.5026   -2.2040   -8.3480 C   0  0  0  0  0  0  0  0  0  0  0  0
   -0.6453   -2.0208   -8.7362 O   0  0  0  0  0  0  0  0  0  0  0  0
    1.1899   -3.4908   -8.6643 C   0  0  0  0  0  0  0  0  0  0  0  0
    1.0280   -4.2559   -7.8881 H   0  0  0  0  0  0  0  0  0  0  0  0
    0.8247   -3.9436   -9.6001 H   0  0  0  0  0  0  0  0  0  0  0  0
    2.2833   -3.4245   -8.7822 H   0  0  0  0  0  0  0  0  0  0  0  0
    1.2722   -1.3147   -7.6181 N   0  0  0  0  0  0  0  0  0  0  0  0
    0.8041   -0.0150   -7.2079 C   0  0  2  0  0  0  0  0  0  0  0  0
    1.9751    0.9651   -7.2398 C   0  0  0  0  0  0  0  0  0  0  0  0
    3.1325    0.6183   -7.4665 O   0  0  0  0  0  0  0  0  0  0  0  0
    0.0826   -0.0548   -5.8585 C   0  0  0  0  0  0  0  0  0  0  0  0
    1.1459   -0.5743   -4.4721 S   0  0  0  0  0  0  0  0  0  0  0  0
    2.2159   -1.5927   -7.3581 H   0  0  0  0  0  0  0  0  0  0  0  0
    0.0894    0.2978   -7.9792 H   0  0  0  0  0  0  0  0  0  0  0  0
   -0.3214    0.9318   -5.6095 H   0  0  0  0  0  0  0  0  0  0  0  0
   -0.7591   -0.7542   -5.9059 H   0  0  0  0  0  0  0  0  0  0  0  0
    1.5788    2.2655   -6.9614 N   0  0  0  0  0  0  0  0  0  0  0  0
    2.5091    3.3689   -6.9086 C   0  0  0  0  0  0  0  0  0  0  0  0
    0.5929    2.4700   -6.8283 H   0  0  0  0  0  0  0  0  0  0  0  0
    2.8544    3.5089   -5.8737 H   0  0  0  0  0  0  0  0  0  0  0  0
    3.3713    3.1527   -7.5566 H   0  0  0  0  0  0  0  0  0  0  0  0
    2.0103    4.2858   -7.2558 H   0  0  0  0  0  0  0  0  0  0  0  0
   -6.7256    2.0330   -0.2766 C   0  0  0  0  0  0  0  0  0  0  0  0
   -7.1824    1.1039   -0.9322 O   0  0  0  0  0  0  0  0  0  0  0  0
   -7.5276    2.6077    0.8435 C   0  0  0  0  0  0  0  0  0  0  0  0
   -8.1775    3.4344    0.5145 H   0  0  0  0  0  0  0  0  0  0  0  0
   -8.2057    1.8676    1.2980 H   0  0  0  0  0  0  0  0  0  0  0  0
   -6.9411    3.0162    1.6819 H   0  0  0  0  0  0  0  0  0  0  0  0
   -5.4935    2.6382   -0.4627 N   0  0  0  0  0  0  0  0  0  0  0  0
   -4.5619    2.2388   -1.4845 C   0  0  2  0  0  0  0  0  0  0  0  0
   -3.1535    2.4674   -0.9521 C   0  0  0  0  0  0  0  0  0  0  0  0
   -2.8634    3.3945   -0.1987 O   0  0  0  0  0  0  0  0  0  0  0  0
   -4.7883    3.0138   -2.7732 C   0  0  0  0  0  0  0  0  0  0  0  0
   -5.2337    3.4049    0.1551 H   0  0  0  0  0  0  0  0  0  0  0  0
   -4.7192    1.1682   -1.6549 H   0  0  0  0  0  0  0  0  0  0  0  0
   -4.6352    4.0886   -2.6221 H   0  0  0  0  0  0  0  0  0  0  0  0
   -4.0976    2.6887   -3.5582 H   0  0  0  0  0  0  0  0  0  0  0  0
   -5.8111    2.8719   -3.1387 H   0  0  0  0  0  0  0  0  0  0  0  0
   -2.2466    1.5400   -1.4507 N   0  0  0  0  0  0  0  0  0  0  0  0
   -0.8424    1.5707   -1.1286 C   0  0  2  0  0  0  0  0  0  0  0  0
   -0.5050    2.9289   -0.5168 C   0  0  0  0  0  0  0  0  0  0  0  0
   -1.3187    3.5993    0.1154 O   0  0  0  0  0  0  0  0  0  0  0  0
    0.0383    1.2092   -2.3271 C   0  0  0  0  0  0  0  0  0  0  0  0
   -0.1725   -0.4941   -2.8992 S   0  0  0  0  0  0  0  0  0  0  0  0
   -2.5850    0.7815   -2.0381 H   0  0  0  0  0  0  0  0  0  0  0  0
   -0.7024    0.8122   -0.3483 H   0  0  0  0  0  0  0  0  0  0  0  0
   -0.1765    1.8682   -3.1746 H   0  0  0  0  0  0  0  0  0  0  0  0
    1.0943    1.3392   -2.0669 H   0  0  0  0  0  0  0  0  0  0  0  0
    0.8018    3.3136   -0.7813 N   0  0  0  0  0  0  0  0  0  0  0  0
    1.3504    4.5708   -0.3294 C   0  0  2  0  0  0  0  0  0  0  0  0
    2.3679    5.0381   -1.3617 C   0  0  0  0  0  0  0  0  0  0  0  0
    3.0768    4.2650   -2.0026 O   0  0  0  0  0  0  0  0  0  0  0  0
    1.9920    4.4333    1.0426 C   0  0  0  0  0  0  0  0  0  0  0  0
    1.4200    2.6771   -1.2757 H   0  0  0  0  0  0  0  0  0  0  0  0
    0.5184    5.2822   -0.2877 H   0  0  0  0  0  0  0  0  0  0  0  0
    2.8278    3.7245    1.0206 H   0  0  0  0  0  0  0  0  0  0  0  0
    2.3821    5.3934    1.3962 H   0  0  0  0  0  0  0  0  0  0  0  0
    1.2662    4.0686    1.7774 H   0  0  0  0  0  0  0  0  0  0  0  0
    2.4217    6.4220   -1.4521 N   0  0  0  0  0  0  0  0  0  0  0  0
    3.3387    7.1109   -2.3299 C   0  0  0  0  0  0  0  0  0  0  0  0
    1.7695    6.9837   -0.9128 H   0  0  0  0  0  0  0  0  0  0  0  0
    4.2627    7.3484   -1.7825 H   0  0  0  0  0  0  0  0  0  0  0  0
    3.5770    6.4670   -3.1893 H   0  0  0  0  0  0  0  0  0  0  0  0
    2.8746    8.0421   -2.6870 H   0  0  0  0  0  0  0  0  0  0  0  0
  1  3  1  0  0  0  0
  1  7  1  0  0  0  0
  1  2  2  0  0  0  0
 23 25  1  0  0  0  0
 23 29  1  0  0  0  0
 23 24  2  0  0  0  0
 50 51  1  0  0  0  0
 51 59  1  0  0  0  0
 51 52  2  0  0  0  0
  8  9  1  0  0  0  0
  9 17  1  0  0  0  0
  9 10  2  0  0  0  0
 30 31  1  0  0  0  0
 31 39  1  0  0  0  0
 31 32  2  0  0  0  0
 40 41  1  0  0  0  0
 41 49  1  0  0  0  0
 41 42  2  0  0  0  0
 50 53  1  0  0  0  0
 30 33  1  0  0  0  0
 59 60  1  0  0  0  0
 17 18  1  0  0  0  0
  8 11  1  0  0  0  0
 11 12  1  0  0  0  0
 40 43  1  0  0  0  0
 43 44  1  0  0  0  0
 49 50  1  0  0  0  0
  7  8  1  0  0  0  0
 29 30  1  0  0  0  0
 39 40  1  0  0  0  0
 12 44  1  0  0  0  0
  3  4  1  0  0  0  0
  3  5  1  0  0  0  0
  3  6  1  0  0  0  0
 25 26  1  0  0  0  0
 25 27  1  0  0  0  0
 25 28  1  0  0  0  0
 53 56  1  0  0  0  0
 53 57  1  0  0  0  0
 53 58  1  0  0  0  0
 33 36  1  0  0  0  0
 33 37  1  0  0  0  0
 33 38  1  0  0  0  0
 60 62  1  0  0  0  0
 60 63  1  0  0  0  0
 60 64  1  0  0  0  0
 18 20  1  0  0  0  0
 18 21  1  0  0  0  0
 18 22  1  0  0  0  0
 11 15  1  0  0  0  0
 11 16  1  0  0  0  0
 43 47  1  0  0  0  0
 43 48  1  0  0  0  0
 50 55  1  0  0  0  0
  8 14  1  0  0  0  0
 30 35  1  0  0  0  0
 40 46  1  0  0  0  0
 59 61  1  0  0  0  0
 17 19  1  0  0  0  0
  7 13  1  0  0  0  0
 29 34  1  0  0  0  0
 49 54  1  0  0  0  0
 39 45  1  0  0  0  0
M  END
$$$$

  -OEChem-05262214473D

 64 63  0     1  0  0  0  0  0999 V2000
    0.5026   -2.2040   -8.3480 C   0  0  0  0  0  0  0  0  0  0  0  0
   -0.6453   -2.0208   -8.7362 O   0  0  0  0  0  0  0  0  0  0  0  0
    1.1899   -3.4908   -8.6643 C   0  0  0  0  0  0  0  0  0  0  0  0
    1.0280   -4.2559   -7.8881 H   0  0  0  0  0  0  0  0  0  0  0  0
    0.8247   -3.9436   -9.6001 H   0  0  0  0  0  0  0  0  0  0  0  0
    2.2833   -3.4245   -8.7822 H   0  0  0  0  0  0  0  0  0  0  0  0
    1.2722   -1.3147   -7.6181 N   0  0  0  0  0  0  0  0  0  0  0  0
    0.8041   -0.0150   -7.2079 C   0  0  2  0  0  0  0  0  0  0  0  0
    1.9751    0.9651   -7.2398 C   0  0  0  0  0  0  0  0  0  0  0  0
    3.1325    0.6183   -7.4665 O   0  0  0  0  0  0  0  0  0  0  0  0
    0.0826   -0.0548   -5.8585 C   0  0  0  0  0  0  0  0  0  0  0  0
    1.1459   -0.5743   -4.4721 S   0  0  0  0  0  0  0  0  0  0  0  0
    2.2159   -1.5927   -7.3581 H   0  0  0  0  0  0  0  0  0  0  0  0
    0.0894    0.2978   -7.9792 H   0  0  0  0  0  0  0  0  0  0  0  0
   -0.3214    0.9318   -5.6095 H   0  0  0  0  0  0  0  0  0  0  0  0
   -0.7591   -0.7542   -5.9059 H   0  0  0  0  0  0  0  0  0  0  0  0
    1.5788    2.2655   -6.9614 N   0  0  0  0  0  0  0  0  0  0  0  0
    2.5091    3.3689   -6.9086 C   0  0  0  0  0  0  0  0  0  0  0  0
    0.5929    2.4700   -6.8283 H   0  0  0  0  0  0  0  0  0  0  0  0
    2.8544    3.5089   -5.8737 H   0  0  0  0  0  0  0  0  0  0  0  0
    3.3713    3.1527   -7.5566 H   0  0  0  0  0  0  0  0  0  0  0  0
    2.0103    4.2858   -7.2558 H   0  0  0  0  0  0  0  0  0  0  0  0
   -6.7256    2.0330   -0.2766 C   0  0  0  0  0  0  0  0  0  0  0  0
   -7.1824    1.1039   -0.9322 O   0  0  0  0  0  0  0  0  0  0  0  0
   -7.5276    2.6077    0.8435 C   0  0  0  0  0  0  0  0  0  0  0  0
   -8.1775    3.4344    0.5145 H   0  0  0  0  0  0  0  0  0  0  0  0
   -8.2057    1.8676    1.2980 H   0  0  0  0  0  0  0  0  0  0  0  0
   -6.9411    3.0162    1.6819 H   0  0  0  0  0  0  0  0  0  0  0  0
   -5.4935    2.6382   -0.4627 N   0  0  0  0  0  0  0  0  0  0  0  0
   -4.5619    2.2388   -1.4845 C   0  0  2  0  0  0  0  0  0  0  0  0
   -3.1535    2.4674   -0.9521 C   0  0  0  0  0  0  0  0  0  0  0  0
   -2.8634    3.3945   -0.1987 O   0  0  0  0  0  0  0  0  0  0  0  0
   -4.7883    3.0138   -2.7732 C   0  0  0  0  0  0  0  0  0  0  0  0
   -5.2337    3.4049    0.1551 H   0  0  0  0  0  0  0  0  0  0  0  0
   -4.7192    1.1682   -1.6549 H   0  0  0  0  0  0  0  0  0  0  0  0
   -4.6352    4.0886   -2.6221 H   0  0  0  0  0  0  0  0  0  0  0  0
   -4.0976    2.6887   -3.5582 H   0  0  0  0  0  0  0  0  0  0  0  0
   -5.8111    2.8719   -3.1387 H   0  0  0  0  0  0  0  0  0  0  0  0
   -2.2466    1.5400   -1.4507 N   0  0  0  0  0  0  0  0  0  0  0  0
   -0.8424    1.5707   -1.1286 C   0  0  2  0  0  0  0  0  0  0  0  0
   -0.5050    2.9289   -0.5168 C   0  0  0  0  0  0  0  0  0  0  0  0
   -1.2099    3.4763    0.3286 O   0  0  0  0  0  0  0  0  0  0  0  0
    0.0383    1.2092   -2.3271 C   0  0  0  0  0  0  0  0  0  0  0  0
   -0.1725   -0.4941   -2.8992 S   0  0  0  0  0  0  0  0  0  0  0  0
   -2.5850    0.7815   -2.0381 H   0  0  0  0  0  0  0  0  0  0  0  0
   -0.7024    0.8122   -0.3483 H   0  0  0  0  0  0  0  0  0  0  0  0
   -0.1765    1.8682   -3.1746 H   0  0  0  0  0  0  0  0  0  0  0  0
    1.0943    1.3392   -2.0669 H   0  0  0  0  0  0  0  0  0  0  0  0
    0.6605    3.4669   -1.0439 N   0  0  0  0  0  0  0  0  0  0  0  0
    1.1748    4.7554   -0.6423 C   0  0  2  0  0  0  0  0  0  0  0  0
    1.8733    5.3782   -1.8439 C   0  0  0  0  0  0  0  0  0  0  0  0
    2.4847    4.7176   -2.6811 O   0  0  0  0  0  0  0  0  0  0  0  0
    2.1288    4.6279    0.5351 C   0  0  0  0  0  0  0  0  0  0  0  0
    1.2051    2.9255   -1.7087 H   0  0  0  0  0  0  0  0  0  0  0  0
    0.3105    5.3680   -0.3636 H   0  0  0  0  0  0  0  0  0  0  0  0
    3.0011    4.0173    0.2748 H   0  0  0  0  0  0  0  0  0  0  0  0
    2.4956    5.6083    0.8565 H   0  0  0  0  0  0  0  0  0  0  0  0
    1.6332    4.1526    1.3885 H   0  0  0  0  0  0  0  0  0  0  0  0
    1.7701    6.7622   -1.8480 N   0  0  0  0  0  0  0  0  0  0  0  0
    2.3858    7.5869   -2.8612 C   0  0  0  0  0  0  0  0  0  0  0  0
    1.2103    7.2236   -1.1370 H   0  0  0  0  0  0  0  0  0  0  0  0
    3.3846    7.9000   -2.5228 H   0  0  0  0  0  0  0  0  0  0  0  0
    2.4785    7.0126   -3.7948 H   0  0  0  0  0  0  0  0  0  0  0  0
    1.7632    8.4763   -3.0381 H   0  0  0  0  0  0  0  0  0  0  0  0
  1  3  1  0  0  0  0
  1  7  1  0  0  0  0
  1  2  2  0  0  0  0
 23 25  1  0  0  0  0
 23 29  1  0  0  0  0
 23 24  2  0  0  0  0
 50 51  1  0  0  0  0
 51 59  1  0  0  0  0
 51 52  2  0  0  0  0
  8  9  1  0  0  0  0
  9 17  1  0  0  0  0
  9 10  2  0  0  0  0
 30 31  1  0  0  0  0
 31 39  1  0  0  0  0
 31 32  2  0  0  0  0
 40 41  1  0  0  0  0
 41 49  1  0  0  0  0
 41 42  2  0  0  0  0
 50 53  1  0  0  0  0
 30 33  1  0  0  0  0
 59 60  1  0  0  0  0
 17 18  1  0  0  0  0
  8 11  1  0  0  0  0
 11 12  1  0  0  0  0
 40 43  1  0  0  0  0
 43 44  1  0  0  0  0
 49 50  1  0  0  0  0
  7  8  1  0  0  0  0
 29 30  1  0  0  0  0
 39 40  1  0  0  0  0
 12 44  1  0  0  0  0
  3  4  1  0  0  0  0
  3  5  1  0  0  0  0
  3  6  1  0  0  0  0
 25 26  1  0  0  0  0
 25 27  1  0  0  0  0
 25 28  1  0  0  0  0
 53 56  1  0  0  0  0
 53 57  1  0  0  0  0
 53 58  1  0  0  0  0
 33 36  1  0  0  0  0
 33 37  1  0  0  0  0
 33 38  1  0  0  0  0
 60 62  1  0  0  0  0
 60 63  1  0  0  0  0
 60 64  1  0  0  0  0
 18 20  1  0  0  0  0
 18 21  1  0  0  0  0
 18 22  1  0  0  0  0
 11 15  1  0  0  0  0
 11 16  1  0  0  0  0
 43 47  1  0  0  0  0
 43 48  1  0  0  0  0
 50 55  1  0  0  0  0
  8 14  1  0  0  0  0
 30 35  1  0  0  0  0
 40 46  1  0  0  0  0
 59 61  1  0  0  0  0
 17 19  1  0  0  0  0
  7 13  1  0  0  0  0
 29 34  1  0  0  0  0
 49 54  1  0  0  0  0
 39 45  1  0  0  0  0
M  END
$$$$

  -OEChem-05262214473D

 64 63  0     1  0  0  0  0  0999 V2000
    0.5026   -2.2040   -8.3480 C   0  0  0  0  0  0  0  0  0  0  0  0
   -0.6453   -2.0208   -8.7362 O   0  0  0  0  0  0  0  0  0  0  0  0
    1.1899   -3.4908   -8.6643 C   0  0  0  0  0  0  0  0  0  0  0  0
    1.0280   -4.2559   -7.8881 H   0  0  0  0  0  0  0  0  0  0  0  0
    0.8247   -3.9436   -9.6001 H   0  0  0  0  0  0  0  0  0  0  0  0
    2.2833   -3.4245   -8.7822 H   0  0  0  0  0  0  0  0  0  0  0  0
    1.2722   -1.3147   -7.6181 N   0  0  0  0  0  0  0  0  0  0  0  0
    0.8041   -0.0150   -7.2079 C   0  0  2  0  0  0  0  0  0  0  0  0
    1.9751    0.9651   -7.2398 C   0  0  0  0  0  0  0  0  0  0  0  0
    3.1325    0.6183   -7.4665 O   0  0  0  0  0  0  0  0  0  0  0  0
    0.0826   -0.0548   -5.8585 C   0  0  0  0  0  0  0  0  0  0  0  0
    1.1459   -0.5743   -4.4721 S   0  0  0  0  0  0  0  0  0  0  0  0
    2.2159   -1.5927   -7.3581 H   0  0  0  0  0  0  0  0  0  0  0  0
    0.0894    0.2978   -7.9792 H   0  0  0  0  0  0  0  0  0  0  0  0
   -0.3214    0.9318   -5.6095 H   0  0  0  0  0  0  0  0  0  0  0  0
   -0.7591   -0.7542   -5.9059 H   0  0  0  0  0  0  0  0  0  0  0  0
    1.5788    2.2655   -6.9614 N   0  0  0  0  0  0  0  0  0  0  0  0
    2.5091    3.3689   -6.9086 C   0  0  0  0  0  0  0  0  0  0  0  0
    0.5929    2.4700   -6.8283 H   0  0  0  0  0  0  0  0  0  0  0  0
    2.8544    3.5089   -5.8737 H   0  0  0  0  0  0  0  0  0  0  0  0
    3.3713    3.1527   -7.5566 H   0  0  0  0  0  0  0  0  0  0  0  0
    2.0103    4.2858   -7.2558 H   0  0  0  0  0  0  0  0  0  0  0  0
   -6.7256    2.0330   -0.2766 C   0  0  0  0  0  0  0  0  0  0  0  0
   -7.1824    1.1039   -0.9322 O   0  0  0  0  0  0  0  0  0  0  0  0
   -7.5276    2.6077    0.8435 C   0  0  0  0  0  0  0  0  0  0  0  0
   -8.1775    3.4344    0.5145 H   0  0  0  0  0  0  0  0  0  0  0  0
   -8.2057    1.8676    1.2980 H   0  0  0  0  0  0  0  0  0  0  0  0
   -6.9411    3.0162    1.6819 H   0  0  0  0  0  0  0  0  0  0  0  0
   -5.4935    2.6382   -0.4627 N   0  0  0  0  0  0  0  0  0  0  0  0
   -4.5619    2.2388   -1.4845 C   0  0  2  0  0  0  0  0  0  0  0  0
   -3.1535    2.4674   -0.9521 C   0  0  0  0  0  0  0  0  0  0  0  0
   -2.8634    3.3945   -0.1987 O   0  0  0  0  0  0  0  0  0  0  0  0
   -4.7883    3.0138   -2.7732 C   0  0  0  0  0  0  0  0  0  0  0  0
   -5.2337    3.4049    0.1551 H   0  0  0  0  0  0  0  0  0  0  0  0
   -4.7192    1.1682   -1.6549 H   0  0  0  0  0  0  0  0  0  0  0  0
   -4.6352    4.0886   -2.6221 H   0  0  0  0  0  0  0  0  0  0  0  0
   -4.0976    2.6887   -3.5582 H   0  0  0  0  0  0  0  0  0  0  0  0
   -5.8111    2.8719   -3.1387 H   0  0  0  0  0  0  0  0  0  0  0  0
   -2.2466    1.5400   -1.4507 N   0  0  0  0  0  0  0  0  0  0  0  0
   -0.8424    1.5707   -1.1286 C   0  0  2  0  0  0  0  0  0  0  0  0
   -0.5050    2.9289   -0.5168 C   0  0  0  0  0  0  0  0  0  0  0  0
   -1.0430    3.3565    0.5025 O   0  0  0  0  0  0  0  0  0  0  0  0
    0.0383    1.2092   -2.3271 C   0  0  0  0  0  0  0  0  0  0  0  0
   -0.1725   -0.4941   -2.8992 S   0  0  0  0  0  0  0  0  0  0  0  0
   -2.5850    0.7815   -2.0381 H   0  0  0  0  0  0  0  0  0  0  0  0
   -0.7024    0.8122   -0.3483 H   0  0  0  0  0  0  0  0  0  0  0  0
   -0.1765    1.8682   -3.1746 H   0  0  0  0  0  0  0  0  0  0  0  0
    1.0943    1.3392   -2.0669 H   0  0  0  0  0  0  0  0  0  0  0  0
    0.4476    3.6155   -1.2562 N   0  0  0  0  0  0  0  0  0  0  0  0
    0.9140    4.9334   -0.8937 C   0  0  2  0  0  0  0  0  0  0  0  0
    1.2493    5.6830   -2.1763 C   0  0  0  0  0  0  0  0  0  0  0  0
    1.7098    5.1323   -3.1742 O   0  0  0  0  0  0  0  0  0  0  0  0
    2.1239    4.8590    0.0246 C   0  0  0  0  0  0  0  0  0  0  0  0
    0.8721    3.1680   -2.0633 H   0  0  0  0  0  0  0  0  0  0  0  0
    0.0833    5.4337   -0.3841 H   0  0  0  0  0  0  0  0  0  0  0  0
    2.9665    4.3608   -0.4688 H   0  0  0  0  0  0  0  0  0  0  0  0
    2.4588    5.8584    0.3214 H   0  0  0  0  0  0  0  0  0  0  0  0
    1.8895    4.2940    0.9332 H   0  0  0  0  0  0  0  0  0  0  0  0
    1.0143    7.0459   -2.0609 N   0  0  0  0  0  0  0  0  0  0  0  0
    1.2938    7.9784   -3.1279 C   0  0  0  0  0  0  0  0  0  0  0  0
    0.5936    7.4102   -1.2112 H   0  0  0  0  0  0  0  0  0  0  0  0
    2.3087    8.3842   -3.0043 H   0  0  0  0  0  0  0  0  0  0  0  0
    1.2215    7.4604   -4.0956 H   0  0  0  0  0  0  0  0  0  0  0  0
    0.5639    8.8007   -3.0966 H   0  0  0  0  0  0  0  0  0  0  0  0
  1  3  1  0  0  0  0
  1  7  1  0  0  0  0
  1  2  2  0  0  0  0
 23 25  1  0  0  0  0
 23 29  1  0  0  0  0
 23 24  2  0  0  0  0
 50 51  1  0  0  0  0
 51 59  1  0  0  0  0
 51 52  2  0  0  0  0
  8  9  1  0  0  0  0
  9 17  1  0  0  0  0
  9 10  2  0  0  0  0
 30 31  1  0  0  0  0
 31 39  1  0  0  0  0
 31 32  2  0  0  0  0
 40 41  1  0  0  0  0
 41 49  1  0  0  0  0
 41 42  2  0  0  0  0
 50 53  1  0  0  0  0
 30 33  1  0  0  0  0
 59 60  1  0  0  0  0
 17 18  1  0  0  0  0
  8 11  1  0  0  0  0
 11 12  1  0  0  0  0
 40 43  1  0  0  0  0
 43 44  1  0  0  0  0
 49 50  1  0  0  0  0
  7  8  1  0  0  0  0
 29 30  1  0  0  0  0
 39 40  1  0  0  0  0
 12 44  1  0  0  0  0
  3  4  1  0  0  0  0
  3  5  1  0  0  0  0
  3  6  1  0  0  0  0
 25 26  1  0  0  0  0
 25 27  1  0  0  0  0
 25 28  1  0  0  0  0
 53 56  1  0  0  0  0
 53 57  1  0  0  0  0
 53 58  1  0  0  0  0
 33 36  1  0  0  0  0
 33 37  1  0  0  0  0
 33 38  1  0  0  0  0
 60 62  1  0  0  0  0
 60 63  1  0  0  0  0
 60 64  1  0  0  0  0
 18 20  1  0  0  0  0
 18 21  1  0  0  0  0
 18 22  1  0  0  0  0
 11 15  1  0  0  0  0
 11 16  1  0  0  0  0
 43 47  1  0  0  0  0
 43 48  1  0  0  0  0
 50 55  1  0  0  0  0
  8 14  1  0  0  0  0
 30 35  1  0  0  0  0
 40 46  1  0  0  0  0
 59 61  1  0  0  0  0
 17 19  1  0  0  0  0
  7 13  1  0  0  0  0
 29 34  1  0  0  0  0
 49 54  1  0  0  0  0
 39 45  1  0  0  0  0
M  END
$$$$

  -OEChem-05262214473D

 64 63  0     1  0  0  0  0  0999 V2000
    0.5026   -2.2040   -8.3480 C   0  0  0  0  0  0  0  0  0  0  0  0
   -0.6453   -2.0208   -8.7362 O   0  0  0  0  0  0  0  0  0  0  0  0
    1.1899   -3.4908   -8.6643 C   0  0  0  0  0  0  0  0  0  0  0  0
    1.0280   -4.2559   -7.8881 H   0  0  0  0  0  0  0  0  0  0  0  0
    0.8247   -3.9436   -9.6001 H   0  0  0  0  0  0  0  0  0  0  0  0
    2.2833   -3.4245   -8.7822 H   0  0  0  0  0  0  0  0  0  0  0  0
    1.2722   -1.3147   -7.6181 N   0  0  0  0  0  0  0  0  0  0  0  0
    0.8041   -0.0150   -7.2079 C   0  0  2  0  0  0  0  0  0  0  0  0
    1.9751    0.9651   -7.2398 C   0  0  0  0  0  0  0  0  0  0  0  0
    3.1325    0.6183   -7.4665 O   0  0  0  0  0  0  0  0  0  0  0  0
    0.0826   -0.0548   -5.8585 C   0  0  0  0  0  0  0  0  0  0  0  0
    1.1459   -0.5743   -4.4721 S   0  0  0  0  0  0  0  0  0  0  0  0
    2.2159   -1.5927   -7.3581 H   0  0  0  0  0  0  0  0  0  0  0  0
    0.0894    0.2978   -7.9792 H   0  0  0  0  0  0  0  0  0  0  0  0
   -0.3214    0.9318   -5.6095 H   0  0  0  0  0  0  0  0  0  0  0  0
   -0.7591   -0.7542   -5.9059 H   0  0  0  0  0  0  0  0  0  0  0  0
    1.5788    2.2655   -6.9614 N   0  0  0  0  0  0  0  0  0  0  0  0
    2.5091    3.3689   -6.9086 C   0  0  0  0  0  0  0  0  0  0  0  0
    0.5929    2.4700   -6.8283 H   0  0  0  0  0  0  0  0  0  0  0  0
    2.8544    3.5089   -5.8737 H   0  0  0  0  0  0  0  0  0  0  0  0
    3.3713    3.1527   -7.5566 H   0  0  0  0  0  0  0  0  0  0  0  0
    2.0103    4.2858   -7.2558 H   0  0  0  0  0  0  0  0  0  0  0  0
   -6.7256    2.0330   -0.2766 C   0  0  0  0  0  0  0  0  0  0  0  0
   -7.1824    1.1039   -0.9322 O   0  0  0  0  0  0  0  0  0  0  0  0
   -7.5276    2.6077    0.8435 C   0  0  0  0  0  0  0  0  0  0  0  0
   -8.1775    3.4344    0.5145 H   0  0  0  0  0  0  0  0  0  0  0  0
   -8.2057    1.8676    1.2980 H   0  0  0  0  0  0  0  0  0  0  0  0
   -6.9411    3.0162    1.6819 H   0  0  0  0  0  0  0  0  0  0  0  0
   -5.4935    2.6382   -0.4627 N   0  0  0  0  0  0  0  0  0  0  0  0
   -4.5619    2.2388   -1.4845 C   0  0  2  0  0  0  0  0  0  0  0  0
   -3.1535    2.4674   -0.9521 C   0  0  0  0  0  0  0  0  0  0  0  0
   -2.8634    3.3945   -0.1987 O   0  0  0  0  0  0  0  0  0  0  0  0
   -4.7883    3.0138   -2.7732 C   0  0  0  0  0  0  0  0  0  0  0  0
   -5.2337    3.4049    0.1551 H   0  0  0  0  0  0  0  0  0  0  0  0
   -4.7192    1.1682   -1.6549 H   0  0  0  0  0  0  0  0  0  0  0  0
   -4.6352    4.0886   -2.6221 H   0  0  0  0  0  0  0  0  0  0  0  0
   -4.0976    2.6887   -3.5582 H   0  0  0  0  0  0  0  0  0  0  0  0
   -5.8111    2.8719   -3.1387 H   0  0  0  0  0  0  0  0  0  0  0  0
   -2.2466    1.5400   -1.4507 N   0  0  0  0  0  0  0  0  0  0  0  0
   -0.8424    1.5707   -1.1286 C   0  0  2  0  0  0  0  0  0  0  0  0
   -0.5050    2.9289   -0.5168 C   0  0  0  0  0  0  0  0  0  0  0  0
   -0.8294    3.2481    0.6252 O   0  0  0  0  0  0  0  0  0  0  0  0
    0.0383    1.2092   -2.3271 C   0  0  0  0  0  0  0  0  0  0  0  0
   -0.1725   -0.4941   -2.8992 S   0  0  0  0  0  0  0  0  0  0  0  0
   -2.5850    0.7815   -2.0381 H   0  0  0  0  0  0  0  0  0  0  0  0
   -0.7024    0.8122   -0.3483 H   0  0  0  0  0  0  0  0  0  0  0  0
   -0.1765    1.8682   -3.1746 H   0  0  0  0  0  0  0  0  0  0  0  0
    1.0943    1.3392   -2.0669 H   0  0  0  0  0  0  0  0  0  0  0  0
    0.1778    3.7490   -1.4039 N   0  0  0  0  0  0  0  0  0  0  0  0
    0.5857    5.0927   -1.0662 C   0  0  2  0  0  0  0  0  0  0  0  0
    0.5384    5.9317   -2.3364 C   0  0  0  0  0  0  0  0  0  0  0  0
    0.8047    5.4807   -3.4485 O   0  0  0  0  0  0  0  0  0  0  0  0
    1.9778    5.1110   -0.4543 C   0  0  0  0  0  0  0  0  0  0  0  0
    0.4437    3.3879   -2.3152 H   0  0  0  0  0  0  0  0  0  0  0  0
   -0.1477    5.4748   -0.3479 H   0  0  0  0  0  0  0  0  0  0  0  0
    2.7263    4.7315   -1.1594 H   0  0  0  0  0  0  0  0  0  0  0  0
    2.2741    6.1268   -0.1726 H   0  0  0  0  0  0  0  0  0  0  0  0
    2.0176    4.4832    0.4425 H   0  0  0  0  0  0  0  0  0  0  0  0
    0.2058    7.2538   -2.0764 N   0  0  0  0  0  0  0  0  0  0  0  0
    0.1371    8.2585   -3.1117 C   0  0  0  0  0  0  0  0  0  0  0  0
   -0.0384    7.5308   -1.1302 H   0  0  0  0  0  0  0  0  0  0  0  0
    1.1085    8.7679   -3.1941 H   0  0  0  0  0  0  0  0  0  0  0  0
   -0.1083    7.7799   -4.0712 H   0  0  0  0  0  0  0  0  0  0  0  0
   -0.6417    8.9930   -2.8586 H   0  0  0  0  0  0  0  0  0  0  0  0
  1  3  1  0  0  0  0
  1  7  1  0  0  0  0
  1  2  2  0  0  0  0
 23 25  1  0  0  0  0
 23 29  1  0  0  0  0
 23 24  2  0  0  0  0
 50 51  1  0  0  0  0
 51 59  1  0  0  0  0
 51 52  2  0  0  0  0
  8  9  1  0  0  0  0
  9 17  1  0  0  0  0
  9 10  2  0  0  0  0
 30 31  1  0  0  0  0
 31 39  1  0  0  0  0
 31 32  2  0  0  0  0
 40 41  1  0  0  0  0
 41 49  1  0  0  0  0
 41 42  2  0  0  0  0
 50 53  1  0  0  0  0
 30 33  1  0  0  0  0
 59 60  1  0  0  0  0
 17 18  1  0  0  0  0
  8 11  1  0  0  0  0
 11 12  1  0  0  0  0
 40 43  1  0  0  0  0
 43 44  1  0  0  0  0
 49 50  1  0  0  0  0
  7  8  1  0  0  0  0
 29 30  1  0  0  0  0
 39 40  1  0  0  0  0
 12 44  1  0  0  0  0
  3  4  1  0  0  0  0
  3  5  1  0  0  0  0
  3  6  1  0  0  0  0
 25 26  1  0  0  0  0
 25 27  1  0  0  0  0
 25 28  1  0  0  0  0
 53 56  1  0  0  0  0
 53 57  1  0  0  0  0
 53 58  1  0  0  0  0
 33 36  1  0  0  0  0
 33 37  1  0  0  0  0
 33 38  1  0  0  0  0
 60 62  1  0  0  0  0
 60 63  1  0  0  0  0
 60 64  1  0  0  0  0
 18 20  1  0  0  0  0
 18 21  1  0  0  0  0
 18 22  1  0  0  0  0
 11 15  1  0  0  0  0
 11 16  1  0  0  0  0
 43 47  1  0  0  0  0
 43 48  1  0  0  0  0
 50 55  1  0  0  0  0
  8 14  1  0  0  0  0
 30 35  1  0  0  0  0
 40 46  1  0  0  0  0
 59 61  1  0  0  0  0
 17 19  1  0  0  0  0
  7 13  1  0  0  0  0
 29 34  1  0  0  0  0
 49 54  1  0  0  0  0
 39 45  1  0  0  0  0
M  END
$$$$

  -OEChem-05262214473D

 64 63  0     1  0  0  0  0  0999 V2000
    0.5026   -2.2040   -8.3480 C   0  0  0  0  0  0  0  0  0  0  0  0
   -0.6453   -2.0208   -8.7362 O   0  0  0  0  0  0  0  0  0  0  0  0
    1.1899   -3.4908   -8.6643 C   0  0  0  0  0  0  0  0  0  0  0  0
    1.0280   -4.2559   -7.8881 H   0  0  0  0  0  0  0  0  0  0  0  0
    0.8247   -3.9436   -9.6001 H   0  0  0  0  0  0  0  0  0  0  0  0
    2.2833   -3.4245   -8.7822 H   0  0  0  0  0  0  0  0  0  0  0  0
    1.2722   -1.3147   -7.6181 N   0  0  0  0  0  0  0  0  0  0  0  0
    0.8041   -0.0150   -7.2079 C   0  0  2  0  0  0  0  0  0  0  0  0
    1.9751    0.9651   -7.2398 C   0  0  0  0  0  0  0  0  0  0  0  0
    3.1325    0.6183   -7.4665 O   0  0  0  0  0  0  0  0  0  0  0  0
    0.0826   -0.0548   -5.8585 C   0  0  0  0  0  0  0  0  0  0  0  0
    1.1459   -0.5743   -4.4721 S   0  0  0  0  0  0  0  0  0  0  0  0
    2.2159   -1.5927   -7.3581 H   0  0  0  0  0  0  0  0  0  0  0  0
    0.0894    0.2978   -7.9792 H   0  0  0  0  0  0  0  0  0  0  0  0
   -0.3214    0.9318   -5.6095 H   0  0  0  0  0  0  0  0  0  0  0  0
   -0.7591   -0.7542   -5.9059 H   0  0  0  0  0  0  0  0  0  0  0  0
    1.5788    2.2655   -6.9614 N   0  0  0  0  0  0  0  0  0  0  0  0
    2.5091    3.3689   -6.9086 C   0  0  0  0  0  0  0  0  0  0  0  0
    0.5929    2.4700   -6.8283 H   0  0  0  0  0  0  0  0  0  0  0  0
    2.8544    3.5089   -5.8737 H   0  0  0  0  0  0  0  0  0  0  0  0
    3.3713    3.1527   -7.5566 H   0  0  0  0  0  0  0  0  0  0  0  0
    2.0103    4.2858   -7.2558 H   0  0  0  0  0  0  0  0  0  0  0  0
   -6.7256    2.0330   -0.2766 C   0  0  0  0  0  0  0  0  0  0  0  0
   -7.1824    1.1039   -0.9322 O   0  0  0  0  0  0  0  0  0  0  0  0
   -7.5276    2.6077    0.8435 C   0  0  0  0  0  0  0  0  0  0  0  0
   -8.1775    3.4344    0.5145 H   0  0  0  0  0  0  0  0  0  0  0  0
   -8.2057    1.8676    1.2980 H   0  0  0  0  0  0  0  0  0  0  0  0
   -6.9411    3.0162    1.6819 H   0  0  0  0  0  0  0  0  0  0  0  0
   -5.4935    2.6382   -0.4627 N   0  0  0  0  0  0  0  0  0  0  0  0
   -4.5619    2.2388   -1.4845 C   0  0  2  0  0  0  0  0  0  0  0  0
   -3.1535    2.4674   -0.9521 C   0  0  0  0  0  0  0  0  0  0  0  0
   -2.8634    3.3945   -0.1987 O   0  0  0  0  0  0  0  0  0  0  0  0
   -4.7883    3.0138   -2.7732 C   0  0  0  0  0  0  0  0  0  0  0  0
   -5.2337    3.4049    0.1551 H   0  0  0  0  0  0  0  0  0  0  0  0
   -4.7192    1.1682   -1.6549 H   0  0  0  0  0  0  0  0  0  0  0  0
   -4.6352    4.0886   -2.6221 H   0  0  0  0  0  0  0  0  0  0  0  0
   -4.0976    2.6887   -3.5582 H   0  0  0  0  0  0  0  0  0  0  0  0
   -5.8111    2.8719   -3.1387 H   0  0  0  0  0  0  0  0  0  0  0  0
   -2.2466    1.5400   -1.4507 N   0  0  0  0  0  0  0  0  0  0  0  0
   -0.8424    1.5707   -1.1286 C   0  0  2  0  0  0  0  0  0  0  0  0
   -0.5050    2.9289   -0.5168 C   0  0  0  0  0  0  0  0  0  0  0  0
   -0.5835    3.1586    0.6883 O   0  0  0  0  0  0  0  0  0  0  0  0
    0.0383    1.2092   -2.3271 C   0  0  0  0  0  0  0  0  0  0  0  0
   -0.1725   -0.4941   -2.8992 S   0  0  0  0  0  0  0  0  0  0  0  0
   -2.5850    0.7815   -2.0381 H   0  0  0  0  0  0  0  0  0  0  0  0
   -0.7024    0.8122   -0.3483 H   0  0  0  0  0  0  0  0  0  0  0  0
   -0.1765    1.8682   -3.1746 H   0  0  0  0  0  0  0  0  0  0  0  0
    1.0943    1.3392   -2.0669 H   0  0  0  0  0  0  0  0  0  0  0  0
   -0.1307    3.8585   -1.4767 N   0  0  0  0  0  0  0  0  0  0  0  0
    0.2125    5.2223   -1.1483 C   0  0  2  0  0  0  0  0  0  0  0  0
   -0.2109    6.1074   -2.3132 C   0  0  0  0  0  0  0  0  0  0  0  0
   -0.1688    5.7391   -3.4852 O   0  0  0  0  0  0  0  0  0  0  0  0
    1.7003    5.3666   -0.8687 C   0  0  0  0  0  0  0  0  0  0  0  0
   -0.0509    3.5703   -2.4474 H   0  0  0  0  0  0  0  0  0  0  0  0
   -0.3668    5.4884   -0.2574 H   0  0  0  0  0  0  0  0  0  0  0  0
    2.2970    5.1042   -1.7500 H   0  0  0  0  0  0  0  0  0  0  0  0
    1.9542    6.3952   -0.5920 H   0  0  0  0  0  0  0  0  0  0  0  0
    2.0088    4.7073   -0.0502 H   0  0  0  0  0  0  0  0  0  0  0  0
   -0.6003    7.3716   -1.8934 N   0  0  0  0  0  0  0  0  0  0  0  0
   -1.0056    8.4082   -2.8138 C   0  0  0  0  0  0  0  0  0  0  0  0
   -0.6428    7.5771   -0.8996 H   0  0  0  0  0  0  0  0  0  0  0  0
   -0.1342    9.0249   -3.0792 H   0  0  0  0  0  0  0  0  0  0  0  0
   -1.4204    7.9492   -3.7234 H   0  0  0  0  0  0  0  0  0  0  0  0
   -1.7713    9.0402   -2.3402 H   0  0  0  0  0  0  0  0  0  0  0  0
  1  3  1  0  0  0  0
  1  7  1  0  0  0  0
  1  2  2  0  0  0  0
 23 25  1  0  0  0  0
 23 29  1  0  0  0  0
 23 24  2  0  0  0  0
 50 51  1  0  0  0  0
 51 59  1  0  0  0  0
 51 52  2  0  0  0  0
  8  9  1  0  0  0  0
  9 17  1  0  0  0  0
  9 10  2  0  0  0  0
 30 31  1  0  0  0  0
 31 39  1  0  0  0  0
 31 32  2  0  0  0  0
 40 41  1  0  0  0  0
 41 49  1  0  0  0  0
 41 42  2  0  0  0  0
 50 53  1  0  0  0  0
 30 33  1  0  0  0  0
 59 60  1  0  0  0  0
 17 18  1  0  0  0  0
  8 11  1  0  0  0  0
 11 12  1  0  0  0  0
 40 43  1  0  0  0  0
 43 44  1  0  0  0  0
 49 50  1  0  0  0  0
  7  8  1  0  0  0  0
 29 30  1  0  0  0  0
 39 40  1  0  0  0  0
 12 44  1  0  0  0  0
  3  4  1  0  0  0  0
  3  5  1  0  0  0  0
  3  6  1  0  0  0  0
 25 26  1  0  0  0  0
 25 27  1  0  0  0  0
 25 28  1  0  0  0  0
 53 56  1  0  0  0  0
 53 57  1  0  0  0  0
 53 58  1  0  0  0  0
 33 36  1  0  0  0  0
 33 37  1  0  0  0  0
 33 38  1  0  0  0  0
 60 62  1  0  0  0  0
 60 63  1  0  0  0  0
 60 64  1  0  0  0  0
 18 20  1  0  0  0  0
 18 21  1  0  0  0  0
 18 22  1  0  0  0  0
 11 15  1  0  0  0  0
 11 16  1  0  0  0  0
 43 47  1  0  0  0  0
 43 48  1  0  0  0  0
 50 55  1  0  0  0  0
  8 14  1  0  0  0  0
 30 35  1  0  0  0  0
 40 46  1  0  0  0  0
 59 61  1  0  0  0  0
 17 19  1  0  0  0  0
  7 13  1  0  0  0  0
 29 34  1  0  0  0  0
 49 54  1  0  0  0  0
 39 45  1  0  0  0  0
M  END
$$$$

  -OEChem-05262214473D

 64 63  0     1  0  0  0  0  0999 V2000
    0.5026   -2.2040   -8.3480 C   0  0  0  0  0  0  0  0  0  0  0  0
   -0.6453   -2.0208   -8.7362 O   0  0  0  0  0  0  0  0  0  0  0  0
    1.1899   -3.4908   -8.6643 C   0  0  0  0  0  0  0  0  0  0  0  0
    1.0280   -4.2559   -7.8881 H   0  0  0  0  0  0  0  0  0  0  0  0
    0.8247   -3.9436   -9.6001 H   0  0  0  0  0  0  0  0  0  0  0  0
    2.2833   -3.4245   -8.7822 H   0  0  0  0  0  0  0  0  0  0  0  0
    1.2722   -1.3147   -7.6181 N   0  0  0  0  0  0  0  0  0  0  0  0
    0.8041   -0.0150   -7.2079 C   0  0  2  0  0  0  0  0  0  0  0  0
    1.9751    0.9651   -7.2398 C   0  0  0  0  0  0  0  0  0  0  0  0
    3.1325    0.6183   -7.4665 O   0  0  0  0  0  0  0  0  0  0  0  0
    0.0826   -0.0548   -5.8585 C   0  0  0  0  0  0  0  0  0  0  0  0
    1.1459   -0.5743   -4.4721 S   0  0  0  0  0  0  0  0  0  0  0  0
    2.2159   -1.5927   -7.3581 H   0  0  0  0  0  0  0  0  0  0  0  0
    0.0894    0.2978   -7.9792 H   0  0  0  0  0  0  0  0  0  0  0  0
   -0.3214    0.9318   -5.6095 H   0  0  0  0  0  0  0  0  0  0  0  0
   -0.7591   -0.7542   -5.9059 H   0  0  0  0  0  0  0  0  0  0  0  0
    1.5788    2.2655   -6.9614 N   0  0  0  0  0  0  0  0  0  0  0  0
    2.5091    3.3689   -6.9086 C   0  0  0  0  0  0  0  0  0  0  0  0
    0.5929    2.4700   -6.8283 H   0  0  0  0  0  0  0  0  0  0  0  0
    2.8544    3.5089   -5.8737 H   0  0  0  0  0  0  0  0  0  0  0  0
    3.3713    3.1527   -7.5566 H   0  0  0  0  0  0  0  0  0  0  0  0
    2.0103    4.2858   -7.2558 H   0  0  0  0  0  0  0  0  0  0  0  0
   -6.7256    2.0330   -0.2766 C   0  0  0  0  0  0  0  0  0  0  0  0
   -7.1824    1.1039   -0.9322 O   0  0  0  0  0  0  0  0  0  0  0  0
   -7.5276    2.6077    0.8435 C   0  0  0  0  0  0  0  0  0  0  0  0
   -8.1775    3.4344    0.5145 H   0  0  0  0  0  0  0  0  0  0  0  0
   -8.2057    1.8676    1.2980 H   0  0  0  0  0  0  0  0  0  0  0  0
   -6.9411    3.0162    1.6819 H   0  0  0  0  0  0  0  0  0  0  0  0
   -5.4935    2.6382   -0.4627 N   0  0  0  0  0  0  0  0  0  0  0  0
   -4.5619    2.2388   -1.4845 C   0  0  2  0  0  0  0  0  0  0  0  0
   -3.1535    2.4674   -0.9521 C   0  0  0  0  0  0  0  0  0  0  0  0
   -2.8634    3.3945   -0.1987 O   0  0  0  0  0  0  0  0  0  0  0  0
   -4.7883    3.0138   -2.7732 C   0  0  0  0  0  0  0  0  0  0  0  0
   -5.2337    3.4049    0.1551 H   0  0  0  0  0  0  0  0  0  0  0  0
   -4.7192    1.1682   -1.6549 H   0  0  0  0  0  0  0  0  0  0  0  0
   -4.6352    4.0886   -2.6221 H   0  0  0  0  0  0  0  0  0  0  0  0
   -4.0976    2.6887   -3.5582 H   0  0  0  0  0  0  0  0  0  0  0  0
   -5.8111    2.8719   -3.1387 H   0  0  0  0  0  0  0  0  0  0  0  0
   -2.2466    1.5400   -1.4507 N   0  0  0  0  0  0  0  0  0  0  0  0
   -0.8424    1.5707   -1.1286 C   0  0  2  0  0  0  0  0  0  0  0  0
   -0.5050    2.9289   -0.5168 C   0  0  0  0  0  0  0  0  0  0  0  0
   -0.3223    3.0940    0.6876 O   0  0  0  0  0  0  0  0  0  0  0  0
    0.0383    1.2092   -2.3271 C   0  0  0  0  0  0  0  0  0  0  0  0
   -0.1725   -0.4941   -2.8992 S   0  0  0  0  0  0  0  0  0  0  0  0
   -2.5850    0.7815   -2.0381 H   0  0  0  0  0  0  0  0  0  0  0  0
   -0.7024    0.8122   -0.3483 H   0  0  0  0  0  0  0  0  0  0  0  0
   -0.1765    1.8682   -3.1746 H   0  0  0  0  0  0  0  0  0  0  0  0
    1.0943    1.3392   -2.0669 H   0  0  0  0  0  0  0  0  0  0  0  0
   -0.4568    3.9364   -1.4698 N   0  0  0  0  0  0  0  0  0  0  0  0
   -0.1804    5.3136   -1.1342 C   0  0  2  0  0  0  0  0  0  0  0  0
   -0.9474    6.1981   -2.1082 C   0  0  0  0  0  0  0  0  0  0  0  0
   -1.1443    5.8899   -3.2818 O   0  0  0  0  0  0  0  0  0  0  0  0
    1.3104    5.6084   -1.1906 C   0  0  0  0  0  0  0  0  0  0  0  0
   -0.5780    3.7028   -2.4509 H   0  0  0  0  0  0  0  0  0  0  0  0
   -0.5589    5.4738   -0.1187 H   0  0  0  0  0  0  0  0  0  0  0  0
    1.7077    5.4535   -2.2004 H   0  0  0  0  0  0  0  0  0  0  0  0
    1.5208    6.6453   -0.9082 H   0  0  0  0  0  0  0  0  0  0  0  0
    1.8637    4.9510   -0.5113 H   0  0  0  0  0  0  0  0  0  0  0  0
   -1.3490    7.3915   -1.5244 N   0  0  0  0  0  0  0  0  0  0  0  0
   -2.0563    8.4174   -2.2546 C   0  0  0  0  0  0  0  0  0  0  0  0
   -1.1783    7.5460   -0.5351 H   0  0  0  0  0  0  0  0  0  0  0  0
   -1.3348    9.1378   -2.6675 H   0  0  0  0  0  0  0  0  0  0  0  0
   -2.6252    7.9568   -3.0757 H   0  0  0  0  0  0  0  0  0  0  0  0
   -2.7480    8.9390   -1.5767 H   0  0  0  0  0  0  0  0  0  0  0  0
  1  3  1  0  0  0  0
  1  7  1  0  0  0  0
  1  2  2  0  0  0  0
 23 25  1  0  0  0  0
 23 29  1  0  0  0  0
 23 24  2  0  0  0  0
 50 51  1  0  0  0  0
 51 59  1  0  0  0  0
 51 52  2  0  0  0  0
  8  9  1  0  0  0  0
  9 17  1  0  0  0  0
  9 10  2  0  0  0  0
 30 31  1  0  0  0  0
 31 39  1  0  0  0  0
 31 32  2  0  0  0  0
 40 41  1  0  0  0  0
 41 49  1  0  0  0  0
 41 42  2  0  0  0  0
 50 53  1  0  0  0  0
 30 33  1  0  0  0  0
 59 60  1  0  0  0  0
 17 18  1  0  0  0  0
  8 11  1  0  0  0  0
 11 12  1  0  0  0  0
 40 43  1  0  0  0  0
 43 44  1  0  0  0  0
 49 50  1  0  0  0  0
  7  8  1  0  0  0  0
 29 30  1  0  0  0  0
 39 40  1  0  0  0  0
 12 44  1  0  0  0  0
  3  4  1  0  0  0  0
  3  5  1  0  0  0  0
  3  6  1  0  0  0  0
 25 26  1  0  0  0  0
 25 27  1  0  0  0  0
 25 28  1  0  0  0  0
 53 56  1  0  0  0  0
 53 57  1  0  0  0  0
 53 58  1  0  0  0  0
 33 36  1  0  0  0  0
 33 37  1  0  0  0  0
 33 38  1  0  0  0  0
 60 62  1  0  0  0  0
 60 63  1  0  0  0  0
 60 64  1  0  0  0  0
 18 20  1  0  0  0  0
 18 21  1  0  0  0  0
 18 22  1  0  0  0  0
 11 15  1  0  0  0  0
 11 16  1  0  0  0  0
 43 47  1  0  0  0  0
 43 48  1  0  0  0  0
 50 55  1  0  0  0  0
  8 14  1  0  0  0  0
 30 35  1  0  0  0  0
 40 46  1  0  0  0  0
 59 61  1  0  0  0  0
 17 19  1  0  0  0  0
  7 13  1  0  0  0  0
 29 34  1  0  0  0  0
 49 54  1  0  0  0  0
 39 45  1  0  0  0  0
M  END
$$$$

  -OEChem-05262214473D

 64 63  0     1  0  0  0  0  0999 V2000
    0.5026   -2.2040   -8.3480 C   0  0  0  0  0  0  0  0  0  0  0  0
   -0.6453   -2.0208   -8.7362 O   0  0  0  0  0  0  0  0  0  0  0  0
    1.1899   -3.4908   -8.6643 C   0  0  0  0  0  0  0  0  0  0  0  0
    1.0280   -4.2559   -7.8881 H   0  0  0  0  0  0  0  0  0  0  0  0
    0.8247   -3.9436   -9.6001 H   0  0  0  0  0  0  0  0  0  0  0  0
    2.2833   -3.4245   -8.7822 H   0  0  0  0  0  0  0  0  0  0  0  0
    1.2722   -1.3147   -7.6181 N   0  0  0  0  0  0  0  0  0  0  0  0
    0.8041   -0.0150   -7.2079 C   0  0  2  0  0  0  0  0  0  0  0  0
    1.9751    0.9651   -7.2398 C   0  0  0  0  0  0  0  0  0  0  0  0
    3.1325    0.6183   -7.4665 O   0  0  0  0  0  0  0  0  0  0  0  0
    0.0826   -0.0548   -5.8585 C   0  0  0  0  0  0  0  0  0  0  0  0
    1.1459   -0.5743   -4.4721 S   0  0  0  0  0  0  0  0  0  0  0  0
    2.2159   -1.5927   -7.3581 H   0  0  0  0  0  0  0  0  0  0  0  0
    0.0894    0.2978   -7.9792 H   0  0  0  0  0  0  0  0  0  0  0  0
   -0.3214    0.9318   -5.6095 H   0  0  0  0  0  0  0  0  0  0  0  0
   -0.7591   -0.7542   -5.9059 H   0  0  0  0  0  0  0  0  0  0  0  0
    1.5788    2.2655   -6.9614 N   0  0  0  0  0  0  0  0  0  0  0  0
    2.5091    3.3689   -6.9086 C   0  0  0  0  0  0  0  0  0  0  0  0
    0.5929    2.4700   -6.8283 H   0  0  0  0  0  0  0  0  0  0  0  0
    2.8544    3.5089   -5.8737 H   0  0  0  0  0  0  0  0  0  0  0  0
    3.3713    3.1527   -7.5566 H   0  0  0  0  0  0  0  0  0  0  0  0
    2.0103    4.2858   -7.2558 H   0  0  0  0  0  0  0  0  0  0  0  0
   -6.7256    2.0330   -0.2766 C   0  0  0  0  0  0  0  0  0  0  0  0
   -7.1824    1.1039   -0.9322 O   0  0  0  0  0  0  0  0  0  0  0  0
   -7.5276    2.6077    0.8435 C   0  0  0  0  0  0  0  0  0  0  0  0
   -8.1775    3.4344    0.5145 H   0  0  0  0  0  0  0  0  0  0  0  0
   -8.2057    1.8676    1.2980 H   0  0  0  0  0  0  0  0  0  0  0  0
   -6.9411    3.0162    1.6819 H   0  0  0  0  0  0  0  0  0  0  0  0
   -5.4935    2.6382   -0.4627 N   0  0  0  0  0  0  0  0  0  0  0  0
   -4.5619    2.2388   -1.4845 C   0  0  2  0  0  0  0  0  0  0  0  0
   -3.1535    2.4674   -0.9521 C   0  0  0  0  0  0  0  0  0  0  0  0
   -2.8634    3.3945   -0.1987 O   0  0  0  0  0  0  0  0  0  0  0  0
   -4.7883    3.0138   -2.7732 C   0  0  0  0  0  0  0  0  0  0  0  0
   -5.2337    3.4049    0.1551 H   0  0  0  0  0  0  0  0  0  0  0  0
   -4.7192    1.1682   -1.6549 H   0  0  0  0  0  0  0  0  0  0  0  0
   -4.6352    4.0886   -2.6221 H   0  0  0  0  0  0  0  0  0  0  0  0
   -4.0976    2.6887   -3.5582 H   0  0  0  0  0  0  0  0  0  0  0  0
   -5.8111    2.8719   -3.1387 H   0  0  0  0  0  0  0  0  0  0  0  0
   -2.2466    1.5400   -1.4507 N   0  0  0  0  0  0  0  0  0  0  0  0
   -0.8424    1.5707   -1.1286 C   0  0  2  0  0  0  0  0  0  0  0  0
   -0.5050    2.9289   -0.5168 C   0  0  0  0  0  0  0  0  0  0  0  0
   -0.0633    3.0587    0.6231 O   0  0  0  0  0  0  0  0  0  0  0  0
    0.0383    1.2092   -2.3271 C   0  0  0  0  0  0  0  0  0  0  0  0
   -0.1725   -0.4941   -2.8992 S   0  0  0  0  0  0  0  0  0  0  0  0
   -2.5850    0.7815   -2.0381 H   0  0  0  0  0  0  0  0  0  0  0  0
   -0.7024    0.8122   -0.3483 H   0  0  0  0  0  0  0  0  0  0  0  0
   -0.1765    1.8682   -3.1746 H   0  0  0  0  0  0  0  0  0  0  0  0
    1.0943    1.3392   -2.0669 H   0  0  0  0  0  0  0  0  0  0  0  0
   -0.7782    3.9774   -1.3837 N   0  0  0  0  0  0  0  0  0  0  0  0
   -0.5661    5.3602   -1.0249 C   0  0  2  0  0  0  0  0  0  0  0  0
   -1.6212    6.1977   -1.7356 C   0  0  0  0  0  0  0  0  0  0  0  0
   -2.0554    5.9228   -2.8522 O   0  0  0  0  0  0  0  0  0  0  0  0
    0.8347    5.8200   -1.3979 C   0  0  0  0  0  0  0  0  0  0  0  0
   -1.1016    3.7764   -2.3253 H   0  0  0  0  0  0  0  0  0  0  0  0
   -0.7111    5.4317    0.0585 H   0  0  0  0  0  0  0  0  0  0  0  0
    0.9986    5.7555   -2.4798 H   0  0  0  0  0  0  0  0  0  0  0  0
    1.0035    6.8600   -1.0995 H   0  0  0  0  0  0  0  0  0  0  0  0
    1.5922    5.1977   -0.9093 H   0  0  0  0  0  0  0  0  0  0  0  0
   -1.9893    7.3119   -0.9945 N   0  0  0  0  0  0  0  0  0  0  0  0
   -2.9434    8.2854   -1.4720 C   0  0  0  0  0  0  0  0  0  0  0  0
   -1.6085    7.4396   -0.0616 H   0  0  0  0  0  0  0  0  0  0  0  0
   -2.4114    9.0989   -1.9871 H   0  0  0  0  0  0  0  0  0  0  0  0
   -3.6406    7.8023   -2.1724 H   0  0  0  0  0  0  0  0  0  0  0  0
   -3.5052    8.6964   -0.6203 H   0  0  0  0  0  0  0  0  0  0  0  0
  1  3  1  0  0  0  0
  1  7  1  0  0  0  0
  1  2  2  0  0  0  0
 23 25  1  0  0  0  0
 23 29  1  0  0  0  0
 23 24  2  0  0  0  0
 50 51  1  0  0  0  0
 51 59  1  0  0  0  0
 51 52  2  0  0  0  0
  8  9  1  0  0  0  0
  9 17  1  0  0  0  0
  9 10  2  0  0  0  0
 30 31  1  0  0  0  0
 31 39  1  0  0  0  0
 31 32  2  0  0  0  0
 40 41  1  0  0  0  0
 41 49  1  0  0  0  0
 41 42  2  0  0  0  0
 50 53  1  0  0  0  0
 30 33  1  0  0  0  0
 59 60  1  0  0  0  0
 17 18  1  0  0  0  0
  8 11  1  0  0  0  0
 11 12  1  0  0  0  0
 40 43  1  0  0  0  0
 43 44  1  0  0  0  0
 49 50  1  0  0  0  0
  7  8  1  0  0  0  0
 29 30  1  0  0  0  0
 39 40  1  0  0  0  0
 12 44  1  0  0  0  0
  3  4  1  0  0  0  0
  3  5  1  0  0  0  0
  3  6  1  0  0  0  0
 25 26  1  0  0  0  0
 25 27  1  0  0  0  0
 25 28  1  0  0  0  0
 53 56  1  0  0  0  0
 53 57  1  0  0  0  0
 53 58  1  0  0  0  0
 33 36  1  0  0  0  0
 33 37  1  0  0  0  0
 33 38  1  0  0  0  0
 60 62  1  0  0  0  0
 60 63  1  0  0  0  0
 60 64  1  0  0  0  0
 18 20  1  0  0  0  0
 18 21  1  0  0  0  0
 18 22  1  0  0  0  0
 11 15  1  0  0  0  0
 11 16  1  0  0  0  0
 43 47  1  0  0  0  0
 43 48  1  0  0  0  0
 50 55  1  0  0  0  0
  8 14  1  0  0  0  0
 30 35  1  0  0  0  0
 40 46  1  0  0  0  0
 59 61  1  0  0  0  0
 17 19  1  0  0  0  0
  7 13  1  0  0  0  0
 29 34  1  0  0  0  0
 49 54  1  0  0  0  0
 39 45  1  0  0  0  0
M  END
$$$$

  -OEChem-05262214473D

 64 63  0     1  0  0  0  0  0999 V2000
    0.5026   -2.2040   -8.3480 C   0  0  0  0  0  0  0  0  0  0  0  0
   -0.6453   -2.0208   -8.7362 O   0  0  0  0  0  0  0  0  0  0  0  0
    1.1899   -3.4908   -8.6643 C   0  0  0  0  0  0  0  0  0  0  0  0
    1.0280   -4.2559   -7.8881 H   0  0  0  0  0  0  0  0  0  0  0  0
    0.8247   -3.9436   -9.6001 H   0  0  0  0  0  0  0  0  0  0  0  0
    2.2833   -3.4245   -8.7822 H   0  0  0  0  0  0  0  0  0  0  0  0
    1.2722   -1.3147   -7.6181 N   0  0  0  0  0  0  0  0  0  0  0  0
    0.8041   -0.0150   -7.2079 C   0  0  2  0  0  0  0  0  0  0  0  0
    1.9751    0.9651   -7.2398 C   0  0  0  0  0  0  0  0  0  0  0  0
    3.1325    0.6183   -7.4665 O   0  0  0  0  0  0  0  0  0  0  0  0
    0.0826   -0.0548   -5.8585 C   0  0  0  0  0  0  0  0  0  0  0  0
    1.1459   -0.5743   -4.4721 S   0  0  0  0  0  0  0  0  0  0  0  0
    2.2159   -1.5927   -7.3581 H   0  0  0  0  0  0  0  0  0  0  0  0
    0.0894    0.2978   -7.9792 H   0  0  0  0  0  0  0  0  0  0  0  0
   -0.3214    0.9318   -5.6095 H   0  0  0  0  0  0  0  0  0  0  0  0
   -0.7591   -0.7542   -5.9059 H   0  0  0  0  0  0  0  0  0  0  0  0
    1.5788    2.2655   -6.9614 N   0  0  0  0  0  0  0  0  0  0  0  0
    2.5091    3.3689   -6.9086 C   0  0  0  0  0  0  0  0  0  0  0  0
    0.5929    2.4700   -6.8283 H   0  0  0  0  0  0  0  0  0  0  0  0
    2.8544    3.5089   -5.8737 H   0  0  0  0  0  0  0  0  0  0  0  0
    3.3713    3.1527   -7.5566 H   0  0  0  0  0  0  0  0  0  0  0  0
    2.0103    4.2858   -7.2558 H   0  0  0  0  0  0  0  0  0  0  0  0
   -6.7256    2.0330   -0.2766 C   0  0  0  0  0  0  0  0  0  0  0  0
   -7.1824    1.1039   -0.9322 O   0  0  0  0  0  0  0  0  0  0  0  0
   -7.5276    2.6077    0.8435 C   0  0  0  0  0  0  0  0  0  0  0  0
   -8.1775    3.4344    0.5145 H   0  0  0  0  0  0  0  0  0  0  0  0
   -8.2057    1.8676    1.2980 H   0  0  0  0  0  0  0  0  0  0  0  0
   -6.9411    3.0162    1.6819 H   0  0  0  0  0  0  0  0  0  0  0  0
   -5.4935    2.6382   -0.4627 N   0  0  0  0  0  0  0  0  0  0  0  0
   -4.5619    2.2388   -1.4845 C   0  0  2  0  0  0  0  0  0  0  0  0
   -3.1535    2.4674   -0.9521 C   0  0  0  0  0  0  0  0  0  0  0  0
   -2.8634    3.3945   -0.1987 O   0  0  0  0  0  0  0  0  0  0  0  0
   -4.7883    3.0138   -2.7732 C   0  0  0  0  0  0  0  0  0  0  0  0
   -5.2337    3.4049    0.1551 H   0  0  0  0  0  0  0  0  0  0  0  0
   -4.7192    1.1682   -1.6549 H   0  0  0  0  0  0  0  0  0  0  0  0
   -4.6352    4.0886   -2.6221 H   0  0  0  0  0  0  0  0  0  0  0  0
   -4.0976    2.6887   -3.5582 H   0  0  0  0  0  0  0  0  0  0  0  0
   -5.8111    2.8719   -3.1387 H   0  0  0  0  0  0  0  0  0  0  0  0
   -2.2466    1.5400   -1.4507 N   0  0  0  0  0  0  0  0  0  0  0  0
   -0.8424    1.5707   -1.1286 C   0  0  2  0  0  0  0  0  0  0  0  0
   -0.5050    2.9289   -0.5168 C   0  0  0  0  0  0  0  0  0  0  0  0
    0.1756    3.0552    0.4992 O   0  0  0  0  0  0  0  0  0  0  0  0
    0.0383    1.2092   -2.3271 C   0  0  0  0  0  0  0  0  0  0  0  0
   -0.1725   -0.4941   -2.8992 S   0  0  0  0  0  0  0  0  0  0  0  0
   -2.5850    0.7815   -2.0381 H   0  0  0  0  0  0  0  0  0  0  0  0
   -0.7024    0.8122   -0.3483 H   0  0  0  0  0  0  0  0  0  0  0  0
   -0.1765    1.8682   -3.1746 H   0  0  0  0  0  0  0  0  0  0  0  0
    1.0943    1.3392   -2.0669 H   0  0  0  0  0  0  0  0  0  0  0  0
   -1.0732    3.9789   -1.2241 N   0  0  0  0  0  0  0  0  0  0  0  0
   -0.9184    5.3590   -0.8279 C   0  0  2  0  0  0  0  0  0  0  0  0
   -2.1861    6.1061   -1.2206 C   0  0  0  0  0  0  0  0  0  0  0  0
   -2.8400    5.8356   -2.2257 O   0  0  0  0  0  0  0  0  0  0  0  0
    0.3055    5.9870   -1.4766 C   0  0  0  0  0  0  0  0  0  0  0  0
   -1.5861    3.7860   -2.0793 H   0  0  0  0  0  0  0  0  0  0  0  0
   -0.8130    5.3652    0.2624 H   0  0  0  0  0  0  0  0  0  0  0  0
    0.2181    5.9897   -2.5692 H   0  0  0  0  0  0  0  0  0  0  0  0
    0.4376    7.0247   -1.1529 H   0  0  0  0  0  0  0  0  0  0  0  0
    1.2127    5.4307   -1.2171 H   0  0  0  0  0  0  0  0  0  0  0  0
   -2.4776    7.1384   -0.3399 N   0  0  0  0  0  0  0  0  0  0  0  0
   -3.6065    8.0211   -0.5195 C   0  0  0  0  0  0  0  0  0  0  0  0
   -1.9039    7.2652    0.4888 H   0  0  0  0  0  0  0  0  0  0  0  0
   -3.2908    8.9107   -1.0843 H   0  0  0  0  0  0  0  0  0  0  0  0
   -4.3976    7.4961   -1.0749 H   0  0  0  0  0  0  0  0  0  0  0  0
   -3.9913    8.3288    0.4640 H   0  0  0  0  0  0  0  0  0  0  0  0
  1  3  1  0  0  0  0
  1  7  1  0  0  0  0
  1  2  2  0  0  0  0
 23 25  1  0  0  0  0
 23 29  1  0  0  0  0
 23 24  2  0  0  0  0
 50 51  1  0  0  0  0
 51 59  1  0  0  0  0
 51 52  2  0  0  0  0
  8  9  1  0  0  0  0
  9 17  1  0  0  0  0
  9 10  2  0  0  0  0
 30 31  1  0  0  0  0
 31 39  1  0  0  0  0
 31 32  2  0  0  0  0
 40 41  1  0  0  0  0
 41 49  1  0  0  0  0
 41 42  2  0  0  0  0
 50 53  1  0  0  0  0
 30 33  1  0  0  0  0
 59 60  1  0  0  0  0
 17 18  1  0  0  0  0
  8 11  1  0  0  0  0
 11 12  1  0  0  0  0
 40 43  1  0  0  0  0
 43 44  1  0  0  0  0
 49 50  1  0  0  0  0
  7  8  1  0  0  0  0
 29 30  1  0  0  0  0
 39 40  1  0  0  0  0
 12 44  1  0  0  0  0
  3  4  1  0  0  0  0
  3  5  1  0  0  0  0
  3  6  1  0  0  0  0
 25 26  1  0  0  0  0
 25 27  1  0  0  0  0
 25 28  1  0  0  0  0
 53 56  1  0  0  0  0
 53 57  1  0  0  0  0
 53 58  1  0  0  0  0
 33 36  1  0  0  0  0
 33 37  1  0  0  0  0
 33 38  1  0  0  0  0
 60 62  1  0  0  0  0
 60 63  1  0  0  0  0
 60 64  1  0  0  0  0
 18 20  1  0  0  0  0
 18 21  1  0  0  0  0
 18 22  1  0  0  0  0
 11 15  1  0  0  0  0
 11 16  1  0  0  0  0
 43 47  1  0  0  0  0
 43 48  1  0  0  0  0
 50 55  1  0  0  0  0
  8 14  1  0  0  0  0
 30 35  1  0  0  0  0
 40 46  1  0  0  0  0
 59 61  1  0  0  0  0
 17 19  1  0  0  0  0
  7 13  1  0  0  0  0
 29 34  1  0  0  0  0
 49 54  1  0  0  0  0
 39 45  1  0  0  0  0
M  END
$$$$

  -OEChem-05262214473D

 64 63  0     1  0  0  0  0  0999 V2000
    0.5026   -2.2040   -8.3480 C   0  0  0  0  0  0  0  0  0  0  0  0
   -0.6453   -2.0208   -8.7362 O   0  0  0  0  0  0  0  0  0  0  0  0
    1.1899   -3.4908   -8.6643 C   0  0  0  0  0  0  0  0  0  0  0  0
    1.0280   -4.2559   -7.8881 H   0  0  0  0  0  0  0  0  0  0  0  0
    0.8247   -3.9436   -9.6001 H   0  0  0  0  0  0  0  0  0  0  0  0
    2.2833   -3.4245   -8.7822 H   0  0  0  0  0  0  0  0  0  0  0  0
    1.2722   -1.3147   -7.6181 N   0  0  0  0  0  0  0  0  0  0  0  0
    0.8041   -0.0150   -7.2079 C   0  0  2  0  0  0  0  0  0  0  0  0
    1.9751    0.9651   -7.2398 C   0  0  0  0  0  0  0  0  0  0  0  0
    3.1325    0.6183   -7.4665 O   0  0  0  0  0  0  0  0  0  0  0  0
    0.0826   -0.0548   -5.8585 C   0  0  0  0  0  0  0  0  0  0  0  0
    1.1459   -0.5743   -4.4721 S   0  0  0  0  0  0  0  0  0  0  0  0
    2.2159   -1.5927   -7.3581 H   0  0  0  0  0  0  0  0  0  0  0  0
    0.0894    0.2978   -7.9792 H   0  0  0  0  0  0  0  0  0  0  0  0
   -0.3214    0.9318   -5.6095 H   0  0  0  0  0  0  0  0  0  0  0  0
   -0.7591   -0.7542   -5.9059 H   0  0  0  0  0  0  0  0  0  0  0  0
    1.5788    2.2655   -6.9614 N   0  0  0  0  0  0  0  0  0  0  0  0
    2.5091    3.3689   -6.9086 C   0  0  0  0  0  0  0  0  0  0  0  0
    0.5929    2.4700   -6.8283 H   0  0  0  0  0  0  0  0  0  0  0  0
    2.8544    3.5089   -5.8737 H   0  0  0  0  0  0  0  0  0  0  0  0
    3.3713    3.1527   -7.5566 H   0  0  0  0  0  0  0  0  0  0  0  0
    2.0103    4.2858   -7.2558 H   0  0  0  0  0  0  0  0  0  0  0  0
   -6.7256    2.0330   -0.2766 C   0  0  0  0  0  0  0  0  0  0  0  0
   -7.1824    1.1039   -0.9322 O   0  0  0  0  0  0  0  0  0  0  0  0
   -7.5276    2.6077    0.8435 C   0  0  0  0  0  0  0  0  0  0  0  0
   -8.1775    3.4344    0.5145 H   0  0  0  0  0  0  0  0  0  0  0  0
   -8.2057    1.8676    1.2980 H   0  0  0  0  0  0  0  0  0  0  0  0
   -6.9411    3.0162    1.6819 H   0  0  0  0  0  0  0  0  0  0  0  0
   -5.4935    2.6382   -0.4627 N   0  0  0  0  0  0  0  0  0  0  0  0
   -4.5619    2.2388   -1.4845 C   0  0  2  0  0  0  0  0  0  0  0  0
   -3.1535    2.4674   -0.9521 C   0  0  0  0  0  0  0  0  0  0  0  0
   -2.8634    3.3945   -0.1987 O   0  0  0  0  0  0  0  0  0  0  0  0
   -4.7883    3.0138   -2.7732 C   0  0  0  0  0  0  0  0  0  0  0  0
   -5.2337    3.4049    0.1551 H   0  0  0  0  0  0  0  0  0  0  0  0
   -4.7192    1.1682   -1.6549 H   0  0  0  0  0  0  0  0  0  0  0  0
   -4.6352    4.0886   -2.6221 H   0  0  0  0  0  0  0  0  0  0  0  0
   -4.0976    2.6887   -3.5582 H   0  0  0  0  0  0  0  0  0  0  0  0
   -5.8111    2.8719   -3.1387 H   0  0  0  0  0  0  0  0  0  0  0  0
   -2.2466    1.5400   -1.4507 N   0  0  0  0  0  0  0  0  0  0  0  0
   -0.8424    1.5707   -1.1286 C   0  0  2  0  0  0  0  0  0  0  0  0
   -0.5050    2.9289   -0.5168 C   0  0  0  0  0  0  0  0  0  0  0  0
    0.3782    3.0836    0.3243 O   0  0  0  0  0  0  0  0  0  0  0  0
    0.0383    1.2092   -2.3271 C   0  0  0  0  0  0  0  0  0  0  0  0
   -0.1725   -0.4941   -2.8992 S   0  0  0  0  0  0  0  0  0  0  0  0
   -2.5850    0.7815   -2.0381 H   0  0  0  0  0  0  0  0  0  0  0  0
   -0.7024    0.8122   -0.3483 H   0  0  0  0  0  0  0  0  0  0  0  0
   -0.1765    1.8682   -3.1746 H   0  0  0  0  0  0  0  0  0  0  0  0
    1.0943    1.3392   -2.0669 H   0  0  0  0  0  0  0  0  0  0  0  0
   -1.3215    3.9405   -1.0020 N   0  0  0  0  0  0  0  0  0  0  0  0
   -1.2131    5.3101   -0.5567 C   0  0  2  0  0  0  0  0  0  0  0  0
   -2.6038    5.9296   -0.5983 C   0  0  0  0  0  0  0  0  0  0  0  0
   -3.4447    5.6342   -1.4449 O   0  0  0  0  0  0  0  0  0  0  0  0
   -0.2411    6.0978   -1.4212 C   0  0  0  0  0  0  0  0  0  0  0  0
   -1.9985    3.7309   -1.7296 H   0  0  0  0  0  0  0  0  0  0  0  0
   -0.8576    5.2787    0.4790 H   0  0  0  0  0  0  0  0  0  0  0  0
   -0.5807    6.1402   -2.4625 H   0  0  0  0  0  0  0  0  0  0  0  0
   -0.1384    7.1281   -1.0649 H   0  0  0  0  0  0  0  0  0  0  0  0
    0.7511    5.6339   -1.4138 H   0  0  0  0  0  0  0  0  0  0  0  0
   -2.7806    6.8827    0.3949 N   0  0  0  0  0  0  0  0  0  0  0  0
   -4.0004    7.6427    0.5380 C   0  0  0  0  0  0  0  0  0  0  0  0
   -2.0446    7.0346    1.0783 H   0  0  0  0  0  0  0  0  0  0  0  0
   -3.9128    8.5862   -0.0206 H   0  0  0  0  0  0  0  0  0  0  0  0
   -4.8444    7.0591    0.1418 H   0  0  0  0  0  0  0  0  0  0  0  0
   -4.1733    7.8614    1.6021 H   0  0  0  0  0  0  0  0  0  0  0  0
  1  3  1  0  0  0  0
  1  7  1  0  0  0  0
  1  2  2  0  0  0  0
 23 25  1  0  0  0  0
 23 29  1  0  0  0  0
 23 24  2  0  0  0  0
 50 51  1  0  0  0  0
 51 59  1  0  0  0  0
 51 52  2  0  0  0  0
  8  9  1  0  0  0  0
  9 17  1  0  0  0  0
  9 10  2  0  0  0  0
 30 31  1  0  0  0  0
 31 39  1  0  0  0  0
 31 32  2  0  0  0  0
 40 41  1  0  0  0  0
 41 49  1  0  0  0  0
 41 42  2  0  0  0  0
 50 53  1  0  0  0  0
 30 33  1  0  0  0  0
 59 60  1  0  0  0  0
 17 18  1  0  0  0  0
  8 11  1  0  0  0  0
 11 12  1  0  0  0  0
 40 43  1  0  0  0  0
 43 44  1  0  0  0  0
 49 50  1  0  0  0  0
  7  8  1  0  0  0  0
 29 30  1  0  0  0  0
 39 40  1  0  0  0  0
 12 44  1  0  0  0  0
  3  4  1  0  0  0  0
  3  5  1  0  0  0  0
  3  6  1  0  0  0  0
 25 26  1  0  0  0  0
 25 27  1  0  0  0  0
 25 28  1  0  0  0  0
 53 56  1  0  0  0  0
 53 57  1  0  0  0  0
 53 58  1  0  0  0  0
 33 36  1  0  0  0  0
 33 37  1  0  0  0  0
 33 38  1  0  0  0  0
 60 62  1  0  0  0  0
 60 63  1  0  0  0  0
 60 64  1  0  0  0  0
 18 20  1  0  0  0  0
 18 21  1  0  0  0  0
 18 22  1  0  0  0  0
 11 15  1  0  0  0  0
 11 16  1  0  0  0  0
 43 47  1  0  0  0  0
 43 48  1  0  0  0  0
 50 55  1  0  0  0  0
  8 14  1  0  0  0  0
 30 35  1  0  0  0  0
 40 46  1  0  0  0  0
 59 61  1  0  0  0  0
 17 19  1  0  0  0  0
  7 13  1  0  0  0  0
 29 34  1  0  0  0  0
 49 54  1  0  0  0  0
 39 45  1  0  0  0  0
M  END
$$$$

  -OEChem-05262214473D

 64 63  0     1  0  0  0  0  0999 V2000
    0.5026   -2.2040   -8.3480 C   0  0  0  0  0  0  0  0  0  0  0  0
   -0.6453   -2.0208   -8.7362 O   0  0  0  0  0  0  0  0  0  0  0  0
    1.1899   -3.4908   -8.6643 C   0  0  0  0  0  0  0  0  0  0  0  0
    1.0280   -4.2559   -7.8881 H   0  0  0  0  0  0  0  0  0  0  0  0
    0.8247   -3.9436   -9.6001 H   0  0  0  0  0  0  0  0  0  0  0  0
    2.2833   -3.4245   -8.7822 H   0  0  0  0  0  0  0  0  0  0  0  0
    1.2722   -1.3147   -7.6181 N   0  0  0  0  0  0  0  0  0  0  0  0
    0.8041   -0.0150   -7.2079 C   0  0  2  0  0  0  0  0  0  0  0  0
    1.9751    0.9651   -7.2398 C   0  0  0  0  0  0  0  0  0  0  0  0
    3.1325    0.6183   -7.4665 O   0  0  0  0  0  0  0  0  0  0  0  0
    0.0826   -0.0548   -5.8585 C   0  0  0  0  0  0  0  0  0  0  0  0
    1.1459   -0.5743   -4.4721 S   0  0  0  0  0  0  0  0  0  0  0  0
    2.2159   -1.5927   -7.3581 H   0  0  0  0  0  0  0  0  0  0  0  0
    0.0894    0.2978   -7.9792 H   0  0  0  0  0  0  0  0  0  0  0  0
   -0.3214    0.9318   -5.6095 H   0  0  0  0  0  0  0  0  0  0  0  0
   -0.7591   -0.7542   -5.9059 H   0  0  0  0  0  0  0  0  0  0  0  0
    1.5788    2.2655   -6.9614 N   0  0  0  0  0  0  0  0  0  0  0  0
    2.5091    3.3689   -6.9086 C   0  0  0  0  0  0  0  0  0  0  0  0
    0.5929    2.4700   -6.8283 H   0  0  0  0  0  0  0  0  0  0  0  0
    2.8544    3.5089   -5.8737 H   0  0  0  0  0  0  0  0  0  0  0  0
    3.3713    3.1527   -7.5566 H   0  0  0  0  0  0  0  0  0  0  0  0
    2.0103    4.2858   -7.2558 H   0  0  0  0  0  0  0  0  0  0  0  0
   -6.7256    2.0330   -0.2766 C   0  0  0  0  0  0  0  0  0  0  0  0
   -7.1824    1.1039   -0.9322 O   0  0  0  0  0  0  0  0  0  0  0  0
   -7.5276    2.6077    0.8435 C   0  0  0  0  0  0  0  0  0  0  0  0
   -8.1775    3.4344    0.5145 H   0  0  0  0  0  0  0  0  0  0  0  0
   -8.2057    1.8676    1.2980 H   0  0  0  0  0  0  0  0  0  0  0  0
   -6.9411    3.0162    1.6819 H   0  0  0  0  0  0  0  0  0  0  0  0
   -5.4935    2.6382   -0.4627 N   0  0  0  0  0  0  0  0  0  0  0  0
   -4.5619    2.2388   -1.4845 C   0  0  2  0  0  0  0  0  0  0  0  0
   -3.1535    2.4674   -0.9521 C   0  0  0  0  0  0  0  0  0  0  0  0
   -2.8634    3.3945   -0.1987 O   0  0  0  0  0  0  0  0  0  0  0  0
   -4.7883    3.0138   -2.7732 C   0  0  0  0  0  0  0  0  0  0  0  0
   -5.2337    3.4049    0.1551 H   0  0  0  0  0  0  0  0  0  0  0  0
   -4.7192    1.1682   -1.6549 H   0  0  0  0  0  0  0  0  0  0  0  0
   -4.6352    4.0886   -2.6221 H   0  0  0  0  0  0  0  0  0  0  0  0
   -4.0976    2.6887   -3.5582 H   0  0  0  0  0  0  0  0  0  0  0  0
   -5.8111    2.8719   -3.1387 H   0  0  0  0  0  0  0  0  0  0  0  0
   -2.2466    1.5400   -1.4507 N   0  0  0  0  0  0  0  0  0  0  0  0
   -0.8424    1.5707   -1.1286 C   0  0  2  0  0  0  0  0  0  0  0  0
   -0.5050    2.9289   -0.5168 C   0  0  0  0  0  0  0  0  0  0  0  0
    0.5307    3.1421    0.1104 O   0  0  0  0  0  0  0  0  0  0  0  0
    0.0383    1.2092   -2.3271 C   0  0  0  0  0  0  0  0  0  0  0  0
   -0.1725   -0.4941   -2.8992 S   0  0  0  0  0  0  0  0  0  0  0  0
   -2.5850    0.7815   -2.0381 H   0  0  0  0  0  0  0  0  0  0  0  0
   -0.7024    0.8122   -0.3483 H   0  0  0  0  0  0  0  0  0  0  0  0
   -0.1765    1.8682   -3.1746 H   0  0  0  0  0  0  0  0  0  0  0  0
    1.0943    1.3392   -2.0669 H   0  0  0  0  0  0  0  0  0  0  0  0
   -1.5063    3.8651   -0.7325 N   0  0  0  0  0  0  0  0  0  0  0  0
   -1.4304    5.2168   -0.2296 C   0  0  2  0  0  0  0  0  0  0  0  0
   -2.8458    5.6803    0.0888 C   0  0  0  0  0  0  0  0  0  0  0  0
   -3.8281    5.3323   -0.5631 O   0  0  0  0  0  0  0  0  0  0  0  0
   -0.7678    6.1451   -1.2356 C   0  0  0  0  0  0  0  0  0  0  0  0
   -2.3107    3.6150   -1.3001 H   0  0  0  0  0  0  0  0  0  0  0  0
   -0.8418    5.1782    0.6935 H   0  0  0  0  0  0  0  0  0  0  0  0
   -1.3433    6.1966   -2.1670 H   0  0  0  0  0  0  0  0  0  0  0  0
   -0.6853    7.1633   -0.8414 H   0  0  0  0  0  0  0  0  0  0  0  0
    0.2390    5.7937   -1.4859 H   0  0  0  0  0  0  0  0  0  0  0  0
   -2.8776    6.5623    1.1598 N   0  0  0  0  0  0  0  0  0  0  0  0
   -4.0982    7.1758    1.6286 C   0  0  0  0  0  0  0  0  0  0  0  0
   -2.0209    6.7635    1.6670 H   0  0  0  0  0  0  0  0  0  0  0  0
   -4.2352    8.1474    1.1314 H   0  0  0  0  0  0  0  0  0  0  0  0
   -4.9507    6.5211    1.3949 H   0  0  0  0  0  0  0  0  0  0  0  0
   -4.0386    7.3259    2.7166 H   0  0  0  0  0  0  0  0  0  0  0  0
  1  3  1  0  0  0  0
  1  7  1  0  0  0  0
  1  2  2  0  0  0  0
 23 25  1  0  0  0  0
 23 29  1  0  0  0  0
 23 24  2  0  0  0  0
 50 51  1  0  0  0  0
 51 59  1  0  0  0  0
 51 52  2  0  0  0  0
  8  9  1  0  0  0  0
  9 17  1  0  0  0  0
  9 10  2  0  0  0  0
 30 31  1  0  0  0  0
 31 39  1  0  0  0  0
 31 32  2  0  0  0  0
 40 41  1  0  0  0  0
 41 49  1  0  0  0  0
 41 42  2  0  0  0  0
 50 53  1  0  0  0  0
 30 33  1  0  0  0  0
 59 60  1  0  0  0  0
 17 18  1  0  0  0  0
  8 11  1  0  0  0  0
 11 12  1  0  0  0  0
 40 43  1  0  0  0  0
 43 44  1  0  0  0  0
 49 50  1  0  0  0  0
  7  8  1  0  0  0  0
 29 30  1  0  0  0  0
 39 40  1  0  0  0  0
 12 44  1  0  0  0  0
  3  4  1  0  0  0  0
  3  5  1  0  0  0  0
  3  6  1  0  0  0  0
 25 26  1  0  0  0  0
 25 27  1  0  0  0  0
 25 28  1  0  0  0  0
 53 56  1  0  0  0  0
 53 57  1  0  0  0  0
 53 58  1  0  0  0  0
 33 36  1  0  0  0  0
 33 37  1  0  0  0  0
 33 38  1  0  0  0  0
 60 62  1  0  0  0  0
 60 63  1  0  0  0  0
 60 64  1  0  0  0  0
 18 20  1  0  0  0  0
 18 21  1  0  0  0  0
 18 22  1  0  0  0  0
 11 15  1  0  0  0  0
 11 16  1  0  0  0  0
 43 47  1  0  0  0  0
 43 48  1  0  0  0  0
 50 55  1  0  0  0  0
  8 14  1  0  0  0  0
 30 35  1  0  0  0  0
 40 46  1  0  0  0  0
 59 61  1  0  0  0  0
 17 19  1  0  0  0  0
  7 13  1  0  0  0  0
 29 34  1  0  0  0  0
 49 54  1  0  0  0  0
 39 45  1  0  0  0  0
M  END
$$$$

  -OEChem-05262214473D

 64 63  0     1  0  0  0  0  0999 V2000
    0.5026   -2.2040   -8.3480 C   0  0  0  0  0  0  0  0  0  0  0  0
   -0.6453   -2.0208   -8.7362 O   0  0  0  0  0  0  0  0  0  0  0  0
    1.1899   -3.4908   -8.6643 C   0  0  0  0  0  0  0  0  0  0  0  0
    1.0280   -4.2559   -7.8881 H   0  0  0  0  0  0  0  0  0  0  0  0
    0.8247   -3.9436   -9.6001 H   0  0  0  0  0  0  0  0  0  0  0  0
    2.2833   -3.4245   -8.7822 H   0  0  0  0  0  0  0  0  0  0  0  0
    1.2722   -1.3147   -7.6181 N   0  0  0  0  0  0  0  0  0  0  0  0
    0.8041   -0.0150   -7.2079 C   0  0  2  0  0  0  0  0  0  0  0  0
    1.9751    0.9651   -7.2398 C   0  0  0  0  0  0  0  0  0  0  0  0
    3.1325    0.6183   -7.4665 O   0  0  0  0  0  0  0  0  0  0  0  0
    0.0826   -0.0548   -5.8585 C   0  0  0  0  0  0  0  0  0  0  0  0
    1.1459   -0.5743   -4.4721 S   0  0  0  0  0  0  0  0  0  0  0  0
    2.2159   -1.5927   -7.3581 H   0  0  0  0  0  0  0  0  0  0  0  0
    0.0894    0.2978   -7.9792 H   0  0  0  0  0  0  0  0  0  0  0  0
   -0.3214    0.9318   -5.6095 H   0  0  0  0  0  0  0  0  0  0  0  0
   -0.7591   -0.7542   -5.9059 H   0  0  0  0  0  0  0  0  0  0  0  0
    1.5788    2.2655   -6.9614 N   0  0  0  0  0  0  0  0  0  0  0  0
    2.5091    3.3689   -6.9086 C   0  0  0  0  0  0  0  0  0  0  0  0
    0.5929    2.4700   -6.8283 H   0  0  0  0  0  0  0  0  0  0  0  0
    2.8544    3.5089   -5.8737 H   0  0  0  0  0  0  0  0  0  0  0  0
    3.3713    3.1527   -7.5566 H   0  0  0  0  0  0  0  0  0  0  0  0
    2.0103    4.2858   -7.2558 H   0  0  0  0  0  0  0  0  0  0  0  0
   -6.7256    2.0330   -0.2766 C   0  0  0  0  0  0  0  0  0  0  0  0
   -7.1824    1.1039   -0.9322 O   0  0  0  0  0  0  0  0  0  0  0  0
   -7.5276    2.6077    0.8435 C   0  0  0  0  0  0  0  0  0  0  0  0
   -8.1775    3.4344    0.5145 H   0  0  0  0  0  0  0  0  0  0  0  0
   -8.2057    1.8676    1.2980 H   0  0  0  0  0  0  0  0  0  0  0  0
   -6.9411    3.0162    1.6819 H   0  0  0  0  0  0  0  0  0  0  0  0
   -5.4935    2.6382   -0.4627 N   0  0  0  0  0  0  0  0  0  0  0  0
   -4.5619    2.2388   -1.4845 C   0  0  2  0  0  0  0  0  0  0  0  0
   -3.1535    2.4674   -0.9521 C   0  0  0  0  0  0  0  0  0  0  0  0
   -2.8634    3.3945   -0.1987 O   0  0  0  0  0  0  0  0  0  0  0  0
   -4.7883    3.0138   -2.7732 C   0  0  0  0  0  0  0  0  0  0  0  0
   -5.2337    3.4049    0.1551 H   0  0  0  0  0  0  0  0  0  0  0  0
   -4.7192    1.1682   -1.6549 H   0  0  0  0  0  0  0  0  0  0  0  0
   -4.6352    4.0886   -2.6221 H   0  0  0  0  0  0  0  0  0  0  0  0
   -4.0976    2.6887   -3.5582 H   0  0  0  0  0  0  0  0  0  0  0  0
   -5.8111    2.8719   -3.1387 H   0  0  0  0  0  0  0  0  0  0  0  0
   -2.2466    1.5400   -1.4507 N   0  0  0  0  0  0  0  0  0  0  0  0
   -0.8424    1.5707   -1.1286 C   0  0  2  0  0  0  0  0  0  0  0  0
   -0.5050    2.9289   -0.5168 C   0  0  0  0  0  0  0  0  0  0  0  0
    0.6227    3.2266   -0.1280 O   0  0  0  0  0  0  0  0  0  0  0  0
    0.0383    1.2092   -2.3271 C   0  0  0  0  0  0  0  0  0  0  0  0
   -0.1725   -0.4941   -2.8992 S   0  0  0  0  0  0  0  0  0  0  0  0
   -2.5850    0.7815   -2.0381 H   0  0  0  0  0  0  0  0  0  0  0  0
   -0.7024    0.8122   -0.3483 H   0  0  0  0  0  0  0  0  0  0  0  0
   -0.1765    1.8682   -3.1746 H   0  0  0  0  0  0  0  0  0  0  0  0
    1.0943    1.3392   -2.0669 H   0  0  0  0  0  0  0  0  0  0  0  0
   -1.6149    3.7576   -0.4340 N   0  0  0  0  0  0  0  0  0  0  0  0
   -1.5553    5.0854    0.1310 C   0  0  2  0  0  0  0  0  0  0  0  0
   -2.8955    5.3750    0.7938 C   0  0  0  0  0  0  0  0  0  0  0  0
   -3.9643    4.9505    0.3596 O   0  0  0  0  0  0  0  0  0  0  0  0
   -1.2388    6.1255   -0.9324 C   0  0  0  0  0  0  0  0  0  0  0  0
   -2.5013    3.4461   -0.8199 H   0  0  0  0  0  0  0  0  0  0  0  0
   -0.7668    5.0705    0.8913 H   0  0  0  0  0  0  0  0  0  0  0  0
   -2.0178    6.1551   -1.7029 H   0  0  0  0  0  0  0  0  0  0  0  0
   -1.1657    7.1279   -0.4976 H   0  0  0  0  0  0  0  0  0  0  0  0
   -0.2889    5.8990   -1.4286 H   0  0  0  0  0  0  0  0  0  0  0  0
   -2.7621    6.1990    1.9026 N   0  0  0  0  0  0  0  0  0  0  0  0
   -3.8933    6.6523    2.6778 C   0  0  0  0  0  0  0  0  0  0  0  0
   -1.8344    6.4705    2.2147 H   0  0  0  0  0  0  0  0  0  0  0  0
   -4.2360    7.6243    2.2933 H   0  0  0  0  0  0  0  0  0  0  0  0
   -4.7092    5.9187    2.5991 H   0  0  0  0  0  0  0  0  0  0  0  0
   -3.5965    6.7589    3.7316 H   0  0  0  0  0  0  0  0  0  0  0  0
  1  3  1  0  0  0  0
  1  7  1  0  0  0  0
  1  2  2  0  0  0  0
 23 25  1  0  0  0  0
 23 29  1  0  0  0  0
 23 24  2  0  0  0  0
 50 51  1  0  0  0  0
 51 59  1  0  0  0  0
 51 52  2  0  0  0  0
  8  9  1  0  0  0  0
  9 17  1  0  0  0  0
  9 10  2  0  0  0  0
 30 31  1  0  0  0  0
 31 39  1  0  0  0  0
 31 32  2  0  0  0  0
 40 41  1  0  0  0  0
 41 49  1  0  0  0  0
 41 42  2  0  0  0  0
 50 53  1  0  0  0  0
 30 33  1  0  0  0  0
 59 60  1  0  0  0  0
 17 18  1  0  0  0  0
  8 11  1  0  0  0  0
 11 12  1  0  0  0  0
 40 43  1  0  0  0  0
 43 44  1  0  0  0  0
 49 50  1  0  0  0  0
  7  8  1  0  0  0  0
 29 30  1  0  0  0  0
 39 40  1  0  0  0  0
 12 44  1  0  0  0  0
  3  4  1  0  0  0  0
  3  5  1  0  0  0  0
  3  6  1  0  0  0  0
 25 26  1  0  0  0  0
 25 27  1  0  0  0  0
 25 28  1  0  0  0  0
 53 56  1  0  0  0  0
 53 57  1  0  0  0  0
 53 58  1  0  0  0  0
 33 36  1  0  0  0  0
 33 37  1  0  0  0  0
 33 38  1  0  0  0  0
 60 62  1  0  0  0  0
 60 63  1  0  0  0  0
 60 64  1  0  0  0  0
 18 20  1  0  0  0  0
 18 21  1  0  0  0  0
 18 22  1  0  0  0  0
 11 15  1  0  0  0  0
 11 16  1  0  0  0  0
 43 47  1  0  0  0  0
 43 48  1  0  0  0  0
 50 55  1  0  0  0  0
  8 14  1  0  0  0  0
 30 35  1  0  0  0  0
 40 46  1  0  0  0  0
 59 61  1  0  0  0  0
 17 19  1  0  0  0  0
  7 13  1  0  0  0  0
 29 34  1  0  0  0  0
 49 54  1  0  0  0  0
 39 45  1  0  0  0  0
M  END
$$$$

  -OEChem-05262214473D

 64 63  0     1  0  0  0  0  0999 V2000
    0.5026   -2.2040   -8.3480 C   0  0  0  0  0  0  0  0  0  0  0  0
   -0.6453   -2.0208   -8.7362 O   0  0  0  0  0  0  0  0  0  0  0  0
    1.1899   -3.4908   -8.6643 C   0  0  0  0  0  0  0  0  0  0  0  0
    1.0280   -4.2559   -7.8881 H   0  0  0  0  0  0  0  0  0  0  0  0
    0.8247   -3.9436   -9.6001 H   0  0  0  0  0  0  0  0  0  0  0  0
    2.2833   -3.4245   -8.7822 H   0  0  0  0  0  0  0  0  0  0  0  0
    1.2722   -1.3147   -7.6181 N   0  0  0  0  0  0  0  0  0  0  0  0
    0.8041   -0.0150   -7.2079 C   0  0  2  0  0  0  0  0  0  0  0  0
    1.9751    0.9651   -7.2398 C   0  0  0  0  0  0  0  0  0  0  0  0
    3.1325    0.6183   -7.4665 O   0  0  0  0  0  0  0  0  0  0  0  0
    0.0826   -0.0548   -5.8585 C   0  0  0  0  0  0  0  0  0  0  0  0
    1.1459   -0.5743   -4.4721 S   0  0  0  0  0  0  0  0  0  0  0  0
    2.2159   -1.5927   -7.3581 H   0  0  0  0  0  0  0  0  0  0  0  0
    0.0894    0.2978   -7.9792 H   0  0  0  0  0  0  0  0  0  0  0  0
   -0.3214    0.9318   -5.6095 H   0  0  0  0  0  0  0  0  0  0  0  0
   -0.7591   -0.7542   -5.9059 H   0  0  0  0  0  0  0  0  0  0  0  0
    1.5788    2.2655   -6.9614 N   0  0  0  0  0  0  0  0  0  0  0  0
    2.5091    3.3689   -6.9086 C   0  0  0  0  0  0  0  0  0  0  0  0
    0.5929    2.4700   -6.8283 H   0  0  0  0  0  0  0  0  0  0  0  0
    2.8544    3.5089   -5.8737 H   0  0  0  0  0  0  0  0  0  0  0  0
    3.3713    3.1527   -7.5566 H   0  0  0  0  0  0  0  0  0  0  0  0
    2.0103    4.2858   -7.2558 H   0  0  0  0  0  0  0  0  0  0  0  0
   -6.7256    2.0330   -0.2766 C   0  0  0  0  0  0  0  0  0  0  0  0
   -7.1824    1.1039   -0.9322 O   0  0  0  0  0  0  0  0  0  0  0  0
   -7.5276    2.6077    0.8435 C   0  0  0  0  0  0  0  0  0  0  0  0
   -8.1775    3.4344    0.5145 H   0  0  0  0  0  0  0  0  0  0  0  0
   -8.2057    1.8676    1.2980 H   0  0  0  0  0  0  0  0  0  0  0  0
   -6.9411    3.0162    1.6819 H   0  0  0  0  0  0  0  0  0  0  0  0
   -5.4935    2.6382   -0.4627 N   0  0  0  0  0  0  0  0  0  0  0  0
   -4.5619    2.2388   -1.4845 C   0  0  2  0  0  0  0  0  0  0  0  0
   -3.1535    2.4674   -0.9521 C   0  0  0  0  0  0  0  0  0  0  0  0
   -2.8634    3.3945   -0.1987 O   0  0  0  0  0  0  0  0  0  0  0  0
   -4.7883    3.0138   -2.7732 C   0  0  0  0  0  0  0  0  0  0  0  0
   -5.2337    3.4049    0.1551 H   0  0  0  0  0  0  0  0  0  0  0  0
   -4.7192    1.1682   -1.6549 H   0  0  0  0  0  0  0  0  0  0  0  0
   -4.6352    4.0886   -2.6221 H   0  0  0  0  0  0  0  0  0  0  0  0
   -4.0976    2.6887   -3.5582 H   0  0  0  0  0  0  0  0  0  0  0  0
   -5.8111    2.8719   -3.1387 H   0  0  0  0  0  0  0  0  0  0  0  0
   -2.2466    1.5400   -1.4507 N   0  0  0  0  0  0  0  0  0  0  0  0
   -0.8424    1.5707   -1.1286 C   0  0  2  0  0  0  0  0  0  0  0  0
   -0.5050    2.9289   -0.5168 C   0  0  0  0  0  0  0  0  0  0  0  0
    0.6479    3.3314   -0.3746 O   0  0  0  0  0  0  0  0  0  0  0  0
    0.0383    1.2092   -2.3271 C   0  0  0  0  0  0  0  0  0  0  0  0
   -0.1725   -0.4941   -2.8992 S   0  0  0  0  0  0  0  0  0  0  0  0
   -2.5850    0.7815   -2.0381 H   0  0  0  0  0  0  0  0  0  0  0  0
   -0.7024    0.8122   -0.3483 H   0  0  0  0  0  0  0  0  0  0  0  0
   -0.1765    1.8682   -3.1746 H   0  0  0  0  0  0  0  0  0  0  0  0
    1.0943    1.3392   -2.0669 H   0  0  0  0  0  0  0  0  0  0  0  0
   -1.6400    3.6255   -0.1269 N   0  0  0  0  0  0  0  0  0  0  0  0
   -1.5793    4.9249    0.5005 C   0  0  2  0  0  0  0  0  0  0  0  0
   -2.7496    5.0347    1.4689 C   0  0  0  0  0  0  0  0  0  0  0  0
   -3.8438    4.5148    1.2604 O   0  0  0  0  0  0  0  0  0  0  0  0
   -1.6218    6.0405   -0.5322 C   0  0  0  0  0  0  0  0  0  0  0  0
   -2.5574    3.2358   -0.3220 H   0  0  0  0  0  0  0  0  0  0  0  0
   -0.6376    4.9629    1.0589 H   0  0  0  0  0  0  0  0  0  0  0  0
   -2.5581    6.0186   -1.1017 H   0  0  0  0  0  0  0  0  0  0  0  0
   -1.5470    7.0241   -0.0570 H   0  0  0  0  0  0  0  0  0  0  0  0
   -0.7965    5.9427   -1.2457 H   0  0  0  0  0  0  0  0  0  0  0  0
   -2.4419    5.8176    2.5728 N   0  0  0  0  0  0  0  0  0  0  0  0
   -3.3997    6.1079    3.6141 C   0  0  0  0  0  0  0  0  0  0  0  0
   -1.4978    6.1755    2.6840 H   0  0  0  0  0  0  0  0  0  0  0  0
   -3.9152    7.0525    3.3859 H   0  0  0  0  0  0  0  0  0  0  0  0
   -4.1363    5.2930    3.6721 H   0  0  0  0  0  0  0  0  0  0  0  0
   -2.8771    6.1991    4.5778 H   0  0  0  0  0  0  0  0  0  0  0  0
  1  3  1  0  0  0  0
  1  7  1  0  0  0  0
  1  2  2  0  0  0  0
 23 25  1  0  0  0  0
 23 29  1  0  0  0  0
 23 24  2  0  0  0  0
 50 51  1  0  0  0  0
 51 59  1  0  0  0  0
 51 52  2  0  0  0  0
  8  9  1  0  0  0  0
  9 17  1  0  0  0  0
  9 10  2  0  0  0  0
 30 31  1  0  0  0  0
 31 39  1  0  0  0  0
 31 32  2  0  0  0  0
 40 41  1  0  0  0  0
 41 49  1  0  0  0  0
 41 42  2  0  0  0  0
 50 53  1  0  0  0  0
 30 33  1  0  0  0  0
 59 60  1  0  0  0  0
 17 18  1  0  0  0  0
  8 11  1  0  0  0  0
 11 12  1  0  0  0  0
 40 43  1  0  0  0  0
 43 44  1  0  0  0  0
 49 50  1  0  0  0  0
  7  8  1  0  0  0  0
 29 30  1  0  0  0  0
 39 40  1  0  0  0  0
 12 44  1  0  0  0  0
  3  4  1  0  0  0  0
  3  5  1  0  0  0  0
  3  6  1  0  0  0  0
 25 26  1  0  0  0  0
 25 27  1  0  0  0  0
 25 28  1  0  0  0  0
 53 56  1  0  0  0  0
 53 57  1  0  0  0  0
 53 58  1  0  0  0  0
 33 36  1  0  0  0  0
 33 37  1  0  0  0  0
 33 38  1  0  0  0  0
 60 62  1  0  0  0  0
 60 63  1  0  0  0  0
 60 64  1  0  0  0  0
 18 20  1  0  0  0  0
 18 21  1  0  0  0  0
 18 22  1  0  0  0  0
 11 15  1  0  0  0  0
 11 16  1  0  0  0  0
 43 47  1  0  0  0  0
 43 48  1  0  0  0  0
 50 55  1  0  0  0  0
  8 14  1  0  0  0  0
 30 35  1  0  0  0  0
 40 46  1  0  0  0  0
 59 61  1  0  0  0  0
 17 19  1  0  0  0  0
  7 13  1  0  0  0  0
 29 34  1  0  0  0  0
 49 54  1  0  0  0  0
 39 45  1  0  0  0  0
M  END
$$$$

  -OEChem-05262214473D

 64 63  0     1  0  0  0  0  0999 V2000
    0.5026   -2.2040   -8.3480 C   0  0  0  0  0  0  0  0  0  0  0  0
   -0.6453   -2.0208   -8.7362 O   0  0  0  0  0  0  0  0  0  0  0  0
    1.1899   -3.4908   -8.6643 C   0  0  0  0  0  0  0  0  0  0  0  0
    1.0280   -4.2559   -7.8881 H   0  0  0  0  0  0  0  0  0  0  0  0
    0.8247   -3.9436   -9.6001 H   0  0  0  0  0  0  0  0  0  0  0  0
    2.2833   -3.4245   -8.7822 H   0  0  0  0  0  0  0  0  0  0  0  0
    1.2722   -1.3147   -7.6181 N   0  0  0  0  0  0  0  0  0  0  0  0
    0.8041   -0.0150   -7.2079 C   0  0  2  0  0  0  0  0  0  0  0  0
    1.9751    0.9651   -7.2398 C   0  0  0  0  0  0  0  0  0  0  0  0
    3.1325    0.6183   -7.4665 O   0  0  0  0  0  0  0  0  0  0  0  0
    0.0826   -0.0548   -5.8585 C   0  0  0  0  0  0  0  0  0  0  0  0
    1.1459   -0.5743   -4.4721 S   0  0  0  0  0  0  0  0  0  0  0  0
    2.2159   -1.5927   -7.3581 H   0  0  0  0  0  0  0  0  0  0  0  0
    0.0894    0.2978   -7.9792 H   0  0  0  0  0  0  0  0  0  0  0  0
   -0.3214    0.9318   -5.6095 H   0  0  0  0  0  0  0  0  0  0  0  0
   -0.7591   -0.7542   -5.9059 H   0  0  0  0  0  0  0  0  0  0  0  0
    1.5788    2.2655   -6.9614 N   0  0  0  0  0  0  0  0  0  0  0  0
    2.5091    3.3689   -6.9086 C   0  0  0  0  0  0  0  0  0  0  0  0
    0.5929    2.4700   -6.8283 H   0  0  0  0  0  0  0  0  0  0  0  0
    2.8544    3.5089   -5.8737 H   0  0  0  0  0  0  0  0  0  0  0  0
    3.3713    3.1527   -7.5566 H   0  0  0  0  0  0  0  0  0  0  0  0
    2.0103    4.2858   -7.2558 H   0  0  0  0  0  0  0  0  0  0  0  0
   -6.7256    2.0330   -0.2766 C   0  0  0  0  0  0  0  0  0  0  0  0
   -7.1824    1.1039   -0.9322 O   0  0  0  0  0  0  0  0  0  0  0  0
   -7.5276    2.6077    0.8435 C   0  0  0  0  0  0  0  0  0  0  0  0
   -8.1775    3.4344    0.5145 H   0  0  0  0  0  0  0  0  0  0  0  0
   -8.2057    1.8676    1.2980 H   0  0  0  0  0  0  0  0  0  0  0  0
   -6.9411    3.0162    1.6819 H   0  0  0  0  0  0  0  0  0  0  0  0
   -5.4935    2.6382   -0.4627 N   0  0  0  0  0  0  0  0  0  0  0  0
   -4.5619    2.2388   -1.4845 C   0  0  2  0  0  0  0  0  0  0  0  0
   -3.1535    2.4674   -0.9521 C   0  0  0  0  0  0  0  0  0  0  0  0
   -2.8634    3.3945   -0.1987 O   0  0  0  0  0  0  0  0  0  0  0  0
   -4.7883    3.0138   -2.7732 C   0  0  0  0  0  0  0  0  0  0  0  0
   -5.2337    3.4049    0.1551 H   0  0  0  0  0  0  0  0  0  0  0  0
   -4.7192    1.1682   -1.6549 H   0  0  0  0  0  0  0  0  0  0  0  0
   -4.6352    4.0886   -2.6221 H   0  0  0  0  0  0  0  0  0  0  0  0
   -4.0976    2.6887   -3.5582 H   0  0  0  0  0  0  0  0  0  0  0  0
   -5.8111    2.8719   -3.1387 H   0  0  0  0  0  0  0  0  0  0  0  0
   -2.2466    1.5400   -1.4507 N   0  0  0  0  0  0  0  0  0  0  0  0
   -0.8424    1.5707   -1.1286 C   0  0  2  0  0  0  0  0  0  0  0  0
   -0.5050    2.9289   -0.5168 C   0  0  0  0  0  0  0  0  0  0  0  0
    0.6047    3.4493   -0.6127 O   0  0  0  0  0  0  0  0  0  0  0  0
    0.0383    1.2092   -2.3271 C   0  0  0  0  0  0  0  0  0  0  0  0
   -0.1725   -0.4941   -2.8992 S   0  0  0  0  0  0  0  0  0  0  0  0
   -2.5850    0.7815   -2.0381 H   0  0  0  0  0  0  0  0  0  0  0  0
   -0.7024    0.8122   -0.3483 H   0  0  0  0  0  0  0  0  0  0  0  0
   -0.1765    1.8682   -3.1746 H   0  0  0  0  0  0  0  0  0  0  0  0
    1.0943    1.3392   -2.0669 H   0  0  0  0  0  0  0  0  0  0  0  0
   -1.5798    3.4777    0.1681 N   0  0  0  0  0  0  0  0  0  0  0  0
   -1.5008    4.7463    0.8538 C   0  0  2  0  0  0  0  0  0  0  0  0
   -2.4180    4.6825    2.0679 C   0  0  0  0  0  0  0  0  0  0  0  0
   -3.4750    4.0550    2.0779 O   0  0  0  0  0  0  0  0  0  0  0  0
   -1.8909    5.8957   -0.0624 C   0  0  0  0  0  0  0  0  0  0  0  0
   -2.4752    2.9983    0.1599 H   0  0  0  0  0  0  0  0  0  0  0  0
   -0.4631    4.8627    1.1850 H   0  0  0  0  0  0  0  0  0  0  0  0
   -2.9276    5.7963   -0.4044 H   0  0  0  0  0  0  0  0  0  0  0  0
   -1.8031    6.8592    0.4504 H   0  0  0  0  0  0  0  0  0  0  0  0
   -1.2492    5.9219   -0.9497 H   0  0  0  0  0  0  0  0  0  0  0  0
   -1.9388    5.4441    3.1246 N   0  0  0  0  0  0  0  0  0  0  0  0
   -2.6509    5.5797    4.3738 C   0  0  0  0  0  0  0  0  0  0  0  0
   -1.0341    5.8986    3.0430 H   0  0  0  0  0  0  0  0  0  0  0  0
   -3.2945    6.4709    4.3347 H   0  0  0  0  0  0  0  0  0  0  0  0
   -3.2711    4.6867    4.5410 H   0  0  0  0  0  0  0  0  0  0  0  0
   -1.9294    5.6845    5.1975 H   0  0  0  0  0  0  0  0  0  0  0  0
  1  3  1  0  0  0  0
  1  7  1  0  0  0  0
  1  2  2  0  0  0  0
 23 25  1  0  0  0  0
 23 29  1  0  0  0  0
 23 24  2  0  0  0  0
 50 51  1  0  0  0  0
 51 59  1  0  0  0  0
 51 52  2  0  0  0  0
  8  9  1  0  0  0  0
  9 17  1  0  0  0  0
  9 10  2  0  0  0  0
 30 31  1  0  0  0  0
 31 39  1  0  0  0  0
 31 32  2  0  0  0  0
 40 41  1  0  0  0  0
 41 49  1  0  0  0  0
 41 42  2  0  0  0  0
 50 53  1  0  0  0  0
 30 33  1  0  0  0  0
 59 60  1  0  0  0  0
 17 18  1  0  0  0  0
  8 11  1  0  0  0  0
 11 12  1  0  0  0  0
 40 43  1  0  0  0  0
 43 44  1  0  0  0  0
 49 50  1  0  0  0  0
  7  8  1  0  0  0  0
 29 30  1  0  0  0  0
 39 40  1  0  0  0  0
 12 44  1  0  0  0  0
  3  4  1  0  0  0  0
  3  5  1  0  0  0  0
  3  6  1  0  0  0  0
 25 26  1  0  0  0  0
 25 27  1  0  0  0  0
 25 28  1  0  0  0  0
 53 56  1  0  0  0  0
 53 57  1  0  0  0  0
 53 58  1  0  0  0  0
 33 36  1  0  0  0  0
 33 37  1  0  0  0  0
 33 38  1  0  0  0  0
 60 62  1  0  0  0  0
 60 63  1  0  0  0  0
 60 64  1  0  0  0  0
 18 20  1  0  0  0  0
 18 21  1  0  0  0  0
 18 22  1  0  0  0  0
 11 15  1  0  0  0  0
 11 16  1  0  0  0  0
 43 47  1  0  0  0  0
 43 48  1  0  0  0  0
 50 55  1  0  0  0  0
  8 14  1  0  0  0  0
 30 35  1  0  0  0  0
 40 46  1  0  0  0  0
 59 61  1  0  0  0  0
 17 19  1  0  0  0  0
  7 13  1  0  0  0  0
 29 34  1  0  0  0  0
 49 54  1  0  0  0  0
 39 45  1  0  0  0  0
M  END
$$$$

  -OEChem-05262214473D

 64 63  0     1  0  0  0  0  0999 V2000
    0.5026   -2.2040   -8.3480 C   0  0  0  0  0  0  0  0  0  0  0  0
   -0.6453   -2.0208   -8.7362 O   0  0  0  0  0  0  0  0  0  0  0  0
    1.1899   -3.4908   -8.6643 C   0  0  0  0  0  0  0  0  0  0  0  0
    1.0280   -4.2559   -7.8881 H   0  0  0  0  0  0  0  0  0  0  0  0
    0.8247   -3.9436   -9.6001 H   0  0  0  0  0  0  0  0  0  0  0  0
    2.2833   -3.4245   -8.7822 H   0  0  0  0  0  0  0  0  0  0  0  0
    1.2722   -1.3147   -7.6181 N   0  0  0  0  0  0  0  0  0  0  0  0
    0.8041   -0.0150   -7.2079 C   0  0  2  0  0  0  0  0  0  0  0  0
    1.9751    0.9651   -7.2398 C   0  0  0  0  0  0  0  0  0  0  0  0
    3.1325    0.6183   -7.4665 O   0  0  0  0  0  0  0  0  0  0  0  0
    0.0826   -0.0548   -5.8585 C   0  0  0  0  0  0  0  0  0  0  0  0
    1.1459   -0.5743   -4.4721 S   0  0  0  0  0  0  0  0  0  0  0  0
    2.2159   -1.5927   -7.3581 H   0  0  0  0  0  0  0  0  0  0  0  0
    0.0894    0.2978   -7.9792 H   0  0  0  0  0  0  0  0  0  0  0  0
   -0.3214    0.9318   -5.6095 H   0  0  0  0  0  0  0  0  0  0  0  0
   -0.7591   -0.7542   -5.9059 H   0  0  0  0  0  0  0  0  0  0  0  0
    1.5788    2.2655   -6.9614 N   0  0  0  0  0  0  0  0  0  0  0  0
    2.5091    3.3689   -6.9086 C   0  0  0  0  0  0  0  0  0  0  0  0
    0.5929    2.4700   -6.8283 H   0  0  0  0  0  0  0  0  0  0  0  0
    2.8544    3.5089   -5.8737 H   0  0  0  0  0  0  0  0  0  0  0  0
    3.3713    3.1527   -7.5566 H   0  0  0  0  0  0  0  0  0  0  0  0
    2.0103    4.2858   -7.2558 H   0  0  0  0  0  0  0  0  0  0  0  0
   -6.7256    2.0330   -0.2766 C   0  0  0  0  0  0  0  0  0  0  0  0
   -7.1824    1.1039   -0.9322 O   0  0  0  0  0  0  0  0  0  0  0  0
   -7.5276    2.6077    0.8435 C   0  0  0  0  0  0  0  0  0  0  0  0
   -8.1775    3.4344    0.5145 H   0  0  0  0  0  0  0  0  0  0  0  0
   -8.2057    1.8676    1.2980 H   0  0  0  0  0  0  0  0  0  0  0  0
   -6.9411    3.0162    1.6819 H   0  0  0  0  0  0  0  0  0  0  0  0
   -5.4935    2.6382   -0.4627 N   0  0  0  0  0  0  0  0  0  0  0  0
   -4.5619    2.2388   -1.4845 C   0  0  2  0  0  0  0  0  0  0  0  0
   -3.1535    2.4674   -0.9521 C   0  0  0  0  0  0  0  0  0  0  0  0
   -2.8634    3.3945   -0.1987 O   0  0  0  0  0  0  0  0  0  0  0  0
   -4.7883    3.0138   -2.7732 C   0  0  0  0  0  0  0  0  0  0  0  0
   -5.2337    3.4049    0.1551 H   0  0  0  0  0  0  0  0  0  0  0  0
   -4.7192    1.1682   -1.6549 H   0  0  0  0  0  0  0  0  0  0  0  0
   -4.6352    4.0886   -2.6221 H   0  0  0  0  0  0  0  0  0  0  0  0
   -4.0976    2.6887   -3.5582 H   0  0  0  0  0  0  0  0  0  0  0  0
   -5.8111    2.8719   -3.1387 H   0  0  0  0  0  0  0  0  0  0  0  0
   -2.2466    1.5400   -1.4507 N   0  0  0  0  0  0  0  0  0  0  0  0
   -0.8424    1.5707   -1.1286 C   0  0  2  0  0  0  0  0  0  0  0  0
   -0.5050    2.9289   -0.5168 C   0  0  0  0  0  0  0  0  0  0  0  0
    0.4959    3.5724   -0.8259 O   0  0  0  0  0  0  0  0  0  0  0  0
    0.0383    1.2092   -2.3271 C   0  0  0  0  0  0  0  0  0  0  0  0
   -0.1725   -0.4941   -2.8992 S   0  0  0  0  0  0  0  0  0  0  0  0
   -2.5850    0.7815   -2.0381 H   0  0  0  0  0  0  0  0  0  0  0  0
   -0.7024    0.8122   -0.3483 H   0  0  0  0  0  0  0  0  0  0  0  0
   -0.1765    1.8682   -3.1746 H   0  0  0  0  0  0  0  0  0  0  0  0
    1.0943    1.3392   -2.0669 H   0  0  0  0  0  0  0  0  0  0  0  0
   -1.4385    3.3243    0.4307 N   0  0  0  0  0  0  0  0  0  0  0  0
   -1.3252    4.5617    1.1668 C   0  0  2  0  0  0  0  0  0  0  0  0
   -1.9234    4.3425    2.5501 C   0  0  0  0  0  0  0  0  0  0  0  0
   -2.8829    3.6023    2.7564 O   0  0  0  0  0  0  0  0  0  0  0  0
   -2.0277    5.7012    0.4451 C   0  0  0  0  0  0  0  0  0  0  0  0
   -2.2603    2.7499    0.5929 H   0  0  0  0  0  0  0  0  0  0  0  0
   -0.2552    4.7769    1.2609 H   0  0  0  0  0  0  0  0  0  0  0  0
   -3.1009    5.5035    0.3414 H   0  0  0  0  0  0  0  0  0  0  0  0
   -1.9166    6.6444    0.9901 H   0  0  0  0  0  0  0  0  0  0  0  0
   -1.6163    5.8379   -0.5608 H   0  0  0  0  0  0  0  0  0  0  0  0
   -1.2871    5.1039    3.5205 N   0  0  0  0  0  0  0  0  0  0  0  0
   -1.6980    5.1037    4.9051 C   0  0  0  0  0  0  0  0  0  0  0  0
   -0.4748    5.6586    3.2672 H   0  0  0  0  0  0  0  0  0  0  0  0
   -2.4163    5.9193    5.0751 H   0  0  0  0  0  0  0  0  0  0  0  0
   -2.1726    4.1411    5.1465 H   0  0  0  0  0  0  0  0  0  0  0  0
   -0.8180    5.2502    5.5486 H   0  0  0  0  0  0  0  0  0  0  0  0
  1  3  1  0  0  0  0
  1  7  1  0  0  0  0
  1  2  2  0  0  0  0
 23 25  1  0  0  0  0
 23 29  1  0  0  0  0
 23 24  2  0  0  0  0
 50 51  1  0  0  0  0
 51 59  1  0  0  0  0
 51 52  2  0  0  0  0
  8  9  1  0  0  0  0
  9 17  1  0  0  0  0
  9 10  2  0  0  0  0
 30 31  1  0  0  0  0
 31 39  1  0  0  0  0
 31 32  2  0  0  0  0
 40 41  1  0  0  0  0
 41 49  1  0  0  0  0
 41 42  2  0  0  0  0
 50 53  1  0  0  0  0
 30 33  1  0  0  0  0
 59 60  1  0  0  0  0
 17 18  1  0  0  0  0
  8 11  1  0  0  0  0
 11 12  1  0  0  0  0
 40 43  1  0  0  0  0
 43 44  1  0  0  0  0
 49 50  1  0  0  0  0
  7  8  1  0  0  0  0
 29 30  1  0  0  0  0
 39 40  1  0  0  0  0
 12 44  1  0  0  0  0
  3  4  1  0  0  0  0
  3  5  1  0  0  0  0
  3  6  1  0  0  0  0
 25 26  1  0  0  0  0
 25 27  1  0  0  0  0
 25 28  1  0  0  0  0
 53 56  1  0  0  0  0
 53 57  1  0  0  0  0
 53 58  1  0  0  0  0
 33 36  1  0  0  0  0
 33 37  1  0  0  0  0
 33 38  1  0  0  0  0
 60 62  1  0  0  0  0
 60 63  1  0  0  0  0
 60 64  1  0  0  0  0
 18 20  1  0  0  0  0
 18 21  1  0  0  0  0
 18 22  1  0  0  0  0
 11 15  1  0  0  0  0
 11 16  1  0  0  0  0
 43 47  1  0  0  0  0
 43 48  1  0  0  0  0
 50 55  1  0  0  0  0
  8 14  1  0  0  0  0
 30 35  1  0  0  0  0
 40 46  1  0  0  0  0
 59 61  1  0  0  0  0
 17 19  1  0  0  0  0
  7 13  1  0  0  0  0
 29 34  1  0  0  0  0
 49 54  1  0  0  0  0
 39 45  1  0  0  0  0
M  END
$$$$

  -OEChem-05262214473D

 64 63  0     1  0  0  0  0  0999 V2000
    0.5026   -2.2040   -8.3480 C   0  0  0  0  0  0  0  0  0  0  0  0
   -0.6453   -2.0208   -8.7362 O   0  0  0  0  0  0  0  0  0  0  0  0
    1.1899   -3.4908   -8.6643 C   0  0  0  0  0  0  0  0  0  0  0  0
    1.0280   -4.2559   -7.8881 H   0  0  0  0  0  0  0  0  0  0  0  0
    0.8247   -3.9436   -9.6001 H   0  0  0  0  0  0  0  0  0  0  0  0
    2.2833   -3.4245   -8.7822 H   0  0  0  0  0  0  0  0  0  0  0  0
    1.2722   -1.3147   -7.6181 N   0  0  0  0  0  0  0  0  0  0  0  0
    0.8041   -0.0150   -7.2079 C   0  0  2  0  0  0  0  0  0  0  0  0
    1.9751    0.9651   -7.2398 C   0  0  0  0  0  0  0  0  0  0  0  0
    3.1325    0.6183   -7.4665 O   0  0  0  0  0  0  0  0  0  0  0  0
    0.0826   -0.0548   -5.8585 C   0  0  0  0  0  0  0  0  0  0  0  0
    1.1459   -0.5743   -4.4721 S   0  0  0  0  0  0  0  0  0  0  0  0
    2.2159   -1.5927   -7.3581 H   0  0  0  0  0  0  0  0  0  0  0  0
    0.0894    0.2978   -7.9792 H   0  0  0  0  0  0  0  0  0  0  0  0
   -0.3214    0.9318   -5.6095 H   0  0  0  0  0  0  0  0  0  0  0  0
   -0.7591   -0.7542   -5.9059 H   0  0  0  0  0  0  0  0  0  0  0  0
    1.5788    2.2655   -6.9614 N   0  0  0  0  0  0  0  0  0  0  0  0
    2.5091    3.3689   -6.9086 C   0  0  0  0  0  0  0  0  0  0  0  0
    0.5929    2.4700   -6.8283 H   0  0  0  0  0  0  0  0  0  0  0  0
    2.8544    3.5089   -5.8737 H   0  0  0  0  0  0  0  0  0  0  0  0
    3.3713    3.1527   -7.5566 H   0  0  0  0  0  0  0  0  0  0  0  0
    2.0103    4.2858   -7.2558 H   0  0  0  0  0  0  0  0  0  0  0  0
   -6.7256    2.0330   -0.2766 C   0  0  0  0  0  0  0  0  0  0  0  0
   -7.1824    1.1039   -0.9322 O   0  0  0  0  0  0  0  0  0  0  0  0
   -7.5276    2.6077    0.8435 C   0  0  0  0  0  0  0  0  0  0  0  0
   -8.1775    3.4344    0.5145 H   0  0  0  0  0  0  0  0  0  0  0  0
   -8.2057    1.8676    1.2980 H   0  0  0  0  0  0  0  0  0  0  0  0
   -6.9411    3.0162    1.6819 H   0  0  0  0  0  0  0  0  0  0  0  0
   -5.4935    2.6382   -0.4627 N   0  0  0  0  0  0  0  0  0  0  0  0
   -4.5619    2.2388   -1.4845 C   0  0  2  0  0  0  0  0  0  0  0  0
   -3.1535    2.4674   -0.9521 C   0  0  0  0  0  0  0  0  0  0  0  0
   -2.8634    3.3945   -0.1987 O   0  0  0  0  0  0  0  0  0  0  0  0
   -4.7883    3.0138   -2.7732 C   0  0  0  0  0  0  0  0  0  0  0  0
   -5.2337    3.4049    0.1551 H   0  0  0  0  0  0  0  0  0  0  0  0
   -4.7192    1.1682   -1.6549 H   0  0  0  0  0  0  0  0  0  0  0  0
   -4.6352    4.0886   -2.6221 H   0  0  0  0  0  0  0  0  0  0  0  0
   -4.0976    2.6887   -3.5582 H   0  0  0  0  0  0  0  0  0  0  0  0
   -5.8111    2.8719   -3.1387 H   0  0  0  0  0  0  0  0  0  0  0  0
   -2.2466    1.5400   -1.4507 N   0  0  0  0  0  0  0  0  0  0  0  0
   -0.8424    1.5707   -1.1286 C   0  0  2  0  0  0  0  0  0  0  0  0
   -0.5050    2.9289   -0.5168 C   0  0  0  0  0  0  0  0  0  0  0  0
    0.3290    3.6922   -0.9998 O   0  0  0  0  0  0  0  0  0  0  0  0
    0.0383    1.2092   -2.3271 C   0  0  0  0  0  0  0  0  0  0  0  0
   -0.1725   -0.4941   -2.8992 S   0  0  0  0  0  0  0  0  0  0  0  0
   -2.5850    0.7815   -2.0381 H   0  0  0  0  0  0  0  0  0  0  0  0
   -0.7024    0.8122   -0.3483 H   0  0  0  0  0  0  0  0  0  0  0  0
   -0.1765    1.8682   -3.1746 H   0  0  0  0  0  0  0  0  0  0  0  0
    1.0943    1.3392   -2.0669 H   0  0  0  0  0  0  0  0  0  0  0  0
   -1.2256    3.1758    0.6430 N   0  0  0  0  0  0  0  0  0  0  0  0
   -1.0644    4.3837    1.4181 C   0  0  2  0  0  0  0  0  0  0  0  0
   -1.2994    4.0377    2.8825 C   0  0  0  0  0  0  0  0  0  0  0  0
   -2.1079    3.1876    3.2495 O   0  0  0  0  0  0  0  0  0  0  0  0
   -2.0229    5.4700    0.9556 C   0  0  0  0  0  0  0  0  0  0  0  0
   -1.9273    2.5075    0.9475 H   0  0  0  0  0  0  0  0  0  0  0  0
   -0.0280    4.7112    1.2814 H   0  0  0  0  0  0  0  0  0  0  0  0
   -3.0663    5.1600    1.0849 H   0  0  0  0  0  0  0  0  0  0  0  0
   -1.8798    6.3942    1.5252 H   0  0  0  0  0  0  0  0  0  0  0  0
   -1.8726    5.6965   -0.1054 H   0  0  0  0  0  0  0  0  0  0  0  0
   -0.5313    4.8202    3.7334 N   0  0  0  0  0  0  0  0  0  0  0  0
   -0.6060    4.7122    5.1717 C   0  0  0  0  0  0  0  0  0  0  0  0
    0.1418    5.4720    3.3414 H   0  0  0  0  0  0  0  0  0  0  0  0
   -1.3405    5.4351    5.5565 H   0  0  0  0  0  0  0  0  0  0  0  0
   -0.9156    3.6933    5.4473 H   0  0  0  0  0  0  0  0  0  0  0  0
    0.3813    4.9258    5.6071 H   0  0  0  0  0  0  0  0  0  0  0  0
  1  3  1  0  0  0  0
  1  7  1  0  0  0  0
  1  2  2  0  0  0  0
 23 25  1  0  0  0  0
 23 29  1  0  0  0  0
 23 24  2  0  0  0  0
 50 51  1  0  0  0  0
 51 59  1  0  0  0  0
 51 52  2  0  0  0  0
  8  9  1  0  0  0  0
  9 17  1  0  0  0  0
  9 10  2  0  0  0  0
 30 31  1  0  0  0  0
 31 39  1  0  0  0  0
 31 32  2  0  0  0  0
 40 41  1  0  0  0  0
 41 49  1  0  0  0  0
 41 42  2  0  0  0  0
 50 53  1  0  0  0  0
 30 33  1  0  0  0  0
 59 60  1  0  0  0  0
 17 18  1  0  0  0  0
  8 11  1  0  0  0  0
 11 12  1  0  0  0  0
 40 43  1  0  0  0  0
 43 44  1  0  0  0  0
 49 50  1  0  0  0  0
  7  8  1  0  0  0  0
 29 30  1  0  0  0  0
 39 40  1  0  0  0  0
 12 44  1  0  0  0  0
  3  4  1  0  0  0  0
  3  5  1  0  0  0  0
  3  6  1  0  0  0  0
 25 26  1  0  0  0  0
 25 27  1  0  0  0  0
 25 28  1  0  0  0  0
 53 56  1  0  0  0  0
 53 57  1  0  0  0  0
 53 58  1  0  0  0  0
 33 36  1  0  0  0  0
 33 37  1  0  0  0  0
 33 38  1  0  0  0  0
 60 62  1  0  0  0  0
 60 63  1  0  0  0  0
 60 64  1  0  0  0  0
 18 20  1  0  0  0  0
 18 21  1  0  0  0  0
 18 22  1  0  0  0  0
 11 15  1  0  0  0  0
 11 16  1  0  0  0  0
 43 47  1  0  0  0  0
 43 48  1  0  0  0  0
 50 55  1  0  0  0  0
  8 14  1  0  0  0  0
 30 35  1  0  0  0  0
 40 46  1  0  0  0  0
 59 61  1  0  0  0  0
 17 19  1  0  0  0  0
  7 13  1  0  0  0  0
 29 34  1  0  0  0  0
 49 54  1  0  0  0  0
 39 45  1  0  0  0  0
M  END
$$$$

  -OEChem-05262214473D

 64 63  0     1  0  0  0  0  0999 V2000
    0.5026   -2.2040   -8.3480 C   0  0  0  0  0  0  0  0  0  0  0  0
   -0.6453   -2.0208   -8.7362 O   0  0  0  0  0  0  0  0  0  0  0  0
    1.1899   -3.4908   -8.6643 C   0  0  0  0  0  0  0  0  0  0  0  0
    1.0280   -4.2559   -7.8881 H   0  0  0  0  0  0  0  0  0  0  0  0
    0.8247   -3.9436   -9.6001 H   0  0  0  0  0  0  0  0  0  0  0  0
    2.2833   -3.4245   -8.7822 H   0  0  0  0  0  0  0  0  0  0  0  0
    1.2722   -1.3147   -7.6181 N   0  0  0  0  0  0  0  0  0  0  0  0
    0.8041   -0.0150   -7.2079 C   0  0  2  0  0  0  0  0  0  0  0  0
    1.9751    0.9651   -7.2398 C   0  0  0  0  0  0  0  0  0  0  0  0
    3.1325    0.6183   -7.4665 O   0  0  0  0  0  0  0  0  0  0  0  0
    0.0826   -0.0548   -5.8585 C   0  0  0  0  0  0  0  0  0  0  0  0
    1.1459   -0.5743   -4.4721 S   0  0  0  0  0  0  0  0  0  0  0  0
    2.2159   -1.5927   -7.3581 H   0  0  0  0  0  0  0  0  0  0  0  0
    0.0894    0.2978   -7.9792 H   0  0  0  0  0  0  0  0  0  0  0  0
   -0.3214    0.9318   -5.6095 H   0  0  0  0  0  0  0  0  0  0  0  0
   -0.7591   -0.7542   -5.9059 H   0  0  0  0  0  0  0  0  0  0  0  0
    1.5788    2.2655   -6.9614 N   0  0  0  0  0  0  0  0  0  0  0  0
    2.5091    3.3689   -6.9086 C   0  0  0  0  0  0  0  0  0  0  0  0
    0.5929    2.4700   -6.8283 H   0  0  0  0  0  0  0  0  0  0  0  0
    2.8544    3.5089   -5.8737 H   0  0  0  0  0  0  0  0  0  0  0  0
    3.3713    3.1527   -7.5566 H   0  0  0  0  0  0  0  0  0  0  0  0
    2.0103    4.2858   -7.2558 H   0  0  0  0  0  0  0  0  0  0  0  0
   -6.7256    2.0330   -0.2766 C   0  0  0  0  0  0  0  0  0  0  0  0
   -7.1824    1.1039   -0.9322 O   0  0  0  0  0  0  0  0  0  0  0  0
   -7.5276    2.6077    0.8435 C   0  0  0  0  0  0  0  0  0  0  0  0
   -8.1775    3.4344    0.5145 H   0  0  0  0  0  0  0  0  0  0  0  0
   -8.2057    1.8676    1.2980 H   0  0  0  0  0  0  0  0  0  0  0  0
   -6.9411    3.0162    1.6819 H   0  0  0  0  0  0  0  0  0  0  0  0
   -5.4935    2.6382   -0.4627 N   0  0  0  0  0  0  0  0  0  0  0  0
   -4.5619    2.2388   -1.4845 C   0  0  2  0  0  0  0  0  0  0  0  0
   -3.1535    2.4674   -0.9521 C   0  0  0  0  0  0  0  0  0  0  0  0
   -2.8634    3.3945   -0.1987 O   0  0  0  0  0  0  0  0  0  0  0  0
   -4.7883    3.0138   -2.7732 C   0  0  0  0  0  0  0  0  0  0  0  0
   -5.2337    3.4049    0.1551 H   0  0  0  0  0  0  0  0  0  0  0  0
   -4.7192    1.1682   -1.6549 H   0  0  0  0  0  0  0  0  0  0  0  0
   -4.6352    4.0886   -2.6221 H   0  0  0  0  0  0  0  0  0  0  0  0
   -4.0976    2.6887   -3.5582 H   0  0  0  0  0  0  0  0  0  0  0  0
   -5.8111    2.8719   -3.1387 H   0  0  0  0  0  0  0  0  0  0  0  0
   -2.2466    1.5400   -1.4507 N   0  0  0  0  0  0  0  0  0  0  0  0
   -0.8424    1.5707   -1.1286 C   0  0  2  0  0  0  0  0  0  0  0  0
   -0.5050    2.9289   -0.5168 C   0  0  0  0  0  0  0  0  0  0  0  0
    0.1154    3.8005   -1.1225 O   0  0  0  0  0  0  0  0  0  0  0  0
    0.0383    1.2092   -2.3271 C   0  0  0  0  0  0  0  0  0  0  0  0
   -0.1725   -0.4941   -2.8992 S   0  0  0  0  0  0  0  0  0  0  0  0
   -2.5850    0.7815   -2.0381 H   0  0  0  0  0  0  0  0  0  0  0  0
   -0.7024    0.8122   -0.3483 H   0  0  0  0  0  0  0  0  0  0  0  0
   -0.1765    1.8682   -3.1746 H   0  0  0  0  0  0  0  0  0  0  0  0
    1.0943    1.3392   -2.0669 H   0  0  0  0  0  0  0  0  0  0  0  0
   -0.9558    3.0422    0.7906 N   0  0  0  0  0  0  0  0  0  0  0  0
   -0.7361    4.2244    1.5907 C   0  0  2  0  0  0  0  0  0  0  0  0
   -0.5885    3.7890    3.0426 C   0  0  0  0  0  0  0  0  0  0  0  0
   -1.2029    2.8392    3.5238 O   0  0  0  0  0  0  0  0  0  0  0  0
   -1.8768    5.2180    1.4345 C   0  0  0  0  0  0  0  0  0  0  0  0
   -1.4989    2.2875    1.1994 H   0  0  0  0  0  0  0  0  0  0  0  0
    0.2030    4.6701    1.2452 H   0  0  0  0  0  0  0  0  0  0  0  0
   -2.8261    4.7892    1.7756 H   0  0  0  0  0  0  0  0  0  0  0  0
   -1.6951    6.1258    2.0193 H   0  0  0  0  0  0  0  0  0  0  0  0
   -2.0007    5.5074    0.3853 H   0  0  0  0  0  0  0  0  0  0  0  0
    0.2772    4.6123    3.7489 N   0  0  0  0  0  0  0  0  0  0  0  0
    0.5507    4.4321    5.1556 C   0  0  0  0  0  0  0  0  0  0  0  0
    0.7739    5.3515    3.2604 H   0  0  0  0  0  0  0  0  0  0  0  0
   -0.1403    5.0514    5.7463 H   0  0  0  0  0  0  0  0  0  0  0  0
    0.4143    3.3738    5.4229 H   0  0  0  0  0  0  0  0  0  0  0  0
    1.5869    4.7335    5.3690 H   0  0  0  0  0  0  0  0  0  0  0  0
  1  3  1  0  0  0  0
  1  7  1  0  0  0  0
  1  2  2  0  0  0  0
 23 25  1  0  0  0  0
 23 29  1  0  0  0  0
 23 24  2  0  0  0  0
 50 51  1  0  0  0  0
 51 59  1  0  0  0  0
 51 52  2  0  0  0  0
  8  9  1  0  0  0  0
  9 17  1  0  0  0  0
  9 10  2  0  0  0  0
 30 31  1  0  0  0  0
 31 39  1  0  0  0  0
 31 32  2  0  0  0  0
 40 41  1  0  0  0  0
 41 49  1  0  0  0  0
 41 42  2  0  0  0  0
 50 53  1  0  0  0  0
 30 33  1  0  0  0  0
 59 60  1  0  0  0  0
 17 18  1  0  0  0  0
  8 11  1  0  0  0  0
 11 12  1  0  0  0  0
 40 43  1  0  0  0  0
 43 44  1  0  0  0  0
 49 50  1  0  0  0  0
  7  8  1  0  0  0  0
 29 30  1  0  0  0  0
 39 40  1  0  0  0  0
 12 44  1  0  0  0  0
  3  4  1  0  0  0  0
  3  5  1  0  0  0  0
  3  6  1  0  0  0  0
 25 26  1  0  0  0  0
 25 27  1  0  0  0  0
 25 28  1  0  0  0  0
 53 56  1  0  0  0  0
 53 57  1  0  0  0  0
 53 58  1  0  0  0  0
 33 36  1  0  0  0  0
 33 37  1  0  0  0  0
 33 38  1  0  0  0  0
 60 62  1  0  0  0  0
 60 63  1  0  0  0  0
 60 64  1  0  0  0  0
 18 20  1  0  0  0  0
 18 21  1  0  0  0  0
 18 22  1  0  0  0  0
 11 15  1  0  0  0  0
 11 16  1  0  0  0  0
 43 47  1  0  0  0  0
 43 48  1  0  0  0  0
 50 55  1  0  0  0  0
  8 14  1  0  0  0  0
 30 35  1  0  0  0  0
 40 46  1  0  0  0  0
 59 61  1  0  0  0  0
 17 19  1  0  0  0  0
  7 13  1  0  0  0  0
 29 34  1  0  0  0  0
 49 54  1  0  0  0  0
 39 45  1  0  0  0  0
M  END
$$$$

  -OEChem-05262214473D

 64 63  0     1  0  0  0  0  0999 V2000
    0.5026   -2.2040   -8.3480 C   0  0  0  0  0  0  0  0  0  0  0  0
   -0.6453   -2.0208   -8.7362 O   0  0  0  0  0  0  0  0  0  0  0  0
    1.1899   -3.4908   -8.6643 C   0  0  0  0  0  0  0  0  0  0  0  0
    1.0280   -4.2559   -7.8881 H   0  0  0  0  0  0  0  0  0  0  0  0
    0.8247   -3.9436   -9.6001 H   0  0  0  0  0  0  0  0  0  0  0  0
    2.2833   -3.4245   -8.7822 H   0  0  0  0  0  0  0  0  0  0  0  0
    1.2722   -1.3147   -7.6181 N   0  0  0  0  0  0  0  0  0  0  0  0
    0.8041   -0.0150   -7.2079 C   0  0  2  0  0  0  0  0  0  0  0  0
    1.9751    0.9651   -7.2398 C   0  0  0  0  0  0  0  0  0  0  0  0
    3.1325    0.6183   -7.4665 O   0  0  0  0  0  0  0  0  0  0  0  0
    0.0826   -0.0548   -5.8585 C   0  0  0  0  0  0  0  0  0  0  0  0
    1.1459   -0.5743   -4.4721 S   0  0  0  0  0  0  0  0  0  0  0  0
    2.2159   -1.5927   -7.3581 H   0  0  0  0  0  0  0  0  0  0  0  0
    0.0894    0.2978   -7.9792 H   0  0  0  0  0  0  0  0  0  0  0  0
   -0.3214    0.9318   -5.6095 H   0  0  0  0  0  0  0  0  0  0  0  0
   -0.7591   -0.7542   -5.9059 H   0  0  0  0  0  0  0  0  0  0  0  0
    1.5788    2.2655   -6.9614 N   0  0  0  0  0  0  0  0  0  0  0  0
    2.5091    3.3689   -6.9086 C   0  0  0  0  0  0  0  0  0  0  0  0
    0.5929    2.4700   -6.8283 H   0  0  0  0  0  0  0  0  0  0  0  0
    2.8544    3.5089   -5.8737 H   0  0  0  0  0  0  0  0  0  0  0  0
    3.3713    3.1527   -7.5566 H   0  0  0  0  0  0  0  0  0  0  0  0
    2.0103    4.2858   -7.2558 H   0  0  0  0  0  0  0  0  0  0  0  0
   -6.7256    2.0330   -0.2766 C   0  0  0  0  0  0  0  0  0  0  0  0
   -7.1824    1.1039   -0.9322 O   0  0  0  0  0  0  0  0  0  0  0  0
   -7.5276    2.6077    0.8435 C   0  0  0  0  0  0  0  0  0  0  0  0
   -8.1775    3.4344    0.5145 H   0  0  0  0  0  0  0  0  0  0  0  0
   -8.2057    1.8676    1.2980 H   0  0  0  0  0  0  0  0  0  0  0  0
   -6.9411    3.0162    1.6819 H   0  0  0  0  0  0  0  0  0  0  0  0
   -5.4935    2.6382   -0.4627 N   0  0  0  0  0  0  0  0  0  0  0  0
   -4.5619    2.2388   -1.4845 C   0  0  2  0  0  0  0  0  0  0  0  0
   -3.1535    2.4674   -0.9521 C   0  0  0  0  0  0  0  0  0  0  0  0
   -2.8634    3.3945   -0.1987 O   0  0  0  0  0  0  0  0  0  0  0  0
   -4.7883    3.0138   -2.7732 C   0  0  0  0  0  0  0  0  0  0  0  0
   -5.2337    3.4049    0.1551 H   0  0  0  0  0  0  0  0  0  0  0  0
   -4.7192    1.1682   -1.6549 H   0  0  0  0  0  0  0  0  0  0  0  0
   -4.6352    4.0886   -2.6221 H   0  0  0  0  0  0  0  0  0  0  0  0
   -4.0976    2.6887   -3.5582 H   0  0  0  0  0  0  0  0  0  0  0  0
   -5.8111    2.8719   -3.1387 H   0  0  0  0  0  0  0  0  0  0  0  0
   -2.2466    1.5400   -1.4507 N   0  0  0  0  0  0  0  0  0  0  0  0
   -0.8424    1.5707   -1.1286 C   0  0  2  0  0  0  0  0  0  0  0  0
   -0.5050    2.9289   -0.5168 C   0  0  0  0  0  0  0  0  0  0  0  0
   -0.1305    3.8901   -1.1856 O   0  0  0  0  0  0  0  0  0  0  0  0
    0.0383    1.2092   -2.3271 C   0  0  0  0  0  0  0  0  0  0  0  0
   -0.1725   -0.4941   -2.8992 S   0  0  0  0  0  0  0  0  0  0  0  0
   -2.5850    0.7815   -2.0381 H   0  0  0  0  0  0  0  0  0  0  0  0
   -0.7024    0.8122   -0.3483 H   0  0  0  0  0  0  0  0  0  0  0  0
   -0.1765    1.8682   -3.1746 H   0  0  0  0  0  0  0  0  0  0  0  0
    1.0943    1.3392   -2.0669 H   0  0  0  0  0  0  0  0  0  0  0  0
   -0.6473    2.9328    0.8635 N   0  0  0  0  0  0  0  0  0  0  0  0
   -0.3629    4.0947    1.6727 C   0  0  2  0  0  0  0  0  0  0  0  0
    0.1607    3.6133    3.0194 C   0  0  0  0  0  0  0  0  0  0  0  0
   -0.2294    2.5808    3.5605 O   0  0  0  0  0  0  0  0  0  0  0  0
   -1.5993    4.9624    1.8489 C   0  0  0  0  0  0  0  0  0  0  0  0
   -1.0043    2.1051    1.3316 H   0  0  0  0  0  0  0  0  0  0  0  0
    0.4221    4.6565    1.1546 H   0  0  0  0  0  0  0  0  0  0  0  0
   -2.3968    4.4165    2.3662 H   0  0  0  0  0  0  0  0  0  0  0  0
   -1.3752    5.8574    2.4386 H   0  0  0  0  0  0  0  0  0  0  0  0
   -1.9919    5.2833    0.8780 H   0  0  0  0  0  0  0  0  0  0  0  0
    1.0832    4.4944    3.5659 N   0  0  0  0  0  0  0  0  0  0  0  0
    1.6934    4.2823    4.8577 C   0  0  0  0  0  0  0  0  0  0  0  0
    1.3782    5.3052    3.0298 H   0  0  0  0  0  0  0  0  0  0  0  0
    1.1025    4.7944    5.6314 H   0  0  0  0  0  0  0  0  0  0  0  0
    1.7263    3.2045    5.0750 H   0  0  0  0  0  0  0  0  0  0  0  0
    2.7165    4.6864    4.8506 H   0  0  0  0  0  0  0  0  0  0  0  0
  1  3  1  0  0  0  0
  1  7  1  0  0  0  0
  1  2  2  0  0  0  0
 23 25  1  0  0  0  0
 23 29  1  0  0  0  0
 23 24  2  0  0  0  0
 50 51  1  0  0  0  0
 51 59  1  0  0  0  0
 51 52  2  0  0  0  0
  8  9  1  0  0  0  0
  9 17  1  0  0  0  0
  9 10  2  0  0  0  0
 30 31  1  0  0  0  0
 31 39  1  0  0  0  0
 31 32  2  0  0  0  0
 40 41  1  0  0  0  0
 41 49  1  0  0  0  0
 41 42  2  0  0  0  0
 50 53  1  0  0  0  0
 30 33  1  0  0  0  0
 59 60  1  0  0  0  0
 17 18  1  0  0  0  0
  8 11  1  0  0  0  0
 11 12  1  0  0  0  0
 40 43  1  0  0  0  0
 43 44  1  0  0  0  0
 49 50  1  0  0  0  0
  7  8  1  0  0  0  0
 29 30  1  0  0  0  0
 39 40  1  0  0  0  0
 12 44  1  0  0  0  0
  3  4  1  0  0  0  0
  3  5  1  0  0  0  0
  3  6  1  0  0  0  0
 25 26  1  0  0  0  0
 25 27  1  0  0  0  0
 25 28  1  0  0  0  0
 53 56  1  0  0  0  0
 53 57  1  0  0  0  0
 53 58  1  0  0  0  0
 33 36  1  0  0  0  0
 33 37  1  0  0  0  0
 33 38  1  0  0  0  0
 60 62  1  0  0  0  0
 60 63  1  0  0  0  0
 60 64  1  0  0  0  0
 18 20  1  0  0  0  0
 18 21  1  0  0  0  0
 18 22  1  0  0  0  0
 11 15  1  0  0  0  0
 11 16  1  0  0  0  0
 43 47  1  0  0  0  0
 43 48  1  0  0  0  0
 50 55  1  0  0  0  0
  8 14  1  0  0  0  0
 30 35  1  0  0  0  0
 40 46  1  0  0  0  0
 59 61  1  0  0  0  0
 17 19  1  0  0  0  0
  7 13  1  0  0  0  0
 29 34  1  0  0  0  0
 49 54  1  0  0  0  0
 39 45  1  0  0  0  0
M  END
$$$$

  -OEChem-05262214473D

 64 63  0     1  0  0  0  0  0999 V2000
    0.5026   -2.2040   -8.3480 C   0  0  0  0  0  0  0  0  0  0  0  0
   -0.6453   -2.0208   -8.7362 O   0  0  0  0  0  0  0  0  0  0  0  0
    1.1899   -3.4908   -8.6643 C   0  0  0  0  0  0  0  0  0  0  0  0
    1.0280   -4.2559   -7.8881 H   0  0  0  0  0  0  0  0  0  0  0  0
    0.8247   -3.9436   -9.6001 H   0  0  0  0  0  0  0  0  0  0  0  0
    2.2833   -3.4245   -8.7822 H   0  0  0  0  0  0  0  0  0  0  0  0
    1.2722   -1.3147   -7.6181 N   0  0  0  0  0  0  0  0  0  0  0  0
    0.8041   -0.0150   -7.2079 C   0  0  2  0  0  0  0  0  0  0  0  0
    1.9751    0.9651   -7.2398 C   0  0  0  0  0  0  0  0  0  0  0  0
    3.1325    0.6183   -7.4665 O   0  0  0  0  0  0  0  0  0  0  0  0
    0.0826   -0.0548   -5.8585 C   0  0  0  0  0  0  0  0  0  0  0  0
    1.1459   -0.5743   -4.4721 S   0  0  0  0  0  0  0  0  0  0  0  0
    2.2159   -1.5927   -7.3581 H   0  0  0  0  0  0  0  0  0  0  0  0
    0.0894    0.2978   -7.9792 H   0  0  0  0  0  0  0  0  0  0  0  0
   -0.3214    0.9318   -5.6095 H   0  0  0  0  0  0  0  0  0  0  0  0
   -0.7591   -0.7542   -5.9059 H   0  0  0  0  0  0  0  0  0  0  0  0
    1.5788    2.2655   -6.9614 N   0  0  0  0  0  0  0  0  0  0  0  0
    2.5091    3.3689   -6.9086 C   0  0  0  0  0  0  0  0  0  0  0  0
    0.5929    2.4700   -6.8283 H   0  0  0  0  0  0  0  0  0  0  0  0
    2.8544    3.5089   -5.8737 H   0  0  0  0  0  0  0  0  0  0  0  0
    3.3713    3.1527   -7.5566 H   0  0  0  0  0  0  0  0  0  0  0  0
    2.0103    4.2858   -7.2558 H   0  0  0  0  0  0  0  0  0  0  0  0
   -6.7256    2.0330   -0.2766 C   0  0  0  0  0  0  0  0  0  0  0  0
   -7.1824    1.1039   -0.9322 O   0  0  0  0  0  0  0  0  0  0  0  0
   -7.5276    2.6077    0.8435 C   0  0  0  0  0  0  0  0  0  0  0  0
   -8.1775    3.4344    0.5145 H   0  0  0  0  0  0  0  0  0  0  0  0
   -8.2057    1.8676    1.2980 H   0  0  0  0  0  0  0  0  0  0  0  0
   -6.9411    3.0162    1.6819 H   0  0  0  0  0  0  0  0  0  0  0  0
   -5.4935    2.6382   -0.4627 N   0  0  0  0  0  0  0  0  0  0  0  0
   -4.5619    2.2388   -1.4845 C   0  0  2  0  0  0  0  0  0  0  0  0
   -3.1535    2.4674   -0.9521 C   0  0  0  0  0  0  0  0  0  0  0  0
   -2.8634    3.3945   -0.1987 O   0  0  0  0  0  0  0  0  0  0  0  0
   -4.7883    3.0138   -2.7732 C   0  0  0  0  0  0  0  0  0  0  0  0
   -5.2337    3.4049    0.1551 H   0  0  0  0  0  0  0  0  0  0  0  0
   -4.7192    1.1682   -1.6549 H   0  0  0  0  0  0  0  0  0  0  0  0
   -4.6352    4.0886   -2.6221 H   0  0  0  0  0  0  0  0  0  0  0  0
   -4.0976    2.6887   -3.5582 H   0  0  0  0  0  0  0  0  0  0  0  0
   -5.8111    2.8719   -3.1387 H   0  0  0  0  0  0  0  0  0  0  0  0
   -2.2466    1.5400   -1.4507 N   0  0  0  0  0  0  0  0  0  0  0  0
   -0.8424    1.5707   -1.1286 C   0  0  2  0  0  0  0  0  0  0  0  0
   -0.5050    2.9289   -0.5168 C   0  0  0  0  0  0  0  0  0  0  0  0
   -0.3918    3.9547   -1.1849 O   0  0  0  0  0  0  0  0  0  0  0  0
    0.0383    1.2092   -2.3271 C   0  0  0  0  0  0  0  0  0  0  0  0
   -0.1725   -0.4941   -2.8992 S   0  0  0  0  0  0  0  0  0  0  0  0
   -2.5850    0.7815   -2.0381 H   0  0  0  0  0  0  0  0  0  0  0  0
   -0.7024    0.8122   -0.3483 H   0  0  0  0  0  0  0  0  0  0  0  0
   -0.1765    1.8682   -3.1746 H   0  0  0  0  0  0  0  0  0  0  0  0
    1.0943    1.3392   -2.0669 H   0  0  0  0  0  0  0  0  0  0  0  0
   -0.3212    2.8549    0.8566 N   0  0  0  0  0  0  0  0  0  0  0  0
    0.0300    4.0035    1.6586 C   0  0  2  0  0  0  0  0  0  0  0  0
    0.8973    3.5226    2.8144 C   0  0  0  0  0  0  0  0  0  0  0  0
    0.7462    2.4300    3.3571 O   0  0  0  0  0  0  0  0  0  0  0  0
   -1.2094    4.7206    2.1708 C   0  0  0  0  0  0  0  0  0  0  0  0
   -0.4772    1.9726    1.3351 H   0  0  0  0  0  0  0  0  0  0  0  0
    0.6142    4.6712    1.0160 H   0  0  0  0  0  0  0  0  0  0  0  0
   -1.8075    4.0673    2.8165 H   0  0  0  0  0  0  0  0  0  0  0  0
   -0.9418    5.6074    2.7548 H   0  0  0  0  0  0  0  0  0  0  0  0
   -1.8468    5.0395    1.3390 H   0  0  0  0  0  0  0  0  0  0  0  0
    1.8319    4.4746    3.1969 N   0  0  0  0  0  0  0  0  0  0  0  0
    2.7441    4.2732    4.2984 C   0  0  0  0  0  0  0  0  0  0  0  0
    1.9137    5.3363    2.6653 H   0  0  0  0  0  0  0  0  0  0  0  0
    2.3031    4.6815    5.2197 H   0  0  0  0  0  0  0  0  0  0  0  0
    2.9311    3.1969    4.4273 H   0  0  0  0  0  0  0  0  0  0  0  0
    3.6932    4.7875    4.0872 H   0  0  0  0  0  0  0  0  0  0  0  0
  1  3  1  0  0  0  0
  1  7  1  0  0  0  0
  1  2  2  0  0  0  0
 23 25  1  0  0  0  0
 23 29  1  0  0  0  0
 23 24  2  0  0  0  0
 50 51  1  0  0  0  0
 51 59  1  0  0  0  0
 51 52  2  0  0  0  0
  8  9  1  0  0  0  0
  9 17  1  0  0  0  0
  9 10  2  0  0  0  0
 30 31  1  0  0  0  0
 31 39  1  0  0  0  0
 31 32  2  0  0  0  0
 40 41  1  0  0  0  0
 41 49  1  0  0  0  0
 41 42  2  0  0  0  0
 50 53  1  0  0  0  0
 30 33  1  0  0  0  0
 59 60  1  0  0  0  0
 17 18  1  0  0  0  0
  8 11  1  0  0  0  0
 11 12  1  0  0  0  0
 40 43  1  0  0  0  0
 43 44  1  0  0  0  0
 49 50  1  0  0  0  0
  7  8  1  0  0  0  0
 29 30  1  0  0  0  0
 39 40  1  0  0  0  0
 12 44  1  0  0  0  0
  3  4  1  0  0  0  0
  3  5  1  0  0  0  0
  3  6  1  0  0  0  0
 25 26  1  0  0  0  0
 25 27  1  0  0  0  0
 25 28  1  0  0  0  0
 53 56  1  0  0  0  0
 53 57  1  0  0  0  0
 53 58  1  0  0  0  0
 33 36  1  0  0  0  0
 33 37  1  0  0  0  0
 33 38  1  0  0  0  0
 60 62  1  0  0  0  0
 60 63  1  0  0  0  0
 60 64  1  0  0  0  0
 18 20  1  0  0  0  0
 18 21  1  0  0  0  0
 18 22  1  0  0  0  0
 11 15  1  0  0  0  0
 11 16  1  0  0  0  0
 43 47  1  0  0  0  0
 43 48  1  0  0  0  0
 50 55  1  0  0  0  0
  8 14  1  0  0  0  0
 30 35  1  0  0  0  0
 40 46  1  0  0  0  0
 59 61  1  0  0  0  0
 17 19  1  0  0  0  0
  7 13  1  0  0  0  0
 29 34  1  0  0  0  0
 49 54  1  0  0  0  0
 39 45  1  0  0  0  0
M  END
$$$$

  -OEChem-05262214473D

 64 63  0     1  0  0  0  0  0999 V2000
    0.5026   -2.2040   -8.3480 C   0  0  0  0  0  0  0  0  0  0  0  0
   -0.6453   -2.0208   -8.7362 O   0  0  0  0  0  0  0  0  0  0  0  0
    1.1899   -3.4908   -8.6643 C   0  0  0  0  0  0  0  0  0  0  0  0
    1.0280   -4.2559   -7.8881 H   0  0  0  0  0  0  0  0  0  0  0  0
    0.8247   -3.9436   -9.6001 H   0  0  0  0  0  0  0  0  0  0  0  0
    2.2833   -3.4245   -8.7822 H   0  0  0  0  0  0  0  0  0  0  0  0
    1.2722   -1.3147   -7.6181 N   0  0  0  0  0  0  0  0  0  0  0  0
    0.8041   -0.0150   -7.2079 C   0  0  2  0  0  0  0  0  0  0  0  0
    1.9751    0.9651   -7.2398 C   0  0  0  0  0  0  0  0  0  0  0  0
    3.1325    0.6183   -7.4665 O   0  0  0  0  0  0  0  0  0  0  0  0
    0.0826   -0.0548   -5.8585 C   0  0  0  0  0  0  0  0  0  0  0  0
    1.1459   -0.5743   -4.4721 S   0  0  0  0  0  0  0  0  0  0  0  0
    2.2159   -1.5927   -7.3581 H   0  0  0  0  0  0  0  0  0  0  0  0
    0.0894    0.2978   -7.9792 H   0  0  0  0  0  0  0  0  0  0  0  0
   -0.3214    0.9318   -5.6095 H   0  0  0  0  0  0  0  0  0  0  0  0
   -0.7591   -0.7542   -5.9059 H   0  0  0  0  0  0  0  0  0  0  0  0
    1.5788    2.2655   -6.9614 N   0  0  0  0  0  0  0  0  0  0  0  0
    2.5091    3.3689   -6.9086 C   0  0  0  0  0  0  0  0  0  0  0  0
    0.5929    2.4700   -6.8283 H   0  0  0  0  0  0  0  0  0  0  0  0
    2.8544    3.5089   -5.8737 H   0  0  0  0  0  0  0  0  0  0  0  0
    3.3713    3.1527   -7.5566 H   0  0  0  0  0  0  0  0  0  0  0  0
    2.0103    4.2858   -7.2558 H   0  0  0  0  0  0  0  0  0  0  0  0
   -6.7256    2.0330   -0.2766 C   0  0  0  0  0  0  0  0  0  0  0  0
   -7.1824    1.1039   -0.9322 O   0  0  0  0  0  0  0  0  0  0  0  0
   -7.5276    2.6077    0.8435 C   0  0  0  0  0  0  0  0  0  0  0  0
   -8.1775    3.4344    0.5145 H   0  0  0  0  0  0  0  0  0  0  0  0
   -8.2057    1.8676    1.2980 H   0  0  0  0  0  0  0  0  0  0  0  0
   -6.9411    3.0162    1.6819 H   0  0  0  0  0  0  0  0  0  0  0  0
   -5.4935    2.6382   -0.4627 N   0  0  0  0  0  0  0  0  0  0  0  0
   -4.5619    2.2388   -1.4845 C   0  0  2  0  0  0  0  0  0  0  0  0
   -3.1535    2.4674   -0.9521 C   0  0  0  0  0  0  0  0  0  0  0  0
   -2.8634    3.3945   -0.1987 O   0  0  0  0  0  0  0  0  0  0  0  0
   -4.7883    3.0138   -2.7732 C   0  0  0  0  0  0  0  0  0  0  0  0
   -5.2337    3.4049    0.1551 H   0  0  0  0  0  0  0  0  0  0  0  0
   -4.7192    1.1682   -1.6549 H   0  0  0  0  0  0  0  0  0  0  0  0
   -4.6352    4.0886   -2.6221 H   0  0  0  0  0  0  0  0  0  0  0  0
   -4.0976    2.6887   -3.5582 H   0  0  0  0  0  0  0  0  0  0  0  0
   -5.8111    2.8719   -3.1387 H   0  0  0  0  0  0  0  0  0  0  0  0
   -2.2466    1.5400   -1.4507 N   0  0  0  0  0  0  0  0  0  0  0  0
   -0.8424    1.5707   -1.1286 C   0  0  2  0  0  0  0  0  0  0  0  0
   -0.5050    2.9289   -0.5168 C   0  0  0  0  0  0  0  0  0  0  0  0
   -0.6507    3.9899   -1.1204 O   0  0  0  0  0  0  0  0  0  0  0  0
    0.0383    1.2092   -2.3271 C   0  0  0  0  0  0  0  0  0  0  0  0
   -0.1725   -0.4941   -2.8992 S   0  0  0  0  0  0  0  0  0  0  0  0
   -2.5850    0.7815   -2.0381 H   0  0  0  0  0  0  0  0  0  0  0  0
   -0.7024    0.8122   -0.3483 H   0  0  0  0  0  0  0  0  0  0  0  0
   -0.1765    1.8682   -3.1746 H   0  0  0  0  0  0  0  0  0  0  0  0
    1.0943    1.3392   -2.0669 H   0  0  0  0  0  0  0  0  0  0  0  0
    0.0003    2.8138    0.7704 N   0  0  0  0  0  0  0  0  0  0  0  0
    0.4157    3.9568    1.5493 C   0  0  2  0  0  0  0  0  0  0  0  0
    1.5711    3.5230    2.4418 C   0  0  0  0  0  0  0  0  0  0  0  0
    1.6573    2.3971    2.9275 O   0  0  0  0  0  0  0  0  0  0  0  0
   -0.7336    4.5090    2.3781 C   0  0  0  0  0  0  0  0  0  0  0  0
    0.0464    1.8990    1.2095 H   0  0  0  0  0  0  0  0  0  0  0  0
    0.7664    4.7132    0.8387 H   0  0  0  0  0  0  0  0  0  0  0  0
   -1.0984    3.7653    3.0959 H   0  0  0  0  0  0  0  0  0  0  0  0
   -0.4246    5.3927    2.9461 H   0  0  0  0  0  0  0  0  0  0  0  0
   -1.5752    4.7928    1.7370 H   0  0  0  0  0  0  0  0  0  0  0  0
    2.4722    4.5542    2.6670 N   0  0  0  0  0  0  0  0  0  0  0  0
    3.6312    4.4052    3.5159 C   0  0  0  0  0  0  0  0  0  0  0  0
    2.3439    5.4427    2.1918 H   0  0  0  0  0  0  0  0  0  0  0  0
    3.3797    4.7204    4.5393 H   0  0  0  0  0  0  0  0  0  0  0  0
    3.9466    3.3514    3.5240 H   0  0  0  0  0  0  0  0  0  0  0  0
    4.4504    5.0302    3.1307 H   0  0  0  0  0  0  0  0  0  0  0  0
  1  3  1  0  0  0  0
  1  7  1  0  0  0  0
  1  2  2  0  0  0  0
 23 25  1  0  0  0  0
 23 29  1  0  0  0  0
 23 24  2  0  0  0  0
 50 51  1  0  0  0  0
 51 59  1  0  0  0  0
 51 52  2  0  0  0  0
  8  9  1  0  0  0  0
  9 17  1  0  0  0  0
  9 10  2  0  0  0  0
 30 31  1  0  0  0  0
 31 39  1  0  0  0  0
 31 32  2  0  0  0  0
 40 41  1  0  0  0  0
 41 49  1  0  0  0  0
 41 42  2  0  0  0  0
 50 53  1  0  0  0  0
 30 33  1  0  0  0  0
 59 60  1  0  0  0  0
 17 18  1  0  0  0  0
  8 11  1  0  0  0  0
 11 12  1  0  0  0  0
 40 43  1  0  0  0  0
 43 44  1  0  0  0  0
 49 50  1  0  0  0  0
  7  8  1  0  0  0  0
 29 30  1  0  0  0  0
 39 40  1  0  0  0  0
 12 44  1  0  0  0  0
  3  4  1  0  0  0  0
  3  5  1  0  0  0  0
  3  6  1  0  0  0  0
 25 26  1  0  0  0  0
 25 27  1  0  0  0  0
 25 28  1  0  0  0  0
 53 56  1  0  0  0  0
 53 57  1  0  0  0  0
 53 58  1  0  0  0  0
 33 36  1  0  0  0  0
 33 37  1  0  0  0  0
 33 38  1  0  0  0  0
 60 62  1  0  0  0  0
 60 63  1  0  0  0  0
 60 64  1  0  0  0  0
 18 20  1  0  0  0  0
 18 21  1  0  0  0  0
 18 22  1  0  0  0  0
 11 15  1  0  0  0  0
 11 16  1  0  0  0  0
 43 47  1  0  0  0  0
 43 48  1  0  0  0  0
 50 55  1  0  0  0  0
  8 14  1  0  0  0  0
 30 35  1  0  0  0  0
 40 46  1  0  0  0  0
 59 61  1  0  0  0  0
 17 19  1  0  0  0  0
  7 13  1  0  0  0  0
 29 34  1  0  0  0  0
 49 54  1  0  0  0  0
 39 45  1  0  0  0  0
M  END
$$$$

  -OEChem-05262214473D

 64 63  0     1  0  0  0  0  0999 V2000
    0.5026   -2.2040   -8.3480 C   0  0  0  0  0  0  0  0  0  0  0  0
   -0.6453   -2.0208   -8.7362 O   0  0  0  0  0  0  0  0  0  0  0  0
    1.1899   -3.4908   -8.6643 C   0  0  0  0  0  0  0  0  0  0  0  0
    1.0280   -4.2559   -7.8881 H   0  0  0  0  0  0  0  0  0  0  0  0
    0.8247   -3.9436   -9.6001 H   0  0  0  0  0  0  0  0  0  0  0  0
    2.2833   -3.4245   -8.7822 H   0  0  0  0  0  0  0  0  0  0  0  0
    1.2722   -1.3147   -7.6181 N   0  0  0  0  0  0  0  0  0  0  0  0
    0.8041   -0.0150   -7.2079 C   0  0  2  0  0  0  0  0  0  0  0  0
    1.9751    0.9651   -7.2398 C   0  0  0  0  0  0  0  0  0  0  0  0
    3.1325    0.6183   -7.4665 O   0  0  0  0  0  0  0  0  0  0  0  0
    0.0826   -0.0548   -5.8585 C   0  0  0  0  0  0  0  0  0  0  0  0
    1.1459   -0.5743   -4.4721 S   0  0  0  0  0  0  0  0  0  0  0  0
    2.2159   -1.5927   -7.3581 H   0  0  0  0  0  0  0  0  0  0  0  0
    0.0894    0.2978   -7.9792 H   0  0  0  0  0  0  0  0  0  0  0  0
   -0.3214    0.9318   -5.6095 H   0  0  0  0  0  0  0  0  0  0  0  0
   -0.7591   -0.7542   -5.9059 H   0  0  0  0  0  0  0  0  0  0  0  0
    1.5788    2.2655   -6.9614 N   0  0  0  0  0  0  0  0  0  0  0  0
    2.5091    3.3689   -6.9086 C   0  0  0  0  0  0  0  0  0  0  0  0
    0.5929    2.4700   -6.8283 H   0  0  0  0  0  0  0  0  0  0  0  0
    2.8544    3.5089   -5.8737 H   0  0  0  0  0  0  0  0  0  0  0  0
    3.3713    3.1527   -7.5566 H   0  0  0  0  0  0  0  0  0  0  0  0
    2.0103    4.2858   -7.2558 H   0  0  0  0  0  0  0  0  0  0  0  0
   -6.7256    2.0330   -0.2766 C   0  0  0  0  0  0  0  0  0  0  0  0
   -7.1824    1.1039   -0.9322 O   0  0  0  0  0  0  0  0  0  0  0  0
   -7.5276    2.6077    0.8435 C   0  0  0  0  0  0  0  0  0  0  0  0
   -8.1775    3.4344    0.5145 H   0  0  0  0  0  0  0  0  0  0  0  0
   -8.2057    1.8676    1.2980 H   0  0  0  0  0  0  0  0  0  0  0  0
   -6.9411    3.0162    1.6819 H   0  0  0  0  0  0  0  0  0  0  0  0
   -5.4935    2.6382   -0.4627 N   0  0  0  0  0  0  0  0  0  0  0  0
   -4.5619    2.2388   -1.4845 C   0  0  2  0  0  0  0  0  0  0  0  0
   -3.1535    2.4674   -0.9521 C   0  0  0  0  0  0  0  0  0  0  0  0
   -2.8634    3.3945   -0.1987 O   0  0  0  0  0  0  0  0  0  0  0  0
   -4.7883    3.0138   -2.7732 C   0  0  0  0  0  0  0  0  0  0  0  0
   -5.2337    3.4049    0.1551 H   0  0  0  0  0  0  0  0  0  0  0  0
   -4.7192    1.1682   -1.6549 H   0  0  0  0  0  0  0  0  0  0  0  0
   -4.6352    4.0886   -2.6221 H   0  0  0  0  0  0  0  0  0  0  0  0
   -4.0976    2.6887   -3.5582 H   0  0  0  0  0  0  0  0  0  0  0  0
   -5.8111    2.8719   -3.1387 H   0  0  0  0  0  0  0  0  0  0  0  0
   -2.2466    1.5400   -1.4507 N   0  0  0  0  0  0  0  0  0  0  0  0
   -0.8424    1.5707   -1.1286 C   0  0  2  0  0  0  0  0  0  0  0  0
   -0.5050    2.9289   -0.5168 C   0  0  0  0  0  0  0  0  0  0  0  0
   -0.8896    3.9935   -0.9965 O   0  0  0  0  0  0  0  0  0  0  0  0
    0.0383    1.2092   -2.3271 C   0  0  0  0  0  0  0  0  0  0  0  0
   -0.1725   -0.4941   -2.8992 S   0  0  0  0  0  0  0  0  0  0  0  0
   -2.5850    0.7815   -2.0381 H   0  0  0  0  0  0  0  0  0  0  0  0
   -0.7024    0.8122   -0.3483 H   0  0  0  0  0  0  0  0  0  0  0  0
   -0.1765    1.8682   -3.1746 H   0  0  0  0  0  0  0  0  0  0  0  0
    1.0943    1.3392   -2.0669 H   0  0  0  0  0  0  0  0  0  0  0  0
    0.2952    2.8124    0.6109 N   0  0  0  0  0  0  0  0  0  0  0  0
    0.7680    3.9580    1.3524 C   0  0  2  0  0  0  0  0  0  0  0  0
    2.1360    3.6146    1.9268 C   0  0  0  0  0  0  0  0  0  0  0  0
    2.4419    2.4843    2.3010 O   0  0  0  0  0  0  0  0  0  0  0  0
   -0.2044    4.3421    2.4568 C   0  0  0  0  0  0  0  0  0  0  0  0
    0.5309    1.8895    0.9635 H   0  0  0  0  0  0  0  0  0  0  0  0
    0.8683    4.7797    0.6349 H   0  0  0  0  0  0  0  0  0  0  0  0
   -0.3179    3.5310    3.1854 H   0  0  0  0  0  0  0  0  0  0  0  0
    0.1414    5.2280    2.9995 H   0  0  0  0  0  0  0  0  0  0  0  0
   -1.1957    4.5599    2.0449 H   0  0  0  0  0  0  0  0  0  0  0  0
    2.9605    4.7277    2.0124 N   0  0  0  0  0  0  0  0  0  0  0  0
    4.2943    4.6695    2.5634 C   0  0  0  0  0  0  0  0  0  0  0  0
    2.6394    5.6171    1.6414 H   0  0  0  0  0  0  0  0  0  0  0  0
    4.2590    4.9086    3.6365 H   0  0  0  0  0  0  0  0  0  0  0  0
    4.7035    3.6576    2.4266 H   0  0  0  0  0  0  0  0  0  0  0  0
    4.9365    5.3977    2.0465 H   0  0  0  0  0  0  0  0  0  0  0  0
  1  3  1  0  0  0  0
  1  7  1  0  0  0  0
  1  2  2  0  0  0  0
 23 25  1  0  0  0  0
 23 29  1  0  0  0  0
 23 24  2  0  0  0  0
 50 51  1  0  0  0  0
 51 59  1  0  0  0  0
 51 52  2  0  0  0  0
  8  9  1  0  0  0  0
  9 17  1  0  0  0  0
  9 10  2  0  0  0  0
 30 31  1  0  0  0  0
 31 39  1  0  0  0  0
 31 32  2  0  0  0  0
 40 41  1  0  0  0  0
 41 49  1  0  0  0  0
 41 42  2  0  0  0  0
 50 53  1  0  0  0  0
 30 33  1  0  0  0  0
 59 60  1  0  0  0  0
 17 18  1  0  0  0  0
  8 11  1  0  0  0  0
 11 12  1  0  0  0  0
 40 43  1  0  0  0  0
 43 44  1  0  0  0  0
 49 50  1  0  0  0  0
  7  8  1  0  0  0  0
 29 30  1  0  0  0  0
 39 40  1  0  0  0  0
 12 44  1  0  0  0  0
  3  4  1  0  0  0  0
  3  5  1  0  0  0  0
  3  6  1  0  0  0  0
 25 26  1  0  0  0  0
 25 27  1  0  0  0  0
 25 28  1  0  0  0  0
 53 56  1  0  0  0  0
 53 57  1  0  0  0  0
 53 58  1  0  0  0  0
 33 36  1  0  0  0  0
 33 37  1  0  0  0  0
 33 38  1  0  0  0  0
 60 62  1  0  0  0  0
 60 63  1  0  0  0  0
 60 64  1  0  0  0  0
 18 20  1  0  0  0  0
 18 21  1  0  0  0  0
 18 22  1  0  0  0  0
 11 15  1  0  0  0  0
 11 16  1  0  0  0  0
 43 47  1  0  0  0  0
 43 48  1  0  0  0  0
 50 55  1  0  0  0  0
  8 14  1  0  0  0  0
 30 35  1  0  0  0  0
 40 46  1  0  0  0  0
 59 61  1  0  0  0  0
 17 19  1  0  0  0  0
  7 13  1  0  0  0  0
 29 34  1  0  0  0  0
 49 54  1  0  0  0  0
 39 45  1  0  0  0  0
M  END
$$$$

  -OEChem-05262214473D

 64 63  0     1  0  0  0  0  0999 V2000
    0.5026   -2.2040   -8.3480 C   0  0  0  0  0  0  0  0  0  0  0  0
   -0.6453   -2.0208   -8.7362 O   0  0  0  0  0  0  0  0  0  0  0  0
    1.1899   -3.4908   -8.6643 C   0  0  0  0  0  0  0  0  0  0  0  0
    1.0280   -4.2559   -7.8881 H   0  0  0  0  0  0  0  0  0  0  0  0
    0.8247   -3.9436   -9.6001 H   0  0  0  0  0  0  0  0  0  0  0  0
    2.2833   -3.4245   -8.7822 H   0  0  0  0  0  0  0  0  0  0  0  0
    1.2722   -1.3147   -7.6181 N   0  0  0  0  0  0  0  0  0  0  0  0
    0.8041   -0.0150   -7.2079 C   0  0  2  0  0  0  0  0  0  0  0  0
    1.9751    0.9651   -7.2398 C   0  0  0  0  0  0  0  0  0  0  0  0
    3.1325    0.6183   -7.4665 O   0  0  0  0  0  0  0  0  0  0  0  0
    0.0826   -0.0548   -5.8585 C   0  0  0  0  0  0  0  0  0  0  0  0
    1.1459   -0.5743   -4.4721 S   0  0  0  0  0  0  0  0  0  0  0  0
    2.2159   -1.5927   -7.3581 H   0  0  0  0  0  0  0  0  0  0  0  0
    0.0894    0.2978   -7.9792 H   0  0  0  0  0  0  0  0  0  0  0  0
   -0.3214    0.9318   -5.6095 H   0  0  0  0  0  0  0  0  0  0  0  0
   -0.7591   -0.7542   -5.9059 H   0  0  0  0  0  0  0  0  0  0  0  0
    1.5788    2.2655   -6.9614 N   0  0  0  0  0  0  0  0  0  0  0  0
    2.5091    3.3689   -6.9086 C   0  0  0  0  0  0  0  0  0  0  0  0
    0.5929    2.4700   -6.8283 H   0  0  0  0  0  0  0  0  0  0  0  0
    2.8544    3.5089   -5.8737 H   0  0  0  0  0  0  0  0  0  0  0  0
    3.3713    3.1527   -7.5566 H   0  0  0  0  0  0  0  0  0  0  0  0
    2.0103    4.2858   -7.2558 H   0  0  0  0  0  0  0  0  0  0  0  0
   -6.7256    2.0330   -0.2766 C   0  0  0  0  0  0  0  0  0  0  0  0
   -7.1824    1.1039   -0.9322 O   0  0  0  0  0  0  0  0  0  0  0  0
   -7.5276    2.6077    0.8435 C   0  0  0  0  0  0  0  0  0  0  0  0
   -8.1775    3.4344    0.5145 H   0  0  0  0  0  0  0  0  0  0  0  0
   -8.2057    1.8676    1.2980 H   0  0  0  0  0  0  0  0  0  0  0  0
   -6.9411    3.0162    1.6819 H   0  0  0  0  0  0  0  0  0  0  0  0
   -5.4935    2.6382   -0.4627 N   0  0  0  0  0  0  0  0  0  0  0  0
   -4.5619    2.2388   -1.4845 C   0  0  2  0  0  0  0  0  0  0  0  0
   -3.1535    2.4674   -0.9521 C   0  0  0  0  0  0  0  0  0  0  0  0
   -2.8634    3.3945   -0.1987 O   0  0  0  0  0  0  0  0  0  0  0  0
   -4.7883    3.0138   -2.7732 C   0  0  0  0  0  0  0  0  0  0  0  0
   -5.2337    3.4049    0.1551 H   0  0  0  0  0  0  0  0  0  0  0  0
   -4.7192    1.1682   -1.6549 H   0  0  0  0  0  0  0  0  0  0  0  0
   -4.6352    4.0886   -2.6221 H   0  0  0  0  0  0  0  0  0  0  0  0
   -4.0976    2.6887   -3.5582 H   0  0  0  0  0  0  0  0  0  0  0  0
   -5.8111    2.8719   -3.1387 H   0  0  0  0  0  0  0  0  0  0  0  0
   -2.2466    1.5400   -1.4507 N   0  0  0  0  0  0  0  0  0  0  0  0
   -0.8424    1.5707   -1.1286 C   0  0  2  0  0  0  0  0  0  0  0  0
   -0.5050    2.9289   -0.5168 C   0  0  0  0  0  0  0  0  0  0  0  0
   -1.0922    3.9651   -0.8216 O   0  0  0  0  0  0  0  0  0  0  0  0
    0.0383    1.2092   -2.3271 C   0  0  0  0  0  0  0  0  0  0  0  0
   -0.1725   -0.4941   -2.8992 S   0  0  0  0  0  0  0  0  0  0  0  0
   -2.5850    0.7815   -2.0381 H   0  0  0  0  0  0  0  0  0  0  0  0
   -0.7024    0.8122   -0.3483 H   0  0  0  0  0  0  0  0  0  0  0  0
   -0.1765    1.8682   -3.1746 H   0  0  0  0  0  0  0  0  0  0  0  0
    1.0943    1.3392   -2.0669 H   0  0  0  0  0  0  0  0  0  0  0  0
    0.5435    2.8507    0.3888 N   0  0  0  0  0  0  0  0  0  0  0  0
    1.0627    4.0070    1.0811 C   0  0  2  0  0  0  0  0  0  0  0  0
    2.5537    3.7911    1.3045 C   0  0  0  0  0  0  0  0  0  0  0  0
    3.0465    2.6858    1.5202 O   0  0  0  0  0  0  0  0  0  0  0  0
    0.3421    4.2312    2.4014 C   0  0  0  0  0  0  0  0  0  0  0  0
    0.9433    1.9445    0.6138 H   0  0  0  0  0  0  0  0  0  0  0  0
    0.9128    4.8662    0.4183 H   0  0  0  0  0  0  0  0  0  0  0  0
    0.4809    3.3806    3.0787 H   0  0  0  0  0  0  0  0  0  0  0  0
    0.7174    5.1245    2.9115 H   0  0  0  0  0  0  0  0  0  0  0  0
   -0.7342    4.3566    2.2415 H   0  0  0  0  0  0  0  0  0  0  0  0
    3.2635    4.9834    1.2776 N   0  0  0  0  0  0  0  0  0  0  0  0
    4.6882    5.0479    1.5058 C   0  0  0  0  0  0  0  0  0  0  0  0
    2.7800    5.8477    1.0519 H   0  0  0  0  0  0  0  0  0  0  0  0
    4.8811    5.2331    2.5728 H   0  0  0  0  0  0  0  0  0  0  0  0
    5.1504    4.0946    1.2098 H   0  0  0  0  0  0  0  0  0  0  0  0
    5.1185    5.8652    0.9083 H   0  0  0  0  0  0  0  0  0  0  0  0
  1  3  1  0  0  0  0
  1  7  1  0  0  0  0
  1  2  2  0  0  0  0
 23 25  1  0  0  0  0
 23 29  1  0  0  0  0
 23 24  2  0  0  0  0
 50 51  1  0  0  0  0
 51 59  1  0  0  0  0
 51 52  2  0  0  0  0
  8  9  1  0  0  0  0
  9 17  1  0  0  0  0
  9 10  2  0  0  0  0
 30 31  1  0  0  0  0
 31 39  1  0  0  0  0
 31 32  2  0  0  0  0
 40 41  1  0  0  0  0
 41 49  1  0  0  0  0
 41 42  2  0  0  0  0
 50 53  1  0  0  0  0
 30 33  1  0  0  0  0
 59 60  1  0  0  0  0
 17 18  1  0  0  0  0
  8 11  1  0  0  0  0
 11 12  1  0  0  0  0
 40 43  1  0  0  0  0
 43 44  1  0  0  0  0
 49 50  1  0  0  0  0
  7  8  1  0  0  0  0
 29 30  1  0  0  0  0
 39 40  1  0  0  0  0
 12 44  1  0  0  0  0
  3  4  1  0  0  0  0
  3  5  1  0  0  0  0
  3  6  1  0  0  0  0
 25 26  1  0  0  0  0
 25 27  1  0  0  0  0
 25 28  1  0  0  0  0
 53 56  1  0  0  0  0
 53 57  1  0  0  0  0
 53 58  1  0  0  0  0
 33 36  1  0  0  0  0
 33 37  1  0  0  0  0
 33 38  1  0  0  0  0
 60 62  1  0  0  0  0
 60 63  1  0  0  0  0
 60 64  1  0  0  0  0
 18 20  1  0  0  0  0
 18 21  1  0  0  0  0
 18 22  1  0  0  0  0
 11 15  1  0  0  0  0
 11 16  1  0  0  0  0
 43 47  1  0  0  0  0
 43 48  1  0  0  0  0
 50 55  1  0  0  0  0
  8 14  1  0  0  0  0
 30 35  1  0  0  0  0
 40 46  1  0  0  0  0
 59 61  1  0  0  0  0
 17 19  1  0  0  0  0
  7 13  1  0  0  0  0
 29 34  1  0  0  0  0
 49 54  1  0  0  0  0
 39 45  1  0  0  0  0
M  END
$$$$

  -OEChem-05262214473D

 64 63  0     1  0  0  0  0  0999 V2000
    0.5026   -2.2040   -8.3480 C   0  0  0  0  0  0  0  0  0  0  0  0
   -0.6453   -2.0208   -8.7362 O   0  0  0  0  0  0  0  0  0  0  0  0
    1.1899   -3.4908   -8.6643 C   0  0  0  0  0  0  0  0  0  0  0  0
    1.0280   -4.2559   -7.8881 H   0  0  0  0  0  0  0  0  0  0  0  0
    0.8247   -3.9436   -9.6001 H   0  0  0  0  0  0  0  0  0  0  0  0
    2.2833   -3.4245   -8.7822 H   0  0  0  0  0  0  0  0  0  0  0  0
    1.2722   -1.3147   -7.6181 N   0  0  0  0  0  0  0  0  0  0  0  0
    0.8041   -0.0150   -7.2079 C   0  0  2  0  0  0  0  0  0  0  0  0
    1.9751    0.9651   -7.2398 C   0  0  0  0  0  0  0  0  0  0  0  0
    3.1325    0.6183   -7.4665 O   0  0  0  0  0  0  0  0  0  0  0  0
    0.0826   -0.0548   -5.8585 C   0  0  0  0  0  0  0  0  0  0  0  0
    1.1459   -0.5743   -4.4721 S   0  0  0  0  0  0  0  0  0  0  0  0
    2.2159   -1.5927   -7.3581 H   0  0  0  0  0  0  0  0  0  0  0  0
    0.0894    0.2978   -7.9792 H   0  0  0  0  0  0  0  0  0  0  0  0
   -0.3214    0.9318   -5.6095 H   0  0  0  0  0  0  0  0  0  0  0  0
   -0.7591   -0.7542   -5.9059 H   0  0  0  0  0  0  0  0  0  0  0  0
    1.5788    2.2655   -6.9614 N   0  0  0  0  0  0  0  0  0  0  0  0
    2.5091    3.3689   -6.9086 C   0  0  0  0  0  0  0  0  0  0  0  0
    0.5929    2.4700   -6.8283 H   0  0  0  0  0  0  0  0  0  0  0  0
    2.8544    3.5089   -5.8737 H   0  0  0  0  0  0  0  0  0  0  0  0
    3.3713    3.1527   -7.5566 H   0  0  0  0  0  0  0  0  0  0  0  0
    2.0103    4.2858   -7.2558 H   0  0  0  0  0  0  0  0  0  0  0  0
   -6.7256    2.0330   -0.2766 C   0  0  0  0  0  0  0  0  0  0  0  0
   -7.1824    1.1039   -0.9322 O   0  0  0  0  0  0  0  0  0  0  0  0
   -7.5276    2.6077    0.8435 C   0  0  0  0  0  0  0  0  0  0  0  0
   -8.1775    3.4344    0.5145 H   0  0  0  0  0  0  0  0  0  0  0  0
   -8.2057    1.8676    1.2980 H   0  0  0  0  0  0  0  0  0  0  0  0
   -6.9411    3.0162    1.6819 H   0  0  0  0  0  0  0  0  0  0  0  0
   -5.4935    2.6382   -0.4627 N   0  0  0  0  0  0  0  0  0  0  0  0
   -4.5619    2.2388   -1.4845 C   0  0  2  0  0  0  0  0  0  0  0  0
   -3.1535    2.4674   -0.9521 C   0  0  0  0  0  0  0  0  0  0  0  0
   -2.8634    3.3945   -0.1987 O   0  0  0  0  0  0  0  0  0  0  0  0
   -4.7883    3.0138   -2.7732 C   0  0  0  0  0  0  0  0  0  0  0  0
   -5.2337    3.4049    0.1551 H   0  0  0  0  0  0  0  0  0  0  0  0
   -4.7192    1.1682   -1.6549 H   0  0  0  0  0  0  0  0  0  0  0  0
   -4.6352    4.0886   -2.6221 H   0  0  0  0  0  0  0  0  0  0  0  0
   -4.0976    2.6887   -3.5582 H   0  0  0  0  0  0  0  0  0  0  0  0
   -5.8111    2.8719   -3.1387 H   0  0  0  0  0  0  0  0  0  0  0  0
   -2.2466    1.5400   -1.4507 N   0  0  0  0  0  0  0  0  0  0  0  0
   -0.8424    1.5707   -1.1286 C   0  0  2  0  0  0  0  0  0  0  0  0
   -0.5050    2.9289   -0.5168 C   0  0  0  0  0  0  0  0  0  0  0  0
   -1.2447    3.9066   -0.6077 O   0  0  0  0  0  0  0  0  0  0  0  0
    0.0383    1.2092   -2.3271 C   0  0  0  0  0  0  0  0  0  0  0  0
   -0.1725   -0.4941   -2.8992 S   0  0  0  0  0  0  0  0  0  0  0  0
   -2.5850    0.7815   -2.0381 H   0  0  0  0  0  0  0  0  0  0  0  0
   -0.7024    0.8122   -0.3483 H   0  0  0  0  0  0  0  0  0  0  0  0
   -0.1765    1.8682   -3.1746 H   0  0  0  0  0  0  0  0  0  0  0  0
    1.0943    1.3392   -2.0669 H   0  0  0  0  0  0  0  0  0  0  0  0
    0.7283    2.9262    0.1193 N   0  0  0  0  0  0  0  0  0  0  0  0
    1.2800    4.1003    0.7540 C   0  0  2  0  0  0  0  0  0  0  0  0
    2.7957    4.0404    0.6174 C   0  0  0  0  0  0  0  0  0  0  0  0
    3.4300    2.9877    0.6384 O   0  0  0  0  0  0  0  0  0  0  0  0
    0.8689    4.1839    2.2158 C   0  0  0  0  0  0  0  0  0  0  0  0
    1.2554    2.0604    0.1843 H   0  0  0  0  0  0  0  0  0  0  0  0
    0.8971    4.9667    0.2038 H   0  0  0  0  0  0  0  0  0  0  0  0
    1.2435    3.3242    2.7832 H   0  0  0  0  0  0  0  0  0  0  0  0
    1.2643    5.0893    2.6880 H   0  0  0  0  0  0  0  0  0  0  0  0
   -0.2220    4.1969    2.3137 H   0  0  0  0  0  0  0  0  0  0  0  0
    3.3605    5.3038    0.5127 N   0  0  0  0  0  0  0  0  0  0  0  0
    4.7860    5.5148    0.4153 C   0  0  0  0  0  0  0  0  0  0  0  0
    2.7563    6.1188    0.4632 H   0  0  0  0  0  0  0  0  0  0  0  0
    5.2035    5.6719    1.4208 H   0  0  0  0  0  0  0  0  0  0  0  0
    5.2566    4.6326   -0.0433 H   0  0  0  0  0  0  0  0  0  0  0  0
    4.9838    6.4006   -0.2062 H   0  0  0  0  0  0  0  0  0  0  0  0
  1  3  1  0  0  0  0
  1  7  1  0  0  0  0
  1  2  2  0  0  0  0
 23 25  1  0  0  0  0
 23 29  1  0  0  0  0
 23 24  2  0  0  0  0
 50 51  1  0  0  0  0
 51 59  1  0  0  0  0
 51 52  2  0  0  0  0
  8  9  1  0  0  0  0
  9 17  1  0  0  0  0
  9 10  2  0  0  0  0
 30 31  1  0  0  0  0
 31 39  1  0  0  0  0
 31 32  2  0  0  0  0
 40 41  1  0  0  0  0
 41 49  1  0  0  0  0
 41 42  2  0  0  0  0
 50 53  1  0  0  0  0
 30 33  1  0  0  0  0
 59 60  1  0  0  0  0
 17 18  1  0  0  0  0
  8 11  1  0  0  0  0
 11 12  1  0  0  0  0
 40 43  1  0  0  0  0
 43 44  1  0  0  0  0
 49 50  1  0  0  0  0
  7  8  1  0  0  0  0
 29 30  1  0  0  0  0
 39 40  1  0  0  0  0
 12 44  1  0  0  0  0
  3  4  1  0  0  0  0
  3  5  1  0  0  0  0
  3  6  1  0  0  0  0
 25 26  1  0  0  0  0
 25 27  1  0  0  0  0
 25 28  1  0  0  0  0
 53 56  1  0  0  0  0
 53 57  1  0  0  0  0
 53 58  1  0  0  0  0
 33 36  1  0  0  0  0
 33 37  1  0  0  0  0
 33 38  1  0  0  0  0
 60 62  1  0  0  0  0
 60 63  1  0  0  0  0
 60 64  1  0  0  0  0
 18 20  1  0  0  0  0
 18 21  1  0  0  0  0
 18 22  1  0  0  0  0
 11 15  1  0  0  0  0
 11 16  1  0  0  0  0
 43 47  1  0  0  0  0
 43 48  1  0  0  0  0
 50 55  1  0  0  0  0
  8 14  1  0  0  0  0
 30 35  1  0  0  0  0
 40 46  1  0  0  0  0
 59 61  1  0  0  0  0
 17 19  1  0  0  0  0
  7 13  1  0  0  0  0
 29 34  1  0  0  0  0
 49 54  1  0  0  0  0
 39 45  1  0  0  0  0
M  END
$$$$

  -OEChem-05262214473D

 64 63  0     1  0  0  0  0  0999 V2000
    0.6226   -0.1770   -9.0644 C   0  0  0  0  0  0  0  0  0  0  0  0
   -0.5388    0.0305   -9.3959 O   0  0  0  0  0  0  0  0  0  0  0  0
    1.3782   -1.3000   -9.6939 C   0  0  0  0  0  0  0  0  0  0  0  0
    1.2703   -2.2442   -9.1361 H   0  0  0  0  0  0  0  0  0  0  0  0
    1.0274   -1.5230  -10.7143 H   0  0  0  0  0  0  0  0  0  0  0  0
    2.4644   -1.1423   -9.7891 H   0  0  0  0  0  0  0  0  0  0  0  0
    1.3495    0.5431   -8.1322 N   0  0  0  0  0  0  0  0  0  0  0  0
    0.8133    1.6677   -7.4081 C   0  0  2  0  0  0  0  0  0  0  0  0
    1.9258    2.6910   -7.1895 C   0  0  0  0  0  0  0  0  0  0  0  0
    3.0981    2.4810   -7.4941 O   0  0  0  0  0  0  0  0  0  0  0  0
    0.1127    1.2469   -6.1138 C   0  0  0  0  0  0  0  0  0  0  0  0
    1.2218    0.4580   -4.9014 S   0  0  0  0  0  0  0  0  0  0  0  0
    2.3108    0.2643   -7.9489 H   0  0  0  0  0  0  0  0  0  0  0  0
    0.0719    2.1224   -8.0769 H   0  0  0  0  0  0  0  0  0  0  0  0
   -0.3438    2.1135   -5.6246 H   0  0  0  0  0  0  0  0  0  0  0  0
   -0.6882    0.5340   -6.3379 H   0  0  0  0  0  0  0  0  0  0  0  0
    1.4595    3.8538   -6.5926 N   0  0  0  0  0  0  0  0  0  0  0  0
    2.3258    4.9608   -6.2613 C   0  0  0  0  0  0  0  0  0  0  0  0
    0.4653    3.9601   -6.4140 H   0  0  0  0  0  0  0  0  0  0  0  0
    2.6759    4.8554   -5.2239 H   0  0  0  0  0  0  0  0  0  0  0  0
    3.1905    4.9658   -6.9412 H   0  0  0  0  0  0  0  0  0  0  0  0
    1.7710    5.9047   -6.3668 H   0  0  0  0  0  0  0  0  0  0  0  0
   -6.7256    2.0330   -0.2766 C   0  0  0  0  0  0  0  0  0  0  0  0
   -7.1824    1.1039   -0.9322 O   0  0  0  0  0  0  0  0  0  0  0  0
   -7.5276    2.6077    0.8435 C   0  0  0  0  0  0  0  0  0  0  0  0
   -8.1775    3.4344    0.5145 H   0  0  0  0  0  0  0  0  0  0  0  0
   -8.2057    1.8676    1.2980 H   0  0  0  0  0  0  0  0  0  0  0  0
   -6.9411    3.0162    1.6819 H   0  0  0  0  0  0  0  0  0  0  0  0
   -5.4935    2.6382   -0.4627 N   0  0  0  0  0  0  0  0  0  0  0  0
   -4.5619    2.2388   -1.4845 C   0  0  2  0  0  0  0  0  0  0  0  0
   -3.1535    2.4674   -0.9521 C   0  0  0  0  0  0  0  0  0  0  0  0
   -2.8634    3.3945   -0.1987 O   0  0  0  0  0  0  0  0  0  0  0  0
   -4.7883    3.0138   -2.7732 C   0  0  0  0  0  0  0  0  0  0  0  0
   -5.2337    3.4049    0.1551 H   0  0  0  0  0  0  0  0  0  0  0  0
   -4.7192    1.1682   -1.6549 H   0  0  0  0  0  0  0  0  0  0  0  0
   -4.6352    4.0886   -2.6221 H   0  0  0  0  0  0  0  0  0  0  0  0
   -4.0976    2.6887   -3.5582 H   0  0  0  0  0  0  0  0  0  0  0  0
   -5.8111    2.8719   -3.1387 H   0  0  0  0  0  0  0  0  0  0  0  0
   -2.2466    1.5400   -1.4507 N   0  0  0  0  0  0  0  0  0  0  0  0
   -0.8424    1.5707   -1.1286 C   0  0  2  0  0  0  0  0  0  0  0  0
   -0.5753    2.7482   -0.1932 C   0  0  0  0  0  0  0  0  0  0  0  0
   -1.4547    3.5251    0.1734 O   0  0  0  0  0  0  0  0  0  0  0  0
    0.0420    1.5752   -2.3779 C   0  0  0  0  0  0  0  0  0  0  0  0
   -0.0785    0.0618   -3.3617 S   0  0  0  0  0  0  0  0  0  0  0  0
   -2.5850    0.7815   -2.0381 H   0  0  0  0  0  0  0  0  0  0  0  0
   -0.6492    0.6496   -0.5648 H   0  0  0  0  0  0  0  0  0  0  0  0
   -0.2211    2.4128   -3.0320 H   0  0  0  0  0  0  0  0  0  0  0  0
    1.0921    1.6970   -2.0912 H   0  0  0  0  0  0  0  0  0  0  0  0
    0.7627    2.8429    0.1625 N   0  0  0  0  0  0  0  0  0  0  0  0
    1.2686    3.8890    1.0200 C   0  0  2  0  0  0  0  0  0  0  0  0
    2.6939    4.2047    0.5860 C   0  0  0  0  0  0  0  0  0  0  0  0
    3.4667    3.3536    0.1507 O   0  0  0  0  0  0  0  0  0  0  0  0
    1.2249    3.4751    2.4827 C   0  0  0  0  0  0  0  0  0  0  0  0
    1.4153    2.1310   -0.1522 H   0  0  0  0  0  0  0  0  0  0  0  0
    0.6336    4.7666    0.8567 H   0  0  0  0  0  0  0  0  0  0  0  0
    1.8552    2.5972    2.6657 H   0  0  0  0  0  0  0  0  0  0  0  0
    1.5821    4.2799    3.1337 H   0  0  0  0  0  0  0  0  0  0  0  0
    0.2036    3.2198    2.7851 H   0  0  0  0  0  0  0  0  0  0  0  0
    3.0155    5.5405    0.7824 N   0  0  0  0  0  0  0  0  0  0  0  0
    4.3229    6.0791    0.4879 C   0  0  0  0  0  0  0  0  0  0  0  0
    2.3008    6.1836    1.1100 H   0  0  0  0  0  0  0  0  0  0  0  0
    4.9476    6.0419    1.3926 H   0  0  0  0  0  0  0  0  0  0  0  0
    4.7941    5.4832   -0.3076 H   0  0  0  0  0  0  0  0  0  0  0  0
    4.2228    7.1224    0.1542 H   0  0  0  0  0  0  0  0  0  0  0  0
  1  3  1  0  0  0  0
  1  7  1  0  0  0  0
  1  2  2  0  0  0  0
 23 25  1  0  0  0  0
 23 29  1  0  0  0  0
 23 24  2  0  0  0  0
 50 51  1  0  0  0  0
 51 59  1  0  0  0  0
 51 52  2  0  0  0  0
  8  9  1  0  0  0  0
  9 17  1  0  0  0  0
  9 10  2  0  0  0  0
 30 31  1  0  0  0  0
 31 39  1  0  0  0  0
 31 32  2  0  0  0  0
 40 41  1  0  0  0  0
 41 49  1  0  0  0  0
 41 42  2  0  0  0  0
 50 53  1  0  0  0  0
 30 33  1  0  0  0  0
 59 60  1  0  0  0  0
 17 18  1  0  0  0  0
  8 11  1  0  0  0  0
 11 12  1  0  0  0  0
 40 43  1  0  0  0  0
 43 44  1  0  0  0  0
 49 50  1  0  0  0  0
  7  8  1  0  0  0  0
 29 30  1  0  0  0  0
 39 40  1  0  0  0  0
 12 44  1  0  0  0  0
  3  4  1  0  0  0  0
  3  5  1  0  0  0  0
  3  6  1  0  0  0  0
 25 26  1  0  0  0  0
 25 27  1  0  0  0  0
 25 28  1  0  0  0  0
 53 56  1  0  0  0  0
 53 57  1  0  0  0  0
 53 58  1  0  0  0  0
 33 36  1  0  0  0  0
 33 37  1  0  0  0  0
 33 38  1  0  0  0  0
 60 62  1  0  0  0  0
 60 63  1  0  0  0  0
 60 64  1  0  0  0  0
 18 20  1  0  0  0  0
 18 21  1  0  0  0  0
 18 22  1  0  0  0  0
 11 15  1  0  0  0  0
 11 16  1  0  0  0  0
 43 47  1  0  0  0  0
 43 48  1  0  0  0  0
 50 55  1  0  0  0  0
  8 14  1  0  0  0  0
 30 35  1  0  0  0  0
 40 46  1  0  0  0  0
 59 61  1  0  0  0  0
 17 19  1  0  0  0  0
  7 13  1  0  0  0  0
 29 34  1  0  0  0  0
 49 54  1  0  0  0  0
 39 45  1  0  0  0  0
M  END
$$$$

  -OEChem-05262214473D

 64 63  0     1  0  0  0  0  0999 V2000
    0.6226   -0.1770   -9.0644 C   0  0  0  0  0  0  0  0  0  0  0  0
   -0.5388    0.0305   -9.3959 O   0  0  0  0  0  0  0  0  0  0  0  0
    1.3782   -1.3000   -9.6939 C   0  0  0  0  0  0  0  0  0  0  0  0
    1.2703   -2.2442   -9.1361 H   0  0  0  0  0  0  0  0  0  0  0  0
    1.0274   -1.5230  -10.7143 H   0  0  0  0  0  0  0  0  0  0  0  0
    2.4644   -1.1423   -9.7891 H   0  0  0  0  0  0  0  0  0  0  0  0
    1.3495    0.5431   -8.1322 N   0  0  0  0  0  0  0  0  0  0  0  0
    0.8133    1.6677   -7.4081 C   0  0  2  0  0  0  0  0  0  0  0  0
    1.9258    2.6910   -7.1895 C   0  0  0  0  0  0  0  0  0  0  0  0
    3.0981    2.4810   -7.4941 O   0  0  0  0  0  0  0  0  0  0  0  0
    0.1127    1.2469   -6.1138 C   0  0  0  0  0  0  0  0  0  0  0  0
    1.2218    0.4580   -4.9014 S   0  0  0  0  0  0  0  0  0  0  0  0
    2.3108    0.2643   -7.9489 H   0  0  0  0  0  0  0  0  0  0  0  0
    0.0719    2.1224   -8.0769 H   0  0  0  0  0  0  0  0  0  0  0  0
   -0.3438    2.1135   -5.6246 H   0  0  0  0  0  0  0  0  0  0  0  0
   -0.6882    0.5340   -6.3379 H   0  0  0  0  0  0  0  0  0  0  0  0
    1.4595    3.8538   -6.5926 N   0  0  0  0  0  0  0  0  0  0  0  0
    2.3258    4.9608   -6.2613 C   0  0  0  0  0  0  0  0  0  0  0  0
    0.4653    3.9601   -6.4140 H   0  0  0  0  0  0  0  0  0  0  0  0
    2.6759    4.8554   -5.2239 H   0  0  0  0  0  0  0  0  0  0  0  0
    3.1905    4.9658   -6.9412 H   0  0  0  0  0  0  0  0  0  0  0  0
    1.7710    5.9047   -6.3668 H   0  0  0  0  0  0  0  0  0  0  0  0
   -6.7256    2.0330   -0.2766 C   0  0  0  0  0  0  0  0  0  0  0  0
   -7.1824    1.1039   -0.9322 O   0  0  0  0  0  0  0  0  0  0  0  0
   -7.5276    2.6077    0.8435 C   0  0  0  0  0  0  0  0  0  0  0  0
   -8.1775    3.4344    0.5145 H   0  0  0  0  0  0  0  0  0  0  0  0
   -8.2057    1.8676    1.2980 H   0  0  0  0  0  0  0  0  0  0  0  0
   -6.9411    3.0162    1.6819 H   0  0  0  0  0  0  0  0  0  0  0  0
   -5.4935    2.6382   -0.4627 N   0  0  0  0  0  0  0  0  0  0  0  0
   -4.5619    2.2388   -1.4845 C   0  0  2  0  0  0  0  0  0  0  0  0
   -3.1535    2.4674   -0.9521 C   0  0  0  0  0  0  0  0  0  0  0  0
   -2.8634    3.3945   -0.1987 O   0  0  0  0  0  0  0  0  0  0  0  0
   -4.7883    3.0138   -2.7732 C   0  0  0  0  0  0  0  0  0  0  0  0
   -5.2337    3.4049    0.1551 H   0  0  0  0  0  0  0  0  0  0  0  0
   -4.7192    1.1682   -1.6549 H   0  0  0  0  0  0  0  0  0  0  0  0
   -4.6352    4.0886   -2.6221 H   0  0  0  0  0  0  0  0  0  0  0  0
   -4.0976    2.6887   -3.5582 H   0  0  0  0  0  0  0  0  0  0  0  0
   -5.8111    2.8719   -3.1387 H   0  0  0  0  0  0  0  0  0  0  0  0
   -2.2466    1.5400   -1.4507 N   0  0  0  0  0  0  0  0  0  0  0  0
   -0.8424    1.5707   -1.1286 C   0  0  2  0  0  0  0  0  0  0  0  0
   -0.5753    2.7482   -0.1932 C   0  0  0  0  0  0  0  0  0  0  0  0
   -1.4707    3.3602    0.3855 O   0  0  0  0  0  0  0  0  0  0  0  0
    0.0420    1.5752   -2.3779 C   0  0  0  0  0  0  0  0  0  0  0  0
   -0.0785    0.0618   -3.3617 S   0  0  0  0  0  0  0  0  0  0  0  0
   -2.5850    0.7815   -2.0381 H   0  0  0  0  0  0  0  0  0  0  0  0
   -0.6492    0.6496   -0.5648 H   0  0  0  0  0  0  0  0  0  0  0  0
   -0.2211    2.4128   -3.0320 H   0  0  0  0  0  0  0  0  0  0  0  0
    1.0921    1.6970   -2.0912 H   0  0  0  0  0  0  0  0  0  0  0  0
    0.7762    3.0494   -0.1014 N   0  0  0  0  0  0  0  0  0  0  0  0
    1.2787    4.1386    0.7030 C   0  0  2  0  0  0  0  0  0  0  0  0
    2.5201    4.6951    0.0184 C   0  0  0  0  0  0  0  0  0  0  0  0
    3.3099    3.9944   -0.6112 O   0  0  0  0  0  0  0  0  0  0  0  0
    1.5973    3.6806    2.1177 C   0  0  0  0  0  0  0  0  0  0  0  0
    1.4528    2.4630   -0.5809 H   0  0  0  0  0  0  0  0  0  0  0  0
    0.4964    4.9052    0.7214 H   0  0  0  0  0  0  0  0  0  0  0  0
    2.3791    2.9123    2.1195 H   0  0  0  0  0  0  0  0  0  0  0  0
    1.9511    4.5135    2.7342 H   0  0  0  0  0  0  0  0  0  0  0  0
    0.7104    3.2533    2.5981 H   0  0  0  0  0  0  0  0  0  0  0  0
    2.6654    6.0590    0.2296 N   0  0  0  0  0  0  0  0  0  0  0  0
    3.7869    6.8120   -0.2817 C   0  0  0  0  0  0  0  0  0  0  0  0
    1.9418    6.5671    0.7296 H   0  0  0  0  0  0  0  0  0  0  0  0
    4.5804    6.8509    0.4791 H   0  0  0  0  0  0  0  0  0  0  0  0
    4.1726    6.3245   -1.1892 H   0  0  0  0  0  0  0  0  0  0  0  0
    3.4617    7.8344   -0.5247 H   0  0  0  0  0  0  0  0  0  0  0  0
  1  3  1  0  0  0  0
  1  7  1  0  0  0  0
  1  2  2  0  0  0  0
 23 25  1  0  0  0  0
 23 29  1  0  0  0  0
 23 24  2  0  0  0  0
 50 51  1  0  0  0  0
 51 59  1  0  0  0  0
 51 52  2  0  0  0  0
  8  9  1  0  0  0  0
  9 17  1  0  0  0  0
  9 10  2  0  0  0  0
 30 31  1  0  0  0  0
 31 39  1  0  0  0  0
 31 32  2  0  0  0  0
 40 41  1  0  0  0  0
 41 49  1  0  0  0  0
 41 42  2  0  0  0  0
 50 53  1  0  0  0  0
 30 33  1  0  0  0  0
 59 60  1  0  0  0  0
 17 18  1  0  0  0  0
  8 11  1  0  0  0  0
 11 12  1  0  0  0  0
 40 43  1  0  0  0  0
 43 44  1  0  0  0  0
 49 50  1  0  0  0  0
  7  8  1  0  0  0  0
 29 30  1  0  0  0  0
 39 40  1  0  0  0  0
 12 44  1  0  0  0  0
  3  4  1  0  0  0  0
  3  5  1  0  0  0  0
  3  6  1  0  0  0  0
 25 26  1  0  0  0  0
 25 27  1  0  0  0  0
 25 28  1  0  0  0  0
 53 56  1  0  0  0  0
 53 57  1  0  0  0  0
 53 58  1  0  0  0  0
 33 36  1  0  0  0  0
 33 37  1  0  0  0  0
 33 38  1  0  0  0  0
 60 62  1  0  0  0  0
 60 63  1  0  0  0  0
 60 64  1  0  0  0  0
 18 20  1  0  0  0  0
 18 21  1  0  0  0  0
 18 22  1  0  0  0  0
 11 15  1  0  0  0  0
 11 16  1  0  0  0  0
 43 47  1  0  0  0  0
 43 48  1  0  0  0  0
 50 55  1  0  0  0  0
  8 14  1  0  0  0  0
 30 35  1  0  0  0  0
 40 46  1  0  0  0  0
 59 61  1  0  0  0  0
 17 19  1  0  0  0  0
  7 13  1  0  0  0  0
 29 34  1  0  0  0  0
 49 54  1  0  0  0  0
 39 45  1  0  0  0  0
M  END
$$$$

  -OEChem-05262214473D

 64 63  0     1  0  0  0  0  0999 V2000
    0.6226   -0.1770   -9.0644 C   0  0  0  0  0  0  0  0  0  0  0  0
   -0.5388    0.0305   -9.3959 O   0  0  0  0  0  0  0  0  0  0  0  0
    1.3782   -1.3000   -9.6939 C   0  0  0  0  0  0  0  0  0  0  0  0
    1.2703   -2.2442   -9.1361 H   0  0  0  0  0  0  0  0  0  0  0  0
    1.0274   -1.5230  -10.7143 H   0  0  0  0  0  0  0  0  0  0  0  0
    2.4644   -1.1423   -9.7891 H   0  0  0  0  0  0  0  0  0  0  0  0
    1.3495    0.5431   -8.1322 N   0  0  0  0  0  0  0  0  0  0  0  0
    0.8133    1.6677   -7.4081 C   0  0  2  0  0  0  0  0  0  0  0  0
    1.9258    2.6910   -7.1895 C   0  0  0  0  0  0  0  0  0  0  0  0
    3.0981    2.4810   -7.4941 O   0  0  0  0  0  0  0  0  0  0  0  0
    0.1127    1.2469   -6.1138 C   0  0  0  0  0  0  0  0  0  0  0  0
    1.2218    0.4580   -4.9014 S   0  0  0  0  0  0  0  0  0  0  0  0
    2.3108    0.2643   -7.9489 H   0  0  0  0  0  0  0  0  0  0  0  0
    0.0719    2.1224   -8.0769 H   0  0  0  0  0  0  0  0  0  0  0  0
   -0.3438    2.1135   -5.6246 H   0  0  0  0  0  0  0  0  0  0  0  0
   -0.6882    0.5340   -6.3379 H   0  0  0  0  0  0  0  0  0  0  0  0
    1.4595    3.8538   -6.5926 N   0  0  0  0  0  0  0  0  0  0  0  0
    2.3258    4.9608   -6.2613 C   0  0  0  0  0  0  0  0  0  0  0  0
    0.4653    3.9601   -6.4140 H   0  0  0  0  0  0  0  0  0  0  0  0
    2.6759    4.8554   -5.2239 H   0  0  0  0  0  0  0  0  0  0  0  0
    3.1905    4.9658   -6.9412 H   0  0  0  0  0  0  0  0  0  0  0  0
    1.7710    5.9047   -6.3668 H   0  0  0  0  0  0  0  0  0  0  0  0
   -6.7256    2.0330   -0.2766 C   0  0  0  0  0  0  0  0  0  0  0  0
   -7.1824    1.1039   -0.9322 O   0  0  0  0  0  0  0  0  0  0  0  0
   -7.5276    2.6077    0.8435 C   0  0  0  0  0  0  0  0  0  0  0  0
   -8.1775    3.4344    0.5145 H   0  0  0  0  0  0  0  0  0  0  0  0
   -8.2057    1.8676    1.2980 H   0  0  0  0  0  0  0  0  0  0  0  0
   -6.9411    3.0162    1.6819 H   0  0  0  0  0  0  0  0  0  0  0  0
   -5.4935    2.6382   -0.4627 N   0  0  0  0  0  0  0  0  0  0  0  0
   -4.5619    2.2388   -1.4845 C   0  0  2  0  0  0  0  0  0  0  0  0
   -3.1535    2.4674   -0.9521 C   0  0  0  0  0  0  0  0  0  0  0  0
   -2.8634    3.3945   -0.1987 O   0  0  0  0  0  0  0  0  0  0  0  0
   -4.7883    3.0138   -2.7732 C   0  0  0  0  0  0  0  0  0  0  0  0
   -5.2337    3.4049    0.1551 H   0  0  0  0  0  0  0  0  0  0  0  0
   -4.7192    1.1682   -1.6549 H   0  0  0  0  0  0  0  0  0  0  0  0
   -4.6352    4.0886   -2.6221 H   0  0  0  0  0  0  0  0  0  0  0  0
   -4.0976    2.6887   -3.5582 H   0  0  0  0  0  0  0  0  0  0  0  0
   -5.8111    2.8719   -3.1387 H   0  0  0  0  0  0  0  0  0  0  0  0
   -2.2466    1.5400   -1.4507 N   0  0  0  0  0  0  0  0  0  0  0  0
   -0.8424    1.5707   -1.1286 C   0  0  2  0  0  0  0  0  0  0  0  0
   -0.5753    2.7482   -0.1932 C   0  0  0  0  0  0  0  0  0  0  0  0
   -1.4177    3.1888    0.5862 O   0  0  0  0  0  0  0  0  0  0  0  0
    0.0420    1.5752   -2.3779 C   0  0  0  0  0  0  0  0  0  0  0  0
   -0.0785    0.0618   -3.3617 S   0  0  0  0  0  0  0  0  0  0  0  0
   -2.5850    0.7815   -2.0381 H   0  0  0  0  0  0  0  0  0  0  0  0
   -0.6492    0.6496   -0.5648 H   0  0  0  0  0  0  0  0  0  0  0  0
   -0.2211    2.4128   -3.0320 H   0  0  0  0  0  0  0  0  0  0  0  0
    1.0921    1.6970   -2.0912 H   0  0  0  0  0  0  0  0  0  0  0  0
    0.7039    3.2630   -0.3496 N   0  0  0  0  0  0  0  0  0  0  0  0
    1.1855    4.3956    0.4061 C   0  0  2  0  0  0  0  0  0  0  0  0
    2.1612    5.1668   -0.4730 C   0  0  0  0  0  0  0  0  0  0  0  0
    2.9048    4.6230   -1.2869 O   0  0  0  0  0  0  0  0  0  0  0  0
    1.8516    3.9546    1.7001 C   0  0  0  0  0  0  0  0  0  0  0  0
    1.3510    2.8090   -0.9874 H   0  0  0  0  0  0  0  0  0  0  0  0
    0.3149    5.0235    0.6243 H   0  0  0  0  0  0  0  0  0  0  0  0
    2.7262    3.3244    1.5016 H   0  0  0  0  0  0  0  0  0  0  0  0
    2.1907    4.8157    2.2853 H   0  0  0  0  0  0  0  0  0  0  0  0
    1.1574    3.3746    2.3178 H   0  0  0  0  0  0  0  0  0  0  0  0
    2.1347    6.5295   -0.2111 N   0  0  0  0  0  0  0  0  0  0  0  0
    2.9994    7.4699   -0.8849 C   0  0  0  0  0  0  0  0  0  0  0  0
    1.4585    6.8979    0.4513 H   0  0  0  0  0  0  0  0  0  0  0  0
    3.9153    7.6154   -0.2934 H   0  0  0  0  0  0  0  0  0  0  0  0
    3.2630    7.0784   -1.8785 H   0  0  0  0  0  0  0  0  0  0  0  0
    2.4782    8.4322   -0.9963 H   0  0  0  0  0  0  0  0  0  0  0  0
  1  3  1  0  0  0  0
  1  7  1  0  0  0  0
  1  2  2  0  0  0  0
 23 25  1  0  0  0  0
 23 29  1  0  0  0  0
 23 24  2  0  0  0  0
 50 51  1  0  0  0  0
 51 59  1  0  0  0  0
 51 52  2  0  0  0  0
  8  9  1  0  0  0  0
  9 17  1  0  0  0  0
  9 10  2  0  0  0  0
 30 31  1  0  0  0  0
 31 39  1  0  0  0  0
 31 32  2  0  0  0  0
 40 41  1  0  0  0  0
 41 49  1  0  0  0  0
 41 42  2  0  0  0  0
 50 53  1  0  0  0  0
 30 33  1  0  0  0  0
 59 60  1  0  0  0  0
 17 18  1  0  0  0  0
  8 11  1  0  0  0  0
 11 12  1  0  0  0  0
 40 43  1  0  0  0  0
 43 44  1  0  0  0  0
 49 50  1  0  0  0  0
  7  8  1  0  0  0  0
 29 30  1  0  0  0  0
 39 40  1  0  0  0  0
 12 44  1  0  0  0  0
  3  4  1  0  0  0  0
  3  5  1  0  0  0  0
  3  6  1  0  0  0  0
 25 26  1  0  0  0  0
 25 27  1  0  0  0  0
 25 28  1  0  0  0  0
 53 56  1  0  0  0  0
 53 57  1  0  0  0  0
 53 58  1  0  0  0  0
 33 36  1  0  0  0  0
 33 37  1  0  0  0  0
 33 38  1  0  0  0  0
 60 62  1  0  0  0  0
 60 63  1  0  0  0  0
 60 64  1  0  0  0  0
 18 20  1  0  0  0  0
 18 21  1  0  0  0  0
 18 22  1  0  0  0  0
 11 15  1  0  0  0  0
 11 16  1  0  0  0  0
 43 47  1  0  0  0  0
 43 48  1  0  0  0  0
 50 55  1  0  0  0  0
  8 14  1  0  0  0  0
 30 35  1  0  0  0  0
 40 46  1  0  0  0  0
 59 61  1  0  0  0  0
 17 19  1  0  0  0  0
  7 13  1  0  0  0  0
 29 34  1  0  0  0  0
 49 54  1  0  0  0  0
 39 45  1  0  0  0  0
M  END
$$$$

  -OEChem-05262214473D

 64 63  0     1  0  0  0  0  0999 V2000
    0.6226   -0.1770   -9.0644 C   0  0  0  0  0  0  0  0  0  0  0  0
   -0.5388    0.0305   -9.3959 O   0  0  0  0  0  0  0  0  0  0  0  0
    1.3782   -1.3000   -9.6939 C   0  0  0  0  0  0  0  0  0  0  0  0
    1.2703   -2.2442   -9.1361 H   0  0  0  0  0  0  0  0  0  0  0  0
    1.0274   -1.5230  -10.7143 H   0  0  0  0  0  0  0  0  0  0  0  0
    2.4644   -1.1423   -9.7891 H   0  0  0  0  0  0  0  0  0  0  0  0
    1.3495    0.5431   -8.1322 N   0  0  0  0  0  0  0  0  0  0  0  0
    0.8133    1.6677   -7.4081 C   0  0  2  0  0  0  0  0  0  0  0  0
    1.9258    2.6910   -7.1895 C   0  0  0  0  0  0  0  0  0  0  0  0
    3.0981    2.4810   -7.4941 O   0  0  0  0  0  0  0  0  0  0  0  0
    0.1127    1.2469   -6.1138 C   0  0  0  0  0  0  0  0  0  0  0  0
    1.2218    0.4580   -4.9014 S   0  0  0  0  0  0  0  0  0  0  0  0
    2.3108    0.2643   -7.9489 H   0  0  0  0  0  0  0  0  0  0  0  0
    0.0719    2.1224   -8.0769 H   0  0  0  0  0  0  0  0  0  0  0  0
   -0.3438    2.1135   -5.6246 H   0  0  0  0  0  0  0  0  0  0  0  0
   -0.6882    0.5340   -6.3379 H   0  0  0  0  0  0  0  0  0  0  0  0
    1.4595    3.8538   -6.5926 N   0  0  0  0  0  0  0  0  0  0  0  0
    2.3258    4.9608   -6.2613 C   0  0  0  0  0  0  0  0  0  0  0  0
    0.4653    3.9601   -6.4140 H   0  0  0  0  0  0  0  0  0  0  0  0
    2.6759    4.8554   -5.2239 H   0  0  0  0  0  0  0  0  0  0  0  0
    3.1905    4.9658   -6.9412 H   0  0  0  0  0  0  0  0  0  0  0  0
    1.7710    5.9047   -6.3668 H   0  0  0  0  0  0  0  0  0  0  0  0
   -6.7256    2.0330   -0.2766 C   0  0  0  0  0  0  0  0  0  0  0  0
   -7.1824    1.1039   -0.9322 O   0  0  0  0  0  0  0  0  0  0  0  0
   -7.5276    2.6077    0.8435 C   0  0  0  0  0  0  0  0  0  0  0  0
   -8.1775    3.4344    0.5145 H   0  0  0  0  0  0  0  0  0  0  0  0
   -8.2057    1.8676    1.2980 H   0  0  0  0  0  0  0  0  0  0  0  0
   -6.9411    3.0162    1.6819 H   0  0  0  0  0  0  0  0  0  0  0  0
   -5.4935    2.6382   -0.4627 N   0  0  0  0  0  0  0  0  0  0  0  0
   -4.5619    2.2388   -1.4845 C   0  0  2  0  0  0  0  0  0  0  0  0
   -3.1535    2.4674   -0.9521 C   0  0  0  0  0  0  0  0  0  0  0  0
   -2.8634    3.3945   -0.1987 O   0  0  0  0  0  0  0  0  0  0  0  0
   -4.7883    3.0138   -2.7732 C   0  0  0  0  0  0  0  0  0  0  0  0
   -5.2337    3.4049    0.1551 H   0  0  0  0  0  0  0  0  0  0  0  0
   -4.7192    1.1682   -1.6549 H   0  0  0  0  0  0  0  0  0  0  0  0
   -4.6352    4.0886   -2.6221 H   0  0  0  0  0  0  0  0  0  0  0  0
   -4.0976    2.6887   -3.5582 H   0  0  0  0  0  0  0  0  0  0  0  0
   -5.8111    2.8719   -3.1387 H   0  0  0  0  0  0  0  0  0  0  0  0
   -2.2466    1.5400   -1.4507 N   0  0  0  0  0  0  0  0  0  0  0  0
   -0.8424    1.5707   -1.1286 C   0  0  2  0  0  0  0  0  0  0  0  0
   -0.5753    2.7482   -0.1932 C   0  0  0  0  0  0  0  0  0  0  0  0
   -1.2994    3.0226    0.7616 O   0  0  0  0  0  0  0  0  0  0  0  0
    0.0420    1.5752   -2.3779 C   0  0  0  0  0  0  0  0  0  0  0  0
   -0.0785    0.0618   -3.3617 S   0  0  0  0  0  0  0  0  0  0  0  0
   -2.5850    0.7815   -2.0381 H   0  0  0  0  0  0  0  0  0  0  0  0
   -0.6492    0.6496   -0.5648 H   0  0  0  0  0  0  0  0  0  0  0  0
   -0.2211    2.4128   -3.0320 H   0  0  0  0  0  0  0  0  0  0  0  0
    1.0921    1.6970   -2.0912 H   0  0  0  0  0  0  0  0  0  0  0  0
    0.5506    3.4690   -0.5652 N   0  0  0  0  0  0  0  0  0  0  0  0
    0.9956    4.6425    0.1495 C   0  0  2  0  0  0  0  0  0  0  0  0
    1.6418    5.5879   -0.8546 C   0  0  0  0  0  0  0  0  0  0  0  0
    2.2791    5.1966   -1.8303 O   0  0  0  0  0  0  0  0  0  0  0  0
    1.9705    4.2784    1.2585 C   0  0  0  0  0  0  0  0  0  0  0  0
    1.1166    3.1455   -1.3441 H   0  0  0  0  0  0  0  0  0  0  0  0
    0.1014    5.1134    0.5722 H   0  0  0  0  0  0  0  0  0  0  0  0
    2.8728    3.8054    0.8541 H   0  0  0  0  0  0  0  0  0  0  0  0
    2.2848    5.1659    1.8176 H   0  0  0  0  0  0  0  0  0  0  0  0
    1.5140    3.5752    1.9634 H   0  0  0  0  0  0  0  0  0  0  0  0
    1.4596    6.9197   -0.5095 N   0  0  0  0  0  0  0  0  0  0  0  0
    2.0141    8.0078   -1.2807 C   0  0  0  0  0  0  0  0  0  0  0  0
    0.8836    7.1535    0.2938 H   0  0  0  0  0  0  0  0  0  0  0  0
    2.9975    8.2835   -0.8723 H   0  0  0  0  0  0  0  0  0  0  0  0
    2.1273    7.6938   -2.3288 H   0  0  0  0  0  0  0  0  0  0  0  0
    1.3394    8.8750   -1.2286 H   0  0  0  0  0  0  0  0  0  0  0  0
  1  3  1  0  0  0  0
  1  7  1  0  0  0  0
  1  2  2  0  0  0  0
 23 25  1  0  0  0  0
 23 29  1  0  0  0  0
 23 24  2  0  0  0  0
 50 51  1  0  0  0  0
 51 59  1  0  0  0  0
 51 52  2  0  0  0  0
  8  9  1  0  0  0  0
  9 17  1  0  0  0  0
  9 10  2  0  0  0  0
 30 31  1  0  0  0  0
 31 39  1  0  0  0  0
 31 32  2  0  0  0  0
 40 41  1  0  0  0  0
 41 49  1  0  0  0  0
 41 42  2  0  0  0  0
 50 53  1  0  0  0  0
 30 33  1  0  0  0  0
 59 60  1  0  0  0  0
 17 18  1  0  0  0  0
  8 11  1  0  0  0  0
 11 12  1  0  0  0  0
 40 43  1  0  0  0  0
 43 44  1  0  0  0  0
 49 50  1  0  0  0  0
  7  8  1  0  0  0  0
 29 30  1  0  0  0  0
 39 40  1  0  0  0  0
 12 44  1  0  0  0  0
  3  4  1  0  0  0  0
  3  5  1  0  0  0  0
  3  6  1  0  0  0  0
 25 26  1  0  0  0  0
 25 27  1  0  0  0  0
 25 28  1  0  0  0  0
 53 56  1  0  0  0  0
 53 57  1  0  0  0  0
 53 58  1  0  0  0  0
 33 36  1  0  0  0  0
 33 37  1  0  0  0  0
 33 38  1  0  0  0  0
 60 62  1  0  0  0  0
 60 63  1  0  0  0  0
 60 64  1  0  0  0  0
 18 20  1  0  0  0  0
 18 21  1  0  0  0  0
 18 22  1  0  0  0  0
 11 15  1  0  0  0  0
 11 16  1  0  0  0  0
 43 47  1  0  0  0  0
 43 48  1  0  0  0  0
 50 55  1  0  0  0  0
  8 14  1  0  0  0  0
 30 35  1  0  0  0  0
 40 46  1  0  0  0  0
 59 61  1  0  0  0  0
 17 19  1  0  0  0  0
  7 13  1  0  0  0  0
 29 34  1  0  0  0  0
 49 54  1  0  0  0  0
 39 45  1  0  0  0  0
M  END
$$$$

  -OEChem-05262214473D

 64 63  0     1  0  0  0  0  0999 V2000
    0.6226   -0.1770   -9.0644 C   0  0  0  0  0  0  0  0  0  0  0  0
   -0.5388    0.0305   -9.3959 O   0  0  0  0  0  0  0  0  0  0  0  0
    1.3782   -1.3000   -9.6939 C   0  0  0  0  0  0  0  0  0  0  0  0
    1.2703   -2.2442   -9.1361 H   0  0  0  0  0  0  0  0  0  0  0  0
    1.0274   -1.5230  -10.7143 H   0  0  0  0  0  0  0  0  0  0  0  0
    2.4644   -1.1423   -9.7891 H   0  0  0  0  0  0  0  0  0  0  0  0
    1.3495    0.5431   -8.1322 N   0  0  0  0  0  0  0  0  0  0  0  0
    0.8133    1.6677   -7.4081 C   0  0  2  0  0  0  0  0  0  0  0  0
    1.9258    2.6910   -7.1895 C   0  0  0  0  0  0  0  0  0  0  0  0
    3.0981    2.4810   -7.4941 O   0  0  0  0  0  0  0  0  0  0  0  0
    0.1127    1.2469   -6.1138 C   0  0  0  0  0  0  0  0  0  0  0  0
    1.2218    0.4580   -4.9014 S   0  0  0  0  0  0  0  0  0  0  0  0
    2.3108    0.2643   -7.9489 H   0  0  0  0  0  0  0  0  0  0  0  0
    0.0719    2.1224   -8.0769 H   0  0  0  0  0  0  0  0  0  0  0  0
   -0.3438    2.1135   -5.6246 H   0  0  0  0  0  0  0  0  0  0  0  0
   -0.6882    0.5340   -6.3379 H   0  0  0  0  0  0  0  0  0  0  0  0
    1.4595    3.8538   -6.5926 N   0  0  0  0  0  0  0  0  0  0  0  0
    2.3258    4.9608   -6.2613 C   0  0  0  0  0  0  0  0  0  0  0  0
    0.4653    3.9601   -6.4140 H   0  0  0  0  0  0  0  0  0  0  0  0
    2.6759    4.8554   -5.2239 H   0  0  0  0  0  0  0  0  0  0  0  0
    3.1905    4.9658   -6.9412 H   0  0  0  0  0  0  0  0  0  0  0  0
    1.7710    5.9047   -6.3668 H   0  0  0  0  0  0  0  0  0  0  0  0
   -6.7256    2.0330   -0.2766 C   0  0  0  0  0  0  0  0  0  0  0  0
   -7.1824    1.1039   -0.9322 O   0  0  0  0  0  0  0  0  0  0  0  0
   -7.5276    2.6077    0.8435 C   0  0  0  0  0  0  0  0  0  0  0  0
   -8.1775    3.4344    0.5145 H   0  0  0  0  0  0  0  0  0  0  0  0
   -8.2057    1.8676    1.2980 H   0  0  0  0  0  0  0  0  0  0  0  0
   -6.9411    3.0162    1.6819 H   0  0  0  0  0  0  0  0  0  0  0  0
   -5.4935    2.6382   -0.4627 N   0  0  0  0  0  0  0  0  0  0  0  0
   -4.5619    2.2388   -1.4845 C   0  0  2  0  0  0  0  0  0  0  0  0
   -3.1535    2.4674   -0.9521 C   0  0  0  0  0  0  0  0  0  0  0  0
   -2.8634    3.3945   -0.1987 O   0  0  0  0  0  0  0  0  0  0  0  0
   -4.7883    3.0138   -2.7732 C   0  0  0  0  0  0  0  0  0  0  0  0
   -5.2337    3.4049    0.1551 H   0  0  0  0  0  0  0  0  0  0  0  0
   -4.7192    1.1682   -1.6549 H   0  0  0  0  0  0  0  0  0  0  0  0
   -4.6352    4.0886   -2.6221 H   0  0  0  0  0  0  0  0  0  0  0  0
   -4.0976    2.6887   -3.5582 H   0  0  0  0  0  0  0  0  0  0  0  0
   -5.8111    2.8719   -3.1387 H   0  0  0  0  0  0  0  0  0  0  0  0
   -2.2466    1.5400   -1.4507 N   0  0  0  0  0  0  0  0  0  0  0  0
   -0.8424    1.5707   -1.1286 C   0  0  2  0  0  0  0  0  0  0  0  0
   -0.5753    2.7482   -0.1932 C   0  0  0  0  0  0  0  0  0  0  0  0
   -1.1236    2.8728    0.9000 O   0  0  0  0  0  0  0  0  0  0  0  0
    0.0420    1.5752   -2.3779 C   0  0  0  0  0  0  0  0  0  0  0  0
   -0.0785    0.0618   -3.3617 S   0  0  0  0  0  0  0  0  0  0  0  0
   -2.5850    0.7815   -2.0381 H   0  0  0  0  0  0  0  0  0  0  0  0
   -0.6492    0.6496   -0.5648 H   0  0  0  0  0  0  0  0  0  0  0  0
   -0.2211    2.4128   -3.0320 H   0  0  0  0  0  0  0  0  0  0  0  0
    1.0921    1.6970   -2.0912 H   0  0  0  0  0  0  0  0  0  0  0  0
    0.3269    3.6535   -0.7336 N   0  0  0  0  0  0  0  0  0  0  0  0
    0.7218    4.8625   -0.0493 C   0  0  2  0  0  0  0  0  0  0  0  0
    0.9971    5.9295   -1.1006 C   0  0  0  0  0  0  0  0  0  0  0  0
    1.4754    5.6761   -2.2043 O   0  0  0  0  0  0  0  0  0  0  0  0
    1.9458    4.6301    0.8228 C   0  0  0  0  0  0  0  0  0  0  0  0
    0.7657    3.4496   -1.6266 H   0  0  0  0  0  0  0  0  0  0  0  0
   -0.1295    5.1687    0.5685 H   0  0  0  0  0  0  0  0  0  0  0  0
    2.8090    4.3226    0.2213 H   0  0  0  0  0  0  0  0  0  0  0  0
    2.2268    5.5402    1.3629 H   0  0  0  0  0  0  0  0  0  0  0  0
    1.7559    3.8416    1.5589 H   0  0  0  0  0  0  0  0  0  0  0  0
    0.6861    7.2032   -0.6454 N   0  0  0  0  0  0  0  0  0  0  0  0
    0.8981    8.3891   -1.4420 C   0  0  0  0  0  0  0  0  0  0  0  0
    0.2563    7.3163    0.2680 H   0  0  0  0  0  0  0  0  0  0  0  0
    1.8896    8.8095   -1.2180 H   0  0  0  0  0  0  0  0  0  0  0  0
    0.8430    8.1285   -2.5092 H   0  0  0  0  0  0  0  0  0  0  0  0
    0.1228    9.1328   -1.2056 H   0  0  0  0  0  0  0  0  0  0  0  0
  1  3  1  0  0  0  0
  1  7  1  0  0  0  0
  1  2  2  0  0  0  0
 23 25  1  0  0  0  0
 23 29  1  0  0  0  0
 23 24  2  0  0  0  0
 50 51  1  0  0  0  0
 51 59  1  0  0  0  0
 51 52  2  0  0  0  0
  8  9  1  0  0  0  0
  9 17  1  0  0  0  0
  9 10  2  0  0  0  0
 30 31  1  0  0  0  0
 31 39  1  0  0  0  0
 31 32  2  0  0  0  0
 40 41  1  0  0  0  0
 41 49  1  0  0  0  0
 41 42  2  0  0  0  0
 50 53  1  0  0  0  0
 30 33  1  0  0  0  0
 59 60  1  0  0  0  0
 17 18  1  0  0  0  0
  8 11  1  0  0  0  0
 11 12  1  0  0  0  0
 40 43  1  0  0  0  0
 43 44  1  0  0  0  0
 49 50  1  0  0  0  0
  7  8  1  0  0  0  0
 29 30  1  0  0  0  0
 39 40  1  0  0  0  0
 12 44  1  0  0  0  0
  3  4  1  0  0  0  0
  3  5  1  0  0  0  0
  3  6  1  0  0  0  0
 25 26  1  0  0  0  0
 25 27  1  0  0  0  0
 25 28  1  0  0  0  0
 53 56  1  0  0  0  0
 53 57  1  0  0  0  0
 53 58  1  0  0  0  0
 33 36  1  0  0  0  0
 33 37  1  0  0  0  0
 33 38  1  0  0  0  0
 60 62  1  0  0  0  0
 60 63  1  0  0  0  0
 60 64  1  0  0  0  0
 18 20  1  0  0  0  0
 18 21  1  0  0  0  0
 18 22  1  0  0  0  0
 11 15  1  0  0  0  0
 11 16  1  0  0  0  0
 43 47  1  0  0  0  0
 43 48  1  0  0  0  0
 50 55  1  0  0  0  0
  8 14  1  0  0  0  0
 30 35  1  0  0  0  0
 40 46  1  0  0  0  0
 59 61  1  0  0  0  0
 17 19  1  0  0  0  0
  7 13  1  0  0  0  0
 29 34  1  0  0  0  0
 49 54  1  0  0  0  0
 39 45  1  0  0  0  0
M  END
$$$$

  -OEChem-05262214473D

 64 63  0     1  0  0  0  0  0999 V2000
    0.6226   -0.1770   -9.0644 C   0  0  0  0  0  0  0  0  0  0  0  0
   -0.5388    0.0305   -9.3959 O   0  0  0  0  0  0  0  0  0  0  0  0
    1.3782   -1.3000   -9.6939 C   0  0  0  0  0  0  0  0  0  0  0  0
    1.2703   -2.2442   -9.1361 H   0  0  0  0  0  0  0  0  0  0  0  0
    1.0274   -1.5230  -10.7143 H   0  0  0  0  0  0  0  0  0  0  0  0
    2.4644   -1.1423   -9.7891 H   0  0  0  0  0  0  0  0  0  0  0  0
    1.3495    0.5431   -8.1322 N   0  0  0  0  0  0  0  0  0  0  0  0
    0.8133    1.6677   -7.4081 C   0  0  2  0  0  0  0  0  0  0  0  0
    1.9258    2.6910   -7.1895 C   0  0  0  0  0  0  0  0  0  0  0  0
    3.0981    2.4810   -7.4941 O   0  0  0  0  0  0  0  0  0  0  0  0
    0.1127    1.2469   -6.1138 C   0  0  0  0  0  0  0  0  0  0  0  0
    1.2218    0.4580   -4.9014 S   0  0  0  0  0  0  0  0  0  0  0  0
    2.3108    0.2643   -7.9489 H   0  0  0  0  0  0  0  0  0  0  0  0
    0.0719    2.1224   -8.0769 H   0  0  0  0  0  0  0  0  0  0  0  0
   -0.3438    2.1135   -5.6246 H   0  0  0  0  0  0  0  0  0  0  0  0
   -0.6882    0.5340   -6.3379 H   0  0  0  0  0  0  0  0  0  0  0  0
    1.4595    3.8538   -6.5926 N   0  0  0  0  0  0  0  0  0  0  0  0
    2.3258    4.9608   -6.2613 C   0  0  0  0  0  0  0  0  0  0  0  0
    0.4653    3.9601   -6.4140 H   0  0  0  0  0  0  0  0  0  0  0  0
    2.6759    4.8554   -5.2239 H   0  0  0  0  0  0  0  0  0  0  0  0
    3.1905    4.9658   -6.9412 H   0  0  0  0  0  0  0  0  0  0  0  0
    1.7710    5.9047   -6.3668 H   0  0  0  0  0  0  0  0  0  0  0  0
   -6.7256    2.0330   -0.2766 C   0  0  0  0  0  0  0  0  0  0  0  0
   -7.1824    1.1039   -0.9322 O   0  0  0  0  0  0  0  0  0  0  0  0
   -7.5276    2.6077    0.8435 C   0  0  0  0  0  0  0  0  0  0  0  0
   -8.1775    3.4344    0.5145 H   0  0  0  0  0  0  0  0  0  0  0  0
   -8.2057    1.8676    1.2980 H   0  0  0  0  0  0  0  0  0  0  0  0
   -6.9411    3.0162    1.6819 H   0  0  0  0  0  0  0  0  0  0  0  0
   -5.4935    2.6382   -0.4627 N   0  0  0  0  0  0  0  0  0  0  0  0
   -4.5619    2.2388   -1.4845 C   0  0  2  0  0  0  0  0  0  0  0  0
   -3.1535    2.4674   -0.9521 C   0  0  0  0  0  0  0  0  0  0  0  0
   -2.8634    3.3945   -0.1987 O   0  0  0  0  0  0  0  0  0  0  0  0
   -4.7883    3.0138   -2.7732 C   0  0  0  0  0  0  0  0  0  0  0  0
   -5.2337    3.4049    0.1551 H   0  0  0  0  0  0  0  0  0  0  0  0
   -4.7192    1.1682   -1.6549 H   0  0  0  0  0  0  0  0  0  0  0  0
   -4.6352    4.0886   -2.6221 H   0  0  0  0  0  0  0  0  0  0  0  0
   -4.0976    2.6887   -3.5582 H   0  0  0  0  0  0  0  0  0  0  0  0
   -5.8111    2.8719   -3.1387 H   0  0  0  0  0  0  0  0  0  0  0  0
   -2.2466    1.5400   -1.4507 N   0  0  0  0  0  0  0  0  0  0  0  0
   -0.8424    1.5707   -1.1286 C   0  0  2  0  0  0  0  0  0  0  0  0
   -0.5753    2.7482   -0.1932 C   0  0  0  0  0  0  0  0  0  0  0  0
   -0.9026    2.7497    0.9918 O   0  0  0  0  0  0  0  0  0  0  0  0
    0.0420    1.5752   -2.3779 C   0  0  0  0  0  0  0  0  0  0  0  0
   -0.0785    0.0618   -3.3617 S   0  0  0  0  0  0  0  0  0  0  0  0
   -2.5850    0.7815   -2.0381 H   0  0  0  0  0  0  0  0  0  0  0  0
   -0.6492    0.6496   -0.5648 H   0  0  0  0  0  0  0  0  0  0  0  0
   -0.2211    2.4128   -3.0320 H   0  0  0  0  0  0  0  0  0  0  0  0
    1.0921    1.6970   -2.0912 H   0  0  0  0  0  0  0  0  0  0  0  0
    0.0480    3.8039   -0.8433 N   0  0  0  0  0  0  0  0  0  0  0  0
    0.3828    5.0406   -0.1767 C   0  0  2  0  0  0  0  0  0  0  0  0
    0.2712    6.1685   -1.1941 C   0  0  0  0  0  0  0  0  0  0  0  0
    0.5484    6.0288   -2.3835 O   0  0  0  0  0  0  0  0  0  0  0  0
    1.7794    4.9856    0.4228 C   0  0  0  0  0  0  0  0  0  0  0  0
    0.3223    3.7004   -1.8157 H   0  0  0  0  0  0  0  0  0  0  0  0
   -0.3619    5.1857    0.6135 H   0  0  0  0  0  0  0  0  0  0  0  0
    2.5392    4.8407   -0.3539 H   0  0  0  0  0  0  0  0  0  0  0  0
    2.0207    5.9132    0.9522 H   0  0  0  0  0  0  0  0  0  0  0  0
    1.8666    4.1555    1.1321 H   0  0  0  0  0  0  0  0  0  0  0  0
   -0.1331    7.3605   -0.6095 N   0  0  0  0  0  0  0  0  0  0  0  0
   -0.2725    8.5879   -1.3578 C   0  0  0  0  0  0  0  0  0  0  0  0
   -0.3805    7.3753    0.3756 H   0  0  0  0  0  0  0  0  0  0  0  0
    0.6671    9.1576   -1.3071 H   0  0  0  0  0  0  0  0  0  0  0  0
   -0.5025    8.3531   -2.4076 H   0  0  0  0  0  0  0  0  0  0  0  0
   -1.0886    9.1880   -0.9290 H   0  0  0  0  0  0  0  0  0  0  0  0
  1  3  1  0  0  0  0
  1  7  1  0  0  0  0
  1  2  2  0  0  0  0
 23 25  1  0  0  0  0
 23 29  1  0  0  0  0
 23 24  2  0  0  0  0
 50 51  1  0  0  0  0
 51 59  1  0  0  0  0
 51 52  2  0  0  0  0
  8  9  1  0  0  0  0
  9 17  1  0  0  0  0
  9 10  2  0  0  0  0
 30 31  1  0  0  0  0
 31 39  1  0  0  0  0
 31 32  2  0  0  0  0
 40 41  1  0  0  0  0
 41 49  1  0  0  0  0
 41 42  2  0  0  0  0
 50 53  1  0  0  0  0
 30 33  1  0  0  0  0
 59 60  1  0  0  0  0
 17 18  1  0  0  0  0
  8 11  1  0  0  0  0
 11 12  1  0  0  0  0
 40 43  1  0  0  0  0
 43 44  1  0  0  0  0
 49 50  1  0  0  0  0
  7  8  1  0  0  0  0
 29 30  1  0  0  0  0
 39 40  1  0  0  0  0
 12 44  1  0  0  0  0
  3  4  1  0  0  0  0
  3  5  1  0  0  0  0
  3  6  1  0  0  0  0
 25 26  1  0  0  0  0
 25 27  1  0  0  0  0
 25 28  1  0  0  0  0
 53 56  1  0  0  0  0
 53 57  1  0  0  0  0
 53 58  1  0  0  0  0
 33 36  1  0  0  0  0
 33 37  1  0  0  0  0
 33 38  1  0  0  0  0
 60 62  1  0  0  0  0
 60 63  1  0  0  0  0
 60 64  1  0  0  0  0
 18 20  1  0  0  0  0
 18 21  1  0  0  0  0
 18 22  1  0  0  0  0
 11 15  1  0  0  0  0
 11 16  1  0  0  0  0
 43 47  1  0  0  0  0
 43 48  1  0  0  0  0
 50 55  1  0  0  0  0
  8 14  1  0  0  0  0
 30 35  1  0  0  0  0
 40 46  1  0  0  0  0
 59 61  1  0  0  0  0
 17 19  1  0  0  0  0
  7 13  1  0  0  0  0
 29 34  1  0  0  0  0
 49 54  1  0  0  0  0
 39 45  1  0  0  0  0
M  END
$$$$

  -OEChem-05262214473D

 64 63  0     1  0  0  0  0  0999 V2000
    0.6226   -0.1770   -9.0644 C   0  0  0  0  0  0  0  0  0  0  0  0
   -0.5388    0.0305   -9.3959 O   0  0  0  0  0  0  0  0  0  0  0  0
    1.3782   -1.3000   -9.6939 C   0  0  0  0  0  0  0  0  0  0  0  0
    1.2703   -2.2442   -9.1361 H   0  0  0  0  0  0  0  0  0  0  0  0
    1.0274   -1.5230  -10.7143 H   0  0  0  0  0  0  0  0  0  0  0  0
    2.4644   -1.1423   -9.7891 H   0  0  0  0  0  0  0  0  0  0  0  0
    1.3495    0.5431   -8.1322 N   0  0  0  0  0  0  0  0  0  0  0  0
    0.8133    1.6677   -7.4081 C   0  0  2  0  0  0  0  0  0  0  0  0
    1.9258    2.6910   -7.1895 C   0  0  0  0  0  0  0  0  0  0  0  0
    3.0981    2.4810   -7.4941 O   0  0  0  0  0  0  0  0  0  0  0  0
    0.1127    1.2469   -6.1138 C   0  0  0  0  0  0  0  0  0  0  0  0
    1.2218    0.4580   -4.9014 S   0  0  0  0  0  0  0  0  0  0  0  0
    2.3108    0.2643   -7.9489 H   0  0  0  0  0  0  0  0  0  0  0  0
    0.0719    2.1224   -8.0769 H   0  0  0  0  0  0  0  0  0  0  0  0
   -0.3438    2.1135   -5.6246 H   0  0  0  0  0  0  0  0  0  0  0  0
   -0.6882    0.5340   -6.3379 H   0  0  0  0  0  0  0  0  0  0  0  0
    1.4595    3.8538   -6.5926 N   0  0  0  0  0  0  0  0  0  0  0  0
    2.3258    4.9608   -6.2613 C   0  0  0  0  0  0  0  0  0  0  0  0
    0.4653    3.9601   -6.4140 H   0  0  0  0  0  0  0  0  0  0  0  0
    2.6759    4.8554   -5.2239 H   0  0  0  0  0  0  0  0  0  0  0  0
    3.1905    4.9658   -6.9412 H   0  0  0  0  0  0  0  0  0  0  0  0
    1.7710    5.9047   -6.3668 H   0  0  0  0  0  0  0  0  0  0  0  0
   -6.7256    2.0330   -0.2766 C   0  0  0  0  0  0  0  0  0  0  0  0
   -7.1824    1.1039   -0.9322 O   0  0  0  0  0  0  0  0  0  0  0  0
   -7.5276    2.6077    0.8435 C   0  0  0  0  0  0  0  0  0  0  0  0
   -8.1775    3.4344    0.5145 H   0  0  0  0  0  0  0  0  0  0  0  0
   -8.2057    1.8676    1.2980 H   0  0  0  0  0  0  0  0  0  0  0  0
   -6.9411    3.0162    1.6819 H   0  0  0  0  0  0  0  0  0  0  0  0
   -5.4935    2.6382   -0.4627 N   0  0  0  0  0  0  0  0  0  0  0  0
   -4.5619    2.2388   -1.4845 C   0  0  2  0  0  0  0  0  0  0  0  0
   -3.1535    2.4674   -0.9521 C   0  0  0  0  0  0  0  0  0  0  0  0
   -2.8634    3.3945   -0.1987 O   0  0  0  0  0  0  0  0  0  0  0  0
   -4.7883    3.0138   -2.7732 C   0  0  0  0  0  0  0  0  0  0  0  0
   -5.2337    3.4049    0.1551 H   0  0  0  0  0  0  0  0  0  0  0  0
   -4.7192    1.1682   -1.6549 H   0  0  0  0  0  0  0  0  0  0  0  0
   -4.6352    4.0886   -2.6221 H   0  0  0  0  0  0  0  0  0  0  0  0
   -4.0976    2.6887   -3.5582 H   0  0  0  0  0  0  0  0  0  0  0  0
   -5.8111    2.8719   -3.1387 H   0  0  0  0  0  0  0  0  0  0  0  0
   -2.2466    1.5400   -1.4507 N   0  0  0  0  0  0  0  0  0  0  0  0
   -0.8424    1.5707   -1.1286 C   0  0  2  0  0  0  0  0  0  0  0  0
   -0.5753    2.7482   -0.1932 C   0  0  0  0  0  0  0  0  0  0  0  0
   -0.6512    2.6617    1.0308 O   0  0  0  0  0  0  0  0  0  0  0  0
    0.0420    1.5752   -2.3779 C   0  0  0  0  0  0  0  0  0  0  0  0
   -0.0785    0.0618   -3.3617 S   0  0  0  0  0  0  0  0  0  0  0  0
   -2.5850    0.7815   -2.0381 H   0  0  0  0  0  0  0  0  0  0  0  0
   -0.6492    0.6496   -0.5648 H   0  0  0  0  0  0  0  0  0  0  0  0
   -0.2211    2.4128   -3.0320 H   0  0  0  0  0  0  0  0  0  0  0  0
    1.0921    1.6970   -2.0912 H   0  0  0  0  0  0  0  0  0  0  0  0
   -0.2672    3.9100   -0.8867 N   0  0  0  0  0  0  0  0  0  0  0  0
    0.0017    5.1647   -0.2240 C   0  0  2  0  0  0  0  0  0  0  0  0
   -0.4865    6.2884   -1.1287 C   0  0  0  0  0  0  0  0  0  0  0  0
   -0.4386    6.2306   -2.3556 O   0  0  0  0  0  0  0  0  0  0  0  0
    1.4824    5.3207    0.0857 C   0  0  0  0  0  0  0  0  0  0  0  0
   -0.1836    3.8810   -1.8986 H   0  0  0  0  0  0  0  0  0  0  0  0
   -0.5802    5.1633    0.7041 H   0  0  0  0  0  0  0  0  0  0  0  0
    2.0816    5.3244   -0.8321 H   0  0  0  0  0  0  0  0  0  0  0  0
    1.6806    6.2595    0.6135 H   0  0  0  0  0  0  0  0  0  0  0  0
    1.8386    4.4956    0.7119 H   0  0  0  0  0  0  0  0  0  0  0  0
   -0.9421    7.3810   -0.4042 N   0  0  0  0  0  0  0  0  0  0  0  0
   -1.4179    8.5906   -1.0340 C   0  0  0  0  0  0  0  0  0  0  0  0
   -0.9835    7.3265    0.6092 H   0  0  0  0  0  0  0  0  0  0  0  0
   -0.5867    9.3042   -1.1335 H   0  0  0  0  0  0  0  0  0  0  0  0
   -1.8175    8.3521   -2.0307 H   0  0  0  0  0  0  0  0  0  0  0  0
   -2.2122    9.0368   -0.4176 H   0  0  0  0  0  0  0  0  0  0  0  0
  1  3  1  0  0  0  0
  1  7  1  0  0  0  0
  1  2  2  0  0  0  0
 23 25  1  0  0  0  0
 23 29  1  0  0  0  0
 23 24  2  0  0  0  0
 50 51  1  0  0  0  0
 51 59  1  0  0  0  0
 51 52  2  0  0  0  0
  8  9  1  0  0  0  0
  9 17  1  0  0  0  0
  9 10  2  0  0  0  0
 30 31  1  0  0  0  0
 31 39  1  0  0  0  0
 31 32  2  0  0  0  0
 40 41  1  0  0  0  0
 41 49  1  0  0  0  0
 41 42  2  0  0  0  0
 50 53  1  0  0  0  0
 30 33  1  0  0  0  0
 59 60  1  0  0  0  0
 17 18  1  0  0  0  0
  8 11  1  0  0  0  0
 11 12  1  0  0  0  0
 40 43  1  0  0  0  0
 43 44  1  0  0  0  0
 49 50  1  0  0  0  0
  7  8  1  0  0  0  0
 29 30  1  0  0  0  0
 39 40  1  0  0  0  0
 12 44  1  0  0  0  0
  3  4  1  0  0  0  0
  3  5  1  0  0  0  0
  3  6  1  0  0  0  0
 25 26  1  0  0  0  0
 25 27  1  0  0  0  0
 25 28  1  0  0  0  0
 53 56  1  0  0  0  0
 53 57  1  0  0  0  0
 53 58  1  0  0  0  0
 33 36  1  0  0  0  0
 33 37  1  0  0  0  0
 33 38  1  0  0  0  0
 60 62  1  0  0  0  0
 60 63  1  0  0  0  0
 60 64  1  0  0  0  0
 18 20  1  0  0  0  0
 18 21  1  0  0  0  0
 18 22  1  0  0  0  0
 11 15  1  0  0  0  0
 11 16  1  0  0  0  0
 43 47  1  0  0  0  0
 43 48  1  0  0  0  0
 50 55  1  0  0  0  0
  8 14  1  0  0  0  0
 30 35  1  0  0  0  0
 40 46  1  0  0  0  0
 59 61  1  0  0  0  0
 17 19  1  0  0  0  0
  7 13  1  0  0  0  0
 29 34  1  0  0  0  0
 49 54  1  0  0  0  0
 39 45  1  0  0  0  0
M  END
$$$$

  -OEChem-05262214473D

 64 63  0     1  0  0  0  0  0999 V2000
    0.6226   -0.1770   -9.0644 C   0  0  0  0  0  0  0  0  0  0  0  0
   -0.5388    0.0305   -9.3959 O   0  0  0  0  0  0  0  0  0  0  0  0
    1.3782   -1.3000   -9.6939 C   0  0  0  0  0  0  0  0  0  0  0  0
    1.2703   -2.2442   -9.1361 H   0  0  0  0  0  0  0  0  0  0  0  0
    1.0274   -1.5230  -10.7143 H   0  0  0  0  0  0  0  0  0  0  0  0
    2.4644   -1.1423   -9.7891 H   0  0  0  0  0  0  0  0  0  0  0  0
    1.3495    0.5431   -8.1322 N   0  0  0  0  0  0  0  0  0  0  0  0
    0.8133    1.6677   -7.4081 C   0  0  2  0  0  0  0  0  0  0  0  0
    1.9258    2.6910   -7.1895 C   0  0  0  0  0  0  0  0  0  0  0  0
    3.0981    2.4810   -7.4941 O   0  0  0  0  0  0  0  0  0  0  0  0
    0.1127    1.2469   -6.1138 C   0  0  0  0  0  0  0  0  0  0  0  0
    1.2218    0.4580   -4.9014 S   0  0  0  0  0  0  0  0  0  0  0  0
    2.3108    0.2643   -7.9489 H   0  0  0  0  0  0  0  0  0  0  0  0
    0.0719    2.1224   -8.0769 H   0  0  0  0  0  0  0  0  0  0  0  0
   -0.3438    2.1135   -5.6246 H   0  0  0  0  0  0  0  0  0  0  0  0
   -0.6882    0.5340   -6.3379 H   0  0  0  0  0  0  0  0  0  0  0  0
    1.4595    3.8538   -6.5926 N   0  0  0  0  0  0  0  0  0  0  0  0
    2.3258    4.9608   -6.2613 C   0  0  0  0  0  0  0  0  0  0  0  0
    0.4653    3.9601   -6.4140 H   0  0  0  0  0  0  0  0  0  0  0  0
    2.6759    4.8554   -5.2239 H   0  0  0  0  0  0  0  0  0  0  0  0
    3.1905    4.9658   -6.9412 H   0  0  0  0  0  0  0  0  0  0  0  0
    1.7710    5.9047   -6.3668 H   0  0  0  0  0  0  0  0  0  0  0  0
   -6.7256    2.0330   -0.2766 C   0  0  0  0  0  0  0  0  0  0  0  0
   -7.1824    1.1039   -0.9322 O   0  0  0  0  0  0  0  0  0  0  0  0
   -7.5276    2.6077    0.8435 C   0  0  0  0  0  0  0  0  0  0  0  0
   -8.1775    3.4344    0.5145 H   0  0  0  0  0  0  0  0  0  0  0  0
   -8.2057    1.8676    1.2980 H   0  0  0  0  0  0  0  0  0  0  0  0
   -6.9411    3.0162    1.6819 H   0  0  0  0  0  0  0  0  0  0  0  0
   -5.4935    2.6382   -0.4627 N   0  0  0  0  0  0  0  0  0  0  0  0
   -4.5619    2.2388   -1.4845 C   0  0  2  0  0  0  0  0  0  0  0  0
   -3.1535    2.4674   -0.9521 C   0  0  0  0  0  0  0  0  0  0  0  0
   -2.8634    3.3945   -0.1987 O   0  0  0  0  0  0  0  0  0  0  0  0
   -4.7883    3.0138   -2.7732 C   0  0  0  0  0  0  0  0  0  0  0  0
   -5.2337    3.4049    0.1551 H   0  0  0  0  0  0  0  0  0  0  0  0
   -4.7192    1.1682   -1.6549 H   0  0  0  0  0  0  0  0  0  0  0  0
   -4.6352    4.0886   -2.6221 H   0  0  0  0  0  0  0  0  0  0  0  0
   -4.0976    2.6887   -3.5582 H   0  0  0  0  0  0  0  0  0  0  0  0
   -5.8111    2.8719   -3.1387 H   0  0  0  0  0  0  0  0  0  0  0  0
   -2.2466    1.5400   -1.4507 N   0  0  0  0  0  0  0  0  0  0  0  0
   -0.8424    1.5707   -1.1286 C   0  0  2  0  0  0  0  0  0  0  0  0
   -0.5753    2.7482   -0.1932 C   0  0  0  0  0  0  0  0  0  0  0  0
   -0.3867    2.6148    1.0143 O   0  0  0  0  0  0  0  0  0  0  0  0
    0.0420    1.5752   -2.3779 C   0  0  0  0  0  0  0  0  0  0  0  0
   -0.0785    0.0618   -3.3617 S   0  0  0  0  0  0  0  0  0  0  0  0
   -2.5850    0.7815   -2.0381 H   0  0  0  0  0  0  0  0  0  0  0  0
   -0.6492    0.6496   -0.5648 H   0  0  0  0  0  0  0  0  0  0  0  0
   -0.2211    2.4128   -3.0320 H   0  0  0  0  0  0  0  0  0  0  0  0
    1.0921    1.6970   -2.0912 H   0  0  0  0  0  0  0  0  0  0  0  0
   -0.5970    3.9644   -0.8610 N   0  0  0  0  0  0  0  0  0  0  0  0
   -0.3955    5.2263   -0.1881 C   0  0  2  0  0  0  0  0  0  0  0  0
   -1.2244    6.2813   -0.9089 C   0  0  0  0  0  0  0  0  0  0  0  0
   -1.4185    6.2679   -2.1227 O   0  0  0  0  0  0  0  0  0  0  0  0
    1.0752    5.6126   -0.1654 C   0  0  0  0  0  0  0  0  0  0  0  0
   -0.7174    3.9790   -1.8695 H   0  0  0  0  0  0  0  0  0  0  0  0
   -0.7694    5.1029    0.8341 H   0  0  0  0  0  0  0  0  0  0  0  0
    1.4675    5.7407   -1.1809 H   0  0  0  0  0  0  0  0  0  0  0  0
    1.2296    6.5553    0.3699 H   0  0  0  0  0  0  0  0  0  0  0  0
    1.6739    4.8388    0.3270 H   0  0  0  0  0  0  0  0  0  0  0  0
   -1.6859    7.2633   -0.0436 N   0  0  0  0  0  0  0  0  0  0  0  0
   -2.4600    8.3969   -0.4925 C   0  0  0  0  0  0  0  0  0  0  0  0
   -1.5115    7.1732    0.9530 H   0  0  0  0  0  0  0  0  0  0  0  0
   -1.7863    9.2391   -0.7089 H   0  0  0  0  0  0  0  0  0  0  0  0
   -3.0123    8.1257   -1.4044 H   0  0  0  0  0  0  0  0  0  0  0  0
   -3.1716    8.6894    0.2937 H   0  0  0  0  0  0  0  0  0  0  0  0
  1  3  1  0  0  0  0
  1  7  1  0  0  0  0
  1  2  2  0  0  0  0
 23 25  1  0  0  0  0
 23 29  1  0  0  0  0
 23 24  2  0  0  0  0
 50 51  1  0  0  0  0
 51 59  1  0  0  0  0
 51 52  2  0  0  0  0
  8  9  1  0  0  0  0
  9 17  1  0  0  0  0
  9 10  2  0  0  0  0
 30 31  1  0  0  0  0
 31 39  1  0  0  0  0
 31 32  2  0  0  0  0
 40 41  1  0  0  0  0
 41 49  1  0  0  0  0
 41 42  2  0  0  0  0
 50 53  1  0  0  0  0
 30 33  1  0  0  0  0
 59 60  1  0  0  0  0
 17 18  1  0  0  0  0
  8 11  1  0  0  0  0
 11 12  1  0  0  0  0
 40 43  1  0  0  0  0
 43 44  1  0  0  0  0
 49 50  1  0  0  0  0
  7  8  1  0  0  0  0
 29 30  1  0  0  0  0
 39 40  1  0  0  0  0
 12 44  1  0  0  0  0
  3  4  1  0  0  0  0
  3  5  1  0  0  0  0
  3  6  1  0  0  0  0
 25 26  1  0  0  0  0
 25 27  1  0  0  0  0
 25 28  1  0  0  0  0
 53 56  1  0  0  0  0
 53 57  1  0  0  0  0
 53 58  1  0  0  0  0
 33 36  1  0  0  0  0
 33 37  1  0  0  0  0
 33 38  1  0  0  0  0
 60 62  1  0  0  0  0
 60 63  1  0  0  0  0
 60 64  1  0  0  0  0
 18 20  1  0  0  0  0
 18 21  1  0  0  0  0
 18 22  1  0  0  0  0
 11 15  1  0  0  0  0
 11 16  1  0  0  0  0
 43 47  1  0  0  0  0
 43 48  1  0  0  0  0
 50 55  1  0  0  0  0
  8 14  1  0  0  0  0
 30 35  1  0  0  0  0
 40 46  1  0  0  0  0
 59 61  1  0  0  0  0
 17 19  1  0  0  0  0
  7 13  1  0  0  0  0
 29 34  1  0  0  0  0
 49 54  1  0  0  0  0
 39 45  1  0  0  0  0
M  END
$$$$

  -OEChem-05262214473D

 64 63  0     1  0  0  0  0  0999 V2000
    0.6226   -0.1770   -9.0644 C   0  0  0  0  0  0  0  0  0  0  0  0
   -0.5388    0.0305   -9.3959 O   0  0  0  0  0  0  0  0  0  0  0  0
    1.3782   -1.3000   -9.6939 C   0  0  0  0  0  0  0  0  0  0  0  0
    1.2703   -2.2442   -9.1361 H   0  0  0  0  0  0  0  0  0  0  0  0
    1.0274   -1.5230  -10.7143 H   0  0  0  0  0  0  0  0  0  0  0  0
    2.4644   -1.1423   -9.7891 H   0  0  0  0  0  0  0  0  0  0  0  0
    1.3495    0.5431   -8.1322 N   0  0  0  0  0  0  0  0  0  0  0  0
    0.8133    1.6677   -7.4081 C   0  0  2  0  0  0  0  0  0  0  0  0
    1.9258    2.6910   -7.1895 C   0  0  0  0  0  0  0  0  0  0  0  0
    3.0981    2.4810   -7.4941 O   0  0  0  0  0  0  0  0  0  0  0  0
    0.1127    1.2469   -6.1138 C   0  0  0  0  0  0  0  0  0  0  0  0
    1.2218    0.4580   -4.9014 S   0  0  0  0  0  0  0  0  0  0  0  0
    2.3108    0.2643   -7.9489 H   0  0  0  0  0  0  0  0  0  0  0  0
    0.0719    2.1224   -8.0769 H   0  0  0  0  0  0  0  0  0  0  0  0
   -0.3438    2.1135   -5.6246 H   0  0  0  0  0  0  0  0  0  0  0  0
   -0.6882    0.5340   -6.3379 H   0  0  0  0  0  0  0  0  0  0  0  0
    1.4595    3.8538   -6.5926 N   0  0  0  0  0  0  0  0  0  0  0  0
    2.3258    4.9608   -6.2613 C   0  0  0  0  0  0  0  0  0  0  0  0
    0.4653    3.9601   -6.4140 H   0  0  0  0  0  0  0  0  0  0  0  0
    2.6759    4.8554   -5.2239 H   0  0  0  0  0  0  0  0  0  0  0  0
    3.1905    4.9658   -6.9412 H   0  0  0  0  0  0  0  0  0  0  0  0
    1.7710    5.9047   -6.3668 H   0  0  0  0  0  0  0  0  0  0  0  0
   -6.7256    2.0330   -0.2766 C   0  0  0  0  0  0  0  0  0  0  0  0
   -7.1824    1.1039   -0.9322 O   0  0  0  0  0  0  0  0  0  0  0  0
   -7.5276    2.6077    0.8435 C   0  0  0  0  0  0  0  0  0  0  0  0
   -8.1775    3.4344    0.5145 H   0  0  0  0  0  0  0  0  0  0  0  0
   -8.2057    1.8676    1.2980 H   0  0  0  0  0  0  0  0  0  0  0  0
   -6.9411    3.0162    1.6819 H   0  0  0  0  0  0  0  0  0  0  0  0
   -5.4935    2.6382   -0.4627 N   0  0  0  0  0  0  0  0  0  0  0  0
   -4.5619    2.2388   -1.4845 C   0  0  2  0  0  0  0  0  0  0  0  0
   -3.1535    2.4674   -0.9521 C   0  0  0  0  0  0  0  0  0  0  0  0
   -2.8634    3.3945   -0.1987 O   0  0  0  0  0  0  0  0  0  0  0  0
   -4.7883    3.0138   -2.7732 C   0  0  0  0  0  0  0  0  0  0  0  0
   -5.2337    3.4049    0.1551 H   0  0  0  0  0  0  0  0  0  0  0  0
   -4.7192    1.1682   -1.6549 H   0  0  0  0  0  0  0  0  0  0  0  0
   -4.6352    4.0886   -2.6221 H   0  0  0  0  0  0  0  0  0  0  0  0
   -4.0976    2.6887   -3.5582 H   0  0  0  0  0  0  0  0  0  0  0  0
   -5.8111    2.8719   -3.1387 H   0  0  0  0  0  0  0  0  0  0  0  0
   -2.2466    1.5400   -1.4507 N   0  0  0  0  0  0  0  0  0  0  0  0
   -0.8424    1.5707   -1.1286 C   0  0  2  0  0  0  0  0  0  0  0  0
   -0.5753    2.7482   -0.1932 C   0  0  0  0  0  0  0  0  0  0  0  0
   -0.1271    2.6122    0.9434 O   0  0  0  0  0  0  0  0  0  0  0  0
    0.0420    1.5752   -2.3779 C   0  0  0  0  0  0  0  0  0  0  0  0
   -0.0785    0.0618   -3.3617 S   0  0  0  0  0  0  0  0  0  0  0  0
   -2.5850    0.7815   -2.0381 H   0  0  0  0  0  0  0  0  0  0  0  0
   -0.6492    0.6496   -0.5648 H   0  0  0  0  0  0  0  0  0  0  0  0
   -0.2211    2.4128   -3.0320 H   0  0  0  0  0  0  0  0  0  0  0  0
    1.0921    1.6970   -2.0912 H   0  0  0  0  0  0  0  0  0  0  0  0
   -0.9192    3.9635   -0.7679 N   0  0  0  0  0  0  0  0  0  0  0  0
   -0.7818    5.2212   -0.0714 C   0  0  2  0  0  0  0  0  0  0  0  0
   -1.8921    6.1475   -0.5497 C   0  0  0  0  0  0  0  0  0  0  0  0
   -2.3244    6.1380   -1.7004 O   0  0  0  0  0  0  0  0  0  0  0  0
    0.5855    5.8414   -0.3136 C   0  0  0  0  0  0  0  0  0  0  0  0
   -1.2427    3.9877   -1.7304 H   0  0  0  0  0  0  0  0  0  0  0  0
   -0.9167    5.0087    0.9948 H   0  0  0  0  0  0  0  0  0  0  0  0
    0.7388    6.0614   -1.3764 H   0  0  0  0  0  0  0  0  0  0  0  0
    0.6985    6.7806    0.2380 H   0  0  0  0  0  0  0  0  0  0  0  0
    1.3835    5.1615    0.0036 H   0  0  0  0  0  0  0  0  0  0  0  0
   -2.3137    7.0154    0.4479 N   0  0  0  0  0  0  0  0  0  0  0  0
   -3.3280    8.0202    0.2297 C   0  0  0  0  0  0  0  0  0  0  0  0
   -1.9288    6.9259    1.3836 H   0  0  0  0  0  0  0  0  0  0  0  0
   -2.8501    8.9670   -0.0624 H   0  0  0  0  0  0  0  0  0  0  0  0
   -4.0055    7.6892   -0.5713 H   0  0  0  0  0  0  0  0  0  0  0  0
   -3.9013    8.1696    1.1565 H   0  0  0  0  0  0  0  0  0  0  0  0
  1  3  1  0  0  0  0
  1  7  1  0  0  0  0
  1  2  2  0  0  0  0
 23 25  1  0  0  0  0
 23 29  1  0  0  0  0
 23 24  2  0  0  0  0
 50 51  1  0  0  0  0
 51 59  1  0  0  0  0
 51 52  2  0  0  0  0
  8  9  1  0  0  0  0
  9 17  1  0  0  0  0
  9 10  2  0  0  0  0
 30 31  1  0  0  0  0
 31 39  1  0  0  0  0
 31 32  2  0  0  0  0
 40 41  1  0  0  0  0
 41 49  1  0  0  0  0
 41 42  2  0  0  0  0
 50 53  1  0  0  0  0
 30 33  1  0  0  0  0
 59 60  1  0  0  0  0
 17 18  1  0  0  0  0
  8 11  1  0  0  0  0
 11 12  1  0  0  0  0
 40 43  1  0  0  0  0
 43 44  1  0  0  0  0
 49 50  1  0  0  0  0
  7  8  1  0  0  0  0
 29 30  1  0  0  0  0
 39 40  1  0  0  0  0
 12 44  1  0  0  0  0
  3  4  1  0  0  0  0
  3  5  1  0  0  0  0
  3  6  1  0  0  0  0
 25 26  1  0  0  0  0
 25 27  1  0  0  0  0
 25 28  1  0  0  0  0
 53 56  1  0  0  0  0
 53 57  1  0  0  0  0
 53 58  1  0  0  0  0
 33 36  1  0  0  0  0
 33 37  1  0  0  0  0
 33 38  1  0  0  0  0
 60 62  1  0  0  0  0
 60 63  1  0  0  0  0
 60 64  1  0  0  0  0
 18 20  1  0  0  0  0
 18 21  1  0  0  0  0
 18 22  1  0  0  0  0
 11 15  1  0  0  0  0
 11 16  1  0  0  0  0
 43 47  1  0  0  0  0
 43 48  1  0  0  0  0
 50 55  1  0  0  0  0
  8 14  1  0  0  0  0
 30 35  1  0  0  0  0
 40 46  1  0  0  0  0
 59 61  1  0  0  0  0
 17 19  1  0  0  0  0
  7 13  1  0  0  0  0
 29 34  1  0  0  0  0
 49 54  1  0  0  0  0
 39 45  1  0  0  0  0
M  END
$$$$

  -OEChem-05262214473D

 64 63  0     1  0  0  0  0  0999 V2000
    0.6226   -0.1770   -9.0644 C   0  0  0  0  0  0  0  0  0  0  0  0
   -0.5388    0.0305   -9.3959 O   0  0  0  0  0  0  0  0  0  0  0  0
    1.3782   -1.3000   -9.6939 C   0  0  0  0  0  0  0  0  0  0  0  0
    1.2703   -2.2442   -9.1361 H   0  0  0  0  0  0  0  0  0  0  0  0
    1.0274   -1.5230  -10.7143 H   0  0  0  0  0  0  0  0  0  0  0  0
    2.4644   -1.1423   -9.7891 H   0  0  0  0  0  0  0  0  0  0  0  0
    1.3495    0.5431   -8.1322 N   0  0  0  0  0  0  0  0  0  0  0  0
    0.8133    1.6677   -7.4081 C   0  0  2  0  0  0  0  0  0  0  0  0
    1.9258    2.6910   -7.1895 C   0  0  0  0  0  0  0  0  0  0  0  0
    3.0981    2.4810   -7.4941 O   0  0  0  0  0  0  0  0  0  0  0  0
    0.1127    1.2469   -6.1138 C   0  0  0  0  0  0  0  0  0  0  0  0
    1.2218    0.4580   -4.9014 S   0  0  0  0  0  0  0  0  0  0  0  0
    2.3108    0.2643   -7.9489 H   0  0  0  0  0  0  0  0  0  0  0  0
    0.0719    2.1224   -8.0769 H   0  0  0  0  0  0  0  0  0  0  0  0
   -0.3438    2.1135   -5.6246 H   0  0  0  0  0  0  0  0  0  0  0  0
   -0.6882    0.5340   -6.3379 H   0  0  0  0  0  0  0  0  0  0  0  0
    1.4595    3.8538   -6.5926 N   0  0  0  0  0  0  0  0  0  0  0  0
    2.3258    4.9608   -6.2613 C   0  0  0  0  0  0  0  0  0  0  0  0
    0.4653    3.9601   -6.4140 H   0  0  0  0  0  0  0  0  0  0  0  0
    2.6759    4.8554   -5.2239 H   0  0  0  0  0  0  0  0  0  0  0  0
    3.1905    4.9658   -6.9412 H   0  0  0  0  0  0  0  0  0  0  0  0
    1.7710    5.9047   -6.3668 H   0  0  0  0  0  0  0  0  0  0  0  0
   -6.7256    2.0330   -0.2766 C   0  0  0  0  0  0  0  0  0  0  0  0
   -7.1824    1.1039   -0.9322 O   0  0  0  0  0  0  0  0  0  0  0  0
   -7.5276    2.6077    0.8435 C   0  0  0  0  0  0  0  0  0  0  0  0
   -8.1775    3.4344    0.5145 H   0  0  0  0  0  0  0  0  0  0  0  0
   -8.2057    1.8676    1.2980 H   0  0  0  0  0  0  0  0  0  0  0  0
   -6.9411    3.0162    1.6819 H   0  0  0  0  0  0  0  0  0  0  0  0
   -5.4935    2.6382   -0.4627 N   0  0  0  0  0  0  0  0  0  0  0  0
   -4.5619    2.2388   -1.4845 C   0  0  2  0  0  0  0  0  0  0  0  0
   -3.1535    2.4674   -0.9521 C   0  0  0  0  0  0  0  0  0  0  0  0
   -2.8634    3.3945   -0.1987 O   0  0  0  0  0  0  0  0  0  0  0  0
   -4.7883    3.0138   -2.7732 C   0  0  0  0  0  0  0  0  0  0  0  0
   -5.2337    3.4049    0.1551 H   0  0  0  0  0  0  0  0  0  0  0  0
   -4.7192    1.1682   -1.6549 H   0  0  0  0  0  0  0  0  0  0  0  0
   -4.6352    4.0886   -2.6221 H   0  0  0  0  0  0  0  0  0  0  0  0
   -4.0976    2.6887   -3.5582 H   0  0  0  0  0  0  0  0  0  0  0  0
   -5.8111    2.8719   -3.1387 H   0  0  0  0  0  0  0  0  0  0  0  0
   -2.2466    1.5400   -1.4507 N   0  0  0  0  0  0  0  0  0  0  0  0
   -0.8424    1.5707   -1.1286 C   0  0  2  0  0  0  0  0  0  0  0  0
   -0.5753    2.7482   -0.1932 C   0  0  0  0  0  0  0  0  0  0  0  0
    0.1100    2.6540    0.8231 O   0  0  0  0  0  0  0  0  0  0  0  0
    0.0420    1.5752   -2.3779 C   0  0  0  0  0  0  0  0  0  0  0  0
   -0.0785    0.0618   -3.3617 S   0  0  0  0  0  0  0  0  0  0  0  0
   -2.5850    0.7815   -2.0381 H   0  0  0  0  0  0  0  0  0  0  0  0
   -0.6492    0.6496   -0.5648 H   0  0  0  0  0  0  0  0  0  0  0  0
   -0.2211    2.4128   -3.0320 H   0  0  0  0  0  0  0  0  0  0  0  0
    1.0921    1.6970   -2.0912 H   0  0  0  0  0  0  0  0  0  0  0  0
   -1.2116    3.9074   -0.6137 N   0  0  0  0  0  0  0  0  0  0  0  0
   -1.1308    5.1498    0.1182 C   0  0  2  0  0  0  0  0  0  0  0  0
   -2.4442    5.8961   -0.0756 C   0  0  0  0  0  0  0  0  0  0  0  0
   -3.0945    5.8499   -1.1177 O   0  0  0  0  0  0  0  0  0  0  0  0
    0.0466    5.9915   -0.3486 C   0  0  0  0  0  0  0  0  0  0  0  0
   -1.7238    3.9066   -1.4909 H   0  0  0  0  0  0  0  0  0  0  0  0
   -1.0119    4.8871    1.1751 H   0  0  0  0  0  0  0  0  0  0  0  0
   -0.0549    6.2644   -1.4053 H   0  0  0  0  0  0  0  0  0  0  0  0
    0.1234    6.9200    0.2267 H   0  0  0  0  0  0  0  0  0  0  0  0
    0.9874    5.4419   -0.2362 H   0  0  0  0  0  0  0  0  0  0  0  0
   -2.7828    6.6542    1.0366 N   0  0  0  0  0  0  0  0  0  0  0  0
   -3.9625    7.4860    1.0834 C   0  0  0  0  0  0  0  0  0  0  0  0
   -2.2066    6.6014    1.8715 H   0  0  0  0  0  0  0  0  0  0  0  0
   -3.7055    8.5062    0.7620 H   0  0  0  0  0  0  0  0  0  0  0  0
   -4.7294    7.0725    0.4119 H   0  0  0  0  0  0  0  0  0  0  0  0
   -4.3516    7.5128    2.1119 H   0  0  0  0  0  0  0  0  0  0  0  0
  1  3  1  0  0  0  0
  1  7  1  0  0  0  0
  1  2  2  0  0  0  0
 23 25  1  0  0  0  0
 23 29  1  0  0  0  0
 23 24  2  0  0  0  0
 50 51  1  0  0  0  0
 51 59  1  0  0  0  0
 51 52  2  0  0  0  0
  8  9  1  0  0  0  0
  9 17  1  0  0  0  0
  9 10  2  0  0  0  0
 30 31  1  0  0  0  0
 31 39  1  0  0  0  0
 31 32  2  0  0  0  0
 40 41  1  0  0  0  0
 41 49  1  0  0  0  0
 41 42  2  0  0  0  0
 50 53  1  0  0  0  0
 30 33  1  0  0  0  0
 59 60  1  0  0  0  0
 17 18  1  0  0  0  0
  8 11  1  0  0  0  0
 11 12  1  0  0  0  0
 40 43  1  0  0  0  0
 43 44  1  0  0  0  0
 49 50  1  0  0  0  0
  7  8  1  0  0  0  0
 29 30  1  0  0  0  0
 39 40  1  0  0  0  0
 12 44  1  0  0  0  0
  3  4  1  0  0  0  0
  3  5  1  0  0  0  0
  3  6  1  0  0  0  0
 25 26  1  0  0  0  0
 25 27  1  0  0  0  0
 25 28  1  0  0  0  0
 53 56  1  0  0  0  0
 53 57  1  0  0  0  0
 53 58  1  0  0  0  0
 33 36  1  0  0  0  0
 33 37  1  0  0  0  0
 33 38  1  0  0  0  0
 60 62  1  0  0  0  0
 60 63  1  0  0  0  0
 60 64  1  0  0  0  0
 18 20  1  0  0  0  0
 18 21  1  0  0  0  0
 18 22  1  0  0  0  0
 11 15  1  0  0  0  0
 11 16  1  0  0  0  0
 43 47  1  0  0  0  0
 43 48  1  0  0  0  0
 50 55  1  0  0  0  0
  8 14  1  0  0  0  0
 30 35  1  0  0  0  0
 40 46  1  0  0  0  0
 59 61  1  0  0  0  0
 17 19  1  0  0  0  0
  7 13  1  0  0  0  0
 29 34  1  0  0  0  0
 49 54  1  0  0  0  0
 39 45  1  0  0  0  0
M  END
$$$$

  -OEChem-05262214473D

 64 63  0     1  0  0  0  0  0999 V2000
    0.6226   -0.1770   -9.0644 C   0  0  0  0  0  0  0  0  0  0  0  0
   -0.5388    0.0305   -9.3959 O   0  0  0  0  0  0  0  0  0  0  0  0
    1.3782   -1.3000   -9.6939 C   0  0  0  0  0  0  0  0  0  0  0  0
    1.2703   -2.2442   -9.1361 H   0  0  0  0  0  0  0  0  0  0  0  0
    1.0274   -1.5230  -10.7143 H   0  0  0  0  0  0  0  0  0  0  0  0
    2.4644   -1.1423   -9.7891 H   0  0  0  0  0  0  0  0  0  0  0  0
    1.3495    0.5431   -8.1322 N   0  0  0  0  0  0  0  0  0  0  0  0
    0.8133    1.6677   -7.4081 C   0  0  2  0  0  0  0  0  0  0  0  0
    1.9258    2.6910   -7.1895 C   0  0  0  0  0  0  0  0  0  0  0  0
    3.0981    2.4810   -7.4941 O   0  0  0  0  0  0  0  0  0  0  0  0
    0.1127    1.2469   -6.1138 C   0  0  0  0  0  0  0  0  0  0  0  0
    1.2218    0.4580   -4.9014 S   0  0  0  0  0  0  0  0  0  0  0  0
    2.3108    0.2643   -7.9489 H   0  0  0  0  0  0  0  0  0  0  0  0
    0.0719    2.1224   -8.0769 H   0  0  0  0  0  0  0  0  0  0  0  0
   -0.3438    2.1135   -5.6246 H   0  0  0  0  0  0  0  0  0  0  0  0
   -0.6882    0.5340   -6.3379 H   0  0  0  0  0  0  0  0  0  0  0  0
    1.4595    3.8538   -6.5926 N   0  0  0  0  0  0  0  0  0  0  0  0
    2.3258    4.9608   -6.2613 C   0  0  0  0  0  0  0  0  0  0  0  0
    0.4653    3.9601   -6.4140 H   0  0  0  0  0  0  0  0  0  0  0  0
    2.6759    4.8554   -5.2239 H   0  0  0  0  0  0  0  0  0  0  0  0
    3.1905    4.9658   -6.9412 H   0  0  0  0  0  0  0  0  0  0  0  0
    1.7710    5.9047   -6.3668 H   0  0  0  0  0  0  0  0  0  0  0  0
   -6.7256    2.0330   -0.2766 C   0  0  0  0  0  0  0  0  0  0  0  0
   -7.1824    1.1039   -0.9322 O   0  0  0  0  0  0  0  0  0  0  0  0
   -7.5276    2.6077    0.8435 C   0  0  0  0  0  0  0  0  0  0  0  0
   -8.1775    3.4344    0.5145 H   0  0  0  0  0  0  0  0  0  0  0  0
   -8.2057    1.8676    1.2980 H   0  0  0  0  0  0  0  0  0  0  0  0
   -6.9411    3.0162    1.6819 H   0  0  0  0  0  0  0  0  0  0  0  0
   -5.4935    2.6382   -0.4627 N   0  0  0  0  0  0  0  0  0  0  0  0
   -4.5619    2.2388   -1.4845 C   0  0  2  0  0  0  0  0  0  0  0  0
   -3.1535    2.4674   -0.9521 C   0  0  0  0  0  0  0  0  0  0  0  0
   -2.8634    3.3945   -0.1987 O   0  0  0  0  0  0  0  0  0  0  0  0
   -4.7883    3.0138   -2.7732 C   0  0  0  0  0  0  0  0  0  0  0  0
   -5.2337    3.4049    0.1551 H   0  0  0  0  0  0  0  0  0  0  0  0
   -4.7192    1.1682   -1.6549 H   0  0  0  0  0  0  0  0  0  0  0  0
   -4.6352    4.0886   -2.6221 H   0  0  0  0  0  0  0  0  0  0  0  0
   -4.0976    2.6887   -3.5582 H   0  0  0  0  0  0  0  0  0  0  0  0
   -5.8111    2.8719   -3.1387 H   0  0  0  0  0  0  0  0  0  0  0  0
   -2.2466    1.5400   -1.4507 N   0  0  0  0  0  0  0  0  0  0  0  0
   -0.8424    1.5707   -1.1286 C   0  0  2  0  0  0  0  0  0  0  0  0
   -0.5753    2.7482   -0.1932 C   0  0  0  0  0  0  0  0  0  0  0  0
    0.3084    2.7374    0.6614 O   0  0  0  0  0  0  0  0  0  0  0  0
    0.0420    1.5752   -2.3779 C   0  0  0  0  0  0  0  0  0  0  0  0
   -0.0785    0.0618   -3.3617 S   0  0  0  0  0  0  0  0  0  0  0  0
   -2.5850    0.7815   -2.0381 H   0  0  0  0  0  0  0  0  0  0  0  0
   -0.6492    0.6496   -0.5648 H   0  0  0  0  0  0  0  0  0  0  0  0
   -0.2211    2.4128   -3.0320 H   0  0  0  0  0  0  0  0  0  0  0  0
    1.0921    1.6970   -2.0912 H   0  0  0  0  0  0  0  0  0  0  0  0
   -1.4545    3.7999   -0.4090 N   0  0  0  0  0  0  0  0  0  0  0  0
   -1.4188    5.0169    0.3678 C   0  0  2  0  0  0  0  0  0  0  0  0
   -2.8431    5.5443    0.4812 C   0  0  0  0  0  0  0  0  0  0  0  0
   -3.6765    5.4231   -0.4142 O   0  0  0  0  0  0  0  0  0  0  0  0
   -0.5047    6.0526   -0.2681 C   0  0  0  0  0  0  0  0  0  0  0  0
   -2.1278    3.7411   -1.1672 H   0  0  0  0  0  0  0  0  0  0  0  0
   -1.0487    4.7464    1.3627 H   0  0  0  0  0  0  0  0  0  0  0  0
   -0.8595    6.3361   -1.2656 H   0  0  0  0  0  0  0  0  0  0  0  0
   -0.4564    6.9640    0.3369 H   0  0  0  0  0  0  0  0  0  0  0  0
    0.5125    5.6608   -0.3761 H   0  0  0  0  0  0  0  0  0  0  0  0
   -3.0611    6.2043    1.6825 N   0  0  0  0  0  0  0  0  0  0  0  0
   -4.3204    6.8308    2.0104 C   0  0  0  0  0  0  0  0  0  0  0  0
   -2.3262    6.2218    2.3835 H   0  0  0  0  0  0  0  0  0  0  0  0
   -4.2941    7.8882    1.7082 H   0  0  0  0  0  0  0  0  0  0  0  0
   -5.1348    6.3176    1.4781 H   0  0  0  0  0  0  0  0  0  0  0  0
   -4.4917    6.7638    3.0949 H   0  0  0  0  0  0  0  0  0  0  0  0
  1  3  1  0  0  0  0
  1  7  1  0  0  0  0
  1  2  2  0  0  0  0
 23 25  1  0  0  0  0
 23 29  1  0  0  0  0
 23 24  2  0  0  0  0
 50 51  1  0  0  0  0
 51 59  1  0  0  0  0
 51 52  2  0  0  0  0
  8  9  1  0  0  0  0
  9 17  1  0  0  0  0
  9 10  2  0  0  0  0
 30 31  1  0  0  0  0
 31 39  1  0  0  0  0
 31 32  2  0  0  0  0
 40 41  1  0  0  0  0
 41 49  1  0  0  0  0
 41 42  2  0  0  0  0
 50 53  1  0  0  0  0
 30 33  1  0  0  0  0
 59 60  1  0  0  0  0
 17 18  1  0  0  0  0
  8 11  1  0  0  0  0
 11 12  1  0  0  0  0
 40 43  1  0  0  0  0
 43 44  1  0  0  0  0
 49 50  1  0  0  0  0
  7  8  1  0  0  0  0
 29 30  1  0  0  0  0
 39 40  1  0  0  0  0
 12 44  1  0  0  0  0
  3  4  1  0  0  0  0
  3  5  1  0  0  0  0
  3  6  1  0  0  0  0
 25 26  1  0  0  0  0
 25 27  1  0  0  0  0
 25 28  1  0  0  0  0
 53 56  1  0  0  0  0
 53 57  1  0  0  0  0
 53 58  1  0  0  0  0
 33 36  1  0  0  0  0
 33 37  1  0  0  0  0
 33 38  1  0  0  0  0
 60 62  1  0  0  0  0
 60 63  1  0  0  0  0
 60 64  1  0  0  0  0
 18 20  1  0  0  0  0
 18 21  1  0  0  0  0
 18 22  1  0  0  0  0
 11 15  1  0  0  0  0
 11 16  1  0  0  0  0
 43 47  1  0  0  0  0
 43 48  1  0  0  0  0
 50 55  1  0  0  0  0
  8 14  1  0  0  0  0
 30 35  1  0  0  0  0
 40 46  1  0  0  0  0
 59 61  1  0  0  0  0
 17 19  1  0  0  0  0
  7 13  1  0  0  0  0
 29 34  1  0  0  0  0
 49 54  1  0  0  0  0
 39 45  1  0  0  0  0
M  END
$$$$

  -OEChem-05262214473D

 64 63  0     1  0  0  0  0  0999 V2000
    0.6226   -0.1770   -9.0644 C   0  0  0  0  0  0  0  0  0  0  0  0
   -0.5388    0.0305   -9.3959 O   0  0  0  0  0  0  0  0  0  0  0  0
    1.3782   -1.3000   -9.6939 C   0  0  0  0  0  0  0  0  0  0  0  0
    1.2703   -2.2442   -9.1361 H   0  0  0  0  0  0  0  0  0  0  0  0
    1.0274   -1.5230  -10.7143 H   0  0  0  0  0  0  0  0  0  0  0  0
    2.4644   -1.1423   -9.7891 H   0  0  0  0  0  0  0  0  0  0  0  0
    1.3495    0.5431   -8.1322 N   0  0  0  0  0  0  0  0  0  0  0  0
    0.8133    1.6677   -7.4081 C   0  0  2  0  0  0  0  0  0  0  0  0
    1.9258    2.6910   -7.1895 C   0  0  0  0  0  0  0  0  0  0  0  0
    3.0981    2.4810   -7.4941 O   0  0  0  0  0  0  0  0  0  0  0  0
    0.1127    1.2469   -6.1138 C   0  0  0  0  0  0  0  0  0  0  0  0
    1.2218    0.4580   -4.9014 S   0  0  0  0  0  0  0  0  0  0  0  0
    2.3108    0.2643   -7.9489 H   0  0  0  0  0  0  0  0  0  0  0  0
    0.0719    2.1224   -8.0769 H   0  0  0  0  0  0  0  0  0  0  0  0
   -0.3438    2.1135   -5.6246 H   0  0  0  0  0  0  0  0  0  0  0  0
   -0.6882    0.5340   -6.3379 H   0  0  0  0  0  0  0  0  0  0  0  0
    1.4595    3.8538   -6.5926 N   0  0  0  0  0  0  0  0  0  0  0  0
    2.3258    4.9608   -6.2613 C   0  0  0  0  0  0  0  0  0  0  0  0
    0.4653    3.9601   -6.4140 H   0  0  0  0  0  0  0  0  0  0  0  0
    2.6759    4.8554   -5.2239 H   0  0  0  0  0  0  0  0  0  0  0  0
    3.1905    4.9658   -6.9412 H   0  0  0  0  0  0  0  0  0  0  0  0
    1.7710    5.9047   -6.3668 H   0  0  0  0  0  0  0  0  0  0  0  0
   -6.7256    2.0330   -0.2766 C   0  0  0  0  0  0  0  0  0  0  0  0
   -7.1824    1.1039   -0.9322 O   0  0  0  0  0  0  0  0  0  0  0  0
   -7.5276    2.6077    0.8435 C   0  0  0  0  0  0  0  0  0  0  0  0
   -8.1775    3.4344    0.5145 H   0  0  0  0  0  0  0  0  0  0  0  0
   -8.2057    1.8676    1.2980 H   0  0  0  0  0  0  0  0  0  0  0  0
   -6.9411    3.0162    1.6819 H   0  0  0  0  0  0  0  0  0  0  0  0
   -5.4935    2.6382   -0.4627 N   0  0  0  0  0  0  0  0  0  0  0  0
   -4.5619    2.2388   -1.4845 C   0  0  2  0  0  0  0  0  0  0  0  0
   -3.1535    2.4674   -0.9521 C   0  0  0  0  0  0  0  0  0  0  0  0
   -2.8634    3.3945   -0.1987 O   0  0  0  0  0  0  0  0  0  0  0  0
   -4.7883    3.0138   -2.7732 C   0  0  0  0  0  0  0  0  0  0  0  0
   -5.2337    3.4049    0.1551 H   0  0  0  0  0  0  0  0  0  0  0  0
   -4.7192    1.1682   -1.6549 H   0  0  0  0  0  0  0  0  0  0  0  0
   -4.6352    4.0886   -2.6221 H   0  0  0  0  0  0  0  0  0  0  0  0
   -4.0976    2.6887   -3.5582 H   0  0  0  0  0  0  0  0  0  0  0  0
   -5.8111    2.8719   -3.1387 H   0  0  0  0  0  0  0  0  0  0  0  0
   -2.2466    1.5400   -1.4507 N   0  0  0  0  0  0  0  0  0  0  0  0
   -0.8424    1.5707   -1.1286 C   0  0  2  0  0  0  0  0  0  0  0  0
   -0.5753    2.7482   -0.1932 C   0  0  0  0  0  0  0  0  0  0  0  0
    0.4545    2.8567    0.4695 O   0  0  0  0  0  0  0  0  0  0  0  0
    0.0420    1.5752   -2.3779 C   0  0  0  0  0  0  0  0  0  0  0  0
   -0.0785    0.0618   -3.3617 S   0  0  0  0  0  0  0  0  0  0  0  0
   -2.5850    0.7815   -2.0381 H   0  0  0  0  0  0  0  0  0  0  0  0
   -0.6492    0.6496   -0.5648 H   0  0  0  0  0  0  0  0  0  0  0  0
   -0.2211    2.4128   -3.0320 H   0  0  0  0  0  0  0  0  0  0  0  0
    1.0921    1.6970   -2.0912 H   0  0  0  0  0  0  0  0  0  0  0  0
   -1.6311    3.6482   -0.1676 N   0  0  0  0  0  0  0  0  0  0  0  0
   -1.6261    4.8316    0.6603 C   0  0  2  0  0  0  0  0  0  0  0  0
   -3.0615    5.1161    1.0827 C   0  0  0  0  0  0  0  0  0  0  0  0
   -4.0307    4.8868    0.3622 O   0  0  0  0  0  0  0  0  0  0  0  0
   -1.0308    6.0206   -0.0775 C   0  0  0  0  0  0  0  0  0  0  0  0
   -2.4272    3.5026   -0.7814 H   0  0  0  0  0  0  0  0  0  0  0  0
   -1.0244    4.5961    1.5449 H   0  0  0  0  0  0  0  0  0  0  0  0
   -1.6202    6.2714   -0.9670 H   0  0  0  0  0  0  0  0  0  0  0  0
   -1.0015    6.9097    0.5610 H   0  0  0  0  0  0  0  0  0  0  0  0
   -0.0088    5.8032   -0.4065 H   0  0  0  0  0  0  0  0  0  0  0  0
   -3.1298    5.6963    2.3416 N   0  0  0  0  0  0  0  0  0  0  0  0
   -4.3773    6.0993    2.9477 C   0  0  0  0  0  0  0  0  0  0  0  0
   -2.2795    5.8130    2.8848 H   0  0  0  0  0  0  0  0  0  0  0  0
   -4.5760    7.1551    2.7116 H   0  0  0  0  0  0  0  0  0  0  0  0
   -5.1939    5.4758    2.5547 H   0  0  0  0  0  0  0  0  0  0  0  0
   -4.3123    5.9735    4.0385 H   0  0  0  0  0  0  0  0  0  0  0  0
  1  3  1  0  0  0  0
  1  7  1  0  0  0  0
  1  2  2  0  0  0  0
 23 25  1  0  0  0  0
 23 29  1  0  0  0  0
 23 24  2  0  0  0  0
 50 51  1  0  0  0  0
 51 59  1  0  0  0  0
 51 52  2  0  0  0  0
  8  9  1  0  0  0  0
  9 17  1  0  0  0  0
  9 10  2  0  0  0  0
 30 31  1  0  0  0  0
 31 39  1  0  0  0  0
 31 32  2  0  0  0  0
 40 41  1  0  0  0  0
 41 49  1  0  0  0  0
 41 42  2  0  0  0  0
 50 53  1  0  0  0  0
 30 33  1  0  0  0  0
 59 60  1  0  0  0  0
 17 18  1  0  0  0  0
  8 11  1  0  0  0  0
 11 12  1  0  0  0  0
 40 43  1  0  0  0  0
 43 44  1  0  0  0  0
 49 50  1  0  0  0  0
  7  8  1  0  0  0  0
 29 30  1  0  0  0  0
 39 40  1  0  0  0  0
 12 44  1  0  0  0  0
  3  4  1  0  0  0  0
  3  5  1  0  0  0  0
  3  6  1  0  0  0  0
 25 26  1  0  0  0  0
 25 27  1  0  0  0  0
 25 28  1  0  0  0  0
 53 56  1  0  0  0  0
 53 57  1  0  0  0  0
 53 58  1  0  0  0  0
 33 36  1  0  0  0  0
 33 37  1  0  0  0  0
 33 38  1  0  0  0  0
 60 62  1  0  0  0  0
 60 63  1  0  0  0  0
 60 64  1  0  0  0  0
 18 20  1  0  0  0  0
 18 21  1  0  0  0  0
 18 22  1  0  0  0  0
 11 15  1  0  0  0  0
 11 16  1  0  0  0  0
 43 47  1  0  0  0  0
 43 48  1  0  0  0  0
 50 55  1  0  0  0  0
  8 14  1  0  0  0  0
 30 35  1  0  0  0  0
 40 46  1  0  0  0  0
 59 61  1  0  0  0  0
 17 19  1  0  0  0  0
  7 13  1  0  0  0  0
 29 34  1  0  0  0  0
 49 54  1  0  0  0  0
 39 45  1  0  0  0  0
M  END
$$$$

  -OEChem-05262214473D

 64 63  0     1  0  0  0  0  0999 V2000
    0.6226   -0.1770   -9.0644 C   0  0  0  0  0  0  0  0  0  0  0  0
   -0.5388    0.0305   -9.3959 O   0  0  0  0  0  0  0  0  0  0  0  0
    1.3782   -1.3000   -9.6939 C   0  0  0  0  0  0  0  0  0  0  0  0
    1.2703   -2.2442   -9.1361 H   0  0  0  0  0  0  0  0  0  0  0  0
    1.0274   -1.5230  -10.7143 H   0  0  0  0  0  0  0  0  0  0  0  0
    2.4644   -1.1423   -9.7891 H   0  0  0  0  0  0  0  0  0  0  0  0
    1.3495    0.5431   -8.1322 N   0  0  0  0  0  0  0  0  0  0  0  0
    0.8133    1.6677   -7.4081 C   0  0  2  0  0  0  0  0  0  0  0  0
    1.9258    2.6910   -7.1895 C   0  0  0  0  0  0  0  0  0  0  0  0
    3.0981    2.4810   -7.4941 O   0  0  0  0  0  0  0  0  0  0  0  0
    0.1127    1.2469   -6.1138 C   0  0  0  0  0  0  0  0  0  0  0  0
    1.2218    0.4580   -4.9014 S   0  0  0  0  0  0  0  0  0  0  0  0
    2.3108    0.2643   -7.9489 H   0  0  0  0  0  0  0  0  0  0  0  0
    0.0719    2.1224   -8.0769 H   0  0  0  0  0  0  0  0  0  0  0  0
   -0.3438    2.1135   -5.6246 H   0  0  0  0  0  0  0  0  0  0  0  0
   -0.6882    0.5340   -6.3379 H   0  0  0  0  0  0  0  0  0  0  0  0
    1.4595    3.8538   -6.5926 N   0  0  0  0  0  0  0  0  0  0  0  0
    2.3258    4.9608   -6.2613 C   0  0  0  0  0  0  0  0  0  0  0  0
    0.4653    3.9601   -6.4140 H   0  0  0  0  0  0  0  0  0  0  0  0
    2.6759    4.8554   -5.2239 H   0  0  0  0  0  0  0  0  0  0  0  0
    3.1905    4.9658   -6.9412 H   0  0  0  0  0  0  0  0  0  0  0  0
    1.7710    5.9047   -6.3668 H   0  0  0  0  0  0  0  0  0  0  0  0
   -6.7256    2.0330   -0.2766 C   0  0  0  0  0  0  0  0  0  0  0  0
   -7.1824    1.1039   -0.9322 O   0  0  0  0  0  0  0  0  0  0  0  0
   -7.5276    2.6077    0.8435 C   0  0  0  0  0  0  0  0  0  0  0  0
   -8.1775    3.4344    0.5145 H   0  0  0  0  0  0  0  0  0  0  0  0
   -8.2057    1.8676    1.2980 H   0  0  0  0  0  0  0  0  0  0  0  0
   -6.9411    3.0162    1.6819 H   0  0  0  0  0  0  0  0  0  0  0  0
   -5.4935    2.6382   -0.4627 N   0  0  0  0  0  0  0  0  0  0  0  0
   -4.5619    2.2388   -1.4845 C   0  0  2  0  0  0  0  0  0  0  0  0
   -3.1535    2.4674   -0.9521 C   0  0  0  0  0  0  0  0  0  0  0  0
   -2.8634    3.3945   -0.1987 O   0  0  0  0  0  0  0  0  0  0  0  0
   -4.7883    3.0138   -2.7732 C   0  0  0  0  0  0  0  0  0  0  0  0
   -5.2337    3.4049    0.1551 H   0  0  0  0  0  0  0  0  0  0  0  0
   -4.7192    1.1682   -1.6549 H   0  0  0  0  0  0  0  0  0  0  0  0
   -4.6352    4.0886   -2.6221 H   0  0  0  0  0  0  0  0  0  0  0  0
   -4.0976    2.6887   -3.5582 H   0  0  0  0  0  0  0  0  0  0  0  0
   -5.8111    2.8719   -3.1387 H   0  0  0  0  0  0  0  0  0  0  0  0
   -2.2466    1.5400   -1.4507 N   0  0  0  0  0  0  0  0  0  0  0  0
   -0.8424    1.5707   -1.1286 C   0  0  2  0  0  0  0  0  0  0  0  0
   -0.5753    2.7482   -0.1932 C   0  0  0  0  0  0  0  0  0  0  0  0
    0.5385    3.0038    0.2603 O   0  0  0  0  0  0  0  0  0  0  0  0
    0.0420    1.5752   -2.3779 C   0  0  0  0  0  0  0  0  0  0  0  0
   -0.0785    0.0618   -3.3617 S   0  0  0  0  0  0  0  0  0  0  0  0
   -2.5850    0.7815   -2.0381 H   0  0  0  0  0  0  0  0  0  0  0  0
   -0.6492    0.6496   -0.5648 H   0  0  0  0  0  0  0  0  0  0  0  0
   -0.2211    2.4128   -3.0320 H   0  0  0  0  0  0  0  0  0  0  0  0
    1.0921    1.6970   -2.0912 H   0  0  0  0  0  0  0  0  0  0  0  0
   -1.7296    3.4628    0.0939 N   0  0  0  0  0  0  0  0  0  0  0  0
   -1.7386    4.6065    0.9758 C   0  0  2  0  0  0  0  0  0  0  0  0
   -3.0845    4.6407    1.6878 C   0  0  0  0  0  0  0  0  0  0  0  0
   -4.1328    4.2774    1.1584 O   0  0  0  0  0  0  0  0  0  0  0  0
   -1.4958    5.8977    0.2100 C   0  0  0  0  0  0  0  0  0  0  0  0
   -2.6016    3.2073   -0.3598 H   0  0  0  0  0  0  0  0  0  0  0  0
   -0.9408    4.4466    1.7093 H   0  0  0  0  0  0  0  0  0  0  0  0
   -2.2852    6.0749   -0.5296 H   0  0  0  0  0  0  0  0  0  0  0  0
   -1.4746    6.7606    0.8838 H   0  0  0  0  0  0  0  0  0  0  0  0
   -0.5411    5.8596   -0.3255 H   0  0  0  0  0  0  0  0  0  0  0  0
   -2.9841    5.1649    2.9689 N   0  0  0  0  0  0  0  0  0  0  0  0
   -4.1293    5.3412    3.8312 C   0  0  0  0  0  0  0  0  0  0  0  0
   -2.0694    5.4029    3.3411 H   0  0  0  0  0  0  0  0  0  0  0  0
   -4.5319    6.3569    3.7038 H   0  0  0  0  0  0  0  0  0  0  0  0
   -4.9028    4.6046    3.5683 H   0  0  0  0  0  0  0  0  0  0  0  0
   -3.8254    5.1960    4.8784 H   0  0  0  0  0  0  0  0  0  0  0  0
  1  3  1  0  0  0  0
  1  7  1  0  0  0  0
  1  2  2  0  0  0  0
 23 25  1  0  0  0  0
 23 29  1  0  0  0  0
 23 24  2  0  0  0  0
 50 51  1  0  0  0  0
 51 59  1  0  0  0  0
 51 52  2  0  0  0  0
  8  9  1  0  0  0  0
  9 17  1  0  0  0  0
  9 10  2  0  0  0  0
 30 31  1  0  0  0  0
 31 39  1  0  0  0  0
 31 32  2  0  0  0  0
 40 41  1  0  0  0  0
 41 49  1  0  0  0  0
 41 42  2  0  0  0  0
 50 53  1  0  0  0  0
 30 33  1  0  0  0  0
 59 60  1  0  0  0  0
 17 18  1  0  0  0  0
  8 11  1  0  0  0  0
 11 12  1  0  0  0  0
 40 43  1  0  0  0  0
 43 44  1  0  0  0  0
 49 50  1  0  0  0  0
  7  8  1  0  0  0  0
 29 30  1  0  0  0  0
 39 40  1  0  0  0  0
 12 44  1  0  0  0  0
  3  4  1  0  0  0  0
  3  5  1  0  0  0  0
  3  6  1  0  0  0  0
 25 26  1  0  0  0  0
 25 27  1  0  0  0  0
 25 28  1  0  0  0  0
 53 56  1  0  0  0  0
 53 57  1  0  0  0  0
 53 58  1  0  0  0  0
 33 36  1  0  0  0  0
 33 37  1  0  0  0  0
 33 38  1  0  0  0  0
 60 62  1  0  0  0  0
 60 63  1  0  0  0  0
 60 64  1  0  0  0  0
 18 20  1  0  0  0  0
 18 21  1  0  0  0  0
 18 22  1  0  0  0  0
 11 15  1  0  0  0  0
 11 16  1  0  0  0  0
 43 47  1  0  0  0  0
 43 48  1  0  0  0  0
 50 55  1  0  0  0  0
  8 14  1  0  0  0  0
 30 35  1  0  0  0  0
 40 46  1  0  0  0  0
 59 61  1  0  0  0  0
 17 19  1  0  0  0  0
  7 13  1  0  0  0  0
 29 34  1  0  0  0  0
 49 54  1  0  0  0  0
 39 45  1  0  0  0  0
M  END
$$$$

  -OEChem-05262214473D

 64 63  0     1  0  0  0  0  0999 V2000
    0.6226   -0.1770   -9.0644 C   0  0  0  0  0  0  0  0  0  0  0  0
   -0.5388    0.0305   -9.3959 O   0  0  0  0  0  0  0  0  0  0  0  0
    1.3782   -1.3000   -9.6939 C   0  0  0  0  0  0  0  0  0  0  0  0
    1.2703   -2.2442   -9.1361 H   0  0  0  0  0  0  0  0  0  0  0  0
    1.0274   -1.5230  -10.7143 H   0  0  0  0  0  0  0  0  0  0  0  0
    2.4644   -1.1423   -9.7891 H   0  0  0  0  0  0  0  0  0  0  0  0
    1.3495    0.5431   -8.1322 N   0  0  0  0  0  0  0  0  0  0  0  0
    0.8133    1.6677   -7.4081 C   0  0  2  0  0  0  0  0  0  0  0  0
    1.9258    2.6910   -7.1895 C   0  0  0  0  0  0  0  0  0  0  0  0
    3.0981    2.4810   -7.4941 O   0  0  0  0  0  0  0  0  0  0  0  0
    0.1127    1.2469   -6.1138 C   0  0  0  0  0  0  0  0  0  0  0  0
    1.2218    0.4580   -4.9014 S   0  0  0  0  0  0  0  0  0  0  0  0
    2.3108    0.2643   -7.9489 H   0  0  0  0  0  0  0  0  0  0  0  0
    0.0719    2.1224   -8.0769 H   0  0  0  0  0  0  0  0  0  0  0  0
   -0.3438    2.1135   -5.6246 H   0  0  0  0  0  0  0  0  0  0  0  0
   -0.6882    0.5340   -6.3379 H   0  0  0  0  0  0  0  0  0  0  0  0
    1.4595    3.8538   -6.5926 N   0  0  0  0  0  0  0  0  0  0  0  0
    2.3258    4.9608   -6.2613 C   0  0  0  0  0  0  0  0  0  0  0  0
    0.4653    3.9601   -6.4140 H   0  0  0  0  0  0  0  0  0  0  0  0
    2.6759    4.8554   -5.2239 H   0  0  0  0  0  0  0  0  0  0  0  0
    3.1905    4.9658   -6.9412 H   0  0  0  0  0  0  0  0  0  0  0  0
    1.7710    5.9047   -6.3668 H   0  0  0  0  0  0  0  0  0  0  0  0
   -6.7256    2.0330   -0.2766 C   0  0  0  0  0  0  0  0  0  0  0  0
   -7.1824    1.1039   -0.9322 O   0  0  0  0  0  0  0  0  0  0  0  0
   -7.5276    2.6077    0.8435 C   0  0  0  0  0  0  0  0  0  0  0  0
   -8.1775    3.4344    0.5145 H   0  0  0  0  0  0  0  0  0  0  0  0
   -8.2057    1.8676    1.2980 H   0  0  0  0  0  0  0  0  0  0  0  0
   -6.9411    3.0162    1.6819 H   0  0  0  0  0  0  0  0  0  0  0  0
   -5.4935    2.6382   -0.4627 N   0  0  0  0  0  0  0  0  0  0  0  0
   -4.5619    2.2388   -1.4845 C   0  0  2  0  0  0  0  0  0  0  0  0
   -3.1535    2.4674   -0.9521 C   0  0  0  0  0  0  0  0  0  0  0  0
   -2.8634    3.3945   -0.1987 O   0  0  0  0  0  0  0  0  0  0  0  0
   -4.7883    3.0138   -2.7732 C   0  0  0  0  0  0  0  0  0  0  0  0
   -5.2337    3.4049    0.1551 H   0  0  0  0  0  0  0  0  0  0  0  0
   -4.7192    1.1682   -1.6549 H   0  0  0  0  0  0  0  0  0  0  0  0
   -4.6352    4.0886   -2.6221 H   0  0  0  0  0  0  0  0  0  0  0  0
   -4.0976    2.6887   -3.5582 H   0  0  0  0  0  0  0  0  0  0  0  0
   -5.8111    2.8719   -3.1387 H   0  0  0  0  0  0  0  0  0  0  0  0
   -2.2466    1.5400   -1.4507 N   0  0  0  0  0  0  0  0  0  0  0  0
   -0.8424    1.5707   -1.1286 C   0  0  2  0  0  0  0  0  0  0  0  0
   -0.5753    2.7482   -0.1932 C   0  0  0  0  0  0  0  0  0  0  0  0
    0.5545    3.1687    0.0482 O   0  0  0  0  0  0  0  0  0  0  0  0
    0.0420    1.5752   -2.3779 C   0  0  0  0  0  0  0  0  0  0  0  0
   -0.0785    0.0618   -3.3617 S   0  0  0  0  0  0  0  0  0  0  0  0
   -2.5850    0.7815   -2.0381 H   0  0  0  0  0  0  0  0  0  0  0  0
   -0.6492    0.6496   -0.5648 H   0  0  0  0  0  0  0  0  0  0  0  0
   -0.2211    2.4128   -3.0320 H   0  0  0  0  0  0  0  0  0  0  0  0
    1.0921    1.6970   -2.0912 H   0  0  0  0  0  0  0  0  0  0  0  0
   -1.7431    3.2563    0.3578 N   0  0  0  0  0  0  0  0  0  0  0  0
   -1.7487    4.3569    1.2929 C   0  0  2  0  0  0  0  0  0  0  0  0
   -2.9107    4.1504    2.2554 C   0  0  0  0  0  0  0  0  0  0  0  0
   -3.9760    3.6366    1.9204 O   0  0  0  0  0  0  0  0  0  0  0  0
   -1.8682    5.6923    0.5751 C   0  0  0  0  0  0  0  0  0  0  0  0
   -2.6392    2.8753    0.0689 H   0  0  0  0  0  0  0  0  0  0  0  0
   -0.8035    4.3080    1.8446 H   0  0  0  0  0  0  0  0  0  0  0  0
   -2.8090    5.7598    0.0167 H   0  0  0  0  0  0  0  0  0  0  0  0
   -1.8436    6.5271    1.2833 H   0  0  0  0  0  0  0  0  0  0  0  0
   -1.0479    5.8261   -0.1384 H   0  0  0  0  0  0  0  0  0  0  0  0
   -2.6340    4.6464    3.5217 N   0  0  0  0  0  0  0  0  0  0  0  0
   -3.5932    4.6082    4.6008 C   0  0  0  0  0  0  0  0  0  0  0  0
   -1.7105    5.0193    3.7215 H   0  0  0  0  0  0  0  0  0  0  0  0
   -4.1648    5.5480    4.6173 H   0  0  0  0  0  0  0  0  0  0  0  0
   -4.2813    3.7634    4.4498 H   0  0  0  0  0  0  0  0  0  0  0  0
   -3.0643    4.4840    5.5572 H   0  0  0  0  0  0  0  0  0  0  0  0
  1  3  1  0  0  0  0
  1  7  1  0  0  0  0
  1  2  2  0  0  0  0
 23 25  1  0  0  0  0
 23 29  1  0  0  0  0
 23 24  2  0  0  0  0
 50 51  1  0  0  0  0
 51 59  1  0  0  0  0
 51 52  2  0  0  0  0
  8  9  1  0  0  0  0
  9 17  1  0  0  0  0
  9 10  2  0  0  0  0
 30 31  1  0  0  0  0
 31 39  1  0  0  0  0
 31 32  2  0  0  0  0
 40 41  1  0  0  0  0
 41 49  1  0  0  0  0
 41 42  2  0  0  0  0
 50 53  1  0  0  0  0
 30 33  1  0  0  0  0
 59 60  1  0  0  0  0
 17 18  1  0  0  0  0
  8 11  1  0  0  0  0
 11 12  1  0  0  0  0
 40 43  1  0  0  0  0
 43 44  1  0  0  0  0
 49 50  1  0  0  0  0
  7  8  1  0  0  0  0
 29 30  1  0  0  0  0
 39 40  1  0  0  0  0
 12 44  1  0  0  0  0
  3  4  1  0  0  0  0
  3  5  1  0  0  0  0
  3  6  1  0  0  0  0
 25 26  1  0  0  0  0
 25 27  1  0  0  0  0
 25 28  1  0  0  0  0
 53 56  1  0  0  0  0
 53 57  1  0  0  0  0
 53 58  1  0  0  0  0
 33 36  1  0  0  0  0
 33 37  1  0  0  0  0
 33 38  1  0  0  0  0
 60 62  1  0  0  0  0
 60 63  1  0  0  0  0
 60 64  1  0  0  0  0
 18 20  1  0  0  0  0
 18 21  1  0  0  0  0
 18 22  1  0  0  0  0
 11 15  1  0  0  0  0
 11 16  1  0  0  0  0
 43 47  1  0  0  0  0
 43 48  1  0  0  0  0
 50 55  1  0  0  0  0
  8 14  1  0  0  0  0
 30 35  1  0  0  0  0
 40 46  1  0  0  0  0
 59 61  1  0  0  0  0
 17 19  1  0  0  0  0
  7 13  1  0  0  0  0
 29 34  1  0  0  0  0
 49 54  1  0  0  0  0
 39 45  1  0  0  0  0
M  END
$$$$

  -OEChem-05262214473D

 64 63  0     1  0  0  0  0  0999 V2000
    0.6226   -0.1770   -9.0644 C   0  0  0  0  0  0  0  0  0  0  0  0
   -0.5388    0.0305   -9.3959 O   0  0  0  0  0  0  0  0  0  0  0  0
    1.3782   -1.3000   -9.6939 C   0  0  0  0  0  0  0  0  0  0  0  0
    1.2703   -2.2442   -9.1361 H   0  0  0  0  0  0  0  0  0  0  0  0
    1.0274   -1.5230  -10.7143 H   0  0  0  0  0  0  0  0  0  0  0  0
    2.4644   -1.1423   -9.7891 H   0  0  0  0  0  0  0  0  0  0  0  0
    1.3495    0.5431   -8.1322 N   0  0  0  0  0  0  0  0  0  0  0  0
    0.8133    1.6677   -7.4081 C   0  0  2  0  0  0  0  0  0  0  0  0
    1.9258    2.6910   -7.1895 C   0  0  0  0  0  0  0  0  0  0  0  0
    3.0981    2.4810   -7.4941 O   0  0  0  0  0  0  0  0  0  0  0  0
    0.1127    1.2469   -6.1138 C   0  0  0  0  0  0  0  0  0  0  0  0
    1.2218    0.4580   -4.9014 S   0  0  0  0  0  0  0  0  0  0  0  0
    2.3108    0.2643   -7.9489 H   0  0  0  0  0  0  0  0  0  0  0  0
    0.0719    2.1224   -8.0769 H   0  0  0  0  0  0  0  0  0  0  0  0
   -0.3438    2.1135   -5.6246 H   0  0  0  0  0  0  0  0  0  0  0  0
   -0.6882    0.5340   -6.3379 H   0  0  0  0  0  0  0  0  0  0  0  0
    1.4595    3.8538   -6.5926 N   0  0  0  0  0  0  0  0  0  0  0  0
    2.3258    4.9608   -6.2613 C   0  0  0  0  0  0  0  0  0  0  0  0
    0.4653    3.9601   -6.4140 H   0  0  0  0  0  0  0  0  0  0  0  0
    2.6759    4.8554   -5.2239 H   0  0  0  0  0  0  0  0  0  0  0  0
    3.1905    4.9658   -6.9412 H   0  0  0  0  0  0  0  0  0  0  0  0
    1.7710    5.9047   -6.3668 H   0  0  0  0  0  0  0  0  0  0  0  0
   -6.7256    2.0330   -0.2766 C   0  0  0  0  0  0  0  0  0  0  0  0
   -7.1824    1.1039   -0.9322 O   0  0  0  0  0  0  0  0  0  0  0  0
   -7.5276    2.6077    0.8435 C   0  0  0  0  0  0  0  0  0  0  0  0
   -8.1775    3.4344    0.5145 H   0  0  0  0  0  0  0  0  0  0  0  0
   -8.2057    1.8676    1.2980 H   0  0  0  0  0  0  0  0  0  0  0  0
   -6.9411    3.0162    1.6819 H   0  0  0  0  0  0  0  0  0  0  0  0
   -5.4935    2.6382   -0.4627 N   0  0  0  0  0  0  0  0  0  0  0  0
   -4.5619    2.2388   -1.4845 C   0  0  2  0  0  0  0  0  0  0  0  0
   -3.1535    2.4674   -0.9521 C   0  0  0  0  0  0  0  0  0  0  0  0
   -2.8634    3.3945   -0.1987 O   0  0  0  0  0  0  0  0  0  0  0  0
   -4.7883    3.0138   -2.7732 C   0  0  0  0  0  0  0  0  0  0  0  0
   -5.2337    3.4049    0.1551 H   0  0  0  0  0  0  0  0  0  0  0  0
   -4.7192    1.1682   -1.6549 H   0  0  0  0  0  0  0  0  0  0  0  0
   -4.6352    4.0886   -2.6221 H   0  0  0  0  0  0  0  0  0  0  0  0
   -4.0976    2.6887   -3.5582 H   0  0  0  0  0  0  0  0  0  0  0  0
   -5.8111    2.8719   -3.1387 H   0  0  0  0  0  0  0  0  0  0  0  0
   -2.2466    1.5400   -1.4507 N   0  0  0  0  0  0  0  0  0  0  0  0
   -0.8424    1.5707   -1.1286 C   0  0  2  0  0  0  0  0  0  0  0  0
   -0.5753    2.7482   -0.1932 C   0  0  0  0  0  0  0  0  0  0  0  0
    0.5015    3.3401   -0.1525 O   0  0  0  0  0  0  0  0  0  0  0  0
    0.0420    1.5752   -2.3779 C   0  0  0  0  0  0  0  0  0  0  0  0
   -0.0785    0.0618   -3.3617 S   0  0  0  0  0  0  0  0  0  0  0  0
   -2.5850    0.7815   -2.0381 H   0  0  0  0  0  0  0  0  0  0  0  0
   -0.6492    0.6496   -0.5648 H   0  0  0  0  0  0  0  0  0  0  0  0
   -0.2211    2.4128   -3.0320 H   0  0  0  0  0  0  0  0  0  0  0  0
    1.0921    1.6970   -2.0912 H   0  0  0  0  0  0  0  0  0  0  0  0
   -1.6707    3.0428    0.6060 N   0  0  0  0  0  0  0  0  0  0  0  0
   -1.6555    4.0999    1.5898 C   0  0  2  0  0  0  0  0  0  0  0  0
   -2.5518    3.6786    2.7468 C   0  0  0  0  0  0  0  0  0  0  0  0
   -3.5710    3.0080    2.5961 O   0  0  0  0  0  0  0  0  0  0  0  0
   -2.1225    5.4183    0.9926 C   0  0  0  0  0  0  0  0  0  0  0  0
   -2.5373    2.5293    0.4754 H   0  0  0  0  0  0  0  0  0  0  0  0
   -0.6220    4.1897    1.9416 H   0  0  0  0  0  0  0  0  0  0  0  0
   -3.1561    5.3478    0.6346 H   0  0  0  0  0  0  0  0  0  0  0  0
   -2.0833    6.2249    1.7322 H   0  0  0  0  0  0  0  0  0  0  0  0
   -1.4949    5.7048    0.1419 H   0  0  0  0  0  0  0  0  0  0  0  0
   -2.1033    4.1759    3.9624 N   0  0  0  0  0  0  0  0  0  0  0  0
   -2.8057    3.9504    5.2040 C   0  0  0  0  0  0  0  0  0  0  0  0
   -1.2271    4.6885    3.9998 H   0  0  0  0  0  0  0  0  0  0  0  0
   -3.4997    4.7834    5.3898 H   0  0  0  0  0  0  0  0  0  0  0  0
   -3.3717    3.0094    5.1392 H   0  0  0  0  0  0  0  0  0  0  0  0
   -2.0808    3.8862    6.0288 H   0  0  0  0  0  0  0  0  0  0  0  0
  1  3  1  0  0  0  0
  1  7  1  0  0  0  0
  1  2  2  0  0  0  0
 23 25  1  0  0  0  0
 23 29  1  0  0  0  0
 23 24  2  0  0  0  0
 50 51  1  0  0  0  0
 51 59  1  0  0  0  0
 51 52  2  0  0  0  0
  8  9  1  0  0  0  0
  9 17  1  0  0  0  0
  9 10  2  0  0  0  0
 30 31  1  0  0  0  0
 31 39  1  0  0  0  0
 31 32  2  0  0  0  0
 40 41  1  0  0  0  0
 41 49  1  0  0  0  0
 41 42  2  0  0  0  0
 50 53  1  0  0  0  0
 30 33  1  0  0  0  0
 59 60  1  0  0  0  0
 17 18  1  0  0  0  0
  8 11  1  0  0  0  0
 11 12  1  0  0  0  0
 40 43  1  0  0  0  0
 43 44  1  0  0  0  0
 49 50  1  0  0  0  0
  7  8  1  0  0  0  0
 29 30  1  0  0  0  0
 39 40  1  0  0  0  0
 12 44  1  0  0  0  0
  3  4  1  0  0  0  0
  3  5  1  0  0  0  0
  3  6  1  0  0  0  0
 25 26  1  0  0  0  0
 25 27  1  0  0  0  0
 25 28  1  0  0  0  0
 53 56  1  0  0  0  0
 53 57  1  0  0  0  0
 53 58  1  0  0  0  0
 33 36  1  0  0  0  0
 33 37  1  0  0  0  0
 33 38  1  0  0  0  0
 60 62  1  0  0  0  0
 60 63  1  0  0  0  0
 60 64  1  0  0  0  0
 18 20  1  0  0  0  0
 18 21  1  0  0  0  0
 18 22  1  0  0  0  0
 11 15  1  0  0  0  0
 11 16  1  0  0  0  0
 43 47  1  0  0  0  0
 43 48  1  0  0  0  0
 50 55  1  0  0  0  0
  8 14  1  0  0  0  0
 30 35  1  0  0  0  0
 40 46  1  0  0  0  0
 59 61  1  0  0  0  0
 17 19  1  0  0  0  0
  7 13  1  0  0  0  0
 29 34  1  0  0  0  0
 49 54  1  0  0  0  0
 39 45  1  0  0  0  0
M  END
$$$$

  -OEChem-05262214473D

 64 63  0     1  0  0  0  0  0999 V2000
    0.6226   -0.1770   -9.0644 C   0  0  0  0  0  0  0  0  0  0  0  0
   -0.5388    0.0305   -9.3959 O   0  0  0  0  0  0  0  0  0  0  0  0
    1.3782   -1.3000   -9.6939 C   0  0  0  0  0  0  0  0  0  0  0  0
    1.2703   -2.2442   -9.1361 H   0  0  0  0  0  0  0  0  0  0  0  0
    1.0274   -1.5230  -10.7143 H   0  0  0  0  0  0  0  0  0  0  0  0
    2.4644   -1.1423   -9.7891 H   0  0  0  0  0  0  0  0  0  0  0  0
    1.3495    0.5431   -8.1322 N   0  0  0  0  0  0  0  0  0  0  0  0
    0.8133    1.6677   -7.4081 C   0  0  2  0  0  0  0  0  0  0  0  0
    1.9258    2.6910   -7.1895 C   0  0  0  0  0  0  0  0  0  0  0  0
    3.0981    2.4810   -7.4941 O   0  0  0  0  0  0  0  0  0  0  0  0
    0.1127    1.2469   -6.1138 C   0  0  0  0  0  0  0  0  0  0  0  0
    1.2218    0.4580   -4.9014 S   0  0  0  0  0  0  0  0  0  0  0  0
    2.3108    0.2643   -7.9489 H   0  0  0  0  0  0  0  0  0  0  0  0
    0.0719    2.1224   -8.0769 H   0  0  0  0  0  0  0  0  0  0  0  0
   -0.3438    2.1135   -5.6246 H   0  0  0  0  0  0  0  0  0  0  0  0
   -0.6882    0.5340   -6.3379 H   0  0  0  0  0  0  0  0  0  0  0  0
    1.4595    3.8538   -6.5926 N   0  0  0  0  0  0  0  0  0  0  0  0
    2.3258    4.9608   -6.2613 C   0  0  0  0  0  0  0  0  0  0  0  0
    0.4653    3.9601   -6.4140 H   0  0  0  0  0  0  0  0  0  0  0  0
    2.6759    4.8554   -5.2239 H   0  0  0  0  0  0  0  0  0  0  0  0
    3.1905    4.9658   -6.9412 H   0  0  0  0  0  0  0  0  0  0  0  0
    1.7710    5.9047   -6.3668 H   0  0  0  0  0  0  0  0  0  0  0  0
   -6.7256    2.0330   -0.2766 C   0  0  0  0  0  0  0  0  0  0  0  0
   -7.1824    1.1039   -0.9322 O   0  0  0  0  0  0  0  0  0  0  0  0
   -7.5276    2.6077    0.8435 C   0  0  0  0  0  0  0  0  0  0  0  0
   -8.1775    3.4344    0.5145 H   0  0  0  0  0  0  0  0  0  0  0  0
   -8.2057    1.8676    1.2980 H   0  0  0  0  0  0  0  0  0  0  0  0
   -6.9411    3.0162    1.6819 H   0  0  0  0  0  0  0  0  0  0  0  0
   -5.4935    2.6382   -0.4627 N   0  0  0  0  0  0  0  0  0  0  0  0
   -4.5619    2.2388   -1.4845 C   0  0  2  0  0  0  0  0  0  0  0  0
   -3.1535    2.4674   -0.9521 C   0  0  0  0  0  0  0  0  0  0  0  0
   -2.8634    3.3945   -0.1987 O   0  0  0  0  0  0  0  0  0  0  0  0
   -4.7883    3.0138   -2.7732 C   0  0  0  0  0  0  0  0  0  0  0  0
   -5.2337    3.4049    0.1551 H   0  0  0  0  0  0  0  0  0  0  0  0
   -4.7192    1.1682   -1.6549 H   0  0  0  0  0  0  0  0  0  0  0  0
   -4.6352    4.0886   -2.6221 H   0  0  0  0  0  0  0  0  0  0  0  0
   -4.0976    2.6887   -3.5582 H   0  0  0  0  0  0  0  0  0  0  0  0
   -5.8111    2.8719   -3.1387 H   0  0  0  0  0  0  0  0  0  0  0  0
   -2.2466    1.5400   -1.4507 N   0  0  0  0  0  0  0  0  0  0  0  0
   -0.8424    1.5707   -1.1286 C   0  0  2  0  0  0  0  0  0  0  0  0
   -0.5753    2.7482   -0.1932 C   0  0  0  0  0  0  0  0  0  0  0  0
    0.3831    3.5063   -0.3280 O   0  0  0  0  0  0  0  0  0  0  0  0
    0.0420    1.5752   -2.3779 C   0  0  0  0  0  0  0  0  0  0  0  0
   -0.0785    0.0618   -3.3617 S   0  0  0  0  0  0  0  0  0  0  0  0
   -2.5850    0.7815   -2.0381 H   0  0  0  0  0  0  0  0  0  0  0  0
   -0.6492    0.6496   -0.5648 H   0  0  0  0  0  0  0  0  0  0  0  0
   -0.2211    2.4128   -3.0320 H   0  0  0  0  0  0  0  0  0  0  0  0
    1.0921    1.6970   -2.0912 H   0  0  0  0  0  0  0  0  0  0  0  0
   -1.5175    2.8367    0.8216 N   0  0  0  0  0  0  0  0  0  0  0  0
   -1.4656    3.8530    1.8464 C   0  0  2  0  0  0  0  0  0  0  0  0
   -2.0324    3.2576    3.1285 C   0  0  0  0  0  0  0  0  0  0  0  0
   -2.9452    2.4344    3.1394 O   0  0  0  0  0  0  0  0  0  0  0  0
   -2.2414    5.0944    1.4343 C   0  0  0  0  0  0  0  0  0  0  0  0
   -2.3030    2.1928    0.8321 H   0  0  0  0  0  0  0  0  0  0  0  0
   -0.4085    4.0998    1.9938 H   0  0  0  0  0  0  0  0  0  0  0  0
   -3.3027    4.8668    1.2820 H   0  0  0  0  0  0  0  0  0  0  0  0
   -2.1773    5.8747    2.1999 H   0  0  0  0  0  0  0  0  0  0  0  0
   -1.8515    5.5042    0.4963 H   0  0  0  0  0  0  0  0  0  0  0  0
   -1.4282    3.7857    4.2608 N   0  0  0  0  0  0  0  0  0  0  0  0
   -1.8204    3.4125    5.5997 C   0  0  0  0  0  0  0  0  0  0  0  0
   -0.6522    4.4330    4.1573 H   0  0  0  0  0  0  0  0  0  0  0  0
   -2.5819    4.1154    5.9687 H   0  0  0  0  0  0  0  0  0  0  0  0
   -2.2360    2.3940    5.5895 H   0  0  0  0  0  0  0  0  0  0  0  0
   -0.9420    3.4433    6.2611 H   0  0  0  0  0  0  0  0  0  0  0  0
  1  3  1  0  0  0  0
  1  7  1  0  0  0  0
  1  2  2  0  0  0  0
 23 25  1  0  0  0  0
 23 29  1  0  0  0  0
 23 24  2  0  0  0  0
 50 51  1  0  0  0  0
 51 59  1  0  0  0  0
 51 52  2  0  0  0  0
  8  9  1  0  0  0  0
  9 17  1  0  0  0  0
  9 10  2  0  0  0  0
 30 31  1  0  0  0  0
 31 39  1  0  0  0  0
 31 32  2  0  0  0  0
 40 41  1  0  0  0  0
 41 49  1  0  0  0  0
 41 42  2  0  0  0  0
 50 53  1  0  0  0  0
 30 33  1  0  0  0  0
 59 60  1  0  0  0  0
 17 18  1  0  0  0  0
  8 11  1  0  0  0  0
 11 12  1  0  0  0  0
 40 43  1  0  0  0  0
 43 44  1  0  0  0  0
 49 50  1  0  0  0  0
  7  8  1  0  0  0  0
 29 30  1  0  0  0  0
 39 40  1  0  0  0  0
 12 44  1  0  0  0  0
  3  4  1  0  0  0  0
  3  5  1  0  0  0  0
  3  6  1  0  0  0  0
 25 26  1  0  0  0  0
 25 27  1  0  0  0  0
 25 28  1  0  0  0  0
 53 56  1  0  0  0  0
 53 57  1  0  0  0  0
 53 58  1  0  0  0  0
 33 36  1  0  0  0  0
 33 37  1  0  0  0  0
 33 38  1  0  0  0  0
 60 62  1  0  0  0  0
 60 63  1  0  0  0  0
 60 64  1  0  0  0  0
 18 20  1  0  0  0  0
 18 21  1  0  0  0  0
 18 22  1  0  0  0  0
 11 15  1  0  0  0  0
 11 16  1  0  0  0  0
 43 47  1  0  0  0  0
 43 48  1  0  0  0  0
 50 55  1  0  0  0  0
  8 14  1  0  0  0  0
 30 35  1  0  0  0  0
 40 46  1  0  0  0  0
 59 61  1  0  0  0  0
 17 19  1  0  0  0  0
  7 13  1  0  0  0  0
 29 34  1  0  0  0  0
 49 54  1  0  0  0  0
 39 45  1  0  0  0  0
M  END
$$$$

  -OEChem-05262214473D

 64 63  0     1  0  0  0  0  0999 V2000
    0.6226   -0.1770   -9.0644 C   0  0  0  0  0  0  0  0  0  0  0  0
   -0.5388    0.0305   -9.3959 O   0  0  0  0  0  0  0  0  0  0  0  0
    1.3782   -1.3000   -9.6939 C   0  0  0  0  0  0  0  0  0  0  0  0
    1.2703   -2.2442   -9.1361 H   0  0  0  0  0  0  0  0  0  0  0  0
    1.0274   -1.5230  -10.7143 H   0  0  0  0  0  0  0  0  0  0  0  0
    2.4644   -1.1423   -9.7891 H   0  0  0  0  0  0  0  0  0  0  0  0
    1.3495    0.5431   -8.1322 N   0  0  0  0  0  0  0  0  0  0  0  0
    0.8133    1.6677   -7.4081 C   0  0  2  0  0  0  0  0  0  0  0  0
    1.9258    2.6910   -7.1895 C   0  0  0  0  0  0  0  0  0  0  0  0
    3.0981    2.4810   -7.4941 O   0  0  0  0  0  0  0  0  0  0  0  0
    0.1127    1.2469   -6.1138 C   0  0  0  0  0  0  0  0  0  0  0  0
    1.2218    0.4580   -4.9014 S   0  0  0  0  0  0  0  0  0  0  0  0
    2.3108    0.2643   -7.9489 H   0  0  0  0  0  0  0  0  0  0  0  0
    0.0719    2.1224   -8.0769 H   0  0  0  0  0  0  0  0  0  0  0  0
   -0.3438    2.1135   -5.6246 H   0  0  0  0  0  0  0  0  0  0  0  0
   -0.6882    0.5340   -6.3379 H   0  0  0  0  0  0  0  0  0  0  0  0
    1.4595    3.8538   -6.5926 N   0  0  0  0  0  0  0  0  0  0  0  0
    2.3258    4.9608   -6.2613 C   0  0  0  0  0  0  0  0  0  0  0  0
    0.4653    3.9601   -6.4140 H   0  0  0  0  0  0  0  0  0  0  0  0
    2.6759    4.8554   -5.2239 H   0  0  0  0  0  0  0  0  0  0  0  0
    3.1905    4.9658   -6.9412 H   0  0  0  0  0  0  0  0  0  0  0  0
    1.7710    5.9047   -6.3668 H   0  0  0  0  0  0  0  0  0  0  0  0
   -6.7256    2.0330   -0.2766 C   0  0  0  0  0  0  0  0  0  0  0  0
   -7.1824    1.1039   -0.9322 O   0  0  0  0  0  0  0  0  0  0  0  0
   -7.5276    2.6077    0.8435 C   0  0  0  0  0  0  0  0  0  0  0  0
   -8.1775    3.4344    0.5145 H   0  0  0  0  0  0  0  0  0  0  0  0
   -8.2057    1.8676    1.2980 H   0  0  0  0  0  0  0  0  0  0  0  0
   -6.9411    3.0162    1.6819 H   0  0  0  0  0  0  0  0  0  0  0  0
   -5.4935    2.6382   -0.4627 N   0  0  0  0  0  0  0  0  0  0  0  0
   -4.5619    2.2388   -1.4845 C   0  0  2  0  0  0  0  0  0  0  0  0
   -3.1535    2.4674   -0.9521 C   0  0  0  0  0  0  0  0  0  0  0  0
   -2.8634    3.3945   -0.1987 O   0  0  0  0  0  0  0  0  0  0  0  0
   -4.7883    3.0138   -2.7732 C   0  0  0  0  0  0  0  0  0  0  0  0
   -5.2337    3.4049    0.1551 H   0  0  0  0  0  0  0  0  0  0  0  0
   -4.7192    1.1682   -1.6549 H   0  0  0  0  0  0  0  0  0  0  0  0
   -4.6352    4.0886   -2.6221 H   0  0  0  0  0  0  0  0  0  0  0  0
   -4.0976    2.6887   -3.5582 H   0  0  0  0  0  0  0  0  0  0  0  0
   -5.8111    2.8719   -3.1387 H   0  0  0  0  0  0  0  0  0  0  0  0
   -2.2466    1.5400   -1.4507 N   0  0  0  0  0  0  0  0  0  0  0  0
   -0.8424    1.5707   -1.1286 C   0  0  2  0  0  0  0  0  0  0  0  0
   -0.5753    2.7482   -0.1932 C   0  0  0  0  0  0  0  0  0  0  0  0
    0.2074    3.6561   -0.4663 O   0  0  0  0  0  0  0  0  0  0  0  0
    0.0420    1.5752   -2.3779 C   0  0  0  0  0  0  0  0  0  0  0  0
   -0.0785    0.0618   -3.3617 S   0  0  0  0  0  0  0  0  0  0  0  0
   -2.5850    0.7815   -2.0381 H   0  0  0  0  0  0  0  0  0  0  0  0
   -0.6492    0.6496   -0.5648 H   0  0  0  0  0  0  0  0  0  0  0  0
   -0.2211    2.4128   -3.0320 H   0  0  0  0  0  0  0  0  0  0  0  0
    1.0921    1.6970   -2.0912 H   0  0  0  0  0  0  0  0  0  0  0  0
   -1.2938    2.6522    0.9900 N   0  0  0  0  0  0  0  0  0  0  0  0
   -1.1918    3.6330    2.0452 C   0  0  2  0  0  0  0  0  0  0  0  0
   -1.3877    2.9159    3.3744 C   0  0  0  0  0  0  0  0  0  0  0  0
   -2.1415    1.9549    3.5134 O   0  0  0  0  0  0  0  0  0  0  0  0
   -2.2168    4.7427    1.8700 C   0  0  0  0  0  0  0  0  0  0  0  0
   -1.9521    1.8888    1.1146 H   0  0  0  0  0  0  0  0  0  0  0  0
   -0.1777    4.0445    1.9975 H   0  0  0  0  0  0  0  0  0  0  0  0
   -3.2390    4.3496    1.9149 H   0  0  0  0  0  0  0  0  0  0  0  0
   -2.1193    5.5003    2.6546 H   0  0  0  0  0  0  0  0  0  0  0  0
   -2.0934    5.2378    0.9007 H   0  0  0  0  0  0  0  0  0  0  0  0
   -0.6547    3.5023    4.3967 N   0  0  0  0  0  0  0  0  0  0  0  0
   -0.7045    3.0311    5.7611 C   0  0  0  0  0  0  0  0  0  0  0  0
   -0.0250    4.2702    4.1831 H   0  0  0  0  0  0  0  0  0  0  0  0
   -1.4740    3.5893    6.3144 H   0  0  0  0  0  0  0  0  0  0  0  0
   -0.9517    1.9593    5.7699 H   0  0  0  0  0  0  0  0  0  0  0  0
    0.2746    3.1855    6.2381 H   0  0  0  0  0  0  0  0  0  0  0  0
  1  3  1  0  0  0  0
  1  7  1  0  0  0  0
  1  2  2  0  0  0  0
 23 25  1  0  0  0  0
 23 29  1  0  0  0  0
 23 24  2  0  0  0  0
 50 51  1  0  0  0  0
 51 59  1  0  0  0  0
 51 52  2  0  0  0  0
  8  9  1  0  0  0  0
  9 17  1  0  0  0  0
  9 10  2  0  0  0  0
 30 31  1  0  0  0  0
 31 39  1  0  0  0  0
 31 32  2  0  0  0  0
 40 41  1  0  0  0  0
 41 49  1  0  0  0  0
 41 42  2  0  0  0  0
 50 53  1  0  0  0  0
 30 33  1  0  0  0  0
 59 60  1  0  0  0  0
 17 18  1  0  0  0  0
  8 11  1  0  0  0  0
 11 12  1  0  0  0  0
 40 43  1  0  0  0  0
 43 44  1  0  0  0  0
 49 50  1  0  0  0  0
  7  8  1  0  0  0  0
 29 30  1  0  0  0  0
 39 40  1  0  0  0  0
 12 44  1  0  0  0  0
  3  4  1  0  0  0  0
  3  5  1  0  0  0  0
  3  6  1  0  0  0  0
 25 26  1  0  0  0  0
 25 27  1  0  0  0  0
 25 28  1  0  0  0  0
 53 56  1  0  0  0  0
 53 57  1  0  0  0  0
 53 58  1  0  0  0  0
 33 36  1  0  0  0  0
 33 37  1  0  0  0  0
 33 38  1  0  0  0  0
 60 62  1  0  0  0  0
 60 63  1  0  0  0  0
 60 64  1  0  0  0  0
 18 20  1  0  0  0  0
 18 21  1  0  0  0  0
 18 22  1  0  0  0  0
 11 15  1  0  0  0  0
 11 16  1  0  0  0  0
 43 47  1  0  0  0  0
 43 48  1  0  0  0  0
 50 55  1  0  0  0  0
  8 14  1  0  0  0  0
 30 35  1  0  0  0  0
 40 46  1  0  0  0  0
 59 61  1  0  0  0  0
 17 19  1  0  0  0  0
  7 13  1  0  0  0  0
 29 34  1  0  0  0  0
 49 54  1  0  0  0  0
 39 45  1  0  0  0  0
M  END
$$$$

  -OEChem-05262214473D

 64 63  0     1  0  0  0  0  0999 V2000
    0.6226   -0.1770   -9.0644 C   0  0  0  0  0  0  0  0  0  0  0  0
   -0.5388    0.0305   -9.3959 O   0  0  0  0  0  0  0  0  0  0  0  0
    1.3782   -1.3000   -9.6939 C   0  0  0  0  0  0  0  0  0  0  0  0
    1.2703   -2.2442   -9.1361 H   0  0  0  0  0  0  0  0  0  0  0  0
    1.0274   -1.5230  -10.7143 H   0  0  0  0  0  0  0  0  0  0  0  0
    2.4644   -1.1423   -9.7891 H   0  0  0  0  0  0  0  0  0  0  0  0
    1.3495    0.5431   -8.1322 N   0  0  0  0  0  0  0  0  0  0  0  0
    0.8133    1.6677   -7.4081 C   0  0  2  0  0  0  0  0  0  0  0  0
    1.9258    2.6910   -7.1895 C   0  0  0  0  0  0  0  0  0  0  0  0
    3.0981    2.4810   -7.4941 O   0  0  0  0  0  0  0  0  0  0  0  0
    0.1127    1.2469   -6.1138 C   0  0  0  0  0  0  0  0  0  0  0  0
    1.2218    0.4580   -4.9014 S   0  0  0  0  0  0  0  0  0  0  0  0
    2.3108    0.2643   -7.9489 H   0  0  0  0  0  0  0  0  0  0  0  0
    0.0719    2.1224   -8.0769 H   0  0  0  0  0  0  0  0  0  0  0  0
   -0.3438    2.1135   -5.6246 H   0  0  0  0  0  0  0  0  0  0  0  0
   -0.6882    0.5340   -6.3379 H   0  0  0  0  0  0  0  0  0  0  0  0
    1.4595    3.8538   -6.5926 N   0  0  0  0  0  0  0  0  0  0  0  0
    2.3258    4.9608   -6.2613 C   0  0  0  0  0  0  0  0  0  0  0  0
    0.4653    3.9601   -6.4140 H   0  0  0  0  0  0  0  0  0  0  0  0
    2.6759    4.8554   -5.2239 H   0  0  0  0  0  0  0  0  0  0  0  0
    3.1905    4.9658   -6.9412 H   0  0  0  0  0  0  0  0  0  0  0  0
    1.7710    5.9047   -6.3668 H   0  0  0  0  0  0  0  0  0  0  0  0
   -6.7256    2.0330   -0.2766 C   0  0  0  0  0  0  0  0  0  0  0  0
   -7.1824    1.1039   -0.9322 O   0  0  0  0  0  0  0  0  0  0  0  0
   -7.5276    2.6077    0.8435 C   0  0  0  0  0  0  0  0  0  0  0  0
   -8.1775    3.4344    0.5145 H   0  0  0  0  0  0  0  0  0  0  0  0
   -8.2057    1.8676    1.2980 H   0  0  0  0  0  0  0  0  0  0  0  0
   -6.9411    3.0162    1.6819 H   0  0  0  0  0  0  0  0  0  0  0  0
   -5.4935    2.6382   -0.4627 N   0  0  0  0  0  0  0  0  0  0  0  0
   -4.5619    2.2388   -1.4845 C   0  0  2  0  0  0  0  0  0  0  0  0
   -3.1535    2.4674   -0.9521 C   0  0  0  0  0  0  0  0  0  0  0  0
   -2.8634    3.3945   -0.1987 O   0  0  0  0  0  0  0  0  0  0  0  0
   -4.7883    3.0138   -2.7732 C   0  0  0  0  0  0  0  0  0  0  0  0
   -5.2337    3.4049    0.1551 H   0  0  0  0  0  0  0  0  0  0  0  0
   -4.7192    1.1682   -1.6549 H   0  0  0  0  0  0  0  0  0  0  0  0
   -4.6352    4.0886   -2.6221 H   0  0  0  0  0  0  0  0  0  0  0  0
   -4.0976    2.6887   -3.5582 H   0  0  0  0  0  0  0  0  0  0  0  0
   -5.8111    2.8719   -3.1387 H   0  0  0  0  0  0  0  0  0  0  0  0
   -2.2466    1.5400   -1.4507 N   0  0  0  0  0  0  0  0  0  0  0  0
   -0.8424    1.5707   -1.1286 C   0  0  2  0  0  0  0  0  0  0  0  0
   -0.5753    2.7482   -0.1932 C   0  0  0  0  0  0  0  0  0  0  0  0
   -0.0137    3.7792   -0.5581 O   0  0  0  0  0  0  0  0  0  0  0  0
    0.0420    1.5752   -2.3779 C   0  0  0  0  0  0  0  0  0  0  0  0
   -0.0785    0.0618   -3.3617 S   0  0  0  0  0  0  0  0  0  0  0  0
   -2.5850    0.7815   -2.0381 H   0  0  0  0  0  0  0  0  0  0  0  0
   -0.6492    0.6496   -0.5648 H   0  0  0  0  0  0  0  0  0  0  0  0
   -0.2211    2.4128   -3.0320 H   0  0  0  0  0  0  0  0  0  0  0  0
    1.0921    1.6970   -2.0912 H   0  0  0  0  0  0  0  0  0  0  0  0
   -1.0149    2.5018    1.0997 N   0  0  0  0  0  0  0  0  0  0  0  0
   -0.8528    3.4549    2.1726 C   0  0  2  0  0  0  0  0  0  0  0  0
   -0.6618    2.6770    3.4679 C   0  0  0  0  0  0  0  0  0  0  0  0
   -1.2145    1.6023    3.6926 O   0  0  0  0  0  0  0  0  0  0  0  0
   -2.0503    4.3872    2.2700 C   0  0  0  0  0  0  0  0  0  0  0  0
   -1.5086    1.6379    1.3037 H   0  0  0  0  0  0  0  0  0  0  0  0
    0.0548    4.0275    1.9525 H   0  0  0  0  0  0  0  0  0  0  0  0
   -2.9691    3.8315    2.4900 H   0  0  0  0  0  0  0  0  0  0  0  0
   -1.9132    5.1273    3.0653 H   0  0  0  0  0  0  0  0  0  0  0  0
   -2.2041    4.9239    1.3276 H   0  0  0  0  0  0  0  0  0  0  0  0
    0.1645    3.3449    4.3608 N   0  0  0  0  0  0  0  0  0  0  0  0
    0.4661    2.8323    5.6769 C   0  0  0  0  0  0  0  0  0  0  0  0
    0.6118    4.2111    4.0755 H   0  0  0  0  0  0  0  0  0  0  0  0
   -0.2515    3.2412    6.4035 H   0  0  0  0  0  0  0  0  0  0  0  0
    0.3938    1.7347    5.6683 H   0  0  0  0  0  0  0  0  0  0  0  0
    1.4860    3.1304    5.9615 H   0  0  0  0  0  0  0  0  0  0  0  0
  1  3  1  0  0  0  0
  1  7  1  0  0  0  0
  1  2  2  0  0  0  0
 23 25  1  0  0  0  0
 23 29  1  0  0  0  0
 23 24  2  0  0  0  0
 50 51  1  0  0  0  0
 51 59  1  0  0  0  0
 51 52  2  0  0  0  0
  8  9  1  0  0  0  0
  9 17  1  0  0  0  0
  9 10  2  0  0  0  0
 30 31  1  0  0  0  0
 31 39  1  0  0  0  0
 31 32  2  0  0  0  0
 40 41  1  0  0  0  0
 41 49  1  0  0  0  0
 41 42  2  0  0  0  0
 50 53  1  0  0  0  0
 30 33  1  0  0  0  0
 59 60  1  0  0  0  0
 17 18  1  0  0  0  0
  8 11  1  0  0  0  0
 11 12  1  0  0  0  0
 40 43  1  0  0  0  0
 43 44  1  0  0  0  0
 49 50  1  0  0  0  0
  7  8  1  0  0  0  0
 29 30  1  0  0  0  0
 39 40  1  0  0  0  0
 12 44  1  0  0  0  0
  3  4  1  0  0  0  0
  3  5  1  0  0  0  0
  3  6  1  0  0  0  0
 25 26  1  0  0  0  0
 25 27  1  0  0  0  0
 25 28  1  0  0  0  0
 53 56  1  0  0  0  0
 53 57  1  0  0  0  0
 53 58  1  0  0  0  0
 33 36  1  0  0  0  0
 33 37  1  0  0  0  0
 33 38  1  0  0  0  0
 60 62  1  0  0  0  0
 60 63  1  0  0  0  0
 60 64  1  0  0  0  0
 18 20  1  0  0  0  0
 18 21  1  0  0  0  0
 18 22  1  0  0  0  0
 11 15  1  0  0  0  0
 11 16  1  0  0  0  0
 43 47  1  0  0  0  0
 43 48  1  0  0  0  0
 50 55  1  0  0  0  0
  8 14  1  0  0  0  0
 30 35  1  0  0  0  0
 40 46  1  0  0  0  0
 59 61  1  0  0  0  0
 17 19  1  0  0  0  0
  7 13  1  0  0  0  0
 29 34  1  0  0  0  0
 49 54  1  0  0  0  0
 39 45  1  0  0  0  0
M  END
$$$$

  -OEChem-05262214473D

 64 63  0     1  0  0  0  0  0999 V2000
    0.6226   -0.1770   -9.0644 C   0  0  0  0  0  0  0  0  0  0  0  0
   -0.5388    0.0305   -9.3959 O   0  0  0  0  0  0  0  0  0  0  0  0
    1.3782   -1.3000   -9.6939 C   0  0  0  0  0  0  0  0  0  0  0  0
    1.2703   -2.2442   -9.1361 H   0  0  0  0  0  0  0  0  0  0  0  0
    1.0274   -1.5230  -10.7143 H   0  0  0  0  0  0  0  0  0  0  0  0
    2.4644   -1.1423   -9.7891 H   0  0  0  0  0  0  0  0  0  0  0  0
    1.3495    0.5431   -8.1322 N   0  0  0  0  0  0  0  0  0  0  0  0
    0.8133    1.6677   -7.4081 C   0  0  2  0  0  0  0  0  0  0  0  0
    1.9258    2.6910   -7.1895 C   0  0  0  0  0  0  0  0  0  0  0  0
    3.0981    2.4810   -7.4941 O   0  0  0  0  0  0  0  0  0  0  0  0
    0.1127    1.2469   -6.1138 C   0  0  0  0  0  0  0  0  0  0  0  0
    1.2218    0.4580   -4.9014 S   0  0  0  0  0  0  0  0  0  0  0  0
    2.3108    0.2643   -7.9489 H   0  0  0  0  0  0  0  0  0  0  0  0
    0.0719    2.1224   -8.0769 H   0  0  0  0  0  0  0  0  0  0  0  0
   -0.3438    2.1135   -5.6246 H   0  0  0  0  0  0  0  0  0  0  0  0
   -0.6882    0.5340   -6.3379 H   0  0  0  0  0  0  0  0  0  0  0  0
    1.4595    3.8538   -6.5926 N   0  0  0  0  0  0  0  0  0  0  0  0
    2.3258    4.9608   -6.2613 C   0  0  0  0  0  0  0  0  0  0  0  0
    0.4653    3.9601   -6.4140 H   0  0  0  0  0  0  0  0  0  0  0  0
    2.6759    4.8554   -5.2239 H   0  0  0  0  0  0  0  0  0  0  0  0
    3.1905    4.9658   -6.9412 H   0  0  0  0  0  0  0  0  0  0  0  0
    1.7710    5.9047   -6.3668 H   0  0  0  0  0  0  0  0  0  0  0  0
   -6.7256    2.0330   -0.2766 C   0  0  0  0  0  0  0  0  0  0  0  0
   -7.1824    1.1039   -0.9322 O   0  0  0  0  0  0  0  0  0  0  0  0
   -7.5276    2.6077    0.8435 C   0  0  0  0  0  0  0  0  0  0  0  0
   -8.1775    3.4344    0.5145 H   0  0  0  0  0  0  0  0  0  0  0  0
   -8.2057    1.8676    1.2980 H   0  0  0  0  0  0  0  0  0  0  0  0
   -6.9411    3.0162    1.6819 H   0  0  0  0  0  0  0  0  0  0  0  0
   -5.4935    2.6382   -0.4627 N   0  0  0  0  0  0  0  0  0  0  0  0
   -4.5619    2.2388   -1.4845 C   0  0  2  0  0  0  0  0  0  0  0  0
   -3.1535    2.4674   -0.9521 C   0  0  0  0  0  0  0  0  0  0  0  0
   -2.8634    3.3945   -0.1987 O   0  0  0  0  0  0  0  0  0  0  0  0
   -4.7883    3.0138   -2.7732 C   0  0  0  0  0  0  0  0  0  0  0  0
   -5.2337    3.4049    0.1551 H   0  0  0  0  0  0  0  0  0  0  0  0
   -4.7192    1.1682   -1.6549 H   0  0  0  0  0  0  0  0  0  0  0  0
   -4.6352    4.0886   -2.6221 H   0  0  0  0  0  0  0  0  0  0  0  0
   -4.0976    2.6887   -3.5582 H   0  0  0  0  0  0  0  0  0  0  0  0
   -5.8111    2.8719   -3.1387 H   0  0  0  0  0  0  0  0  0  0  0  0
   -2.2466    1.5400   -1.4507 N   0  0  0  0  0  0  0  0  0  0  0  0
   -0.8424    1.5707   -1.1286 C   0  0  2  0  0  0  0  0  0  0  0  0
   -0.5753    2.7482   -0.1932 C   0  0  0  0  0  0  0  0  0  0  0  0
   -0.2650    3.8671   -0.5971 O   0  0  0  0  0  0  0  0  0  0  0  0
    0.0420    1.5752   -2.3779 C   0  0  0  0  0  0  0  0  0  0  0  0
   -0.0785    0.0618   -3.3617 S   0  0  0  0  0  0  0  0  0  0  0  0
   -2.5850    0.7815   -2.0381 H   0  0  0  0  0  0  0  0  0  0  0  0
   -0.6492    0.6496   -0.5648 H   0  0  0  0  0  0  0  0  0  0  0  0
   -0.2211    2.4128   -3.0320 H   0  0  0  0  0  0  0  0  0  0  0  0
    1.0921    1.6970   -2.0912 H   0  0  0  0  0  0  0  0  0  0  0  0
   -0.6997    2.3957    1.1431 N   0  0  0  0  0  0  0  0  0  0  0  0
   -0.4717    3.3308    2.2199 C   0  0  2  0  0  0  0  0  0  0  0  0
    0.0959    2.5570    3.4025 C   0  0  0  0  0  0  0  0  0  0  0  0
   -0.2275    1.4004    3.6648 O   0  0  0  0  0  0  0  0  0  0  0  0
   -1.7533    4.0521    2.6071 C   0  0  0  0  0  0  0  0  0  0  0  0
   -1.0028    1.4573    1.3865 H   0  0  0  0  0  0  0  0  0  0  0  0
    0.2731    4.0499    1.8619 H   0  0  0  0  0  0  0  0  0  0  0  0
   -2.5115    3.3477    2.9683 H   0  0  0  0  0  0  0  0  0  0  0  0
   -1.5731    4.7811    3.4040 H   0  0  0  0  0  0  0  0  0  0  0  0
   -2.1761    4.5838    1.7478 H   0  0  0  0  0  0  0  0  0  0  0  0
    0.9736    3.3244    4.1555 N   0  0  0  0  0  0  0  0  0  0  0  0
    1.6115    2.8297    5.3531 C   0  0  0  0  0  0  0  0  0  0  0  0
    1.2148    4.2599    3.8419 H   0  0  0  0  0  0  0  0  0  0  0  0
    1.0023    3.0946    6.2299 H   0  0  0  0  0  0  0  0  0  0  0  0
    1.7088    1.7357    5.2914 H   0  0  0  0  0  0  0  0  0  0  0  0
    2.6096    3.2816    5.4502 H   0  0  0  0  0  0  0  0  0  0  0  0
  1  3  1  0  0  0  0
  1  7  1  0  0  0  0
  1  2  2  0  0  0  0
 23 25  1  0  0  0  0
 23 29  1  0  0  0  0
 23 24  2  0  0  0  0
 50 51  1  0  0  0  0
 51 59  1  0  0  0  0
 51 52  2  0  0  0  0
  8  9  1  0  0  0  0
  9 17  1  0  0  0  0
  9 10  2  0  0  0  0
 30 31  1  0  0  0  0
 31 39  1  0  0  0  0
 31 32  2  0  0  0  0
 40 41  1  0  0  0  0
 41 49  1  0  0  0  0
 41 42  2  0  0  0  0
 50 53  1  0  0  0  0
 30 33  1  0  0  0  0
 59 60  1  0  0  0  0
 17 18  1  0  0  0  0
  8 11  1  0  0  0  0
 11 12  1  0  0  0  0
 40 43  1  0  0  0  0
 43 44  1  0  0  0  0
 49 50  1  0  0  0  0
  7  8  1  0  0  0  0
 29 30  1  0  0  0  0
 39 40  1  0  0  0  0
 12 44  1  0  0  0  0
  3  4  1  0  0  0  0
  3  5  1  0  0  0  0
  3  6  1  0  0  0  0
 25 26  1  0  0  0  0
 25 27  1  0  0  0  0
 25 28  1  0  0  0  0
 53 56  1  0  0  0  0
 53 57  1  0  0  0  0
 53 58  1  0  0  0  0
 33 36  1  0  0  0  0
 33 37  1  0  0  0  0
 33 38  1  0  0  0  0
 60 62  1  0  0  0  0
 60 63  1  0  0  0  0
 60 64  1  0  0  0  0
 18 20  1  0  0  0  0
 18 21  1  0  0  0  0
 18 22  1  0  0  0  0
 11 15  1  0  0  0  0
 11 16  1  0  0  0  0
 43 47  1  0  0  0  0
 43 48  1  0  0  0  0
 50 55  1  0  0  0  0
  8 14  1  0  0  0  0
 30 35  1  0  0  0  0
 40 46  1  0  0  0  0
 59 61  1  0  0  0  0
 17 19  1  0  0  0  0
  7 13  1  0  0  0  0
 29 34  1  0  0  0  0
 49 54  1  0  0  0  0
 39 45  1  0  0  0  0
M  END
$$$$

  -OEChem-05262214473D

 64 63  0     1  0  0  0  0  0999 V2000
    0.6226   -0.1770   -9.0644 C   0  0  0  0  0  0  0  0  0  0  0  0
   -0.5388    0.0305   -9.3959 O   0  0  0  0  0  0  0  0  0  0  0  0
    1.3782   -1.3000   -9.6939 C   0  0  0  0  0  0  0  0  0  0  0  0
    1.2703   -2.2442   -9.1361 H   0  0  0  0  0  0  0  0  0  0  0  0
    1.0274   -1.5230  -10.7143 H   0  0  0  0  0  0  0  0  0  0  0  0
    2.4644   -1.1423   -9.7891 H   0  0  0  0  0  0  0  0  0  0  0  0
    1.3495    0.5431   -8.1322 N   0  0  0  0  0  0  0  0  0  0  0  0
    0.8133    1.6677   -7.4081 C   0  0  2  0  0  0  0  0  0  0  0  0
    1.9258    2.6910   -7.1895 C   0  0  0  0  0  0  0  0  0  0  0  0
    3.0981    2.4810   -7.4941 O   0  0  0  0  0  0  0  0  0  0  0  0
    0.1127    1.2469   -6.1138 C   0  0  0  0  0  0  0  0  0  0  0  0
    1.2218    0.4580   -4.9014 S   0  0  0  0  0  0  0  0  0  0  0  0
    2.3108    0.2643   -7.9489 H   0  0  0  0  0  0  0  0  0  0  0  0
    0.0719    2.1224   -8.0769 H   0  0  0  0  0  0  0  0  0  0  0  0
   -0.3438    2.1135   -5.6246 H   0  0  0  0  0  0  0  0  0  0  0  0
   -0.6882    0.5340   -6.3379 H   0  0  0  0  0  0  0  0  0  0  0  0
    1.4595    3.8538   -6.5926 N   0  0  0  0  0  0  0  0  0  0  0  0
    2.3258    4.9608   -6.2613 C   0  0  0  0  0  0  0  0  0  0  0  0
    0.4653    3.9601   -6.4140 H   0  0  0  0  0  0  0  0  0  0  0  0
    2.6759    4.8554   -5.2239 H   0  0  0  0  0  0  0  0  0  0  0  0
    3.1905    4.9658   -6.9412 H   0  0  0  0  0  0  0  0  0  0  0  0
    1.7710    5.9047   -6.3668 H   0  0  0  0  0  0  0  0  0  0  0  0
   -6.7256    2.0330   -0.2766 C   0  0  0  0  0  0  0  0  0  0  0  0
   -7.1824    1.1039   -0.9322 O   0  0  0  0  0  0  0  0  0  0  0  0
   -7.5276    2.6077    0.8435 C   0  0  0  0  0  0  0  0  0  0  0  0
   -8.1775    3.4344    0.5145 H   0  0  0  0  0  0  0  0  0  0  0  0
   -8.2057    1.8676    1.2980 H   0  0  0  0  0  0  0  0  0  0  0  0
   -6.9411    3.0162    1.6819 H   0  0  0  0  0  0  0  0  0  0  0  0
   -5.4935    2.6382   -0.4627 N   0  0  0  0  0  0  0  0  0  0  0  0
   -4.5619    2.2388   -1.4845 C   0  0  2  0  0  0  0  0  0  0  0  0
   -3.1535    2.4674   -0.9521 C   0  0  0  0  0  0  0  0  0  0  0  0
   -2.8634    3.3945   -0.1987 O   0  0  0  0  0  0  0  0  0  0  0  0
   -4.7883    3.0138   -2.7732 C   0  0  0  0  0  0  0  0  0  0  0  0
   -5.2337    3.4049    0.1551 H   0  0  0  0  0  0  0  0  0  0  0  0
   -4.7192    1.1682   -1.6549 H   0  0  0  0  0  0  0  0  0  0  0  0
   -4.6352    4.0886   -2.6221 H   0  0  0  0  0  0  0  0  0  0  0  0
   -4.0976    2.6887   -3.5582 H   0  0  0  0  0  0  0  0  0  0  0  0
   -5.8111    2.8719   -3.1387 H   0  0  0  0  0  0  0  0  0  0  0  0
   -2.2466    1.5400   -1.4507 N   0  0  0  0  0  0  0  0  0  0  0  0
   -0.8424    1.5707   -1.1286 C   0  0  2  0  0  0  0  0  0  0  0  0
   -0.5753    2.7482   -0.1932 C   0  0  0  0  0  0  0  0  0  0  0  0
   -0.5295    3.9141   -0.5806 O   0  0  0  0  0  0  0  0  0  0  0  0
    0.0420    1.5752   -2.3779 C   0  0  0  0  0  0  0  0  0  0  0  0
   -0.0785    0.0618   -3.3617 S   0  0  0  0  0  0  0  0  0  0  0  0
   -2.5850    0.7815   -2.0381 H   0  0  0  0  0  0  0  0  0  0  0  0
   -0.6492    0.6496   -0.5648 H   0  0  0  0  0  0  0  0  0  0  0  0
   -0.2211    2.4128   -3.0320 H   0  0  0  0  0  0  0  0  0  0  0  0
    1.0921    1.6970   -2.0912 H   0  0  0  0  0  0  0  0  0  0  0  0
   -0.3698    2.3413    1.1174 N   0  0  0  0  0  0  0  0  0  0  0  0
   -0.0745    3.2692    2.1840 C   0  0  2  0  0  0  0  0  0  0  0  0
    0.8338    2.5641    3.1827 C   0  0  0  0  0  0  0  0  0  0  0  0
    0.7523    1.3632    3.4318 O   0  0  0  0  0  0  0  0  0  0  0  0
   -1.3461    3.7602    2.8582 C   0  0  0  0  0  0  0  0  0  0  0  0
   -0.4690    1.3593    1.3574 H   0  0  0  0  0  0  0  0  0  0  0  0
    0.4623    4.1103    1.7318 H   0  0  0  0  0  0  0  0  0  0  0  0
   -1.8975    2.9314    3.3170 H   0  0  0  0  0  0  0  0  0  0  0  0
   -1.1221    4.4853    3.6476 H   0  0  0  0  0  0  0  0  0  0  0  0
   -2.0114    4.2406    2.1327 H   0  0  0  0  0  0  0  0  0  0  0  0
    1.7173    3.4421    3.7949 N   0  0  0  0  0  0  0  0  0  0  0  0
    2.6537    3.0233    4.8116 C   0  0  0  0  0  0  0  0  0  0  0  0
    1.7429    4.4132    3.4981 H   0  0  0  0  0  0  0  0  0  0  0  0
    2.2020    3.1597    5.8053 H   0  0  0  0  0  0  0  0  0  0  0  0
    2.9036    1.9621    4.6651 H   0  0  0  0  0  0  0  0  0  0  0  0
    3.5690    3.6290    4.7388 H   0  0  0  0  0  0  0  0  0  0  0  0
  1  3  1  0  0  0  0
  1  7  1  0  0  0  0
  1  2  2  0  0  0  0
 23 25  1  0  0  0  0
 23 29  1  0  0  0  0
 23 24  2  0  0  0  0
 50 51  1  0  0  0  0
 51 59  1  0  0  0  0
 51 52  2  0  0  0  0
  8  9  1  0  0  0  0
  9 17  1  0  0  0  0
  9 10  2  0  0  0  0
 30 31  1  0  0  0  0
 31 39  1  0  0  0  0
 31 32  2  0  0  0  0
 40 41  1  0  0  0  0
 41 49  1  0  0  0  0
 41 42  2  0  0  0  0
 50 53  1  0  0  0  0
 30 33  1  0  0  0  0
 59 60  1  0  0  0  0
 17 18  1  0  0  0  0
  8 11  1  0  0  0  0
 11 12  1  0  0  0  0
 40 43  1  0  0  0  0
 43 44  1  0  0  0  0
 49 50  1  0  0  0  0
  7  8  1  0  0  0  0
 29 30  1  0  0  0  0
 39 40  1  0  0  0  0
 12 44  1  0  0  0  0
  3  4  1  0  0  0  0
  3  5  1  0  0  0  0
  3  6  1  0  0  0  0
 25 26  1  0  0  0  0
 25 27  1  0  0  0  0
 25 28  1  0  0  0  0
 53 56  1  0  0  0  0
 53 57  1  0  0  0  0
 53 58  1  0  0  0  0
 33 36  1  0  0  0  0
 33 37  1  0  0  0  0
 33 38  1  0  0  0  0
 60 62  1  0  0  0  0
 60 63  1  0  0  0  0
 60 64  1  0  0  0  0
 18 20  1  0  0  0  0
 18 21  1  0  0  0  0
 18 22  1  0  0  0  0
 11 15  1  0  0  0  0
 11 16  1  0  0  0  0
 43 47  1  0  0  0  0
 43 48  1  0  0  0  0
 50 55  1  0  0  0  0
  8 14  1  0  0  0  0
 30 35  1  0  0  0  0
 40 46  1  0  0  0  0
 59 61  1  0  0  0  0
 17 19  1  0  0  0  0
  7 13  1  0  0  0  0
 29 34  1  0  0  0  0
 49 54  1  0  0  0  0
 39 45  1  0  0  0  0
M  END
$$$$

  -OEChem-05262214473D

 64 63  0     1  0  0  0  0  0999 V2000
    0.6226   -0.1770   -9.0644 C   0  0  0  0  0  0  0  0  0  0  0  0
   -0.5388    0.0305   -9.3959 O   0  0  0  0  0  0  0  0  0  0  0  0
    1.3782   -1.3000   -9.6939 C   0  0  0  0  0  0  0  0  0  0  0  0
    1.2703   -2.2442   -9.1361 H   0  0  0  0  0  0  0  0  0  0  0  0
    1.0274   -1.5230  -10.7143 H   0  0  0  0  0  0  0  0  0  0  0  0
    2.4644   -1.1423   -9.7891 H   0  0  0  0  0  0  0  0  0  0  0  0
    1.3495    0.5431   -8.1322 N   0  0  0  0  0  0  0  0  0  0  0  0
    0.8133    1.6677   -7.4081 C   0  0  2  0  0  0  0  0  0  0  0  0
    1.9258    2.6910   -7.1895 C   0  0  0  0  0  0  0  0  0  0  0  0
    3.0981    2.4810   -7.4941 O   0  0  0  0  0  0  0  0  0  0  0  0
    0.1127    1.2469   -6.1138 C   0  0  0  0  0  0  0  0  0  0  0  0
    1.2218    0.4580   -4.9014 S   0  0  0  0  0  0  0  0  0  0  0  0
    2.3108    0.2643   -7.9489 H   0  0  0  0  0  0  0  0  0  0  0  0
    0.0719    2.1224   -8.0769 H   0  0  0  0  0  0  0  0  0  0  0  0
   -0.3438    2.1135   -5.6246 H   0  0  0  0  0  0  0  0  0  0  0  0
   -0.6882    0.5340   -6.3379 H   0  0  0  0  0  0  0  0  0  0  0  0
    1.4595    3.8538   -6.5926 N   0  0  0  0  0  0  0  0  0  0  0  0
    2.3258    4.9608   -6.2613 C   0  0  0  0  0  0  0  0  0  0  0  0
    0.4653    3.9601   -6.4140 H   0  0  0  0  0  0  0  0  0  0  0  0
    2.6759    4.8554   -5.2239 H   0  0  0  0  0  0  0  0  0  0  0  0
    3.1905    4.9658   -6.9412 H   0  0  0  0  0  0  0  0  0  0  0  0
    1.7710    5.9047   -6.3668 H   0  0  0  0  0  0  0  0  0  0  0  0
   -6.7256    2.0330   -0.2766 C   0  0  0  0  0  0  0  0  0  0  0  0
   -7.1824    1.1039   -0.9322 O   0  0  0  0  0  0  0  0  0  0  0  0
   -7.5276    2.6077    0.8435 C   0  0  0  0  0  0  0  0  0  0  0  0
   -8.1775    3.4344    0.5145 H   0  0  0  0  0  0  0  0  0  0  0  0
   -8.2057    1.8676    1.2980 H   0  0  0  0  0  0  0  0  0  0  0  0
   -6.9411    3.0162    1.6819 H   0  0  0  0  0  0  0  0  0  0  0  0
   -5.4935    2.6382   -0.4627 N   0  0  0  0  0  0  0  0  0  0  0  0
   -4.5619    2.2388   -1.4845 C   0  0  2  0  0  0  0  0  0  0  0  0
   -3.1535    2.4674   -0.9521 C   0  0  0  0  0  0  0  0  0  0  0  0
   -2.8634    3.3945   -0.1987 O   0  0  0  0  0  0  0  0  0  0  0  0
   -4.7883    3.0138   -2.7732 C   0  0  0  0  0  0  0  0  0  0  0  0
   -5.2337    3.4049    0.1551 H   0  0  0  0  0  0  0  0  0  0  0  0
   -4.7192    1.1682   -1.6549 H   0  0  0  0  0  0  0  0  0  0  0  0
   -4.6352    4.0886   -2.6221 H   0  0  0  0  0  0  0  0  0  0  0  0
   -4.0976    2.6887   -3.5582 H   0  0  0  0  0  0  0  0  0  0  0  0
   -5.8111    2.8719   -3.1387 H   0  0  0  0  0  0  0  0  0  0  0  0
   -2.2466    1.5400   -1.4507 N   0  0  0  0  0  0  0  0  0  0  0  0
   -0.8424    1.5707   -1.1286 C   0  0  2  0  0  0  0  0  0  0  0  0
   -0.5753    2.7482   -0.1932 C   0  0  0  0  0  0  0  0  0  0  0  0
   -0.7892    3.9167   -0.5097 O   0  0  0  0  0  0  0  0  0  0  0  0
    0.0420    1.5752   -2.3779 C   0  0  0  0  0  0  0  0  0  0  0  0
   -0.0785    0.0618   -3.3617 S   0  0  0  0  0  0  0  0  0  0  0  0
   -2.5850    0.7815   -2.0381 H   0  0  0  0  0  0  0  0  0  0  0  0
   -0.6492    0.6496   -0.5648 H   0  0  0  0  0  0  0  0  0  0  0  0
   -0.2211    2.4128   -3.0320 H   0  0  0  0  0  0  0  0  0  0  0  0
    1.0921    1.6970   -2.0912 H   0  0  0  0  0  0  0  0  0  0  0  0
   -0.0477    2.3422    1.0243 N   0  0  0  0  0  0  0  0  0  0  0  0
    0.3118    3.2743    2.0672 C   0  0  2  0  0  0  0  0  0  0  0  0
    1.5015    2.6980    2.8235 C   0  0  0  0  0  0  0  0  0  0  0  0
    1.6582    1.4930    3.0096 O   0  0  0  0  0  0  0  0  0  0  0  0
   -0.8564    3.5314    3.0063 C   0  0  0  0  0  0  0  0  0  0  0  0
    0.0563    1.3506    1.2184 H   0  0  0  0  0  0  0  0  0  0  0  0
    0.6095    4.2045    1.5712 H   0  0  0  0  0  0  0  0  0  0  0  0
   -1.1687    2.6107    3.5125 H   0  0  0  0  0  0  0  0  0  0  0  0
   -0.5910    4.2600    3.7795 H   0  0  0  0  0  0  0  0  0  0  0  0
   -1.7210    3.9179    2.4560 H   0  0  0  0  0  0  0  0  0  0  0  0
    2.3451    3.6900    3.3034 N   0  0  0  0  0  0  0  0  0  0  0  0
    3.5216    3.4001    4.0894 C   0  0  0  0  0  0  0  0  0  0  0  0
    2.1601    4.6605    3.0675 H   0  0  0  0  0  0  0  0  0  0  0  0
    3.2658    3.4319    5.1588 H   0  0  0  0  0  0  0  0  0  0  0  0
    3.8968    2.3986    3.8319 H   0  0  0  0  0  0  0  0  0  0  0  0
    4.2987    4.1488    3.8760 H   0  0  0  0  0  0  0  0  0  0  0  0
  1  3  1  0  0  0  0
  1  7  1  0  0  0  0
  1  2  2  0  0  0  0
 23 25  1  0  0  0  0
 23 29  1  0  0  0  0
 23 24  2  0  0  0  0
 50 51  1  0  0  0  0
 51 59  1  0  0  0  0
 51 52  2  0  0  0  0
  8  9  1  0  0  0  0
  9 17  1  0  0  0  0
  9 10  2  0  0  0  0
 30 31  1  0  0  0  0
 31 39  1  0  0  0  0
 31 32  2  0  0  0  0
 40 41  1  0  0  0  0
 41 49  1  0  0  0  0
 41 42  2  0  0  0  0
 50 53  1  0  0  0  0
 30 33  1  0  0  0  0
 59 60  1  0  0  0  0
 17 18  1  0  0  0  0
  8 11  1  0  0  0  0
 11 12  1  0  0  0  0
 40 43  1  0  0  0  0
 43 44  1  0  0  0  0
 49 50  1  0  0  0  0
  7  8  1  0  0  0  0
 29 30  1  0  0  0  0
 39 40  1  0  0  0  0
 12 44  1  0  0  0  0
  3  4  1  0  0  0  0
  3  5  1  0  0  0  0
  3  6  1  0  0  0  0
 25 26  1  0  0  0  0
 25 27  1  0  0  0  0
 25 28  1  0  0  0  0
 53 56  1  0  0  0  0
 53 57  1  0  0  0  0
 53 58  1  0  0  0  0
 33 36  1  0  0  0  0
 33 37  1  0  0  0  0
 33 38  1  0  0  0  0
 60 62  1  0  0  0  0
 60 63  1  0  0  0  0
 60 64  1  0  0  0  0
 18 20  1  0  0  0  0
 18 21  1  0  0  0  0
 18 22  1  0  0  0  0
 11 15  1  0  0  0  0
 11 16  1  0  0  0  0
 43 47  1  0  0  0  0
 43 48  1  0  0  0  0
 50 55  1  0  0  0  0
  8 14  1  0  0  0  0
 30 35  1  0  0  0  0
 40 46  1  0  0  0  0
 59 61  1  0  0  0  0
 17 19  1  0  0  0  0
  7 13  1  0  0  0  0
 29 34  1  0  0  0  0
 49 54  1  0  0  0  0
 39 45  1  0  0  0  0
M  END
$$$$

  -OEChem-05262214473D

 64 63  0     1  0  0  0  0  0999 V2000
    0.6226   -0.1770   -9.0644 C   0  0  0  0  0  0  0  0  0  0  0  0
   -0.5388    0.0305   -9.3959 O   0  0  0  0  0  0  0  0  0  0  0  0
    1.3782   -1.3000   -9.6939 C   0  0  0  0  0  0  0  0  0  0  0  0
    1.2703   -2.2442   -9.1361 H   0  0  0  0  0  0  0  0  0  0  0  0
    1.0274   -1.5230  -10.7143 H   0  0  0  0  0  0  0  0  0  0  0  0
    2.4644   -1.1423   -9.7891 H   0  0  0  0  0  0  0  0  0  0  0  0
    1.3495    0.5431   -8.1322 N   0  0  0  0  0  0  0  0  0  0  0  0
    0.8133    1.6677   -7.4081 C   0  0  2  0  0  0  0  0  0  0  0  0
    1.9258    2.6910   -7.1895 C   0  0  0  0  0  0  0  0  0  0  0  0
    3.0981    2.4810   -7.4941 O   0  0  0  0  0  0  0  0  0  0  0  0
    0.1127    1.2469   -6.1138 C   0  0  0  0  0  0  0  0  0  0  0  0
    1.2218    0.4580   -4.9014 S   0  0  0  0  0  0  0  0  0  0  0  0
    2.3108    0.2643   -7.9489 H   0  0  0  0  0  0  0  0  0  0  0  0
    0.0719    2.1224   -8.0769 H   0  0  0  0  0  0  0  0  0  0  0  0
   -0.3438    2.1135   -5.6246 H   0  0  0  0  0  0  0  0  0  0  0  0
   -0.6882    0.5340   -6.3379 H   0  0  0  0  0  0  0  0  0  0  0  0
    1.4595    3.8538   -6.5926 N   0  0  0  0  0  0  0  0  0  0  0  0
    2.3258    4.9608   -6.2613 C   0  0  0  0  0  0  0  0  0  0  0  0
    0.4653    3.9601   -6.4140 H   0  0  0  0  0  0  0  0  0  0  0  0
    2.6759    4.8554   -5.2239 H   0  0  0  0  0  0  0  0  0  0  0  0
    3.1905    4.9658   -6.9412 H   0  0  0  0  0  0  0  0  0  0  0  0
    1.7710    5.9047   -6.3668 H   0  0  0  0  0  0  0  0  0  0  0  0
   -6.7256    2.0330   -0.2766 C   0  0  0  0  0  0  0  0  0  0  0  0
   -7.1824    1.1039   -0.9322 O   0  0  0  0  0  0  0  0  0  0  0  0
   -7.5276    2.6077    0.8435 C   0  0  0  0  0  0  0  0  0  0  0  0
   -8.1775    3.4344    0.5145 H   0  0  0  0  0  0  0  0  0  0  0  0
   -8.2057    1.8676    1.2980 H   0  0  0  0  0  0  0  0  0  0  0  0
   -6.9411    3.0162    1.6819 H   0  0  0  0  0  0  0  0  0  0  0  0
   -5.4935    2.6382   -0.4627 N   0  0  0  0  0  0  0  0  0  0  0  0
   -4.5619    2.2388   -1.4845 C   0  0  2  0  0  0  0  0  0  0  0  0
   -3.1535    2.4674   -0.9521 C   0  0  0  0  0  0  0  0  0  0  0  0
   -2.8634    3.3945   -0.1987 O   0  0  0  0  0  0  0  0  0  0  0  0
   -4.7883    3.0138   -2.7732 C   0  0  0  0  0  0  0  0  0  0  0  0
   -5.2337    3.4049    0.1551 H   0  0  0  0  0  0  0  0  0  0  0  0
   -4.7192    1.1682   -1.6549 H   0  0  0  0  0  0  0  0  0  0  0  0
   -4.6352    4.0886   -2.6221 H   0  0  0  0  0  0  0  0  0  0  0  0
   -4.0976    2.6887   -3.5582 H   0  0  0  0  0  0  0  0  0  0  0  0
   -5.8111    2.8719   -3.1387 H   0  0  0  0  0  0  0  0  0  0  0  0
   -2.2466    1.5400   -1.4507 N   0  0  0  0  0  0  0  0  0  0  0  0
   -0.8424    1.5707   -1.1286 C   0  0  2  0  0  0  0  0  0  0  0  0
   -0.5753    2.7482   -0.1932 C   0  0  0  0  0  0  0  0  0  0  0  0
   -1.0263    3.8749   -0.3894 O   0  0  0  0  0  0  0  0  0  0  0  0
    0.0420    1.5752   -2.3779 C   0  0  0  0  0  0  0  0  0  0  0  0
   -0.0785    0.0618   -3.3617 S   0  0  0  0  0  0  0  0  0  0  0  0
   -2.5850    0.7815   -2.0381 H   0  0  0  0  0  0  0  0  0  0  0  0
   -0.6492    0.6496   -0.5648 H   0  0  0  0  0  0  0  0  0  0  0  0
   -0.2211    2.4128   -3.0320 H   0  0  0  0  0  0  0  0  0  0  0  0
    1.0921    1.6970   -2.0912 H   0  0  0  0  0  0  0  0  0  0  0  0
    0.2448    2.3983    0.8701 N   0  0  0  0  0  0  0  0  0  0  0  0
    0.6608    3.3457    1.8776 C   0  0  2  0  0  0  0  0  0  0  0  0
    2.0536    2.9493    2.3494 C   0  0  0  0  0  0  0  0  0  0  0  0
    2.4284    1.7812    2.4268 O   0  0  0  0  0  0  0  0  0  0  0  0
   -0.3175    3.3814    3.0413 C   0  0  0  0  0  0  0  0  0  0  0  0
    0.5374    1.4317    0.9788 H   0  0  0  0  0  0  0  0  0  0  0  0
    0.7048    4.3261    1.3909 H   0  0  0  0  0  0  0  0  0  0  0  0
   -0.3750    2.4077    3.5414 H   0  0  0  0  0  0  0  0  0  0  0  0
   -0.0159    4.1205    3.7908 H   0  0  0  0  0  0  0  0  0  0  0  0
   -1.3249    3.6375    2.6958 H   0  0  0  0  0  0  0  0  0  0  0  0
    2.8142    4.0512    2.7147 N   0  0  0  0  0  0  0  0  0  0  0  0
    4.1561    3.9342    3.2357 C   0  0  0  0  0  0  0  0  0  0  0  0
    2.4380    4.9850    2.5796 H   0  0  0  0  0  0  0  0  0  0  0  0
    4.1211    3.8927    4.3344 H   0  0  0  0  0  0  0  0  0  0  0  0
    4.6207    3.0153    2.8488 H   0  0  0  0  0  0  0  0  0  0  0  0
    4.7490    4.8056    2.9206 H   0  0  0  0  0  0  0  0  0  0  0  0
  1  3  1  0  0  0  0
  1  7  1  0  0  0  0
  1  2  2  0  0  0  0
 23 25  1  0  0  0  0
 23 29  1  0  0  0  0
 23 24  2  0  0  0  0
 50 51  1  0  0  0  0
 51 59  1  0  0  0  0
 51 52  2  0  0  0  0
  8  9  1  0  0  0  0
  9 17  1  0  0  0  0
  9 10  2  0  0  0  0
 30 31  1  0  0  0  0
 31 39  1  0  0  0  0
 31 32  2  0  0  0  0
 40 41  1  0  0  0  0
 41 49  1  0  0  0  0
 41 42  2  0  0  0  0
 50 53  1  0  0  0  0
 30 33  1  0  0  0  0
 59 60  1  0  0  0  0
 17 18  1  0  0  0  0
  8 11  1  0  0  0  0
 11 12  1  0  0  0  0
 40 43  1  0  0  0  0
 43 44  1  0  0  0  0
 49 50  1  0  0  0  0
  7  8  1  0  0  0  0
 29 30  1  0  0  0  0
 39 40  1  0  0  0  0
 12 44  1  0  0  0  0
  3  4  1  0  0  0  0
  3  5  1  0  0  0  0
  3  6  1  0  0  0  0
 25 26  1  0  0  0  0
 25 27  1  0  0  0  0
 25 28  1  0  0  0  0
 53 56  1  0  0  0  0
 53 57  1  0  0  0  0
 53 58  1  0  0  0  0
 33 36  1  0  0  0  0
 33 37  1  0  0  0  0
 33 38  1  0  0  0  0
 60 62  1  0  0  0  0
 60 63  1  0  0  0  0
 60 64  1  0  0  0  0
 18 20  1  0  0  0  0
 18 21  1  0  0  0  0
 18 22  1  0  0  0  0
 11 15  1  0  0  0  0
 11 16  1  0  0  0  0
 43 47  1  0  0  0  0
 43 48  1  0  0  0  0
 50 55  1  0  0  0  0
  8 14  1  0  0  0  0
 30 35  1  0  0  0  0
 40 46  1  0  0  0  0
 59 61  1  0  0  0  0
 17 19  1  0  0  0  0
  7 13  1  0  0  0  0
 29 34  1  0  0  0  0
 49 54  1  0  0  0  0
 39 45  1  0  0  0  0
M  END
$$$$

  -OEChem-05262214473D

 64 63  0     1  0  0  0  0  0999 V2000
    0.6226   -0.1770   -9.0644 C   0  0  0  0  0  0  0  0  0  0  0  0
   -0.5388    0.0305   -9.3959 O   0  0  0  0  0  0  0  0  0  0  0  0
    1.3782   -1.3000   -9.6939 C   0  0  0  0  0  0  0  0  0  0  0  0
    1.2703   -2.2442   -9.1361 H   0  0  0  0  0  0  0  0  0  0  0  0
    1.0274   -1.5230  -10.7143 H   0  0  0  0  0  0  0  0  0  0  0  0
    2.4644   -1.1423   -9.7891 H   0  0  0  0  0  0  0  0  0  0  0  0
    1.3495    0.5431   -8.1322 N   0  0  0  0  0  0  0  0  0  0  0  0
    0.8133    1.6677   -7.4081 C   0  0  2  0  0  0  0  0  0  0  0  0
    1.9258    2.6910   -7.1895 C   0  0  0  0  0  0  0  0  0  0  0  0
    3.0981    2.4810   -7.4941 O   0  0  0  0  0  0  0  0  0  0  0  0
    0.1127    1.2469   -6.1138 C   0  0  0  0  0  0  0  0  0  0  0  0
    1.2218    0.4580   -4.9014 S   0  0  0  0  0  0  0  0  0  0  0  0
    2.3108    0.2643   -7.9489 H   0  0  0  0  0  0  0  0  0  0  0  0
    0.0719    2.1224   -8.0769 H   0  0  0  0  0  0  0  0  0  0  0  0
   -0.3438    2.1135   -5.6246 H   0  0  0  0  0  0  0  0  0  0  0  0
   -0.6882    0.5340   -6.3379 H   0  0  0  0  0  0  0  0  0  0  0  0
    1.4595    3.8538   -6.5926 N   0  0  0  0  0  0  0  0  0  0  0  0
    2.3258    4.9608   -6.2613 C   0  0  0  0  0  0  0  0  0  0  0  0
    0.4653    3.9601   -6.4140 H   0  0  0  0  0  0  0  0  0  0  0  0
    2.6759    4.8554   -5.2239 H   0  0  0  0  0  0  0  0  0  0  0  0
    3.1905    4.9658   -6.9412 H   0  0  0  0  0  0  0  0  0  0  0  0
    1.7710    5.9047   -6.3668 H   0  0  0  0  0  0  0  0  0  0  0  0
   -6.7256    2.0330   -0.2766 C   0  0  0  0  0  0  0  0  0  0  0  0
   -7.1824    1.1039   -0.9322 O   0  0  0  0  0  0  0  0  0  0  0  0
   -7.5276    2.6077    0.8435 C   0  0  0  0  0  0  0  0  0  0  0  0
   -8.1775    3.4344    0.5145 H   0  0  0  0  0  0  0  0  0  0  0  0
   -8.2057    1.8676    1.2980 H   0  0  0  0  0  0  0  0  0  0  0  0
   -6.9411    3.0162    1.6819 H   0  0  0  0  0  0  0  0  0  0  0  0
   -5.4935    2.6382   -0.4627 N   0  0  0  0  0  0  0  0  0  0  0  0
   -4.5619    2.2388   -1.4845 C   0  0  2  0  0  0  0  0  0  0  0  0
   -3.1535    2.4674   -0.9521 C   0  0  0  0  0  0  0  0  0  0  0  0
   -2.8634    3.3945   -0.1987 O   0  0  0  0  0  0  0  0  0  0  0  0
   -4.7883    3.0138   -2.7732 C   0  0  0  0  0  0  0  0  0  0  0  0
   -5.2337    3.4049    0.1551 H   0  0  0  0  0  0  0  0  0  0  0  0
   -4.7192    1.1682   -1.6549 H   0  0  0  0  0  0  0  0  0  0  0  0
   -4.6352    4.0886   -2.6221 H   0  0  0  0  0  0  0  0  0  0  0  0
   -4.0976    2.6887   -3.5582 H   0  0  0  0  0  0  0  0  0  0  0  0
   -5.8111    2.8719   -3.1387 H   0  0  0  0  0  0  0  0  0  0  0  0
   -2.2466    1.5400   -1.4507 N   0  0  0  0  0  0  0  0  0  0  0  0
   -0.8424    1.5707   -1.1286 C   0  0  2  0  0  0  0  0  0  0  0  0
   -0.5753    2.7482   -0.1932 C   0  0  0  0  0  0  0  0  0  0  0  0
   -1.2246    3.7915   -0.2277 O   0  0  0  0  0  0  0  0  0  0  0  0
    0.0420    1.5752   -2.3779 C   0  0  0  0  0  0  0  0  0  0  0  0
   -0.0785    0.0618   -3.3617 S   0  0  0  0  0  0  0  0  0  0  0  0
   -2.5850    0.7815   -2.0381 H   0  0  0  0  0  0  0  0  0  0  0  0
   -0.6492    0.6496   -0.5648 H   0  0  0  0  0  0  0  0  0  0  0  0
   -0.2211    2.4128   -3.0320 H   0  0  0  0  0  0  0  0  0  0  0  0
    1.0921    1.6970   -2.0912 H   0  0  0  0  0  0  0  0  0  0  0  0
    0.4876    2.5058    0.6654 N   0  0  0  0  0  0  0  0  0  0  0  0
    0.9488    3.4786    1.6281 C   0  0  2  0  0  0  0  0  0  0  0  0
    2.4525    3.3011    1.7926 C   0  0  0  0  0  0  0  0  0  0  0  0
    3.0104    2.2079    1.7233 O   0  0  0  0  0  0  0  0  0  0  0  0
    0.2337    3.3202    2.9608 C   0  0  0  0  0  0  0  0  0  0  0  0
    0.9414    1.5972    0.6551 H   0  0  0  0  0  0  0  0  0  0  0  0
    0.7415    4.4669    1.2033 H   0  0  0  0  0  0  0  0  0  0  0  0
    0.4296    2.3360    3.4018 H   0  0  0  0  0  0  0  0  0  0  0  0
    0.5639    4.0765    3.6806 H   0  0  0  0  0  0  0  0  0  0  0  0
   -0.8500    3.4186    2.8357 H   0  0  0  0  0  0  0  0  0  0  0  0
    3.0925    4.5012    2.0688 N   0  0  0  0  0  0  0  0  0  0  0  0
    4.5140    4.5894    2.3087 C   0  0  0  0  0  0  0  0  0  0  0  0
    2.5576    5.3646    2.0676 H   0  0  0  0  0  0  0  0  0  0  0  0
    4.7098    4.5106    3.3882 H   0  0  0  0  0  0  0  0  0  0  0  0
    5.0261    3.7703    1.7825 H   0  0  0  0  0  0  0  0  0  0  0  0
    4.8892    5.5546    1.9376 H   0  0  0  0  0  0  0  0  0  0  0  0
  1  3  1  0  0  0  0
  1  7  1  0  0  0  0
  1  2  2  0  0  0  0
 23 25  1  0  0  0  0
 23 29  1  0  0  0  0
 23 24  2  0  0  0  0
 50 51  1  0  0  0  0
 51 59  1  0  0  0  0
 51 52  2  0  0  0  0
  8  9  1  0  0  0  0
  9 17  1  0  0  0  0
  9 10  2  0  0  0  0
 30 31  1  0  0  0  0
 31 39  1  0  0  0  0
 31 32  2  0  0  0  0
 40 41  1  0  0  0  0
 41 49  1  0  0  0  0
 41 42  2  0  0  0  0
 50 53  1  0  0  0  0
 30 33  1  0  0  0  0
 59 60  1  0  0  0  0
 17 18  1  0  0  0  0
  8 11  1  0  0  0  0
 11 12  1  0  0  0  0
 40 43  1  0  0  0  0
 43 44  1  0  0  0  0
 49 50  1  0  0  0  0
  7  8  1  0  0  0  0
 29 30  1  0  0  0  0
 39 40  1  0  0  0  0
 12 44  1  0  0  0  0
  3  4  1  0  0  0  0
  3  5  1  0  0  0  0
  3  6  1  0  0  0  0
 25 26  1  0  0  0  0
 25 27  1  0  0  0  0
 25 28  1  0  0  0  0
 53 56  1  0  0  0  0
 53 57  1  0  0  0  0
 53 58  1  0  0  0  0
 33 36  1  0  0  0  0
 33 37  1  0  0  0  0
 33 38  1  0  0  0  0
 60 62  1  0  0  0  0
 60 63  1  0  0  0  0
 60 64  1  0  0  0  0
 18 20  1  0  0  0  0
 18 21  1  0  0  0  0
 18 22  1  0  0  0  0
 11 15  1  0  0  0  0
 11 16  1  0  0  0  0
 43 47  1  0  0  0  0
 43 48  1  0  0  0  0
 50 55  1  0  0  0  0
  8 14  1  0  0  0  0
 30 35  1  0  0  0  0
 40 46  1  0  0  0  0
 59 61  1  0  0  0  0
 17 19  1  0  0  0  0
  7 13  1  0  0  0  0
 29 34  1  0  0  0  0
 49 54  1  0  0  0  0
 39 45  1  0  0  0  0
M  END
$$$$

  -OEChem-05262214473D

 64 63  0     1  0  0  0  0  0999 V2000
    0.6226   -0.1770   -9.0644 C   0  0  0  0  0  0  0  0  0  0  0  0
   -0.5388    0.0305   -9.3959 O   0  0  0  0  0  0  0  0  0  0  0  0
    1.3782   -1.3000   -9.6939 C   0  0  0  0  0  0  0  0  0  0  0  0
    1.2703   -2.2442   -9.1361 H   0  0  0  0  0  0  0  0  0  0  0  0
    1.0274   -1.5230  -10.7143 H   0  0  0  0  0  0  0  0  0  0  0  0
    2.4644   -1.1423   -9.7891 H   0  0  0  0  0  0  0  0  0  0  0  0
    1.3495    0.5431   -8.1322 N   0  0  0  0  0  0  0  0  0  0  0  0
    0.8133    1.6677   -7.4081 C   0  0  2  0  0  0  0  0  0  0  0  0
    1.9258    2.6910   -7.1895 C   0  0  0  0  0  0  0  0  0  0  0  0
    3.0981    2.4810   -7.4941 O   0  0  0  0  0  0  0  0  0  0  0  0
    0.1127    1.2469   -6.1138 C   0  0  0  0  0  0  0  0  0  0  0  0
    1.2218    0.4580   -4.9014 S   0  0  0  0  0  0  0  0  0  0  0  0
    2.3108    0.2643   -7.9489 H   0  0  0  0  0  0  0  0  0  0  0  0
    0.0719    2.1224   -8.0769 H   0  0  0  0  0  0  0  0  0  0  0  0
   -0.3438    2.1135   -5.6246 H   0  0  0  0  0  0  0  0  0  0  0  0
   -0.6882    0.5340   -6.3379 H   0  0  0  0  0  0  0  0  0  0  0  0
    1.4595    3.8538   -6.5926 N   0  0  0  0  0  0  0  0  0  0  0  0
    2.3258    4.9608   -6.2613 C   0  0  0  0  0  0  0  0  0  0  0  0
    0.4653    3.9601   -6.4140 H   0  0  0  0  0  0  0  0  0  0  0  0
    2.6759    4.8554   -5.2239 H   0  0  0  0  0  0  0  0  0  0  0  0
    3.1905    4.9658   -6.9412 H   0  0  0  0  0  0  0  0  0  0  0  0
    1.7710    5.9047   -6.3668 H   0  0  0  0  0  0  0  0  0  0  0  0
   -6.7256    2.0330   -0.2766 C   0  0  0  0  0  0  0  0  0  0  0  0
   -7.1824    1.1039   -0.9322 O   0  0  0  0  0  0  0  0  0  0  0  0
   -7.5276    2.6077    0.8435 C   0  0  0  0  0  0  0  0  0  0  0  0
   -8.1775    3.4344    0.5145 H   0  0  0  0  0  0  0  0  0  0  0  0
   -8.2057    1.8676    1.2980 H   0  0  0  0  0  0  0  0  0  0  0  0
   -6.9411    3.0162    1.6819 H   0  0  0  0  0  0  0  0  0  0  0  0
   -5.4935    2.6382   -0.4627 N   0  0  0  0  0  0  0  0  0  0  0  0
   -4.5619    2.2388   -1.4845 C   0  0  2  0  0  0  0  0  0  0  0  0
   -3.1535    2.4674   -0.9521 C   0  0  0  0  0  0  0  0  0  0  0  0
   -2.8634    3.3945   -0.1987 O   0  0  0  0  0  0  0  0  0  0  0  0
   -4.7883    3.0138   -2.7732 C   0  0  0  0  0  0  0  0  0  0  0  0
   -5.2337    3.4049    0.1551 H   0  0  0  0  0  0  0  0  0  0  0  0
   -4.7192    1.1682   -1.6549 H   0  0  0  0  0  0  0  0  0  0  0  0
   -4.6352    4.0886   -2.6221 H   0  0  0  0  0  0  0  0  0  0  0  0
   -4.0976    2.6887   -3.5582 H   0  0  0  0  0  0  0  0  0  0  0  0
   -5.8111    2.8719   -3.1387 H   0  0  0  0  0  0  0  0  0  0  0  0
   -2.2466    1.5400   -1.4507 N   0  0  0  0  0  0  0  0  0  0  0  0
   -0.8424    1.5707   -1.1286 C   0  0  2  0  0  0  0  0  0  0  0  0
   -0.5753    2.7482   -0.1932 C   0  0  0  0  0  0  0  0  0  0  0  0
   -1.3708    3.6722   -0.0358 O   0  0  0  0  0  0  0  0  0  0  0  0
    0.0420    1.5752   -2.3779 C   0  0  0  0  0  0  0  0  0  0  0  0
   -0.0785    0.0618   -3.3617 S   0  0  0  0  0  0  0  0  0  0  0  0
   -2.5850    0.7815   -2.0381 H   0  0  0  0  0  0  0  0  0  0  0  0
   -0.6492    0.6496   -0.5648 H   0  0  0  0  0  0  0  0  0  0  0  0
   -0.2211    2.4128   -3.0320 H   0  0  0  0  0  0  0  0  0  0  0  0
    1.0921    1.6970   -2.0912 H   0  0  0  0  0  0  0  0  0  0  0  0
    0.6642    2.6575    0.4240 N   0  0  0  0  0  0  0  0  0  0  0  0
    1.1561    3.6639    1.3355 C   0  0  2  0  0  0  0  0  0  0  0  0
    2.6708    3.7293    1.1912 C   0  0  0  0  0  0  0  0  0  0  0  0
    3.3645    2.7443    0.9470 O   0  0  0  0  0  0  0  0  0  0  0  0
    0.7598    3.3522    2.7703 C   0  0  0  0  0  0  0  0  0  0  0  0
    1.2408    1.8357    0.2694 H   0  0  0  0  0  0  0  0  0  0  0  0
    0.7172    4.6171    1.0210 H   0  0  0  0  0  0  0  0  0  0  0  0
    1.1903    2.4007    3.1031 H   0  0  0  0  0  0  0  0  0  0  0  0
    1.1089    4.1309    3.4565 H   0  0  0  0  0  0  0  0  0  0  0  0
   -0.3287    3.2762    2.8662 H   0  0  0  0  0  0  0  0  0  0  0  0
    3.1612    5.0091    1.4097 N   0  0  0  0  0  0  0  0  0  0  0  0
    4.5709    5.3210    1.3714 C   0  0  0  0  0  0  0  0  0  0  0  0
    2.5108    5.7734    1.5663 H   0  0  0  0  0  0  0  0  0  0  0  0
    4.9917    5.2437    2.3848 H   0  0  0  0  0  0  0  0  0  0  0  0
    5.0852    4.6120    0.7060 H   0  0  0  0  0  0  0  0  0  0  0  0
    4.7097    6.3448    0.9940 H   0  0  0  0  0  0  0  0  0  0  0  0
  1  3  1  0  0  0  0
  1  7  1  0  0  0  0
  1  2  2  0  0  0  0
 23 25  1  0  0  0  0
 23 29  1  0  0  0  0
 23 24  2  0  0  0  0
 50 51  1  0  0  0  0
 51 59  1  0  0  0  0
 51 52  2  0  0  0  0
  8  9  1  0  0  0  0
  9 17  1  0  0  0  0
  9 10  2  0  0  0  0
 30 31  1  0  0  0  0
 31 39  1  0  0  0  0
 31 32  2  0  0  0  0
 40 41  1  0  0  0  0
 41 49  1  0  0  0  0
 41 42  2  0  0  0  0
 50 53  1  0  0  0  0
 30 33  1  0  0  0  0
 59 60  1  0  0  0  0
 17 18  1  0  0  0  0
  8 11  1  0  0  0  0
 11 12  1  0  0  0  0
 40 43  1  0  0  0  0
 43 44  1  0  0  0  0
 49 50  1  0  0  0  0
  7  8  1  0  0  0  0
 29 30  1  0  0  0  0
 39 40  1  0  0  0  0
 12 44  1  0  0  0  0
  3  4  1  0  0  0  0
  3  5  1  0  0  0  0
  3  6  1  0  0  0  0
 25 26  1  0  0  0  0
 25 27  1  0  0  0  0
 25 28  1  0  0  0  0
 53 56  1  0  0  0  0
 53 57  1  0  0  0  0
 53 58  1  0  0  0  0
 33 36  1  0  0  0  0
 33 37  1  0  0  0  0
 33 38  1  0  0  0  0
 60 62  1  0  0  0  0
 60 63  1  0  0  0  0
 60 64  1  0  0  0  0
 18 20  1  0  0  0  0
 18 21  1  0  0  0  0
 18 22  1  0  0  0  0
 11 15  1  0  0  0  0
 11 16  1  0  0  0  0
 43 47  1  0  0  0  0
 43 48  1  0  0  0  0
 50 55  1  0  0  0  0
  8 14  1  0  0  0  0
 30 35  1  0  0  0  0
 40 46  1  0  0  0  0
 59 61  1  0  0  0  0
 17 19  1  0  0  0  0
  7 13  1  0  0  0  0
 29 34  1  0  0  0  0
 49 54  1  0  0  0  0
 39 45  1  0  0  0  0
M  END
$$$$

  -OEChem-05262214473D

 64 63  0     1  0  0  0  0  0999 V2000
    0.6173    1.9685   -9.2458 C   0  0  0  0  0  0  0  0  0  0  0  0
   -0.5582    2.1845   -9.5164 O   0  0  0  0  0  0  0  0  0  0  0  0
    1.4276    1.0867  -10.1368 C   0  0  0  0  0  0  0  0  0  0  0  0
    1.3811    0.0278   -9.8357 H   0  0  0  0  0  0  0  0  0  0  0  0
    1.0770    1.1079  -11.1812 H   0  0  0  0  0  0  0  0  0  0  0  0
    2.5017    1.3267  -10.1871 H   0  0  0  0  0  0  0  0  0  0  0  0
    1.3139    2.4717   -8.1606 N   0  0  0  0  0  0  0  0  0  0  0  0
    0.7237    3.3441   -7.1772 C   0  0  2  0  0  0  0  0  0  0  0  0
    1.7786    4.3426   -6.7053 C   0  0  0  0  0  0  0  0  0  0  0  0
    2.9570    4.2852   -7.0508 O   0  0  0  0  0  0  0  0  0  0  0  0
    0.0651    2.5704   -6.0324 C   0  0  0  0  0  0  0  0  0  0  0  0
    1.2330    1.5677   -5.0561 S   0  0  0  0  0  0  0  0  0  0  0  0
    2.2918    2.2125   -8.0518 H   0  0  0  0  0  0  0  0  0  0  0  0
   -0.0510    3.9084   -7.7110 H   0  0  0  0  0  0  0  0  0  0  0  0
   -0.4338    3.2574   -5.3412 H   0  0  0  0  0  0  0  0  0  0  0  0
   -0.6966    1.8913   -6.4306 H   0  0  0  0  0  0  0  0  0  0  0  0
    1.2544    5.2880   -5.8352 N   0  0  0  0  0  0  0  0  0  0  0  0
    2.0602    6.3246   -5.2336 C   0  0  0  0  0  0  0  0  0  0  0  0
    0.2581    5.2874   -5.6374 H   0  0  0  0  0  0  0  0  0  0  0  0
    2.4292    5.9818   -4.2556 H   0  0  0  0  0  0  0  0  0  0  0  0
    2.9143    6.5514   -5.8886 H   0  0  0  0  0  0  0  0  0  0  0  0
    1.4510    7.2305   -5.0984 H   0  0  0  0  0  0  0  0  0  0  0  0
   -6.7256    2.0330   -0.2766 C   0  0  0  0  0  0  0  0  0  0  0  0
   -7.1824    1.1039   -0.9322 O   0  0  0  0  0  0  0  0  0  0  0  0
   -7.5276    2.6077    0.8435 C   0  0  0  0  0  0  0  0  0  0  0  0
   -8.1775    3.4344    0.5145 H   0  0  0  0  0  0  0  0  0  0  0  0
   -8.2057    1.8676    1.2980 H   0  0  0  0  0  0  0  0  0  0  0  0
   -6.9411    3.0162    1.6819 H   0  0  0  0  0  0  0  0  0  0  0  0
   -5.4935    2.6382   -0.4627 N   0  0  0  0  0  0  0  0  0  0  0  0
   -4.5619    2.2388   -1.4845 C   0  0  2  0  0  0  0  0  0  0  0  0
   -3.1535    2.4674   -0.9521 C   0  0  0  0  0  0  0  0  0  0  0  0
   -2.8634    3.3945   -0.1987 O   0  0  0  0  0  0  0  0  0  0  0  0
   -4.7883    3.0138   -2.7732 C   0  0  0  0  0  0  0  0  0  0  0  0
   -5.2337    3.4049    0.1551 H   0  0  0  0  0  0  0  0  0  0  0  0
   -4.7192    1.1682   -1.6549 H   0  0  0  0  0  0  0  0  0  0  0  0
   -4.6352    4.0886   -2.6221 H   0  0  0  0  0  0  0  0  0  0  0  0
   -4.0976    2.6887   -3.5582 H   0  0  0  0  0  0  0  0  0  0  0  0
   -5.8111    2.8719   -3.1387 H   0  0  0  0  0  0  0  0  0  0  0  0
   -2.2466    1.5400   -1.4507 N   0  0  0  0  0  0  0  0  0  0  0  0
   -0.8424    1.5707   -1.1286 C   0  0  2  0  0  0  0  0  0  0  0  0
   -0.6309    2.4880    0.0742 C   0  0  0  0  0  0  0  0  0  0  0  0
   -1.5485    3.0945    0.6233 O   0  0  0  0  0  0  0  0  0  0  0  0
    0.0240    1.9417   -2.3346 C   0  0  0  0  0  0  0  0  0  0  0  0
   -0.0225    0.7208   -3.6688 S   0  0  0  0  0  0  0  0  0  0  0  0
   -2.5850    0.7815   -2.0381 H   0  0  0  0  0  0  0  0  0  0  0  0
   -0.5896    0.5502   -0.8151 H   0  0  0  0  0  0  0  0  0  0  0  0
   -0.2949    2.9003   -2.7567 H   0  0  0  0  0  0  0  0  0  0  0  0
    1.0691    2.0486   -2.0245 H   0  0  0  0  0  0  0  0  0  0  0  0
    0.7039    2.5681    0.4448 N   0  0  0  0  0  0  0  0  0  0  0  0
    1.1603    3.3922    1.5396 C   0  0  2  0  0  0  0  0  0  0  0  0
    2.5595    3.8900    1.2020 C   0  0  0  0  0  0  0  0  0  0  0  0
    3.3739    3.2228    0.5675 O   0  0  0  0  0  0  0  0  0  0  0  0
    1.1592    2.6211    2.8504 C   0  0  0  0  0  0  0  0  0  0  0  0
    1.3920    1.9981   -0.0381 H   0  0  0  0  0  0  0  0  0  0  0  0
    0.4741    4.2438    1.6018 H   0  0  0  0  0  0  0  0  0  0  0  0
    1.8410    1.7639    2.8071 H   0  0  0  0  0  0  0  0  0  0  0  0
    1.4782    3.2554    3.6841 H   0  0  0  0  0  0  0  0  0  0  0  0
    0.1582    2.2384    3.0766 H   0  0  0  0  0  0  0  0  0  0  0  0
    2.8067    5.1496    1.7297 N   0  0  0  0  0  0  0  0  0  0  0  0
    4.0773    5.8206    1.5832 C   0  0  0  0  0  0  0  0  0  0  0  0
    2.0607    5.6463    2.2077 H   0  0  0  0  0  0  0  0  0  0  0  0
    4.7147    5.5933    2.4504 H   0  0  0  0  0  0  0  0  0  0  0  0
    4.5714    5.4731    0.6640 H   0  0  0  0  0  0  0  0  0  0  0  0
    3.9134    6.9067    1.5234 H   0  0  0  0  0  0  0  0  0  0  0  0
  1  3  1  0  0  0  0
  1  7  1  0  0  0  0
  1  2  2  0  0  0  0
 23 25  1  0  0  0  0
 23 29  1  0  0  0  0
 23 24  2  0  0  0  0
 50 51  1  0  0  0  0
 51 59  1  0  0  0  0
 51 52  2  0  0  0  0
  8  9  1  0  0  0  0
  9 17  1  0  0  0  0
  9 10  2  0  0  0  0
 30 31  1  0  0  0  0
 31 39  1  0  0  0  0
 31 32  2  0  0  0  0
 40 41  1  0  0  0  0
 41 49  1  0  0  0  0
 41 42  2  0  0  0  0
 50 53  1  0  0  0  0
 30 33  1  0  0  0  0
 59 60  1  0  0  0  0
 17 18  1  0  0  0  0
  8 11  1  0  0  0  0
 11 12  1  0  0  0  0
 40 43  1  0  0  0  0
 43 44  1  0  0  0  0
 49 50  1  0  0  0  0
  7  8  1  0  0  0  0
 29 30  1  0  0  0  0
 39 40  1  0  0  0  0
 12 44  1  0  0  0  0
  3  4  1  0  0  0  0
  3  5  1  0  0  0  0
  3  6  1  0  0  0  0
 25 26  1  0  0  0  0
 25 27  1  0  0  0  0
 25 28  1  0  0  0  0
 53 56  1  0  0  0  0
 53 57  1  0  0  0  0
 53 58  1  0  0  0  0
 33 36  1  0  0  0  0
 33 37  1  0  0  0  0
 33 38  1  0  0  0  0
 60 62  1  0  0  0  0
 60 63  1  0  0  0  0
 60 64  1  0  0  0  0
 18 20  1  0  0  0  0
 18 21  1  0  0  0  0
 18 22  1  0  0  0  0
 11 15  1  0  0  0  0
 11 16  1  0  0  0  0
 43 47  1  0  0  0  0
 43 48  1  0  0  0  0
 50 55  1  0  0  0  0
  8 14  1  0  0  0  0
 30 35  1  0  0  0  0
 40 46  1  0  0  0  0
 59 61  1  0  0  0  0
 17 19  1  0  0  0  0
  7 13  1  0  0  0  0
 29 34  1  0  0  0  0
 49 54  1  0  0  0  0
 39 45  1  0  0  0  0
M  END
$$$$

  -OEChem-05262214473D

 64 63  0     1  0  0  0  0  0999 V2000
    0.6173    1.9685   -9.2458 C   0  0  0  0  0  0  0  0  0  0  0  0
   -0.5582    2.1845   -9.5164 O   0  0  0  0  0  0  0  0  0  0  0  0
    1.4276    1.0867  -10.1368 C   0  0  0  0  0  0  0  0  0  0  0  0
    1.3811    0.0278   -9.8357 H   0  0  0  0  0  0  0  0  0  0  0  0
    1.0770    1.1079  -11.1812 H   0  0  0  0  0  0  0  0  0  0  0  0
    2.5017    1.3267  -10.1871 H   0  0  0  0  0  0  0  0  0  0  0  0
    1.3139    2.4717   -8.1606 N   0  0  0  0  0  0  0  0  0  0  0  0
    0.7237    3.3441   -7.1772 C   0  0  2  0  0  0  0  0  0  0  0  0
    1.7786    4.3426   -6.7053 C   0  0  0  0  0  0  0  0  0  0  0  0
    2.9570    4.2852   -7.0508 O   0  0  0  0  0  0  0  0  0  0  0  0
    0.0651    2.5704   -6.0324 C   0  0  0  0  0  0  0  0  0  0  0  0
    1.2330    1.5677   -5.0561 S   0  0  0  0  0  0  0  0  0  0  0  0
    2.2918    2.2125   -8.0518 H   0  0  0  0  0  0  0  0  0  0  0  0
   -0.0510    3.9084   -7.7110 H   0  0  0  0  0  0  0  0  0  0  0  0
   -0.4338    3.2574   -5.3412 H   0  0  0  0  0  0  0  0  0  0  0  0
   -0.6966    1.8913   -6.4306 H   0  0  0  0  0  0  0  0  0  0  0  0
    1.2544    5.2880   -5.8352 N   0  0  0  0  0  0  0  0  0  0  0  0
    2.0602    6.3246   -5.2336 C   0  0  0  0  0  0  0  0  0  0  0  0
    0.2581    5.2874   -5.6374 H   0  0  0  0  0  0  0  0  0  0  0  0
    2.4292    5.9818   -4.2556 H   0  0  0  0  0  0  0  0  0  0  0  0
    2.9143    6.5514   -5.8886 H   0  0  0  0  0  0  0  0  0  0  0  0
    1.4510    7.2305   -5.0984 H   0  0  0  0  0  0  0  0  0  0  0  0
   -6.7256    2.0330   -0.2766 C   0  0  0  0  0  0  0  0  0  0  0  0
   -7.1824    1.1039   -0.9322 O   0  0  0  0  0  0  0  0  0  0  0  0
   -7.5276    2.6077    0.8435 C   0  0  0  0  0  0  0  0  0  0  0  0
   -8.1775    3.4344    0.5145 H   0  0  0  0  0  0  0  0  0  0  0  0
   -8.2057    1.8676    1.2980 H   0  0  0  0  0  0  0  0  0  0  0  0
   -6.9411    3.0162    1.6819 H   0  0  0  0  0  0  0  0  0  0  0  0
   -5.4935    2.6382   -0.4627 N   0  0  0  0  0  0  0  0  0  0  0  0
   -4.5619    2.2388   -1.4845 C   0  0  2  0  0  0  0  0  0  0  0  0
   -3.1535    2.4674   -0.9521 C   0  0  0  0  0  0  0  0  0  0  0  0
   -2.8634    3.3945   -0.1987 O   0  0  0  0  0  0  0  0  0  0  0  0
   -4.7883    3.0138   -2.7732 C   0  0  0  0  0  0  0  0  0  0  0  0
   -5.2337    3.4049    0.1551 H   0  0  0  0  0  0  0  0  0  0  0  0
   -4.7192    1.1682   -1.6549 H   0  0  0  0  0  0  0  0  0  0  0  0
   -4.6352    4.0886   -2.6221 H   0  0  0  0  0  0  0  0  0  0  0  0
   -4.0976    2.6887   -3.5582 H   0  0  0  0  0  0  0  0  0  0  0  0
   -5.8111    2.8719   -3.1387 H   0  0  0  0  0  0  0  0  0  0  0  0
   -2.2466    1.5400   -1.4507 N   0  0  0  0  0  0  0  0  0  0  0  0
   -0.8424    1.5707   -1.1286 C   0  0  2  0  0  0  0  0  0  0  0  0
   -0.6309    2.4880    0.0742 C   0  0  0  0  0  0  0  0  0  0  0  0
   -1.5523    2.8808    0.7869 O   0  0  0  0  0  0  0  0  0  0  0  0
    0.0240    1.9417   -2.3346 C   0  0  0  0  0  0  0  0  0  0  0  0
   -0.0225    0.7208   -3.6688 S   0  0  0  0  0  0  0  0  0  0  0  0
   -2.5850    0.7815   -2.0381 H   0  0  0  0  0  0  0  0  0  0  0  0
   -0.5896    0.5502   -0.8151 H   0  0  0  0  0  0  0  0  0  0  0  0
   -0.2949    2.9003   -2.7567 H   0  0  0  0  0  0  0  0  0  0  0  0
    1.0691    2.0486   -2.0245 H   0  0  0  0  0  0  0  0  0  0  0  0
    0.7022    2.8349    0.2417 N   0  0  0  0  0  0  0  0  0  0  0  0
    1.1520    3.7137    1.2958 C   0  0  2  0  0  0  0  0  0  0  0  0
    2.3506    4.4965    0.7762 C   0  0  0  0  0  0  0  0  0  0  0  0
    3.1709    4.0246   -0.0084 O   0  0  0  0  0  0  0  0  0  0  0  0
    1.5145    2.9334    2.5497 C   0  0  0  0  0  0  0  0  0  0  0  0
    1.4050    2.4290   -0.3691 H   0  0  0  0  0  0  0  0  0  0  0  0
    0.3275    4.4038    1.5056 H   0  0  0  0  0  0  0  0  0  0  0  0
    2.3389    2.2366    2.3591 H   0  0  0  0  0  0  0  0  0  0  0  0
    1.8280    3.6033    3.3572 H   0  0  0  0  0  0  0  0  0  0  0  0
    0.6598    2.3477    2.9051 H   0  0  0  0  0  0  0  0  0  0  0  0
    2.4204    5.7693    1.3250 N   0  0  0  0  0  0  0  0  0  0  0  0
    3.4903    6.6912    1.0225 C   0  0  0  0  0  0  0  0  0  0  0  0
    1.6755    6.0917    1.9358 H   0  0  0  0  0  0  0  0  0  0  0  0
    4.2902    6.5834    1.7699 H   0  0  0  0  0  0  0  0  0  0  0  0
    3.8915    6.4715    0.0221 H   0  0  0  0  0  0  0  0  0  0  0  0
    3.1041    7.7209    1.0447 H   0  0  0  0  0  0  0  0  0  0  0  0
  1  3  1  0  0  0  0
  1  7  1  0  0  0  0
  1  2  2  0  0  0  0
 23 25  1  0  0  0  0
 23 29  1  0  0  0  0
 23 24  2  0  0  0  0
 50 51  1  0  0  0  0
 51 59  1  0  0  0  0
 51 52  2  0  0  0  0
  8  9  1  0  0  0  0
  9 17  1  0  0  0  0
  9 10  2  0  0  0  0
 30 31  1  0  0  0  0
 31 39  1  0  0  0  0
 31 32  2  0  0  0  0
 40 41  1  0  0  0  0
 41 49  1  0  0  0  0
 41 42  2  0  0  0  0
 50 53  1  0  0  0  0
 30 33  1  0  0  0  0
 59 60  1  0  0  0  0
 17 18  1  0  0  0  0
  8 11  1  0  0  0  0
 11 12  1  0  0  0  0
 40 43  1  0  0  0  0
 43 44  1  0  0  0  0
 49 50  1  0  0  0  0
  7  8  1  0  0  0  0
 29 30  1  0  0  0  0
 39 40  1  0  0  0  0
 12 44  1  0  0  0  0
  3  4  1  0  0  0  0
  3  5  1  0  0  0  0
  3  6  1  0  0  0  0
 25 26  1  0  0  0  0
 25 27  1  0  0  0  0
 25 28  1  0  0  0  0
 53 56  1  0  0  0  0
 53 57  1  0  0  0  0
 53 58  1  0  0  0  0
 33 36  1  0  0  0  0
 33 37  1  0  0  0  0
 33 38  1  0  0  0  0
 60 62  1  0  0  0  0
 60 63  1  0  0  0  0
 60 64  1  0  0  0  0
 18 20  1  0  0  0  0
 18 21  1  0  0  0  0
 18 22  1  0  0  0  0
 11 15  1  0  0  0  0
 11 16  1  0  0  0  0
 43 47  1  0  0  0  0
 43 48  1  0  0  0  0
 50 55  1  0  0  0  0
  8 14  1  0  0  0  0
 30 35  1  0  0  0  0
 40 46  1  0  0  0  0
 59 61  1  0  0  0  0
 17 19  1  0  0  0  0
  7 13  1  0  0  0  0
 29 34  1  0  0  0  0
 49 54  1  0  0  0  0
 39 45  1  0  0  0  0
M  END
$$$$

  -OEChem-05262214473D

 64 63  0     1  0  0  0  0  0999 V2000
    0.6173    1.9685   -9.2458 C   0  0  0  0  0  0  0  0  0  0  0  0
   -0.5582    2.1845   -9.5164 O   0  0  0  0  0  0  0  0  0  0  0  0
    1.4276    1.0867  -10.1368 C   0  0  0  0  0  0  0  0  0  0  0  0
    1.3811    0.0278   -9.8357 H   0  0  0  0  0  0  0  0  0  0  0  0
    1.0770    1.1079  -11.1812 H   0  0  0  0  0  0  0  0  0  0  0  0
    2.5017    1.3267  -10.1871 H   0  0  0  0  0  0  0  0  0  0  0  0
    1.3139    2.4717   -8.1606 N   0  0  0  0  0  0  0  0  0  0  0  0
    0.7237    3.3441   -7.1772 C   0  0  2  0  0  0  0  0  0  0  0  0
    1.7786    4.3426   -6.7053 C   0  0  0  0  0  0  0  0  0  0  0  0
    2.9570    4.2852   -7.0508 O   0  0  0  0  0  0  0  0  0  0  0  0
    0.0651    2.5704   -6.0324 C   0  0  0  0  0  0  0  0  0  0  0  0
    1.2330    1.5677   -5.0561 S   0  0  0  0  0  0  0  0  0  0  0  0
    2.2918    2.2125   -8.0518 H   0  0  0  0  0  0  0  0  0  0  0  0
   -0.0510    3.9084   -7.7110 H   0  0  0  0  0  0  0  0  0  0  0  0
   -0.4338    3.2574   -5.3412 H   0  0  0  0  0  0  0  0  0  0  0  0
   -0.6966    1.8913   -6.4306 H   0  0  0  0  0  0  0  0  0  0  0  0
    1.2544    5.2880   -5.8352 N   0  0  0  0  0  0  0  0  0  0  0  0
    2.0602    6.3246   -5.2336 C   0  0  0  0  0  0  0  0  0  0  0  0
    0.2581    5.2874   -5.6374 H   0  0  0  0  0  0  0  0  0  0  0  0
    2.4292    5.9818   -4.2556 H   0  0  0  0  0  0  0  0  0  0  0  0
    2.9143    6.5514   -5.8886 H   0  0  0  0  0  0  0  0  0  0  0  0
    1.4510    7.2305   -5.0984 H   0  0  0  0  0  0  0  0  0  0  0  0
   -6.7256    2.0330   -0.2766 C   0  0  0  0  0  0  0  0  0  0  0  0
   -7.1824    1.1039   -0.9322 O   0  0  0  0  0  0  0  0  0  0  0  0
   -7.5276    2.6077    0.8435 C   0  0  0  0  0  0  0  0  0  0  0  0
   -8.1775    3.4344    0.5145 H   0  0  0  0  0  0  0  0  0  0  0  0
   -8.2057    1.8676    1.2980 H   0  0  0  0  0  0  0  0  0  0  0  0
   -6.9411    3.0162    1.6819 H   0  0  0  0  0  0  0  0  0  0  0  0
   -5.4935    2.6382   -0.4627 N   0  0  0  0  0  0  0  0  0  0  0  0
   -4.5619    2.2388   -1.4845 C   0  0  2  0  0  0  0  0  0  0  0  0
   -3.1535    2.4674   -0.9521 C   0  0  0  0  0  0  0  0  0  0  0  0
   -2.8634    3.3945   -0.1987 O   0  0  0  0  0  0  0  0  0  0  0  0
   -4.7883    3.0138   -2.7732 C   0  0  0  0  0  0  0  0  0  0  0  0
   -5.2337    3.4049    0.1551 H   0  0  0  0  0  0  0  0  0  0  0  0
   -4.7192    1.1682   -1.6549 H   0  0  0  0  0  0  0  0  0  0  0  0
   -4.6352    4.0886   -2.6221 H   0  0  0  0  0  0  0  0  0  0  0  0
   -4.0976    2.6887   -3.5582 H   0  0  0  0  0  0  0  0  0  0  0  0
   -5.8111    2.8719   -3.1387 H   0  0  0  0  0  0  0  0  0  0  0  0
   -2.2466    1.5400   -1.4507 N   0  0  0  0  0  0  0  0  0  0  0  0
   -0.8424    1.5707   -1.1286 C   0  0  2  0  0  0  0  0  0  0  0  0
   -0.6309    2.4880    0.0742 C   0  0  0  0  0  0  0  0  0  0  0  0
   -1.4870    2.6678    0.9379 O   0  0  0  0  0  0  0  0  0  0  0  0
    0.0240    1.9417   -2.3346 C   0  0  0  0  0  0  0  0  0  0  0  0
   -0.0225    0.7208   -3.6688 S   0  0  0  0  0  0  0  0  0  0  0  0
   -2.5850    0.7815   -2.0381 H   0  0  0  0  0  0  0  0  0  0  0  0
   -0.5896    0.5502   -0.8151 H   0  0  0  0  0  0  0  0  0  0  0  0
   -0.2949    2.9003   -2.7567 H   0  0  0  0  0  0  0  0  0  0  0  0
    1.0691    2.0486   -2.0245 H   0  0  0  0  0  0  0  0  0  0  0  0
    0.6146    3.0995    0.0553 N   0  0  0  0  0  0  0  0  0  0  0  0
    1.0405    4.0313    1.0732 C   0  0  2  0  0  0  0  0  0  0  0  0
    1.9590    5.0550    0.4191 C   0  0  0  0  0  0  0  0  0  0  0  0
    2.7219    4.7784   -0.5043 O   0  0  0  0  0  0  0  0  0  0  0  0
    1.7473    3.3182    2.2153 C   0  0  0  0  0  0  0  0  0  0  0  0
    1.2783    2.8597   -0.6753 H   0  0  0  0  0  0  0  0  0  0  0  0
    0.1382    4.5319    1.4412 H   0  0  0  0  0  0  0  0  0  0  0  0
    2.6538    2.8107    1.8658 H   0  0  0  0  0  0  0  0  0  0  0  0
    2.0442    4.0223    2.9995 H   0  0  0  0  0  0  0  0  0  0  0  0
    1.0954    2.5616    2.6653 H   0  0  0  0  0  0  0  0  0  0  0  0
    1.8581    6.3037    1.0164 N   0  0  0  0  0  0  0  0  0  0  0  0
    2.6588    7.4325    0.6033 C   0  0  0  0  0  0  0  0  0  0  0  0
    1.1705    6.4531    1.7490 H   0  0  0  0  0  0  0  0  0  0  0  0
    3.5725    7.4777    1.2141 H   0  0  0  0  0  0  0  0  0  0  0  0
    2.9315    7.3203   -0.4564 H   0  0  0  0  0  0  0  0  0  0  0  0
    2.0821    8.3596    0.7374 H   0  0  0  0  0  0  0  0  0  0  0  0
  1  3  1  0  0  0  0
  1  7  1  0  0  0  0
  1  2  2  0  0  0  0
 23 25  1  0  0  0  0
 23 29  1  0  0  0  0
 23 24  2  0  0  0  0
 50 51  1  0  0  0  0
 51 59  1  0  0  0  0
 51 52  2  0  0  0  0
  8  9  1  0  0  0  0
  9 17  1  0  0  0  0
  9 10  2  0  0  0  0
 30 31  1  0  0  0  0
 31 39  1  0  0  0  0
 31 32  2  0  0  0  0
 40 41  1  0  0  0  0
 41 49  1  0  0  0  0
 41 42  2  0  0  0  0
 50 53  1  0  0  0  0
 30 33  1  0  0  0  0
 59 60  1  0  0  0  0
 17 18  1  0  0  0  0
  8 11  1  0  0  0  0
 11 12  1  0  0  0  0
 40 43  1  0  0  0  0
 43 44  1  0  0  0  0
 49 50  1  0  0  0  0
  7  8  1  0  0  0  0
 29 30  1  0  0  0  0
 39 40  1  0  0  0  0
 12 44  1  0  0  0  0
  3  4  1  0  0  0  0
  3  5  1  0  0  0  0
  3  6  1  0  0  0  0
 25 26  1  0  0  0  0
 25 27  1  0  0  0  0
 25 28  1  0  0  0  0
 53 56  1  0  0  0  0
 53 57  1  0  0  0  0
 53 58  1  0  0  0  0
 33 36  1  0  0  0  0
 33 37  1  0  0  0  0
 33 38  1  0  0  0  0
 60 62  1  0  0  0  0
 60 63  1  0  0  0  0
 60 64  1  0  0  0  0
 18 20  1  0  0  0  0
 18 21  1  0  0  0  0
 18 22  1  0  0  0  0
 11 15  1  0  0  0  0
 11 16  1  0  0  0  0
 43 47  1  0  0  0  0
 43 48  1  0  0  0  0
 50 55  1  0  0  0  0
  8 14  1  0  0  0  0
 30 35  1  0  0  0  0
 40 46  1  0  0  0  0
 59 61  1  0  0  0  0
 17 19  1  0  0  0  0
  7 13  1  0  0  0  0
 29 34  1  0  0  0  0
 49 54  1  0  0  0  0
 39 45  1  0  0  0  0
M  END
$$$$

  -OEChem-05262214473D

 64 63  0     1  0  0  0  0  0999 V2000
    0.6173    1.9685   -9.2458 C   0  0  0  0  0  0  0  0  0  0  0  0
   -0.5582    2.1845   -9.5164 O   0  0  0  0  0  0  0  0  0  0  0  0
    1.4276    1.0867  -10.1368 C   0  0  0  0  0  0  0  0  0  0  0  0
    1.3811    0.0278   -9.8357 H   0  0  0  0  0  0  0  0  0  0  0  0
    1.0770    1.1079  -11.1812 H   0  0  0  0  0  0  0  0  0  0  0  0
    2.5017    1.3267  -10.1871 H   0  0  0  0  0  0  0  0  0  0  0  0
    1.3139    2.4717   -8.1606 N   0  0  0  0  0  0  0  0  0  0  0  0
    0.7237    3.3441   -7.1772 C   0  0  2  0  0  0  0  0  0  0  0  0
    1.7786    4.3426   -6.7053 C   0  0  0  0  0  0  0  0  0  0  0  0
    2.9570    4.2852   -7.0508 O   0  0  0  0  0  0  0  0  0  0  0  0
    0.0651    2.5704   -6.0324 C   0  0  0  0  0  0  0  0  0  0  0  0
    1.2330    1.5677   -5.0561 S   0  0  0  0  0  0  0  0  0  0  0  0
    2.2918    2.2125   -8.0518 H   0  0  0  0  0  0  0  0  0  0  0  0
   -0.0510    3.9084   -7.7110 H   0  0  0  0  0  0  0  0  0  0  0  0
   -0.4338    3.2574   -5.3412 H   0  0  0  0  0  0  0  0  0  0  0  0
   -0.6966    1.8913   -6.4306 H   0  0  0  0  0  0  0  0  0  0  0  0
    1.2544    5.2880   -5.8352 N   0  0  0  0  0  0  0  0  0  0  0  0
    2.0602    6.3246   -5.2336 C   0  0  0  0  0  0  0  0  0  0  0  0
    0.2581    5.2874   -5.6374 H   0  0  0  0  0  0  0  0  0  0  0  0
    2.4292    5.9818   -4.2556 H   0  0  0  0  0  0  0  0  0  0  0  0
    2.9143    6.5514   -5.8886 H   0  0  0  0  0  0  0  0  0  0  0  0
    1.4510    7.2305   -5.0984 H   0  0  0  0  0  0  0  0  0  0  0  0
   -6.7256    2.0330   -0.2766 C   0  0  0  0  0  0  0  0  0  0  0  0
   -7.1824    1.1039   -0.9322 O   0  0  0  0  0  0  0  0  0  0  0  0
   -7.5276    2.6077    0.8435 C   0  0  0  0  0  0  0  0  0  0  0  0
   -8.1775    3.4344    0.5145 H   0  0  0  0  0  0  0  0  0  0  0  0
   -8.2057    1.8676    1.2980 H   0  0  0  0  0  0  0  0  0  0  0  0
   -6.9411    3.0162    1.6819 H   0  0  0  0  0  0  0  0  0  0  0  0
   -5.4935    2.6382   -0.4627 N   0  0  0  0  0  0  0  0  0  0  0  0
   -4.5619    2.2388   -1.4845 C   0  0  2  0  0  0  0  0  0  0  0  0
   -3.1535    2.4674   -0.9521 C   0  0  0  0  0  0  0  0  0  0  0  0
   -2.8634    3.3945   -0.1987 O   0  0  0  0  0  0  0  0  0  0  0  0
   -4.7883    3.0138   -2.7732 C   0  0  0  0  0  0  0  0  0  0  0  0
   -5.2337    3.4049    0.1551 H   0  0  0  0  0  0  0  0  0  0  0  0
   -4.7192    1.1682   -1.6549 H   0  0  0  0  0  0  0  0  0  0  0  0
   -4.6352    4.0886   -2.6221 H   0  0  0  0  0  0  0  0  0  0  0  0
   -4.0976    2.6887   -3.5582 H   0  0  0  0  0  0  0  0  0  0  0  0
   -5.8111    2.8719   -3.1387 H   0  0  0  0  0  0  0  0  0  0  0  0
   -2.2466    1.5400   -1.4507 N   0  0  0  0  0  0  0  0  0  0  0  0
   -0.8424    1.5707   -1.1286 C   0  0  2  0  0  0  0  0  0  0  0  0
   -0.6309    2.4880    0.0742 C   0  0  0  0  0  0  0  0  0  0  0  0
   -1.3571    2.4699    1.0660 O   0  0  0  0  0  0  0  0  0  0  0  0
    0.0240    1.9417   -2.3346 C   0  0  0  0  0  0  0  0  0  0  0  0
   -0.0225    0.7208   -3.6688 S   0  0  0  0  0  0  0  0  0  0  0  0
   -2.5850    0.7815   -2.0381 H   0  0  0  0  0  0  0  0  0  0  0  0
   -0.5896    0.5502   -0.8151 H   0  0  0  0  0  0  0  0  0  0  0  0
   -0.2949    2.9003   -2.7567 H   0  0  0  0  0  0  0  0  0  0  0  0
    1.0691    2.0486   -2.0245 H   0  0  0  0  0  0  0  0  0  0  0  0
    0.4470    3.3440   -0.1017 N   0  0  0  0  0  0  0  0  0  0  0  0
    0.8334    4.3234    0.8869 C   0  0  2  0  0  0  0  0  0  0  0  0
    1.4115    5.5275    0.1550 C   0  0  0  0  0  0  0  0  0  0  0  0
    2.0574    5.4328   -0.8865 O   0  0  0  0  0  0  0  0  0  0  0  0
    1.8418    3.7493    1.8699 C   0  0  0  0  0  0  0  0  0  0  0  0
    1.0205    3.2609   -0.9359 H   0  0  0  0  0  0  0  0  0  0  0  0
   -0.0807    4.6193    1.4130 H   0  0  0  0  0  0  0  0  0  0  0  0
    2.7644    3.4471    1.3610 H   0  0  0  0  0  0  0  0  0  0  0  0
    2.1121    4.4840    2.6355 H   0  0  0  0  0  0  0  0  0  0  0  0
    1.4353    2.8656    2.3736 H   0  0  0  0  0  0  0  0  0  0  0  0
    1.1580    6.7163    0.8248 N   0  0  0  0  0  0  0  0  0  0  0  0
    1.6393    7.9942    0.3543 C   0  0  0  0  0  0  0  0  0  0  0  0
    0.5800    6.7059    1.6600 H   0  0  0  0  0  0  0  0  0  0  0  0
    2.6106    8.2151    0.8209 H   0  0  0  0  0  0  0  0  0  0  0  0
    1.7568    7.9617   -0.7390 H   0  0  0  0  0  0  0  0  0  0  0  0
    0.9169    8.7792    0.6222 H   0  0  0  0  0  0  0  0  0  0  0  0
  1  3  1  0  0  0  0
  1  7  1  0  0  0  0
  1  2  2  0  0  0  0
 23 25  1  0  0  0  0
 23 29  1  0  0  0  0
 23 24  2  0  0  0  0
 50 51  1  0  0  0  0
 51 59  1  0  0  0  0
 51 52  2  0  0  0  0
  8  9  1  0  0  0  0
  9 17  1  0  0  0  0
  9 10  2  0  0  0  0
 30 31  1  0  0  0  0
 31 39  1  0  0  0  0
 31 32  2  0  0  0  0
 40 41  1  0  0  0  0
 41 49  1  0  0  0  0
 41 42  2  0  0  0  0
 50 53  1  0  0  0  0
 30 33  1  0  0  0  0
 59 60  1  0  0  0  0
 17 18  1  0  0  0  0
  8 11  1  0  0  0  0
 11 12  1  0  0  0  0
 40 43  1  0  0  0  0
 43 44  1  0  0  0  0
 49 50  1  0  0  0  0
  7  8  1  0  0  0  0
 29 30  1  0  0  0  0
 39 40  1  0  0  0  0
 12 44  1  0  0  0  0
  3  4  1  0  0  0  0
  3  5  1  0  0  0  0
  3  6  1  0  0  0  0
 25 26  1  0  0  0  0
 25 27  1  0  0  0  0
 25 28  1  0  0  0  0
 53 56  1  0  0  0  0
 53 57  1  0  0  0  0
 53 58  1  0  0  0  0
 33 36  1  0  0  0  0
 33 37  1  0  0  0  0
 33 38  1  0  0  0  0
 60 62  1  0  0  0  0
 60 63  1  0  0  0  0
 60 64  1  0  0  0  0
 18 20  1  0  0  0  0
 18 21  1  0  0  0  0
 18 22  1  0  0  0  0
 11 15  1  0  0  0  0
 11 16  1  0  0  0  0
 43 47  1  0  0  0  0
 43 48  1  0  0  0  0
 50 55  1  0  0  0  0
  8 14  1  0  0  0  0
 30 35  1  0  0  0  0
 40 46  1  0  0  0  0
 59 61  1  0  0  0  0
 17 19  1  0  0  0  0
  7 13  1  0  0  0  0
 29 34  1  0  0  0  0
 49 54  1  0  0  0  0
 39 45  1  0  0  0  0
M  END
$$$$

  -OEChem-05262214473D

 64 63  0     1  0  0  0  0  0999 V2000
    0.6173    1.9685   -9.2458 C   0  0  0  0  0  0  0  0  0  0  0  0
   -0.5582    2.1845   -9.5164 O   0  0  0  0  0  0  0  0  0  0  0  0
    1.4276    1.0867  -10.1368 C   0  0  0  0  0  0  0  0  0  0  0  0
    1.3811    0.0278   -9.8357 H   0  0  0  0  0  0  0  0  0  0  0  0
    1.0770    1.1079  -11.1812 H   0  0  0  0  0  0  0  0  0  0  0  0
    2.5017    1.3267  -10.1871 H   0  0  0  0  0  0  0  0  0  0  0  0
    1.3139    2.4717   -8.1606 N   0  0  0  0  0  0  0  0  0  0  0  0
    0.7237    3.3441   -7.1772 C   0  0  2  0  0  0  0  0  0  0  0  0
    1.7786    4.3426   -6.7053 C   0  0  0  0  0  0  0  0  0  0  0  0
    2.9570    4.2852   -7.0508 O   0  0  0  0  0  0  0  0  0  0  0  0
    0.0651    2.5704   -6.0324 C   0  0  0  0  0  0  0  0  0  0  0  0
    1.2330    1.5677   -5.0561 S   0  0  0  0  0  0  0  0  0  0  0  0
    2.2918    2.2125   -8.0518 H   0  0  0  0  0  0  0  0  0  0  0  0
   -0.0510    3.9084   -7.7110 H   0  0  0  0  0  0  0  0  0  0  0  0
   -0.4338    3.2574   -5.3412 H   0  0  0  0  0  0  0  0  0  0  0  0
   -0.6966    1.8913   -6.4306 H   0  0  0  0  0  0  0  0  0  0  0  0
    1.2544    5.2880   -5.8352 N   0  0  0  0  0  0  0  0  0  0  0  0
    2.0602    6.3246   -5.2336 C   0  0  0  0  0  0  0  0  0  0  0  0
    0.2581    5.2874   -5.6374 H   0  0  0  0  0  0  0  0  0  0  0  0
    2.4292    5.9818   -4.2556 H   0  0  0  0  0  0  0  0  0  0  0  0
    2.9143    6.5514   -5.8886 H   0  0  0  0  0  0  0  0  0  0  0  0
    1.4510    7.2305   -5.0984 H   0  0  0  0  0  0  0  0  0  0  0  0
   -6.7256    2.0330   -0.2766 C   0  0  0  0  0  0  0  0  0  0  0  0
   -7.1824    1.1039   -0.9322 O   0  0  0  0  0  0  0  0  0  0  0  0
   -7.5276    2.6077    0.8435 C   0  0  0  0  0  0  0  0  0  0  0  0
   -8.1775    3.4344    0.5145 H   0  0  0  0  0  0  0  0  0  0  0  0
   -8.2057    1.8676    1.2980 H   0  0  0  0  0  0  0  0  0  0  0  0
   -6.9411    3.0162    1.6819 H   0  0  0  0  0  0  0  0  0  0  0  0
   -5.4935    2.6382   -0.4627 N   0  0  0  0  0  0  0  0  0  0  0  0
   -4.5619    2.2388   -1.4845 C   0  0  2  0  0  0  0  0  0  0  0  0
   -3.1535    2.4674   -0.9521 C   0  0  0  0  0  0  0  0  0  0  0  0
   -2.8634    3.3945   -0.1987 O   0  0  0  0  0  0  0  0  0  0  0  0
   -4.7883    3.0138   -2.7732 C   0  0  0  0  0  0  0  0  0  0  0  0
   -5.2337    3.4049    0.1551 H   0  0  0  0  0  0  0  0  0  0  0  0
   -4.7192    1.1682   -1.6549 H   0  0  0  0  0  0  0  0  0  0  0  0
   -4.6352    4.0886   -2.6221 H   0  0  0  0  0  0  0  0  0  0  0  0
   -4.0976    2.6887   -3.5582 H   0  0  0  0  0  0  0  0  0  0  0  0
   -5.8111    2.8719   -3.1387 H   0  0  0  0  0  0  0  0  0  0  0  0
   -2.2466    1.5400   -1.4507 N   0  0  0  0  0  0  0  0  0  0  0  0
   -0.8424    1.5707   -1.1286 C   0  0  2  0  0  0  0  0  0  0  0  0
   -0.6309    2.4880    0.0742 C   0  0  0  0  0  0  0  0  0  0  0  0
   -1.1713    2.3007    1.1624 O   0  0  0  0  0  0  0  0  0  0  0  0
    0.0240    1.9417   -2.3346 C   0  0  0  0  0  0  0  0  0  0  0  0
   -0.0225    0.7208   -3.6688 S   0  0  0  0  0  0  0  0  0  0  0  0
   -2.5850    0.7815   -2.0381 H   0  0  0  0  0  0  0  0  0  0  0  0
   -0.5896    0.5502   -0.8151 H   0  0  0  0  0  0  0  0  0  0  0  0
   -0.2949    2.9003   -2.7567 H   0  0  0  0  0  0  0  0  0  0  0  0
    1.0691    2.0486   -2.0245 H   0  0  0  0  0  0  0  0  0  0  0  0
    0.2110    3.5515   -0.2185 N   0  0  0  0  0  0  0  0  0  0  0  0
    0.5450    4.5700    0.7495 C   0  0  2  0  0  0  0  0  0  0  0  0
    0.7452    5.8817    0.0020 C   0  0  0  0  0  0  0  0  0  0  0  0
    1.2228    5.9431   -1.1290 O   0  0  0  0  0  0  0  0  0  0  0  0
    1.7914    4.1974    1.5370 C   0  0  0  0  0  0  0  0  0  0  0  0
    0.6492    3.6053   -1.1333 H   0  0  0  0  0  0  0  0  0  0  0  0
   -0.3144    4.6602    1.4229 H   0  0  0  0  0  0  0  0  0  0  0  0
    2.6629    4.1025    0.8790 H   0  0  0  0  0  0  0  0  0  0  0  0
    2.0269    4.9568    2.2899 H   0  0  0  0  0  0  0  0  0  0  0  0
    1.6564    3.2390    2.0500 H   0  0  0  0  0  0  0  0  0  0  0  0
    0.3678    6.9791    0.7633 N   0  0  0  0  0  0  0  0  0  0  0  0
    0.5014    8.3378    0.2923 C   0  0  0  0  0  0  0  0  0  0  0  0
   -0.0558    6.8329    1.6749 H   0  0  0  0  0  0  0  0  0  0  0  0
    1.4701    8.7455    0.6169 H   0  0  0  0  0  0  0  0  0  0  0  0
    0.4474    8.3519   -0.8063 H   0  0  0  0  0  0  0  0  0  0  0  0
   -0.3120    8.9512    0.7072 H   0  0  0  0  0  0  0  0  0  0  0  0
  1  3  1  0  0  0  0
  1  7  1  0  0  0  0
  1  2  2  0  0  0  0
 23 25  1  0  0  0  0
 23 29  1  0  0  0  0
 23 24  2  0  0  0  0
 50 51  1  0  0  0  0
 51 59  1  0  0  0  0
 51 52  2  0  0  0  0
  8  9  1  0  0  0  0
  9 17  1  0  0  0  0
  9 10  2  0  0  0  0
 30 31  1  0  0  0  0
 31 39  1  0  0  0  0
 31 32  2  0  0  0  0
 40 41  1  0  0  0  0
 41 49  1  0  0  0  0
 41 42  2  0  0  0  0
 50 53  1  0  0  0  0
 30 33  1  0  0  0  0
 59 60  1  0  0  0  0
 17 18  1  0  0  0  0
  8 11  1  0  0  0  0
 11 12  1  0  0  0  0
 40 43  1  0  0  0  0
 43 44  1  0  0  0  0
 49 50  1  0  0  0  0
  7  8  1  0  0  0  0
 29 30  1  0  0  0  0
 39 40  1  0  0  0  0
 12 44  1  0  0  0  0
  3  4  1  0  0  0  0
  3  5  1  0  0  0  0
  3  6  1  0  0  0  0
 25 26  1  0  0  0  0
 25 27  1  0  0  0  0
 25 28  1  0  0  0  0
 53 56  1  0  0  0  0
 53 57  1  0  0  0  0
 53 58  1  0  0  0  0
 33 36  1  0  0  0  0
 33 37  1  0  0  0  0
 33 38  1  0  0  0  0
 60 62  1  0  0  0  0
 60 63  1  0  0  0  0
 60 64  1  0  0  0  0
 18 20  1  0  0  0  0
 18 21  1  0  0  0  0
 18 22  1  0  0  0  0
 11 15  1  0  0  0  0
 11 16  1  0  0  0  0
 43 47  1  0  0  0  0
 43 48  1  0  0  0  0
 50 55  1  0  0  0  0
  8 14  1  0  0  0  0
 30 35  1  0  0  0  0
 40 46  1  0  0  0  0
 59 61  1  0  0  0  0
 17 19  1  0  0  0  0
  7 13  1  0  0  0  0
 29 34  1  0  0  0  0
 49 54  1  0  0  0  0
 39 45  1  0  0  0  0
M  END
$$$$

  -OEChem-05262214473D

 64 63  0     1  0  0  0  0  0999 V2000
    0.6173    1.9685   -9.2458 C   0  0  0  0  0  0  0  0  0  0  0  0
   -0.5582    2.1845   -9.5164 O   0  0  0  0  0  0  0  0  0  0  0  0
    1.4276    1.0867  -10.1368 C   0  0  0  0  0  0  0  0  0  0  0  0
    1.3811    0.0278   -9.8357 H   0  0  0  0  0  0  0  0  0  0  0  0
    1.0770    1.1079  -11.1812 H   0  0  0  0  0  0  0  0  0  0  0  0
    2.5017    1.3267  -10.1871 H   0  0  0  0  0  0  0  0  0  0  0  0
    1.3139    2.4717   -8.1606 N   0  0  0  0  0  0  0  0  0  0  0  0
    0.7237    3.3441   -7.1772 C   0  0  2  0  0  0  0  0  0  0  0  0
    1.7786    4.3426   -6.7053 C   0  0  0  0  0  0  0  0  0  0  0  0
    2.9570    4.2852   -7.0508 O   0  0  0  0  0  0  0  0  0  0  0  0
    0.0651    2.5704   -6.0324 C   0  0  0  0  0  0  0  0  0  0  0  0
    1.2330    1.5677   -5.0561 S   0  0  0  0  0  0  0  0  0  0  0  0
    2.2918    2.2125   -8.0518 H   0  0  0  0  0  0  0  0  0  0  0  0
   -0.0510    3.9084   -7.7110 H   0  0  0  0  0  0  0  0  0  0  0  0
   -0.4338    3.2574   -5.3412 H   0  0  0  0  0  0  0  0  0  0  0  0
   -0.6966    1.8913   -6.4306 H   0  0  0  0  0  0  0  0  0  0  0  0
    1.2544    5.2880   -5.8352 N   0  0  0  0  0  0  0  0  0  0  0  0
    2.0602    6.3246   -5.2336 C   0  0  0  0  0  0  0  0  0  0  0  0
    0.2581    5.2874   -5.6374 H   0  0  0  0  0  0  0  0  0  0  0  0
    2.4292    5.9818   -4.2556 H   0  0  0  0  0  0  0  0  0  0  0  0
    2.9143    6.5514   -5.8886 H   0  0  0  0  0  0  0  0  0  0  0  0
    1.4510    7.2305   -5.0984 H   0  0  0  0  0  0  0  0  0  0  0  0
   -6.7256    2.0330   -0.2766 C   0  0  0  0  0  0  0  0  0  0  0  0
   -7.1824    1.1039   -0.9322 O   0  0  0  0  0  0  0  0  0  0  0  0
   -7.5276    2.6077    0.8435 C   0  0  0  0  0  0  0  0  0  0  0  0
   -8.1775    3.4344    0.5145 H   0  0  0  0  0  0  0  0  0  0  0  0
   -8.2057    1.8676    1.2980 H   0  0  0  0  0  0  0  0  0  0  0  0
   -6.9411    3.0162    1.6819 H   0  0  0  0  0  0  0  0  0  0  0  0
   -5.4935    2.6382   -0.4627 N   0  0  0  0  0  0  0  0  0  0  0  0
   -4.5619    2.2388   -1.4845 C   0  0  2  0  0  0  0  0  0  0  0  0
   -3.1535    2.4674   -0.9521 C   0  0  0  0  0  0  0  0  0  0  0  0
   -2.8634    3.3945   -0.1987 O   0  0  0  0  0  0  0  0  0  0  0  0
   -4.7883    3.0138   -2.7732 C   0  0  0  0  0  0  0  0  0  0  0  0
   -5.2337    3.4049    0.1551 H   0  0  0  0  0  0  0  0  0  0  0  0
   -4.7192    1.1682   -1.6549 H   0  0  0  0  0  0  0  0  0  0  0  0
   -4.6352    4.0886   -2.6221 H   0  0  0  0  0  0  0  0  0  0  0  0
   -4.0976    2.6887   -3.5582 H   0  0  0  0  0  0  0  0  0  0  0  0
   -5.8111    2.8719   -3.1387 H   0  0  0  0  0  0  0  0  0  0  0  0
   -2.2466    1.5400   -1.4507 N   0  0  0  0  0  0  0  0  0  0  0  0
   -0.8424    1.5707   -1.1286 C   0  0  2  0  0  0  0  0  0  0  0  0
   -0.6309    2.4880    0.0742 C   0  0  0  0  0  0  0  0  0  0  0  0
   -0.9424    2.1716    1.2206 O   0  0  0  0  0  0  0  0  0  0  0  0
    0.0240    1.9417   -2.3346 C   0  0  0  0  0  0  0  0  0  0  0  0
   -0.0225    0.7208   -3.6688 S   0  0  0  0  0  0  0  0  0  0  0  0
   -2.5850    0.7815   -2.0381 H   0  0  0  0  0  0  0  0  0  0  0  0
   -0.5896    0.5502   -0.8151 H   0  0  0  0  0  0  0  0  0  0  0  0
   -0.2949    2.9003   -2.7567 H   0  0  0  0  0  0  0  0  0  0  0  0
    1.0691    2.0486   -2.0245 H   0  0  0  0  0  0  0  0  0  0  0  0
   -0.0775    3.7081   -0.2872 N   0  0  0  0  0  0  0  0  0  0  0  0
    0.1947    4.7543    0.6705 C   0  0  2  0  0  0  0  0  0  0  0  0
    0.0057    6.0936   -0.0295 C   0  0  0  0  0  0  0  0  0  0  0  0
    0.2750    6.2747   -1.2151 O   0  0  0  0  0  0  0  0  0  0  0  0
    1.5998    4.6318    1.2394 C   0  0  0  0  0  0  0  0  0  0  0  0
    0.1897    3.8693   -1.2538 H   0  0  0  0  0  0  0  0  0  0  0  0
   -0.5468    4.6517    1.4703 H   0  0  0  0  0  0  0  0  0  0  0  0
    2.3565    4.7321    0.4527 H   0  0  0  0  0  0  0  0  0  0  0  0
    1.7945    5.4086    1.9862 H   0  0  0  0  0  0  0  0  0  0  0  0
    1.7435    3.6564    1.7164 H   0  0  0  0  0  0  0  0  0  0  0  0
   -0.4585    7.0740    0.8362 N   0  0  0  0  0  0  0  0  0  0  0  0
   -0.6774    8.4401    0.4216 C   0  0  0  0  0  0  0  0  0  0  0  0
   -0.6935    6.8256    1.7927 H   0  0  0  0  0  0  0  0  0  0  0  0
    0.2286    9.0326    0.6163 H   0  0  0  0  0  0  0  0  0  0  0  0
   -0.9073    8.4644   -0.6538 H   0  0  0  0  0  0  0  0  0  0  0  0
   -1.5209    8.8639    0.9864 H   0  0  0  0  0  0  0  0  0  0  0  0
  1  3  1  0  0  0  0
  1  7  1  0  0  0  0
  1  2  2  0  0  0  0
 23 25  1  0  0  0  0
 23 29  1  0  0  0  0
 23 24  2  0  0  0  0
 50 51  1  0  0  0  0
 51 59  1  0  0  0  0
 51 52  2  0  0  0  0
  8  9  1  0  0  0  0
  9 17  1  0  0  0  0
  9 10  2  0  0  0  0
 30 31  1  0  0  0  0
 31 39  1  0  0  0  0
 31 32  2  0  0  0  0
 40 41  1  0  0  0  0
 41 49  1  0  0  0  0
 41 42  2  0  0  0  0
 50 53  1  0  0  0  0
 30 33  1  0  0  0  0
 59 60  1  0  0  0  0
 17 18  1  0  0  0  0
  8 11  1  0  0  0  0
 11 12  1  0  0  0  0
 40 43  1  0  0  0  0
 43 44  1  0  0  0  0
 49 50  1  0  0  0  0
  7  8  1  0  0  0  0
 29 30  1  0  0  0  0
 39 40  1  0  0  0  0
 12 44  1  0  0  0  0
  3  4  1  0  0  0  0
  3  5  1  0  0  0  0
  3  6  1  0  0  0  0
 25 26  1  0  0  0  0
 25 27  1  0  0  0  0
 25 28  1  0  0  0  0
 53 56  1  0  0  0  0
 53 57  1  0  0  0  0
 53 58  1  0  0  0  0
 33 36  1  0  0  0  0
 33 37  1  0  0  0  0
 33 38  1  0  0  0  0
 60 62  1  0  0  0  0
 60 63  1  0  0  0  0
 60 64  1  0  0  0  0
 18 20  1  0  0  0  0
 18 21  1  0  0  0  0
 18 22  1  0  0  0  0
 11 15  1  0  0  0  0
 11 16  1  0  0  0  0
 43 47  1  0  0  0  0
 43 48  1  0  0  0  0
 50 55  1  0  0  0  0
  8 14  1  0  0  0  0
 30 35  1  0  0  0  0
 40 46  1  0  0  0  0
 59 61  1  0  0  0  0
 17 19  1  0  0  0  0
  7 13  1  0  0  0  0
 29 34  1  0  0  0  0
 49 54  1  0  0  0  0
 39 45  1  0  0  0  0
M  END
$$$$

  -OEChem-05262214473D

 64 63  0     1  0  0  0  0  0999 V2000
    0.6173    1.9685   -9.2458 C   0  0  0  0  0  0  0  0  0  0  0  0
   -0.5582    2.1845   -9.5164 O   0  0  0  0  0  0  0  0  0  0  0  0
    1.4276    1.0867  -10.1368 C   0  0  0  0  0  0  0  0  0  0  0  0
    1.3811    0.0278   -9.8357 H   0  0  0  0  0  0  0  0  0  0  0  0
    1.0770    1.1079  -11.1812 H   0  0  0  0  0  0  0  0  0  0  0  0
    2.5017    1.3267  -10.1871 H   0  0  0  0  0  0  0  0  0  0  0  0
    1.3139    2.4717   -8.1606 N   0  0  0  0  0  0  0  0  0  0  0  0
    0.7237    3.3441   -7.1772 C   0  0  2  0  0  0  0  0  0  0  0  0
    1.7786    4.3426   -6.7053 C   0  0  0  0  0  0  0  0  0  0  0  0
    2.9570    4.2852   -7.0508 O   0  0  0  0  0  0  0  0  0  0  0  0
    0.0651    2.5704   -6.0324 C   0  0  0  0  0  0  0  0  0  0  0  0
    1.2330    1.5677   -5.0561 S   0  0  0  0  0  0  0  0  0  0  0  0
    2.2918    2.2125   -8.0518 H   0  0  0  0  0  0  0  0  0  0  0  0
   -0.0510    3.9084   -7.7110 H   0  0  0  0  0  0  0  0  0  0  0  0
   -0.4338    3.2574   -5.3412 H   0  0  0  0  0  0  0  0  0  0  0  0
   -0.6966    1.8913   -6.4306 H   0  0  0  0  0  0  0  0  0  0  0  0
    1.2544    5.2880   -5.8352 N   0  0  0  0  0  0  0  0  0  0  0  0
    2.0602    6.3246   -5.2336 C   0  0  0  0  0  0  0  0  0  0  0  0
    0.2581    5.2874   -5.6374 H   0  0  0  0  0  0  0  0  0  0  0  0
    2.4292    5.9818   -4.2556 H   0  0  0  0  0  0  0  0  0  0  0  0
    2.9143    6.5514   -5.8886 H   0  0  0  0  0  0  0  0  0  0  0  0
    1.4510    7.2305   -5.0984 H   0  0  0  0  0  0  0  0  0  0  0  0
   -6.7256    2.0330   -0.2766 C   0  0  0  0  0  0  0  0  0  0  0  0
   -7.1824    1.1039   -0.9322 O   0  0  0  0  0  0  0  0  0  0  0  0
   -7.5276    2.6077    0.8435 C   0  0  0  0  0  0  0  0  0  0  0  0
   -8.1775    3.4344    0.5145 H   0  0  0  0  0  0  0  0  0  0  0  0
   -8.2057    1.8676    1.2980 H   0  0  0  0  0  0  0  0  0  0  0  0
   -6.9411    3.0162    1.6819 H   0  0  0  0  0  0  0  0  0  0  0  0
   -5.4935    2.6382   -0.4627 N   0  0  0  0  0  0  0  0  0  0  0  0
   -4.5619    2.2388   -1.4845 C   0  0  2  0  0  0  0  0  0  0  0  0
   -3.1535    2.4674   -0.9521 C   0  0  0  0  0  0  0  0  0  0  0  0
   -2.8634    3.3945   -0.1987 O   0  0  0  0  0  0  0  0  0  0  0  0
   -4.7883    3.0138   -2.7732 C   0  0  0  0  0  0  0  0  0  0  0  0
   -5.2337    3.4049    0.1551 H   0  0  0  0  0  0  0  0  0  0  0  0
   -4.7192    1.1682   -1.6549 H   0  0  0  0  0  0  0  0  0  0  0  0
   -4.6352    4.0886   -2.6221 H   0  0  0  0  0  0  0  0  0  0  0  0
   -4.0976    2.6887   -3.5582 H   0  0  0  0  0  0  0  0  0  0  0  0
   -5.8111    2.8719   -3.1387 H   0  0  0  0  0  0  0  0  0  0  0  0
   -2.2466    1.5400   -1.4507 N   0  0  0  0  0  0  0  0  0  0  0  0
   -0.8424    1.5707   -1.1286 C   0  0  2  0  0  0  0  0  0  0  0  0
   -0.6309    2.4880    0.0742 C   0  0  0  0  0  0  0  0  0  0  0  0
   -0.6860    2.0915    1.2366 O   0  0  0  0  0  0  0  0  0  0  0  0
    0.0240    1.9417   -2.3346 C   0  0  0  0  0  0  0  0  0  0  0  0
   -0.0225    0.7208   -3.6688 S   0  0  0  0  0  0  0  0  0  0  0  0
   -2.5850    0.7815   -2.0381 H   0  0  0  0  0  0  0  0  0  0  0  0
   -0.5896    0.5502   -0.8151 H   0  0  0  0  0  0  0  0  0  0  0  0
   -0.2949    2.9003   -2.7567 H   0  0  0  0  0  0  0  0  0  0  0  0
    1.0691    2.0486   -2.0245 H   0  0  0  0  0  0  0  0  0  0  0  0
   -0.3987    3.8030   -0.3031 N   0  0  0  0  0  0  0  0  0  0  0  0
   -0.1934    4.8638    0.6553 C   0  0  2  0  0  0  0  0  0  0  0  0
   -0.7568    6.1486    0.0626 C   0  0  0  0  0  0  0  0  0  0  0  0
   -0.7215    6.4048   -1.1391 O   0  0  0  0  0  0  0  0  0  0  0  0
    1.2798    5.0231    0.9972 C   0  0  0  0  0  0  0  0  0  0  0  0
   -0.3267    4.0350   -1.2893 H   0  0  0  0  0  0  0  0  0  0  0  0
   -0.7623    4.5944    1.5519 H   0  0  0  0  0  0  0  0  0  0  0  0
    1.8659    5.2931    0.1112 H   0  0  0  0  0  0  0  0  0  0  0  0
    1.4308    5.8084    1.7452 H   0  0  0  0  0  0  0  0  0  0  0  0
    1.6907    4.0892    1.3956 H   0  0  0  0  0  0  0  0  0  0  0  0
   -1.2646    6.9947    1.0385 N   0  0  0  0  0  0  0  0  0  0  0  0
   -1.8168    8.2940    0.7334 C   0  0  0  0  0  0  0  0  0  0  0  0
   -1.2897    6.6842    2.0053 H   0  0  0  0  0  0  0  0  0  0  0  0
   -1.0291    9.0570    0.8189 H   0  0  0  0  0  0  0  0  0  0  0  0
   -2.2150    8.2914   -0.2920 H   0  0  0  0  0  0  0  0  0  0  0  0
   -2.6274    8.5231    1.4410 H   0  0  0  0  0  0  0  0  0  0  0  0
  1  3  1  0  0  0  0
  1  7  1  0  0  0  0
  1  2  2  0  0  0  0
 23 25  1  0  0  0  0
 23 29  1  0  0  0  0
 23 24  2  0  0  0  0
 50 51  1  0  0  0  0
 51 59  1  0  0  0  0
 51 52  2  0  0  0  0
  8  9  1  0  0  0  0
  9 17  1  0  0  0  0
  9 10  2  0  0  0  0
 30 31  1  0  0  0  0
 31 39  1  0  0  0  0
 31 32  2  0  0  0  0
 40 41  1  0  0  0  0
 41 49  1  0  0  0  0
 41 42  2  0  0  0  0
 50 53  1  0  0  0  0
 30 33  1  0  0  0  0
 59 60  1  0  0  0  0
 17 18  1  0  0  0  0
  8 11  1  0  0  0  0
 11 12  1  0  0  0  0
 40 43  1  0  0  0  0
 43 44  1  0  0  0  0
 49 50  1  0  0  0  0
  7  8  1  0  0  0  0
 29 30  1  0  0  0  0
 39 40  1  0  0  0  0
 12 44  1  0  0  0  0
  3  4  1  0  0  0  0
  3  5  1  0  0  0  0
  3  6  1  0  0  0  0
 25 26  1  0  0  0  0
 25 27  1  0  0  0  0
 25 28  1  0  0  0  0
 53 56  1  0  0  0  0
 53 57  1  0  0  0  0
 53 58  1  0  0  0  0
 33 36  1  0  0  0  0
 33 37  1  0  0  0  0
 33 38  1  0  0  0  0
 60 62  1  0  0  0  0
 60 63  1  0  0  0  0
 60 64  1  0  0  0  0
 18 20  1  0  0  0  0
 18 21  1  0  0  0  0
 18 22  1  0  0  0  0
 11 15  1  0  0  0  0
 11 16  1  0  0  0  0
 43 47  1  0  0  0  0
 43 48  1  0  0  0  0
 50 55  1  0  0  0  0
  8 14  1  0  0  0  0
 30 35  1  0  0  0  0
 40 46  1  0  0  0  0
 59 61  1  0  0  0  0
 17 19  1  0  0  0  0
  7 13  1  0  0  0  0
 29 34  1  0  0  0  0
 49 54  1  0  0  0  0
 39 45  1  0  0  0  0
M  END
$$$$

  -OEChem-05262214473D

 64 63  0     1  0  0  0  0  0999 V2000
    0.6173    1.9685   -9.2458 C   0  0  0  0  0  0  0  0  0  0  0  0
   -0.5582    2.1845   -9.5164 O   0  0  0  0  0  0  0  0  0  0  0  0
    1.4276    1.0867  -10.1368 C   0  0  0  0  0  0  0  0  0  0  0  0
    1.3811    0.0278   -9.8357 H   0  0  0  0  0  0  0  0  0  0  0  0
    1.0770    1.1079  -11.1812 H   0  0  0  0  0  0  0  0  0  0  0  0
    2.5017    1.3267  -10.1871 H   0  0  0  0  0  0  0  0  0  0  0  0
    1.3139    2.4717   -8.1606 N   0  0  0  0  0  0  0  0  0  0  0  0
    0.7237    3.3441   -7.1772 C   0  0  2  0  0  0  0  0  0  0  0  0
    1.7786    4.3426   -6.7053 C   0  0  0  0  0  0  0  0  0  0  0  0
    2.9570    4.2852   -7.0508 O   0  0  0  0  0  0  0  0  0  0  0  0
    0.0651    2.5704   -6.0324 C   0  0  0  0  0  0  0  0  0  0  0  0
    1.2330    1.5677   -5.0561 S   0  0  0  0  0  0  0  0  0  0  0  0
    2.2918    2.2125   -8.0518 H   0  0  0  0  0  0  0  0  0  0  0  0
   -0.0510    3.9084   -7.7110 H   0  0  0  0  0  0  0  0  0  0  0  0
   -0.4338    3.2574   -5.3412 H   0  0  0  0  0  0  0  0  0  0  0  0
   -0.6966    1.8913   -6.4306 H   0  0  0  0  0  0  0  0  0  0  0  0
    1.2544    5.2880   -5.8352 N   0  0  0  0  0  0  0  0  0  0  0  0
    2.0602    6.3246   -5.2336 C   0  0  0  0  0  0  0  0  0  0  0  0
    0.2581    5.2874   -5.6374 H   0  0  0  0  0  0  0  0  0  0  0  0
    2.4292    5.9818   -4.2556 H   0  0  0  0  0  0  0  0  0  0  0  0
    2.9143    6.5514   -5.8886 H   0  0  0  0  0  0  0  0  0  0  0  0
    1.4510    7.2305   -5.0984 H   0  0  0  0  0  0  0  0  0  0  0  0
   -6.7256    2.0330   -0.2766 C   0  0  0  0  0  0  0  0  0  0  0  0
   -7.1824    1.1039   -0.9322 O   0  0  0  0  0  0  0  0  0  0  0  0
   -7.5276    2.6077    0.8435 C   0  0  0  0  0  0  0  0  0  0  0  0
   -8.1775    3.4344    0.5145 H   0  0  0  0  0  0  0  0  0  0  0  0
   -8.2057    1.8676    1.2980 H   0  0  0  0  0  0  0  0  0  0  0  0
   -6.9411    3.0162    1.6819 H   0  0  0  0  0  0  0  0  0  0  0  0
   -5.4935    2.6382   -0.4627 N   0  0  0  0  0  0  0  0  0  0  0  0
   -4.5619    2.2388   -1.4845 C   0  0  2  0  0  0  0  0  0  0  0  0
   -3.1535    2.4674   -0.9521 C   0  0  0  0  0  0  0  0  0  0  0  0
   -2.8634    3.3945   -0.1987 O   0  0  0  0  0  0  0  0  0  0  0  0
   -4.7883    3.0138   -2.7732 C   0  0  0  0  0  0  0  0  0  0  0  0
   -5.2337    3.4049    0.1551 H   0  0  0  0  0  0  0  0  0  0  0  0
   -4.7192    1.1682   -1.6549 H   0  0  0  0  0  0  0  0  0  0  0  0
   -4.6352    4.0886   -2.6221 H   0  0  0  0  0  0  0  0  0  0  0  0
   -4.0976    2.6887   -3.5582 H   0  0  0  0  0  0  0  0  0  0  0  0
   -5.8111    2.8719   -3.1387 H   0  0  0  0  0  0  0  0  0  0  0  0
   -2.2466    1.5400   -1.4507 N   0  0  0  0  0  0  0  0  0  0  0  0
   -0.8424    1.5707   -1.1286 C   0  0  2  0  0  0  0  0  0  0  0  0
   -0.6309    2.4880    0.0742 C   0  0  0  0  0  0  0  0  0  0  0  0
   -0.4194    2.0659    1.2093 O   0  0  0  0  0  0  0  0  0  0  0  0
    0.0240    1.9417   -2.3346 C   0  0  0  0  0  0  0  0  0  0  0  0
   -0.0225    0.7208   -3.6688 S   0  0  0  0  0  0  0  0  0  0  0  0
   -2.5850    0.7815   -2.0381 H   0  0  0  0  0  0  0  0  0  0  0  0
   -0.5896    0.5502   -0.8151 H   0  0  0  0  0  0  0  0  0  0  0  0
   -0.2949    2.9003   -2.7567 H   0  0  0  0  0  0  0  0  0  0  0  0
    1.0691    2.0486   -2.0245 H   0  0  0  0  0  0  0  0  0  0  0  0
   -0.7308    3.8298   -0.2651 N   0  0  0  0  0  0  0  0  0  0  0  0
   -0.5930    4.8910    0.7049 C   0  0  2  0  0  0  0  0  0  0  0  0
   -1.4901    6.0431    0.2721 C   0  0  0  0  0  0  0  0  0  0  0  0
   -1.6988    6.3247   -0.9061 O   0  0  0  0  0  0  0  0  0  0  0  0
    0.8533    5.3445    0.8271 C   0  0  0  0  0  0  0  0  0  0  0  0
   -0.8648    4.0910   -1.2375 H   0  0  0  0  0  0  0  0  0  0  0  0
   -0.9460    4.4922    1.6622 H   0  0  0  0  0  0  0  0  0  0  0  0
    1.2246    5.7472   -0.1224 H   0  0  0  0  0  0  0  0  0  0  0  0
    0.9605    6.1292    1.5833 H   0  0  0  0  0  0  0  0  0  0  0  0
    1.5016    4.5080    1.1094 H   0  0  0  0  0  0  0  0  0  0  0  0
   -1.9957    6.7466    1.3563 N   0  0  0  0  0  0  0  0  0  0  0  0
   -2.8392    7.9094    1.2065 C   0  0  0  0  0  0  0  0  0  0  0  0
   -1.8037    6.4186    2.2983 H   0  0  0  0  0  0  0  0  0  0  0  0
   -2.2175    8.8169    1.2110 H   0  0  0  0  0  0  0  0  0  0  0  0
   -3.3867    7.8449    0.2547 H   0  0  0  0  0  0  0  0  0  0  0  0
   -3.5560    7.9521    2.0398 H   0  0  0  0  0  0  0  0  0  0  0  0
  1  3  1  0  0  0  0
  1  7  1  0  0  0  0
  1  2  2  0  0  0  0
 23 25  1  0  0  0  0
 23 29  1  0  0  0  0
 23 24  2  0  0  0  0
 50 51  1  0  0  0  0
 51 59  1  0  0  0  0
 51 52  2  0  0  0  0
  8  9  1  0  0  0  0
  9 17  1  0  0  0  0
  9 10  2  0  0  0  0
 30 31  1  0  0  0  0
 31 39  1  0  0  0  0
 31 32  2  0  0  0  0
 40 41  1  0  0  0  0
 41 49  1  0  0  0  0
 41 42  2  0  0  0  0
 50 53  1  0  0  0  0
 30 33  1  0  0  0  0
 59 60  1  0  0  0  0
 17 18  1  0  0  0  0
  8 11  1  0  0  0  0
 11 12  1  0  0  0  0
 40 43  1  0  0  0  0
 43 44  1  0  0  0  0
 49 50  1  0  0  0  0
  7  8  1  0  0  0  0
 29 30  1  0  0  0  0
 39 40  1  0  0  0  0
 12 44  1  0  0  0  0
  3  4  1  0  0  0  0
  3  5  1  0  0  0  0
  3  6  1  0  0  0  0
 25 26  1  0  0  0  0
 25 27  1  0  0  0  0
 25 28  1  0  0  0  0
 53 56  1  0  0  0  0
 53 57  1  0  0  0  0
 53 58  1  0  0  0  0
 33 36  1  0  0  0  0
 33 37  1  0  0  0  0
 33 38  1  0  0  0  0
 60 62  1  0  0  0  0
 60 63  1  0  0  0  0
 60 64  1  0  0  0  0
 18 20  1  0  0  0  0
 18 21  1  0  0  0  0
 18 22  1  0  0  0  0
 11 15  1  0  0  0  0
 11 16  1  0  0  0  0
 43 47  1  0  0  0  0
 43 48  1  0  0  0  0
 50 55  1  0  0  0  0
  8 14  1  0  0  0  0
 30 35  1  0  0  0  0
 40 46  1  0  0  0  0
 59 61  1  0  0  0  0
 17 19  1  0  0  0  0
  7 13  1  0  0  0  0
 29 34  1  0  0  0  0
 49 54  1  0  0  0  0
 39 45  1  0  0  0  0
M  END
$$$$

  -OEChem-05262214473D

 64 63  0     1  0  0  0  0  0999 V2000
    0.6173    1.9685   -9.2458 C   0  0  0  0  0  0  0  0  0  0  0  0
   -0.5582    2.1845   -9.5164 O   0  0  0  0  0  0  0  0  0  0  0  0
    1.4276    1.0867  -10.1368 C   0  0  0  0  0  0  0  0  0  0  0  0
    1.3811    0.0278   -9.8357 H   0  0  0  0  0  0  0  0  0  0  0  0
    1.0770    1.1079  -11.1812 H   0  0  0  0  0  0  0  0  0  0  0  0
    2.5017    1.3267  -10.1871 H   0  0  0  0  0  0  0  0  0  0  0  0
    1.3139    2.4717   -8.1606 N   0  0  0  0  0  0  0  0  0  0  0  0
    0.7237    3.3441   -7.1772 C   0  0  2  0  0  0  0  0  0  0  0  0
    1.7786    4.3426   -6.7053 C   0  0  0  0  0  0  0  0  0  0  0  0
    2.9570    4.2852   -7.0508 O   0  0  0  0  0  0  0  0  0  0  0  0
    0.0651    2.5704   -6.0324 C   0  0  0  0  0  0  0  0  0  0  0  0
    1.2330    1.5677   -5.0561 S   0  0  0  0  0  0  0  0  0  0  0  0
    2.2918    2.2125   -8.0518 H   0  0  0  0  0  0  0  0  0  0  0  0
   -0.0510    3.9084   -7.7110 H   0  0  0  0  0  0  0  0  0  0  0  0
   -0.4338    3.2574   -5.3412 H   0  0  0  0  0  0  0  0  0  0  0  0
   -0.6966    1.8913   -6.4306 H   0  0  0  0  0  0  0  0  0  0  0  0
    1.2544    5.2880   -5.8352 N   0  0  0  0  0  0  0  0  0  0  0  0
    2.0602    6.3246   -5.2336 C   0  0  0  0  0  0  0  0  0  0  0  0
    0.2581    5.2874   -5.6374 H   0  0  0  0  0  0  0  0  0  0  0  0
    2.4292    5.9818   -4.2556 H   0  0  0  0  0  0  0  0  0  0  0  0
    2.9143    6.5514   -5.8886 H   0  0  0  0  0  0  0  0  0  0  0  0
    1.4510    7.2305   -5.0984 H   0  0  0  0  0  0  0  0  0  0  0  0
   -6.7256    2.0330   -0.2766 C   0  0  0  0  0  0  0  0  0  0  0  0
   -7.1824    1.1039   -0.9322 O   0  0  0  0  0  0  0  0  0  0  0  0
   -7.5276    2.6077    0.8435 C   0  0  0  0  0  0  0  0  0  0  0  0
   -8.1775    3.4344    0.5145 H   0  0  0  0  0  0  0  0  0  0  0  0
   -8.2057    1.8676    1.2980 H   0  0  0  0  0  0  0  0  0  0  0  0
   -6.9411    3.0162    1.6819 H   0  0  0  0  0  0  0  0  0  0  0  0
   -5.4935    2.6382   -0.4627 N   0  0  0  0  0  0  0  0  0  0  0  0
   -4.5619    2.2388   -1.4845 C   0  0  2  0  0  0  0  0  0  0  0  0
   -3.1535    2.4674   -0.9521 C   0  0  0  0  0  0  0  0  0  0  0  0
   -2.8634    3.3945   -0.1987 O   0  0  0  0  0  0  0  0  0  0  0  0
   -4.7883    3.0138   -2.7732 C   0  0  0  0  0  0  0  0  0  0  0  0
   -5.2337    3.4049    0.1551 H   0  0  0  0  0  0  0  0  0  0  0  0
   -4.7192    1.1682   -1.6549 H   0  0  0  0  0  0  0  0  0  0  0  0
   -4.6352    4.0886   -2.6221 H   0  0  0  0  0  0  0  0  0  0  0  0
   -4.0976    2.6887   -3.5582 H   0  0  0  0  0  0  0  0  0  0  0  0
   -5.8111    2.8719   -3.1387 H   0  0  0  0  0  0  0  0  0  0  0  0
   -2.2466    1.5400   -1.4507 N   0  0  0  0  0  0  0  0  0  0  0  0
   -0.8424    1.5707   -1.1286 C   0  0  2  0  0  0  0  0  0  0  0  0
   -0.6309    2.4880    0.0742 C   0  0  0  0  0  0  0  0  0  0  0  0
   -0.1610    2.0964    1.1406 O   0  0  0  0  0  0  0  0  0  0  0  0
    0.0240    1.9417   -2.3346 C   0  0  0  0  0  0  0  0  0  0  0  0
   -0.0225    0.7208   -3.6688 S   0  0  0  0  0  0  0  0  0  0  0  0
   -2.5850    0.7815   -2.0381 H   0  0  0  0  0  0  0  0  0  0  0  0
   -0.5896    0.5502   -0.8151 H   0  0  0  0  0  0  0  0  0  0  0  0
   -0.2949    2.9003   -2.7567 H   0  0  0  0  0  0  0  0  0  0  0  0
    1.0691    2.0486   -2.0245 H   0  0  0  0  0  0  0  0  0  0  0  0
   -1.0511    3.7866   -0.1758 N   0  0  0  0  0  0  0  0  0  0  0  0
   -0.9769    4.8340    0.8158 C   0  0  2  0  0  0  0  0  0  0  0  0
   -2.1444    5.7842    0.5846 C   0  0  0  0  0  0  0  0  0  0  0  0
   -2.5902    6.0398   -0.5321 O   0  0  0  0  0  0  0  0  0  0  0  0
    0.3495    5.5742    0.7406 C   0  0  0  0  0  0  0  0  0  0  0  0
   -1.3879    4.0336   -1.1017 H   0  0  0  0  0  0  0  0  0  0  0  0
   -1.0856    4.3521    1.7935 H   0  0  0  0  0  0  0  0  0  0  0  0
    0.4763    6.0635   -0.2320 H   0  0  0  0  0  0  0  0  0  0  0  0
    0.4157    6.3490    1.5115 H   0  0  0  0  0  0  0  0  0  0  0  0
    1.1891    4.8842    0.8774 H   0  0  0  0  0  0  0  0  0  0  0  0
   -2.6019    6.3465    1.7681 N   0  0  0  0  0  0  0  0  0  0  0  0
   -3.6747    7.3126    1.8086 C   0  0  0  0  0  0  0  0  0  0  0  0
   -2.2004    6.0467    2.6517 H   0  0  0  0  0  0  0  0  0  0  0  0
   -3.2555    8.3287    1.7659 H   0  0  0  0  0  0  0  0  0  0  0  0
   -4.3425    7.1551    0.9488 H   0  0  0  0  0  0  0  0  0  0  0  0
   -4.2436    7.1898    2.7420 H   0  0  0  0  0  0  0  0  0  0  0  0
  1  3  1  0  0  0  0
  1  7  1  0  0  0  0
  1  2  2  0  0  0  0
 23 25  1  0  0  0  0
 23 29  1  0  0  0  0
 23 24  2  0  0  0  0
 50 51  1  0  0  0  0
 51 59  1  0  0  0  0
 51 52  2  0  0  0  0
  8  9  1  0  0  0  0
  9 17  1  0  0  0  0
  9 10  2  0  0  0  0
 30 31  1  0  0  0  0
 31 39  1  0  0  0  0
 31 32  2  0  0  0  0
 40 41  1  0  0  0  0
 41 49  1  0  0  0  0
 41 42  2  0  0  0  0
 50 53  1  0  0  0  0
 30 33  1  0  0  0  0
 59 60  1  0  0  0  0
 17 18  1  0  0  0  0
  8 11  1  0  0  0  0
 11 12  1  0  0  0  0
 40 43  1  0  0  0  0
 43 44  1  0  0  0  0
 49 50  1  0  0  0  0
  7  8  1  0  0  0  0
 29 30  1  0  0  0  0
 39 40  1  0  0  0  0
 12 44  1  0  0  0  0
  3  4  1  0  0  0  0
  3  5  1  0  0  0  0
  3  6  1  0  0  0  0
 25 26  1  0  0  0  0
 25 27  1  0  0  0  0
 25 28  1  0  0  0  0
 53 56  1  0  0  0  0
 53 57  1  0  0  0  0
 53 58  1  0  0  0  0
 33 36  1  0  0  0  0
 33 37  1  0  0  0  0
 33 38  1  0  0  0  0
 60 62  1  0  0  0  0
 60 63  1  0  0  0  0
 60 64  1  0  0  0  0
 18 20  1  0  0  0  0
 18 21  1  0  0  0  0
 18 22  1  0  0  0  0
 11 15  1  0  0  0  0
 11 16  1  0  0  0  0
 43 47  1  0  0  0  0
 43 48  1  0  0  0  0
 50 55  1  0  0  0  0
  8 14  1  0  0  0  0
 30 35  1  0  0  0  0
 40 46  1  0  0  0  0
 59 61  1  0  0  0  0
 17 19  1  0  0  0  0
  7 13  1  0  0  0  0
 29 34  1  0  0  0  0
 49 54  1  0  0  0  0
 39 45  1  0  0  0  0
M  END
$$$$

  -OEChem-05262214473D

 64 63  0     1  0  0  0  0  0999 V2000
    0.6173    1.9685   -9.2458 C   0  0  0  0  0  0  0  0  0  0  0  0
   -0.5582    2.1845   -9.5164 O   0  0  0  0  0  0  0  0  0  0  0  0
    1.4276    1.0867  -10.1368 C   0  0  0  0  0  0  0  0  0  0  0  0
    1.3811    0.0278   -9.8357 H   0  0  0  0  0  0  0  0  0  0  0  0
    1.0770    1.1079  -11.1812 H   0  0  0  0  0  0  0  0  0  0  0  0
    2.5017    1.3267  -10.1871 H   0  0  0  0  0  0  0  0  0  0  0  0
    1.3139    2.4717   -8.1606 N   0  0  0  0  0  0  0  0  0  0  0  0
    0.7237    3.3441   -7.1772 C   0  0  2  0  0  0  0  0  0  0  0  0
    1.7786    4.3426   -6.7053 C   0  0  0  0  0  0  0  0  0  0  0  0
    2.9570    4.2852   -7.0508 O   0  0  0  0  0  0  0  0  0  0  0  0
    0.0651    2.5704   -6.0324 C   0  0  0  0  0  0  0  0  0  0  0  0
    1.2330    1.5677   -5.0561 S   0  0  0  0  0  0  0  0  0  0  0  0
    2.2918    2.2125   -8.0518 H   0  0  0  0  0  0  0  0  0  0  0  0
   -0.0510    3.9084   -7.7110 H   0  0  0  0  0  0  0  0  0  0  0  0
   -0.4338    3.2574   -5.3412 H   0  0  0  0  0  0  0  0  0  0  0  0
   -0.6966    1.8913   -6.4306 H   0  0  0  0  0  0  0  0  0  0  0  0
    1.2544    5.2880   -5.8352 N   0  0  0  0  0  0  0  0  0  0  0  0
    2.0602    6.3246   -5.2336 C   0  0  0  0  0  0  0  0  0  0  0  0
    0.2581    5.2874   -5.6374 H   0  0  0  0  0  0  0  0  0  0  0  0
    2.4292    5.9818   -4.2556 H   0  0  0  0  0  0  0  0  0  0  0  0
    2.9143    6.5514   -5.8886 H   0  0  0  0  0  0  0  0  0  0  0  0
    1.4510    7.2305   -5.0984 H   0  0  0  0  0  0  0  0  0  0  0  0
   -6.7256    2.0330   -0.2766 C   0  0  0  0  0  0  0  0  0  0  0  0
   -7.1824    1.1039   -0.9322 O   0  0  0  0  0  0  0  0  0  0  0  0
   -7.5276    2.6077    0.8435 C   0  0  0  0  0  0  0  0  0  0  0  0
   -8.1775    3.4344    0.5145 H   0  0  0  0  0  0  0  0  0  0  0  0
   -8.2057    1.8676    1.2980 H   0  0  0  0  0  0  0  0  0  0  0  0
   -6.9411    3.0162    1.6819 H   0  0  0  0  0  0  0  0  0  0  0  0
   -5.4935    2.6382   -0.4627 N   0  0  0  0  0  0  0  0  0  0  0  0
   -4.5619    2.2388   -1.4845 C   0  0  2  0  0  0  0  0  0  0  0  0
   -3.1535    2.4674   -0.9521 C   0  0  0  0  0  0  0  0  0  0  0  0
   -2.8634    3.3945   -0.1987 O   0  0  0  0  0  0  0  0  0  0  0  0
   -4.7883    3.0138   -2.7732 C   0  0  0  0  0  0  0  0  0  0  0  0
   -5.2337    3.4049    0.1551 H   0  0  0  0  0  0  0  0  0  0  0  0
   -4.7192    1.1682   -1.6549 H   0  0  0  0  0  0  0  0  0  0  0  0
   -4.6352    4.0886   -2.6221 H   0  0  0  0  0  0  0  0  0  0  0  0
   -4.0976    2.6887   -3.5582 H   0  0  0  0  0  0  0  0  0  0  0  0
   -5.8111    2.8719   -3.1387 H   0  0  0  0  0  0  0  0  0  0  0  0
   -2.2466    1.5400   -1.4507 N   0  0  0  0  0  0  0  0  0  0  0  0
   -0.8424    1.5707   -1.1286 C   0  0  2  0  0  0  0  0  0  0  0  0
   -0.6309    2.4880    0.0742 C   0  0  0  0  0  0  0  0  0  0  0  0
    0.0717    2.1810    1.0351 O   0  0  0  0  0  0  0  0  0  0  0  0
    0.0240    1.9417   -2.3346 C   0  0  0  0  0  0  0  0  0  0  0  0
   -0.0225    0.7208   -3.6688 S   0  0  0  0  0  0  0  0  0  0  0  0
   -2.5850    0.7815   -2.0381 H   0  0  0  0  0  0  0  0  0  0  0  0
   -0.5896    0.5502   -0.8151 H   0  0  0  0  0  0  0  0  0  0  0  0
   -0.2949    2.9003   -2.7567 H   0  0  0  0  0  0  0  0  0  0  0  0
    1.0691    2.0486   -2.0245 H   0  0  0  0  0  0  0  0  0  0  0  0
   -1.3379    3.6764   -0.0414 N   0  0  0  0  0  0  0  0  0  0  0  0
   -1.3188    4.6968    0.9806 C   0  0  2  0  0  0  0  0  0  0  0  0
   -2.6750    5.3896    0.9789 C   0  0  0  0  0  0  0  0  0  0  0  0
   -3.3351    5.5695   -0.0424 O   0  0  0  0  0  0  0  0  0  0  0  0
   -0.1975    5.6964    0.7436 C   0  0  0  0  0  0  0  0  0  0  0  0
   -1.8604    3.8667   -0.8913 H   0  0  0  0  0  0  0  0  0  0  0  0
   -1.1713    4.1836    1.9371 H   0  0  0  0  0  0  0  0  0  0  0  0
   -0.3281    6.2204   -0.2103 H   0  0  0  0  0  0  0  0  0  0  0  0
   -0.1664    6.4528    1.5347 H   0  0  0  0  0  0  0  0  0  0  0  0
    0.7746    5.1923    0.7154 H   0  0  0  0  0  0  0  0  0  0  0  0
   -3.0419    5.8217    2.2457 N   0  0  0  0  0  0  0  0  0  0  0  0
   -4.2666    6.5443    2.4987 C   0  0  0  0  0  0  0  0  0  0  0  0
   -2.4530    5.5940    3.0414 H   0  0  0  0  0  0  0  0  0  0  0  0
   -4.0724    7.6258    2.4457 H   0  0  0  0  0  0  0  0  0  0  0  0
   -5.0173    6.2692    1.7431 H   0  0  0  0  0  0  0  0  0  0  0  0
   -4.6432    6.2882    3.5000 H   0  0  0  0  0  0  0  0  0  0  0  0
  1  3  1  0  0  0  0
  1  7  1  0  0  0  0
  1  2  2  0  0  0  0
 23 25  1  0  0  0  0
 23 29  1  0  0  0  0
 23 24  2  0  0  0  0
 50 51  1  0  0  0  0
 51 59  1  0  0  0  0
 51 52  2  0  0  0  0
  8  9  1  0  0  0  0
  9 17  1  0  0  0  0
  9 10  2  0  0  0  0
 30 31  1  0  0  0  0
 31 39  1  0  0  0  0
 31 32  2  0  0  0  0
 40 41  1  0  0  0  0
 41 49  1  0  0  0  0
 41 42  2  0  0  0  0
 50 53  1  0  0  0  0
 30 33  1  0  0  0  0
 59 60  1  0  0  0  0
 17 18  1  0  0  0  0
  8 11  1  0  0  0  0
 11 12  1  0  0  0  0
 40 43  1  0  0  0  0
 43 44  1  0  0  0  0
 49 50  1  0  0  0  0
  7  8  1  0  0  0  0
 29 30  1  0  0  0  0
 39 40  1  0  0  0  0
 12 44  1  0  0  0  0
  3  4  1  0  0  0  0
  3  5  1  0  0  0  0
  3  6  1  0  0  0  0
 25 26  1  0  0  0  0
 25 27  1  0  0  0  0
 25 28  1  0  0  0  0
 53 56  1  0  0  0  0
 53 57  1  0  0  0  0
 53 58  1  0  0  0  0
 33 36  1  0  0  0  0
 33 37  1  0  0  0  0
 33 38  1  0  0  0  0
 60 62  1  0  0  0  0
 60 63  1  0  0  0  0
 60 64  1  0  0  0  0
 18 20  1  0  0  0  0
 18 21  1  0  0  0  0
 18 22  1  0  0  0  0
 11 15  1  0  0  0  0
 11 16  1  0  0  0  0
 43 47  1  0  0  0  0
 43 48  1  0  0  0  0
 50 55  1  0  0  0  0
  8 14  1  0  0  0  0
 30 35  1  0  0  0  0
 40 46  1  0  0  0  0
 59 61  1  0  0  0  0
 17 19  1  0  0  0  0
  7 13  1  0  0  0  0
 29 34  1  0  0  0  0
 49 54  1  0  0  0  0
 39 45  1  0  0  0  0
M  END
$$$$

  -OEChem-05262214473D

 64 63  0     1  0  0  0  0  0999 V2000
    0.6173    1.9685   -9.2458 C   0  0  0  0  0  0  0  0  0  0  0  0
   -0.5582    2.1845   -9.5164 O   0  0  0  0  0  0  0  0  0  0  0  0
    1.4276    1.0867  -10.1368 C   0  0  0  0  0  0  0  0  0  0  0  0
    1.3811    0.0278   -9.8357 H   0  0  0  0  0  0  0  0  0  0  0  0
    1.0770    1.1079  -11.1812 H   0  0  0  0  0  0  0  0  0  0  0  0
    2.5017    1.3267  -10.1871 H   0  0  0  0  0  0  0  0  0  0  0  0
    1.3139    2.4717   -8.1606 N   0  0  0  0  0  0  0  0  0  0  0  0
    0.7237    3.3441   -7.1772 C   0  0  2  0  0  0  0  0  0  0  0  0
    1.7786    4.3426   -6.7053 C   0  0  0  0  0  0  0  0  0  0  0  0
    2.9570    4.2852   -7.0508 O   0  0  0  0  0  0  0  0  0  0  0  0
    0.0651    2.5704   -6.0324 C   0  0  0  0  0  0  0  0  0  0  0  0
    1.2330    1.5677   -5.0561 S   0  0  0  0  0  0  0  0  0  0  0  0
    2.2918    2.2125   -8.0518 H   0  0  0  0  0  0  0  0  0  0  0  0
   -0.0510    3.9084   -7.7110 H   0  0  0  0  0  0  0  0  0  0  0  0
   -0.4338    3.2574   -5.3412 H   0  0  0  0  0  0  0  0  0  0  0  0
   -0.6966    1.8913   -6.4306 H   0  0  0  0  0  0  0  0  0  0  0  0
    1.2544    5.2880   -5.8352 N   0  0  0  0  0  0  0  0  0  0  0  0
    2.0602    6.3246   -5.2336 C   0  0  0  0  0  0  0  0  0  0  0  0
    0.2581    5.2874   -5.6374 H   0  0  0  0  0  0  0  0  0  0  0  0
    2.4292    5.9818   -4.2556 H   0  0  0  0  0  0  0  0  0  0  0  0
    2.9143    6.5514   -5.8886 H   0  0  0  0  0  0  0  0  0  0  0  0
    1.4510    7.2305   -5.0984 H   0  0  0  0  0  0  0  0  0  0  0  0
   -6.7256    2.0330   -0.2766 C   0  0  0  0  0  0  0  0  0  0  0  0
   -7.1824    1.1039   -0.9322 O   0  0  0  0  0  0  0  0  0  0  0  0
   -7.5276    2.6077    0.8435 C   0  0  0  0  0  0  0  0  0  0  0  0
   -8.1775    3.4344    0.5145 H   0  0  0  0  0  0  0  0  0  0  0  0
   -8.2057    1.8676    1.2980 H   0  0  0  0  0  0  0  0  0  0  0  0
   -6.9411    3.0162    1.6819 H   0  0  0  0  0  0  0  0  0  0  0  0
   -5.4935    2.6382   -0.4627 N   0  0  0  0  0  0  0  0  0  0  0  0
   -4.5619    2.2388   -1.4845 C   0  0  2  0  0  0  0  0  0  0  0  0
   -3.1535    2.4674   -0.9521 C   0  0  0  0  0  0  0  0  0  0  0  0
   -2.8634    3.3945   -0.1987 O   0  0  0  0  0  0  0  0  0  0  0  0
   -4.7883    3.0138   -2.7732 C   0  0  0  0  0  0  0  0  0  0  0  0
   -5.2337    3.4049    0.1551 H   0  0  0  0  0  0  0  0  0  0  0  0
   -4.7192    1.1682   -1.6549 H   0  0  0  0  0  0  0  0  0  0  0  0
   -4.6352    4.0886   -2.6221 H   0  0  0  0  0  0  0  0  0  0  0  0
   -4.0976    2.6887   -3.5582 H   0  0  0  0  0  0  0  0  0  0  0  0
   -5.8111    2.8719   -3.1387 H   0  0  0  0  0  0  0  0  0  0  0  0
   -2.2466    1.5400   -1.4507 N   0  0  0  0  0  0  0  0  0  0  0  0
   -0.8424    1.5707   -1.1286 C   0  0  2  0  0  0  0  0  0  0  0  0
   -0.6309    2.4880    0.0742 C   0  0  0  0  0  0  0  0  0  0  0  0
    0.2629    2.3139    0.9001 O   0  0  0  0  0  0  0  0  0  0  0  0
    0.0240    1.9417   -2.3346 C   0  0  0  0  0  0  0  0  0  0  0  0
   -0.0225    0.7208   -3.6688 S   0  0  0  0  0  0  0  0  0  0  0  0
   -2.5850    0.7815   -2.0381 H   0  0  0  0  0  0  0  0  0  0  0  0
   -0.5896    0.5502   -0.8151 H   0  0  0  0  0  0  0  0  0  0  0  0
   -0.2949    2.9003   -2.7567 H   0  0  0  0  0  0  0  0  0  0  0  0
    1.0691    2.0486   -2.0245 H   0  0  0  0  0  0  0  0  0  0  0  0
   -1.5715    3.5067    0.1292 N   0  0  0  0  0  0  0  0  0  0  0  0
   -1.5954    4.4886    1.1880 C   0  0  2  0  0  0  0  0  0  0  0  0
   -3.0459    4.8861    1.4281 C   0  0  0  0  0  0  0  0  0  0  0  0
   -3.8826    4.9459    0.5295 O   0  0  0  0  0  0  0  0  0  0  0  0
   -0.7502    5.7029    0.8358 C   0  0  0  0  0  0  0  0  0  0  0  0
   -2.2501    3.6017   -0.6206 H   0  0  0  0  0  0  0  0  0  0  0  0
   -1.1976    3.9982    2.0831 H   0  0  0  0  0  0  0  0  0  0  0  0
   -1.1336    6.2073   -0.0586 H   0  0  0  0  0  0  0  0  0  0  0  0
   -0.7464    6.4336    1.6513 H   0  0  0  0  0  0  0  0  0  0  0  0
    0.2862    5.4111    0.6344 H   0  0  0  0  0  0  0  0  0  0  0  0
   -3.2857    5.2080    2.7567 N   0  0  0  0  0  0  0  0  0  0  0  0
   -4.5744    5.6568    3.2297 C   0  0  0  0  0  0  0  0  0  0  0  0
   -2.5441    5.0913    3.4408 H   0  0  0  0  0  0  0  0  0  0  0  0
   -4.6126    6.7559    3.2041 H   0  0  0  0  0  0  0  0  0  0  0  0
   -5.3650    5.2475    2.5835 H   0  0  0  0  0  0  0  0  0  0  0  0
   -4.7276    5.3087    4.2618 H   0  0  0  0  0  0  0  0  0  0  0  0
  1  3  1  0  0  0  0
  1  7  1  0  0  0  0
  1  2  2  0  0  0  0
 23 25  1  0  0  0  0
 23 29  1  0  0  0  0
 23 24  2  0  0  0  0
 50 51  1  0  0  0  0
 51 59  1  0  0  0  0
 51 52  2  0  0  0  0
  8  9  1  0  0  0  0
  9 17  1  0  0  0  0
  9 10  2  0  0  0  0
 30 31  1  0  0  0  0
 31 39  1  0  0  0  0
 31 32  2  0  0  0  0
 40 41  1  0  0  0  0
 41 49  1  0  0  0  0
 41 42  2  0  0  0  0
 50 53  1  0  0  0  0
 30 33  1  0  0  0  0
 59 60  1  0  0  0  0
 17 18  1  0  0  0  0
  8 11  1  0  0  0  0
 11 12  1  0  0  0  0
 40 43  1  0  0  0  0
 43 44  1  0  0  0  0
 49 50  1  0  0  0  0
  7  8  1  0  0  0  0
 29 30  1  0  0  0  0
 39 40  1  0  0  0  0
 12 44  1  0  0  0  0
  3  4  1  0  0  0  0
  3  5  1  0  0  0  0
  3  6  1  0  0  0  0
 25 26  1  0  0  0  0
 25 27  1  0  0  0  0
 25 28  1  0  0  0  0
 53 56  1  0  0  0  0
 53 57  1  0  0  0  0
 53 58  1  0  0  0  0
 33 36  1  0  0  0  0
 33 37  1  0  0  0  0
 33 38  1  0  0  0  0
 60 62  1  0  0  0  0
 60 63  1  0  0  0  0
 60 64  1  0  0  0  0
 18 20  1  0  0  0  0
 18 21  1  0  0  0  0
 18 22  1  0  0  0  0
 11 15  1  0  0  0  0
 11 16  1  0  0  0  0
 43 47  1  0  0  0  0
 43 48  1  0  0  0  0
 50 55  1  0  0  0  0
  8 14  1  0  0  0  0
 30 35  1  0  0  0  0
 40 46  1  0  0  0  0
 59 61  1  0  0  0  0
 17 19  1  0  0  0  0
  7 13  1  0  0  0  0
 29 34  1  0  0  0  0
 49 54  1  0  0  0  0
 39 45  1  0  0  0  0
M  END
$$$$

  -OEChem-05262214473D

 64 63  0     1  0  0  0  0  0999 V2000
    0.6173    1.9685   -9.2458 C   0  0  0  0  0  0  0  0  0  0  0  0
   -0.5582    2.1845   -9.5164 O   0  0  0  0  0  0  0  0  0  0  0  0
    1.4276    1.0867  -10.1368 C   0  0  0  0  0  0  0  0  0  0  0  0
    1.3811    0.0278   -9.8357 H   0  0  0  0  0  0  0  0  0  0  0  0
    1.0770    1.1079  -11.1812 H   0  0  0  0  0  0  0  0  0  0  0  0
    2.5017    1.3267  -10.1871 H   0  0  0  0  0  0  0  0  0  0  0  0
    1.3139    2.4717   -8.1606 N   0  0  0  0  0  0  0  0  0  0  0  0
    0.7237    3.3441   -7.1772 C   0  0  2  0  0  0  0  0  0  0  0  0
    1.7786    4.3426   -6.7053 C   0  0  0  0  0  0  0  0  0  0  0  0
    2.9570    4.2852   -7.0508 O   0  0  0  0  0  0  0  0  0  0  0  0
    0.0651    2.5704   -6.0324 C   0  0  0  0  0  0  0  0  0  0  0  0
    1.2330    1.5677   -5.0561 S   0  0  0  0  0  0  0  0  0  0  0  0
    2.2918    2.2125   -8.0518 H   0  0  0  0  0  0  0  0  0  0  0  0
   -0.0510    3.9084   -7.7110 H   0  0  0  0  0  0  0  0  0  0  0  0
   -0.4338    3.2574   -5.3412 H   0  0  0  0  0  0  0  0  0  0  0  0
   -0.6966    1.8913   -6.4306 H   0  0  0  0  0  0  0  0  0  0  0  0
    1.2544    5.2880   -5.8352 N   0  0  0  0  0  0  0  0  0  0  0  0
    2.0602    6.3246   -5.2336 C   0  0  0  0  0  0  0  0  0  0  0  0
    0.2581    5.2874   -5.6374 H   0  0  0  0  0  0  0  0  0  0  0  0
    2.4292    5.9818   -4.2556 H   0  0  0  0  0  0  0  0  0  0  0  0
    2.9143    6.5514   -5.8886 H   0  0  0  0  0  0  0  0  0  0  0  0
    1.4510    7.2305   -5.0984 H   0  0  0  0  0  0  0  0  0  0  0  0
   -6.7256    2.0330   -0.2766 C   0  0  0  0  0  0  0  0  0  0  0  0
   -7.1824    1.1039   -0.9322 O   0  0  0  0  0  0  0  0  0  0  0  0
   -7.5276    2.6077    0.8435 C   0  0  0  0  0  0  0  0  0  0  0  0
   -8.1775    3.4344    0.5145 H   0  0  0  0  0  0  0  0  0  0  0  0
   -8.2057    1.8676    1.2980 H   0  0  0  0  0  0  0  0  0  0  0  0
   -6.9411    3.0162    1.6819 H   0  0  0  0  0  0  0  0  0  0  0  0
   -5.4935    2.6382   -0.4627 N   0  0  0  0  0  0  0  0  0  0  0  0
   -4.5619    2.2388   -1.4845 C   0  0  2  0  0  0  0  0  0  0  0  0
   -3.1535    2.4674   -0.9521 C   0  0  0  0  0  0  0  0  0  0  0  0
   -2.8634    3.3945   -0.1987 O   0  0  0  0  0  0  0  0  0  0  0  0
   -4.7883    3.0138   -2.7732 C   0  0  0  0  0  0  0  0  0  0  0  0
   -5.2337    3.4049    0.1551 H   0  0  0  0  0  0  0  0  0  0  0  0
   -4.7192    1.1682   -1.6549 H   0  0  0  0  0  0  0  0  0  0  0  0
   -4.6352    4.0886   -2.6221 H   0  0  0  0  0  0  0  0  0  0  0  0
   -4.0976    2.6887   -3.5582 H   0  0  0  0  0  0  0  0  0  0  0  0
   -5.8111    2.8719   -3.1387 H   0  0  0  0  0  0  0  0  0  0  0  0
   -2.2466    1.5400   -1.4507 N   0  0  0  0  0  0  0  0  0  0  0  0
   -0.8424    1.5707   -1.1286 C   0  0  2  0  0  0  0  0  0  0  0  0
   -0.6309    2.4880    0.0742 C   0  0  0  0  0  0  0  0  0  0  0  0
    0.3995    2.4861    0.7448 O   0  0  0  0  0  0  0  0  0  0  0  0
    0.0240    1.9417   -2.3346 C   0  0  0  0  0  0  0  0  0  0  0  0
   -0.0225    0.7208   -3.6688 S   0  0  0  0  0  0  0  0  0  0  0  0
   -2.5850    0.7815   -2.0381 H   0  0  0  0  0  0  0  0  0  0  0  0
   -0.5896    0.5502   -0.8151 H   0  0  0  0  0  0  0  0  0  0  0  0
   -0.2949    2.9003   -2.7567 H   0  0  0  0  0  0  0  0  0  0  0  0
    1.0691    2.0486   -2.0245 H   0  0  0  0  0  0  0  0  0  0  0  0
   -1.7361    3.2891    0.3241 N   0  0  0  0  0  0  0  0  0  0  0  0
   -1.7880    4.2237    1.4239 C   0  0  2  0  0  0  0  0  0  0  0  0
   -3.2317    4.3081    1.9016 C   0  0  0  0  0  0  0  0  0  0  0  0
   -4.1954    4.2114    1.1447 O   0  0  0  0  0  0  0  0  0  0  0  0
   -1.2712    5.5931    1.0111 C   0  0  0  0  0  0  0  0  0  0  0  0
   -2.5304    3.2565   -0.3081 H   0  0  0  0  0  0  0  0  0  0  0  0
   -1.1624    3.8086    2.2216 H   0  0  0  0  0  0  0  0  0  0  0  0
   -1.8855    6.0250    0.2127 H   0  0  0  0  0  0  0  0  0  0  0  0
   -1.2845    6.2927    1.8534 H   0  0  0  0  0  0  0  0  0  0  0  0
   -0.2428    5.5259    0.6399 H   0  0  0  0  0  0  0  0  0  0  0  0
   -3.3167    4.5472    3.2661 N   0  0  0  0  0  0  0  0  0  0  0  0
   -4.5773    4.7106    3.9518 C   0  0  0  0  0  0  0  0  0  0  0  0
   -2.4675    4.5728    3.8228 H   0  0  0  0  0  0  0  0  0  0  0  0
   -4.8391    5.7783    3.9895 H   0  0  0  0  0  0  0  0  0  0  0  0
   -5.3620    4.1596    3.4127 H   0  0  0  0  0  0  0  0  0  0  0  0
   -4.4911    4.3180    4.9758 H   0  0  0  0  0  0  0  0  0  0  0  0
  1  3  1  0  0  0  0
  1  7  1  0  0  0  0
  1  2  2  0  0  0  0
 23 25  1  0  0  0  0
 23 29  1  0  0  0  0
 23 24  2  0  0  0  0
 50 51  1  0  0  0  0
 51 59  1  0  0  0  0
 51 52  2  0  0  0  0
  8  9  1  0  0  0  0
  9 17  1  0  0  0  0
  9 10  2  0  0  0  0
 30 31  1  0  0  0  0
 31 39  1  0  0  0  0
 31 32  2  0  0  0  0
 40 41  1  0  0  0  0
 41 49  1  0  0  0  0
 41 42  2  0  0  0  0
 50 53  1  0  0  0  0
 30 33  1  0  0  0  0
 59 60  1  0  0  0  0
 17 18  1  0  0  0  0
  8 11  1  0  0  0  0
 11 12  1  0  0  0  0
 40 43  1  0  0  0  0
 43 44  1  0  0  0  0
 49 50  1  0  0  0  0
  7  8  1  0  0  0  0
 29 30  1  0  0  0  0
 39 40  1  0  0  0  0
 12 44  1  0  0  0  0
  3  4  1  0  0  0  0
  3  5  1  0  0  0  0
  3  6  1  0  0  0  0
 25 26  1  0  0  0  0
 25 27  1  0  0  0  0
 25 28  1  0  0  0  0
 53 56  1  0  0  0  0
 53 57  1  0  0  0  0
 53 58  1  0  0  0  0
 33 36  1  0  0  0  0
 33 37  1  0  0  0  0
 33 38  1  0  0  0  0
 60 62  1  0  0  0  0
 60 63  1  0  0  0  0
 60 64  1  0  0  0  0
 18 20  1  0  0  0  0
 18 21  1  0  0  0  0
 18 22  1  0  0  0  0
 11 15  1  0  0  0  0
 11 16  1  0  0  0  0
 43 47  1  0  0  0  0
 43 48  1  0  0  0  0
 50 55  1  0  0  0  0
  8 14  1  0  0  0  0
 30 35  1  0  0  0  0
 40 46  1  0  0  0  0
 59 61  1  0  0  0  0
 17 19  1  0  0  0  0
  7 13  1  0  0  0  0
 29 34  1  0  0  0  0
 49 54  1  0  0  0  0
 39 45  1  0  0  0  0
M  END
$$$$

  -OEChem-05262214473D

 64 63  0     1  0  0  0  0  0999 V2000
    0.6173    1.9685   -9.2458 C   0  0  0  0  0  0  0  0  0  0  0  0
   -0.5582    2.1845   -9.5164 O   0  0  0  0  0  0  0  0  0  0  0  0
    1.4276    1.0867  -10.1368 C   0  0  0  0  0  0  0  0  0  0  0  0
    1.3811    0.0278   -9.8357 H   0  0  0  0  0  0  0  0  0  0  0  0
    1.0770    1.1079  -11.1812 H   0  0  0  0  0  0  0  0  0  0  0  0
    2.5017    1.3267  -10.1871 H   0  0  0  0  0  0  0  0  0  0  0  0
    1.3139    2.4717   -8.1606 N   0  0  0  0  0  0  0  0  0  0  0  0
    0.7237    3.3441   -7.1772 C   0  0  2  0  0  0  0  0  0  0  0  0
    1.7786    4.3426   -6.7053 C   0  0  0  0  0  0  0  0  0  0  0  0
    2.9570    4.2852   -7.0508 O   0  0  0  0  0  0  0  0  0  0  0  0
    0.0651    2.5704   -6.0324 C   0  0  0  0  0  0  0  0  0  0  0  0
    1.2330    1.5677   -5.0561 S   0  0  0  0  0  0  0  0  0  0  0  0
    2.2918    2.2125   -8.0518 H   0  0  0  0  0  0  0  0  0  0  0  0
   -0.0510    3.9084   -7.7110 H   0  0  0  0  0  0  0  0  0  0  0  0
   -0.4338    3.2574   -5.3412 H   0  0  0  0  0  0  0  0  0  0  0  0
   -0.6966    1.8913   -6.4306 H   0  0  0  0  0  0  0  0  0  0  0  0
    1.2544    5.2880   -5.8352 N   0  0  0  0  0  0  0  0  0  0  0  0
    2.0602    6.3246   -5.2336 C   0  0  0  0  0  0  0  0  0  0  0  0
    0.2581    5.2874   -5.6374 H   0  0  0  0  0  0  0  0  0  0  0  0
    2.4292    5.9818   -4.2556 H   0  0  0  0  0  0  0  0  0  0  0  0
    2.9143    6.5514   -5.8886 H   0  0  0  0  0  0  0  0  0  0  0  0
    1.4510    7.2305   -5.0984 H   0  0  0  0  0  0  0  0  0  0  0  0
   -6.7256    2.0330   -0.2766 C   0  0  0  0  0  0  0  0  0  0  0  0
   -7.1824    1.1039   -0.9322 O   0  0  0  0  0  0  0  0  0  0  0  0
   -7.5276    2.6077    0.8435 C   0  0  0  0  0  0  0  0  0  0  0  0
   -8.1775    3.4344    0.5145 H   0  0  0  0  0  0  0  0  0  0  0  0
   -8.2057    1.8676    1.2980 H   0  0  0  0  0  0  0  0  0  0  0  0
   -6.9411    3.0162    1.6819 H   0  0  0  0  0  0  0  0  0  0  0  0
   -5.4935    2.6382   -0.4627 N   0  0  0  0  0  0  0  0  0  0  0  0
   -4.5619    2.2388   -1.4845 C   0  0  2  0  0  0  0  0  0  0  0  0
   -3.1535    2.4674   -0.9521 C   0  0  0  0  0  0  0  0  0  0  0  0
   -2.8634    3.3945   -0.1987 O   0  0  0  0  0  0  0  0  0  0  0  0
   -4.7883    3.0138   -2.7732 C   0  0  0  0  0  0  0  0  0  0  0  0
   -5.2337    3.4049    0.1551 H   0  0  0  0  0  0  0  0  0  0  0  0
   -4.7192    1.1682   -1.6549 H   0  0  0  0  0  0  0  0  0  0  0  0
   -4.6352    4.0886   -2.6221 H   0  0  0  0  0  0  0  0  0  0  0  0
   -4.0976    2.6887   -3.5582 H   0  0  0  0  0  0  0  0  0  0  0  0
   -5.8111    2.8719   -3.1387 H   0  0  0  0  0  0  0  0  0  0  0  0
   -2.2466    1.5400   -1.4507 N   0  0  0  0  0  0  0  0  0  0  0  0
   -0.8424    1.5707   -1.1286 C   0  0  2  0  0  0  0  0  0  0  0  0
   -0.6309    2.4880    0.0742 C   0  0  0  0  0  0  0  0  0  0  0  0
    0.4722    2.6858    0.5796 O   0  0  0  0  0  0  0  0  0  0  0  0
    0.0240    1.9417   -2.3346 C   0  0  0  0  0  0  0  0  0  0  0  0
   -0.0225    0.7208   -3.6688 S   0  0  0  0  0  0  0  0  0  0  0  0
   -2.5850    0.7815   -2.0381 H   0  0  0  0  0  0  0  0  0  0  0  0
   -0.5896    0.5502   -0.8151 H   0  0  0  0  0  0  0  0  0  0  0  0
   -0.2949    2.9003   -2.7567 H   0  0  0  0  0  0  0  0  0  0  0  0
    1.0691    2.0486   -2.0245 H   0  0  0  0  0  0  0  0  0  0  0  0
   -1.8203    3.0383    0.5302 N   0  0  0  0  0  0  0  0  0  0  0  0
   -1.8834    3.9202    1.6722 C   0  0  2  0  0  0  0  0  0  0  0  0
   -3.2197    3.6950    2.3671 C   0  0  0  0  0  0  0  0  0  0  0  0
   -4.2523    3.4161    1.7612 O   0  0  0  0  0  0  0  0  0  0  0  0
   -1.7247    5.3747    1.2575 C   0  0  0  0  0  0  0  0  0  0  0  0
   -2.6822    2.8548    0.0250 H   0  0  0  0  0  0  0  0  0  0  0  0
   -1.0683    3.6276    2.3430 H   0  0  0  0  0  0  0  0  0  0  0  0
   -2.5324    5.6860    0.5850 H   0  0  0  0  0  0  0  0  0  0  0  0
   -1.7441    6.0396    2.1273 H   0  0  0  0  0  0  0  0  0  0  0  0
   -0.7763    5.5288    0.7315 H   0  0  0  0  0  0  0  0  0  0  0  0
   -3.1328    3.8844    3.7393 N   0  0  0  0  0  0  0  0  0  0  0  0
   -4.2749    3.7702    4.6159 C   0  0  0  0  0  0  0  0  0  0  0  0
   -2.2285    4.0739    4.1612 H   0  0  0  0  0  0  0  0  0  0  0  0
   -4.7366    4.7598    4.7483 H   0  0  0  0  0  0  0  0  0  0  0  0
   -5.0085    3.0797    4.1742 H   0  0  0  0  0  0  0  0  0  0  0  0
   -3.9497    3.3838    5.5931 H   0  0  0  0  0  0  0  0  0  0  0  0
  1  3  1  0  0  0  0
  1  7  1  0  0  0  0
  1  2  2  0  0  0  0
 23 25  1  0  0  0  0
 23 29  1  0  0  0  0
 23 24  2  0  0  0  0
 50 51  1  0  0  0  0
 51 59  1  0  0  0  0
 51 52  2  0  0  0  0
  8  9  1  0  0  0  0
  9 17  1  0  0  0  0
  9 10  2  0  0  0  0
 30 31  1  0  0  0  0
 31 39  1  0  0  0  0
 31 32  2  0  0  0  0
 40 41  1  0  0  0  0
 41 49  1  0  0  0  0
 41 42  2  0  0  0  0
 50 53  1  0  0  0  0
 30 33  1  0  0  0  0
 59 60  1  0  0  0  0
 17 18  1  0  0  0  0
  8 11  1  0  0  0  0
 11 12  1  0  0  0  0
 40 43  1  0  0  0  0
 43 44  1  0  0  0  0
 49 50  1  0  0  0  0
  7  8  1  0  0  0  0
 29 30  1  0  0  0  0
 39 40  1  0  0  0  0
 12 44  1  0  0  0  0
  3  4  1  0  0  0  0
  3  5  1  0  0  0  0
  3  6  1  0  0  0  0
 25 26  1  0  0  0  0
 25 27  1  0  0  0  0
 25 28  1  0  0  0  0
 53 56  1  0  0  0  0
 53 57  1  0  0  0  0
 53 58  1  0  0  0  0
 33 36  1  0  0  0  0
 33 37  1  0  0  0  0
 33 38  1  0  0  0  0
 60 62  1  0  0  0  0
 60 63  1  0  0  0  0
 60 64  1  0  0  0  0
 18 20  1  0  0  0  0
 18 21  1  0  0  0  0
 18 22  1  0  0  0  0
 11 15  1  0  0  0  0
 11 16  1  0  0  0  0
 43 47  1  0  0  0  0
 43 48  1  0  0  0  0
 50 55  1  0  0  0  0
  8 14  1  0  0  0  0
 30 35  1  0  0  0  0
 40 46  1  0  0  0  0
 59 61  1  0  0  0  0
 17 19  1  0  0  0  0
  7 13  1  0  0  0  0
 29 34  1  0  0  0  0
 49 54  1  0  0  0  0
 39 45  1  0  0  0  0
M  END
$$$$

  -OEChem-05262214473D

 64 63  0     1  0  0  0  0  0999 V2000
    0.6173    1.9685   -9.2458 C   0  0  0  0  0  0  0  0  0  0  0  0
   -0.5582    2.1845   -9.5164 O   0  0  0  0  0  0  0  0  0  0  0  0
    1.4276    1.0867  -10.1368 C   0  0  0  0  0  0  0  0  0  0  0  0
    1.3811    0.0278   -9.8357 H   0  0  0  0  0  0  0  0  0  0  0  0
    1.0770    1.1079  -11.1812 H   0  0  0  0  0  0  0  0  0  0  0  0
    2.5017    1.3267  -10.1871 H   0  0  0  0  0  0  0  0  0  0  0  0
    1.3139    2.4717   -8.1606 N   0  0  0  0  0  0  0  0  0  0  0  0
    0.7237    3.3441   -7.1772 C   0  0  2  0  0  0  0  0  0  0  0  0
    1.7786    4.3426   -6.7053 C   0  0  0  0  0  0  0  0  0  0  0  0
    2.9570    4.2852   -7.0508 O   0  0  0  0  0  0  0  0  0  0  0  0
    0.0651    2.5704   -6.0324 C   0  0  0  0  0  0  0  0  0  0  0  0
    1.2330    1.5677   -5.0561 S   0  0  0  0  0  0  0  0  0  0  0  0
    2.2918    2.2125   -8.0518 H   0  0  0  0  0  0  0  0  0  0  0  0
   -0.0510    3.9084   -7.7110 H   0  0  0  0  0  0  0  0  0  0  0  0
   -0.4338    3.2574   -5.3412 H   0  0  0  0  0  0  0  0  0  0  0  0
   -0.6966    1.8913   -6.4306 H   0  0  0  0  0  0  0  0  0  0  0  0
    1.2544    5.2880   -5.8352 N   0  0  0  0  0  0  0  0  0  0  0  0
    2.0602    6.3246   -5.2336 C   0  0  0  0  0  0  0  0  0  0  0  0
    0.2581    5.2874   -5.6374 H   0  0  0  0  0  0  0  0  0  0  0  0
    2.4292    5.9818   -4.2556 H   0  0  0  0  0  0  0  0  0  0  0  0
    2.9143    6.5514   -5.8886 H   0  0  0  0  0  0  0  0  0  0  0  0
    1.4510    7.2305   -5.0984 H   0  0  0  0  0  0  0  0  0  0  0  0
   -6.7256    2.0330   -0.2766 C   0  0  0  0  0  0  0  0  0  0  0  0
   -7.1824    1.1039   -0.9322 O   0  0  0  0  0  0  0  0  0  0  0  0
   -7.5276    2.6077    0.8435 C   0  0  0  0  0  0  0  0  0  0  0  0
   -8.1775    3.4344    0.5145 H   0  0  0  0  0  0  0  0  0  0  0  0
   -8.2057    1.8676    1.2980 H   0  0  0  0  0  0  0  0  0  0  0  0
   -6.9411    3.0162    1.6819 H   0  0  0  0  0  0  0  0  0  0  0  0
   -5.4935    2.6382   -0.4627 N   0  0  0  0  0  0  0  0  0  0  0  0
   -4.5619    2.2388   -1.4845 C   0  0  2  0  0  0  0  0  0  0  0  0
   -3.1535    2.4674   -0.9521 C   0  0  0  0  0  0  0  0  0  0  0  0
   -2.8634    3.3945   -0.1987 O   0  0  0  0  0  0  0  0  0  0  0  0
   -4.7883    3.0138   -2.7732 C   0  0  0  0  0  0  0  0  0  0  0  0
   -5.2337    3.4049    0.1551 H   0  0  0  0  0  0  0  0  0  0  0  0
   -4.7192    1.1682   -1.6549 H   0  0  0  0  0  0  0  0  0  0  0  0
   -4.6352    4.0886   -2.6221 H   0  0  0  0  0  0  0  0  0  0  0  0
   -4.0976    2.6887   -3.5582 H   0  0  0  0  0  0  0  0  0  0  0  0
   -5.8111    2.8719   -3.1387 H   0  0  0  0  0  0  0  0  0  0  0  0
   -2.2466    1.5400   -1.4507 N   0  0  0  0  0  0  0  0  0  0  0  0
   -0.8424    1.5707   -1.1286 C   0  0  2  0  0  0  0  0  0  0  0  0
   -0.6309    2.4880    0.0742 C   0  0  0  0  0  0  0  0  0  0  0  0
    0.4760    2.8995    0.4160 O   0  0  0  0  0  0  0  0  0  0  0  0
    0.0240    1.9417   -2.3346 C   0  0  0  0  0  0  0  0  0  0  0  0
   -0.0225    0.7208   -3.6688 S   0  0  0  0  0  0  0  0  0  0  0  0
   -2.5850    0.7815   -2.0381 H   0  0  0  0  0  0  0  0  0  0  0  0
   -0.5896    0.5502   -0.8151 H   0  0  0  0  0  0  0  0  0  0  0  0
   -0.2949    2.9003   -2.7567 H   0  0  0  0  0  0  0  0  0  0  0  0
    1.0691    2.0486   -2.0245 H   0  0  0  0  0  0  0  0  0  0  0  0
   -1.8186    2.7715    0.7333 N   0  0  0  0  0  0  0  0  0  0  0  0
   -1.8750    3.5987    1.9159 C   0  0  2  0  0  0  0  0  0  0  0  0
   -3.0108    3.0885    2.7929 C   0  0  0  0  0  0  0  0  0  0  0  0
   -4.0493    2.6143    2.3371 O   0  0  0  0  0  0  0  0  0  0  0  0
   -2.0800    5.0624    1.5581 C   0  0  0  0  0  0  0  0  0  0  0  0
   -2.6952    2.4239    0.3559 H   0  0  0  0  0  0  0  0  0  0  0  0
   -0.9216    3.4677    2.4392 H   0  0  0  0  0  0  0  0  0  0  0  0
   -3.0302    5.2133    1.0331 H   0  0  0  0  0  0  0  0  0  0  0  0
   -2.0939    5.6917    2.4541 H   0  0  0  0  0  0  0  0  0  0  0  0
   -1.2780    5.4195    0.9031 H   0  0  0  0  0  0  0  0  0  0  0  0
   -2.7465    3.2646    4.1440 N   0  0  0  0  0  0  0  0  0  0  0  0
   -3.6880    2.8996    5.1766 C   0  0  0  0  0  0  0  0  0  0  0  0
   -1.8434    3.6286    4.4331 H   0  0  0  0  0  0  0  0  0  0  0  0
   -4.3120    3.7697    5.4287 H   0  0  0  0  0  0  0  0  0  0  0  0
   -4.3285    2.0813    4.8161 H   0  0  0  0  0  0  0  0  0  0  0  0
   -3.1405    2.5695    6.0718 H   0  0  0  0  0  0  0  0  0  0  0  0
  1  3  1  0  0  0  0
  1  7  1  0  0  0  0
  1  2  2  0  0  0  0
 23 25  1  0  0  0  0
 23 29  1  0  0  0  0
 23 24  2  0  0  0  0
 50 51  1  0  0  0  0
 51 59  1  0  0  0  0
 51 52  2  0  0  0  0
  8  9  1  0  0  0  0
  9 17  1  0  0  0  0
  9 10  2  0  0  0  0
 30 31  1  0  0  0  0
 31 39  1  0  0  0  0
 31 32  2  0  0  0  0
 40 41  1  0  0  0  0
 41 49  1  0  0  0  0
 41 42  2  0  0  0  0
 50 53  1  0  0  0  0
 30 33  1  0  0  0  0
 59 60  1  0  0  0  0
 17 18  1  0  0  0  0
  8 11  1  0  0  0  0
 11 12  1  0  0  0  0
 40 43  1  0  0  0  0
 43 44  1  0  0  0  0
 49 50  1  0  0  0  0
  7  8  1  0  0  0  0
 29 30  1  0  0  0  0
 39 40  1  0  0  0  0
 12 44  1  0  0  0  0
  3  4  1  0  0  0  0
  3  5  1  0  0  0  0
  3  6  1  0  0  0  0
 25 26  1  0  0  0  0
 25 27  1  0  0  0  0
 25 28  1  0  0  0  0
 53 56  1  0  0  0  0
 53 57  1  0  0  0  0
 53 58  1  0  0  0  0
 33 36  1  0  0  0  0
 33 37  1  0  0  0  0
 33 38  1  0  0  0  0
 60 62  1  0  0  0  0
 60 63  1  0  0  0  0
 60 64  1  0  0  0  0
 18 20  1  0  0  0  0
 18 21  1  0  0  0  0
 18 22  1  0  0  0  0
 11 15  1  0  0  0  0
 11 16  1  0  0  0  0
 43 47  1  0  0  0  0
 43 48  1  0  0  0  0
 50 55  1  0  0  0  0
  8 14  1  0  0  0  0
 30 35  1  0  0  0  0
 40 46  1  0  0  0  0
 59 61  1  0  0  0  0
 17 19  1  0  0  0  0
  7 13  1  0  0  0  0
 29 34  1  0  0  0  0
 49 54  1  0  0  0  0
 39 45  1  0  0  0  0
M  END
$$$$

  -OEChem-05262214473D

 64 63  0     1  0  0  0  0  0999 V2000
    0.6173    1.9685   -9.2458 C   0  0  0  0  0  0  0  0  0  0  0  0
   -0.5582    2.1845   -9.5164 O   0  0  0  0  0  0  0  0  0  0  0  0
    1.4276    1.0867  -10.1368 C   0  0  0  0  0  0  0  0  0  0  0  0
    1.3811    0.0278   -9.8357 H   0  0  0  0  0  0  0  0  0  0  0  0
    1.0770    1.1079  -11.1812 H   0  0  0  0  0  0  0  0  0  0  0  0
    2.5017    1.3267  -10.1871 H   0  0  0  0  0  0  0  0  0  0  0  0
    1.3139    2.4717   -8.1606 N   0  0  0  0  0  0  0  0  0  0  0  0
    0.7237    3.3441   -7.1772 C   0  0  2  0  0  0  0  0  0  0  0  0
    1.7786    4.3426   -6.7053 C   0  0  0  0  0  0  0  0  0  0  0  0
    2.9570    4.2852   -7.0508 O   0  0  0  0  0  0  0  0  0  0  0  0
    0.0651    2.5704   -6.0324 C   0  0  0  0  0  0  0  0  0  0  0  0
    1.2330    1.5677   -5.0561 S   0  0  0  0  0  0  0  0  0  0  0  0
    2.2918    2.2125   -8.0518 H   0  0  0  0  0  0  0  0  0  0  0  0
   -0.0510    3.9084   -7.7110 H   0  0  0  0  0  0  0  0  0  0  0  0
   -0.4338    3.2574   -5.3412 H   0  0  0  0  0  0  0  0  0  0  0  0
   -0.6966    1.8913   -6.4306 H   0  0  0  0  0  0  0  0  0  0  0  0
    1.2544    5.2880   -5.8352 N   0  0  0  0  0  0  0  0  0  0  0  0
    2.0602    6.3246   -5.2336 C   0  0  0  0  0  0  0  0  0  0  0  0
    0.2581    5.2874   -5.6374 H   0  0  0  0  0  0  0  0  0  0  0  0
    2.4292    5.9818   -4.2556 H   0  0  0  0  0  0  0  0  0  0  0  0
    2.9143    6.5514   -5.8886 H   0  0  0  0  0  0  0  0  0  0  0  0
    1.4510    7.2305   -5.0984 H   0  0  0  0  0  0  0  0  0  0  0  0
   -6.7256    2.0330   -0.2766 C   0  0  0  0  0  0  0  0  0  0  0  0
   -7.1824    1.1039   -0.9322 O   0  0  0  0  0  0  0  0  0  0  0  0
   -7.5276    2.6077    0.8435 C   0  0  0  0  0  0  0  0  0  0  0  0
   -8.1775    3.4344    0.5145 H   0  0  0  0  0  0  0  0  0  0  0  0
   -8.2057    1.8676    1.2980 H   0  0  0  0  0  0  0  0  0  0  0  0
   -6.9411    3.0162    1.6819 H   0  0  0  0  0  0  0  0  0  0  0  0
   -5.4935    2.6382   -0.4627 N   0  0  0  0  0  0  0  0  0  0  0  0
   -4.5619    2.2388   -1.4845 C   0  0  2  0  0  0  0  0  0  0  0  0
   -3.1535    2.4674   -0.9521 C   0  0  0  0  0  0  0  0  0  0  0  0
   -2.8634    3.3945   -0.1987 O   0  0  0  0  0  0  0  0  0  0  0  0
   -4.7883    3.0138   -2.7732 C   0  0  0  0  0  0  0  0  0  0  0  0
   -5.2337    3.4049    0.1551 H   0  0  0  0  0  0  0  0  0  0  0  0
   -4.7192    1.1682   -1.6549 H   0  0  0  0  0  0  0  0  0  0  0  0
   -4.6352    4.0886   -2.6221 H   0  0  0  0  0  0  0  0  0  0  0  0
   -4.0976    2.6887   -3.5582 H   0  0  0  0  0  0  0  0  0  0  0  0
   -5.8111    2.8719   -3.1387 H   0  0  0  0  0  0  0  0  0  0  0  0
   -2.2466    1.5400   -1.4507 N   0  0  0  0  0  0  0  0  0  0  0  0
   -0.8424    1.5707   -1.1286 C   0  0  2  0  0  0  0  0  0  0  0  0
   -0.6309    2.4880    0.0742 C   0  0  0  0  0  0  0  0  0  0  0  0
    0.4107    3.1125    0.2650 O   0  0  0  0  0  0  0  0  0  0  0  0
    0.0240    1.9417   -2.3346 C   0  0  0  0  0  0  0  0  0  0  0  0
   -0.0225    0.7208   -3.6688 S   0  0  0  0  0  0  0  0  0  0  0  0
   -2.5850    0.7815   -2.0381 H   0  0  0  0  0  0  0  0  0  0  0  0
   -0.5896    0.5502   -0.8151 H   0  0  0  0  0  0  0  0  0  0  0  0
   -0.2949    2.9003   -2.7567 H   0  0  0  0  0  0  0  0  0  0  0  0
    1.0691    2.0486   -2.0245 H   0  0  0  0  0  0  0  0  0  0  0  0
   -1.7310    2.5069    0.9197 N   0  0  0  0  0  0  0  0  0  0  0  0
   -1.7635    3.2810    2.1386 C   0  0  2  0  0  0  0  0  0  0  0  0
   -2.6192    2.5299    3.1500 C   0  0  0  0  0  0  0  0  0  0  0  0
   -3.6002    1.8605    2.8330 O   0  0  0  0  0  0  0  0  0  0  0  0
   -2.3128    4.6776    1.8925 C   0  0  0  0  0  0  0  0  0  0  0  0
   -2.5685    1.9931    0.6622 H   0  0  0  0  0  0  0  0  0  0  0  0
   -0.7323    3.3396    2.5036 H   0  0  0  0  0  0  0  0  0  0  0  0
   -3.3452    4.6392    1.5263 H   0  0  0  0  0  0  0  0  0  0  0  0
   -2.3101    5.2727    2.8118 H   0  0  0  0  0  0  0  0  0  0  0  0
   -1.7136    5.2056    1.1428 H   0  0  0  0  0  0  0  0  0  0  0  0
   -2.1841    2.7302    4.4526 N   0  0  0  0  0  0  0  0  0  0  0  0
   -2.8564    2.1583    5.5958 C   0  0  0  0  0  0  0  0  0  0  0  0
   -1.3383    3.2672    4.6199 H   0  0  0  0  0  0  0  0  0  0  0  0
   -3.5944    2.8754    5.9846 H   0  0  0  0  0  0  0  0  0  0  0  0
   -3.3685    1.2325    5.2946 H   0  0  0  0  0  0  0  0  0  0  0  0
   -2.1184    1.9308    6.3792 H   0  0  0  0  0  0  0  0  0  0  0  0
  1  3  1  0  0  0  0
  1  7  1  0  0  0  0
  1  2  2  0  0  0  0
 23 25  1  0  0  0  0
 23 29  1  0  0  0  0
 23 24  2  0  0  0  0
 50 51  1  0  0  0  0
 51 59  1  0  0  0  0
 51 52  2  0  0  0  0
  8  9  1  0  0  0  0
  9 17  1  0  0  0  0
  9 10  2  0  0  0  0
 30 31  1  0  0  0  0
 31 39  1  0  0  0  0
 31 32  2  0  0  0  0
 40 41  1  0  0  0  0
 41 49  1  0  0  0  0
 41 42  2  0  0  0  0
 50 53  1  0  0  0  0
 30 33  1  0  0  0  0
 59 60  1  0  0  0  0
 17 18  1  0  0  0  0
  8 11  1  0  0  0  0
 11 12  1  0  0  0  0
 40 43  1  0  0  0  0
 43 44  1  0  0  0  0
 49 50  1  0  0  0  0
  7  8  1  0  0  0  0
 29 30  1  0  0  0  0
 39 40  1  0  0  0  0
 12 44  1  0  0  0  0
  3  4  1  0  0  0  0
  3  5  1  0  0  0  0
  3  6  1  0  0  0  0
 25 26  1  0  0  0  0
 25 27  1  0  0  0  0
 25 28  1  0  0  0  0
 53 56  1  0  0  0  0
 53 57  1  0  0  0  0
 53 58  1  0  0  0  0
 33 36  1  0  0  0  0
 33 37  1  0  0  0  0
 33 38  1  0  0  0  0
 60 62  1  0  0  0  0
 60 63  1  0  0  0  0
 60 64  1  0  0  0  0
 18 20  1  0  0  0  0
 18 21  1  0  0  0  0
 18 22  1  0  0  0  0
 11 15  1  0  0  0  0
 11 16  1  0  0  0  0
 43 47  1  0  0  0  0
 43 48  1  0  0  0  0
 50 55  1  0  0  0  0
  8 14  1  0  0  0  0
 30 35  1  0  0  0  0
 40 46  1  0  0  0  0
 59 61  1  0  0  0  0
 17 19  1  0  0  0  0
  7 13  1  0  0  0  0
 29 34  1  0  0  0  0
 49 54  1  0  0  0  0
 39 45  1  0  0  0  0
M  END
$$$$

  -OEChem-05262214473D

 64 63  0     1  0  0  0  0  0999 V2000
    0.6173    1.9685   -9.2458 C   0  0  0  0  0  0  0  0  0  0  0  0
   -0.5582    2.1845   -9.5164 O   0  0  0  0  0  0  0  0  0  0  0  0
    1.4276    1.0867  -10.1368 C   0  0  0  0  0  0  0  0  0  0  0  0
    1.3811    0.0278   -9.8357 H   0  0  0  0  0  0  0  0  0  0  0  0
    1.0770    1.1079  -11.1812 H   0  0  0  0  0  0  0  0  0  0  0  0
    2.5017    1.3267  -10.1871 H   0  0  0  0  0  0  0  0  0  0  0  0
    1.3139    2.4717   -8.1606 N   0  0  0  0  0  0  0  0  0  0  0  0
    0.7237    3.3441   -7.1772 C   0  0  2  0  0  0  0  0  0  0  0  0
    1.7786    4.3426   -6.7053 C   0  0  0  0  0  0  0  0  0  0  0  0
    2.9570    4.2852   -7.0508 O   0  0  0  0  0  0  0  0  0  0  0  0
    0.0651    2.5704   -6.0324 C   0  0  0  0  0  0  0  0  0  0  0  0
    1.2330    1.5677   -5.0561 S   0  0  0  0  0  0  0  0  0  0  0  0
    2.2918    2.2125   -8.0518 H   0  0  0  0  0  0  0  0  0  0  0  0
   -0.0510    3.9084   -7.7110 H   0  0  0  0  0  0  0  0  0  0  0  0
   -0.4338    3.2574   -5.3412 H   0  0  0  0  0  0  0  0  0  0  0  0
   -0.6966    1.8913   -6.4306 H   0  0  0  0  0  0  0  0  0  0  0  0
    1.2544    5.2880   -5.8352 N   0  0  0  0  0  0  0  0  0  0  0  0
    2.0602    6.3246   -5.2336 C   0  0  0  0  0  0  0  0  0  0  0  0
    0.2581    5.2874   -5.6374 H   0  0  0  0  0  0  0  0  0  0  0  0
    2.4292    5.9818   -4.2556 H   0  0  0  0  0  0  0  0  0  0  0  0
    2.9143    6.5514   -5.8886 H   0  0  0  0  0  0  0  0  0  0  0  0
    1.4510    7.2305   -5.0984 H   0  0  0  0  0  0  0  0  0  0  0  0
   -6.7256    2.0330   -0.2766 C   0  0  0  0  0  0  0  0  0  0  0  0
   -7.1824    1.1039   -0.9322 O   0  0  0  0  0  0  0  0  0  0  0  0
   -7.5276    2.6077    0.8435 C   0  0  0  0  0  0  0  0  0  0  0  0
   -8.1775    3.4344    0.5145 H   0  0  0  0  0  0  0  0  0  0  0  0
   -8.2057    1.8676    1.2980 H   0  0  0  0  0  0  0  0  0  0  0  0
   -6.9411    3.0162    1.6819 H   0  0  0  0  0  0  0  0  0  0  0  0
   -5.4935    2.6382   -0.4627 N   0  0  0  0  0  0  0  0  0  0  0  0
   -4.5619    2.2388   -1.4845 C   0  0  2  0  0  0  0  0  0  0  0  0
   -3.1535    2.4674   -0.9521 C   0  0  0  0  0  0  0  0  0  0  0  0
   -2.8634    3.3945   -0.1987 O   0  0  0  0  0  0  0  0  0  0  0  0
   -4.7883    3.0138   -2.7732 C   0  0  0  0  0  0  0  0  0  0  0  0
   -5.2337    3.4049    0.1551 H   0  0  0  0  0  0  0  0  0  0  0  0
   -4.7192    1.1682   -1.6549 H   0  0  0  0  0  0  0  0  0  0  0  0
   -4.6352    4.0886   -2.6221 H   0  0  0  0  0  0  0  0  0  0  0  0
   -4.0976    2.6887   -3.5582 H   0  0  0  0  0  0  0  0  0  0  0  0
   -5.8111    2.8719   -3.1387 H   0  0  0  0  0  0  0  0  0  0  0  0
   -2.2466    1.5400   -1.4507 N   0  0  0  0  0  0  0  0  0  0  0  0
   -0.8424    1.5707   -1.1286 C   0  0  2  0  0  0  0  0  0  0  0  0
   -0.6309    2.4880    0.0742 C   0  0  0  0  0  0  0  0  0  0  0  0
    0.2808    3.3104    0.1370 O   0  0  0  0  0  0  0  0  0  0  0  0
    0.0240    1.9417   -2.3346 C   0  0  0  0  0  0  0  0  0  0  0  0
   -0.0225    0.7208   -3.6688 S   0  0  0  0  0  0  0  0  0  0  0  0
   -2.5850    0.7815   -2.0381 H   0  0  0  0  0  0  0  0  0  0  0  0
   -0.5896    0.5502   -0.8151 H   0  0  0  0  0  0  0  0  0  0  0  0
   -0.2949    2.9003   -2.7567 H   0  0  0  0  0  0  0  0  0  0  0  0
    1.0691    2.0486   -2.0245 H   0  0  0  0  0  0  0  0  0  0  0  0
   -1.5635    2.2625    1.0767 N   0  0  0  0  0  0  0  0  0  0  0  0
   -1.5565    2.9890    2.3249 C   0  0  2  0  0  0  0  0  0  0  0  0
   -2.0716    2.0575    3.4141 C   0  0  0  0  0  0  0  0  0  0  0  0
   -2.9358    1.2061    3.2152 O   0  0  0  0  0  0  0  0  0  0  0  0
   -2.4072    4.2465    2.2380 C   0  0  0  0  0  0  0  0  0  0  0  0
   -2.3107    1.5919    0.9228 H   0  0  0  0  0  0  0  0  0  0  0  0
   -0.5134    3.2521    2.5318 H   0  0  0  0  0  0  0  0  0  0  0  0
   -3.4557    4.0028    2.0311 H   0  0  0  0  0  0  0  0  0  0  0  0
   -2.3779    4.8110    3.1758 H   0  0  0  0  0  0  0  0  0  0  0  0
   -2.0535    4.9016    1.4345 H   0  0  0  0  0  0  0  0  0  0  0  0
   -1.4840    2.3176    4.6442 N   0  0  0  0  0  0  0  0  0  0  0  0
   -1.8370    1.5966    5.8449 C   0  0  0  0  0  0  0  0  0  0  0  0
   -0.7478    3.0144    4.7089 H   0  0  0  0  0  0  0  0  0  0  0  0
   -2.6325    2.1380    6.3778 H   0  0  0  0  0  0  0  0  0  0  0  0
   -2.1938    0.5911    5.5771 H   0  0  0  0  0  0  0  0  0  0  0  0
   -0.9532    1.5112    6.4943 H   0  0  0  0  0  0  0  0  0  0  0  0
  1  3  1  0  0  0  0
  1  7  1  0  0  0  0
  1  2  2  0  0  0  0
 23 25  1  0  0  0  0
 23 29  1  0  0  0  0
 23 24  2  0  0  0  0
 50 51  1  0  0  0  0
 51 59  1  0  0  0  0
 51 52  2  0  0  0  0
  8  9  1  0  0  0  0
  9 17  1  0  0  0  0
  9 10  2  0  0  0  0
 30 31  1  0  0  0  0
 31 39  1  0  0  0  0
 31 32  2  0  0  0  0
 40 41  1  0  0  0  0
 41 49  1  0  0  0  0
 41 42  2  0  0  0  0
 50 53  1  0  0  0  0
 30 33  1  0  0  0  0
 59 60  1  0  0  0  0
 17 18  1  0  0  0  0
  8 11  1  0  0  0  0
 11 12  1  0  0  0  0
 40 43  1  0  0  0  0
 43 44  1  0  0  0  0
 49 50  1  0  0  0  0
  7  8  1  0  0  0  0
 29 30  1  0  0  0  0
 39 40  1  0  0  0  0
 12 44  1  0  0  0  0
  3  4  1  0  0  0  0
  3  5  1  0  0  0  0
  3  6  1  0  0  0  0
 25 26  1  0  0  0  0
 25 27  1  0  0  0  0
 25 28  1  0  0  0  0
 53 56  1  0  0  0  0
 53 57  1  0  0  0  0
 53 58  1  0  0  0  0
 33 36  1  0  0  0  0
 33 37  1  0  0  0  0
 33 38  1  0  0  0  0
 60 62  1  0  0  0  0
 60 63  1  0  0  0  0
 60 64  1  0  0  0  0
 18 20  1  0  0  0  0
 18 21  1  0  0  0  0
 18 22  1  0  0  0  0
 11 15  1  0  0  0  0
 11 16  1  0  0  0  0
 43 47  1  0  0  0  0
 43 48  1  0  0  0  0
 50 55  1  0  0  0  0
  8 14  1  0  0  0  0
 30 35  1  0  0  0  0
 40 46  1  0  0  0  0
 59 61  1  0  0  0  0
 17 19  1  0  0  0  0
  7 13  1  0  0  0  0
 29 34  1  0  0  0  0
 49 54  1  0  0  0  0
 39 45  1  0  0  0  0
M  END
$$$$

  -OEChem-05262214473D

 64 63  0     1  0  0  0  0  0999 V2000
    0.6173    1.9685   -9.2458 C   0  0  0  0  0  0  0  0  0  0  0  0
   -0.5582    2.1845   -9.5164 O   0  0  0  0  0  0  0  0  0  0  0  0
    1.4276    1.0867  -10.1368 C   0  0  0  0  0  0  0  0  0  0  0  0
    1.3811    0.0278   -9.8357 H   0  0  0  0  0  0  0  0  0  0  0  0
    1.0770    1.1079  -11.1812 H   0  0  0  0  0  0  0  0  0  0  0  0
    2.5017    1.3267  -10.1871 H   0  0  0  0  0  0  0  0  0  0  0  0
    1.3139    2.4717   -8.1606 N   0  0  0  0  0  0  0  0  0  0  0  0
    0.7237    3.3441   -7.1772 C   0  0  2  0  0  0  0  0  0  0  0  0
    1.7786    4.3426   -6.7053 C   0  0  0  0  0  0  0  0  0  0  0  0
    2.9570    4.2852   -7.0508 O   0  0  0  0  0  0  0  0  0  0  0  0
    0.0651    2.5704   -6.0324 C   0  0  0  0  0  0  0  0  0  0  0  0
    1.2330    1.5677   -5.0561 S   0  0  0  0  0  0  0  0  0  0  0  0
    2.2918    2.2125   -8.0518 H   0  0  0  0  0  0  0  0  0  0  0  0
   -0.0510    3.9084   -7.7110 H   0  0  0  0  0  0  0  0  0  0  0  0
   -0.4338    3.2574   -5.3412 H   0  0  0  0  0  0  0  0  0  0  0  0
   -0.6966    1.8913   -6.4306 H   0  0  0  0  0  0  0  0  0  0  0  0
    1.2544    5.2880   -5.8352 N   0  0  0  0  0  0  0  0  0  0  0  0
    2.0602    6.3246   -5.2336 C   0  0  0  0  0  0  0  0  0  0  0  0
    0.2581    5.2874   -5.6374 H   0  0  0  0  0  0  0  0  0  0  0  0
    2.4292    5.9818   -4.2556 H   0  0  0  0  0  0  0  0  0  0  0  0
    2.9143    6.5514   -5.8886 H   0  0  0  0  0  0  0  0  0  0  0  0
    1.4510    7.2305   -5.0984 H   0  0  0  0  0  0  0  0  0  0  0  0
   -6.7256    2.0330   -0.2766 C   0  0  0  0  0  0  0  0  0  0  0  0
   -7.1824    1.1039   -0.9322 O   0  0  0  0  0  0  0  0  0  0  0  0
   -7.5276    2.6077    0.8435 C   0  0  0  0  0  0  0  0  0  0  0  0
   -8.1775    3.4344    0.5145 H   0  0  0  0  0  0  0  0  0  0  0  0
   -8.2057    1.8676    1.2980 H   0  0  0  0  0  0  0  0  0  0  0  0
   -6.9411    3.0162    1.6819 H   0  0  0  0  0  0  0  0  0  0  0  0
   -5.4935    2.6382   -0.4627 N   0  0  0  0  0  0  0  0  0  0  0  0
   -4.5619    2.2388   -1.4845 C   0  0  2  0  0  0  0  0  0  0  0  0
   -3.1535    2.4674   -0.9521 C   0  0  0  0  0  0  0  0  0  0  0  0
   -2.8634    3.3945   -0.1987 O   0  0  0  0  0  0  0  0  0  0  0  0
   -4.7883    3.0138   -2.7732 C   0  0  0  0  0  0  0  0  0  0  0  0
   -5.2337    3.4049    0.1551 H   0  0  0  0  0  0  0  0  0  0  0  0
   -4.7192    1.1682   -1.6549 H   0  0  0  0  0  0  0  0  0  0  0  0
   -4.6352    4.0886   -2.6221 H   0  0  0  0  0  0  0  0  0  0  0  0
   -4.0976    2.6887   -3.5582 H   0  0  0  0  0  0  0  0  0  0  0  0
   -5.8111    2.8719   -3.1387 H   0  0  0  0  0  0  0  0  0  0  0  0
   -2.2466    1.5400   -1.4507 N   0  0  0  0  0  0  0  0  0  0  0  0
   -0.8424    1.5707   -1.1286 C   0  0  2  0  0  0  0  0  0  0  0  0
   -0.6309    2.4880    0.0742 C   0  0  0  0  0  0  0  0  0  0  0  0
    0.0950    3.4796    0.0406 O   0  0  0  0  0  0  0  0  0  0  0  0
    0.0240    1.9417   -2.3346 C   0  0  0  0  0  0  0  0  0  0  0  0
   -0.0225    0.7208   -3.6688 S   0  0  0  0  0  0  0  0  0  0  0  0
   -2.5850    0.7815   -2.0381 H   0  0  0  0  0  0  0  0  0  0  0  0
   -0.5896    0.5502   -0.8151 H   0  0  0  0  0  0  0  0  0  0  0  0
   -0.2949    2.9003   -2.7567 H   0  0  0  0  0  0  0  0  0  0  0  0
    1.0691    2.0486   -2.0245 H   0  0  0  0  0  0  0  0  0  0  0  0
   -1.3274    2.0549    1.1935 N   0  0  0  0  0  0  0  0  0  0  0  0
   -1.2680    2.7424    2.4622 C   0  0  2  0  0  0  0  0  0  0  0  0
   -1.4054    1.7032    3.5671 C   0  0  0  0  0  0  0  0  0  0  0  0
   -2.1012    0.6958    3.4577 O   0  0  0  0  0  0  0  0  0  0  0  0
   -2.3569    3.7984    2.5708 C   0  0  0  0  0  0  0  0  0  0  0  0
   -1.9394    1.2476    1.1201 H   0  0  0  0  0  0  0  0  0  0  0  0
   -0.2798    3.2113    2.5219 H   0  0  0  0  0  0  0  0  0  0  0  0
   -3.3543    3.3475    2.5131 H   0  0  0  0  0  0  0  0  0  0  0  0
   -2.2928    4.3382    3.5214 H   0  0  0  0  0  0  0  0  0  0  0  0
   -2.2745    4.5282    1.7581 H   0  0  0  0  0  0  0  0  0  0  0  0
   -0.6939    2.0548    4.7056 N   0  0  0  0  0  0  0  0  0  0  0  0
   -0.6990    1.2529    5.9069 C   0  0  0  0  0  0  0  0  0  0  0  0
   -0.1120    2.8873    4.6940 H   0  0  0  0  0  0  0  0  0  0  0  0
   -1.4920    1.6076    6.5817 H   0  0  0  0  0  0  0  0  0  0  0  0
   -0.8845    0.2009    5.6445 H   0  0  0  0  0  0  0  0  0  0  0  0
    0.2757    1.3392    6.4093 H   0  0  0  0  0  0  0  0  0  0  0  0
  1  3  1  0  0  0  0
  1  7  1  0  0  0  0
  1  2  2  0  0  0  0
 23 25  1  0  0  0  0
 23 29  1  0  0  0  0
 23 24  2  0  0  0  0
 50 51  1  0  0  0  0
 51 59  1  0  0  0  0
 51 52  2  0  0  0  0
  8  9  1  0  0  0  0
  9 17  1  0  0  0  0
  9 10  2  0  0  0  0
 30 31  1  0  0  0  0
 31 39  1  0  0  0  0
 31 32  2  0  0  0  0
 40 41  1  0  0  0  0
 41 49  1  0  0  0  0
 41 42  2  0  0  0  0
 50 53  1  0  0  0  0
 30 33  1  0  0  0  0
 59 60  1  0  0  0  0
 17 18  1  0  0  0  0
  8 11  1  0  0  0  0
 11 12  1  0  0  0  0
 40 43  1  0  0  0  0
 43 44  1  0  0  0  0
 49 50  1  0  0  0  0
  7  8  1  0  0  0  0
 29 30  1  0  0  0  0
 39 40  1  0  0  0  0
 12 44  1  0  0  0  0
  3  4  1  0  0  0  0
  3  5  1  0  0  0  0
  3  6  1  0  0  0  0
 25 26  1  0  0  0  0
 25 27  1  0  0  0  0
 25 28  1  0  0  0  0
 53 56  1  0  0  0  0
 53 57  1  0  0  0  0
 53 58  1  0  0  0  0
 33 36  1  0  0  0  0
 33 37  1  0  0  0  0
 33 38  1  0  0  0  0
 60 62  1  0  0  0  0
 60 63  1  0  0  0  0
 60 64  1  0  0  0  0
 18 20  1  0  0  0  0
 18 21  1  0  0  0  0
 18 22  1  0  0  0  0
 11 15  1  0  0  0  0
 11 16  1  0  0  0  0
 43 47  1  0  0  0  0
 43 48  1  0  0  0  0
 50 55  1  0  0  0  0
  8 14  1  0  0  0  0
 30 35  1  0  0  0  0
 40 46  1  0  0  0  0
 59 61  1  0  0  0  0
 17 19  1  0  0  0  0
  7 13  1  0  0  0  0
 29 34  1  0  0  0  0
 49 54  1  0  0  0  0
 39 45  1  0  0  0  0
M  END
$$$$

  -OEChem-05262214473D

 64 63  0     1  0  0  0  0  0999 V2000
    0.6173    1.9685   -9.2458 C   0  0  0  0  0  0  0  0  0  0  0  0
   -0.5582    2.1845   -9.5164 O   0  0  0  0  0  0  0  0  0  0  0  0
    1.4276    1.0867  -10.1368 C   0  0  0  0  0  0  0  0  0  0  0  0
    1.3811    0.0278   -9.8357 H   0  0  0  0  0  0  0  0  0  0  0  0
    1.0770    1.1079  -11.1812 H   0  0  0  0  0  0  0  0  0  0  0  0
    2.5017    1.3267  -10.1871 H   0  0  0  0  0  0  0  0  0  0  0  0
    1.3139    2.4717   -8.1606 N   0  0  0  0  0  0  0  0  0  0  0  0
    0.7237    3.3441   -7.1772 C   0  0  2  0  0  0  0  0  0  0  0  0
    1.7786    4.3426   -6.7053 C   0  0  0  0  0  0  0  0  0  0  0  0
    2.9570    4.2852   -7.0508 O   0  0  0  0  0  0  0  0  0  0  0  0
    0.0651    2.5704   -6.0324 C   0  0  0  0  0  0  0  0  0  0  0  0
    1.2330    1.5677   -5.0561 S   0  0  0  0  0  0  0  0  0  0  0  0
    2.2918    2.2125   -8.0518 H   0  0  0  0  0  0  0  0  0  0  0  0
   -0.0510    3.9084   -7.7110 H   0  0  0  0  0  0  0  0  0  0  0  0
   -0.4338    3.2574   -5.3412 H   0  0  0  0  0  0  0  0  0  0  0  0
   -0.6966    1.8913   -6.4306 H   0  0  0  0  0  0  0  0  0  0  0  0
    1.2544    5.2880   -5.8352 N   0  0  0  0  0  0  0  0  0  0  0  0
    2.0602    6.3246   -5.2336 C   0  0  0  0  0  0  0  0  0  0  0  0
    0.2581    5.2874   -5.6374 H   0  0  0  0  0  0  0  0  0  0  0  0
    2.4292    5.9818   -4.2556 H   0  0  0  0  0  0  0  0  0  0  0  0
    2.9143    6.5514   -5.8886 H   0  0  0  0  0  0  0  0  0  0  0  0
    1.4510    7.2305   -5.0984 H   0  0  0  0  0  0  0  0  0  0  0  0
   -6.7256    2.0330   -0.2766 C   0  0  0  0  0  0  0  0  0  0  0  0
   -7.1824    1.1039   -0.9322 O   0  0  0  0  0  0  0  0  0  0  0  0
   -7.5276    2.6077    0.8435 C   0  0  0  0  0  0  0  0  0  0  0  0
   -8.1775    3.4344    0.5145 H   0  0  0  0  0  0  0  0  0  0  0  0
   -8.2057    1.8676    1.2980 H   0  0  0  0  0  0  0  0  0  0  0  0
   -6.9411    3.0162    1.6819 H   0  0  0  0  0  0  0  0  0  0  0  0
   -5.4935    2.6382   -0.4627 N   0  0  0  0  0  0  0  0  0  0  0  0
   -4.5619    2.2388   -1.4845 C   0  0  2  0  0  0  0  0  0  0  0  0
   -3.1535    2.4674   -0.9521 C   0  0  0  0  0  0  0  0  0  0  0  0
   -2.8634    3.3945   -0.1987 O   0  0  0  0  0  0  0  0  0  0  0  0
   -4.7883    3.0138   -2.7732 C   0  0  0  0  0  0  0  0  0  0  0  0
   -5.2337    3.4049    0.1551 H   0  0  0  0  0  0  0  0  0  0  0  0
   -4.7192    1.1682   -1.6549 H   0  0  0  0  0  0  0  0  0  0  0  0
   -4.6352    4.0886   -2.6221 H   0  0  0  0  0  0  0  0  0  0  0  0
   -4.0976    2.6887   -3.5582 H   0  0  0  0  0  0  0  0  0  0  0  0
   -5.8111    2.8719   -3.1387 H   0  0  0  0  0  0  0  0  0  0  0  0
   -2.2466    1.5400   -1.4507 N   0  0  0  0  0  0  0  0  0  0  0  0
   -0.8424    1.5707   -1.1286 C   0  0  2  0  0  0  0  0  0  0  0  0
   -0.6309    2.4880    0.0742 C   0  0  0  0  0  0  0  0  0  0  0  0
   -0.1339    3.6087   -0.0176 O   0  0  0  0  0  0  0  0  0  0  0  0
    0.0240    1.9417   -2.3346 C   0  0  0  0  0  0  0  0  0  0  0  0
   -0.0225    0.7208   -3.6688 S   0  0  0  0  0  0  0  0  0  0  0  0
   -2.5850    0.7815   -2.0381 H   0  0  0  0  0  0  0  0  0  0  0  0
   -0.5896    0.5502   -0.8151 H   0  0  0  0  0  0  0  0  0  0  0  0
   -0.2949    2.9003   -2.7567 H   0  0  0  0  0  0  0  0  0  0  0  0
    1.0691    2.0486   -2.0245 H   0  0  0  0  0  0  0  0  0  0  0  0
   -1.0389    1.8983    1.2622 N   0  0  0  0  0  0  0  0  0  0  0  0
   -0.9178    2.5581    2.5412 C   0  0  2  0  0  0  0  0  0  0  0  0
   -0.6659    1.4914    3.5986 C   0  0  0  0  0  0  0  0  0  0  0  0
   -1.1533    0.3642    3.5438 O   0  0  0  0  0  0  0  0  0  0  0  0
   -2.1652    3.3640    2.8685 C   0  0  0  0  0  0  0  0  0  0  0  0
   -1.4799    0.9836    1.2407 H   0  0  0  0  0  0  0  0  0  0  0  0
   -0.0473    3.2198    2.4745 H   0  0  0  0  0  0  0  0  0  0  0  0
   -3.0478    2.7179    2.9394 H   0  0  0  0  0  0  0  0  0  0  0  0
   -2.0604    3.8864    3.8251 H   0  0  0  0  0  0  0  0  0  0  0  0
   -2.3616    4.1109    2.0917 H   0  0  0  0  0  0  0  0  0  0  0  0
    0.1324    1.9599    4.6327 N   0  0  0  0  0  0  0  0  0  0  0  0
    0.4798    1.1507    5.7775 C   0  0  0  0  0  0  0  0  0  0  0  0
    0.5257    2.8947    4.5762 H   0  0  0  0  0  0  0  0  0  0  0  0
   -0.2505    1.3205    6.5824 H   0  0  0  0  0  0  0  0  0  0  0  0
    0.4702    0.0884    5.4920 H   0  0  0  0  0  0  0  0  0  0  0  0
    1.4846    1.4266    6.1301 H   0  0  0  0  0  0  0  0  0  0  0  0
  1  3  1  0  0  0  0
  1  7  1  0  0  0  0
  1  2  2  0  0  0  0
 23 25  1  0  0  0  0
 23 29  1  0  0  0  0
 23 24  2  0  0  0  0
 50 51  1  0  0  0  0
 51 59  1  0  0  0  0
 51 52  2  0  0  0  0
  8  9  1  0  0  0  0
  9 17  1  0  0  0  0
  9 10  2  0  0  0  0
 30 31  1  0  0  0  0
 31 39  1  0  0  0  0
 31 32  2  0  0  0  0
 40 41  1  0  0  0  0
 41 49  1  0  0  0  0
 41 42  2  0  0  0  0
 50 53  1  0  0  0  0
 30 33  1  0  0  0  0
 59 60  1  0  0  0  0
 17 18  1  0  0  0  0
  8 11  1  0  0  0  0
 11 12  1  0  0  0  0
 40 43  1  0  0  0  0
 43 44  1  0  0  0  0
 49 50  1  0  0  0  0
  7  8  1  0  0  0  0
 29 30  1  0  0  0  0
 39 40  1  0  0  0  0
 12 44  1  0  0  0  0
  3  4  1  0  0  0  0
  3  5  1  0  0  0  0
  3  6  1  0  0  0  0
 25 26  1  0  0  0  0
 25 27  1  0  0  0  0
 25 28  1  0  0  0  0
 53 56  1  0  0  0  0
 53 57  1  0  0  0  0
 53 58  1  0  0  0  0
 33 36  1  0  0  0  0
 33 37  1  0  0  0  0
 33 38  1  0  0  0  0
 60 62  1  0  0  0  0
 60 63  1  0  0  0  0
 60 64  1  0  0  0  0
 18 20  1  0  0  0  0
 18 21  1  0  0  0  0
 18 22  1  0  0  0  0
 11 15  1  0  0  0  0
 11 16  1  0  0  0  0
 43 47  1  0  0  0  0
 43 48  1  0  0  0  0
 50 55  1  0  0  0  0
  8 14  1  0  0  0  0
 30 35  1  0  0  0  0
 40 46  1  0  0  0  0
 59 61  1  0  0  0  0
 17 19  1  0  0  0  0
  7 13  1  0  0  0  0
 29 34  1  0  0  0  0
 49 54  1  0  0  0  0
 39 45  1  0  0  0  0
M  END
$$$$

  -OEChem-05262214473D

 64 63  0     1  0  0  0  0  0999 V2000
    0.6173    1.9685   -9.2458 C   0  0  0  0  0  0  0  0  0  0  0  0
   -0.5582    2.1845   -9.5164 O   0  0  0  0  0  0  0  0  0  0  0  0
    1.4276    1.0867  -10.1368 C   0  0  0  0  0  0  0  0  0  0  0  0
    1.3811    0.0278   -9.8357 H   0  0  0  0  0  0  0  0  0  0  0  0
    1.0770    1.1079  -11.1812 H   0  0  0  0  0  0  0  0  0  0  0  0
    2.5017    1.3267  -10.1871 H   0  0  0  0  0  0  0  0  0  0  0  0
    1.3139    2.4717   -8.1606 N   0  0  0  0  0  0  0  0  0  0  0  0
    0.7237    3.3441   -7.1772 C   0  0  2  0  0  0  0  0  0  0  0  0
    1.7786    4.3426   -6.7053 C   0  0  0  0  0  0  0  0  0  0  0  0
    2.9570    4.2852   -7.0508 O   0  0  0  0  0  0  0  0  0  0  0  0
    0.0651    2.5704   -6.0324 C   0  0  0  0  0  0  0  0  0  0  0  0
    1.2330    1.5677   -5.0561 S   0  0  0  0  0  0  0  0  0  0  0  0
    2.2918    2.2125   -8.0518 H   0  0  0  0  0  0  0  0  0  0  0  0
   -0.0510    3.9084   -7.7110 H   0  0  0  0  0  0  0  0  0  0  0  0
   -0.4338    3.2574   -5.3412 H   0  0  0  0  0  0  0  0  0  0  0  0
   -0.6966    1.8913   -6.4306 H   0  0  0  0  0  0  0  0  0  0  0  0
    1.2544    5.2880   -5.8352 N   0  0  0  0  0  0  0  0  0  0  0  0
    2.0602    6.3246   -5.2336 C   0  0  0  0  0  0  0  0  0  0  0  0
    0.2581    5.2874   -5.6374 H   0  0  0  0  0  0  0  0  0  0  0  0
    2.4292    5.9818   -4.2556 H   0  0  0  0  0  0  0  0  0  0  0  0
    2.9143    6.5514   -5.8886 H   0  0  0  0  0  0  0  0  0  0  0  0
    1.4510    7.2305   -5.0984 H   0  0  0  0  0  0  0  0  0  0  0  0
   -6.7256    2.0330   -0.2766 C   0  0  0  0  0  0  0  0  0  0  0  0
   -7.1824    1.1039   -0.9322 O   0  0  0  0  0  0  0  0  0  0  0  0
   -7.5276    2.6077    0.8435 C   0  0  0  0  0  0  0  0  0  0  0  0
   -8.1775    3.4344    0.5145 H   0  0  0  0  0  0  0  0  0  0  0  0
   -8.2057    1.8676    1.2980 H   0  0  0  0  0  0  0  0  0  0  0  0
   -6.9411    3.0162    1.6819 H   0  0  0  0  0  0  0  0  0  0  0  0
   -5.4935    2.6382   -0.4627 N   0  0  0  0  0  0  0  0  0  0  0  0
   -4.5619    2.2388   -1.4845 C   0  0  2  0  0  0  0  0  0  0  0  0
   -3.1535    2.4674   -0.9521 C   0  0  0  0  0  0  0  0  0  0  0  0
   -2.8634    3.3945   -0.1987 O   0  0  0  0  0  0  0  0  0  0  0  0
   -4.7883    3.0138   -2.7732 C   0  0  0  0  0  0  0  0  0  0  0  0
   -5.2337    3.4049    0.1551 H   0  0  0  0  0  0  0  0  0  0  0  0
   -4.7192    1.1682   -1.6549 H   0  0  0  0  0  0  0  0  0  0  0  0
   -4.6352    4.0886   -2.6221 H   0  0  0  0  0  0  0  0  0  0  0  0
   -4.0976    2.6887   -3.5582 H   0  0  0  0  0  0  0  0  0  0  0  0
   -5.8111    2.8719   -3.1387 H   0  0  0  0  0  0  0  0  0  0  0  0
   -2.2466    1.5400   -1.4507 N   0  0  0  0  0  0  0  0  0  0  0  0
   -0.8424    1.5707   -1.1286 C   0  0  2  0  0  0  0  0  0  0  0  0
   -0.6309    2.4880    0.0742 C   0  0  0  0  0  0  0  0  0  0  0  0
   -0.3904    3.6888   -0.0336 O   0  0  0  0  0  0  0  0  0  0  0  0
    0.0240    1.9417   -2.3346 C   0  0  0  0  0  0  0  0  0  0  0  0
   -0.0225    0.7208   -3.6688 S   0  0  0  0  0  0  0  0  0  0  0  0
   -2.5850    0.7815   -2.0381 H   0  0  0  0  0  0  0  0  0  0  0  0
   -0.5896    0.5502   -0.8151 H   0  0  0  0  0  0  0  0  0  0  0  0
   -0.2949    2.9003   -2.7567 H   0  0  0  0  0  0  0  0  0  0  0  0
    1.0691    2.0486   -2.0245 H   0  0  0  0  0  0  0  0  0  0  0  0
   -0.7177    1.8034    1.2781 N   0  0  0  0  0  0  0  0  0  0  0  0
   -0.5296    2.4486    2.5564 C   0  0  2  0  0  0  0  0  0  0  0  0
    0.0966    1.4363    3.5065 C   0  0  0  0  0  0  0  0  0  0  0  0
   -0.1568    0.2341    3.4678 O   0  0  0  0  0  0  0  0  0  0  0  0
   -1.8452    2.9727    3.1106 C   0  0  0  0  0  0  0  0  0  0  0  0
   -0.9635    0.8179    1.2762 H   0  0  0  0  0  0  0  0  0  0  0  0
    0.1682    3.2771    2.3929 H   0  0  0  0  0  0  0  0  0  0  0  0
   -2.5572    2.1569    3.2809 H   0  0  0  0  0  0  0  0  0  0  0  0
   -1.6967    3.4866    4.0661 H   0  0  0  0  0  0  0  0  0  0  0  0
   -2.3088    3.6781    2.4125 H   0  0  0  0  0  0  0  0  0  0  0  0
    0.9386    2.0392    4.4305 N   0  0  0  0  0  0  0  0  0  0  0  0
    1.6192    1.2968    5.4657 C   0  0  0  0  0  0  0  0  0  0  0  0
    1.1219    3.0360    4.3636 H   0  0  0  0  0  0  0  0  0  0  0  0
    1.0073    1.2961    6.3798 H   0  0  0  0  0  0  0  0  0  0  0  0
    1.7780    0.2614    5.1301 H   0  0  0  0  0  0  0  0  0  0  0  0
    2.5910    1.7674    5.6756 H   0  0  0  0  0  0  0  0  0  0  0  0
  1  3  1  0  0  0  0
  1  7  1  0  0  0  0
  1  2  2  0  0  0  0
 23 25  1  0  0  0  0
 23 29  1  0  0  0  0
 23 24  2  0  0  0  0
 50 51  1  0  0  0  0
 51 59  1  0  0  0  0
 51 52  2  0  0  0  0
  8  9  1  0  0  0  0
  9 17  1  0  0  0  0
  9 10  2  0  0  0  0
 30 31  1  0  0  0  0
 31 39  1  0  0  0  0
 31 32  2  0  0  0  0
 40 41  1  0  0  0  0
 41 49  1  0  0  0  0
 41 42  2  0  0  0  0
 50 53  1  0  0  0  0
 30 33  1  0  0  0  0
 59 60  1  0  0  0  0
 17 18  1  0  0  0  0
  8 11  1  0  0  0  0
 11 12  1  0  0  0  0
 40 43  1  0  0  0  0
 43 44  1  0  0  0  0
 49 50  1  0  0  0  0
  7  8  1  0  0  0  0
 29 30  1  0  0  0  0
 39 40  1  0  0  0  0
 12 44  1  0  0  0  0
  3  4  1  0  0  0  0
  3  5  1  0  0  0  0
  3  6  1  0  0  0  0
 25 26  1  0  0  0  0
 25 27  1  0  0  0  0
 25 28  1  0  0  0  0
 53 56  1  0  0  0  0
 53 57  1  0  0  0  0
 53 58  1  0  0  0  0
 33 36  1  0  0  0  0
 33 37  1  0  0  0  0
 33 38  1  0  0  0  0
 60 62  1  0  0  0  0
 60 63  1  0  0  0  0
 60 64  1  0  0  0  0
 18 20  1  0  0  0  0
 18 21  1  0  0  0  0
 18 22  1  0  0  0  0
 11 15  1  0  0  0  0
 11 16  1  0  0  0  0
 43 47  1  0  0  0  0
 43 48  1  0  0  0  0
 50 55  1  0  0  0  0
  8 14  1  0  0  0  0
 30 35  1  0  0  0  0
 40 46  1  0  0  0  0
 59 61  1  0  0  0  0
 17 19  1  0  0  0  0
  7 13  1  0  0  0  0
 29 34  1  0  0  0  0
 49 54  1  0  0  0  0
 39 45  1  0  0  0  0
M  END
$$$$

  -OEChem-05262214473D

 64 63  0     1  0  0  0  0  0999 V2000
    0.6173    1.9685   -9.2458 C   0  0  0  0  0  0  0  0  0  0  0  0
   -0.5582    2.1845   -9.5164 O   0  0  0  0  0  0  0  0  0  0  0  0
    1.4276    1.0867  -10.1368 C   0  0  0  0  0  0  0  0  0  0  0  0
    1.3811    0.0278   -9.8357 H   0  0  0  0  0  0  0  0  0  0  0  0
    1.0770    1.1079  -11.1812 H   0  0  0  0  0  0  0  0  0  0  0  0
    2.5017    1.3267  -10.1871 H   0  0  0  0  0  0  0  0  0  0  0  0
    1.3139    2.4717   -8.1606 N   0  0  0  0  0  0  0  0  0  0  0  0
    0.7237    3.3441   -7.1772 C   0  0  2  0  0  0  0  0  0  0  0  0
    1.7786    4.3426   -6.7053 C   0  0  0  0  0  0  0  0  0  0  0  0
    2.9570    4.2852   -7.0508 O   0  0  0  0  0  0  0  0  0  0  0  0
    0.0651    2.5704   -6.0324 C   0  0  0  0  0  0  0  0  0  0  0  0
    1.2330    1.5677   -5.0561 S   0  0  0  0  0  0  0  0  0  0  0  0
    2.2918    2.2125   -8.0518 H   0  0  0  0  0  0  0  0  0  0  0  0
   -0.0510    3.9084   -7.7110 H   0  0  0  0  0  0  0  0  0  0  0  0
   -0.4338    3.2574   -5.3412 H   0  0  0  0  0  0  0  0  0  0  0  0
   -0.6966    1.8913   -6.4306 H   0  0  0  0  0  0  0  0  0  0  0  0
    1.2544    5.2880   -5.8352 N   0  0  0  0  0  0  0  0  0  0  0  0
    2.0602    6.3246   -5.2336 C   0  0  0  0  0  0  0  0  0  0  0  0
    0.2581    5.2874   -5.6374 H   0  0  0  0  0  0  0  0  0  0  0  0
    2.4292    5.9818   -4.2556 H   0  0  0  0  0  0  0  0  0  0  0  0
    2.9143    6.5514   -5.8886 H   0  0  0  0  0  0  0  0  0  0  0  0
    1.4510    7.2305   -5.0984 H   0  0  0  0  0  0  0  0  0  0  0  0
   -6.7256    2.0330   -0.2766 C   0  0  0  0  0  0  0  0  0  0  0  0
   -7.1824    1.1039   -0.9322 O   0  0  0  0  0  0  0  0  0  0  0  0
   -7.5276    2.6077    0.8435 C   0  0  0  0  0  0  0  0  0  0  0  0
   -8.1775    3.4344    0.5145 H   0  0  0  0  0  0  0  0  0  0  0  0
   -8.2057    1.8676    1.2980 H   0  0  0  0  0  0  0  0  0  0  0  0
   -6.9411    3.0162    1.6819 H   0  0  0  0  0  0  0  0  0  0  0  0
   -5.4935    2.6382   -0.4627 N   0  0  0  0  0  0  0  0  0  0  0  0
   -4.5619    2.2388   -1.4845 C   0  0  2  0  0  0  0  0  0  0  0  0
   -3.1535    2.4674   -0.9521 C   0  0  0  0  0  0  0  0  0  0  0  0
   -2.8634    3.3945   -0.1987 O   0  0  0  0  0  0  0  0  0  0  0  0
   -4.7883    3.0138   -2.7732 C   0  0  0  0  0  0  0  0  0  0  0  0
   -5.2337    3.4049    0.1551 H   0  0  0  0  0  0  0  0  0  0  0  0
   -4.7192    1.1682   -1.6549 H   0  0  0  0  0  0  0  0  0  0  0  0
   -4.6352    4.0886   -2.6221 H   0  0  0  0  0  0  0  0  0  0  0  0
   -4.0976    2.6887   -3.5582 H   0  0  0  0  0  0  0  0  0  0  0  0
   -5.8111    2.8719   -3.1387 H   0  0  0  0  0  0  0  0  0  0  0  0
   -2.2466    1.5400   -1.4507 N   0  0  0  0  0  0  0  0  0  0  0  0
   -0.8424    1.5707   -1.1286 C   0  0  2  0  0  0  0  0  0  0  0  0
   -0.6309    2.4880    0.0742 C   0  0  0  0  0  0  0  0  0  0  0  0
   -0.6569    3.7145   -0.0063 O   0  0  0  0  0  0  0  0  0  0  0  0
    0.0240    1.9417   -2.3346 C   0  0  0  0  0  0  0  0  0  0  0  0
   -0.0225    0.7208   -3.6688 S   0  0  0  0  0  0  0  0  0  0  0  0
   -2.5850    0.7815   -2.0381 H   0  0  0  0  0  0  0  0  0  0  0  0
   -0.5896    0.5502   -0.8151 H   0  0  0  0  0  0  0  0  0  0  0  0
   -0.2949    2.9003   -2.7567 H   0  0  0  0  0  0  0  0  0  0  0  0
    1.0691    2.0486   -2.0245 H   0  0  0  0  0  0  0  0  0  0  0  0
   -0.3856    1.7766    1.2401 N   0  0  0  0  0  0  0  0  0  0  0  0
   -0.1300    2.4214    2.5069 C   0  0  2  0  0  0  0  0  0  0  0  0
    0.8299    1.5418    3.2971 C   0  0  0  0  0  0  0  0  0  0  0  0
    0.8205    0.3142    3.2349 O   0  0  0  0  0  0  0  0  0  0  0  0
   -1.4188    2.6513    3.2808 C   0  0  0  0  0  0  0  0  0  0  0  0
   -0.4254    0.7618    1.2243 H   0  0  0  0  0  0  0  0  0  0  0  0
    0.3519    3.3793    2.2827 H   0  0  0  0  0  0  0  0  0  0  0  0
   -1.9159    1.7028    3.5145 H   0  0  0  0  0  0  0  0  0  0  0  0
   -1.2264    3.1658    4.2280 H   0  0  0  0  0  0  0  0  0  0  0  0
   -2.1198    3.2593    2.6987 H   0  0  0  0  0  0  0  0  0  0  0  0
    1.6697    2.2874    4.1126 N   0  0  0  0  0  0  0  0  0  0  0  0
    2.6415    1.6814    4.9926 C   0  0  0  0  0  0  0  0  0  0  0  0
    1.6358    3.3017    4.0706 H   0  0  0  0  0  0  0  0  0  0  0  0
    2.1956    1.5362    5.9877 H   0  0  0  0  0  0  0  0  0  0  0  0
    2.9497    0.7079    4.5835 H   0  0  0  0  0  0  0  0  0  0  0  0
    3.5197    2.3384    5.0768 H   0  0  0  0  0  0  0  0  0  0  0  0
  1  3  1  0  0  0  0
  1  7  1  0  0  0  0
  1  2  2  0  0  0  0
 23 25  1  0  0  0  0
 23 29  1  0  0  0  0
 23 24  2  0  0  0  0
 50 51  1  0  0  0  0
 51 59  1  0  0  0  0
 51 52  2  0  0  0  0
  8  9  1  0  0  0  0
  9 17  1  0  0  0  0
  9 10  2  0  0  0  0
 30 31  1  0  0  0  0
 31 39  1  0  0  0  0
 31 32  2  0  0  0  0
 40 41  1  0  0  0  0
 41 49  1  0  0  0  0
 41 42  2  0  0  0  0
 50 53  1  0  0  0  0
 30 33  1  0  0  0  0
 59 60  1  0  0  0  0
 17 18  1  0  0  0  0
  8 11  1  0  0  0  0
 11 12  1  0  0  0  0
 40 43  1  0  0  0  0
 43 44  1  0  0  0  0
 49 50  1  0  0  0  0
  7  8  1  0  0  0  0
 29 30  1  0  0  0  0
 39 40  1  0  0  0  0
 12 44  1  0  0  0  0
  3  4  1  0  0  0  0
  3  5  1  0  0  0  0
  3  6  1  0  0  0  0
 25 26  1  0  0  0  0
 25 27  1  0  0  0  0
 25 28  1  0  0  0  0
 53 56  1  0  0  0  0
 53 57  1  0  0  0  0
 53 58  1  0  0  0  0
 33 36  1  0  0  0  0
 33 37  1  0  0  0  0
 33 38  1  0  0  0  0
 60 62  1  0  0  0  0
 60 63  1  0  0  0  0
 60 64  1  0  0  0  0
 18 20  1  0  0  0  0
 18 21  1  0  0  0  0
 18 22  1  0  0  0  0
 11 15  1  0  0  0  0
 11 16  1  0  0  0  0
 43 47  1  0  0  0  0
 43 48  1  0  0  0  0
 50 55  1  0  0  0  0
  8 14  1  0  0  0  0
 30 35  1  0  0  0  0
 40 46  1  0  0  0  0
 59 61  1  0  0  0  0
 17 19  1  0  0  0  0
  7 13  1  0  0  0  0
 29 34  1  0  0  0  0
 49 54  1  0  0  0  0
 39 45  1  0  0  0  0
M  END
$$$$

  -OEChem-05262214473D

 64 63  0     1  0  0  0  0  0999 V2000
    0.6173    1.9685   -9.2458 C   0  0  0  0  0  0  0  0  0  0  0  0
   -0.5582    2.1845   -9.5164 O   0  0  0  0  0  0  0  0  0  0  0  0
    1.4276    1.0867  -10.1368 C   0  0  0  0  0  0  0  0  0  0  0  0
    1.3811    0.0278   -9.8357 H   0  0  0  0  0  0  0  0  0  0  0  0
    1.0770    1.1079  -11.1812 H   0  0  0  0  0  0  0  0  0  0  0  0
    2.5017    1.3267  -10.1871 H   0  0  0  0  0  0  0  0  0  0  0  0
    1.3139    2.4717   -8.1606 N   0  0  0  0  0  0  0  0  0  0  0  0
    0.7237    3.3441   -7.1772 C   0  0  2  0  0  0  0  0  0  0  0  0
    1.7786    4.3426   -6.7053 C   0  0  0  0  0  0  0  0  0  0  0  0
    2.9570    4.2852   -7.0508 O   0  0  0  0  0  0  0  0  0  0  0  0
    0.0651    2.5704   -6.0324 C   0  0  0  0  0  0  0  0  0  0  0  0
    1.2330    1.5677   -5.0561 S   0  0  0  0  0  0  0  0  0  0  0  0
    2.2918    2.2125   -8.0518 H   0  0  0  0  0  0  0  0  0  0  0  0
   -0.0510    3.9084   -7.7110 H   0  0  0  0  0  0  0  0  0  0  0  0
   -0.4338    3.2574   -5.3412 H   0  0  0  0  0  0  0  0  0  0  0  0
   -0.6966    1.8913   -6.4306 H   0  0  0  0  0  0  0  0  0  0  0  0
    1.2544    5.2880   -5.8352 N   0  0  0  0  0  0  0  0  0  0  0  0
    2.0602    6.3246   -5.2336 C   0  0  0  0  0  0  0  0  0  0  0  0
    0.2581    5.2874   -5.6374 H   0  0  0  0  0  0  0  0  0  0  0  0
    2.4292    5.9818   -4.2556 H   0  0  0  0  0  0  0  0  0  0  0  0
    2.9143    6.5514   -5.8886 H   0  0  0  0  0  0  0  0  0  0  0  0
    1.4510    7.2305   -5.0984 H   0  0  0  0  0  0  0  0  0  0  0  0
   -6.7256    2.0330   -0.2766 C   0  0  0  0  0  0  0  0  0  0  0  0
   -7.1824    1.1039   -0.9322 O   0  0  0  0  0  0  0  0  0  0  0  0
   -7.5276    2.6077    0.8435 C   0  0  0  0  0  0  0  0  0  0  0  0
   -8.1775    3.4344    0.5145 H   0  0  0  0  0  0  0  0  0  0  0  0
   -8.2057    1.8676    1.2980 H   0  0  0  0  0  0  0  0  0  0  0  0
   -6.9411    3.0162    1.6819 H   0  0  0  0  0  0  0  0  0  0  0  0
   -5.4935    2.6382   -0.4627 N   0  0  0  0  0  0  0  0  0  0  0  0
   -4.5619    2.2388   -1.4845 C   0  0  2  0  0  0  0  0  0  0  0  0
   -3.1535    2.4674   -0.9521 C   0  0  0  0  0  0  0  0  0  0  0  0
   -2.8634    3.3945   -0.1987 O   0  0  0  0  0  0  0  0  0  0  0  0
   -4.7883    3.0138   -2.7732 C   0  0  0  0  0  0  0  0  0  0  0  0
   -5.2337    3.4049    0.1551 H   0  0  0  0  0  0  0  0  0  0  0  0
   -4.7192    1.1682   -1.6549 H   0  0  0  0  0  0  0  0  0  0  0  0
   -4.6352    4.0886   -2.6221 H   0  0  0  0  0  0  0  0  0  0  0  0
   -4.0976    2.6887   -3.5582 H   0  0  0  0  0  0  0  0  0  0  0  0
   -5.8111    2.8719   -3.1387 H   0  0  0  0  0  0  0  0  0  0  0  0
   -2.2466    1.5400   -1.4507 N   0  0  0  0  0  0  0  0  0  0  0  0
   -0.8424    1.5707   -1.1286 C   0  0  2  0  0  0  0  0  0  0  0  0
   -0.6309    2.4880    0.0742 C   0  0  0  0  0  0  0  0  0  0  0  0
   -0.9153    3.6840    0.0624 O   0  0  0  0  0  0  0  0  0  0  0  0
    0.0240    1.9417   -2.3346 C   0  0  0  0  0  0  0  0  0  0  0  0
   -0.0225    0.7208   -3.6688 S   0  0  0  0  0  0  0  0  0  0  0  0
   -2.5850    0.7815   -2.0381 H   0  0  0  0  0  0  0  0  0  0  0  0
   -0.5896    0.5502   -0.8151 H   0  0  0  0  0  0  0  0  0  0  0  0
   -0.2949    2.9003   -2.7567 H   0  0  0  0  0  0  0  0  0  0  0  0
    1.0691    2.0486   -2.0245 H   0  0  0  0  0  0  0  0  0  0  0  0
   -0.0653    1.8198    1.1508 N   0  0  0  0  0  0  0  0  0  0  0  0
    0.2538    2.4784    2.3959 C   0  0  2  0  0  0  0  0  0  0  0  0
    1.4842    1.8007    2.9845 C   0  0  0  0  0  0  0  0  0  0  0  0
    1.7119    0.5991    2.8608 O   0  0  0  0  0  0  0  0  0  0  0  0
   -0.9149    2.4217    3.3673 C   0  0  0  0  0  0  0  0  0  0  0  0
    0.0977    0.8192    1.0886 H   0  0  0  0  0  0  0  0  0  0  0  0
    0.4914    3.5194    2.1513 H   0  0  0  0  0  0  0  0  0  0  0  0
   -1.1676    1.3864    3.6241 H   0  0  0  0  0  0  0  0  0  0  0  0
   -0.6816    2.9460    4.2998 H   0  0  0  0  0  0  0  0  0  0  0  0
   -1.8073    2.8830    2.9307 H   0  0  0  0  0  0  0  0  0  0  0  0
    2.2759    2.6875    3.7009 N   0  0  0  0  0  0  0  0  0  0  0  0
    3.4771    2.2781    4.3905 C   0  0  0  0  0  0  0  0  0  0  0  0
    2.0326    3.6735    3.7172 H   0  0  0  0  0  0  0  0  0  0  0  0
    3.2337    2.0244    5.4328 H   0  0  0  0  0  0  0  0  0  0  0  0
    3.9055    1.3977    3.8893 H   0  0  0  0  0  0  0  0  0  0  0  0
    4.2073    3.1007    4.3745 H   0  0  0  0  0  0  0  0  0  0  0  0
  1  3  1  0  0  0  0
  1  7  1  0  0  0  0
  1  2  2  0  0  0  0
 23 25  1  0  0  0  0
 23 29  1  0  0  0  0
 23 24  2  0  0  0  0
 50 51  1  0  0  0  0
 51 59  1  0  0  0  0
 51 52  2  0  0  0  0
  8  9  1  0  0  0  0
  9 17  1  0  0  0  0
  9 10  2  0  0  0  0
 30 31  1  0  0  0  0
 31 39  1  0  0  0  0
 31 32  2  0  0  0  0
 40 41  1  0  0  0  0
 41 49  1  0  0  0  0
 41 42  2  0  0  0  0
 50 53  1  0  0  0  0
 30 33  1  0  0  0  0
 59 60  1  0  0  0  0
 17 18  1  0  0  0  0
  8 11  1  0  0  0  0
 11 12  1  0  0  0  0
 40 43  1  0  0  0  0
 43 44  1  0  0  0  0
 49 50  1  0  0  0  0
  7  8  1  0  0  0  0
 29 30  1  0  0  0  0
 39 40  1  0  0  0  0
 12 44  1  0  0  0  0
  3  4  1  0  0  0  0
  3  5  1  0  0  0  0
  3  6  1  0  0  0  0
 25 26  1  0  0  0  0
 25 27  1  0  0  0  0
 25 28  1  0  0  0  0
 53 56  1  0  0  0  0
 53 57  1  0  0  0  0
 53 58  1  0  0  0  0
 33 36  1  0  0  0  0
 33 37  1  0  0  0  0
 33 38  1  0  0  0  0
 60 62  1  0  0  0  0
 60 63  1  0  0  0  0
 60 64  1  0  0  0  0
 18 20  1  0  0  0  0
 18 21  1  0  0  0  0
 18 22  1  0  0  0  0
 11 15  1  0  0  0  0
 11 16  1  0  0  0  0
 43 47  1  0  0  0  0
 43 48  1  0  0  0  0
 50 55  1  0  0  0  0
  8 14  1  0  0  0  0
 30 35  1  0  0  0  0
 40 46  1  0  0  0  0
 59 61  1  0  0  0  0
 17 19  1  0  0  0  0
  7 13  1  0  0  0  0
 29 34  1  0  0  0  0
 49 54  1  0  0  0  0
 39 45  1  0  0  0  0
M  END
$$$$

  -OEChem-05262214473D

 64 63  0     1  0  0  0  0  0999 V2000
    0.6173    1.9685   -9.2458 C   0  0  0  0  0  0  0  0  0  0  0  0
   -0.5582    2.1845   -9.5164 O   0  0  0  0  0  0  0  0  0  0  0  0
    1.4276    1.0867  -10.1368 C   0  0  0  0  0  0  0  0  0  0  0  0
    1.3811    0.0278   -9.8357 H   0  0  0  0  0  0  0  0  0  0  0  0
    1.0770    1.1079  -11.1812 H   0  0  0  0  0  0  0  0  0  0  0  0
    2.5017    1.3267  -10.1871 H   0  0  0  0  0  0  0  0  0  0  0  0
    1.3139    2.4717   -8.1606 N   0  0  0  0  0  0  0  0  0  0  0  0
    0.7237    3.3441   -7.1772 C   0  0  2  0  0  0  0  0  0  0  0  0
    1.7786    4.3426   -6.7053 C   0  0  0  0  0  0  0  0  0  0  0  0
    2.9570    4.2852   -7.0508 O   0  0  0  0  0  0  0  0  0  0  0  0
    0.0651    2.5704   -6.0324 C   0  0  0  0  0  0  0  0  0  0  0  0
    1.2330    1.5677   -5.0561 S   0  0  0  0  0  0  0  0  0  0  0  0
    2.2918    2.2125   -8.0518 H   0  0  0  0  0  0  0  0  0  0  0  0
   -0.0510    3.9084   -7.7110 H   0  0  0  0  0  0  0  0  0  0  0  0
   -0.4338    3.2574   -5.3412 H   0  0  0  0  0  0  0  0  0  0  0  0
   -0.6966    1.8913   -6.4306 H   0  0  0  0  0  0  0  0  0  0  0  0
    1.2544    5.2880   -5.8352 N   0  0  0  0  0  0  0  0  0  0  0  0
    2.0602    6.3246   -5.2336 C   0  0  0  0  0  0  0  0  0  0  0  0
    0.2581    5.2874   -5.6374 H   0  0  0  0  0  0  0  0  0  0  0  0
    2.4292    5.9818   -4.2556 H   0  0  0  0  0  0  0  0  0  0  0  0
    2.9143    6.5514   -5.8886 H   0  0  0  0  0  0  0  0  0  0  0  0
    1.4510    7.2305   -5.0984 H   0  0  0  0  0  0  0  0  0  0  0  0
   -6.7256    2.0330   -0.2766 C   0  0  0  0  0  0  0  0  0  0  0  0
   -7.1824    1.1039   -0.9322 O   0  0  0  0  0  0  0  0  0  0  0  0
   -7.5276    2.6077    0.8435 C   0  0  0  0  0  0  0  0  0  0  0  0
   -8.1775    3.4344    0.5145 H   0  0  0  0  0  0  0  0  0  0  0  0
   -8.2057    1.8676    1.2980 H   0  0  0  0  0  0  0  0  0  0  0  0
   -6.9411    3.0162    1.6819 H   0  0  0  0  0  0  0  0  0  0  0  0
   -5.4935    2.6382   -0.4627 N   0  0  0  0  0  0  0  0  0  0  0  0
   -4.5619    2.2388   -1.4845 C   0  0  2  0  0  0  0  0  0  0  0  0
   -3.1535    2.4674   -0.9521 C   0  0  0  0  0  0  0  0  0  0  0  0
   -2.8634    3.3945   -0.1987 O   0  0  0  0  0  0  0  0  0  0  0  0
   -4.7883    3.0138   -2.7732 C   0  0  0  0  0  0  0  0  0  0  0  0
   -5.2337    3.4049    0.1551 H   0  0  0  0  0  0  0  0  0  0  0  0
   -4.7192    1.1682   -1.6549 H   0  0  0  0  0  0  0  0  0  0  0  0
   -4.6352    4.0886   -2.6221 H   0  0  0  0  0  0  0  0  0  0  0  0
   -4.0976    2.6887   -3.5582 H   0  0  0  0  0  0  0  0  0  0  0  0
   -5.8111    2.8719   -3.1387 H   0  0  0  0  0  0  0  0  0  0  0  0
   -2.2466    1.5400   -1.4507 N   0  0  0  0  0  0  0  0  0  0  0  0
   -0.8424    1.5707   -1.1286 C   0  0  2  0  0  0  0  0  0  0  0  0
   -0.6309    2.4880    0.0742 C   0  0  0  0  0  0  0  0  0  0  0  0
   -1.1481    3.5994    0.1678 O   0  0  0  0  0  0  0  0  0  0  0  0
    0.0240    1.9417   -2.3346 C   0  0  0  0  0  0  0  0  0  0  0  0
   -0.0225    0.7208   -3.6688 S   0  0  0  0  0  0  0  0  0  0  0  0
   -2.5850    0.7815   -2.0381 H   0  0  0  0  0  0  0  0  0  0  0  0
   -0.5896    0.5502   -0.8151 H   0  0  0  0  0  0  0  0  0  0  0  0
   -0.2949    2.9003   -2.7567 H   0  0  0  0  0  0  0  0  0  0  0  0
    1.0691    2.0486   -2.0245 H   0  0  0  0  0  0  0  0  0  0  0  0
    0.2215    1.9300    1.0163 N   0  0  0  0  0  0  0  0  0  0  0  0
    0.5957    2.6156    2.2311 C   0  0  2  0  0  0  0  0  0  0  0  0
    2.0148    2.1954    2.5902 C   0  0  0  0  0  0  0  0  0  0  0  0
    2.4567    1.0694    2.3711 O   0  0  0  0  0  0  0  0  0  0  0  0
   -0.3680    2.2994    3.3643 C   0  0  0  0  0  0  0  0  0  0  0  0
    0.5702    0.9861    0.8782 H   0  0  0  0  0  0  0  0  0  0  0  0
    0.5772    3.6879    2.0077 H   0  0  0  0  0  0  0  0  0  0  0  0
   -0.3632    1.2295    3.6024 H   0  0  0  0  0  0  0  0  0  0  0  0
   -0.0994    2.8422    4.2766 H   0  0  0  0  0  0  0  0  0  0  0  0
   -1.3927    2.5749    3.0927 H   0  0  0  0  0  0  0  0  0  0  0  0
    2.7159    3.2122    3.2233 N   0  0  0  0  0  0  0  0  0  0  0  0
    4.0689    3.0465    3.7005 C   0  0  0  0  0  0  0  0  0  0  0  0
    2.2852    4.1262    3.3275 H   0  0  0  0  0  0  0  0  0  0  0  0
    4.0506    2.7273    4.7530 H   0  0  0  0  0  0  0  0  0  0  0  0
    4.5802    2.2836    3.0950 H   0  0  0  0  0  0  0  0  0  0  0  0
    4.6069    4.0023    3.6166 H   0  0  0  0  0  0  0  0  0  0  0  0
  1  3  1  0  0  0  0
  1  7  1  0  0  0  0
  1  2  2  0  0  0  0
 23 25  1  0  0  0  0
 23 29  1  0  0  0  0
 23 24  2  0  0  0  0
 50 51  1  0  0  0  0
 51 59  1  0  0  0  0
 51 52  2  0  0  0  0
  8  9  1  0  0  0  0
  9 17  1  0  0  0  0
  9 10  2  0  0  0  0
 30 31  1  0  0  0  0
 31 39  1  0  0  0  0
 31 32  2  0  0  0  0
 40 41  1  0  0  0  0
 41 49  1  0  0  0  0
 41 42  2  0  0  0  0
 50 53  1  0  0  0  0
 30 33  1  0  0  0  0
 59 60  1  0  0  0  0
 17 18  1  0  0  0  0
  8 11  1  0  0  0  0
 11 12  1  0  0  0  0
 40 43  1  0  0  0  0
 43 44  1  0  0  0  0
 49 50  1  0  0  0  0
  7  8  1  0  0  0  0
 29 30  1  0  0  0  0
 39 40  1  0  0  0  0
 12 44  1  0  0  0  0
  3  4  1  0  0  0  0
  3  5  1  0  0  0  0
  3  6  1  0  0  0  0
 25 26  1  0  0  0  0
 25 27  1  0  0  0  0
 25 28  1  0  0  0  0
 53 56  1  0  0  0  0
 53 57  1  0  0  0  0
 53 58  1  0  0  0  0
 33 36  1  0  0  0  0
 33 37  1  0  0  0  0
 33 38  1  0  0  0  0
 60 62  1  0  0  0  0
 60 63  1  0  0  0  0
 60 64  1  0  0  0  0
 18 20  1  0  0  0  0
 18 21  1  0  0  0  0
 18 22  1  0  0  0  0
 11 15  1  0  0  0  0
 11 16  1  0  0  0  0
 43 47  1  0  0  0  0
 43 48  1  0  0  0  0
 50 55  1  0  0  0  0
  8 14  1  0  0  0  0
 30 35  1  0  0  0  0
 40 46  1  0  0  0  0
 59 61  1  0  0  0  0
 17 19  1  0  0  0  0
  7 13  1  0  0  0  0
 29 34  1  0  0  0  0
 49 54  1  0  0  0  0
 39 45  1  0  0  0  0
M  END
$$$$

  -OEChem-05262214473D

 64 63  0     1  0  0  0  0  0999 V2000
    0.6173    1.9685   -9.2458 C   0  0  0  0  0  0  0  0  0  0  0  0
   -0.5582    2.1845   -9.5164 O   0  0  0  0  0  0  0  0  0  0  0  0
    1.4276    1.0867  -10.1368 C   0  0  0  0  0  0  0  0  0  0  0  0
    1.3811    0.0278   -9.8357 H   0  0  0  0  0  0  0  0  0  0  0  0
    1.0770    1.1079  -11.1812 H   0  0  0  0  0  0  0  0  0  0  0  0
    2.5017    1.3267  -10.1871 H   0  0  0  0  0  0  0  0  0  0  0  0
    1.3139    2.4717   -8.1606 N   0  0  0  0  0  0  0  0  0  0  0  0
    0.7237    3.3441   -7.1772 C   0  0  2  0  0  0  0  0  0  0  0  0
    1.7786    4.3426   -6.7053 C   0  0  0  0  0  0  0  0  0  0  0  0
    2.9570    4.2852   -7.0508 O   0  0  0  0  0  0  0  0  0  0  0  0
    0.0651    2.5704   -6.0324 C   0  0  0  0  0  0  0  0  0  0  0  0
    1.2330    1.5677   -5.0561 S   0  0  0  0  0  0  0  0  0  0  0  0
    2.2918    2.2125   -8.0518 H   0  0  0  0  0  0  0  0  0  0  0  0
   -0.0510    3.9084   -7.7110 H   0  0  0  0  0  0  0  0  0  0  0  0
   -0.4338    3.2574   -5.3412 H   0  0  0  0  0  0  0  0  0  0  0  0
   -0.6966    1.8913   -6.4306 H   0  0  0  0  0  0  0  0  0  0  0  0
    1.2544    5.2880   -5.8352 N   0  0  0  0  0  0  0  0  0  0  0  0
    2.0602    6.3246   -5.2336 C   0  0  0  0  0  0  0  0  0  0  0  0
    0.2581    5.2874   -5.6374 H   0  0  0  0  0  0  0  0  0  0  0  0
    2.4292    5.9818   -4.2556 H   0  0  0  0  0  0  0  0  0  0  0  0
    2.9143    6.5514   -5.8886 H   0  0  0  0  0  0  0  0  0  0  0  0
    1.4510    7.2305   -5.0984 H   0  0  0  0  0  0  0  0  0  0  0  0
   -6.7256    2.0330   -0.2766 C   0  0  0  0  0  0  0  0  0  0  0  0
   -7.1824    1.1039   -0.9322 O   0  0  0  0  0  0  0  0  0  0  0  0
   -7.5276    2.6077    0.8435 C   0  0  0  0  0  0  0  0  0  0  0  0
   -8.1775    3.4344    0.5145 H   0  0  0  0  0  0  0  0  0  0  0  0
   -8.2057    1.8676    1.2980 H   0  0  0  0  0  0  0  0  0  0  0  0
   -6.9411    3.0162    1.6819 H   0  0  0  0  0  0  0  0  0  0  0  0
   -5.4935    2.6382   -0.4627 N   0  0  0  0  0  0  0  0  0  0  0  0
   -4.5619    2.2388   -1.4845 C   0  0  2  0  0  0  0  0  0  0  0  0
   -3.1535    2.4674   -0.9521 C   0  0  0  0  0  0  0  0  0  0  0  0
   -2.8634    3.3945   -0.1987 O   0  0  0  0  0  0  0  0  0  0  0  0
   -4.7883    3.0138   -2.7732 C   0  0  0  0  0  0  0  0  0  0  0  0
   -5.2337    3.4049    0.1551 H   0  0  0  0  0  0  0  0  0  0  0  0
   -4.7192    1.1682   -1.6549 H   0  0  0  0  0  0  0  0  0  0  0  0
   -4.6352    4.0886   -2.6221 H   0  0  0  0  0  0  0  0  0  0  0  0
   -4.0976    2.6887   -3.5582 H   0  0  0  0  0  0  0  0  0  0  0  0
   -5.8111    2.8719   -3.1387 H   0  0  0  0  0  0  0  0  0  0  0  0
   -2.2466    1.5400   -1.4507 N   0  0  0  0  0  0  0  0  0  0  0  0
   -0.8424    1.5707   -1.1286 C   0  0  2  0  0  0  0  0  0  0  0  0
   -0.6309    2.4880    0.0742 C   0  0  0  0  0  0  0  0  0  0  0  0
   -1.3392    3.4664    0.3028 O   0  0  0  0  0  0  0  0  0  0  0  0
    0.0240    1.9417   -2.3346 C   0  0  0  0  0  0  0  0  0  0  0  0
   -0.0225    0.7208   -3.6688 S   0  0  0  0  0  0  0  0  0  0  0  0
   -2.5850    0.7815   -2.0381 H   0  0  0  0  0  0  0  0  0  0  0  0
   -0.5896    0.5502   -0.8151 H   0  0  0  0  0  0  0  0  0  0  0  0
   -0.2949    2.9003   -2.7567 H   0  0  0  0  0  0  0  0  0  0  0  0
    1.0691    2.0486   -2.0245 H   0  0  0  0  0  0  0  0  0  0  0  0
    0.4551    2.0997    0.8458 N   0  0  0  0  0  0  0  0  0  0  0  0
    0.8724    2.8238    2.0237 C   0  0  2  0  0  0  0  0  0  0  0  0
    2.3857    2.6988    2.1410 C   0  0  0  0  0  0  0  0  0  0  0  0
    3.0042    1.6931    1.7992 O   0  0  0  0  0  0  0  0  0  0  0  0
    0.1848    2.2930    3.2720 C   0  0  0  0  0  0  0  0  0  0  0  0
    0.9599    1.2512    0.6075 H   0  0  0  0  0  0  0  0  0  0  0  0
    0.6034    3.8732    1.8617 H   0  0  0  0  0  0  0  0  0  0  0  0
    0.4423    1.2426    3.4507 H   0  0  0  0  0  0  0  0  0  0  0  0
    0.4805    2.8614    4.1600 H   0  0  0  0  0  0  0  0  0  0  0  0
   -0.9043    2.3561    3.1738 H   0  0  0  0  0  0  0  0  0  0  0  0
    2.9597    3.8259    2.7123 N   0  0  0  0  0  0  0  0  0  0  0  0
    4.3768    3.9340    2.9695 C   0  0  0  0  0  0  0  0  0  0  0  0
    2.3763    4.6290    2.9281 H   0  0  0  0  0  0  0  0  0  0  0  0
    4.5907    3.5972    3.9946 H   0  0  0  0  0  0  0  0  0  0  0  0
    4.9280    3.3053    2.2546 H   0  0  0  0  0  0  0  0  0  0  0  0
    4.6913    4.9818    2.8547 H   0  0  0  0  0  0  0  0  0  0  0  0
  1  3  1  0  0  0  0
  1  7  1  0  0  0  0
  1  2  2  0  0  0  0
 23 25  1  0  0  0  0
 23 29  1  0  0  0  0
 23 24  2  0  0  0  0
 50 51  1  0  0  0  0
 51 59  1  0  0  0  0
 51 52  2  0  0  0  0
  8  9  1  0  0  0  0
  9 17  1  0  0  0  0
  9 10  2  0  0  0  0
 30 31  1  0  0  0  0
 31 39  1  0  0  0  0
 31 32  2  0  0  0  0
 40 41  1  0  0  0  0
 41 49  1  0  0  0  0
 41 42  2  0  0  0  0
 50 53  1  0  0  0  0
 30 33  1  0  0  0  0
 59 60  1  0  0  0  0
 17 18  1  0  0  0  0
  8 11  1  0  0  0  0
 11 12  1  0  0  0  0
 40 43  1  0  0  0  0
 43 44  1  0  0  0  0
 49 50  1  0  0  0  0
  7  8  1  0  0  0  0
 29 30  1  0  0  0  0
 39 40  1  0  0  0  0
 12 44  1  0  0  0  0
  3  4  1  0  0  0  0
  3  5  1  0  0  0  0
  3  6  1  0  0  0  0
 25 26  1  0  0  0  0
 25 27  1  0  0  0  0
 25 28  1  0  0  0  0
 53 56  1  0  0  0  0
 53 57  1  0  0  0  0
 53 58  1  0  0  0  0
 33 36  1  0  0  0  0
 33 37  1  0  0  0  0
 33 38  1  0  0  0  0
 60 62  1  0  0  0  0
 60 63  1  0  0  0  0
 60 64  1  0  0  0  0
 18 20  1  0  0  0  0
 18 21  1  0  0  0  0
 18 22  1  0  0  0  0
 11 15  1  0  0  0  0
 11 16  1  0  0  0  0
 43 47  1  0  0  0  0
 43 48  1  0  0  0  0
 50 55  1  0  0  0  0
  8 14  1  0  0  0  0
 30 35  1  0  0  0  0
 40 46  1  0  0  0  0
 59 61  1  0  0  0  0
 17 19  1  0  0  0  0
  7 13  1  0  0  0  0
 29 34  1  0  0  0  0
 49 54  1  0  0  0  0
 39 45  1  0  0  0  0
M  END
$$$$

  -OEChem-05262214473D

 64 63  0     1  0  0  0  0  0999 V2000
    0.6173    1.9685   -9.2458 C   0  0  0  0  0  0  0  0  0  0  0  0
   -0.5582    2.1845   -9.5164 O   0  0  0  0  0  0  0  0  0  0  0  0
    1.4276    1.0867  -10.1368 C   0  0  0  0  0  0  0  0  0  0  0  0
    1.3811    0.0278   -9.8357 H   0  0  0  0  0  0  0  0  0  0  0  0
    1.0770    1.1079  -11.1812 H   0  0  0  0  0  0  0  0  0  0  0  0
    2.5017    1.3267  -10.1871 H   0  0  0  0  0  0  0  0  0  0  0  0
    1.3139    2.4717   -8.1606 N   0  0  0  0  0  0  0  0  0  0  0  0
    0.7237    3.3441   -7.1772 C   0  0  2  0  0  0  0  0  0  0  0  0
    1.7786    4.3426   -6.7053 C   0  0  0  0  0  0  0  0  0  0  0  0
    2.9570    4.2852   -7.0508 O   0  0  0  0  0  0  0  0  0  0  0  0
    0.0651    2.5704   -6.0324 C   0  0  0  0  0  0  0  0  0  0  0  0
    1.2330    1.5677   -5.0561 S   0  0  0  0  0  0  0  0  0  0  0  0
    2.2918    2.2125   -8.0518 H   0  0  0  0  0  0  0  0  0  0  0  0
   -0.0510    3.9084   -7.7110 H   0  0  0  0  0  0  0  0  0  0  0  0
   -0.4338    3.2574   -5.3412 H   0  0  0  0  0  0  0  0  0  0  0  0
   -0.6966    1.8913   -6.4306 H   0  0  0  0  0  0  0  0  0  0  0  0
    1.2544    5.2880   -5.8352 N   0  0  0  0  0  0  0  0  0  0  0  0
    2.0602    6.3246   -5.2336 C   0  0  0  0  0  0  0  0  0  0  0  0
    0.2581    5.2874   -5.6374 H   0  0  0  0  0  0  0  0  0  0  0  0
    2.4292    5.9818   -4.2556 H   0  0  0  0  0  0  0  0  0  0  0  0
    2.9143    6.5514   -5.8886 H   0  0  0  0  0  0  0  0  0  0  0  0
    1.4510    7.2305   -5.0984 H   0  0  0  0  0  0  0  0  0  0  0  0
   -6.7256    2.0330   -0.2766 C   0  0  0  0  0  0  0  0  0  0  0  0
   -7.1824    1.1039   -0.9322 O   0  0  0  0  0  0  0  0  0  0  0  0
   -7.5276    2.6077    0.8435 C   0  0  0  0  0  0  0  0  0  0  0  0
   -8.1775    3.4344    0.5145 H   0  0  0  0  0  0  0  0  0  0  0  0
   -8.2057    1.8676    1.2980 H   0  0  0  0  0  0  0  0  0  0  0  0
   -6.9411    3.0162    1.6819 H   0  0  0  0  0  0  0  0  0  0  0  0
   -5.4935    2.6382   -0.4627 N   0  0  0  0  0  0  0  0  0  0  0  0
   -4.5619    2.2388   -1.4845 C   0  0  2  0  0  0  0  0  0  0  0  0
   -3.1535    2.4674   -0.9521 C   0  0  0  0  0  0  0  0  0  0  0  0
   -2.8634    3.3945   -0.1987 O   0  0  0  0  0  0  0  0  0  0  0  0
   -4.7883    3.0138   -2.7732 C   0  0  0  0  0  0  0  0  0  0  0  0
   -5.2337    3.4049    0.1551 H   0  0  0  0  0  0  0  0  0  0  0  0
   -4.7192    1.1682   -1.6549 H   0  0  0  0  0  0  0  0  0  0  0  0
   -4.6352    4.0886   -2.6221 H   0  0  0  0  0  0  0  0  0  0  0  0
   -4.0976    2.6887   -3.5582 H   0  0  0  0  0  0  0  0  0  0  0  0
   -5.8111    2.8719   -3.1387 H   0  0  0  0  0  0  0  0  0  0  0  0
   -2.2466    1.5400   -1.4507 N   0  0  0  0  0  0  0  0  0  0  0  0
   -0.8424    1.5707   -1.1286 C   0  0  2  0  0  0  0  0  0  0  0  0
   -0.6309    2.4880    0.0742 C   0  0  0  0  0  0  0  0  0  0  0  0
   -1.4758    3.2942    0.4582 O   0  0  0  0  0  0  0  0  0  0  0  0
    0.0240    1.9417   -2.3346 C   0  0  0  0  0  0  0  0  0  0  0  0
   -0.0225    0.7208   -3.6688 S   0  0  0  0  0  0  0  0  0  0  0  0
   -2.5850    0.7815   -2.0381 H   0  0  0  0  0  0  0  0  0  0  0  0
   -0.5896    0.5502   -0.8151 H   0  0  0  0  0  0  0  0  0  0  0  0
   -0.2949    2.9003   -2.7567 H   0  0  0  0  0  0  0  0  0  0  0  0
    1.0691    2.0486   -2.0245 H   0  0  0  0  0  0  0  0  0  0  0  0
    0.6196    2.3174    0.6509 N   0  0  0  0  0  0  0  0  0  0  0  0
    1.0649    3.0886    1.7879 C   0  0  2  0  0  0  0  0  0  0  0  0
    2.5715    3.2768    1.6675 C   0  0  0  0  0  0  0  0  0  0  0  0
    3.3171    2.4275    1.1840 O   0  0  0  0  0  0  0  0  0  0  0  0
    0.7057    2.4027    3.0967 C   0  0  0  0  0  0  0  0  0  0  0  0
    1.2402    1.5963    0.2950 H   0  0  0  0  0  0  0  0  0  0  0  0
    0.5683    4.0629    1.7233 H   0  0  0  0  0  0  0  0  0  0  0  0
    1.1941    1.4249    3.1795 H   0  0  0  0  0  0  0  0  0  0  0  0
    1.0186    3.0023    3.9579 H   0  0  0  0  0  0  0  0  0  0  0  0
   -0.3753    2.2413    3.1683 H   0  0  0  0  0  0  0  0  0  0  0  0
    2.9907    4.4867    2.2029 N   0  0  0  0  0  0  0  0  0  0  0  0
    4.3796    4.8802    2.2473 C   0  0  0  0  0  0  0  0  0  0  0  0
    2.2997    5.1474    2.5461 H   0  0  0  0  0  0  0  0  0  0  0  0
    4.8172    4.5748    3.2092 H   0  0  0  0  0  0  0  0  0  0  0  0
    4.9250    4.3932    1.4254 H   0  0  0  0  0  0  0  0  0  0  0  0
    4.4548    5.9724    2.1407 H   0  0  0  0  0  0  0  0  0  0  0  0
  1  3  1  0  0  0  0
  1  7  1  0  0  0  0
  1  2  2  0  0  0  0
 23 25  1  0  0  0  0
 23 29  1  0  0  0  0
 23 24  2  0  0  0  0
 50 51  1  0  0  0  0
 51 59  1  0  0  0  0
 51 52  2  0  0  0  0
  8  9  1  0  0  0  0
  9 17  1  0  0  0  0
  9 10  2  0  0  0  0
 30 31  1  0  0  0  0
 31 39  1  0  0  0  0
 31 32  2  0  0  0  0
 40 41  1  0  0  0  0
 41 49  1  0  0  0  0
 41 42  2  0  0  0  0
 50 53  1  0  0  0  0
 30 33  1  0  0  0  0
 59 60  1  0  0  0  0
 17 18  1  0  0  0  0
  8 11  1  0  0  0  0
 11 12  1  0  0  0  0
 40 43  1  0  0  0  0
 43 44  1  0  0  0  0
 49 50  1  0  0  0  0
  7  8  1  0  0  0  0
 29 30  1  0  0  0  0
 39 40  1  0  0  0  0
 12 44  1  0  0  0  0
  3  4  1  0  0  0  0
  3  5  1  0  0  0  0
  3  6  1  0  0  0  0
 25 26  1  0  0  0  0
 25 27  1  0  0  0  0
 25 28  1  0  0  0  0
 53 56  1  0  0  0  0
 53 57  1  0  0  0  0
 53 58  1  0  0  0  0
 33 36  1  0  0  0  0
 33 37  1  0  0  0  0
 33 38  1  0  0  0  0
 60 62  1  0  0  0  0
 60 63  1  0  0  0  0
 60 64  1  0  0  0  0
 18 20  1  0  0  0  0
 18 21  1  0  0  0  0
 18 22  1  0  0  0  0
 11 15  1  0  0  0  0
 11 16  1  0  0  0  0
 43 47  1  0  0  0  0
 43 48  1  0  0  0  0
 50 55  1  0  0  0  0
  8 14  1  0  0  0  0
 30 35  1  0  0  0  0
 40 46  1  0  0  0  0
 59 61  1  0  0  0  0
 17 19  1  0  0  0  0
  7 13  1  0  0  0  0
 29 34  1  0  0  0  0
 49 54  1  0  0  0  0
 39 45  1  0  0  0  0
M  END
$$$$

  -OEChem-05262214473D

 64 63  0     1  0  0  0  0  0999 V2000
    0.4870    4.0864   -8.8798 C   0  0  0  0  0  0  0  0  0  0  0  0
   -0.7023    4.2944   -9.0894 O   0  0  0  0  0  0  0  0  0  0  0  0
    1.3348    3.5066   -9.9631 C   0  0  0  0  0  0  0  0  0  0  0  0
    1.3528    2.4051   -9.9390 H   0  0  0  0  0  0  0  0  0  0  0  0
    0.9701    3.7698  -10.9689 H   0  0  0  0  0  0  0  0  0  0  0  0
    2.3927    3.8140   -9.9491 H   0  0  0  0  0  0  0  0  0  0  0  0
    1.1677    4.3397   -7.7015 N   0  0  0  0  0  0  0  0  0  0  0  0
    0.5414    4.8999   -6.5309 C   0  0  2  0  0  0  0  0  0  0  0  0
    1.5435    5.8073   -5.8202 C   0  0  0  0  0  0  0  0  0  0  0  0
    2.7187    5.9079   -6.1668 O   0  0  0  0  0  0  0  0  0  0  0  0
   -0.0570    3.8255   -5.6196 C   0  0  0  0  0  0  0  0  0  0  0  0
    1.1788    2.6793   -4.9258 S   0  0  0  0  0  0  0  0  0  0  0  0
    2.1602    4.1192   -7.6598 H   0  0  0  0  0  0  0  0  0  0  0  0
   -0.2712    5.5343   -6.9065 H   0  0  0  0  0  0  0  0  0  0  0  0
   -0.5854    4.2857   -4.7783 H   0  0  0  0  0  0  0  0  0  0  0  0
   -0.7838    3.2253   -6.1777 H   0  0  0  0  0  0  0  0  0  0  0  0
    0.9775    6.4705   -4.7407 N   0  0  0  0  0  0  0  0  0  0  0  0
    1.7305    7.3673   -3.8954 C   0  0  0  0  0  0  0  0  0  0  0  0
   -0.0145    6.3618   -4.5514 H   0  0  0  0  0  0  0  0  0  0  0  0
    2.1310    6.8113   -3.0349 H   0  0  0  0  0  0  0  0  0  0  0  0
    2.5617    7.8016   -4.4703 H   0  0  0  0  0  0  0  0  0  0  0  0
    1.0723    8.1726   -3.5372 H   0  0  0  0  0  0  0  0  0  0  0  0
   -6.7256    2.0330   -0.2766 C   0  0  0  0  0  0  0  0  0  0  0  0
   -7.1824    1.1039   -0.9322 O   0  0  0  0  0  0  0  0  0  0  0  0
   -7.5276    2.6077    0.8435 C   0  0  0  0  0  0  0  0  0  0  0  0
   -8.1775    3.4344    0.5145 H   0  0  0  0  0  0  0  0  0  0  0  0
   -8.2057    1.8676    1.2980 H   0  0  0  0  0  0  0  0  0  0  0  0
   -6.9411    3.0162    1.6819 H   0  0  0  0  0  0  0  0  0  0  0  0
   -5.4935    2.6382   -0.4627 N   0  0  0  0  0  0  0  0  0  0  0  0
   -4.5619    2.2388   -1.4845 C   0  0  2  0  0  0  0  0  0  0  0  0
   -3.1535    2.4674   -0.9521 C   0  0  0  0  0  0  0  0  0  0  0  0
   -2.8634    3.3945   -0.1987 O   0  0  0  0  0  0  0  0  0  0  0  0
   -4.7883    3.0138   -2.7732 C   0  0  0  0  0  0  0  0  0  0  0  0
   -5.2337    3.4049    0.1551 H   0  0  0  0  0  0  0  0  0  0  0  0
   -4.7192    1.1682   -1.6549 H   0  0  0  0  0  0  0  0  0  0  0  0
   -4.6352    4.0886   -2.6221 H   0  0  0  0  0  0  0  0  0  0  0  0
   -4.0976    2.6887   -3.5582 H   0  0  0  0  0  0  0  0  0  0  0  0
   -5.8111    2.8719   -3.1387 H   0  0  0  0  0  0  0  0  0  0  0  0
   -2.2466    1.5400   -1.4507 N   0  0  0  0  0  0  0  0  0  0  0  0
   -0.8424    1.5707   -1.1286 C   0  0  2  0  0  0  0  0  0  0  0  0
   -0.6681    2.1660    0.2671 C   0  0  0  0  0  0  0  0  0  0  0  0
   -1.6117    2.5597    0.9498 O   0  0  0  0  0  0  0  0  0  0  0  0
   -0.0143    2.2838   -2.2003 C   0  0  0  0  0  0  0  0  0  0  0  0
   -0.0082    1.4380   -3.7995 S   0  0  0  0  0  0  0  0  0  0  0  0
   -2.5850    0.7815   -2.0381 H   0  0  0  0  0  0  0  0  0  0  0  0
   -0.5277    0.5207   -1.0823 H   0  0  0  0  0  0  0  0  0  0  0  0
   -0.3929    3.2974   -2.3674 H   0  0  0  0  0  0  0  0  0  0  0  0
    1.0269    2.3701   -1.8712 H   0  0  0  0  0  0  0  0  0  0  0  0
    0.6646    2.2282    0.6486 N   0  0  0  0  0  0  0  0  0  0  0  0
    1.0873    2.7749    1.9167 C   0  0  2  0  0  0  0  0  0  0  0  0
    2.4512    3.4228    1.7184 C   0  0  0  0  0  0  0  0  0  0  0  0
    3.2942    2.9860    0.9376 O   0  0  0  0  0  0  0  0  0  0  0  0
    1.1472    1.6997    2.9905 C   0  0  0  0  0  0  0  0  0  0  0  0
    1.3778    1.8395    0.0387 H   0  0  0  0  0  0  0  0  0  0  0  0
    0.3544    3.5417    2.1905 H   0  0  0  0  0  0  0  0  0  0  0  0
    1.8763    0.9225    2.7336 H   0  0  0  0  0  0  0  0  0  0  0  0
    1.4402    2.1209    3.9578 H   0  0  0  0  0  0  0  0  0  0  0  0
    0.1727    1.2144    3.1109 H   0  0  0  0  0  0  0  0  0  0  0  0
    2.6329    4.5210    2.5474 N   0  0  0  0  0  0  0  0  0  0  0  0
    3.8610    5.2805    2.5774 C   0  0  0  0  0  0  0  0  0  0  0  0
    1.8659    4.8367    3.1338 H   0  0  0  0  0  0  0  0  0  0  0  0
    4.5216    4.8797    3.3604 H   0  0  0  0  0  0  0  0  0  0  0  0
    4.3623    5.2055    1.6011 H   0  0  0  0  0  0  0  0  0  0  0  0
    3.6346    6.3350    2.7933 H   0  0  0  0  0  0  0  0  0  0  0  0
  1  3  1  0  0  0  0
  1  7  1  0  0  0  0
  1  2  2  0  0  0  0
 23 25  1  0  0  0  0
 23 29  1  0  0  0  0
 23 24  2  0  0  0  0
 50 51  1  0  0  0  0
 51 59  1  0  0  0  0
 51 52  2  0  0  0  0
  8  9  1  0  0  0  0
  9 17  1  0  0  0  0
  9 10  2  0  0  0  0
 30 31  1  0  0  0  0
 31 39  1  0  0  0  0
 31 32  2  0  0  0  0
 40 41  1  0  0  0  0
 41 49  1  0  0  0  0
 41 42  2  0  0  0  0
 50 53  1  0  0  0  0
 30 33  1  0  0  0  0
 59 60  1  0  0  0  0
 17 18  1  0  0  0  0
  8 11  1  0  0  0  0
 11 12  1  0  0  0  0
 40 43  1  0  0  0  0
 43 44  1  0  0  0  0
 49 50  1  0  0  0  0
  7  8  1  0  0  0  0
 29 30  1  0  0  0  0
 39 40  1  0  0  0  0
 12 44  1  0  0  0  0
  3  4  1  0  0  0  0
  3  5  1  0  0  0  0
  3  6  1  0  0  0  0
 25 26  1  0  0  0  0
 25 27  1  0  0  0  0
 25 28  1  0  0  0  0
 53 56  1  0  0  0  0
 53 57  1  0  0  0  0
 53 58  1  0  0  0  0
 33 36  1  0  0  0  0
 33 37  1  0  0  0  0
 33 38  1  0  0  0  0
 60 62  1  0  0  0  0
 60 63  1  0  0  0  0
 60 64  1  0  0  0  0
 18 20  1  0  0  0  0
 18 21  1  0  0  0  0
 18 22  1  0  0  0  0
 11 15  1  0  0  0  0
 11 16  1  0  0  0  0
 43 47  1  0  0  0  0
 43 48  1  0  0  0  0
 50 55  1  0  0  0  0
  8 14  1  0  0  0  0
 30 35  1  0  0  0  0
 40 46  1  0  0  0  0
 59 61  1  0  0  0  0
 17 19  1  0  0  0  0
  7 13  1  0  0  0  0
 29 34  1  0  0  0  0
 49 54  1  0  0  0  0
 39 45  1  0  0  0  0
M  END
$$$$

  -OEChem-05262214473D

 64 63  0     1  0  0  0  0  0999 V2000
    0.4870    4.0864   -8.8798 C   0  0  0  0  0  0  0  0  0  0  0  0
   -0.7023    4.2944   -9.0894 O   0  0  0  0  0  0  0  0  0  0  0  0
    1.3348    3.5066   -9.9631 C   0  0  0  0  0  0  0  0  0  0  0  0
    1.3528    2.4051   -9.9390 H   0  0  0  0  0  0  0  0  0  0  0  0
    0.9701    3.7698  -10.9689 H   0  0  0  0  0  0  0  0  0  0  0  0
    2.3927    3.8140   -9.9491 H   0  0  0  0  0  0  0  0  0  0  0  0
    1.1677    4.3397   -7.7015 N   0  0  0  0  0  0  0  0  0  0  0  0
    0.5414    4.8999   -6.5309 C   0  0  2  0  0  0  0  0  0  0  0  0
    1.5435    5.8073   -5.8202 C   0  0  0  0  0  0  0  0  0  0  0  0
    2.7187    5.9079   -6.1668 O   0  0  0  0  0  0  0  0  0  0  0  0
   -0.0570    3.8255   -5.6196 C   0  0  0  0  0  0  0  0  0  0  0  0
    1.1788    2.6793   -4.9258 S   0  0  0  0  0  0  0  0  0  0  0  0
    2.1602    4.1192   -7.6598 H   0  0  0  0  0  0  0  0  0  0  0  0
   -0.2712    5.5343   -6.9065 H   0  0  0  0  0  0  0  0  0  0  0  0
   -0.5854    4.2857   -4.7783 H   0  0  0  0  0  0  0  0  0  0  0  0
   -0.7838    3.2253   -6.1777 H   0  0  0  0  0  0  0  0  0  0  0  0
    0.9775    6.4705   -4.7407 N   0  0  0  0  0  0  0  0  0  0  0  0
    1.7305    7.3673   -3.8954 C   0  0  0  0  0  0  0  0  0  0  0  0
   -0.0145    6.3618   -4.5514 H   0  0  0  0  0  0  0  0  0  0  0  0
    2.1310    6.8113   -3.0349 H   0  0  0  0  0  0  0  0  0  0  0  0
    2.5617    7.8016   -4.4703 H   0  0  0  0  0  0  0  0  0  0  0  0
    1.0723    8.1726   -3.5372 H   0  0  0  0  0  0  0  0  0  0  0  0
   -6.7256    2.0330   -0.2766 C   0  0  0  0  0  0  0  0  0  0  0  0
   -7.1824    1.1039   -0.9322 O   0  0  0  0  0  0  0  0  0  0  0  0
   -7.5276    2.6077    0.8435 C   0  0  0  0  0  0  0  0  0  0  0  0
   -8.1775    3.4344    0.5145 H   0  0  0  0  0  0  0  0  0  0  0  0
   -8.2057    1.8676    1.2980 H   0  0  0  0  0  0  0  0  0  0  0  0
   -6.9411    3.0162    1.6819 H   0  0  0  0  0  0  0  0  0  0  0  0
   -5.4935    2.6382   -0.4627 N   0  0  0  0  0  0  0  0  0  0  0  0
   -4.5619    2.2388   -1.4845 C   0  0  2  0  0  0  0  0  0  0  0  0
   -3.1535    2.4674   -0.9521 C   0  0  0  0  0  0  0  0  0  0  0  0
   -2.8634    3.3945   -0.1987 O   0  0  0  0  0  0  0  0  0  0  0  0
   -4.7883    3.0138   -2.7732 C   0  0  0  0  0  0  0  0  0  0  0  0
   -5.2337    3.4049    0.1551 H   0  0  0  0  0  0  0  0  0  0  0  0
   -4.7192    1.1682   -1.6549 H   0  0  0  0  0  0  0  0  0  0  0  0
   -4.6352    4.0886   -2.6221 H   0  0  0  0  0  0  0  0  0  0  0  0
   -4.0976    2.6887   -3.5582 H   0  0  0  0  0  0  0  0  0  0  0  0
   -5.8111    2.8719   -3.1387 H   0  0  0  0  0  0  0  0  0  0  0  0
   -2.2466    1.5400   -1.4507 N   0  0  0  0  0  0  0  0  0  0  0  0
   -0.8424    1.5707   -1.1286 C   0  0  2  0  0  0  0  0  0  0  0  0
   -0.6681    2.1660    0.2671 C   0  0  0  0  0  0  0  0  0  0  0  0
   -1.6012    2.3119    1.0542 O   0  0  0  0  0  0  0  0  0  0  0  0
   -0.0143    2.2838   -2.2003 C   0  0  0  0  0  0  0  0  0  0  0  0
   -0.0082    1.4380   -3.7995 S   0  0  0  0  0  0  0  0  0  0  0  0
   -2.5850    0.7815   -2.0381 H   0  0  0  0  0  0  0  0  0  0  0  0
   -0.5277    0.5207   -1.0823 H   0  0  0  0  0  0  0  0  0  0  0  0
   -0.3929    3.2974   -2.3674 H   0  0  0  0  0  0  0  0  0  0  0  0
    1.0269    2.3701   -1.8712 H   0  0  0  0  0  0  0  0  0  0  0  0
    0.6450    2.5370    0.5193 N   0  0  0  0  0  0  0  0  0  0  0  0
    1.0574    3.1465    1.7620 C   0  0  2  0  0  0  0  0  0  0  0  0
    2.2025    4.1037    1.4590 C   0  0  0  0  0  0  0  0  0  0  0  0
    3.0383    3.8938    0.5823 O   0  0  0  0  0  0  0  0  0  0  0  0
    1.4802    2.0979    2.7791 C   0  0  0  0  0  0  0  0  0  0  0  0
    1.3619    2.3399   -0.1728 H   0  0  0  0  0  0  0  0  0  0  0  0
    0.1976    3.7119    2.1375 H   0  0  0  0  0  0  0  0  0  0  0  0
    2.3405    1.5212    2.4203 H   0  0  0  0  0  0  0  0  0  0  0  0
    1.7653    2.5598    3.7300 H   0  0  0  0  0  0  0  0  0  0  0  0
    0.6650    1.3925    2.9734 H   0  0  0  0  0  0  0  0  0  0  0  0
    2.2066    5.1990    2.3114 N   0  0  0  0  0  0  0  0  0  0  0  0
    3.2181    6.2283    2.2534 C   0  0  0  0  0  0  0  0  0  0  0  0
    1.4525    5.3128    2.9823 H   0  0  0  0  0  0  0  0  0  0  0  0
    4.0324    5.9827    2.9510 H   0  0  0  0  0  0  0  0  0  0  0  0
    3.6182    6.2918    1.2307 H   0  0  0  0  0  0  0  0  0  0  0  0
    2.7740    7.1948    2.5341 H   0  0  0  0  0  0  0  0  0  0  0  0
  1  3  1  0  0  0  0
  1  7  1  0  0  0  0
  1  2  2  0  0  0  0
 23 25  1  0  0  0  0
 23 29  1  0  0  0  0
 23 24  2  0  0  0  0
 50 51  1  0  0  0  0
 51 59  1  0  0  0  0
 51 52  2  0  0  0  0
  8  9  1  0  0  0  0
  9 17  1  0  0  0  0
  9 10  2  0  0  0  0
 30 31  1  0  0  0  0
 31 39  1  0  0  0  0
 31 32  2  0  0  0  0
 40 41  1  0  0  0  0
 41 49  1  0  0  0  0
 41 42  2  0  0  0  0
 50 53  1  0  0  0  0
 30 33  1  0  0  0  0
 59 60  1  0  0  0  0
 17 18  1  0  0  0  0
  8 11  1  0  0  0  0
 11 12  1  0  0  0  0
 40 43  1  0  0  0  0
 43 44  1  0  0  0  0
 49 50  1  0  0  0  0
  7  8  1  0  0  0  0
 29 30  1  0  0  0  0
 39 40  1  0  0  0  0
 12 44  1  0  0  0  0
  3  4  1  0  0  0  0
  3  5  1  0  0  0  0
  3  6  1  0  0  0  0
 25 26  1  0  0  0  0
 25 27  1  0  0  0  0
 25 28  1  0  0  0  0
 53 56  1  0  0  0  0
 53 57  1  0  0  0  0
 53 58  1  0  0  0  0
 33 36  1  0  0  0  0
 33 37  1  0  0  0  0
 33 38  1  0  0  0  0
 60 62  1  0  0  0  0
 60 63  1  0  0  0  0
 60 64  1  0  0  0  0
 18 20  1  0  0  0  0
 18 21  1  0  0  0  0
 18 22  1  0  0  0  0
 11 15  1  0  0  0  0
 11 16  1  0  0  0  0
 43 47  1  0  0  0  0
 43 48  1  0  0  0  0
 50 55  1  0  0  0  0
  8 14  1  0  0  0  0
 30 35  1  0  0  0  0
 40 46  1  0  0  0  0
 59 61  1  0  0  0  0
 17 19  1  0  0  0  0
  7 13  1  0  0  0  0
 29 34  1  0  0  0  0
 49 54  1  0  0  0  0
 39 45  1  0  0  0  0
M  END
$$$$

  -OEChem-05262214473D

 64 63  0     1  0  0  0  0  0999 V2000
    0.4870    4.0864   -8.8798 C   0  0  0  0  0  0  0  0  0  0  0  0
   -0.7023    4.2944   -9.0894 O   0  0  0  0  0  0  0  0  0  0  0  0
    1.3348    3.5066   -9.9631 C   0  0  0  0  0  0  0  0  0  0  0  0
    1.3528    2.4051   -9.9390 H   0  0  0  0  0  0  0  0  0  0  0  0
    0.9701    3.7698  -10.9689 H   0  0  0  0  0  0  0  0  0  0  0  0
    2.3927    3.8140   -9.9491 H   0  0  0  0  0  0  0  0  0  0  0  0
    1.1677    4.3397   -7.7015 N   0  0  0  0  0  0  0  0  0  0  0  0
    0.5414    4.8999   -6.5309 C   0  0  2  0  0  0  0  0  0  0  0  0
    1.5435    5.8073   -5.8202 C   0  0  0  0  0  0  0  0  0  0  0  0
    2.7187    5.9079   -6.1668 O   0  0  0  0  0  0  0  0  0  0  0  0
   -0.0570    3.8255   -5.6196 C   0  0  0  0  0  0  0  0  0  0  0  0
    1.1788    2.6793   -4.9258 S   0  0  0  0  0  0  0  0  0  0  0  0
    2.1602    4.1192   -7.6598 H   0  0  0  0  0  0  0  0  0  0  0  0
   -0.2712    5.5343   -6.9065 H   0  0  0  0  0  0  0  0  0  0  0  0
   -0.5854    4.2857   -4.7783 H   0  0  0  0  0  0  0  0  0  0  0  0
   -0.7838    3.2253   -6.1777 H   0  0  0  0  0  0  0  0  0  0  0  0
    0.9775    6.4705   -4.7407 N   0  0  0  0  0  0  0  0  0  0  0  0
    1.7305    7.3673   -3.8954 C   0  0  0  0  0  0  0  0  0  0  0  0
   -0.0145    6.3618   -4.5514 H   0  0  0  0  0  0  0  0  0  0  0  0
    2.1310    6.8113   -3.0349 H   0  0  0  0  0  0  0  0  0  0  0  0
    2.5617    7.8016   -4.4703 H   0  0  0  0  0  0  0  0  0  0  0  0
    1.0723    8.1726   -3.5372 H   0  0  0  0  0  0  0  0  0  0  0  0
   -6.7256    2.0330   -0.2766 C   0  0  0  0  0  0  0  0  0  0  0  0
   -7.1824    1.1039   -0.9322 O   0  0  0  0  0  0  0  0  0  0  0  0
   -7.5276    2.6077    0.8435 C   0  0  0  0  0  0  0  0  0  0  0  0
   -8.1775    3.4344    0.5145 H   0  0  0  0  0  0  0  0  0  0  0  0
   -8.2057    1.8676    1.2980 H   0  0  0  0  0  0  0  0  0  0  0  0
   -6.9411    3.0162    1.6819 H   0  0  0  0  0  0  0  0  0  0  0  0
   -5.4935    2.6382   -0.4627 N   0  0  0  0  0  0  0  0  0  0  0  0
   -4.5619    2.2388   -1.4845 C   0  0  2  0  0  0  0  0  0  0  0  0
   -3.1535    2.4674   -0.9521 C   0  0  0  0  0  0  0  0  0  0  0  0
   -2.8634    3.3945   -0.1987 O   0  0  0  0  0  0  0  0  0  0  0  0
   -4.7883    3.0138   -2.7732 C   0  0  0  0  0  0  0  0  0  0  0  0
   -5.2337    3.4049    0.1551 H   0  0  0  0  0  0  0  0  0  0  0  0
   -4.7192    1.1682   -1.6549 H   0  0  0  0  0  0  0  0  0  0  0  0
   -4.6352    4.0886   -2.6221 H   0  0  0  0  0  0  0  0  0  0  0  0
   -4.0976    2.6887   -3.5582 H   0  0  0  0  0  0  0  0  0  0  0  0
   -5.8111    2.8719   -3.1387 H   0  0  0  0  0  0  0  0  0  0  0  0
   -2.2466    1.5400   -1.4507 N   0  0  0  0  0  0  0  0  0  0  0  0
   -0.8424    1.5707   -1.1286 C   0  0  2  0  0  0  0  0  0  0  0  0
   -0.6681    2.1660    0.2671 C   0  0  0  0  0  0  0  0  0  0  0  0
   -1.5219    2.0718    1.1467 O   0  0  0  0  0  0  0  0  0  0  0  0
   -0.0143    2.2838   -2.2003 C   0  0  0  0  0  0  0  0  0  0  0  0
   -0.0082    1.4380   -3.7995 S   0  0  0  0  0  0  0  0  0  0  0  0
   -2.5850    0.7815   -2.0381 H   0  0  0  0  0  0  0  0  0  0  0  0
   -0.5277    0.5207   -1.0823 H   0  0  0  0  0  0  0  0  0  0  0  0
   -0.3929    3.2974   -2.3674 H   0  0  0  0  0  0  0  0  0  0  0  0
    1.0269    2.3701   -1.8712 H   0  0  0  0  0  0  0  0  0  0  0  0
    0.5400    2.8344    0.4055 N   0  0  0  0  0  0  0  0  0  0  0  0
    0.9251    3.5029    1.6265 C   0  0  2  0  0  0  0  0  0  0  0  0
    1.7751    4.7103    1.2537 C   0  0  0  0  0  0  0  0  0  0  0  0
    2.5405    4.7206    0.2918 O   0  0  0  0  0  0  0  0  0  0  0  0
    1.6863    2.5675    2.5530 C   0  0  0  0  0  0  0  0  0  0  0  0
    1.2068    2.8258   -0.3606 H   0  0  0  0  0  0  0  0  0  0  0  0
    0.0005    3.8408    2.1072 H   0  0  0  0  0  0  0  0  0  0  0  0
    2.6157    2.2185    2.0885 H   0  0  0  0  0  0  0  0  0  0  0  0
    1.9526    3.0674    3.4902 H   0  0  0  0  0  0  0  0  0  0  0  0
    1.0846    1.6851    2.7963 H   0  0  0  0  0  0  0  0  0  0  0  0
    1.6107    5.7600    2.1465 N   0  0  0  0  0  0  0  0  0  0  0  0
    2.3402    7.0014    2.0333 C   0  0  0  0  0  0  0  0  0  0  0  0
    0.9252    5.6794    2.8918 H   0  0  0  0  0  0  0  0  0  0  0  0
    3.2576    6.9446    2.6375 H   0  0  0  0  0  0  0  0  0  0  0  0
    2.6051    7.1761    0.9801 H   0  0  0  0  0  0  0  0  0  0  0  0
    1.7132    7.8294    2.3959 H   0  0  0  0  0  0  0  0  0  0  0  0
  1  3  1  0  0  0  0
  1  7  1  0  0  0  0
  1  2  2  0  0  0  0
 23 25  1  0  0  0  0
 23 29  1  0  0  0  0
 23 24  2  0  0  0  0
 50 51  1  0  0  0  0
 51 59  1  0  0  0  0
 51 52  2  0  0  0  0
  8  9  1  0  0  0  0
  9 17  1  0  0  0  0
  9 10  2  0  0  0  0
 30 31  1  0  0  0  0
 31 39  1  0  0  0  0
 31 32  2  0  0  0  0
 40 41  1  0  0  0  0
 41 49  1  0  0  0  0
 41 42  2  0  0  0  0
 50 53  1  0  0  0  0
 30 33  1  0  0  0  0
 59 60  1  0  0  0  0
 17 18  1  0  0  0  0
  8 11  1  0  0  0  0
 11 12  1  0  0  0  0
 40 43  1  0  0  0  0
 43 44  1  0  0  0  0
 49 50  1  0  0  0  0
  7  8  1  0  0  0  0
 29 30  1  0  0  0  0
 39 40  1  0  0  0  0
 12 44  1  0  0  0  0
  3  4  1  0  0  0  0
  3  5  1  0  0  0  0
  3  6  1  0  0  0  0
 25 26  1  0  0  0  0
 25 27  1  0  0  0  0
 25 28  1  0  0  0  0
 53 56  1  0  0  0  0
 53 57  1  0  0  0  0
 53 58  1  0  0  0  0
 33 36  1  0  0  0  0
 33 37  1  0  0  0  0
 33 38  1  0  0  0  0
 60 62  1  0  0  0  0
 60 63  1  0  0  0  0
 60 64  1  0  0  0  0
 18 20  1  0  0  0  0
 18 21  1  0  0  0  0
 18 22  1  0  0  0  0
 11 15  1  0  0  0  0
 11 16  1  0  0  0  0
 43 47  1  0  0  0  0
 43 48  1  0  0  0  0
 50 55  1  0  0  0  0
  8 14  1  0  0  0  0
 30 35  1  0  0  0  0
 40 46  1  0  0  0  0
 59 61  1  0  0  0  0
 17 19  1  0  0  0  0
  7 13  1  0  0  0  0
 29 34  1  0  0  0  0
 49 54  1  0  0  0  0
 39 45  1  0  0  0  0
M  END
$$$$

  -OEChem-05262214473D

 64 63  0     1  0  0  0  0  0999 V2000
    0.4870    4.0864   -8.8798 C   0  0  0  0  0  0  0  0  0  0  0  0
   -0.7023    4.2944   -9.0894 O   0  0  0  0  0  0  0  0  0  0  0  0
    1.3348    3.5066   -9.9631 C   0  0  0  0  0  0  0  0  0  0  0  0
    1.3528    2.4051   -9.9390 H   0  0  0  0  0  0  0  0  0  0  0  0
    0.9701    3.7698  -10.9689 H   0  0  0  0  0  0  0  0  0  0  0  0
    2.3927    3.8140   -9.9491 H   0  0  0  0  0  0  0  0  0  0  0  0
    1.1677    4.3397   -7.7015 N   0  0  0  0  0  0  0  0  0  0  0  0
    0.5414    4.8999   -6.5309 C   0  0  2  0  0  0  0  0  0  0  0  0
    1.5435    5.8073   -5.8202 C   0  0  0  0  0  0  0  0  0  0  0  0
    2.7187    5.9079   -6.1668 O   0  0  0  0  0  0  0  0  0  0  0  0
   -0.0570    3.8255   -5.6196 C   0  0  0  0  0  0  0  0  0  0  0  0
    1.1788    2.6793   -4.9258 S   0  0  0  0  0  0  0  0  0  0  0  0
    2.1602    4.1192   -7.6598 H   0  0  0  0  0  0  0  0  0  0  0  0
   -0.2712    5.5343   -6.9065 H   0  0  0  0  0  0  0  0  0  0  0  0
   -0.5854    4.2857   -4.7783 H   0  0  0  0  0  0  0  0  0  0  0  0
   -0.7838    3.2253   -6.1777 H   0  0  0  0  0  0  0  0  0  0  0  0
    0.9775    6.4705   -4.7407 N   0  0  0  0  0  0  0  0  0  0  0  0
    1.7305    7.3673   -3.8954 C   0  0  0  0  0  0  0  0  0  0  0  0
   -0.0145    6.3618   -4.5514 H   0  0  0  0  0  0  0  0  0  0  0  0
    2.1310    6.8113   -3.0349 H   0  0  0  0  0  0  0  0  0  0  0  0
    2.5617    7.8016   -4.4703 H   0  0  0  0  0  0  0  0  0  0  0  0
    1.0723    8.1726   -3.5372 H   0  0  0  0  0  0  0  0  0  0  0  0
   -6.7256    2.0330   -0.2766 C   0  0  0  0  0  0  0  0  0  0  0  0
   -7.1824    1.1039   -0.9322 O   0  0  0  0  0  0  0  0  0  0  0  0
   -7.5276    2.6077    0.8435 C   0  0  0  0  0  0  0  0  0  0  0  0
   -8.1775    3.4344    0.5145 H   0  0  0  0  0  0  0  0  0  0  0  0
   -8.2057    1.8676    1.2980 H   0  0  0  0  0  0  0  0  0  0  0  0
   -6.9411    3.0162    1.6819 H   0  0  0  0  0  0  0  0  0  0  0  0
   -5.4935    2.6382   -0.4627 N   0  0  0  0  0  0  0  0  0  0  0  0
   -4.5619    2.2388   -1.4845 C   0  0  2  0  0  0  0  0  0  0  0  0
   -3.1535    2.4674   -0.9521 C   0  0  0  0  0  0  0  0  0  0  0  0
   -2.8634    3.3945   -0.1987 O   0  0  0  0  0  0  0  0  0  0  0  0
   -4.7883    3.0138   -2.7732 C   0  0  0  0  0  0  0  0  0  0  0  0
   -5.2337    3.4049    0.1551 H   0  0  0  0  0  0  0  0  0  0  0  0
   -4.7192    1.1682   -1.6549 H   0  0  0  0  0  0  0  0  0  0  0  0
   -4.6352    4.0886   -2.6221 H   0  0  0  0  0  0  0  0  0  0  0  0
   -4.0976    2.6887   -3.5582 H   0  0  0  0  0  0  0  0  0  0  0  0
   -5.8111    2.8719   -3.1387 H   0  0  0  0  0  0  0  0  0  0  0  0
   -2.2466    1.5400   -1.4507 N   0  0  0  0  0  0  0  0  0  0  0  0
   -0.8424    1.5707   -1.1286 C   0  0  2  0  0  0  0  0  0  0  0  0
   -0.6681    2.1660    0.2671 C   0  0  0  0  0  0  0  0  0  0  0  0
   -1.3792    1.8560    1.2209 O   0  0  0  0  0  0  0  0  0  0  0  0
   -0.0143    2.2838   -2.2003 C   0  0  0  0  0  0  0  0  0  0  0  0
   -0.0082    1.4380   -3.7995 S   0  0  0  0  0  0  0  0  0  0  0  0
   -2.5850    0.7815   -2.0381 H   0  0  0  0  0  0  0  0  0  0  0  0
   -0.5277    0.5207   -1.0823 H   0  0  0  0  0  0  0  0  0  0  0  0
   -0.3929    3.2974   -2.3674 H   0  0  0  0  0  0  0  0  0  0  0  0
    1.0269    2.3701   -1.8712 H   0  0  0  0  0  0  0  0  0  0  0  0
    0.3568    3.1003    0.3150 N   0  0  0  0  0  0  0  0  0  0  0  0
    0.6993    3.8198    1.5195 C   0  0  2  0  0  0  0  0  0  0  0  0
    1.1981    5.2012    1.1164 C   0  0  0  0  0  0  0  0  0  0  0  0
    1.8349    5.4101    0.0859 O   0  0  0  0  0  0  0  0  0  0  0  0
    1.7514    3.0766    2.3278 C   0  0  0  0  0  0  0  0  0  0  0  0
    0.9232    3.2639   -0.5121 H   0  0  0  0  0  0  0  0  0  0  0  0
   -0.2234    3.9195    2.1016 H   0  0  0  0  0  0  0  0  0  0  0  0
    2.6831    2.9670    1.7609 H   0  0  0  0  0  0  0  0  0  0  0  0
    1.9892    3.6091    3.2545 H   0  0  0  0  0  0  0  0  0  0  0  0
    1.4027    2.0722    2.5914 H   0  0  0  0  0  0  0  0  0  0  0  0
    0.8857    6.1659    2.0640 N   0  0  0  0  0  0  0  0  0  0  0  0
    1.2871    7.5470    1.9321 C   0  0  0  0  0  0  0  0  0  0  0  0
    0.3201    5.9115    2.8684 H   0  0  0  0  0  0  0  0  0  0  0  0
    2.2502    7.6997    2.4412 H   0  0  0  0  0  0  0  0  0  0  0  0
    1.3921    7.7980    0.8663 H   0  0  0  0  0  0  0  0  0  0  0  0
    0.5246    8.1955    2.3882 H   0  0  0  0  0  0  0  0  0  0  0  0
  1  3  1  0  0  0  0
  1  7  1  0  0  0  0
  1  2  2  0  0  0  0
 23 25  1  0  0  0  0
 23 29  1  0  0  0  0
 23 24  2  0  0  0  0
 50 51  1  0  0  0  0
 51 59  1  0  0  0  0
 51 52  2  0  0  0  0
  8  9  1  0  0  0  0
  9 17  1  0  0  0  0
  9 10  2  0  0  0  0
 30 31  1  0  0  0  0
 31 39  1  0  0  0  0
 31 32  2  0  0  0  0
 40 41  1  0  0  0  0
 41 49  1  0  0  0  0
 41 42  2  0  0  0  0
 50 53  1  0  0  0  0
 30 33  1  0  0  0  0
 59 60  1  0  0  0  0
 17 18  1  0  0  0  0
  8 11  1  0  0  0  0
 11 12  1  0  0  0  0
 40 43  1  0  0  0  0
 43 44  1  0  0  0  0
 49 50  1  0  0  0  0
  7  8  1  0  0  0  0
 29 30  1  0  0  0  0
 39 40  1  0  0  0  0
 12 44  1  0  0  0  0
  3  4  1  0  0  0  0
  3  5  1  0  0  0  0
  3  6  1  0  0  0  0
 25 26  1  0  0  0  0
 25 27  1  0  0  0  0
 25 28  1  0  0  0  0
 53 56  1  0  0  0  0
 53 57  1  0  0  0  0
 53 58  1  0  0  0  0
 33 36  1  0  0  0  0
 33 37  1  0  0  0  0
 33 38  1  0  0  0  0
 60 62  1  0  0  0  0
 60 63  1  0  0  0  0
 60 64  1  0  0  0  0
 18 20  1  0  0  0  0
 18 21  1  0  0  0  0
 18 22  1  0  0  0  0
 11 15  1  0  0  0  0
 11 16  1  0  0  0  0
 43 47  1  0  0  0  0
 43 48  1  0  0  0  0
 50 55  1  0  0  0  0
  8 14  1  0  0  0  0
 30 35  1  0  0  0  0
 40 46  1  0  0  0  0
 59 61  1  0  0  0  0
 17 19  1  0  0  0  0
  7 13  1  0  0  0  0
 29 34  1  0  0  0  0
 49 54  1  0  0  0  0
 39 45  1  0  0  0  0
M  END
$$$$

  -OEChem-05262214473D

 64 63  0     1  0  0  0  0  0999 V2000
    0.4870    4.0864   -8.8798 C   0  0  0  0  0  0  0  0  0  0  0  0
   -0.7023    4.2944   -9.0894 O   0  0  0  0  0  0  0  0  0  0  0  0
    1.3348    3.5066   -9.9631 C   0  0  0  0  0  0  0  0  0  0  0  0
    1.3528    2.4051   -9.9390 H   0  0  0  0  0  0  0  0  0  0  0  0
    0.9701    3.7698  -10.9689 H   0  0  0  0  0  0  0  0  0  0  0  0
    2.3927    3.8140   -9.9491 H   0  0  0  0  0  0  0  0  0  0  0  0
    1.1677    4.3397   -7.7015 N   0  0  0  0  0  0  0  0  0  0  0  0
    0.5414    4.8999   -6.5309 C   0  0  2  0  0  0  0  0  0  0  0  0
    1.5435    5.8073   -5.8202 C   0  0  0  0  0  0  0  0  0  0  0  0
    2.7187    5.9079   -6.1668 O   0  0  0  0  0  0  0  0  0  0  0  0
   -0.0570    3.8255   -5.6196 C   0  0  0  0  0  0  0  0  0  0  0  0
    1.1788    2.6793   -4.9258 S   0  0  0  0  0  0  0  0  0  0  0  0
    2.1602    4.1192   -7.6598 H   0  0  0  0  0  0  0  0  0  0  0  0
   -0.2712    5.5343   -6.9065 H   0  0  0  0  0  0  0  0  0  0  0  0
   -0.5854    4.2857   -4.7783 H   0  0  0  0  0  0  0  0  0  0  0  0
   -0.7838    3.2253   -6.1777 H   0  0  0  0  0  0  0  0  0  0  0  0
    0.9775    6.4705   -4.7407 N   0  0  0  0  0  0  0  0  0  0  0  0
    1.7305    7.3673   -3.8954 C   0  0  0  0  0  0  0  0  0  0  0  0
   -0.0145    6.3618   -4.5514 H   0  0  0  0  0  0  0  0  0  0  0  0
    2.1310    6.8113   -3.0349 H   0  0  0  0  0  0  0  0  0  0  0  0
    2.5617    7.8016   -4.4703 H   0  0  0  0  0  0  0  0  0  0  0  0
    1.0723    8.1726   -3.5372 H   0  0  0  0  0  0  0  0  0  0  0  0
   -6.7256    2.0330   -0.2766 C   0  0  0  0  0  0  0  0  0  0  0  0
   -7.1824    1.1039   -0.9322 O   0  0  0  0  0  0  0  0  0  0  0  0
   -7.5276    2.6077    0.8435 C   0  0  0  0  0  0  0  0  0  0  0  0
   -8.1775    3.4344    0.5145 H   0  0  0  0  0  0  0  0  0  0  0  0
   -8.2057    1.8676    1.2980 H   0  0  0  0  0  0  0  0  0  0  0  0
   -6.9411    3.0162    1.6819 H   0  0  0  0  0  0  0  0  0  0  0  0
   -5.4935    2.6382   -0.4627 N   0  0  0  0  0  0  0  0  0  0  0  0
   -4.5619    2.2388   -1.4845 C   0  0  2  0  0  0  0  0  0  0  0  0
   -3.1535    2.4674   -0.9521 C   0  0  0  0  0  0  0  0  0  0  0  0
   -2.8634    3.3945   -0.1987 O   0  0  0  0  0  0  0  0  0  0  0  0
   -4.7883    3.0138   -2.7732 C   0  0  0  0  0  0  0  0  0  0  0  0
   -5.2337    3.4049    0.1551 H   0  0  0  0  0  0  0  0  0  0  0  0
   -4.7192    1.1682   -1.6549 H   0  0  0  0  0  0  0  0  0  0  0  0
   -4.6352    4.0886   -2.6221 H   0  0  0  0  0  0  0  0  0  0  0  0
   -4.0976    2.6887   -3.5582 H   0  0  0  0  0  0  0  0  0  0  0  0
   -5.8111    2.8719   -3.1387 H   0  0  0  0  0  0  0  0  0  0  0  0
   -2.2466    1.5400   -1.4507 N   0  0  0  0  0  0  0  0  0  0  0  0
   -0.8424    1.5707   -1.1286 C   0  0  2  0  0  0  0  0  0  0  0  0
   -0.6681    2.1660    0.2671 C   0  0  0  0  0  0  0  0  0  0  0  0
   -1.1828    1.6791    1.2718 O   0  0  0  0  0  0  0  0  0  0  0  0
   -0.0143    2.2838   -2.2003 C   0  0  0  0  0  0  0  0  0  0  0  0
   -0.0082    1.4380   -3.7995 S   0  0  0  0  0  0  0  0  0  0  0  0
   -2.5850    0.7815   -2.0381 H   0  0  0  0  0  0  0  0  0  0  0  0
   -0.5277    0.5207   -1.0823 H   0  0  0  0  0  0  0  0  0  0  0  0
   -0.3929    3.2974   -2.3674 H   0  0  0  0  0  0  0  0  0  0  0  0
    1.0269    2.3701   -1.8712 H   0  0  0  0  0  0  0  0  0  0  0  0
    0.1077    3.3164    0.2540 N   0  0  0  0  0  0  0  0  0  0  0  0
    0.3955    4.0757    1.4483 C   0  0  2  0  0  0  0  0  0  0  0  0
    0.5107    5.5429    1.0565 C   0  0  0  0  0  0  0  0  0  0  0  0
    0.9694    5.9153   -0.0215 O   0  0  0  0  0  0  0  0  0  0  0  0
    1.6713    3.5903    2.1187 C   0  0  0  0  0  0  0  0  0  0  0  0
    0.5303    3.6245   -0.6168 H   0  0  0  0  0  0  0  0  0  0  0  0
   -0.4588    3.9428    2.1210 H   0  0  0  0  0  0  0  0  0  0  0  0
    2.5382    3.7155    1.4597 H   0  0  0  0  0  0  0  0  0  0  0  0
    1.8727    4.1479    3.0393 H   0  0  0  0  0  0  0  0  0  0  0  0
    1.5979    2.5274    2.3729 H   0  0  0  0  0  0  0  0  0  0  0  0
    0.0811    6.3889    2.0693 N   0  0  0  0  0  0  0  0  0  0  0  0
    0.1307    7.8279    1.9567 C   0  0  0  0  0  0  0  0  0  0  0  0
   -0.3217    5.9932    2.9137 H   0  0  0  0  0  0  0  0  0  0  0  0
    1.0787    8.1966    2.3756 H   0  0  0  0  0  0  0  0  0  0  0  0
    0.0618    8.1152    0.8971 H   0  0  0  0  0  0  0  0  0  0  0  0
   -0.7110    8.2682    2.5114 H   0  0  0  0  0  0  0  0  0  0  0  0
  1  3  1  0  0  0  0
  1  7  1  0  0  0  0
  1  2  2  0  0  0  0
 23 25  1  0  0  0  0
 23 29  1  0  0  0  0
 23 24  2  0  0  0  0
 50 51  1  0  0  0  0
 51 59  1  0  0  0  0
 51 52  2  0  0  0  0
  8  9  1  0  0  0  0
  9 17  1  0  0  0  0
  9 10  2  0  0  0  0
 30 31  1  0  0  0  0
 31 39  1  0  0  0  0
 31 32  2  0  0  0  0
 40 41  1  0  0  0  0
 41 49  1  0  0  0  0
 41 42  2  0  0  0  0
 50 53  1  0  0  0  0
 30 33  1  0  0  0  0
 59 60  1  0  0  0  0
 17 18  1  0  0  0  0
  8 11  1  0  0  0  0
 11 12  1  0  0  0  0
 40 43  1  0  0  0  0
 43 44  1  0  0  0  0
 49 50  1  0  0  0  0
  7  8  1  0  0  0  0
 29 30  1  0  0  0  0
 39 40  1  0  0  0  0
 12 44  1  0  0  0  0
  3  4  1  0  0  0  0
  3  5  1  0  0  0  0
  3  6  1  0  0  0  0
 25 26  1  0  0  0  0
 25 27  1  0  0  0  0
 25 28  1  0  0  0  0
 53 56  1  0  0  0  0
 53 57  1  0  0  0  0
 53 58  1  0  0  0  0
 33 36  1  0  0  0  0
 33 37  1  0  0  0  0
 33 38  1  0  0  0  0
 60 62  1  0  0  0  0
 60 63  1  0  0  0  0
 60 64  1  0  0  0  0
 18 20  1  0  0  0  0
 18 21  1  0  0  0  0
 18 22  1  0  0  0  0
 11 15  1  0  0  0  0
 11 16  1  0  0  0  0
 43 47  1  0  0  0  0
 43 48  1  0  0  0  0
 50 55  1  0  0  0  0
  8 14  1  0  0  0  0
 30 35  1  0  0  0  0
 40 46  1  0  0  0  0
 59 61  1  0  0  0  0
 17 19  1  0  0  0  0
  7 13  1  0  0  0  0
 29 34  1  0  0  0  0
 49 54  1  0  0  0  0
 39 45  1  0  0  0  0
M  END
$$$$

  -OEChem-05262214473D

 64 63  0     1  0  0  0  0  0999 V2000
    0.4870    4.0864   -8.8798 C   0  0  0  0  0  0  0  0  0  0  0  0
   -0.7023    4.2944   -9.0894 O   0  0  0  0  0  0  0  0  0  0  0  0
    1.3348    3.5066   -9.9631 C   0  0  0  0  0  0  0  0  0  0  0  0
    1.3528    2.4051   -9.9390 H   0  0  0  0  0  0  0  0  0  0  0  0
    0.9701    3.7698  -10.9689 H   0  0  0  0  0  0  0  0  0  0  0  0
    2.3927    3.8140   -9.9491 H   0  0  0  0  0  0  0  0  0  0  0  0
    1.1677    4.3397   -7.7015 N   0  0  0  0  0  0  0  0  0  0  0  0
    0.5414    4.8999   -6.5309 C   0  0  2  0  0  0  0  0  0  0  0  0
    1.5435    5.8073   -5.8202 C   0  0  0  0  0  0  0  0  0  0  0  0
    2.7187    5.9079   -6.1668 O   0  0  0  0  0  0  0  0  0  0  0  0
   -0.0570    3.8255   -5.6196 C   0  0  0  0  0  0  0  0  0  0  0  0
    1.1788    2.6793   -4.9258 S   0  0  0  0  0  0  0  0  0  0  0  0
    2.1602    4.1192   -7.6598 H   0  0  0  0  0  0  0  0  0  0  0  0
   -0.2712    5.5343   -6.9065 H   0  0  0  0  0  0  0  0  0  0  0  0
   -0.5854    4.2857   -4.7783 H   0  0  0  0  0  0  0  0  0  0  0  0
   -0.7838    3.2253   -6.1777 H   0  0  0  0  0  0  0  0  0  0  0  0
    0.9775    6.4705   -4.7407 N   0  0  0  0  0  0  0  0  0  0  0  0
    1.7305    7.3673   -3.8954 C   0  0  0  0  0  0  0  0  0  0  0  0
   -0.0145    6.3618   -4.5514 H   0  0  0  0  0  0  0  0  0  0  0  0
    2.1310    6.8113   -3.0349 H   0  0  0  0  0  0  0  0  0  0  0  0
    2.5617    7.8016   -4.4703 H   0  0  0  0  0  0  0  0  0  0  0  0
    1.0723    8.1726   -3.5372 H   0  0  0  0  0  0  0  0  0  0  0  0
   -6.7256    2.0330   -0.2766 C   0  0  0  0  0  0  0  0  0  0  0  0
   -7.1824    1.1039   -0.9322 O   0  0  0  0  0  0  0  0  0  0  0  0
   -7.5276    2.6077    0.8435 C   0  0  0  0  0  0  0  0  0  0  0  0
   -8.1775    3.4344    0.5145 H   0  0  0  0  0  0  0  0  0  0  0  0
   -8.2057    1.8676    1.2980 H   0  0  0  0  0  0  0  0  0  0  0  0
   -6.9411    3.0162    1.6819 H   0  0  0  0  0  0  0  0  0  0  0  0
   -5.4935    2.6382   -0.4627 N   0  0  0  0  0  0  0  0  0  0  0  0
   -4.5619    2.2388   -1.4845 C   0  0  2  0  0  0  0  0  0  0  0  0
   -3.1535    2.4674   -0.9521 C   0  0  0  0  0  0  0  0  0  0  0  0
   -2.8634    3.3945   -0.1987 O   0  0  0  0  0  0  0  0  0  0  0  0
   -4.7883    3.0138   -2.7732 C   0  0  0  0  0  0  0  0  0  0  0  0
   -5.2337    3.4049    0.1551 H   0  0  0  0  0  0  0  0  0  0  0  0
   -4.7192    1.1682   -1.6549 H   0  0  0  0  0  0  0  0  0  0  0  0
   -4.6352    4.0886   -2.6221 H   0  0  0  0  0  0  0  0  0  0  0  0
   -4.0976    2.6887   -3.5582 H   0  0  0  0  0  0  0  0  0  0  0  0
   -5.8111    2.8719   -3.1387 H   0  0  0  0  0  0  0  0  0  0  0  0
   -2.2466    1.5400   -1.4507 N   0  0  0  0  0  0  0  0  0  0  0  0
   -0.8424    1.5707   -1.1286 C   0  0  2  0  0  0  0  0  0  0  0  0
   -0.6681    2.1660    0.2671 C   0  0  0  0  0  0  0  0  0  0  0  0
   -0.9462    1.5532    1.2960 O   0  0  0  0  0  0  0  0  0  0  0  0
   -0.0143    2.2838   -2.2003 C   0  0  0  0  0  0  0  0  0  0  0  0
   -0.0082    1.4380   -3.7995 S   0  0  0  0  0  0  0  0  0  0  0  0
   -2.5850    0.7815   -2.0381 H   0  0  0  0  0  0  0  0  0  0  0  0
   -0.5277    0.5207   -1.0823 H   0  0  0  0  0  0  0  0  0  0  0  0
   -0.3929    3.2974   -2.3674 H   0  0  0  0  0  0  0  0  0  0  0  0
    1.0269    2.3701   -1.8712 H   0  0  0  0  0  0  0  0  0  0  0  0
   -0.1901    3.4681    0.2265 N   0  0  0  0  0  0  0  0  0  0  0  0
    0.0343    4.2531    1.4177 C   0  0  2  0  0  0  0  0  0  0  0  0
   -0.2401    5.7122    1.0780 C   0  0  0  0  0  0  0  0  0  0  0  0
    0.0031    6.2017   -0.0230 O   0  0  0  0  0  0  0  0  0  0  0  0
    1.4513    4.0738    1.9399 C   0  0  0  0  0  0  0  0  0  0  0  0
    0.0549    3.8830   -0.6677 H   0  0  0  0  0  0  0  0  0  0  0  0
   -0.6898    3.9090    2.1643 H   0  0  0  0  0  0  0  0  0  0  0  0
    2.1908    4.4132    1.2055 H   0  0  0  0  0  0  0  0  0  0  0  0
    1.6110    4.6472    2.8590 H   0  0  0  0  0  0  0  0  0  0  0  0
    1.6566    3.0197    2.1556 H   0  0  0  0  0  0  0  0  0  0  0  0
   -0.7482    6.4139    2.1623 N   0  0  0  0  0  0  0  0  0  0  0  0
   -1.0503    7.8251    2.1054 C   0  0  0  0  0  0  0  0  0  0  0  0
   -0.9563    5.9190    3.0246 H   0  0  0  0  0  0  0  0  0  0  0  0
   -0.1771    8.4014    2.4450 H   0  0  0  0  0  0  0  0  0  0  0  0
   -1.2950    8.1061    1.0704 H   0  0  0  0  0  0  0  0  0  0  0  0
   -1.9092    8.0427    2.7573 H   0  0  0  0  0  0  0  0  0  0  0  0
  1  3  1  0  0  0  0
  1  7  1  0  0  0  0
  1  2  2  0  0  0  0
 23 25  1  0  0  0  0
 23 29  1  0  0  0  0
 23 24  2  0  0  0  0
 50 51  1  0  0  0  0
 51 59  1  0  0  0  0
 51 52  2  0  0  0  0
  8  9  1  0  0  0  0
  9 17  1  0  0  0  0
  9 10  2  0  0  0  0
 30 31  1  0  0  0  0
 31 39  1  0  0  0  0
 31 32  2  0  0  0  0
 40 41  1  0  0  0  0
 41 49  1  0  0  0  0
 41 42  2  0  0  0  0
 50 53  1  0  0  0  0
 30 33  1  0  0  0  0
 59 60  1  0  0  0  0
 17 18  1  0  0  0  0
  8 11  1  0  0  0  0
 11 12  1  0  0  0  0
 40 43  1  0  0  0  0
 43 44  1  0  0  0  0
 49 50  1  0  0  0  0
  7  8  1  0  0  0  0
 29 30  1  0  0  0  0
 39 40  1  0  0  0  0
 12 44  1  0  0  0  0
  3  4  1  0  0  0  0
  3  5  1  0  0  0  0
  3  6  1  0  0  0  0
 25 26  1  0  0  0  0
 25 27  1  0  0  0  0
 25 28  1  0  0  0  0
 53 56  1  0  0  0  0
 53 57  1  0  0  0  0
 53 58  1  0  0  0  0
 33 36  1  0  0  0  0
 33 37  1  0  0  0  0
 33 38  1  0  0  0  0
 60 62  1  0  0  0  0
 60 63  1  0  0  0  0
 60 64  1  0  0  0  0
 18 20  1  0  0  0  0
 18 21  1  0  0  0  0
 18 22  1  0  0  0  0
 11 15  1  0  0  0  0
 11 16  1  0  0  0  0
 43 47  1  0  0  0  0
 43 48  1  0  0  0  0
 50 55  1  0  0  0  0
  8 14  1  0  0  0  0
 30 35  1  0  0  0  0
 40 46  1  0  0  0  0
 59 61  1  0  0  0  0
 17 19  1  0  0  0  0
  7 13  1  0  0  0  0
 29 34  1  0  0  0  0
 49 54  1  0  0  0  0
 39 45  1  0  0  0  0
M  END
$$$$

  -OEChem-05262214473D

 64 63  0     1  0  0  0  0  0999 V2000
    0.4870    4.0864   -8.8798 C   0  0  0  0  0  0  0  0  0  0  0  0
   -0.7023    4.2944   -9.0894 O   0  0  0  0  0  0  0  0  0  0  0  0
    1.3348    3.5066   -9.9631 C   0  0  0  0  0  0  0  0  0  0  0  0
    1.3528    2.4051   -9.9390 H   0  0  0  0  0  0  0  0  0  0  0  0
    0.9701    3.7698  -10.9689 H   0  0  0  0  0  0  0  0  0  0  0  0
    2.3927    3.8140   -9.9491 H   0  0  0  0  0  0  0  0  0  0  0  0
    1.1677    4.3397   -7.7015 N   0  0  0  0  0  0  0  0  0  0  0  0
    0.5414    4.8999   -6.5309 C   0  0  2  0  0  0  0  0  0  0  0  0
    1.5435    5.8073   -5.8202 C   0  0  0  0  0  0  0  0  0  0  0  0
    2.7187    5.9079   -6.1668 O   0  0  0  0  0  0  0  0  0  0  0  0
   -0.0570    3.8255   -5.6196 C   0  0  0  0  0  0  0  0  0  0  0  0
    1.1788    2.6793   -4.9258 S   0  0  0  0  0  0  0  0  0  0  0  0
    2.1602    4.1192   -7.6598 H   0  0  0  0  0  0  0  0  0  0  0  0
   -0.2712    5.5343   -6.9065 H   0  0  0  0  0  0  0  0  0  0  0  0
   -0.5854    4.2857   -4.7783 H   0  0  0  0  0  0  0  0  0  0  0  0
   -0.7838    3.2253   -6.1777 H   0  0  0  0  0  0  0  0  0  0  0  0
    0.9775    6.4705   -4.7407 N   0  0  0  0  0  0  0  0  0  0  0  0
    1.7305    7.3673   -3.8954 C   0  0  0  0  0  0  0  0  0  0  0  0
   -0.0145    6.3618   -4.5514 H   0  0  0  0  0  0  0  0  0  0  0  0
    2.1310    6.8113   -3.0349 H   0  0  0  0  0  0  0  0  0  0  0  0
    2.5617    7.8016   -4.4703 H   0  0  0  0  0  0  0  0  0  0  0  0
    1.0723    8.1726   -3.5372 H   0  0  0  0  0  0  0  0  0  0  0  0
   -6.7256    2.0330   -0.2766 C   0  0  0  0  0  0  0  0  0  0  0  0
   -7.1824    1.1039   -0.9322 O   0  0  0  0  0  0  0  0  0  0  0  0
   -7.5276    2.6077    0.8435 C   0  0  0  0  0  0  0  0  0  0  0  0
   -8.1775    3.4344    0.5145 H   0  0  0  0  0  0  0  0  0  0  0  0
   -8.2057    1.8676    1.2980 H   0  0  0  0  0  0  0  0  0  0  0  0
   -6.9411    3.0162    1.6819 H   0  0  0  0  0  0  0  0  0  0  0  0
   -5.4935    2.6382   -0.4627 N   0  0  0  0  0  0  0  0  0  0  0  0
   -4.5619    2.2388   -1.4845 C   0  0  2  0  0  0  0  0  0  0  0  0
   -3.1535    2.4674   -0.9521 C   0  0  0  0  0  0  0  0  0  0  0  0
   -2.8634    3.3945   -0.1987 O   0  0  0  0  0  0  0  0  0  0  0  0
   -4.7883    3.0138   -2.7732 C   0  0  0  0  0  0  0  0  0  0  0  0
   -5.2337    3.4049    0.1551 H   0  0  0  0  0  0  0  0  0  0  0  0
   -4.7192    1.1682   -1.6549 H   0  0  0  0  0  0  0  0  0  0  0  0
   -4.6352    4.0886   -2.6221 H   0  0  0  0  0  0  0  0  0  0  0  0
   -4.0976    2.6887   -3.5582 H   0  0  0  0  0  0  0  0  0  0  0  0
   -5.8111    2.8719   -3.1387 H   0  0  0  0  0  0  0  0  0  0  0  0
   -2.2466    1.5400   -1.4507 N   0  0  0  0  0  0  0  0  0  0  0  0
   -0.8424    1.5707   -1.1286 C   0  0  2  0  0  0  0  0  0  0  0  0
   -0.6681    2.1660    0.2671 C   0  0  0  0  0  0  0  0  0  0  0  0
   -0.6854    1.4868    1.2917 O   0  0  0  0  0  0  0  0  0  0  0  0
   -0.0143    2.2838   -2.2003 C   0  0  0  0  0  0  0  0  0  0  0  0
   -0.0082    1.4380   -3.7995 S   0  0  0  0  0  0  0  0  0  0  0  0
   -2.5850    0.7815   -2.0381 H   0  0  0  0  0  0  0  0  0  0  0  0
   -0.5277    0.5207   -1.0823 H   0  0  0  0  0  0  0  0  0  0  0  0
   -0.3929    3.2974   -2.3674 H   0  0  0  0  0  0  0  0  0  0  0  0
    1.0269    2.3701   -1.8712 H   0  0  0  0  0  0  0  0  0  0  0  0
   -0.5164    3.5449    0.2344 N   0  0  0  0  0  0  0  0  0  0  0  0
   -0.3597    4.3400    1.4299 C   0  0  2  0  0  0  0  0  0  0  0  0
   -1.0031    5.6975    1.1796 C   0  0  0  0  0  0  0  0  0  0  0  0
   -0.9981    6.2499    0.0814 O   0  0  0  0  0  0  0  0  0  0  0  0
    1.1063    4.4940    1.8038 C   0  0  0  0  0  0  0  0  0  0  0  0
   -0.4705    4.0218   -0.6612 H   0  0  0  0  0  0  0  0  0  0  0  0
   -0.9005    3.8205    2.2284 H   0  0  0  0  0  0  0  0  0  0  0  0
    1.6645    5.0124    1.0156 H   0  0  0  0  0  0  0  0  0  0  0  0
    1.2219    5.0729    2.7260 H   0  0  0  0  0  0  0  0  0  0  0  0
    1.5750    3.5155    1.9543 H   0  0  0  0  0  0  0  0  0  0  0  0
   -1.5459    6.2391    2.3364 N   0  0  0  0  0  0  0  0  0  0  0  0
   -2.1753    7.5386    2.3681 C   0  0  0  0  0  0  0  0  0  0  0  0
   -1.5406    5.6940    3.1935 H   0  0  0  0  0  0  0  0  0  0  0  0
   -1.4315    8.3002    2.6448 H   0  0  0  0  0  0  0  0  0  0  0  0
   -2.5859    7.7713    1.3745 H   0  0  0  0  0  0  0  0  0  0  0  0
   -2.9884    7.5341    3.1089 H   0  0  0  0  0  0  0  0  0  0  0  0
  1  3  1  0  0  0  0
  1  7  1  0  0  0  0
  1  2  2  0  0  0  0
 23 25  1  0  0  0  0
 23 29  1  0  0  0  0
 23 24  2  0  0  0  0
 50 51  1  0  0  0  0
 51 59  1  0  0  0  0
 51 52  2  0  0  0  0
  8  9  1  0  0  0  0
  9 17  1  0  0  0  0
  9 10  2  0  0  0  0
 30 31  1  0  0  0  0
 31 39  1  0  0  0  0
 31 32  2  0  0  0  0
 40 41  1  0  0  0  0
 41 49  1  0  0  0  0
 41 42  2  0  0  0  0
 50 53  1  0  0  0  0
 30 33  1  0  0  0  0
 59 60  1  0  0  0  0
 17 18  1  0  0  0  0
  8 11  1  0  0  0  0
 11 12  1  0  0  0  0
 40 43  1  0  0  0  0
 43 44  1  0  0  0  0
 49 50  1  0  0  0  0
  7  8  1  0  0  0  0
 29 30  1  0  0  0  0
 39 40  1  0  0  0  0
 12 44  1  0  0  0  0
  3  4  1  0  0  0  0
  3  5  1  0  0  0  0
  3  6  1  0  0  0  0
 25 26  1  0  0  0  0
 25 27  1  0  0  0  0
 25 28  1  0  0  0  0
 53 56  1  0  0  0  0
 53 57  1  0  0  0  0
 53 58  1  0  0  0  0
 33 36  1  0  0  0  0
 33 37  1  0  0  0  0
 33 38  1  0  0  0  0
 60 62  1  0  0  0  0
 60 63  1  0  0  0  0
 60 64  1  0  0  0  0
 18 20  1  0  0  0  0
 18 21  1  0  0  0  0
 18 22  1  0  0  0  0
 11 15  1  0  0  0  0
 11 16  1  0  0  0  0
 43 47  1  0  0  0  0
 43 48  1  0  0  0  0
 50 55  1  0  0  0  0
  8 14  1  0  0  0  0
 30 35  1  0  0  0  0
 40 46  1  0  0  0  0
 59 61  1  0  0  0  0
 17 19  1  0  0  0  0
  7 13  1  0  0  0  0
 29 34  1  0  0  0  0
 49 54  1  0  0  0  0
 39 45  1  0  0  0  0
M  END
$$$$

  -OEChem-05262214473D

 64 63  0     1  0  0  0  0  0999 V2000
    0.4870    4.0864   -8.8798 C   0  0  0  0  0  0  0  0  0  0  0  0
   -0.7023    4.2944   -9.0894 O   0  0  0  0  0  0  0  0  0  0  0  0
    1.3348    3.5066   -9.9631 C   0  0  0  0  0  0  0  0  0  0  0  0
    1.3528    2.4051   -9.9390 H   0  0  0  0  0  0  0  0  0  0  0  0
    0.9701    3.7698  -10.9689 H   0  0  0  0  0  0  0  0  0  0  0  0
    2.3927    3.8140   -9.9491 H   0  0  0  0  0  0  0  0  0  0  0  0
    1.1677    4.3397   -7.7015 N   0  0  0  0  0  0  0  0  0  0  0  0
    0.5414    4.8999   -6.5309 C   0  0  2  0  0  0  0  0  0  0  0  0
    1.5435    5.8073   -5.8202 C   0  0  0  0  0  0  0  0  0  0  0  0
    2.7187    5.9079   -6.1668 O   0  0  0  0  0  0  0  0  0  0  0  0
   -0.0570    3.8255   -5.6196 C   0  0  0  0  0  0  0  0  0  0  0  0
    1.1788    2.6793   -4.9258 S   0  0  0  0  0  0  0  0  0  0  0  0
    2.1602    4.1192   -7.6598 H   0  0  0  0  0  0  0  0  0  0  0  0
   -0.2712    5.5343   -6.9065 H   0  0  0  0  0  0  0  0  0  0  0  0
   -0.5854    4.2857   -4.7783 H   0  0  0  0  0  0  0  0  0  0  0  0
   -0.7838    3.2253   -6.1777 H   0  0  0  0  0  0  0  0  0  0  0  0
    0.9775    6.4705   -4.7407 N   0  0  0  0  0  0  0  0  0  0  0  0
    1.7305    7.3673   -3.8954 C   0  0  0  0  0  0  0  0  0  0  0  0
   -0.0145    6.3618   -4.5514 H   0  0  0  0  0  0  0  0  0  0  0  0
    2.1310    6.8113   -3.0349 H   0  0  0  0  0  0  0  0  0  0  0  0
    2.5617    7.8016   -4.4703 H   0  0  0  0  0  0  0  0  0  0  0  0
    1.0723    8.1726   -3.5372 H   0  0  0  0  0  0  0  0  0  0  0  0
   -6.7256    2.0330   -0.2766 C   0  0  0  0  0  0  0  0  0  0  0  0
   -7.1824    1.1039   -0.9322 O   0  0  0  0  0  0  0  0  0  0  0  0
   -7.5276    2.6077    0.8435 C   0  0  0  0  0  0  0  0  0  0  0  0
   -8.1775    3.4344    0.5145 H   0  0  0  0  0  0  0  0  0  0  0  0
   -8.2057    1.8676    1.2980 H   0  0  0  0  0  0  0  0  0  0  0  0
   -6.9411    3.0162    1.6819 H   0  0  0  0  0  0  0  0  0  0  0  0
   -5.4935    2.6382   -0.4627 N   0  0  0  0  0  0  0  0  0  0  0  0
   -4.5619    2.2388   -1.4845 C   0  0  2  0  0  0  0  0  0  0  0  0
   -3.1535    2.4674   -0.9521 C   0  0  0  0  0  0  0  0  0  0  0  0
   -2.8634    3.3945   -0.1987 O   0  0  0  0  0  0  0  0  0  0  0  0
   -4.7883    3.0138   -2.7732 C   0  0  0  0  0  0  0  0  0  0  0  0
   -5.2337    3.4049    0.1551 H   0  0  0  0  0  0  0  0  0  0  0  0
   -4.7192    1.1682   -1.6549 H   0  0  0  0  0  0  0  0  0  0  0  0
   -4.6352    4.0886   -2.6221 H   0  0  0  0  0  0  0  0  0  0  0  0
   -4.0976    2.6887   -3.5582 H   0  0  0  0  0  0  0  0  0  0  0  0
   -5.8111    2.8719   -3.1387 H   0  0  0  0  0  0  0  0  0  0  0  0
   -2.2466    1.5400   -1.4507 N   0  0  0  0  0  0  0  0  0  0  0  0
   -0.8424    1.5707   -1.1286 C   0  0  2  0  0  0  0  0  0  0  0  0
   -0.6681    2.1660    0.2671 C   0  0  0  0  0  0  0  0  0  0  0  0
   -0.4182    1.4845    1.2594 O   0  0  0  0  0  0  0  0  0  0  0  0
   -0.0143    2.2838   -2.2003 C   0  0  0  0  0  0  0  0  0  0  0  0
   -0.0082    1.4380   -3.7995 S   0  0  0  0  0  0  0  0  0  0  0  0
   -2.5850    0.7815   -2.0381 H   0  0  0  0  0  0  0  0  0  0  0  0
   -0.5277    0.5207   -1.0823 H   0  0  0  0  0  0  0  0  0  0  0  0
   -0.3929    3.2974   -2.3674 H   0  0  0  0  0  0  0  0  0  0  0  0
    1.0269    2.3701   -1.8712 H   0  0  0  0  0  0  0  0  0  0  0  0
   -0.8489    3.5418    0.2773 N   0  0  0  0  0  0  0  0  0  0  0  0
   -0.7595    4.3304    1.4839 C   0  0  2  0  0  0  0  0  0  0  0  0
   -1.7265    5.4998    1.3542 C   0  0  0  0  0  0  0  0  0  0  0  0
   -1.9662    6.0566    0.2848 O   0  0  0  0  0  0  0  0  0  0  0  0
    0.6601    4.8224    1.7194 C   0  0  0  0  0  0  0  0  0  0  0  0
   -1.0102    4.0313   -0.5979 H   0  0  0  0  0  0  0  0  0  0  0  0
   -1.0767    3.6832    2.3089 H   0  0  0  0  0  0  0  0  0  0  0  0
    0.9954    5.4724    0.9030 H   0  0  0  0  0  0  0  0  0  0  0  0
    0.7320    5.3960    2.6494 H   0  0  0  0  0  0  0  0  0  0  0  0
    1.3587    3.9811    1.7827 H   0  0  0  0  0  0  0  0  0  0  0  0
   -2.2574    5.8764    2.5799 N   0  0  0  0  0  0  0  0  0  0  0  0
   -3.1678    6.9880    2.7268 C   0  0  0  0  0  0  0  0  0  0  0  0
   -2.0347    5.3334    3.4090 H   0  0  0  0  0  0  0  0  0  0  0  0
   -2.5990    7.8999    2.9614 H   0  0  0  0  0  0  0  0  0  0  0  0
   -3.7230    7.1335    1.7885 H   0  0  0  0  0  0  0  0  0  0  0  0
   -3.8751    6.7772    3.5425 H   0  0  0  0  0  0  0  0  0  0  0  0
  1  3  1  0  0  0  0
  1  7  1  0  0  0  0
  1  2  2  0  0  0  0
 23 25  1  0  0  0  0
 23 29  1  0  0  0  0
 23 24  2  0  0  0  0
 50 51  1  0  0  0  0
 51 59  1  0  0  0  0
 51 52  2  0  0  0  0
  8  9  1  0  0  0  0
  9 17  1  0  0  0  0
  9 10  2  0  0  0  0
 30 31  1  0  0  0  0
 31 39  1  0  0  0  0
 31 32  2  0  0  0  0
 40 41  1  0  0  0  0
 41 49  1  0  0  0  0
 41 42  2  0  0  0  0
 50 53  1  0  0  0  0
 30 33  1  0  0  0  0
 59 60  1  0  0  0  0
 17 18  1  0  0  0  0
  8 11  1  0  0  0  0
 11 12  1  0  0  0  0
 40 43  1  0  0  0  0
 43 44  1  0  0  0  0
 49 50  1  0  0  0  0
  7  8  1  0  0  0  0
 29 30  1  0  0  0  0
 39 40  1  0  0  0  0
 12 44  1  0  0  0  0
  3  4  1  0  0  0  0
  3  5  1  0  0  0  0
  3  6  1  0  0  0  0
 25 26  1  0  0  0  0
 25 27  1  0  0  0  0
 25 28  1  0  0  0  0
 53 56  1  0  0  0  0
 53 57  1  0  0  0  0
 53 58  1  0  0  0  0
 33 36  1  0  0  0  0
 33 37  1  0  0  0  0
 33 38  1  0  0  0  0
 60 62  1  0  0  0  0
 60 63  1  0  0  0  0
 60 64  1  0  0  0  0
 18 20  1  0  0  0  0
 18 21  1  0  0  0  0
 18 22  1  0  0  0  0
 11 15  1  0  0  0  0
 11 16  1  0  0  0  0
 43 47  1  0  0  0  0
 43 48  1  0  0  0  0
 50 55  1  0  0  0  0
  8 14  1  0  0  0  0
 30 35  1  0  0  0  0
 40 46  1  0  0  0  0
 59 61  1  0  0  0  0
 17 19  1  0  0  0  0
  7 13  1  0  0  0  0
 29 34  1  0  0  0  0
 49 54  1  0  0  0  0
 39 45  1  0  0  0  0
M  END
$$$$

  -OEChem-05262214473D

 64 63  0     1  0  0  0  0  0999 V2000
    0.4870    4.0864   -8.8798 C   0  0  0  0  0  0  0  0  0  0  0  0
   -0.7023    4.2944   -9.0894 O   0  0  0  0  0  0  0  0  0  0  0  0
    1.3348    3.5066   -9.9631 C   0  0  0  0  0  0  0  0  0  0  0  0
    1.3528    2.4051   -9.9390 H   0  0  0  0  0  0  0  0  0  0  0  0
    0.9701    3.7698  -10.9689 H   0  0  0  0  0  0  0  0  0  0  0  0
    2.3927    3.8140   -9.9491 H   0  0  0  0  0  0  0  0  0  0  0  0
    1.1677    4.3397   -7.7015 N   0  0  0  0  0  0  0  0  0  0  0  0
    0.5414    4.8999   -6.5309 C   0  0  2  0  0  0  0  0  0  0  0  0
    1.5435    5.8073   -5.8202 C   0  0  0  0  0  0  0  0  0  0  0  0
    2.7187    5.9079   -6.1668 O   0  0  0  0  0  0  0  0  0  0  0  0
   -0.0570    3.8255   -5.6196 C   0  0  0  0  0  0  0  0  0  0  0  0
    1.1788    2.6793   -4.9258 S   0  0  0  0  0  0  0  0  0  0  0  0
    2.1602    4.1192   -7.6598 H   0  0  0  0  0  0  0  0  0  0  0  0
   -0.2712    5.5343   -6.9065 H   0  0  0  0  0  0  0  0  0  0  0  0
   -0.5854    4.2857   -4.7783 H   0  0  0  0  0  0  0  0  0  0  0  0
   -0.7838    3.2253   -6.1777 H   0  0  0  0  0  0  0  0  0  0  0  0
    0.9775    6.4705   -4.7407 N   0  0  0  0  0  0  0  0  0  0  0  0
    1.7305    7.3673   -3.8954 C   0  0  0  0  0  0  0  0  0  0  0  0
   -0.0145    6.3618   -4.5514 H   0  0  0  0  0  0  0  0  0  0  0  0
    2.1310    6.8113   -3.0349 H   0  0  0  0  0  0  0  0  0  0  0  0
    2.5617    7.8016   -4.4703 H   0  0  0  0  0  0  0  0  0  0  0  0
    1.0723    8.1726   -3.5372 H   0  0  0  0  0  0  0  0  0  0  0  0
   -6.7256    2.0330   -0.2766 C   0  0  0  0  0  0  0  0  0  0  0  0
   -7.1824    1.1039   -0.9322 O   0  0  0  0  0  0  0  0  0  0  0  0
   -7.5276    2.6077    0.8435 C   0  0  0  0  0  0  0  0  0  0  0  0
   -8.1775    3.4344    0.5145 H   0  0  0  0  0  0  0  0  0  0  0  0
   -8.2057    1.8676    1.2980 H   0  0  0  0  0  0  0  0  0  0  0  0
   -6.9411    3.0162    1.6819 H   0  0  0  0  0  0  0  0  0  0  0  0
   -5.4935    2.6382   -0.4627 N   0  0  0  0  0  0  0  0  0  0  0  0
   -4.5619    2.2388   -1.4845 C   0  0  2  0  0  0  0  0  0  0  0  0
   -3.1535    2.4674   -0.9521 C   0  0  0  0  0  0  0  0  0  0  0  0
   -2.8634    3.3945   -0.1987 O   0  0  0  0  0  0  0  0  0  0  0  0
   -4.7883    3.0138   -2.7732 C   0  0  0  0  0  0  0  0  0  0  0  0
   -5.2337    3.4049    0.1551 H   0  0  0  0  0  0  0  0  0  0  0  0
   -4.7192    1.1682   -1.6549 H   0  0  0  0  0  0  0  0  0  0  0  0
   -4.6352    4.0886   -2.6221 H   0  0  0  0  0  0  0  0  0  0  0  0
   -4.0976    2.6887   -3.5582 H   0  0  0  0  0  0  0  0  0  0  0  0
   -5.8111    2.8719   -3.1387 H   0  0  0  0  0  0  0  0  0  0  0  0
   -2.2466    1.5400   -1.4507 N   0  0  0  0  0  0  0  0  0  0  0  0
   -0.8424    1.5707   -1.1286 C   0  0  2  0  0  0  0  0  0  0  0  0
   -0.6681    2.1660    0.2671 C   0  0  0  0  0  0  0  0  0  0  0  0
   -0.1629    1.5464    1.2011 O   0  0  0  0  0  0  0  0  0  0  0  0
   -0.0143    2.2838   -2.2003 C   0  0  0  0  0  0  0  0  0  0  0  0
   -0.0082    1.4380   -3.7995 S   0  0  0  0  0  0  0  0  0  0  0  0
   -2.5850    0.7815   -2.0381 H   0  0  0  0  0  0  0  0  0  0  0  0
   -0.5277    0.5207   -1.0823 H   0  0  0  0  0  0  0  0  0  0  0  0
   -0.3929    3.2974   -2.3674 H   0  0  0  0  0  0  0  0  0  0  0  0
    1.0269    2.3701   -1.8712 H   0  0  0  0  0  0  0  0  0  0  0  0
   -1.1651    3.4588    0.3522 N   0  0  0  0  0  0  0  0  0  0  0  0
   -1.1380    4.2249    1.5762 C   0  0  2  0  0  0  0  0  0  0  0  0
   -2.3608    5.1327    1.5900 C   0  0  0  0  0  0  0  0  0  0  0  0
   -2.8349    5.6349    0.5732 O   0  0  0  0  0  0  0  0  0  0  0  0
    0.1428    5.0365    1.6927 C   0  0  0  0  0  0  0  0  0  0  0  0
   -1.5274    3.9110   -0.4820 H   0  0  0  0  0  0  0  0  0  0  0  0
   -1.2063    3.5066    2.4004 H   0  0  0  0  0  0  0  0  0  0  0  0
    0.2288    5.7617    0.8753 H   0  0  0  0  0  0  0  0  0  0  0  0
    0.1747    5.5945    2.6343 H   0  0  0  0  0  0  0  0  0  0  0  0
    1.0222    4.3847    1.6526 H   0  0  0  0  0  0  0  0  0  0  0  0
   -2.8344    5.3507    2.8762 N   0  0  0  0  0  0  0  0  0  0  0  0
   -3.9600    6.2109    3.1572 C   0  0  0  0  0  0  0  0  0  0  0  0
   -2.4050    4.8620    3.6563 H   0  0  0  0  0  0  0  0  0  0  0  0
   -3.6002    7.2277    3.3731 H   0  0  0  0  0  0  0  0  0  0  0  0
   -4.6288    6.2364    2.2842 H   0  0  0  0  0  0  0  0  0  0  0  0
   -4.5088    5.8236    4.0284 H   0  0  0  0  0  0  0  0  0  0  0  0
  1  3  1  0  0  0  0
  1  7  1  0  0  0  0
  1  2  2  0  0  0  0
 23 25  1  0  0  0  0
 23 29  1  0  0  0  0
 23 24  2  0  0  0  0
 50 51  1  0  0  0  0
 51 59  1  0  0  0  0
 51 52  2  0  0  0  0
  8  9  1  0  0  0  0
  9 17  1  0  0  0  0
  9 10  2  0  0  0  0
 30 31  1  0  0  0  0
 31 39  1  0  0  0  0
 31 32  2  0  0  0  0
 40 41  1  0  0  0  0
 41 49  1  0  0  0  0
 41 42  2  0  0  0  0
 50 53  1  0  0  0  0
 30 33  1  0  0  0  0
 59 60  1  0  0  0  0
 17 18  1  0  0  0  0
  8 11  1  0  0  0  0
 11 12  1  0  0  0  0
 40 43  1  0  0  0  0
 43 44  1  0  0  0  0
 49 50  1  0  0  0  0
  7  8  1  0  0  0  0
 29 30  1  0  0  0  0
 39 40  1  0  0  0  0
 12 44  1  0  0  0  0
  3  4  1  0  0  0  0
  3  5  1  0  0  0  0
  3  6  1  0  0  0  0
 25 26  1  0  0  0  0
 25 27  1  0  0  0  0
 25 28  1  0  0  0  0
 53 56  1  0  0  0  0
 53 57  1  0  0  0  0
 53 58  1  0  0  0  0
 33 36  1  0  0  0  0
 33 37  1  0  0  0  0
 33 38  1  0  0  0  0
 60 62  1  0  0  0  0
 60 63  1  0  0  0  0
 60 64  1  0  0  0  0
 18 20  1  0  0  0  0
 18 21  1  0  0  0  0
 18 22  1  0  0  0  0
 11 15  1  0  0  0  0
 11 16  1  0  0  0  0
 43 47  1  0  0  0  0
 43 48  1  0  0  0  0
 50 55  1  0  0  0  0
  8 14  1  0  0  0  0
 30 35  1  0  0  0  0
 40 46  1  0  0  0  0
 59 61  1  0  0  0  0
 17 19  1  0  0  0  0
  7 13  1  0  0  0  0
 29 34  1  0  0  0  0
 49 54  1  0  0  0  0
 39 45  1  0  0  0  0
M  END
$$$$

  -OEChem-05262214473D

 64 63  0     1  0  0  0  0  0999 V2000
    0.4870    4.0864   -8.8798 C   0  0  0  0  0  0  0  0  0  0  0  0
   -0.7023    4.2944   -9.0894 O   0  0  0  0  0  0  0  0  0  0  0  0
    1.3348    3.5066   -9.9631 C   0  0  0  0  0  0  0  0  0  0  0  0
    1.3528    2.4051   -9.9390 H   0  0  0  0  0  0  0  0  0  0  0  0
    0.9701    3.7698  -10.9689 H   0  0  0  0  0  0  0  0  0  0  0  0
    2.3927    3.8140   -9.9491 H   0  0  0  0  0  0  0  0  0  0  0  0
    1.1677    4.3397   -7.7015 N   0  0  0  0  0  0  0  0  0  0  0  0
    0.5414    4.8999   -6.5309 C   0  0  2  0  0  0  0  0  0  0  0  0
    1.5435    5.8073   -5.8202 C   0  0  0  0  0  0  0  0  0  0  0  0
    2.7187    5.9079   -6.1668 O   0  0  0  0  0  0  0  0  0  0  0  0
   -0.0570    3.8255   -5.6196 C   0  0  0  0  0  0  0  0  0  0  0  0
    1.1788    2.6793   -4.9258 S   0  0  0  0  0  0  0  0  0  0  0  0
    2.1602    4.1192   -7.6598 H   0  0  0  0  0  0  0  0  0  0  0  0
   -0.2712    5.5343   -6.9065 H   0  0  0  0  0  0  0  0  0  0  0  0
   -0.5854    4.2857   -4.7783 H   0  0  0  0  0  0  0  0  0  0  0  0
   -0.7838    3.2253   -6.1777 H   0  0  0  0  0  0  0  0  0  0  0  0
    0.9775    6.4705   -4.7407 N   0  0  0  0  0  0  0  0  0  0  0  0
    1.7305    7.3673   -3.8954 C   0  0  0  0  0  0  0  0  0  0  0  0
   -0.0145    6.3618   -4.5514 H   0  0  0  0  0  0  0  0  0  0  0  0
    2.1310    6.8113   -3.0349 H   0  0  0  0  0  0  0  0  0  0  0  0
    2.5617    7.8016   -4.4703 H   0  0  0  0  0  0  0  0  0  0  0  0
    1.0723    8.1726   -3.5372 H   0  0  0  0  0  0  0  0  0  0  0  0
   -6.7256    2.0330   -0.2766 C   0  0  0  0  0  0  0  0  0  0  0  0
   -7.1824    1.1039   -0.9322 O   0  0  0  0  0  0  0  0  0  0  0  0
   -7.5276    2.6077    0.8435 C   0  0  0  0  0  0  0  0  0  0  0  0
   -8.1775    3.4344    0.5145 H   0  0  0  0  0  0  0  0  0  0  0  0
   -8.2057    1.8676    1.2980 H   0  0  0  0  0  0  0  0  0  0  0  0
   -6.9411    3.0162    1.6819 H   0  0  0  0  0  0  0  0  0  0  0  0
   -5.4935    2.6382   -0.4627 N   0  0  0  0  0  0  0  0  0  0  0  0
   -4.5619    2.2388   -1.4845 C   0  0  2  0  0  0  0  0  0  0  0  0
   -3.1535    2.4674   -0.9521 C   0  0  0  0  0  0  0  0  0  0  0  0
   -2.8634    3.3945   -0.1987 O   0  0  0  0  0  0  0  0  0  0  0  0
   -4.7883    3.0138   -2.7732 C   0  0  0  0  0  0  0  0  0  0  0  0
   -5.2337    3.4049    0.1551 H   0  0  0  0  0  0  0  0  0  0  0  0
   -4.7192    1.1682   -1.6549 H   0  0  0  0  0  0  0  0  0  0  0  0
   -4.6352    4.0886   -2.6221 H   0  0  0  0  0  0  0  0  0  0  0  0
   -4.0976    2.6887   -3.5582 H   0  0  0  0  0  0  0  0  0  0  0  0
   -5.8111    2.8719   -3.1387 H   0  0  0  0  0  0  0  0  0  0  0  0
   -2.2466    1.5400   -1.4507 N   0  0  0  0  0  0  0  0  0  0  0  0
   -0.8424    1.5707   -1.1286 C   0  0  2  0  0  0  0  0  0  0  0  0
   -0.6681    2.1660    0.2671 C   0  0  0  0  0  0  0  0  0  0  0  0
    0.0633    1.6684    1.1208 O   0  0  0  0  0  0  0  0  0  0  0  0
   -0.0143    2.2838   -2.2003 C   0  0  0  0  0  0  0  0  0  0  0  0
   -0.0082    1.4380   -3.7995 S   0  0  0  0  0  0  0  0  0  0  0  0
   -2.5850    0.7815   -2.0381 H   0  0  0  0  0  0  0  0  0  0  0  0
   -0.5277    0.5207   -1.0823 H   0  0  0  0  0  0  0  0  0  0  0  0
   -0.3929    3.2974   -2.3674 H   0  0  0  0  0  0  0  0  0  0  0  0
    1.0269    2.3701   -1.8712 H   0  0  0  0  0  0  0  0  0  0  0  0
   -1.4433    3.3017    0.4539 N   0  0  0  0  0  0  0  0  0  0  0  0
   -1.4693    4.0308    1.7003 C   0  0  2  0  0  0  0  0  0  0  0  0
   -2.8629    4.6210    1.8710 C   0  0  0  0  0  0  0  0  0  0  0  0
   -3.5453    5.0136    0.9269 O   0  0  0  0  0  0  0  0  0  0  0  0
   -0.4102    5.1218    1.7254 C   0  0  0  0  0  0  0  0  0  0  0  0
   -1.9868    3.6691   -0.3215 H   0  0  0  0  0  0  0  0  0  0  0  0
   -1.2805    3.3026    2.4967 H   0  0  0  0  0  0  0  0  0  0  0  0
   -0.5828    5.8608    0.9345 H   0  0  0  0  0  0  0  0  0  0  0  0
   -0.4122    5.6548    2.6819 H   0  0  0  0  0  0  0  0  0  0  0  0
    0.5887    4.6989    1.5728 H   0  0  0  0  0  0  0  0  0  0  0  0
   -3.2374    4.6976    3.2051 N   0  0  0  0  0  0  0  0  0  0  0  0
   -4.4980    5.2602    3.6299 C   0  0  0  0  0  0  0  0  0  0  0  0
   -2.6262    4.3117    3.9187 H   0  0  0  0  0  0  0  0  0  0  0  0
   -4.3667    6.3295    3.8519 H   0  0  0  0  0  0  0  0  0  0  0  0
   -5.2414    5.1409    2.8280 H   0  0  0  0  0  0  0  0  0  0  0  0
   -4.8464    4.7383    4.5334 H   0  0  0  0  0  0  0  0  0  0  0  0
  1  3  1  0  0  0  0
  1  7  1  0  0  0  0
  1  2  2  0  0  0  0
 23 25  1  0  0  0  0
 23 29  1  0  0  0  0
 23 24  2  0  0  0  0
 50 51  1  0  0  0  0
 51 59  1  0  0  0  0
 51 52  2  0  0  0  0
  8  9  1  0  0  0  0
  9 17  1  0  0  0  0
  9 10  2  0  0  0  0
 30 31  1  0  0  0  0
 31 39  1  0  0  0  0
 31 32  2  0  0  0  0
 40 41  1  0  0  0  0
 41 49  1  0  0  0  0
 41 42  2  0  0  0  0
 50 53  1  0  0  0  0
 30 33  1  0  0  0  0
 59 60  1  0  0  0  0
 17 18  1  0  0  0  0
  8 11  1  0  0  0  0
 11 12  1  0  0  0  0
 40 43  1  0  0  0  0
 43 44  1  0  0  0  0
 49 50  1  0  0  0  0
  7  8  1  0  0  0  0
 29 30  1  0  0  0  0
 39 40  1  0  0  0  0
 12 44  1  0  0  0  0
  3  4  1  0  0  0  0
  3  5  1  0  0  0  0
  3  6  1  0  0  0  0
 25 26  1  0  0  0  0
 25 27  1  0  0  0  0
 25 28  1  0  0  0  0
 53 56  1  0  0  0  0
 53 57  1  0  0  0  0
 53 58  1  0  0  0  0
 33 36  1  0  0  0  0
 33 37  1  0  0  0  0
 33 38  1  0  0  0  0
 60 62  1  0  0  0  0
 60 63  1  0  0  0  0
 60 64  1  0  0  0  0
 18 20  1  0  0  0  0
 18 21  1  0  0  0  0
 18 22  1  0  0  0  0
 11 15  1  0  0  0  0
 11 16  1  0  0  0  0
 43 47  1  0  0  0  0
 43 48  1  0  0  0  0
 50 55  1  0  0  0  0
  8 14  1  0  0  0  0
 30 35  1  0  0  0  0
 40 46  1  0  0  0  0
 59 61  1  0  0  0  0
 17 19  1  0  0  0  0
  7 13  1  0  0  0  0
 29 34  1  0  0  0  0
 49 54  1  0  0  0  0
 39 45  1  0  0  0  0
M  END
$$$$

  -OEChem-05262214473D

 64 63  0     1  0  0  0  0  0999 V2000
    0.4870    4.0864   -8.8798 C   0  0  0  0  0  0  0  0  0  0  0  0
   -0.7023    4.2944   -9.0894 O   0  0  0  0  0  0  0  0  0  0  0  0
    1.3348    3.5066   -9.9631 C   0  0  0  0  0  0  0  0  0  0  0  0
    1.3528    2.4051   -9.9390 H   0  0  0  0  0  0  0  0  0  0  0  0
    0.9701    3.7698  -10.9689 H   0  0  0  0  0  0  0  0  0  0  0  0
    2.3927    3.8140   -9.9491 H   0  0  0  0  0  0  0  0  0  0  0  0
    1.1677    4.3397   -7.7015 N   0  0  0  0  0  0  0  0  0  0  0  0
    0.5414    4.8999   -6.5309 C   0  0  2  0  0  0  0  0  0  0  0  0
    1.5435    5.8073   -5.8202 C   0  0  0  0  0  0  0  0  0  0  0  0
    2.7187    5.9079   -6.1668 O   0  0  0  0  0  0  0  0  0  0  0  0
   -0.0570    3.8255   -5.6196 C   0  0  0  0  0  0  0  0  0  0  0  0
    1.1788    2.6793   -4.9258 S   0  0  0  0  0  0  0  0  0  0  0  0
    2.1602    4.1192   -7.6598 H   0  0  0  0  0  0  0  0  0  0  0  0
   -0.2712    5.5343   -6.9065 H   0  0  0  0  0  0  0  0  0  0  0  0
   -0.5854    4.2857   -4.7783 H   0  0  0  0  0  0  0  0  0  0  0  0
   -0.7838    3.2253   -6.1777 H   0  0  0  0  0  0  0  0  0  0  0  0
    0.9775    6.4705   -4.7407 N   0  0  0  0  0  0  0  0  0  0  0  0
    1.7305    7.3673   -3.8954 C   0  0  0  0  0  0  0  0  0  0  0  0
   -0.0145    6.3618   -4.5514 H   0  0  0  0  0  0  0  0  0  0  0  0
    2.1310    6.8113   -3.0349 H   0  0  0  0  0  0  0  0  0  0  0  0
    2.5617    7.8016   -4.4703 H   0  0  0  0  0  0  0  0  0  0  0  0
    1.0723    8.1726   -3.5372 H   0  0  0  0  0  0  0  0  0  0  0  0
   -6.7256    2.0330   -0.2766 C   0  0  0  0  0  0  0  0  0  0  0  0
   -7.1824    1.1039   -0.9322 O   0  0  0  0  0  0  0  0  0  0  0  0
   -7.5276    2.6077    0.8435 C   0  0  0  0  0  0  0  0  0  0  0  0
   -8.1775    3.4344    0.5145 H   0  0  0  0  0  0  0  0  0  0  0  0
   -8.2057    1.8676    1.2980 H   0  0  0  0  0  0  0  0  0  0  0  0
   -6.9411    3.0162    1.6819 H   0  0  0  0  0  0  0  0  0  0  0  0
   -5.4935    2.6382   -0.4627 N   0  0  0  0  0  0  0  0  0  0  0  0
   -4.5619    2.2388   -1.4845 C   0  0  2  0  0  0  0  0  0  0  0  0
   -3.1535    2.4674   -0.9521 C   0  0  0  0  0  0  0  0  0  0  0  0
   -2.8634    3.3945   -0.1987 O   0  0  0  0  0  0  0  0  0  0  0  0
   -4.7883    3.0138   -2.7732 C   0  0  0  0  0  0  0  0  0  0  0  0
   -5.2337    3.4049    0.1551 H   0  0  0  0  0  0  0  0  0  0  0  0
   -4.7192    1.1682   -1.6549 H   0  0  0  0  0  0  0  0  0  0  0  0
   -4.6352    4.0886   -2.6221 H   0  0  0  0  0  0  0  0  0  0  0  0
   -4.0976    2.6887   -3.5582 H   0  0  0  0  0  0  0  0  0  0  0  0
   -5.8111    2.8719   -3.1387 H   0  0  0  0  0  0  0  0  0  0  0  0
   -2.2466    1.5400   -1.4507 N   0  0  0  0  0  0  0  0  0  0  0  0
   -0.8424    1.5707   -1.1286 C   0  0  2  0  0  0  0  0  0  0  0  0
   -0.6681    2.1660    0.2671 C   0  0  0  0  0  0  0  0  0  0  0  0
    0.2448    1.8420    1.0241 O   0  0  0  0  0  0  0  0  0  0  0  0
   -0.0143    2.2838   -2.2003 C   0  0  0  0  0  0  0  0  0  0  0  0
   -0.0082    1.4380   -3.7995 S   0  0  0  0  0  0  0  0  0  0  0  0
   -2.5850    0.7815   -2.0381 H   0  0  0  0  0  0  0  0  0  0  0  0
   -0.5277    0.5207   -1.0823 H   0  0  0  0  0  0  0  0  0  0  0  0
   -0.3929    3.2974   -2.3674 H   0  0  0  0  0  0  0  0  0  0  0  0
    1.0269    2.3701   -1.8712 H   0  0  0  0  0  0  0  0  0  0  0  0
   -1.6646    3.0811    0.5756 N   0  0  0  0  0  0  0  0  0  0  0  0
   -1.7309    3.7613    1.8480 C   0  0  2  0  0  0  0  0  0  0  0  0
   -3.1985    3.9997    2.1778 C   0  0  0  0  0  0  0  0  0  0  0  0
   -4.0488    4.2349    1.3218 O   0  0  0  0  0  0  0  0  0  0  0  0
   -0.9611    5.0724    1.8153 C   0  0  0  0  0  0  0  0  0  0  0  0
   -2.3572    3.3220   -0.1272 H   0  0  0  0  0  0  0  0  0  0  0  0
   -1.2941    3.0852    2.5911 H   0  0  0  0  0  0  0  0  0  0  0  0
   -1.3843    5.7627    1.0764 H   0  0  0  0  0  0  0  0  0  0  0  0
   -0.9885    5.5729    2.7888 H   0  0  0  0  0  0  0  0  0  0  0  0
    0.0875    4.9021    1.5487 H   0  0  0  0  0  0  0  0  0  0  0  0
   -3.4391    3.9618    3.5442 N   0  0  0  0  0  0  0  0  0  0  0  0
   -4.7452    4.2006    4.1127 C   0  0  0  0  0  0  0  0  0  0  0  0
   -2.6832    3.7200    4.1781 H   0  0  0  0  0  0  0  0  0  0  0  0
   -4.8464    5.2664    4.3653 H   0  0  0  0  0  0  0  0  0  0  0  0
   -5.5193    3.9218    3.3827 H   0  0  0  0  0  0  0  0  0  0  0  0
   -4.8648    3.5952    5.0233 H   0  0  0  0  0  0  0  0  0  0  0  0
  1  3  1  0  0  0  0
  1  7  1  0  0  0  0
  1  2  2  0  0  0  0
 23 25  1  0  0  0  0
 23 29  1  0  0  0  0
 23 24  2  0  0  0  0
 50 51  1  0  0  0  0
 51 59  1  0  0  0  0
 51 52  2  0  0  0  0
  8  9  1  0  0  0  0
  9 17  1  0  0  0  0
  9 10  2  0  0  0  0
 30 31  1  0  0  0  0
 31 39  1  0  0  0  0
 31 32  2  0  0  0  0
 40 41  1  0  0  0  0
 41 49  1  0  0  0  0
 41 42  2  0  0  0  0
 50 53  1  0  0  0  0
 30 33  1  0  0  0  0
 59 60  1  0  0  0  0
 17 18  1  0  0  0  0
  8 11  1  0  0  0  0
 11 12  1  0  0  0  0
 40 43  1  0  0  0  0
 43 44  1  0  0  0  0
 49 50  1  0  0  0  0
  7  8  1  0  0  0  0
 29 30  1  0  0  0  0
 39 40  1  0  0  0  0
 12 44  1  0  0  0  0
  3  4  1  0  0  0  0
  3  5  1  0  0  0  0
  3  6  1  0  0  0  0
 25 26  1  0  0  0  0
 25 27  1  0  0  0  0
 25 28  1  0  0  0  0
 53 56  1  0  0  0  0
 53 57  1  0  0  0  0
 53 58  1  0  0  0  0
 33 36  1  0  0  0  0
 33 37  1  0  0  0  0
 33 38  1  0  0  0  0
 60 62  1  0  0  0  0
 60 63  1  0  0  0  0
 60 64  1  0  0  0  0
 18 20  1  0  0  0  0
 18 21  1  0  0  0  0
 18 22  1  0  0  0  0
 11 15  1  0  0  0  0
 11 16  1  0  0  0  0
 43 47  1  0  0  0  0
 43 48  1  0  0  0  0
 50 55  1  0  0  0  0
  8 14  1  0  0  0  0
 30 35  1  0  0  0  0
 40 46  1  0  0  0  0
 59 61  1  0  0  0  0
 17 19  1  0  0  0  0
  7 13  1  0  0  0  0
 29 34  1  0  0  0  0
 49 54  1  0  0  0  0
 39 45  1  0  0  0  0
M  END
$$$$

  -OEChem-05262214473D

 64 63  0     1  0  0  0  0  0999 V2000
    0.4870    4.0864   -8.8798 C   0  0  0  0  0  0  0  0  0  0  0  0
   -0.7023    4.2944   -9.0894 O   0  0  0  0  0  0  0  0  0  0  0  0
    1.3348    3.5066   -9.9631 C   0  0  0  0  0  0  0  0  0  0  0  0
    1.3528    2.4051   -9.9390 H   0  0  0  0  0  0  0  0  0  0  0  0
    0.9701    3.7698  -10.9689 H   0  0  0  0  0  0  0  0  0  0  0  0
    2.3927    3.8140   -9.9491 H   0  0  0  0  0  0  0  0  0  0  0  0
    1.1677    4.3397   -7.7015 N   0  0  0  0  0  0  0  0  0  0  0  0
    0.5414    4.8999   -6.5309 C   0  0  2  0  0  0  0  0  0  0  0  0
    1.5435    5.8073   -5.8202 C   0  0  0  0  0  0  0  0  0  0  0  0
    2.7187    5.9079   -6.1668 O   0  0  0  0  0  0  0  0  0  0  0  0
   -0.0570    3.8255   -5.6196 C   0  0  0  0  0  0  0  0  0  0  0  0
    1.1788    2.6793   -4.9258 S   0  0  0  0  0  0  0  0  0  0  0  0
    2.1602    4.1192   -7.6598 H   0  0  0  0  0  0  0  0  0  0  0  0
   -0.2712    5.5343   -6.9065 H   0  0  0  0  0  0  0  0  0  0  0  0
   -0.5854    4.2857   -4.7783 H   0  0  0  0  0  0  0  0  0  0  0  0
   -0.7838    3.2253   -6.1777 H   0  0  0  0  0  0  0  0  0  0  0  0
    0.9775    6.4705   -4.7407 N   0  0  0  0  0  0  0  0  0  0  0  0
    1.7305    7.3673   -3.8954 C   0  0  0  0  0  0  0  0  0  0  0  0
   -0.0145    6.3618   -4.5514 H   0  0  0  0  0  0  0  0  0  0  0  0
    2.1310    6.8113   -3.0349 H   0  0  0  0  0  0  0  0  0  0  0  0
    2.5617    7.8016   -4.4703 H   0  0  0  0  0  0  0  0  0  0  0  0
    1.0723    8.1726   -3.5372 H   0  0  0  0  0  0  0  0  0  0  0  0
   -6.7256    2.0330   -0.2766 C   0  0  0  0  0  0  0  0  0  0  0  0
   -7.1824    1.1039   -0.9322 O   0  0  0  0  0  0  0  0  0  0  0  0
   -7.5276    2.6077    0.8435 C   0  0  0  0  0  0  0  0  0  0  0  0
   -8.1775    3.4344    0.5145 H   0  0  0  0  0  0  0  0  0  0  0  0
   -8.2057    1.8676    1.2980 H   0  0  0  0  0  0  0  0  0  0  0  0
   -6.9411    3.0162    1.6819 H   0  0  0  0  0  0  0  0  0  0  0  0
   -5.4935    2.6382   -0.4627 N   0  0  0  0  0  0  0  0  0  0  0  0
   -4.5619    2.2388   -1.4845 C   0  0  2  0  0  0  0  0  0  0  0  0
   -3.1535    2.4674   -0.9521 C   0  0  0  0  0  0  0  0  0  0  0  0
   -2.8634    3.3945   -0.1987 O   0  0  0  0  0  0  0  0  0  0  0  0
   -4.7883    3.0138   -2.7732 C   0  0  0  0  0  0  0  0  0  0  0  0
   -5.2337    3.4049    0.1551 H   0  0  0  0  0  0  0  0  0  0  0  0
   -4.7192    1.1682   -1.6549 H   0  0  0  0  0  0  0  0  0  0  0  0
   -4.6352    4.0886   -2.6221 H   0  0  0  0  0  0  0  0  0  0  0  0
   -4.0976    2.6887   -3.5582 H   0  0  0  0  0  0  0  0  0  0  0  0
   -5.8111    2.8719   -3.1387 H   0  0  0  0  0  0  0  0  0  0  0  0
   -2.2466    1.5400   -1.4507 N   0  0  0  0  0  0  0  0  0  0  0  0
   -0.8424    1.5707   -1.1286 C   0  0  2  0  0  0  0  0  0  0  0  0
   -0.6681    2.1660    0.2671 C   0  0  0  0  0  0  0  0  0  0  0  0
    0.3693    2.0555    0.9175 O   0  0  0  0  0  0  0  0  0  0  0  0
   -0.0143    2.2838   -2.2003 C   0  0  0  0  0  0  0  0  0  0  0  0
   -0.0082    1.4380   -3.7995 S   0  0  0  0  0  0  0  0  0  0  0  0
   -2.5850    0.7815   -2.0381 H   0  0  0  0  0  0  0  0  0  0  0  0
   -0.5277    0.5207   -1.0823 H   0  0  0  0  0  0  0  0  0  0  0  0
   -0.3929    3.2974   -2.3674 H   0  0  0  0  0  0  0  0  0  0  0  0
    1.0269    2.3701   -1.8712 H   0  0  0  0  0  0  0  0  0  0  0  0
   -1.8139    2.8121    0.7090 N   0  0  0  0  0  0  0  0  0  0  0  0
   -1.9050    3.4347    2.0090 C   0  0  2  0  0  0  0  0  0  0  0  0
   -3.3448    3.3112    2.4898 C   0  0  0  0  0  0  0  0  0  0  0  0
   -4.3112    3.3521    1.7312 O   0  0  0  0  0  0  0  0  0  0  0  0
   -1.4726    4.8917    1.9562 C   0  0  0  0  0  0  0  0  0  0  0  0
   -2.6132    2.8934    0.0876 H   0  0  0  0  0  0  0  0  0  0  0  0
   -1.2464    2.8692    2.6773 H   0  0  0  0  0  0  0  0  0  0  0  0
   -2.1209    5.4742    1.2914 H   0  0  0  0  0  0  0  0  0  0  0  0
   -1.5150    5.3544    2.9478 H   0  0  0  0  0  0  0  0  0  0  0  0
   -0.4470    4.9806    1.5819 H   0  0  0  0  0  0  0  0  0  0  0  0
   -3.4257    3.1933    3.8703 N   0  0  0  0  0  0  0  0  0  0  0  0
   -4.6846    3.1045    4.5727 C   0  0  0  0  0  0  0  0  0  0  0  0
   -2.5722    3.1274    4.4170 H   0  0  0  0  0  0  0  0  0  0  0  0
   -5.0065    4.1110    4.8781 H   0  0  0  0  0  0  0  0  0  0  0  0
   -5.4434    2.6621    3.9105 H   0  0  0  0  0  0  0  0  0  0  0  0
   -4.5629    2.4722    5.4646 H   0  0  0  0  0  0  0  0  0  0  0  0
  1  3  1  0  0  0  0
  1  7  1  0  0  0  0
  1  2  2  0  0  0  0
 23 25  1  0  0  0  0
 23 29  1  0  0  0  0
 23 24  2  0  0  0  0
 50 51  1  0  0  0  0
 51 59  1  0  0  0  0
 51 52  2  0  0  0  0
  8  9  1  0  0  0  0
  9 17  1  0  0  0  0
  9 10  2  0  0  0  0
 30 31  1  0  0  0  0
 31 39  1  0  0  0  0
 31 32  2  0  0  0  0
 40 41  1  0  0  0  0
 41 49  1  0  0  0  0
 41 42  2  0  0  0  0
 50 53  1  0  0  0  0
 30 33  1  0  0  0  0
 59 60  1  0  0  0  0
 17 18  1  0  0  0  0
  8 11  1  0  0  0  0
 11 12  1  0  0  0  0
 40 43  1  0  0  0  0
 43 44  1  0  0  0  0
 49 50  1  0  0  0  0
  7  8  1  0  0  0  0
 29 30  1  0  0  0  0
 39 40  1  0  0  0  0
 12 44  1  0  0  0  0
  3  4  1  0  0  0  0
  3  5  1  0  0  0  0
  3  6  1  0  0  0  0
 25 26  1  0  0  0  0
 25 27  1  0  0  0  0
 25 28  1  0  0  0  0
 53 56  1  0  0  0  0
 53 57  1  0  0  0  0
 53 58  1  0  0  0  0
 33 36  1  0  0  0  0
 33 37  1  0  0  0  0
 33 38  1  0  0  0  0
 60 62  1  0  0  0  0
 60 63  1  0  0  0  0
 60 64  1  0  0  0  0
 18 20  1  0  0  0  0
 18 21  1  0  0  0  0
 18 22  1  0  0  0  0
 11 15  1  0  0  0  0
 11 16  1  0  0  0  0
 43 47  1  0  0  0  0
 43 48  1  0  0  0  0
 50 55  1  0  0  0  0
  8 14  1  0  0  0  0
 30 35  1  0  0  0  0
 40 46  1  0  0  0  0
 59 61  1  0  0  0  0
 17 19  1  0  0  0  0
  7 13  1  0  0  0  0
 29 34  1  0  0  0  0
 49 54  1  0  0  0  0
 39 45  1  0  0  0  0
M  END
$$$$

  -OEChem-05262214473D

 64 63  0     1  0  0  0  0  0999 V2000
    0.4870    4.0864   -8.8798 C   0  0  0  0  0  0  0  0  0  0  0  0
   -0.7023    4.2944   -9.0894 O   0  0  0  0  0  0  0  0  0  0  0  0
    1.3348    3.5066   -9.9631 C   0  0  0  0  0  0  0  0  0  0  0  0
    1.3528    2.4051   -9.9390 H   0  0  0  0  0  0  0  0  0  0  0  0
    0.9701    3.7698  -10.9689 H   0  0  0  0  0  0  0  0  0  0  0  0
    2.3927    3.8140   -9.9491 H   0  0  0  0  0  0  0  0  0  0  0  0
    1.1677    4.3397   -7.7015 N   0  0  0  0  0  0  0  0  0  0  0  0
    0.5414    4.8999   -6.5309 C   0  0  2  0  0  0  0  0  0  0  0  0
    1.5435    5.8073   -5.8202 C   0  0  0  0  0  0  0  0  0  0  0  0
    2.7187    5.9079   -6.1668 O   0  0  0  0  0  0  0  0  0  0  0  0
   -0.0570    3.8255   -5.6196 C   0  0  0  0  0  0  0  0  0  0  0  0
    1.1788    2.6793   -4.9258 S   0  0  0  0  0  0  0  0  0  0  0  0
    2.1602    4.1192   -7.6598 H   0  0  0  0  0  0  0  0  0  0  0  0
   -0.2712    5.5343   -6.9065 H   0  0  0  0  0  0  0  0  0  0  0  0
   -0.5854    4.2857   -4.7783 H   0  0  0  0  0  0  0  0  0  0  0  0
   -0.7838    3.2253   -6.1777 H   0  0  0  0  0  0  0  0  0  0  0  0
    0.9775    6.4705   -4.7407 N   0  0  0  0  0  0  0  0  0  0  0  0
    1.7305    7.3673   -3.8954 C   0  0  0  0  0  0  0  0  0  0  0  0
   -0.0145    6.3618   -4.5514 H   0  0  0  0  0  0  0  0  0  0  0  0
    2.1310    6.8113   -3.0349 H   0  0  0  0  0  0  0  0  0  0  0  0
    2.5617    7.8016   -4.4703 H   0  0  0  0  0  0  0  0  0  0  0  0
    1.0723    8.1726   -3.5372 H   0  0  0  0  0  0  0  0  0  0  0  0
   -6.7256    2.0330   -0.2766 C   0  0  0  0  0  0  0  0  0  0  0  0
   -7.1824    1.1039   -0.9322 O   0  0  0  0  0  0  0  0  0  0  0  0
   -7.5276    2.6077    0.8435 C   0  0  0  0  0  0  0  0  0  0  0  0
   -8.1775    3.4344    0.5145 H   0  0  0  0  0  0  0  0  0  0  0  0
   -8.2057    1.8676    1.2980 H   0  0  0  0  0  0  0  0  0  0  0  0
   -6.9411    3.0162    1.6819 H   0  0  0  0  0  0  0  0  0  0  0  0
   -5.4935    2.6382   -0.4627 N   0  0  0  0  0  0  0  0  0  0  0  0
   -4.5619    2.2388   -1.4845 C   0  0  2  0  0  0  0  0  0  0  0  0
   -3.1535    2.4674   -0.9521 C   0  0  0  0  0  0  0  0  0  0  0  0
   -2.8634    3.3945   -0.1987 O   0  0  0  0  0  0  0  0  0  0  0  0
   -4.7883    3.0138   -2.7732 C   0  0  0  0  0  0  0  0  0  0  0  0
   -5.2337    3.4049    0.1551 H   0  0  0  0  0  0  0  0  0  0  0  0
   -4.7192    1.1682   -1.6549 H   0  0  0  0  0  0  0  0  0  0  0  0
   -4.6352    4.0886   -2.6221 H   0  0  0  0  0  0  0  0  0  0  0  0
   -4.0976    2.6887   -3.5582 H   0  0  0  0  0  0  0  0  0  0  0  0
   -5.8111    2.8719   -3.1387 H   0  0  0  0  0  0  0  0  0  0  0  0
   -2.2466    1.5400   -1.4507 N   0  0  0  0  0  0  0  0  0  0  0  0
   -0.8424    1.5707   -1.1286 C   0  0  2  0  0  0  0  0  0  0  0  0
   -0.6681    2.1660    0.2671 C   0  0  0  0  0  0  0  0  0  0  0  0
    0.4283    2.2943    0.8083 O   0  0  0  0  0  0  0  0  0  0  0  0
   -0.0143    2.2838   -2.2003 C   0  0  0  0  0  0  0  0  0  0  0  0
   -0.0082    1.4380   -3.7995 S   0  0  0  0  0  0  0  0  0  0  0  0
   -2.5850    0.7815   -2.0381 H   0  0  0  0  0  0  0  0  0  0  0  0
   -0.5277    0.5207   -1.0823 H   0  0  0  0  0  0  0  0  0  0  0  0
   -0.3929    3.2974   -2.3674 H   0  0  0  0  0  0  0  0  0  0  0  0
    1.0269    2.3701   -1.8712 H   0  0  0  0  0  0  0  0  0  0  0  0
   -1.8811    2.5130    0.8450 N   0  0  0  0  0  0  0  0  0  0  0  0
   -1.9796    3.0733    2.1724 C   0  0  2  0  0  0  0  0  0  0  0  0
   -3.2918    2.6023    2.7855 C   0  0  0  0  0  0  0  0  0  0  0  0
   -4.3145    2.4252    2.1269 O   0  0  0  0  0  0  0  0  0  0  0  0
   -1.9097    4.5921    2.1386 C   0  0  0  0  0  0  0  0  0  0  0  0
   -2.7375    2.4126    0.3082 H   0  0  0  0  0  0  0  0  0  0  0  0
   -1.1405    2.6693    2.7493 H   0  0  0  0  0  0  0  0  0  0  0  0
   -2.7425    5.0150    1.5649 H   0  0  0  0  0  0  0  0  0  0  0  0
   -1.9558    5.0140    3.1480 H   0  0  0  0  0  0  0  0  0  0  0  0
   -0.9786    4.9290    1.6703 H   0  0  0  0  0  0  0  0  0  0  0  0
   -3.1981    2.4445    4.1612 N   0  0  0  0  0  0  0  0  0  0  0  0
   -4.3204    2.0464    4.9785 C   0  0  0  0  0  0  0  0  0  0  0  0
   -2.3008    2.5742    4.6191 H   0  0  0  0  0  0  0  0  0  0  0  0
   -4.8361    2.9419    5.3554 H   0  0  0  0  0  0  0  0  0  0  0  0
   -5.0189    1.4477    4.3754 H   0  0  0  0  0  0  0  0  0  0  0  0
   -3.9611    1.4459    5.8272 H   0  0  0  0  0  0  0  0  0  0  0  0
  1  3  1  0  0  0  0
  1  7  1  0  0  0  0
  1  2  2  0  0  0  0
 23 25  1  0  0  0  0
 23 29  1  0  0  0  0
 23 24  2  0  0  0  0
 50 51  1  0  0  0  0
 51 59  1  0  0  0  0
 51 52  2  0  0  0  0
  8  9  1  0  0  0  0
  9 17  1  0  0  0  0
  9 10  2  0  0  0  0
 30 31  1  0  0  0  0
 31 39  1  0  0  0  0
 31 32  2  0  0  0  0
 40 41  1  0  0  0  0
 41 49  1  0  0  0  0
 41 42  2  0  0  0  0
 50 53  1  0  0  0  0
 30 33  1  0  0  0  0
 59 60  1  0  0  0  0
 17 18  1  0  0  0  0
  8 11  1  0  0  0  0
 11 12  1  0  0  0  0
 40 43  1  0  0  0  0
 43 44  1  0  0  0  0
 49 50  1  0  0  0  0
  7  8  1  0  0  0  0
 29 30  1  0  0  0  0
 39 40  1  0  0  0  0
 12 44  1  0  0  0  0
  3  4  1  0  0  0  0
  3  5  1  0  0  0  0
  3  6  1  0  0  0  0
 25 26  1  0  0  0  0
 25 27  1  0  0  0  0
 25 28  1  0  0  0  0
 53 56  1  0  0  0  0
 53 57  1  0  0  0  0
 53 58  1  0  0  0  0
 33 36  1  0  0  0  0
 33 37  1  0  0  0  0
 33 38  1  0  0  0  0
 60 62  1  0  0  0  0
 60 63  1  0  0  0  0
 60 64  1  0  0  0  0
 18 20  1  0  0  0  0
 18 21  1  0  0  0  0
 18 22  1  0  0  0  0
 11 15  1  0  0  0  0
 11 16  1  0  0  0  0
 43 47  1  0  0  0  0
 43 48  1  0  0  0  0
 50 55  1  0  0  0  0
  8 14  1  0  0  0  0
 30 35  1  0  0  0  0
 40 46  1  0  0  0  0
 59 61  1  0  0  0  0
 17 19  1  0  0  0  0
  7 13  1  0  0  0  0
 29 34  1  0  0  0  0
 49 54  1  0  0  0  0
 39 45  1  0  0  0  0
M  END
$$$$

  -OEChem-05262214473D

 64 63  0     1  0  0  0  0  0999 V2000
    0.4870    4.0864   -8.8798 C   0  0  0  0  0  0  0  0  0  0  0  0
   -0.7023    4.2944   -9.0894 O   0  0  0  0  0  0  0  0  0  0  0  0
    1.3348    3.5066   -9.9631 C   0  0  0  0  0  0  0  0  0  0  0  0
    1.3528    2.4051   -9.9390 H   0  0  0  0  0  0  0  0  0  0  0  0
    0.9701    3.7698  -10.9689 H   0  0  0  0  0  0  0  0  0  0  0  0
    2.3927    3.8140   -9.9491 H   0  0  0  0  0  0  0  0  0  0  0  0
    1.1677    4.3397   -7.7015 N   0  0  0  0  0  0  0  0  0  0  0  0
    0.5414    4.8999   -6.5309 C   0  0  2  0  0  0  0  0  0  0  0  0
    1.5435    5.8073   -5.8202 C   0  0  0  0  0  0  0  0  0  0  0  0
    2.7187    5.9079   -6.1668 O   0  0  0  0  0  0  0  0  0  0  0  0
   -0.0570    3.8255   -5.6196 C   0  0  0  0  0  0  0  0  0  0  0  0
    1.1788    2.6793   -4.9258 S   0  0  0  0  0  0  0  0  0  0  0  0
    2.1602    4.1192   -7.6598 H   0  0  0  0  0  0  0  0  0  0  0  0
   -0.2712    5.5343   -6.9065 H   0  0  0  0  0  0  0  0  0  0  0  0
   -0.5854    4.2857   -4.7783 H   0  0  0  0  0  0  0  0  0  0  0  0
   -0.7838    3.2253   -6.1777 H   0  0  0  0  0  0  0  0  0  0  0  0
    0.9775    6.4705   -4.7407 N   0  0  0  0  0  0  0  0  0  0  0  0
    1.7305    7.3673   -3.8954 C   0  0  0  0  0  0  0  0  0  0  0  0
   -0.0145    6.3618   -4.5514 H   0  0  0  0  0  0  0  0  0  0  0  0
    2.1310    6.8113   -3.0349 H   0  0  0  0  0  0  0  0  0  0  0  0
    2.5617    7.8016   -4.4703 H   0  0  0  0  0  0  0  0  0  0  0  0
    1.0723    8.1726   -3.5372 H   0  0  0  0  0  0  0  0  0  0  0  0
   -6.7256    2.0330   -0.2766 C   0  0  0  0  0  0  0  0  0  0  0  0
   -7.1824    1.1039   -0.9322 O   0  0  0  0  0  0  0  0  0  0  0  0
   -7.5276    2.6077    0.8435 C   0  0  0  0  0  0  0  0  0  0  0  0
   -8.1775    3.4344    0.5145 H   0  0  0  0  0  0  0  0  0  0  0  0
   -8.2057    1.8676    1.2980 H   0  0  0  0  0  0  0  0  0  0  0  0
   -6.9411    3.0162    1.6819 H   0  0  0  0  0  0  0  0  0  0  0  0
   -5.4935    2.6382   -0.4627 N   0  0  0  0  0  0  0  0  0  0  0  0
   -4.5619    2.2388   -1.4845 C   0  0  2  0  0  0  0  0  0  0  0  0
   -3.1535    2.4674   -0.9521 C   0  0  0  0  0  0  0  0  0  0  0  0
   -2.8634    3.3945   -0.1987 O   0  0  0  0  0  0  0  0  0  0  0  0
   -4.7883    3.0138   -2.7732 C   0  0  0  0  0  0  0  0  0  0  0  0
   -5.2337    3.4049    0.1551 H   0  0  0  0  0  0  0  0  0  0  0  0
   -4.7192    1.1682   -1.6549 H   0  0  0  0  0  0  0  0  0  0  0  0
   -4.6352    4.0886   -2.6221 H   0  0  0  0  0  0  0  0  0  0  0  0
   -4.0976    2.6887   -3.5582 H   0  0  0  0  0  0  0  0  0  0  0  0
   -5.8111    2.8719   -3.1387 H   0  0  0  0  0  0  0  0  0  0  0  0
   -2.2466    1.5400   -1.4507 N   0  0  0  0  0  0  0  0  0  0  0  0
   -0.8424    1.5707   -1.1286 C   0  0  2  0  0  0  0  0  0  0  0  0
   -0.6681    2.1660    0.2671 C   0  0  0  0  0  0  0  0  0  0  0  0
    0.4178    2.5421    0.7039 O   0  0  0  0  0  0  0  0  0  0  0  0
   -0.0143    2.2838   -2.2003 C   0  0  0  0  0  0  0  0  0  0  0  0
   -0.0082    1.4380   -3.7995 S   0  0  0  0  0  0  0  0  0  0  0  0
   -2.5850    0.7815   -2.0381 H   0  0  0  0  0  0  0  0  0  0  0  0
   -0.5277    0.5207   -1.0823 H   0  0  0  0  0  0  0  0  0  0  0  0
   -0.3929    3.2974   -2.3674 H   0  0  0  0  0  0  0  0  0  0  0  0
    1.0269    2.3701   -1.8712 H   0  0  0  0  0  0  0  0  0  0  0  0
   -1.8615    2.2042    0.9742 N   0  0  0  0  0  0  0  0  0  0  0  0
   -1.9497    2.7018    2.3272 C   0  0  2  0  0  0  0  0  0  0  0  0
   -3.0431    1.9214    3.0449 C   0  0  0  0  0  0  0  0  0  0  0  0
   -4.0586    1.5174    2.4821 O   0  0  0  0  0  0  0  0  0  0  0  0
   -2.2426    4.1939    2.3500 C   0  0  0  0  0  0  0  0  0  0  0  0
   -2.7216    1.9121    0.5196 H   0  0  0  0  0  0  0  0  0  0  0  0
   -0.9837    2.4992    2.8023 H   0  0  0  0  0  0  0  0  0  0  0  0
   -3.2067    4.4163    1.8782 H   0  0  0  0  0  0  0  0  0  0  0  0
   -2.2809    4.5751    3.3758 H   0  0  0  0  0  0  0  0  0  0  0  0
   -1.4709    4.7509    1.8078 H   0  0  0  0  0  0  0  0  0  0  0  0
   -2.7718    1.7665    4.3972 N   0  0  0  0  0  0  0  0  0  0  0  0
   -3.6775    1.0985    5.3025 C   0  0  0  0  0  0  0  0  0  0  0  0
   -1.8873    2.0981    4.7705 H   0  0  0  0  0  0  0  0  0  0  0  0
   -4.3469    1.8388    5.7648 H   0  0  0  0  0  0  0  0  0  0  0  0
   -4.2748    0.3614    4.7458 H   0  0  0  0  0  0  0  0  0  0  0  0
   -3.1005    0.5861    6.0864 H   0  0  0  0  0  0  0  0  0  0  0  0
  1  3  1  0  0  0  0
  1  7  1  0  0  0  0
  1  2  2  0  0  0  0
 23 25  1  0  0  0  0
 23 29  1  0  0  0  0
 23 24  2  0  0  0  0
 50 51  1  0  0  0  0
 51 59  1  0  0  0  0
 51 52  2  0  0  0  0
  8  9  1  0  0  0  0
  9 17  1  0  0  0  0
  9 10  2  0  0  0  0
 30 31  1  0  0  0  0
 31 39  1  0  0  0  0
 31 32  2  0  0  0  0
 40 41  1  0  0  0  0
 41 49  1  0  0  0  0
 41 42  2  0  0  0  0
 50 53  1  0  0  0  0
 30 33  1  0  0  0  0
 59 60  1  0  0  0  0
 17 18  1  0  0  0  0
  8 11  1  0  0  0  0
 11 12  1  0  0  0  0
 40 43  1  0  0  0  0
 43 44  1  0  0  0  0
 49 50  1  0  0  0  0
  7  8  1  0  0  0  0
 29 30  1  0  0  0  0
 39 40  1  0  0  0  0
 12 44  1  0  0  0  0
  3  4  1  0  0  0  0
  3  5  1  0  0  0  0
  3  6  1  0  0  0  0
 25 26  1  0  0  0  0
 25 27  1  0  0  0  0
 25 28  1  0  0  0  0
 53 56  1  0  0  0  0
 53 57  1  0  0  0  0
 53 58  1  0  0  0  0
 33 36  1  0  0  0  0
 33 37  1  0  0  0  0
 33 38  1  0  0  0  0
 60 62  1  0  0  0  0
 60 63  1  0  0  0  0
 60 64  1  0  0  0  0
 18 20  1  0  0  0  0
 18 21  1  0  0  0  0
 18 22  1  0  0  0  0
 11 15  1  0  0  0  0
 11 16  1  0  0  0  0
 43 47  1  0  0  0  0
 43 48  1  0  0  0  0
 50 55  1  0  0  0  0
  8 14  1  0  0  0  0
 30 35  1  0  0  0  0
 40 46  1  0  0  0  0
 59 61  1  0  0  0  0
 17 19  1  0  0  0  0
  7 13  1  0  0  0  0
 29 34  1  0  0  0  0
 49 54  1  0  0  0  0
 39 45  1  0  0  0  0
M  END
$$$$

  -OEChem-05262214473D

 64 63  0     1  0  0  0  0  0999 V2000
    0.4870    4.0864   -8.8798 C   0  0  0  0  0  0  0  0  0  0  0  0
   -0.7023    4.2944   -9.0894 O   0  0  0  0  0  0  0  0  0  0  0  0
    1.3348    3.5066   -9.9631 C   0  0  0  0  0  0  0  0  0  0  0  0
    1.3528    2.4051   -9.9390 H   0  0  0  0  0  0  0  0  0  0  0  0
    0.9701    3.7698  -10.9689 H   0  0  0  0  0  0  0  0  0  0  0  0
    2.3927    3.8140   -9.9491 H   0  0  0  0  0  0  0  0  0  0  0  0
    1.1677    4.3397   -7.7015 N   0  0  0  0  0  0  0  0  0  0  0  0
    0.5414    4.8999   -6.5309 C   0  0  2  0  0  0  0  0  0  0  0  0
    1.5435    5.8073   -5.8202 C   0  0  0  0  0  0  0  0  0  0  0  0
    2.7187    5.9079   -6.1668 O   0  0  0  0  0  0  0  0  0  0  0  0
   -0.0570    3.8255   -5.6196 C   0  0  0  0  0  0  0  0  0  0  0  0
    1.1788    2.6793   -4.9258 S   0  0  0  0  0  0  0  0  0  0  0  0
    2.1602    4.1192   -7.6598 H   0  0  0  0  0  0  0  0  0  0  0  0
   -0.2712    5.5343   -6.9065 H   0  0  0  0  0  0  0  0  0  0  0  0
   -0.5854    4.2857   -4.7783 H   0  0  0  0  0  0  0  0  0  0  0  0
   -0.7838    3.2253   -6.1777 H   0  0  0  0  0  0  0  0  0  0  0  0
    0.9775    6.4705   -4.7407 N   0  0  0  0  0  0  0  0  0  0  0  0
    1.7305    7.3673   -3.8954 C   0  0  0  0  0  0  0  0  0  0  0  0
   -0.0145    6.3618   -4.5514 H   0  0  0  0  0  0  0  0  0  0  0  0
    2.1310    6.8113   -3.0349 H   0  0  0  0  0  0  0  0  0  0  0  0
    2.5617    7.8016   -4.4703 H   0  0  0  0  0  0  0  0  0  0  0  0
    1.0723    8.1726   -3.5372 H   0  0  0  0  0  0  0  0  0  0  0  0
   -6.7256    2.0330   -0.2766 C   0  0  0  0  0  0  0  0  0  0  0  0
   -7.1824    1.1039   -0.9322 O   0  0  0  0  0  0  0  0  0  0  0  0
   -7.5276    2.6077    0.8435 C   0  0  0  0  0  0  0  0  0  0  0  0
   -8.1775    3.4344    0.5145 H   0  0  0  0  0  0  0  0  0  0  0  0
   -8.2057    1.8676    1.2980 H   0  0  0  0  0  0  0  0  0  0  0  0
   -6.9411    3.0162    1.6819 H   0  0  0  0  0  0  0  0  0  0  0  0
   -5.4935    2.6382   -0.4627 N   0  0  0  0  0  0  0  0  0  0  0  0
   -4.5619    2.2388   -1.4845 C   0  0  2  0  0  0  0  0  0  0  0  0
   -3.1535    2.4674   -0.9521 C   0  0  0  0  0  0  0  0  0  0  0  0
   -2.8634    3.3945   -0.1987 O   0  0  0  0  0  0  0  0  0  0  0  0
   -4.7883    3.0138   -2.7732 C   0  0  0  0  0  0  0  0  0  0  0  0
   -5.2337    3.4049    0.1551 H   0  0  0  0  0  0  0  0  0  0  0  0
   -4.7192    1.1682   -1.6549 H   0  0  0  0  0  0  0  0  0  0  0  0
   -4.6352    4.0886   -2.6221 H   0  0  0  0  0  0  0  0  0  0  0  0
   -4.0976    2.6887   -3.5582 H   0  0  0  0  0  0  0  0  0  0  0  0
   -5.8111    2.8719   -3.1387 H   0  0  0  0  0  0  0  0  0  0  0  0
   -2.2466    1.5400   -1.4507 N   0  0  0  0  0  0  0  0  0  0  0  0
   -0.8424    1.5707   -1.1286 C   0  0  2  0  0  0  0  0  0  0  0  0
   -0.6681    2.1660    0.2671 C   0  0  0  0  0  0  0  0  0  0  0  0
    0.3385    2.7821    0.6114 O   0  0  0  0  0  0  0  0  0  0  0  0
   -0.0143    2.2838   -2.2003 C   0  0  0  0  0  0  0  0  0  0  0  0
   -0.0082    1.4380   -3.7995 S   0  0  0  0  0  0  0  0  0  0  0  0
   -2.5850    0.7815   -2.0381 H   0  0  0  0  0  0  0  0  0  0  0  0
   -0.5277    0.5207   -1.0823 H   0  0  0  0  0  0  0  0  0  0  0  0
   -0.3929    3.2974   -2.3674 H   0  0  0  0  0  0  0  0  0  0  0  0
    1.0269    2.3701   -1.8712 H   0  0  0  0  0  0  0  0  0  0  0  0
   -1.7565    1.9067    1.0880 N   0  0  0  0  0  0  0  0  0  0  0  0
   -1.8174    2.3454    2.4627 C   0  0  2  0  0  0  0  0  0  0  0  0
   -2.6156    1.3148    3.2502 C   0  0  0  0  0  0  0  0  0  0  0  0
   -3.5608    0.6906    2.7726 O   0  0  0  0  0  0  0  0  0  0  0  0
   -2.4487    3.7243    2.5760 C   0  0  0  0  0  0  0  0  0  0  0  0
   -2.5665    1.4263    0.7075 H   0  0  0  0  0  0  0  0  0  0  0  0
   -0.7866    2.3703    2.8327 H   0  0  0  0  0  0  0  0  0  0  0  0
   -3.4819    3.7190    2.2100 H   0  0  0  0  0  0  0  0  0  0  0  0
   -2.4682    4.0675    3.6157 H   0  0  0  0  0  0  0  0  0  0  0  0
   -1.8905    4.4583    1.9850 H   0  0  0  0  0  0  0  0  0  0  0  0
   -2.1759    1.2054    4.5620 N   0  0  0  0  0  0  0  0  0  0  0  0
   -2.7996    0.3254    5.5226 C   0  0  0  0  0  0  0  0  0  0  0  0
   -1.3600    1.7315    4.8611 H   0  0  0  0  0  0  0  0  0  0  0  0
   -3.5722    0.8770    6.0783 H   0  0  0  0  0  0  0  0  0  0  0  0
   -3.2617   -0.5229    4.9965 H   0  0  0  0  0  0  0  0  0  0  0  0
   -2.0397   -0.0484    6.2246 H   0  0  0  0  0  0  0  0  0  0  0  0
  1  3  1  0  0  0  0
  1  7  1  0  0  0  0
  1  2  2  0  0  0  0
 23 25  1  0  0  0  0
 23 29  1  0  0  0  0
 23 24  2  0  0  0  0
 50 51  1  0  0  0  0
 51 59  1  0  0  0  0
 51 52  2  0  0  0  0
  8  9  1  0  0  0  0
  9 17  1  0  0  0  0
  9 10  2  0  0  0  0
 30 31  1  0  0  0  0
 31 39  1  0  0  0  0
 31 32  2  0  0  0  0
 40 41  1  0  0  0  0
 41 49  1  0  0  0  0
 41 42  2  0  0  0  0
 50 53  1  0  0  0  0
 30 33  1  0  0  0  0
 59 60  1  0  0  0  0
 17 18  1  0  0  0  0
  8 11  1  0  0  0  0
 11 12  1  0  0  0  0
 40 43  1  0  0  0  0
 43 44  1  0  0  0  0
 49 50  1  0  0  0  0
  7  8  1  0  0  0  0
 29 30  1  0  0  0  0
 39 40  1  0  0  0  0
 12 44  1  0  0  0  0
  3  4  1  0  0  0  0
  3  5  1  0  0  0  0
  3  6  1  0  0  0  0
 25 26  1  0  0  0  0
 25 27  1  0  0  0  0
 25 28  1  0  0  0  0
 53 56  1  0  0  0  0
 53 57  1  0  0  0  0
 53 58  1  0  0  0  0
 33 36  1  0  0  0  0
 33 37  1  0  0  0  0
 33 38  1  0  0  0  0
 60 62  1  0  0  0  0
 60 63  1  0  0  0  0
 60 64  1  0  0  0  0
 18 20  1  0  0  0  0
 18 21  1  0  0  0  0
 18 22  1  0  0  0  0
 11 15  1  0  0  0  0
 11 16  1  0  0  0  0
 43 47  1  0  0  0  0
 43 48  1  0  0  0  0
 50 55  1  0  0  0  0
  8 14  1  0  0  0  0
 30 35  1  0  0  0  0
 40 46  1  0  0  0  0
 59 61  1  0  0  0  0
 17 19  1  0  0  0  0
  7 13  1  0  0  0  0
 29 34  1  0  0  0  0
 49 54  1  0  0  0  0
 39 45  1  0  0  0  0
M  END
$$$$

  -OEChem-05262214473D

 64 63  0     1  0  0  0  0  0999 V2000
    0.4870    4.0864   -8.8798 C   0  0  0  0  0  0  0  0  0  0  0  0
   -0.7023    4.2944   -9.0894 O   0  0  0  0  0  0  0  0  0  0  0  0
    1.3348    3.5066   -9.9631 C   0  0  0  0  0  0  0  0  0  0  0  0
    1.3528    2.4051   -9.9390 H   0  0  0  0  0  0  0  0  0  0  0  0
    0.9701    3.7698  -10.9689 H   0  0  0  0  0  0  0  0  0  0  0  0
    2.3927    3.8140   -9.9491 H   0  0  0  0  0  0  0  0  0  0  0  0
    1.1677    4.3397   -7.7015 N   0  0  0  0  0  0  0  0  0  0  0  0
    0.5414    4.8999   -6.5309 C   0  0  2  0  0  0  0  0  0  0  0  0
    1.5435    5.8073   -5.8202 C   0  0  0  0  0  0  0  0  0  0  0  0
    2.7187    5.9079   -6.1668 O   0  0  0  0  0  0  0  0  0  0  0  0
   -0.0570    3.8255   -5.6196 C   0  0  0  0  0  0  0  0  0  0  0  0
    1.1788    2.6793   -4.9258 S   0  0  0  0  0  0  0  0  0  0  0  0
    2.1602    4.1192   -7.6598 H   0  0  0  0  0  0  0  0  0  0  0  0
   -0.2712    5.5343   -6.9065 H   0  0  0  0  0  0  0  0  0  0  0  0
   -0.5854    4.2857   -4.7783 H   0  0  0  0  0  0  0  0  0  0  0  0
   -0.7838    3.2253   -6.1777 H   0  0  0  0  0  0  0  0  0  0  0  0
    0.9775    6.4705   -4.7407 N   0  0  0  0  0  0  0  0  0  0  0  0
    1.7305    7.3673   -3.8954 C   0  0  0  0  0  0  0  0  0  0  0  0
   -0.0145    6.3618   -4.5514 H   0  0  0  0  0  0  0  0  0  0  0  0
    2.1310    6.8113   -3.0349 H   0  0  0  0  0  0  0  0  0  0  0  0
    2.5617    7.8016   -4.4703 H   0  0  0  0  0  0  0  0  0  0  0  0
    1.0723    8.1726   -3.5372 H   0  0  0  0  0  0  0  0  0  0  0  0
   -6.7256    2.0330   -0.2766 C   0  0  0  0  0  0  0  0  0  0  0  0
   -7.1824    1.1039   -0.9322 O   0  0  0  0  0  0  0  0  0  0  0  0
   -7.5276    2.6077    0.8435 C   0  0  0  0  0  0  0  0  0  0  0  0
   -8.1775    3.4344    0.5145 H   0  0  0  0  0  0  0  0  0  0  0  0
   -8.2057    1.8676    1.2980 H   0  0  0  0  0  0  0  0  0  0  0  0
   -6.9411    3.0162    1.6819 H   0  0  0  0  0  0  0  0  0  0  0  0
   -5.4935    2.6382   -0.4627 N   0  0  0  0  0  0  0  0  0  0  0  0
   -4.5619    2.2388   -1.4845 C   0  0  2  0  0  0  0  0  0  0  0  0
   -3.1535    2.4674   -0.9521 C   0  0  0  0  0  0  0  0  0  0  0  0
   -2.8634    3.3945   -0.1987 O   0  0  0  0  0  0  0  0  0  0  0  0
   -4.7883    3.0138   -2.7732 C   0  0  0  0  0  0  0  0  0  0  0  0
   -5.2337    3.4049    0.1551 H   0  0  0  0  0  0  0  0  0  0  0  0
   -4.7192    1.1682   -1.6549 H   0  0  0  0  0  0  0  0  0  0  0  0
   -4.6352    4.0886   -2.6221 H   0  0  0  0  0  0  0  0  0  0  0  0
   -4.0976    2.6887   -3.5582 H   0  0  0  0  0  0  0  0  0  0  0  0
   -5.8111    2.8719   -3.1387 H   0  0  0  0  0  0  0  0  0  0  0  0
   -2.2466    1.5400   -1.4507 N   0  0  0  0  0  0  0  0  0  0  0  0
   -0.8424    1.5707   -1.1286 C   0  0  2  0  0  0  0  0  0  0  0  0
   -0.6681    2.1660    0.2671 C   0  0  0  0  0  0  0  0  0  0  0  0
    0.1958    2.9979    0.5372 O   0  0  0  0  0  0  0  0  0  0  0  0
   -0.0143    2.2838   -2.2003 C   0  0  0  0  0  0  0  0  0  0  0  0
   -0.0082    1.4380   -3.7995 S   0  0  0  0  0  0  0  0  0  0  0  0
   -2.5850    0.7815   -2.0381 H   0  0  0  0  0  0  0  0  0  0  0  0
   -0.5277    0.5207   -1.0823 H   0  0  0  0  0  0  0  0  0  0  0  0
   -0.3929    3.2974   -2.3674 H   0  0  0  0  0  0  0  0  0  0  0  0
    1.0269    2.3701   -1.8712 H   0  0  0  0  0  0  0  0  0  0  0  0
   -1.5732    1.6409    1.1785 N   0  0  0  0  0  0  0  0  0  0  0  0
   -1.5916    2.0284    2.5697 C   0  0  2  0  0  0  0  0  0  0  0  0
   -2.0386    0.8239    3.3875 C   0  0  0  0  0  0  0  0  0  0  0  0
   -2.8552    0.0011    2.9786 O   0  0  0  0  0  0  0  0  0  0  0  0
   -2.5139    3.2152    2.8013 C   0  0  0  0  0  0  0  0  0  0  0  0
   -2.2828    0.9882    0.8590 H   0  0  0  0  0  0  0  0  0  0  0  0
   -0.5627    2.2916    2.8383 H   0  0  0  0  0  0  0  0  0  0  0  0
   -3.5493    2.9706    2.5376 H   0  0  0  0  0  0  0  0  0  0  0  0
   -2.5048    3.5258    3.8513 H   0  0  0  0  0  0  0  0  0  0  0  0
   -2.2086    4.0712    2.1898 H   0  0  0  0  0  0  0  0  0  0  0  0
   -1.4509    0.7996    4.6446 N   0  0  0  0  0  0  0  0  0  0  0  0
   -1.7465   -0.2202    5.6238 C   0  0  0  0  0  0  0  0  0  0  0  0
   -0.7549    1.4994    4.8845 H   0  0  0  0  0  0  0  0  0  0  0  0
   -2.5647    0.1219    6.2746 H   0  0  0  0  0  0  0  0  0  0  0  0
   -2.0487   -1.1448    5.1103 H   0  0  0  0  0  0  0  0  0  0  0  0
   -0.8510   -0.4146    6.2323 H   0  0  0  0  0  0  0  0  0  0  0  0
  1  3  1  0  0  0  0
  1  7  1  0  0  0  0
  1  2  2  0  0  0  0
 23 25  1  0  0  0  0
 23 29  1  0  0  0  0
 23 24  2  0  0  0  0
 50 51  1  0  0  0  0
 51 59  1  0  0  0  0
 51 52  2  0  0  0  0
  8  9  1  0  0  0  0
  9 17  1  0  0  0  0
  9 10  2  0  0  0  0
 30 31  1  0  0  0  0
 31 39  1  0  0  0  0
 31 32  2  0  0  0  0
 40 41  1  0  0  0  0
 41 49  1  0  0  0  0
 41 42  2  0  0  0  0
 50 53  1  0  0  0  0
 30 33  1  0  0  0  0
 59 60  1  0  0  0  0
 17 18  1  0  0  0  0
  8 11  1  0  0  0  0
 11 12  1  0  0  0  0
 40 43  1  0  0  0  0
 43 44  1  0  0  0  0
 49 50  1  0  0  0  0
  7  8  1  0  0  0  0
 29 30  1  0  0  0  0
 39 40  1  0  0  0  0
 12 44  1  0  0  0  0
  3  4  1  0  0  0  0
  3  5  1  0  0  0  0
  3  6  1  0  0  0  0
 25 26  1  0  0  0  0
 25 27  1  0  0  0  0
 25 28  1  0  0  0  0
 53 56  1  0  0  0  0
 53 57  1  0  0  0  0
 53 58  1  0  0  0  0
 33 36  1  0  0  0  0
 33 37  1  0  0  0  0
 33 38  1  0  0  0  0
 60 62  1  0  0  0  0
 60 63  1  0  0  0  0
 60 64  1  0  0  0  0
 18 20  1  0  0  0  0
 18 21  1  0  0  0  0
 18 22  1  0  0  0  0
 11 15  1  0  0  0  0
 11 16  1  0  0  0  0
 43 47  1  0  0  0  0
 43 48  1  0  0  0  0
 50 55  1  0  0  0  0
  8 14  1  0  0  0  0
 30 35  1  0  0  0  0
 40 46  1  0  0  0  0
 59 61  1  0  0  0  0
 17 19  1  0  0  0  0
  7 13  1  0  0  0  0
 29 34  1  0  0  0  0
 49 54  1  0  0  0  0
 39 45  1  0  0  0  0
M  END
$$$$

  -OEChem-05262214473D

 64 63  0     1  0  0  0  0  0999 V2000
    0.4870    4.0864   -8.8798 C   0  0  0  0  0  0  0  0  0  0  0  0
   -0.7023    4.2944   -9.0894 O   0  0  0  0  0  0  0  0  0  0  0  0
    1.3348    3.5066   -9.9631 C   0  0  0  0  0  0  0  0  0  0  0  0
    1.3528    2.4051   -9.9390 H   0  0  0  0  0  0  0  0  0  0  0  0
    0.9701    3.7698  -10.9689 H   0  0  0  0  0  0  0  0  0  0  0  0
    2.3927    3.8140   -9.9491 H   0  0  0  0  0  0  0  0  0  0  0  0
    1.1677    4.3397   -7.7015 N   0  0  0  0  0  0  0  0  0  0  0  0
    0.5414    4.8999   -6.5309 C   0  0  2  0  0  0  0  0  0  0  0  0
    1.5435    5.8073   -5.8202 C   0  0  0  0  0  0  0  0  0  0  0  0
    2.7187    5.9079   -6.1668 O   0  0  0  0  0  0  0  0  0  0  0  0
   -0.0570    3.8255   -5.6196 C   0  0  0  0  0  0  0  0  0  0  0  0
    1.1788    2.6793   -4.9258 S   0  0  0  0  0  0  0  0  0  0  0  0
    2.1602    4.1192   -7.6598 H   0  0  0  0  0  0  0  0  0  0  0  0
   -0.2712    5.5343   -6.9065 H   0  0  0  0  0  0  0  0  0  0  0  0
   -0.5854    4.2857   -4.7783 H   0  0  0  0  0  0  0  0  0  0  0  0
   -0.7838    3.2253   -6.1777 H   0  0  0  0  0  0  0  0  0  0  0  0
    0.9775    6.4705   -4.7407 N   0  0  0  0  0  0  0  0  0  0  0  0
    1.7305    7.3673   -3.8954 C   0  0  0  0  0  0  0  0  0  0  0  0
   -0.0145    6.3618   -4.5514 H   0  0  0  0  0  0  0  0  0  0  0  0
    2.1310    6.8113   -3.0349 H   0  0  0  0  0  0  0  0  0  0  0  0
    2.5617    7.8016   -4.4703 H   0  0  0  0  0  0  0  0  0  0  0  0
    1.0723    8.1726   -3.5372 H   0  0  0  0  0  0  0  0  0  0  0  0
   -6.7256    2.0330   -0.2766 C   0  0  0  0  0  0  0  0  0  0  0  0
   -7.1824    1.1039   -0.9322 O   0  0  0  0  0  0  0  0  0  0  0  0
   -7.5276    2.6077    0.8435 C   0  0  0  0  0  0  0  0  0  0  0  0
   -8.1775    3.4344    0.5145 H   0  0  0  0  0  0  0  0  0  0  0  0
   -8.2057    1.8676    1.2980 H   0  0  0  0  0  0  0  0  0  0  0  0
   -6.9411    3.0162    1.6819 H   0  0  0  0  0  0  0  0  0  0  0  0
   -5.4935    2.6382   -0.4627 N   0  0  0  0  0  0  0  0  0  0  0  0
   -4.5619    2.2388   -1.4845 C   0  0  2  0  0  0  0  0  0  0  0  0
   -3.1535    2.4674   -0.9521 C   0  0  0  0  0  0  0  0  0  0  0  0
   -2.8634    3.3945   -0.1987 O   0  0  0  0  0  0  0  0  0  0  0  0
   -4.7883    3.0138   -2.7732 C   0  0  0  0  0  0  0  0  0  0  0  0
   -5.2337    3.4049    0.1551 H   0  0  0  0  0  0  0  0  0  0  0  0
   -4.7192    1.1682   -1.6549 H   0  0  0  0  0  0  0  0  0  0  0  0
   -4.6352    4.0886   -2.6221 H   0  0  0  0  0  0  0  0  0  0  0  0
   -4.0976    2.6887   -3.5582 H   0  0  0  0  0  0  0  0  0  0  0  0
   -5.8111    2.8719   -3.1387 H   0  0  0  0  0  0  0  0  0  0  0  0
   -2.2466    1.5400   -1.4507 N   0  0  0  0  0  0  0  0  0  0  0  0
   -0.8424    1.5707   -1.1286 C   0  0  2  0  0  0  0  0  0  0  0  0
   -0.6681    2.1660    0.2671 C   0  0  0  0  0  0  0  0  0  0  0  0
   -0.0006    3.1748    0.4863 O   0  0  0  0  0  0  0  0  0  0  0  0
   -0.0143    2.2838   -2.2003 C   0  0  0  0  0  0  0  0  0  0  0  0
   -0.0082    1.4380   -3.7995 S   0  0  0  0  0  0  0  0  0  0  0  0
   -2.5850    0.7815   -2.0381 H   0  0  0  0  0  0  0  0  0  0  0  0
   -0.5277    0.5207   -1.0823 H   0  0  0  0  0  0  0  0  0  0  0  0
   -0.3929    3.2974   -2.3674 H   0  0  0  0  0  0  0  0  0  0  0  0
    1.0269    2.3701   -1.8712 H   0  0  0  0  0  0  0  0  0  0  0  0
   -1.3242    1.4248    1.2396 N   0  0  0  0  0  0  0  0  0  0  0  0
   -1.2878    1.7725    2.6409 C   0  0  2  0  0  0  0  0  0  0  0  0
   -1.3513    0.4822    3.4475 C   0  0  0  0  0  0  0  0  0  0  0  0
   -1.9897   -0.5041    3.0860 O   0  0  0  0  0  0  0  0  0  0  0  0
   -2.4338    2.7015    3.0104 C   0  0  0  0  0  0  0  0  0  0  0  0
   -1.8899    0.6276    0.9637 H   0  0  0  0  0  0  0  0  0  0  0  0
   -0.3273    2.2683    2.8188 H   0  0  0  0  0  0  0  0  0  0  0  0
   -3.4044    2.2220    2.8388 H   0  0  0  0  0  0  0  0  0  0  0  0
   -2.3883    2.9870    4.0666 H   0  0  0  0  0  0  0  0  0  0  0  0
   -2.4038    3.6160    2.4083 H   0  0  0  0  0  0  0  0  0  0  0  0
   -0.6464    0.5766    4.6393 N   0  0  0  0  0  0  0  0  0  0  0  0
   -0.5901   -0.5011    5.5992 C   0  0  0  0  0  0  0  0  0  0  0  0
   -0.1132    1.4177    4.8392 H   0  0  0  0  0  0  0  0  0  0  0  0
   -1.3932   -0.3750    6.3402 H   0  0  0  0  0  0  0  0  0  0  0  0
   -0.7185   -1.4620    5.0794 H   0  0  0  0  0  0  0  0  0  0  0  0
    0.3845   -0.4873    6.1090 H   0  0  0  0  0  0  0  0  0  0  0  0
  1  3  1  0  0  0  0
  1  7  1  0  0  0  0
  1  2  2  0  0  0  0
 23 25  1  0  0  0  0
 23 29  1  0  0  0  0
 23 24  2  0  0  0  0
 50 51  1  0  0  0  0
 51 59  1  0  0  0  0
 51 52  2  0  0  0  0
  8  9  1  0  0  0  0
  9 17  1  0  0  0  0
  9 10  2  0  0  0  0
 30 31  1  0  0  0  0
 31 39  1  0  0  0  0
 31 32  2  0  0  0  0
 40 41  1  0  0  0  0
 41 49  1  0  0  0  0
 41 42  2  0  0  0  0
 50 53  1  0  0  0  0
 30 33  1  0  0  0  0
 59 60  1  0  0  0  0
 17 18  1  0  0  0  0
  8 11  1  0  0  0  0
 11 12  1  0  0  0  0
 40 43  1  0  0  0  0
 43 44  1  0  0  0  0
 49 50  1  0  0  0  0
  7  8  1  0  0  0  0
 29 30  1  0  0  0  0
 39 40  1  0  0  0  0
 12 44  1  0  0  0  0
  3  4  1  0  0  0  0
  3  5  1  0  0  0  0
  3  6  1  0  0  0  0
 25 26  1  0  0  0  0
 25 27  1  0  0  0  0
 25 28  1  0  0  0  0
 53 56  1  0  0  0  0
 53 57  1  0  0  0  0
 53 58  1  0  0  0  0
 33 36  1  0  0  0  0
 33 37  1  0  0  0  0
 33 38  1  0  0  0  0
 60 62  1  0  0  0  0
 60 63  1  0  0  0  0
 60 64  1  0  0  0  0
 18 20  1  0  0  0  0
 18 21  1  0  0  0  0
 18 22  1  0  0  0  0
 11 15  1  0  0  0  0
 11 16  1  0  0  0  0
 43 47  1  0  0  0  0
 43 48  1  0  0  0  0
 50 55  1  0  0  0  0
  8 14  1  0  0  0  0
 30 35  1  0  0  0  0
 40 46  1  0  0  0  0
 59 61  1  0  0  0  0
 17 19  1  0  0  0  0
  7 13  1  0  0  0  0
 29 34  1  0  0  0  0
 49 54  1  0  0  0  0
 39 45  1  0  0  0  0
M  END
$$$$

  -OEChem-05262214473D

 64 63  0     1  0  0  0  0  0999 V2000
    0.4870    4.0864   -8.8798 C   0  0  0  0  0  0  0  0  0  0  0  0
   -0.7023    4.2944   -9.0894 O   0  0  0  0  0  0  0  0  0  0  0  0
    1.3348    3.5066   -9.9631 C   0  0  0  0  0  0  0  0  0  0  0  0
    1.3528    2.4051   -9.9390 H   0  0  0  0  0  0  0  0  0  0  0  0
    0.9701    3.7698  -10.9689 H   0  0  0  0  0  0  0  0  0  0  0  0
    2.3927    3.8140   -9.9491 H   0  0  0  0  0  0  0  0  0  0  0  0
    1.1677    4.3397   -7.7015 N   0  0  0  0  0  0  0  0  0  0  0  0
    0.5414    4.8999   -6.5309 C   0  0  2  0  0  0  0  0  0  0  0  0
    1.5435    5.8073   -5.8202 C   0  0  0  0  0  0  0  0  0  0  0  0
    2.7187    5.9079   -6.1668 O   0  0  0  0  0  0  0  0  0  0  0  0
   -0.0570    3.8255   -5.6196 C   0  0  0  0  0  0  0  0  0  0  0  0
    1.1788    2.6793   -4.9258 S   0  0  0  0  0  0  0  0  0  0  0  0
    2.1602    4.1192   -7.6598 H   0  0  0  0  0  0  0  0  0  0  0  0
   -0.2712    5.5343   -6.9065 H   0  0  0  0  0  0  0  0  0  0  0  0
   -0.5854    4.2857   -4.7783 H   0  0  0  0  0  0  0  0  0  0  0  0
   -0.7838    3.2253   -6.1777 H   0  0  0  0  0  0  0  0  0  0  0  0
    0.9775    6.4705   -4.7407 N   0  0  0  0  0  0  0  0  0  0  0  0
    1.7305    7.3673   -3.8954 C   0  0  0  0  0  0  0  0  0  0  0  0
   -0.0145    6.3618   -4.5514 H   0  0  0  0  0  0  0  0  0  0  0  0
    2.1310    6.8113   -3.0349 H   0  0  0  0  0  0  0  0  0  0  0  0
    2.5617    7.8016   -4.4703 H   0  0  0  0  0  0  0  0  0  0  0  0
    1.0723    8.1726   -3.5372 H   0  0  0  0  0  0  0  0  0  0  0  0
   -6.7256    2.0330   -0.2766 C   0  0  0  0  0  0  0  0  0  0  0  0
   -7.1824    1.1039   -0.9322 O   0  0  0  0  0  0  0  0  0  0  0  0
   -7.5276    2.6077    0.8435 C   0  0  0  0  0  0  0  0  0  0  0  0
   -8.1775    3.4344    0.5145 H   0  0  0  0  0  0  0  0  0  0  0  0
   -8.2057    1.8676    1.2980 H   0  0  0  0  0  0  0  0  0  0  0  0
   -6.9411    3.0162    1.6819 H   0  0  0  0  0  0  0  0  0  0  0  0
   -5.4935    2.6382   -0.4627 N   0  0  0  0  0  0  0  0  0  0  0  0
   -4.5619    2.2388   -1.4845 C   0  0  2  0  0  0  0  0  0  0  0  0
   -3.1535    2.4674   -0.9521 C   0  0  0  0  0  0  0  0  0  0  0  0
   -2.8634    3.3945   -0.1987 O   0  0  0  0  0  0  0  0  0  0  0  0
   -4.7883    3.0138   -2.7732 C   0  0  0  0  0  0  0  0  0  0  0  0
   -5.2337    3.4049    0.1551 H   0  0  0  0  0  0  0  0  0  0  0  0
   -4.7192    1.1682   -1.6549 H   0  0  0  0  0  0  0  0  0  0  0  0
   -4.6352    4.0886   -2.6221 H   0  0  0  0  0  0  0  0  0  0  0  0
   -4.0976    2.6887   -3.5582 H   0  0  0  0  0  0  0  0  0  0  0  0
   -5.8111    2.8719   -3.1387 H   0  0  0  0  0  0  0  0  0  0  0  0
   -2.2466    1.5400   -1.4507 N   0  0  0  0  0  0  0  0  0  0  0  0
   -0.8424    1.5707   -1.1286 C   0  0  2  0  0  0  0  0  0  0  0  0
   -0.6681    2.1660    0.2671 C   0  0  0  0  0  0  0  0  0  0  0  0
   -0.2372    3.3008    0.4621 O   0  0  0  0  0  0  0  0  0  0  0  0
   -0.0143    2.2838   -2.2003 C   0  0  0  0  0  0  0  0  0  0  0  0
   -0.0082    1.4380   -3.7995 S   0  0  0  0  0  0  0  0  0  0  0  0
   -2.5850    0.7815   -2.0381 H   0  0  0  0  0  0  0  0  0  0  0  0
   -0.5277    0.5207   -1.0823 H   0  0  0  0  0  0  0  0  0  0  0  0
   -0.3929    3.2974   -2.3674 H   0  0  0  0  0  0  0  0  0  0  0  0
    1.0269    2.3701   -1.8712 H   0  0  0  0  0  0  0  0  0  0  0  0
   -1.0264    1.2731    1.2671 N   0  0  0  0  0  0  0  0  0  0  0  0
   -0.9266    1.5951    2.6714 C   0  0  2  0  0  0  0  0  0  0  0  0
   -0.6005    0.3129    3.4259 C   0  0  0  0  0  0  0  0  0  0  0  0
   -1.0234   -0.7905    3.0875 O   0  0  0  0  0  0  0  0  0  0  0  0
   -2.2137    2.2180    3.1891 C   0  0  0  0  0  0  0  0  0  0  0  0
   -1.4146    0.3691    1.0146 H   0  0  0  0  0  0  0  0  0  0  0  0
   -0.0963    2.3021    2.7756 H   0  0  0  0  0  0  0  0  0  0  0  0
   -3.0570    1.5243    3.0930 H   0  0  0  0  0  0  0  0  0  0  0  0
   -2.1266    2.4877    4.2468 H   0  0  0  0  0  0  0  0  0  0  0  0
   -2.4625    3.1237    2.6256 H   0  0  0  0  0  0  0  0  0  0  0  0
    0.1830    0.5516    4.5463 N   0  0  0  0  0  0  0  0  0  0  0  0
    0.5909   -0.4982    5.4505 C   0  0  0  0  0  0  0  0  0  0  0  0
    0.5215    1.4919    4.7283 H   0  0  0  0  0  0  0  0  0  0  0  0
   -0.1375   -0.5799    6.2708 H   0  0  0  0  0  0  0  0  0  0  0  0
    0.6383   -1.4529    4.9061 H   0  0  0  0  0  0  0  0  0  0  0  0
    1.5827   -0.2617    5.8632 H   0  0  0  0  0  0  0  0  0  0  0  0
  1  3  1  0  0  0  0
  1  7  1  0  0  0  0
  1  2  2  0  0  0  0
 23 25  1  0  0  0  0
 23 29  1  0  0  0  0
 23 24  2  0  0  0  0
 50 51  1  0  0  0  0
 51 59  1  0  0  0  0
 51 52  2  0  0  0  0
  8  9  1  0  0  0  0
  9 17  1  0  0  0  0
  9 10  2  0  0  0  0
 30 31  1  0  0  0  0
 31 39  1  0  0  0  0
 31 32  2  0  0  0  0
 40 41  1  0  0  0  0
 41 49  1  0  0  0  0
 41 42  2  0  0  0  0
 50 53  1  0  0  0  0
 30 33  1  0  0  0  0
 59 60  1  0  0  0  0
 17 18  1  0  0  0  0
  8 11  1  0  0  0  0
 11 12  1  0  0  0  0
 40 43  1  0  0  0  0
 43 44  1  0  0  0  0
 49 50  1  0  0  0  0
  7  8  1  0  0  0  0
 29 30  1  0  0  0  0
 39 40  1  0  0  0  0
 12 44  1  0  0  0  0
  3  4  1  0  0  0  0
  3  5  1  0  0  0  0
  3  6  1  0  0  0  0
 25 26  1  0  0  0  0
 25 27  1  0  0  0  0
 25 28  1  0  0  0  0
 53 56  1  0  0  0  0
 53 57  1  0  0  0  0
 53 58  1  0  0  0  0
 33 36  1  0  0  0  0
 33 37  1  0  0  0  0
 33 38  1  0  0  0  0
 60 62  1  0  0  0  0
 60 63  1  0  0  0  0
 60 64  1  0  0  0  0
 18 20  1  0  0  0  0
 18 21  1  0  0  0  0
 18 22  1  0  0  0  0
 11 15  1  0  0  0  0
 11 16  1  0  0  0  0
 43 47  1  0  0  0  0
 43 48  1  0  0  0  0
 50 55  1  0  0  0  0
  8 14  1  0  0  0  0
 30 35  1  0  0  0  0
 40 46  1  0  0  0  0
 59 61  1  0  0  0  0
 17 19  1  0  0  0  0
  7 13  1  0  0  0  0
 29 34  1  0  0  0  0
 49 54  1  0  0  0  0
 39 45  1  0  0  0  0
M  END
$$$$

  -OEChem-05262214473D

 64 63  0     1  0  0  0  0  0999 V2000
    0.4870    4.0864   -8.8798 C   0  0  0  0  0  0  0  0  0  0  0  0
   -0.7023    4.2944   -9.0894 O   0  0  0  0  0  0  0  0  0  0  0  0
    1.3348    3.5066   -9.9631 C   0  0  0  0  0  0  0  0  0  0  0  0
    1.3528    2.4051   -9.9390 H   0  0  0  0  0  0  0  0  0  0  0  0
    0.9701    3.7698  -10.9689 H   0  0  0  0  0  0  0  0  0  0  0  0
    2.3927    3.8140   -9.9491 H   0  0  0  0  0  0  0  0  0  0  0  0
    1.1677    4.3397   -7.7015 N   0  0  0  0  0  0  0  0  0  0  0  0
    0.5414    4.8999   -6.5309 C   0  0  2  0  0  0  0  0  0  0  0  0
    1.5435    5.8073   -5.8202 C   0  0  0  0  0  0  0  0  0  0  0  0
    2.7187    5.9079   -6.1668 O   0  0  0  0  0  0  0  0  0  0  0  0
   -0.0570    3.8255   -5.6196 C   0  0  0  0  0  0  0  0  0  0  0  0
    1.1788    2.6793   -4.9258 S   0  0  0  0  0  0  0  0  0  0  0  0
    2.1602    4.1192   -7.6598 H   0  0  0  0  0  0  0  0  0  0  0  0
   -0.2712    5.5343   -6.9065 H   0  0  0  0  0  0  0  0  0  0  0  0
   -0.5854    4.2857   -4.7783 H   0  0  0  0  0  0  0  0  0  0  0  0
   -0.7838    3.2253   -6.1777 H   0  0  0  0  0  0  0  0  0  0  0  0
    0.9775    6.4705   -4.7407 N   0  0  0  0  0  0  0  0  0  0  0  0
    1.7305    7.3673   -3.8954 C   0  0  0  0  0  0  0  0  0  0  0  0
   -0.0145    6.3618   -4.5514 H   0  0  0  0  0  0  0  0  0  0  0  0
    2.1310    6.8113   -3.0349 H   0  0  0  0  0  0  0  0  0  0  0  0
    2.5617    7.8016   -4.4703 H   0  0  0  0  0  0  0  0  0  0  0  0
    1.0723    8.1726   -3.5372 H   0  0  0  0  0  0  0  0  0  0  0  0
   -6.7256    2.0330   -0.2766 C   0  0  0  0  0  0  0  0  0  0  0  0
   -7.1824    1.1039   -0.9322 O   0  0  0  0  0  0  0  0  0  0  0  0
   -7.5276    2.6077    0.8435 C   0  0  0  0  0  0  0  0  0  0  0  0
   -8.1775    3.4344    0.5145 H   0  0  0  0  0  0  0  0  0  0  0  0
   -8.2057    1.8676    1.2980 H   0  0  0  0  0  0  0  0  0  0  0  0
   -6.9411    3.0162    1.6819 H   0  0  0  0  0  0  0  0  0  0  0  0
   -5.4935    2.6382   -0.4627 N   0  0  0  0  0  0  0  0  0  0  0  0
   -4.5619    2.2388   -1.4845 C   0  0  2  0  0  0  0  0  0  0  0  0
   -3.1535    2.4674   -0.9521 C   0  0  0  0  0  0  0  0  0  0  0  0
   -2.8634    3.3945   -0.1987 O   0  0  0  0  0  0  0  0  0  0  0  0
   -4.7883    3.0138   -2.7732 C   0  0  0  0  0  0  0  0  0  0  0  0
   -5.2337    3.4049    0.1551 H   0  0  0  0  0  0  0  0  0  0  0  0
   -4.7192    1.1682   -1.6549 H   0  0  0  0  0  0  0  0  0  0  0  0
   -4.6352    4.0886   -2.6221 H   0  0  0  0  0  0  0  0  0  0  0  0
   -4.0976    2.6887   -3.5582 H   0  0  0  0  0  0  0  0  0  0  0  0
   -5.8111    2.8719   -3.1387 H   0  0  0  0  0  0  0  0  0  0  0  0
   -2.2466    1.5400   -1.4507 N   0  0  0  0  0  0  0  0  0  0  0  0
   -0.8424    1.5707   -1.1286 C   0  0  2  0  0  0  0  0  0  0  0  0
   -0.6681    2.1660    0.2671 C   0  0  0  0  0  0  0  0  0  0  0  0
   -0.4980    3.3671    0.4663 O   0  0  0  0  0  0  0  0  0  0  0  0
   -0.0143    2.2838   -2.2003 C   0  0  0  0  0  0  0  0  0  0  0  0
   -0.0082    1.4380   -3.7995 S   0  0  0  0  0  0  0  0  0  0  0  0
   -2.5850    0.7815   -2.0381 H   0  0  0  0  0  0  0  0  0  0  0  0
   -0.5277    0.5207   -1.0823 H   0  0  0  0  0  0  0  0  0  0  0  0
   -0.3929    3.2974   -2.3674 H   0  0  0  0  0  0  0  0  0  0  0  0
    1.0269    2.3701   -1.8712 H   0  0  0  0  0  0  0  0  0  0  0  0
   -0.7001    1.1962    1.2591 N   0  0  0  0  0  0  0  0  0  0  0  0
   -0.5327    1.5082    2.6593 C   0  0  2  0  0  0  0  0  0  0  0  0
    0.1626    0.3276    3.3243 C   0  0  0  0  0  0  0  0  0  0  0  0
   -0.0221   -0.8388    2.9830 O   0  0  0  0  0  0  0  0  0  0  0  0
   -1.8688    1.7977    3.3253 C   0  0  0  0  0  0  0  0  0  0  0  0
   -0.8891    0.2303    1.0081 H   0  0  0  0  0  0  0  0  0  0  0  0
    0.1145    2.3906    2.7115 H   0  0  0  0  0  0  0  0  0  0  0  0
   -2.5307    0.9251    3.2829 H   0  0  0  0  0  0  0  0  0  0  0  0
   -1.7375    2.0620    4.3798 H   0  0  0  0  0  0  0  0  0  0  0  0
   -2.3809    2.6279    2.8269 H   0  0  0  0  0  0  0  0  0  0  0  0
    0.9807    0.7264    4.3722 N   0  0  0  0  0  0  0  0  0  0  0  0
    1.7159   -0.2117    5.1878 C   0  0  0  0  0  0  0  0  0  0  0  0
    1.1058    1.7169    4.5593 H   0  0  0  0  0  0  0  0  0  0  0  0
    1.1169   -0.4787    6.0710 H   0  0  0  0  0  0  0  0  0  0  0  0
    1.9293   -1.1181    4.6021 H   0  0  0  0  0  0  0  0  0  0  0  0
    2.6619    0.2468    5.5115 H   0  0  0  0  0  0  0  0  0  0  0  0
  1  3  1  0  0  0  0
  1  7  1  0  0  0  0
  1  2  2  0  0  0  0
 23 25  1  0  0  0  0
 23 29  1  0  0  0  0
 23 24  2  0  0  0  0
 50 51  1  0  0  0  0
 51 59  1  0  0  0  0
 51 52  2  0  0  0  0
  8  9  1  0  0  0  0
  9 17  1  0  0  0  0
  9 10  2  0  0  0  0
 30 31  1  0  0  0  0
 31 39  1  0  0  0  0
 31 32  2  0  0  0  0
 40 41  1  0  0  0  0
 41 49  1  0  0  0  0
 41 42  2  0  0  0  0
 50 53  1  0  0  0  0
 30 33  1  0  0  0  0
 59 60  1  0  0  0  0
 17 18  1  0  0  0  0
  8 11  1  0  0  0  0
 11 12  1  0  0  0  0
 40 43  1  0  0  0  0
 43 44  1  0  0  0  0
 49 50  1  0  0  0  0
  7  8  1  0  0  0  0
 29 30  1  0  0  0  0
 39 40  1  0  0  0  0
 12 44  1  0  0  0  0
  3  4  1  0  0  0  0
  3  5  1  0  0  0  0
  3  6  1  0  0  0  0
 25 26  1  0  0  0  0
 25 27  1  0  0  0  0
 25 28  1  0  0  0  0
 53 56  1  0  0  0  0
 53 57  1  0  0  0  0
 53 58  1  0  0  0  0
 33 36  1  0  0  0  0
 33 37  1  0  0  0  0
 33 38  1  0  0  0  0
 60 62  1  0  0  0  0
 60 63  1  0  0  0  0
 60 64  1  0  0  0  0
 18 20  1  0  0  0  0
 18 21  1  0  0  0  0
 18 22  1  0  0  0  0
 11 15  1  0  0  0  0
 11 16  1  0  0  0  0
 43 47  1  0  0  0  0
 43 48  1  0  0  0  0
 50 55  1  0  0  0  0
  8 14  1  0  0  0  0
 30 35  1  0  0  0  0
 40 46  1  0  0  0  0
 59 61  1  0  0  0  0
 17 19  1  0  0  0  0
  7 13  1  0  0  0  0
 29 34  1  0  0  0  0
 49 54  1  0  0  0  0
 39 45  1  0  0  0  0
M  END
$$$$

  -OEChem-05262214473D

 64 63  0     1  0  0  0  0  0999 V2000
    0.4870    4.0864   -8.8798 C   0  0  0  0  0  0  0  0  0  0  0  0
   -0.7023    4.2944   -9.0894 O   0  0  0  0  0  0  0  0  0  0  0  0
    1.3348    3.5066   -9.9631 C   0  0  0  0  0  0  0  0  0  0  0  0
    1.3528    2.4051   -9.9390 H   0  0  0  0  0  0  0  0  0  0  0  0
    0.9701    3.7698  -10.9689 H   0  0  0  0  0  0  0  0  0  0  0  0
    2.3927    3.8140   -9.9491 H   0  0  0  0  0  0  0  0  0  0  0  0
    1.1677    4.3397   -7.7015 N   0  0  0  0  0  0  0  0  0  0  0  0
    0.5414    4.8999   -6.5309 C   0  0  2  0  0  0  0  0  0  0  0  0
    1.5435    5.8073   -5.8202 C   0  0  0  0  0  0  0  0  0  0  0  0
    2.7187    5.9079   -6.1668 O   0  0  0  0  0  0  0  0  0  0  0  0
   -0.0570    3.8255   -5.6196 C   0  0  0  0  0  0  0  0  0  0  0  0
    1.1788    2.6793   -4.9258 S   0  0  0  0  0  0  0  0  0  0  0  0
    2.1602    4.1192   -7.6598 H   0  0  0  0  0  0  0  0  0  0  0  0
   -0.2712    5.5343   -6.9065 H   0  0  0  0  0  0  0  0  0  0  0  0
   -0.5854    4.2857   -4.7783 H   0  0  0  0  0  0  0  0  0  0  0  0
   -0.7838    3.2253   -6.1777 H   0  0  0  0  0  0  0  0  0  0  0  0
    0.9775    6.4705   -4.7407 N   0  0  0  0  0  0  0  0  0  0  0  0
    1.7305    7.3673   -3.8954 C   0  0  0  0  0  0  0  0  0  0  0  0
   -0.0145    6.3618   -4.5514 H   0  0  0  0  0  0  0  0  0  0  0  0
    2.1310    6.8113   -3.0349 H   0  0  0  0  0  0  0  0  0  0  0  0
    2.5617    7.8016   -4.4703 H   0  0  0  0  0  0  0  0  0  0  0  0
    1.0723    8.1726   -3.5372 H   0  0  0  0  0  0  0  0  0  0  0  0
   -6.7256    2.0330   -0.2766 C   0  0  0  0  0  0  0  0  0  0  0  0
   -7.1824    1.1039   -0.9322 O   0  0  0  0  0  0  0  0  0  0  0  0
   -7.5276    2.6077    0.8435 C   0  0  0  0  0  0  0  0  0  0  0  0
   -8.1775    3.4344    0.5145 H   0  0  0  0  0  0  0  0  0  0  0  0
   -8.2057    1.8676    1.2980 H   0  0  0  0  0  0  0  0  0  0  0  0
   -6.9411    3.0162    1.6819 H   0  0  0  0  0  0  0  0  0  0  0  0
   -5.4935    2.6382   -0.4627 N   0  0  0  0  0  0  0  0  0  0  0  0
   -4.5619    2.2388   -1.4845 C   0  0  2  0  0  0  0  0  0  0  0  0
   -3.1535    2.4674   -0.9521 C   0  0  0  0  0  0  0  0  0  0  0  0
   -2.8634    3.3945   -0.1987 O   0  0  0  0  0  0  0  0  0  0  0  0
   -4.7883    3.0138   -2.7732 C   0  0  0  0  0  0  0  0  0  0  0  0
   -5.2337    3.4049    0.1551 H   0  0  0  0  0  0  0  0  0  0  0  0
   -4.7192    1.1682   -1.6549 H   0  0  0  0  0  0  0  0  0  0  0  0
   -4.6352    4.0886   -2.6221 H   0  0  0  0  0  0  0  0  0  0  0  0
   -4.0976    2.6887   -3.5582 H   0  0  0  0  0  0  0  0  0  0  0  0
   -5.8111    2.8719   -3.1387 H   0  0  0  0  0  0  0  0  0  0  0  0
   -2.2466    1.5400   -1.4507 N   0  0  0  0  0  0  0  0  0  0  0  0
   -0.8424    1.5707   -1.1286 C   0  0  2  0  0  0  0  0  0  0  0  0
   -0.6681    2.1660    0.2671 C   0  0  0  0  0  0  0  0  0  0  0  0
   -0.7652    3.3695    0.4987 O   0  0  0  0  0  0  0  0  0  0  0  0
   -0.0143    2.2838   -2.2003 C   0  0  0  0  0  0  0  0  0  0  0  0
   -0.0082    1.4380   -3.7995 S   0  0  0  0  0  0  0  0  0  0  0  0
   -2.5850    0.7815   -2.0381 H   0  0  0  0  0  0  0  0  0  0  0  0
   -0.5277    0.5207   -1.0823 H   0  0  0  0  0  0  0  0  0  0  0  0
   -0.3929    3.2974   -2.3674 H   0  0  0  0  0  0  0  0  0  0  0  0
    1.0269    2.3701   -1.8712 H   0  0  0  0  0  0  0  0  0  0  0  0
   -0.3675    1.1994    1.2163 N   0  0  0  0  0  0  0  0  0  0  0  0
   -0.1328    1.5179    2.6052 C   0  0  2  0  0  0  0  0  0  0  0  0
    0.8859    0.5253    3.1497 C   0  0  0  0  0  0  0  0  0  0  0  0
    0.9459   -0.6454    2.7797 O   0  0  0  0  0  0  0  0  0  0  0  0
   -1.4225    1.4694    3.4096 C   0  0  0  0  0  0  0  0  0  0  0  0
   -0.3494    0.2208    0.9448 H   0  0  0  0  0  0  0  0  0  0  0  0
    0.2906    2.5278    2.6310 H   0  0  0  0  0  0  0  0  0  0  0  0
   -1.8615    0.4651    3.3955 H   0  0  0  0  0  0  0  0  0  0  0  0
   -1.2476    1.7389    4.4564 H   0  0  0  0  0  0  0  0  0  0  0  0
   -2.1646    2.1623    2.9985 H   0  0  0  0  0  0  0  0  0  0  0  0
    1.6922    1.0890    4.1286 N   0  0  0  0  0  0  0  0  0  0  0  0
    2.7084    0.3388    4.8290 C   0  0  0  0  0  0  0  0  0  0  0  0
    1.5999    2.0774    4.3439 H   0  0  0  0  0  0  0  0  0  0  0  0
    2.2845   -0.0783    5.7544 H   0  0  0  0  0  0  0  0  0  0  0  0
    3.0664   -0.4803    4.1881 H   0  0  0  0  0  0  0  0  0  0  0  0
    3.5486    1.0037    5.0780 H   0  0  0  0  0  0  0  0  0  0  0  0
  1  3  1  0  0  0  0
  1  7  1  0  0  0  0
  1  2  2  0  0  0  0
 23 25  1  0  0  0  0
 23 29  1  0  0  0  0
 23 24  2  0  0  0  0
 50 51  1  0  0  0  0
 51 59  1  0  0  0  0
 51 52  2  0  0  0  0
  8  9  1  0  0  0  0
  9 17  1  0  0  0  0
  9 10  2  0  0  0  0
 30 31  1  0  0  0  0
 31 39  1  0  0  0  0
 31 32  2  0  0  0  0
 40 41  1  0  0  0  0
 41 49  1  0  0  0  0
 41 42  2  0  0  0  0
 50 53  1  0  0  0  0
 30 33  1  0  0  0  0
 59 60  1  0  0  0  0
 17 18  1  0  0  0  0
  8 11  1  0  0  0  0
 11 12  1  0  0  0  0
 40 43  1  0  0  0  0
 43 44  1  0  0  0  0
 49 50  1  0  0  0  0
  7  8  1  0  0  0  0
 29 30  1  0  0  0  0
 39 40  1  0  0  0  0
 12 44  1  0  0  0  0
  3  4  1  0  0  0  0
  3  5  1  0  0  0  0
  3  6  1  0  0  0  0
 25 26  1  0  0  0  0
 25 27  1  0  0  0  0
 25 28  1  0  0  0  0
 53 56  1  0  0  0  0
 53 57  1  0  0  0  0
 53 58  1  0  0  0  0
 33 36  1  0  0  0  0
 33 37  1  0  0  0  0
 33 38  1  0  0  0  0
 60 62  1  0  0  0  0
 60 63  1  0  0  0  0
 60 64  1  0  0  0  0
 18 20  1  0  0  0  0
 18 21  1  0  0  0  0
 18 22  1  0  0  0  0
 11 15  1  0  0  0  0
 11 16  1  0  0  0  0
 43 47  1  0  0  0  0
 43 48  1  0  0  0  0
 50 55  1  0  0  0  0
  8 14  1  0  0  0  0
 30 35  1  0  0  0  0
 40 46  1  0  0  0  0
 59 61  1  0  0  0  0
 17 19  1  0  0  0  0
  7 13  1  0  0  0  0
 29 34  1  0  0  0  0
 49 54  1  0  0  0  0
 39 45  1  0  0  0  0
M  END
$$$$

  -OEChem-05262214473D

 64 63  0     1  0  0  0  0  0999 V2000
    0.4870    4.0864   -8.8798 C   0  0  0  0  0  0  0  0  0  0  0  0
   -0.7023    4.2944   -9.0894 O   0  0  0  0  0  0  0  0  0  0  0  0
    1.3348    3.5066   -9.9631 C   0  0  0  0  0  0  0  0  0  0  0  0
    1.3528    2.4051   -9.9390 H   0  0  0  0  0  0  0  0  0  0  0  0
    0.9701    3.7698  -10.9689 H   0  0  0  0  0  0  0  0  0  0  0  0
    2.3927    3.8140   -9.9491 H   0  0  0  0  0  0  0  0  0  0  0  0
    1.1677    4.3397   -7.7015 N   0  0  0  0  0  0  0  0  0  0  0  0
    0.5414    4.8999   -6.5309 C   0  0  2  0  0  0  0  0  0  0  0  0
    1.5435    5.8073   -5.8202 C   0  0  0  0  0  0  0  0  0  0  0  0
    2.7187    5.9079   -6.1668 O   0  0  0  0  0  0  0  0  0  0  0  0
   -0.0570    3.8255   -5.6196 C   0  0  0  0  0  0  0  0  0  0  0  0
    1.1788    2.6793   -4.9258 S   0  0  0  0  0  0  0  0  0  0  0  0
    2.1602    4.1192   -7.6598 H   0  0  0  0  0  0  0  0  0  0  0  0
   -0.2712    5.5343   -6.9065 H   0  0  0  0  0  0  0  0  0  0  0  0
   -0.5854    4.2857   -4.7783 H   0  0  0  0  0  0  0  0  0  0  0  0
   -0.7838    3.2253   -6.1777 H   0  0  0  0  0  0  0  0  0  0  0  0
    0.9775    6.4705   -4.7407 N   0  0  0  0  0  0  0  0  0  0  0  0
    1.7305    7.3673   -3.8954 C   0  0  0  0  0  0  0  0  0  0  0  0
   -0.0145    6.3618   -4.5514 H   0  0  0  0  0  0  0  0  0  0  0  0
    2.1310    6.8113   -3.0349 H   0  0  0  0  0  0  0  0  0  0  0  0
    2.5617    7.8016   -4.4703 H   0  0  0  0  0  0  0  0  0  0  0  0
    1.0723    8.1726   -3.5372 H   0  0  0  0  0  0  0  0  0  0  0  0
   -6.7256    2.0330   -0.2766 C   0  0  0  0  0  0  0  0  0  0  0  0
   -7.1824    1.1039   -0.9322 O   0  0  0  0  0  0  0  0  0  0  0  0
   -7.5276    2.6077    0.8435 C   0  0  0  0  0  0  0  0  0  0  0  0
   -8.1775    3.4344    0.5145 H   0  0  0  0  0  0  0  0  0  0  0  0
   -8.2057    1.8676    1.2980 H   0  0  0  0  0  0  0  0  0  0  0  0
   -6.9411    3.0162    1.6819 H   0  0  0  0  0  0  0  0  0  0  0  0
   -5.4935    2.6382   -0.4627 N   0  0  0  0  0  0  0  0  0  0  0  0
   -4.5619    2.2388   -1.4845 C   0  0  2  0  0  0  0  0  0  0  0  0
   -3.1535    2.4674   -0.9521 C   0  0  0  0  0  0  0  0  0  0  0  0
   -2.8634    3.3945   -0.1987 O   0  0  0  0  0  0  0  0  0  0  0  0
   -4.7883    3.0138   -2.7732 C   0  0  0  0  0  0  0  0  0  0  0  0
   -5.2337    3.4049    0.1551 H   0  0  0  0  0  0  0  0  0  0  0  0
   -4.7192    1.1682   -1.6549 H   0  0  0  0  0  0  0  0  0  0  0  0
   -4.6352    4.0886   -2.6221 H   0  0  0  0  0  0  0  0  0  0  0  0
   -4.0976    2.6887   -3.5582 H   0  0  0  0  0  0  0  0  0  0  0  0
   -5.8111    2.8719   -3.1387 H   0  0  0  0  0  0  0  0  0  0  0  0
   -2.2466    1.5400   -1.4507 N   0  0  0  0  0  0  0  0  0  0  0  0
   -0.8424    1.5707   -1.1286 C   0  0  2  0  0  0  0  0  0  0  0  0
   -0.6681    2.1660    0.2671 C   0  0  0  0  0  0  0  0  0  0  0  0
   -1.0206    3.3075    0.5570 O   0  0  0  0  0  0  0  0  0  0  0  0
   -0.0143    2.2838   -2.2003 C   0  0  0  0  0  0  0  0  0  0  0  0
   -0.0082    1.4380   -3.7995 S   0  0  0  0  0  0  0  0  0  0  0  0
   -2.5850    0.7815   -2.0381 H   0  0  0  0  0  0  0  0  0  0  0  0
   -0.5277    0.5207   -1.0823 H   0  0  0  0  0  0  0  0  0  0  0  0
   -0.3929    3.2974   -2.3674 H   0  0  0  0  0  0  0  0  0  0  0  0
    1.0269    2.3701   -1.8712 H   0  0  0  0  0  0  0  0  0  0  0  0
   -0.0514    1.2823    1.1414 N   0  0  0  0  0  0  0  0  0  0  0  0
    0.2457    1.6233    2.5130 C   0  0  2  0  0  0  0  0  0  0  0  0
    1.5203    0.8925    2.9139 C   0  0  0  0  0  0  0  0  0  0  0  0
    1.8146   -0.2237    2.4913 O   0  0  0  0  0  0  0  0  0  0  0  0
   -0.9053    1.2553    3.4364 C   0  0  0  0  0  0  0  0  0  0  0  0
    0.1678    0.3410    0.8289 H   0  0  0  0  0  0  0  0  0  0  0  0
    0.4202    2.7045    2.5394 H   0  0  0  0  0  0  0  0  0  0  0  0
   -1.0950    0.1758    3.4232 H   0  0  0  0  0  0  0  0  0  0  0  0
   -0.6903    1.5404    4.4715 H   0  0  0  0  0  0  0  0  0  0  0  0
   -1.8281    1.7587    3.1286 H   0  0  0  0  0  0  0  0  0  0  0  0
    2.2692    1.6148    3.8323 N   0  0  0  0  0  0  0  0  0  0  0  0
    3.5006    1.1159    4.3986 C   0  0  0  0  0  0  0  0  0  0  0  0
    1.9702    2.5489    4.0965 H   0  0  0  0  0  0  0  0  0  0  0  0
    3.2856    0.5939    5.3427 H   0  0  0  0  0  0  0  0  0  0  0  0
    3.9721    0.4169    3.6923 H   0  0  0  0  0  0  0  0  0  0  0  0
    4.1823    1.9573    4.5921 H   0  0  0  0  0  0  0  0  0  0  0  0
  1  3  1  0  0  0  0
  1  7  1  0  0  0  0
  1  2  2  0  0  0  0
 23 25  1  0  0  0  0
 23 29  1  0  0  0  0
 23 24  2  0  0  0  0
 50 51  1  0  0  0  0
 51 59  1  0  0  0  0
 51 52  2  0  0  0  0
  8  9  1  0  0  0  0
  9 17  1  0  0  0  0
  9 10  2  0  0  0  0
 30 31  1  0  0  0  0
 31 39  1  0  0  0  0
 31 32  2  0  0  0  0
 40 41  1  0  0  0  0
 41 49  1  0  0  0  0
 41 42  2  0  0  0  0
 50 53  1  0  0  0  0
 30 33  1  0  0  0  0
 59 60  1  0  0  0  0
 17 18  1  0  0  0  0
  8 11  1  0  0  0  0
 11 12  1  0  0  0  0
 40 43  1  0  0  0  0
 43 44  1  0  0  0  0
 49 50  1  0  0  0  0
  7  8  1  0  0  0  0
 29 30  1  0  0  0  0
 39 40  1  0  0  0  0
 12 44  1  0  0  0  0
  3  4  1  0  0  0  0
  3  5  1  0  0  0  0
  3  6  1  0  0  0  0
 25 26  1  0  0  0  0
 25 27  1  0  0  0  0
 25 28  1  0  0  0  0
 53 56  1  0  0  0  0
 53 57  1  0  0  0  0
 53 58  1  0  0  0  0
 33 36  1  0  0  0  0
 33 37  1  0  0  0  0
 33 38  1  0  0  0  0
 60 62  1  0  0  0  0
 60 63  1  0  0  0  0
 60 64  1  0  0  0  0
 18 20  1  0  0  0  0
 18 21  1  0  0  0  0
 18 22  1  0  0  0  0
 11 15  1  0  0  0  0
 11 16  1  0  0  0  0
 43 47  1  0  0  0  0
 43 48  1  0  0  0  0
 50 55  1  0  0  0  0
  8 14  1  0  0  0  0
 30 35  1  0  0  0  0
 40 46  1  0  0  0  0
 59 61  1  0  0  0  0
 17 19  1  0  0  0  0
  7 13  1  0  0  0  0
 29 34  1  0  0  0  0
 49 54  1  0  0  0  0
 39 45  1  0  0  0  0
M  END
$$$$

  -OEChem-05262214473D

 64 63  0     1  0  0  0  0  0999 V2000
    0.4870    4.0864   -8.8798 C   0  0  0  0  0  0  0  0  0  0  0  0
   -0.7023    4.2944   -9.0894 O   0  0  0  0  0  0  0  0  0  0  0  0
    1.3348    3.5066   -9.9631 C   0  0  0  0  0  0  0  0  0  0  0  0
    1.3528    2.4051   -9.9390 H   0  0  0  0  0  0  0  0  0  0  0  0
    0.9701    3.7698  -10.9689 H   0  0  0  0  0  0  0  0  0  0  0  0
    2.3927    3.8140   -9.9491 H   0  0  0  0  0  0  0  0  0  0  0  0
    1.1677    4.3397   -7.7015 N   0  0  0  0  0  0  0  0  0  0  0  0
    0.5414    4.8999   -6.5309 C   0  0  2  0  0  0  0  0  0  0  0  0
    1.5435    5.8073   -5.8202 C   0  0  0  0  0  0  0  0  0  0  0  0
    2.7187    5.9079   -6.1668 O   0  0  0  0  0  0  0  0  0  0  0  0
   -0.0570    3.8255   -5.6196 C   0  0  0  0  0  0  0  0  0  0  0  0
    1.1788    2.6793   -4.9258 S   0  0  0  0  0  0  0  0  0  0  0  0
    2.1602    4.1192   -7.6598 H   0  0  0  0  0  0  0  0  0  0  0  0
   -0.2712    5.5343   -6.9065 H   0  0  0  0  0  0  0  0  0  0  0  0
   -0.5854    4.2857   -4.7783 H   0  0  0  0  0  0  0  0  0  0  0  0
   -0.7838    3.2253   -6.1777 H   0  0  0  0  0  0  0  0  0  0  0  0
    0.9775    6.4705   -4.7407 N   0  0  0  0  0  0  0  0  0  0  0  0
    1.7305    7.3673   -3.8954 C   0  0  0  0  0  0  0  0  0  0  0  0
   -0.0145    6.3618   -4.5514 H   0  0  0  0  0  0  0  0  0  0  0  0
    2.1310    6.8113   -3.0349 H   0  0  0  0  0  0  0  0  0  0  0  0
    2.5617    7.8016   -4.4703 H   0  0  0  0  0  0  0  0  0  0  0  0
    1.0723    8.1726   -3.5372 H   0  0  0  0  0  0  0  0  0  0  0  0
   -6.7256    2.0330   -0.2766 C   0  0  0  0  0  0  0  0  0  0  0  0
   -7.1824    1.1039   -0.9322 O   0  0  0  0  0  0  0  0  0  0  0  0
   -7.5276    2.6077    0.8435 C   0  0  0  0  0  0  0  0  0  0  0  0
   -8.1775    3.4344    0.5145 H   0  0  0  0  0  0  0  0  0  0  0  0
   -8.2057    1.8676    1.2980 H   0  0  0  0  0  0  0  0  0  0  0  0
   -6.9411    3.0162    1.6819 H   0  0  0  0  0  0  0  0  0  0  0  0
   -5.4935    2.6382   -0.4627 N   0  0  0  0  0  0  0  0  0  0  0  0
   -4.5619    2.2388   -1.4845 C   0  0  2  0  0  0  0  0  0  0  0  0
   -3.1535    2.4674   -0.9521 C   0  0  0  0  0  0  0  0  0  0  0  0
   -2.8634    3.3945   -0.1987 O   0  0  0  0  0  0  0  0  0  0  0  0
   -4.7883    3.0138   -2.7732 C   0  0  0  0  0  0  0  0  0  0  0  0
   -5.2337    3.4049    0.1551 H   0  0  0  0  0  0  0  0  0  0  0  0
   -4.7192    1.1682   -1.6549 H   0  0  0  0  0  0  0  0  0  0  0  0
   -4.6352    4.0886   -2.6221 H   0  0  0  0  0  0  0  0  0  0  0  0
   -4.0976    2.6887   -3.5582 H   0  0  0  0  0  0  0  0  0  0  0  0
   -5.8111    2.8719   -3.1387 H   0  0  0  0  0  0  0  0  0  0  0  0
   -2.2466    1.5400   -1.4507 N   0  0  0  0  0  0  0  0  0  0  0  0
   -0.8424    1.5707   -1.1286 C   0  0  2  0  0  0  0  0  0  0  0  0
   -0.6681    2.1660    0.2671 C   0  0  0  0  0  0  0  0  0  0  0  0
   -1.2467    3.1856    0.6373 O   0  0  0  0  0  0  0  0  0  0  0  0
   -0.0143    2.2838   -2.2003 C   0  0  0  0  0  0  0  0  0  0  0  0
   -0.0082    1.4380   -3.7995 S   0  0  0  0  0  0  0  0  0  0  0  0
   -2.5850    0.7815   -2.0381 H   0  0  0  0  0  0  0  0  0  0  0  0
   -0.5277    0.5207   -1.0823 H   0  0  0  0  0  0  0  0  0  0  0  0
   -0.3929    3.2974   -2.3674 H   0  0  0  0  0  0  0  0  0  0  0  0
    1.0269    2.3701   -1.8712 H   0  0  0  0  0  0  0  0  0  0  0  0
    0.2269    1.4395    1.0396 N   0  0  0  0  0  0  0  0  0  0  0  0
    0.5770    1.8174    2.3888 C   0  0  2  0  0  0  0  0  0  0  0  0
    2.0223    1.4041    2.6330 C   0  0  0  0  0  0  0  0  0  0  0  0
    2.5250    0.3976    2.1376 O   0  0  0  0  0  0  0  0  0  0  0  0
   -0.3523    1.1700    3.4037 C   0  0  0  0  0  0  0  0  0  0  0  0
    0.6272    0.5830    0.6684 H   0  0  0  0  0  0  0  0  0  0  0  0
    0.4944    2.9084    2.4432 H   0  0  0  0  0  0  0  0  0  0  0  0
   -0.2834    0.0768    3.3640 H   0  0  0  0  0  0  0  0  0  0  0  0
   -0.1034    1.4801    4.4239 H   0  0  0  0  0  0  0  0  0  0  0  0
   -1.3946    1.4446    3.2085 H   0  0  0  0  0  0  0  0  0  0  0  0
    2.6722    2.2679    3.5035 N   0  0  0  0  0  0  0  0  0  0  0  0
    4.0386    2.0667    3.9260 C   0  0  0  0  0  0  0  0  0  0  0  0
    2.1914    3.0992    3.8342 H   0  0  0  0  0  0  0  0  0  0  0  0
    4.0521    1.4921    4.8638 H   0  0  0  0  0  0  0  0  0  0  0  0
    4.5848    1.5123    3.1485 H   0  0  0  0  0  0  0  0  0  0  0  0
    4.5199    3.0426    4.0870 H   0  0  0  0  0  0  0  0  0  0  0  0
  1  3  1  0  0  0  0
  1  7  1  0  0  0  0
  1  2  2  0  0  0  0
 23 25  1  0  0  0  0
 23 29  1  0  0  0  0
 23 24  2  0  0  0  0
 50 51  1  0  0  0  0
 51 59  1  0  0  0  0
 51 52  2  0  0  0  0
  8  9  1  0  0  0  0
  9 17  1  0  0  0  0
  9 10  2  0  0  0  0
 30 31  1  0  0  0  0
 31 39  1  0  0  0  0
 31 32  2  0  0  0  0
 40 41  1  0  0  0  0
 41 49  1  0  0  0  0
 41 42  2  0  0  0  0
 50 53  1  0  0  0  0
 30 33  1  0  0  0  0
 59 60  1  0  0  0  0
 17 18  1  0  0  0  0
  8 11  1  0  0  0  0
 11 12  1  0  0  0  0
 40 43  1  0  0  0  0
 43 44  1  0  0  0  0
 49 50  1  0  0  0  0
  7  8  1  0  0  0  0
 29 30  1  0  0  0  0
 39 40  1  0  0  0  0
 12 44  1  0  0  0  0
  3  4  1  0  0  0  0
  3  5  1  0  0  0  0
  3  6  1  0  0  0  0
 25 26  1  0  0  0  0
 25 27  1  0  0  0  0
 25 28  1  0  0  0  0
 53 56  1  0  0  0  0
 53 57  1  0  0  0  0
 53 58  1  0  0  0  0
 33 36  1  0  0  0  0
 33 37  1  0  0  0  0
 33 38  1  0  0  0  0
 60 62  1  0  0  0  0
 60 63  1  0  0  0  0
 60 64  1  0  0  0  0
 18 20  1  0  0  0  0
 18 21  1  0  0  0  0
 18 22  1  0  0  0  0
 11 15  1  0  0  0  0
 11 16  1  0  0  0  0
 43 47  1  0  0  0  0
 43 48  1  0  0  0  0
 50 55  1  0  0  0  0
  8 14  1  0  0  0  0
 30 35  1  0  0  0  0
 40 46  1  0  0  0  0
 59 61  1  0  0  0  0
 17 19  1  0  0  0  0
  7 13  1  0  0  0  0
 29 34  1  0  0  0  0
 49 54  1  0  0  0  0
 39 45  1  0  0  0  0
M  END
$$$$

  -OEChem-05262214473D

 64 63  0     1  0  0  0  0  0999 V2000
    0.4870    4.0864   -8.8798 C   0  0  0  0  0  0  0  0  0  0  0  0
   -0.7023    4.2944   -9.0894 O   0  0  0  0  0  0  0  0  0  0  0  0
    1.3348    3.5066   -9.9631 C   0  0  0  0  0  0  0  0  0  0  0  0
    1.3528    2.4051   -9.9390 H   0  0  0  0  0  0  0  0  0  0  0  0
    0.9701    3.7698  -10.9689 H   0  0  0  0  0  0  0  0  0  0  0  0
    2.3927    3.8140   -9.9491 H   0  0  0  0  0  0  0  0  0  0  0  0
    1.1677    4.3397   -7.7015 N   0  0  0  0  0  0  0  0  0  0  0  0
    0.5414    4.8999   -6.5309 C   0  0  2  0  0  0  0  0  0  0  0  0
    1.5435    5.8073   -5.8202 C   0  0  0  0  0  0  0  0  0  0  0  0
    2.7187    5.9079   -6.1668 O   0  0  0  0  0  0  0  0  0  0  0  0
   -0.0570    3.8255   -5.6196 C   0  0  0  0  0  0  0  0  0  0  0  0
    1.1788    2.6793   -4.9258 S   0  0  0  0  0  0  0  0  0  0  0  0
    2.1602    4.1192   -7.6598 H   0  0  0  0  0  0  0  0  0  0  0  0
   -0.2712    5.5343   -6.9065 H   0  0  0  0  0  0  0  0  0  0  0  0
   -0.5854    4.2857   -4.7783 H   0  0  0  0  0  0  0  0  0  0  0  0
   -0.7838    3.2253   -6.1777 H   0  0  0  0  0  0  0  0  0  0  0  0
    0.9775    6.4705   -4.7407 N   0  0  0  0  0  0  0  0  0  0  0  0
    1.7305    7.3673   -3.8954 C   0  0  0  0  0  0  0  0  0  0  0  0
   -0.0145    6.3618   -4.5514 H   0  0  0  0  0  0  0  0  0  0  0  0
    2.1310    6.8113   -3.0349 H   0  0  0  0  0  0  0  0  0  0  0  0
    2.5617    7.8016   -4.4703 H   0  0  0  0  0  0  0  0  0  0  0  0
    1.0723    8.1726   -3.5372 H   0  0  0  0  0  0  0  0  0  0  0  0
   -6.7256    2.0330   -0.2766 C   0  0  0  0  0  0  0  0  0  0  0  0
   -7.1824    1.1039   -0.9322 O   0  0  0  0  0  0  0  0  0  0  0  0
   -7.5276    2.6077    0.8435 C   0  0  0  0  0  0  0  0  0  0  0  0
   -8.1775    3.4344    0.5145 H   0  0  0  0  0  0  0  0  0  0  0  0
   -8.2057    1.8676    1.2980 H   0  0  0  0  0  0  0  0  0  0  0  0
   -6.9411    3.0162    1.6819 H   0  0  0  0  0  0  0  0  0  0  0  0
   -5.4935    2.6382   -0.4627 N   0  0  0  0  0  0  0  0  0  0  0  0
   -4.5619    2.2388   -1.4845 C   0  0  2  0  0  0  0  0  0  0  0  0
   -3.1535    2.4674   -0.9521 C   0  0  0  0  0  0  0  0  0  0  0  0
   -2.8634    3.3945   -0.1987 O   0  0  0  0  0  0  0  0  0  0  0  0
   -4.7883    3.0138   -2.7732 C   0  0  0  0  0  0  0  0  0  0  0  0
   -5.2337    3.4049    0.1551 H   0  0  0  0  0  0  0  0  0  0  0  0
   -4.7192    1.1682   -1.6549 H   0  0  0  0  0  0  0  0  0  0  0  0
   -4.6352    4.0886   -2.6221 H   0  0  0  0  0  0  0  0  0  0  0  0
   -4.0976    2.6887   -3.5582 H   0  0  0  0  0  0  0  0  0  0  0  0
   -5.8111    2.8719   -3.1387 H   0  0  0  0  0  0  0  0  0  0  0  0
   -2.2466    1.5400   -1.4507 N   0  0  0  0  0  0  0  0  0  0  0  0
   -0.8424    1.5707   -1.1286 C   0  0  2  0  0  0  0  0  0  0  0  0
   -0.6681    2.1660    0.2671 C   0  0  0  0  0  0  0  0  0  0  0  0
   -1.4282    3.0120    0.7340 O   0  0  0  0  0  0  0  0  0  0  0  0
   -0.0143    2.2838   -2.2003 C   0  0  0  0  0  0  0  0  0  0  0  0
   -0.0082    1.4380   -3.7995 S   0  0  0  0  0  0  0  0  0  0  0  0
   -2.5850    0.7815   -2.0381 H   0  0  0  0  0  0  0  0  0  0  0  0
   -0.5277    0.5207   -1.0823 H   0  0  0  0  0  0  0  0  0  0  0  0
   -0.3929    3.2974   -2.3674 H   0  0  0  0  0  0  0  0  0  0  0  0
    1.0269    2.3701   -1.8712 H   0  0  0  0  0  0  0  0  0  0  0  0
    0.4482    1.6601    0.9179 N   0  0  0  0  0  0  0  0  0  0  0  0
    0.8386    2.0870    2.2412 C   0  0  2  0  0  0  0  0  0  0  0  0
    2.3580    2.0254    2.3261 C   0  0  0  0  0  0  0  0  0  0  0  0
    3.0285    1.1762    1.7426 O   0  0  0  0  0  0  0  0  0  0  0  0
    0.1987    1.2194    3.3138 C   0  0  0  0  0  0  0  0  0  0  0  0
    0.9975    0.9301    0.4741 H   0  0  0  0  0  0  0  0  0  0  0  0
    0.5080    3.1258    2.3488 H   0  0  0  0  0  0  0  0  0  0  0  0
    0.5181    0.1748    3.2221 H   0  0  0  0  0  0  0  0  0  0  0  0
    0.4729    1.5620    4.3170 H   0  0  0  0  0  0  0  0  0  0  0  0
   -0.8934    1.2413    3.2326 H   0  0  0  0  0  0  0  0  0  0  0  0
    2.8739    3.0037    3.1644 N   0  0  0  0  0  0  0  0  0  0  0  0
    4.2858    3.1262    3.4432 C   0  0  0  0  0  0  0  0  0  0  0  0
    2.2484    3.6908    3.5747 H   0  0  0  0  0  0  0  0  0  0  0  0
    4.5318    2.5551    4.3505 H   0  0  0  0  0  0  0  0  0  0  0  0
    4.8627    2.7314    2.5939 H   0  0  0  0  0  0  0  0  0  0  0  0
    4.5384    4.1857    3.5972 H   0  0  0  0  0  0  0  0  0  0  0  0
  1  3  1  0  0  0  0
  1  7  1  0  0  0  0
  1  2  2  0  0  0  0
 23 25  1  0  0  0  0
 23 29  1  0  0  0  0
 23 24  2  0  0  0  0
 50 51  1  0  0  0  0
 51 59  1  0  0  0  0
 51 52  2  0  0  0  0
  8  9  1  0  0  0  0
  9 17  1  0  0  0  0
  9 10  2  0  0  0  0
 30 31  1  0  0  0  0
 31 39  1  0  0  0  0
 31 32  2  0  0  0  0
 40 41  1  0  0  0  0
 41 49  1  0  0  0  0
 41 42  2  0  0  0  0
 50 53  1  0  0  0  0
 30 33  1  0  0  0  0
 59 60  1  0  0  0  0
 17 18  1  0  0  0  0
  8 11  1  0  0  0  0
 11 12  1  0  0  0  0
 40 43  1  0  0  0  0
 43 44  1  0  0  0  0
 49 50  1  0  0  0  0
  7  8  1  0  0  0  0
 29 30  1  0  0  0  0
 39 40  1  0  0  0  0
 12 44  1  0  0  0  0
  3  4  1  0  0  0  0
  3  5  1  0  0  0  0
  3  6  1  0  0  0  0
 25 26  1  0  0  0  0
 25 27  1  0  0  0  0
 25 28  1  0  0  0  0
 53 56  1  0  0  0  0
 53 57  1  0  0  0  0
 53 58  1  0  0  0  0
 33 36  1  0  0  0  0
 33 37  1  0  0  0  0
 33 38  1  0  0  0  0
 60 62  1  0  0  0  0
 60 63  1  0  0  0  0
 60 64  1  0  0  0  0
 18 20  1  0  0  0  0
 18 21  1  0  0  0  0
 18 22  1  0  0  0  0
 11 15  1  0  0  0  0
 11 16  1  0  0  0  0
 43 47  1  0  0  0  0
 43 48  1  0  0  0  0
 50 55  1  0  0  0  0
  8 14  1  0  0  0  0
 30 35  1  0  0  0  0
 40 46  1  0  0  0  0
 59 61  1  0  0  0  0
 17 19  1  0  0  0  0
  7 13  1  0  0  0  0
 29 34  1  0  0  0  0
 49 54  1  0  0  0  0
 39 45  1  0  0  0  0
M  END
$$$$

  -OEChem-05262214473D

 64 63  0     1  0  0  0  0  0999 V2000
    0.4870    4.0864   -8.8798 C   0  0  0  0  0  0  0  0  0  0  0  0
   -0.7023    4.2944   -9.0894 O   0  0  0  0  0  0  0  0  0  0  0  0
    1.3348    3.5066   -9.9631 C   0  0  0  0  0  0  0  0  0  0  0  0
    1.3528    2.4051   -9.9390 H   0  0  0  0  0  0  0  0  0  0  0  0
    0.9701    3.7698  -10.9689 H   0  0  0  0  0  0  0  0  0  0  0  0
    2.3927    3.8140   -9.9491 H   0  0  0  0  0  0  0  0  0  0  0  0
    1.1677    4.3397   -7.7015 N   0  0  0  0  0  0  0  0  0  0  0  0
    0.5414    4.8999   -6.5309 C   0  0  2  0  0  0  0  0  0  0  0  0
    1.5435    5.8073   -5.8202 C   0  0  0  0  0  0  0  0  0  0  0  0
    2.7187    5.9079   -6.1668 O   0  0  0  0  0  0  0  0  0  0  0  0
   -0.0570    3.8255   -5.6196 C   0  0  0  0  0  0  0  0  0  0  0  0
    1.1788    2.6793   -4.9258 S   0  0  0  0  0  0  0  0  0  0  0  0
    2.1602    4.1192   -7.6598 H   0  0  0  0  0  0  0  0  0  0  0  0
   -0.2712    5.5343   -6.9065 H   0  0  0  0  0  0  0  0  0  0  0  0
   -0.5854    4.2857   -4.7783 H   0  0  0  0  0  0  0  0  0  0  0  0
   -0.7838    3.2253   -6.1777 H   0  0  0  0  0  0  0  0  0  0  0  0
    0.9775    6.4705   -4.7407 N   0  0  0  0  0  0  0  0  0  0  0  0
    1.7305    7.3673   -3.8954 C   0  0  0  0  0  0  0  0  0  0  0  0
   -0.0145    6.3618   -4.5514 H   0  0  0  0  0  0  0  0  0  0  0  0
    2.1310    6.8113   -3.0349 H   0  0  0  0  0  0  0  0  0  0  0  0
    2.5617    7.8016   -4.4703 H   0  0  0  0  0  0  0  0  0  0  0  0
    1.0723    8.1726   -3.5372 H   0  0  0  0  0  0  0  0  0  0  0  0
   -6.7256    2.0330   -0.2766 C   0  0  0  0  0  0  0  0  0  0  0  0
   -7.1824    1.1039   -0.9322 O   0  0  0  0  0  0  0  0  0  0  0  0
   -7.5276    2.6077    0.8435 C   0  0  0  0  0  0  0  0  0  0  0  0
   -8.1775    3.4344    0.5145 H   0  0  0  0  0  0  0  0  0  0  0  0
   -8.2057    1.8676    1.2980 H   0  0  0  0  0  0  0  0  0  0  0  0
   -6.9411    3.0162    1.6819 H   0  0  0  0  0  0  0  0  0  0  0  0
   -5.4935    2.6382   -0.4627 N   0  0  0  0  0  0  0  0  0  0  0  0
   -4.5619    2.2388   -1.4845 C   0  0  2  0  0  0  0  0  0  0  0  0
   -3.1535    2.4674   -0.9521 C   0  0  0  0  0  0  0  0  0  0  0  0
   -2.8634    3.3945   -0.1987 O   0  0  0  0  0  0  0  0  0  0  0  0
   -4.7883    3.0138   -2.7732 C   0  0  0  0  0  0  0  0  0  0  0  0
   -5.2337    3.4049    0.1551 H   0  0  0  0  0  0  0  0  0  0  0  0
   -4.7192    1.1682   -1.6549 H   0  0  0  0  0  0  0  0  0  0  0  0
   -4.6352    4.0886   -2.6221 H   0  0  0  0  0  0  0  0  0  0  0  0
   -4.0976    2.6887   -3.5582 H   0  0  0  0  0  0  0  0  0  0  0  0
   -5.8111    2.8719   -3.1387 H   0  0  0  0  0  0  0  0  0  0  0  0
   -2.2466    1.5400   -1.4507 N   0  0  0  0  0  0  0  0  0  0  0  0
   -0.8424    1.5707   -1.1286 C   0  0  2  0  0  0  0  0  0  0  0  0
   -0.6681    2.1660    0.2671 C   0  0  0  0  0  0  0  0  0  0  0  0
   -1.5527    2.7985    0.8406 O   0  0  0  0  0  0  0  0  0  0  0  0
   -0.0143    2.2838   -2.2003 C   0  0  0  0  0  0  0  0  0  0  0  0
   -0.0082    1.4380   -3.7995 S   0  0  0  0  0  0  0  0  0  0  0  0
   -2.5850    0.7815   -2.0381 H   0  0  0  0  0  0  0  0  0  0  0  0
   -0.5277    0.5207   -1.0823 H   0  0  0  0  0  0  0  0  0  0  0  0
   -0.3929    3.2974   -2.3674 H   0  0  0  0  0  0  0  0  0  0  0  0
    1.0269    2.3701   -1.8712 H   0  0  0  0  0  0  0  0  0  0  0  0
    0.5975    1.9291    0.7845 N   0  0  0  0  0  0  0  0  0  0  0  0
    1.0126    2.4136    2.0802 C   0  0  2  0  0  0  0  0  0  0  0  0
    2.5043    2.7139    2.0141 C   0  0  0  0  0  0  0  0  0  0  0  0
    3.2909    2.0591    1.3333 O   0  0  0  0  0  0  0  0  0  0  0  0
    0.7101    1.4000    3.1729 C   0  0  0  0  0  0  0  0  0  0  0  0
    1.2536    1.3586    0.2593 H   0  0  0  0  0  0  0  0  0  0  0  0
    0.4603    3.3418    2.2626 H   0  0  0  0  0  0  0  0  0  0  0  0
    1.2547    0.4633    3.0071 H   0  0  0  0  0  0  0  0  0  0  0  0
    0.9994    1.7805    4.1581 H   0  0  0  0  0  0  0  0  0  0  0  0
   -0.3589    1.1628    3.1993 H   0  0  0  0  0  0  0  0  0  0  0  0
    2.8605    3.7722    2.8383 N   0  0  0  0  0  0  0  0  0  0  0  0
    4.2252    4.2224    2.9832 C   0  0  0  0  0  0  0  0  0  0  0  0
    2.1374    4.2834    3.3358 H   0  0  0  0  0  0  0  0  0  0  0  0
    4.6919    3.7106    3.8377 H   0  0  0  0  0  0  0  0  0  0  0  0
    4.7868    3.9911    2.0661 H   0  0  0  0  0  0  0  0  0  0  0  0
    4.2364    5.3087    3.1559 H   0  0  0  0  0  0  0  0  0  0  0  0
  1  3  1  0  0  0  0
  1  7  1  0  0  0  0
  1  2  2  0  0  0  0
 23 25  1  0  0  0  0
 23 29  1  0  0  0  0
 23 24  2  0  0  0  0
 50 51  1  0  0  0  0
 51 59  1  0  0  0  0
 51 52  2  0  0  0  0
  8  9  1  0  0  0  0
  9 17  1  0  0  0  0
  9 10  2  0  0  0  0
 30 31  1  0  0  0  0
 31 39  1  0  0  0  0
 31 32  2  0  0  0  0
 40 41  1  0  0  0  0
 41 49  1  0  0  0  0
 41 42  2  0  0  0  0
 50 53  1  0  0  0  0
 30 33  1  0  0  0  0
 59 60  1  0  0  0  0
 17 18  1  0  0  0  0
  8 11  1  0  0  0  0
 11 12  1  0  0  0  0
 40 43  1  0  0  0  0
 43 44  1  0  0  0  0
 49 50  1  0  0  0  0
  7  8  1  0  0  0  0
 29 30  1  0  0  0  0
 39 40  1  0  0  0  0
 12 44  1  0  0  0  0
  3  4  1  0  0  0  0
  3  5  1  0  0  0  0
  3  6  1  0  0  0  0
 25 26  1  0  0  0  0
 25 27  1  0  0  0  0
 25 28  1  0  0  0  0
 53 56  1  0  0  0  0
 53 57  1  0  0  0  0
 53 58  1  0  0  0  0
 33 36  1  0  0  0  0
 33 37  1  0  0  0  0
 33 38  1  0  0  0  0
 60 62  1  0  0  0  0
 60 63  1  0  0  0  0
 60 64  1  0  0  0  0
 18 20  1  0  0  0  0
 18 21  1  0  0  0  0
 18 22  1  0  0  0  0
 11 15  1  0  0  0  0
 11 16  1  0  0  0  0
 43 47  1  0  0  0  0
 43 48  1  0  0  0  0
 50 55  1  0  0  0  0
  8 14  1  0  0  0  0
 30 35  1  0  0  0  0
 40 46  1  0  0  0  0
 59 61  1  0  0  0  0
 17 19  1  0  0  0  0
  7 13  1  0  0  0  0
 29 34  1  0  0  0  0
 49 54  1  0  0  0  0
 39 45  1  0  0  0  0
M  END
$$$$

  -OEChem-05262214473D

 64 63  0     1  0  0  0  0  0999 V2000
    0.2407    6.0322   -7.9915 C   0  0  0  0  0  0  0  0  0  0  0  0
   -0.9612    6.2164   -8.1441 O   0  0  0  0  0  0  0  0  0  0  0  0
    1.1062    5.7949   -9.1844 C   0  0  0  0  0  0  0  0  0  0  0  0
    1.1874    4.7259   -9.4390 H   0  0  0  0  0  0  0  0  0  0  0  0
    0.7140    6.2813  -10.0919 H   0  0  0  0  0  0  0  0  0  0  0  0
    2.1449    6.1503   -9.0912 H   0  0  0  0  0  0  0  0  0  0  0  0
    0.9210    6.0198   -6.7861 N   0  0  0  0  0  0  0  0  0  0  0  0
    0.2788    6.2292   -5.5131 C   0  0  2  0  0  0  0  0  0  0  0  0
    1.2366    6.9853   -4.5946 C   0  0  0  0  0  0  0  0  0  0  0  0
    2.3996    7.2386   -4.9023 O   0  0  0  0  0  0  0  0  0  0  0  0
   -0.2453    4.9266   -4.9037 C   0  0  0  0  0  0  0  0  0  0  0  0
    1.0629    3.7170   -4.5193 S   0  0  0  0  0  0  0  0  0  0  0  0
    1.9249    5.8544   -6.7994 H   0  0  0  0  0  0  0  0  0  0  0  0
   -0.5734    6.8890   -5.7180 H   0  0  0  0  0  0  0  0  0  0  0  0
   -0.7882    5.1282   -3.9745 H   0  0  0  0  0  0  0  0  0  0  0  0
   -0.9438    4.4450   -5.5966 H   0  0  0  0  0  0  0  0  0  0  0  0
    0.6476    7.3206   -3.3837 N   0  0  0  0  0  0  0  0  0  0  0  0
    1.3590    8.0179   -2.3380 C   0  0  0  0  0  0  0  0  0  0  0  0
   -0.3340    7.1098   -3.2299 H   0  0  0  0  0  0  0  0  0  0  0  0
    1.8017    7.2874   -1.6450 H   0  0  0  0  0  0  0  0  0  0  0  0
    2.1565    8.6310   -2.7831 H   0  0  0  0  0  0  0  0  0  0  0  0
    0.6605    8.6670   -1.7894 H   0  0  0  0  0  0  0  0  0  0  0  0
   -6.7256    2.0330   -0.2766 C   0  0  0  0  0  0  0  0  0  0  0  0
   -7.1824    1.1039   -0.9322 O   0  0  0  0  0  0  0  0  0  0  0  0
   -7.5276    2.6077    0.8435 C   0  0  0  0  0  0  0  0  0  0  0  0
   -8.1775    3.4344    0.5145 H   0  0  0  0  0  0  0  0  0  0  0  0
   -8.2057    1.8676    1.2980 H   0  0  0  0  0  0  0  0  0  0  0  0
   -6.9411    3.0162    1.6819 H   0  0  0  0  0  0  0  0  0  0  0  0
   -5.4935    2.6382   -0.4627 N   0  0  0  0  0  0  0  0  0  0  0  0
   -4.5619    2.2388   -1.4845 C   0  0  2  0  0  0  0  0  0  0  0  0
   -3.1535    2.4674   -0.9521 C   0  0  0  0  0  0  0  0  0  0  0  0
   -2.8634    3.3945   -0.1987 O   0  0  0  0  0  0  0  0  0  0  0  0
   -4.7883    3.0138   -2.7732 C   0  0  0  0  0  0  0  0  0  0  0  0
   -5.2337    3.4049    0.1551 H   0  0  0  0  0  0  0  0  0  0  0  0
   -4.7192    1.1682   -1.6549 H   0  0  0  0  0  0  0  0  0  0  0  0
   -4.6352    4.0886   -2.6221 H   0  0  0  0  0  0  0  0  0  0  0  0
   -4.0976    2.6887   -3.5582 H   0  0  0  0  0  0  0  0  0  0  0  0
   -5.8111    2.8719   -3.1387 H   0  0  0  0  0  0  0  0  0  0  0  0
   -2.2466    1.5400   -1.4507 N   0  0  0  0  0  0  0  0  0  0  0  0
   -0.8424    1.5707   -1.1286 C   0  0  2  0  0  0  0  0  0  0  0  0
   -0.6844    1.8042    0.3725 C   0  0  0  0  0  0  0  0  0  0  0  0
   -1.6400    1.9571    1.1307 O   0  0  0  0  0  0  0  0  0  0  0  0
   -0.0703    2.5781   -1.9841 C   0  0  0  0  0  0  0  0  0  0  0  0
   -0.0366    2.1646   -3.7449 S   0  0  0  0  0  0  0  0  0  0  0  0
   -2.5850    0.7815   -2.0381 H   0  0  0  0  0  0  0  0  0  0  0  0
   -0.4676    0.5633   -1.3482 H   0  0  0  0  0  0  0  0  0  0  0  0
   -0.5084    3.5772   -1.8907 H   0  0  0  0  0  0  0  0  0  0  0  0
    0.9684    2.6396   -1.6419 H   0  0  0  0  0  0  0  0  0  0  0  0
    0.6474    1.8461    0.7598 N   0  0  0  0  0  0  0  0  0  0  0  0
    1.0545    2.0794    2.1257 C   0  0  2  0  0  0  0  0  0  0  0  0
    2.3766    2.8351    2.0999 C   0  0  0  0  0  0  0  0  0  0  0  0
    3.2329    2.6593    1.2357 O   0  0  0  0  0  0  0  0  0  0  0  0
    1.1897    0.7736    2.8935 C   0  0  0  0  0  0  0  0  0  0  0  0
    1.3738    1.6662    0.0730 H   0  0  0  0  0  0  0  0  0  0  0  0
    0.2827    2.7081    2.5828 H   0  0  0  0  0  0  0  0  0  0  0  0
    1.9586    0.1304    2.4502 H   0  0  0  0  0  0  0  0  0  0  0  0
    1.4706    0.9538    3.9364 H   0  0  0  0  0  0  0  0  0  0  0  0
    0.2461    0.2174    2.8857 H   0  0  0  0  0  0  0  0  0  0  0  0
    2.5059    3.6975    3.1796 N   0  0  0  0  0  0  0  0  0  0  0  0
    3.6889    4.4955    3.4026 C   0  0  0  0  0  0  0  0  0  0  0  0
    1.7298    3.8097    3.8252 H   0  0  0  0  0  0  0  0  0  0  0  0
    4.3813    3.9497    4.0604 H   0  0  0  0  0  0  0  0  0  0  0  0
    4.1809    4.6985    2.4400 H   0  0  0  0  0  0  0  0  0  0  0  0
    3.4054    5.4465    3.8773 H   0  0  0  0  0  0  0  0  0  0  0  0
  1  3  1  0  0  0  0
  1  7  1  0  0  0  0
  1  2  2  0  0  0  0
 23 25  1  0  0  0  0
 23 29  1  0  0  0  0
 23 24  2  0  0  0  0
 50 51  1  0  0  0  0
 51 59  1  0  0  0  0
 51 52  2  0  0  0  0
  8  9  1  0  0  0  0
  9 17  1  0  0  0  0
  9 10  2  0  0  0  0
 30 31  1  0  0  0  0
 31 39  1  0  0  0  0
 31 32  2  0  0  0  0
 40 41  1  0  0  0  0
 41 49  1  0  0  0  0
 41 42  2  0  0  0  0
 50 53  1  0  0  0  0
 30 33  1  0  0  0  0
 59 60  1  0  0  0  0
 17 18  1  0  0  0  0
  8 11  1  0  0  0  0
 11 12  1  0  0  0  0
 40 43  1  0  0  0  0
 43 44  1  0  0  0  0
 49 50  1  0  0  0  0
  7  8  1  0  0  0  0
 29 30  1  0  0  0  0
 39 40  1  0  0  0  0
 12 44  1  0  0  0  0
  3  4  1  0  0  0  0
  3  5  1  0  0  0  0
  3  6  1  0  0  0  0
 25 26  1  0  0  0  0
 25 27  1  0  0  0  0
 25 28  1  0  0  0  0
 53 56  1  0  0  0  0
 53 57  1  0  0  0  0
 53 58  1  0  0  0  0
 33 36  1  0  0  0  0
 33 37  1  0  0  0  0
 33 38  1  0  0  0  0
 60 62  1  0  0  0  0
 60 63  1  0  0  0  0
 60 64  1  0  0  0  0
 18 20  1  0  0  0  0
 18 21  1  0  0  0  0
 18 22  1  0  0  0  0
 11 15  1  0  0  0  0
 11 16  1  0  0  0  0
 43 47  1  0  0  0  0
 43 48  1  0  0  0  0
 50 55  1  0  0  0  0
  8 14  1  0  0  0  0
 30 35  1  0  0  0  0
 40 46  1  0  0  0  0
 59 61  1  0  0  0  0
 17 19  1  0  0  0  0
  7 13  1  0  0  0  0
 29 34  1  0  0  0  0
 49 54  1  0  0  0  0
 39 45  1  0  0  0  0
M  END
$$$$

  -OEChem-05262214473D

 64 63  0     1  0  0  0  0  0999 V2000
    0.2407    6.0322   -7.9915 C   0  0  0  0  0  0  0  0  0  0  0  0
   -0.9612    6.2164   -8.1441 O   0  0  0  0  0  0  0  0  0  0  0  0
    1.1062    5.7949   -9.1844 C   0  0  0  0  0  0  0  0  0  0  0  0
    1.1874    4.7259   -9.4390 H   0  0  0  0  0  0  0  0  0  0  0  0
    0.7140    6.2813  -10.0919 H   0  0  0  0  0  0  0  0  0  0  0  0
    2.1449    6.1503   -9.0912 H   0  0  0  0  0  0  0  0  0  0  0  0
    0.9210    6.0198   -6.7861 N   0  0  0  0  0  0  0  0  0  0  0  0
    0.2788    6.2292   -5.5131 C   0  0  2  0  0  0  0  0  0  0  0  0
    1.2366    6.9853   -4.5946 C   0  0  0  0  0  0  0  0  0  0  0  0
    2.3996    7.2386   -4.9023 O   0  0  0  0  0  0  0  0  0  0  0  0
   -0.2453    4.9266   -4.9037 C   0  0  0  0  0  0  0  0  0  0  0  0
    1.0629    3.7170   -4.5193 S   0  0  0  0  0  0  0  0  0  0  0  0
    1.9249    5.8544   -6.7994 H   0  0  0  0  0  0  0  0  0  0  0  0
   -0.5734    6.8890   -5.7180 H   0  0  0  0  0  0  0  0  0  0  0  0
   -0.7882    5.1282   -3.9745 H   0  0  0  0  0  0  0  0  0  0  0  0
   -0.9438    4.4450   -5.5966 H   0  0  0  0  0  0  0  0  0  0  0  0
    0.6476    7.3206   -3.3837 N   0  0  0  0  0  0  0  0  0  0  0  0
    1.3590    8.0179   -2.3380 C   0  0  0  0  0  0  0  0  0  0  0  0
   -0.3340    7.1098   -3.2299 H   0  0  0  0  0  0  0  0  0  0  0  0
    1.8017    7.2874   -1.6450 H   0  0  0  0  0  0  0  0  0  0  0  0
    2.1565    8.6310   -2.7831 H   0  0  0  0  0  0  0  0  0  0  0  0
    0.6605    8.6670   -1.7894 H   0  0  0  0  0  0  0  0  0  0  0  0
   -6.7256    2.0330   -0.2766 C   0  0  0  0  0  0  0  0  0  0  0  0
   -7.1824    1.1039   -0.9322 O   0  0  0  0  0  0  0  0  0  0  0  0
   -7.5276    2.6077    0.8435 C   0  0  0  0  0  0  0  0  0  0  0  0
   -8.1775    3.4344    0.5145 H   0  0  0  0  0  0  0  0  0  0  0  0
   -8.2057    1.8676    1.2980 H   0  0  0  0  0  0  0  0  0  0  0  0
   -6.9411    3.0162    1.6819 H   0  0  0  0  0  0  0  0  0  0  0  0
   -5.4935    2.6382   -0.4627 N   0  0  0  0  0  0  0  0  0  0  0  0
   -4.5619    2.2388   -1.4845 C   0  0  2  0  0  0  0  0  0  0  0  0
   -3.1535    2.4674   -0.9521 C   0  0  0  0  0  0  0  0  0  0  0  0
   -2.8634    3.3945   -0.1987 O   0  0  0  0  0  0  0  0  0  0  0  0
   -4.7883    3.0138   -2.7732 C   0  0  0  0  0  0  0  0  0  0  0  0
   -5.2337    3.4049    0.1551 H   0  0  0  0  0  0  0  0  0  0  0  0
   -4.7192    1.1682   -1.6549 H   0  0  0  0  0  0  0  0  0  0  0  0
   -4.6352    4.0886   -2.6221 H   0  0  0  0  0  0  0  0  0  0  0  0
   -4.0976    2.6887   -3.5582 H   0  0  0  0  0  0  0  0  0  0  0  0
   -5.8111    2.8719   -3.1387 H   0  0  0  0  0  0  0  0  0  0  0  0
   -2.2466    1.5400   -1.4507 N   0  0  0  0  0  0  0  0  0  0  0  0
   -0.8424    1.5707   -1.1286 C   0  0  2  0  0  0  0  0  0  0  0  0
   -0.6844    1.8042    0.3725 C   0  0  0  0  0  0  0  0  0  0  0  0
   -1.6140    1.6920    1.1692 O   0  0  0  0  0  0  0  0  0  0  0  0
   -0.0703    2.5781   -1.9841 C   0  0  0  0  0  0  0  0  0  0  0  0
   -0.0366    2.1646   -3.7449 S   0  0  0  0  0  0  0  0  0  0  0  0
   -2.5850    0.7815   -2.0381 H   0  0  0  0  0  0  0  0  0  0  0  0
   -0.4676    0.5633   -1.3482 H   0  0  0  0  0  0  0  0  0  0  0  0
   -0.5084    3.5772   -1.8907 H   0  0  0  0  0  0  0  0  0  0  0  0
    0.9684    2.6396   -1.6419 H   0  0  0  0  0  0  0  0  0  0  0  0
    0.6086    2.1758    0.7127 N   0  0  0  0  0  0  0  0  0  0  0  0
    1.0015    2.4755    2.0697 C   0  0  2  0  0  0  0  0  0  0  0  0
    2.0860    3.5436    2.0203 C   0  0  0  0  0  0  0  0  0  0  0  0
    2.9210    3.6107    1.1206 O   0  0  0  0  0  0  0  0  0  0  0  0
    1.4966    1.2311    2.7901 C   0  0  0  0  0  0  0  0  0  0  0  0
    1.3265    2.2019   -0.0054 H   0  0  0  0  0  0  0  0  0  0  0  0
    0.1157    2.8767    2.5742 H   0  0  0  0  0  0  0  0  0  0  0  0
    2.3838    0.8148    2.2990 H   0  0  0  0  0  0  0  0  0  0  0  0
    1.7672    1.4543    3.8274 H   0  0  0  0  0  0  0  0  0  0  0  0
    0.7257    0.4530    2.7986 H   0  0  0  0  0  0  0  0  0  0  0  0
    2.0385    4.3869    3.1216 N   0  0  0  0  0  0  0  0  0  0  0  0
    2.9887    5.4551    3.3271 C   0  0  0  0  0  0  0  0  0  0  0  0
    1.2879    4.2836    3.7980 H   0  0  0  0  0  0  0  0  0  0  0  0
    3.8246    5.0897    3.9417 H   0  0  0  0  0  0  0  0  0  0  0  0
    3.3712    5.7976    2.3543 H   0  0  0  0  0  0  0  0  0  0  0  0
    2.4937    6.2919    3.8418 H   0  0  0  0  0  0  0  0  0  0  0  0
  1  3  1  0  0  0  0
  1  7  1  0  0  0  0
  1  2  2  0  0  0  0
 23 25  1  0  0  0  0
 23 29  1  0  0  0  0
 23 24  2  0  0  0  0
 50 51  1  0  0  0  0
 51 59  1  0  0  0  0
 51 52  2  0  0  0  0
  8  9  1  0  0  0  0
  9 17  1  0  0  0  0
  9 10  2  0  0  0  0
 30 31  1  0  0  0  0
 31 39  1  0  0  0  0
 31 32  2  0  0  0  0
 40 41  1  0  0  0  0
 41 49  1  0  0  0  0
 41 42  2  0  0  0  0
 50 53  1  0  0  0  0
 30 33  1  0  0  0  0
 59 60  1  0  0  0  0
 17 18  1  0  0  0  0
  8 11  1  0  0  0  0
 11 12  1  0  0  0  0
 40 43  1  0  0  0  0
 43 44  1  0  0  0  0
 49 50  1  0  0  0  0
  7  8  1  0  0  0  0
 29 30  1  0  0  0  0
 39 40  1  0  0  0  0
 12 44  1  0  0  0  0
  3  4  1  0  0  0  0
  3  5  1  0  0  0  0
  3  6  1  0  0  0  0
 25 26  1  0  0  0  0
 25 27  1  0  0  0  0
 25 28  1  0  0  0  0
 53 56  1  0  0  0  0
 53 57  1  0  0  0  0
 53 58  1  0  0  0  0
 33 36  1  0  0  0  0
 33 37  1  0  0  0  0
 33 38  1  0  0  0  0
 60 62  1  0  0  0  0
 60 63  1  0  0  0  0
 60 64  1  0  0  0  0
 18 20  1  0  0  0  0
 18 21  1  0  0  0  0
 18 22  1  0  0  0  0
 11 15  1  0  0  0  0
 11 16  1  0  0  0  0
 43 47  1  0  0  0  0
 43 48  1  0  0  0  0
 50 55  1  0  0  0  0
  8 14  1  0  0  0  0
 30 35  1  0  0  0  0
 40 46  1  0  0  0  0
 59 61  1  0  0  0  0
 17 19  1  0  0  0  0
  7 13  1  0  0  0  0
 29 34  1  0  0  0  0
 49 54  1  0  0  0  0
 39 45  1  0  0  0  0
M  END
$$$$

  -OEChem-05262214473D

 64 63  0     1  0  0  0  0  0999 V2000
    0.2407    6.0322   -7.9915 C   0  0  0  0  0  0  0  0  0  0  0  0
   -0.9612    6.2164   -8.1441 O   0  0  0  0  0  0  0  0  0  0  0  0
    1.1062    5.7949   -9.1844 C   0  0  0  0  0  0  0  0  0  0  0  0
    1.1874    4.7259   -9.4390 H   0  0  0  0  0  0  0  0  0  0  0  0
    0.7140    6.2813  -10.0919 H   0  0  0  0  0  0  0  0  0  0  0  0
    2.1449    6.1503   -9.0912 H   0  0  0  0  0  0  0  0  0  0  0  0
    0.9210    6.0198   -6.7861 N   0  0  0  0  0  0  0  0  0  0  0  0
    0.2788    6.2292   -5.5131 C   0  0  2  0  0  0  0  0  0  0  0  0
    1.2366    6.9853   -4.5946 C   0  0  0  0  0  0  0  0  0  0  0  0
    2.3996    7.2386   -4.9023 O   0  0  0  0  0  0  0  0  0  0  0  0
   -0.2453    4.9266   -4.9037 C   0  0  0  0  0  0  0  0  0  0  0  0
    1.0629    3.7170   -4.5193 S   0  0  0  0  0  0  0  0  0  0  0  0
    1.9249    5.8544   -6.7994 H   0  0  0  0  0  0  0  0  0  0  0  0
   -0.5734    6.8890   -5.7180 H   0  0  0  0  0  0  0  0  0  0  0  0
   -0.7882    5.1282   -3.9745 H   0  0  0  0  0  0  0  0  0  0  0  0
   -0.9438    4.4450   -5.5966 H   0  0  0  0  0  0  0  0  0  0  0  0
    0.6476    7.3206   -3.3837 N   0  0  0  0  0  0  0  0  0  0  0  0
    1.3590    8.0179   -2.3380 C   0  0  0  0  0  0  0  0  0  0  0  0
   -0.3340    7.1098   -3.2299 H   0  0  0  0  0  0  0  0  0  0  0  0
    1.8017    7.2874   -1.6450 H   0  0  0  0  0  0  0  0  0  0  0  0
    2.1565    8.6310   -2.7831 H   0  0  0  0  0  0  0  0  0  0  0  0
    0.6605    8.6670   -1.7894 H   0  0  0  0  0  0  0  0  0  0  0  0
   -6.7256    2.0330   -0.2766 C   0  0  0  0  0  0  0  0  0  0  0  0
   -7.1824    1.1039   -0.9322 O   0  0  0  0  0  0  0  0  0  0  0  0
   -7.5276    2.6077    0.8435 C   0  0  0  0  0  0  0  0  0  0  0  0
   -8.1775    3.4344    0.5145 H   0  0  0  0  0  0  0  0  0  0  0  0
   -8.2057    1.8676    1.2980 H   0  0  0  0  0  0  0  0  0  0  0  0
   -6.9411    3.0162    1.6819 H   0  0  0  0  0  0  0  0  0  0  0  0
   -5.4935    2.6382   -0.4627 N   0  0  0  0  0  0  0  0  0  0  0  0
   -4.5619    2.2388   -1.4845 C   0  0  2  0  0  0  0  0  0  0  0  0
   -3.1535    2.4674   -0.9521 C   0  0  0  0  0  0  0  0  0  0  0  0
   -2.8634    3.3945   -0.1987 O   0  0  0  0  0  0  0  0  0  0  0  0
   -4.7883    3.0138   -2.7732 C   0  0  0  0  0  0  0  0  0  0  0  0
   -5.2337    3.4049    0.1551 H   0  0  0  0  0  0  0  0  0  0  0  0
   -4.7192    1.1682   -1.6549 H   0  0  0  0  0  0  0  0  0  0  0  0
   -4.6352    4.0886   -2.6221 H   0  0  0  0  0  0  0  0  0  0  0  0
   -4.0976    2.6887   -3.5582 H   0  0  0  0  0  0  0  0  0  0  0  0
   -5.8111    2.8719   -3.1387 H   0  0  0  0  0  0  0  0  0  0  0  0
   -2.2466    1.5400   -1.4507 N   0  0  0  0  0  0  0  0  0  0  0  0
   -0.8424    1.5707   -1.1286 C   0  0  2  0  0  0  0  0  0  0  0  0
   -0.6844    1.8042    0.3725 C   0  0  0  0  0  0  0  0  0  0  0  0
   -1.5199    1.4415    1.1982 O   0  0  0  0  0  0  0  0  0  0  0  0
   -0.0703    2.5781   -1.9841 C   0  0  0  0  0  0  0  0  0  0  0  0
   -0.0366    2.1646   -3.7449 S   0  0  0  0  0  0  0  0  0  0  0  0
   -2.5850    0.7815   -2.0381 H   0  0  0  0  0  0  0  0  0  0  0  0
   -0.4676    0.5633   -1.3482 H   0  0  0  0  0  0  0  0  0  0  0  0
   -0.5084    3.5772   -1.8907 H   0  0  0  0  0  0  0  0  0  0  0  0
    0.9684    2.6396   -1.6419 H   0  0  0  0  0  0  0  0  0  0  0  0
    0.4853    2.4857    0.6774 N   0  0  0  0  0  0  0  0  0  0  0  0
    0.8473    2.8462    2.0283 C   0  0  2  0  0  0  0  0  0  0  0  0
    1.6220    4.1562    1.9739 C   0  0  0  0  0  0  0  0  0  0  0  0
    2.3731    4.4534    1.0473 O   0  0  0  0  0  0  0  0  0  0  0  0
    1.6726    1.7537    2.6902 C   0  0  0  0  0  0  0  0  0  0  0  0
    1.1415    2.7095   -0.0648 H   0  0  0  0  0  0  0  0  0  0  0  0
   -0.0888    2.9973    2.5770 H   0  0  0  0  0  0  0  0  0  0  0  0
    2.6144    1.5881    2.1545 H   0  0  0  0  0  0  0  0  0  0  0  0
    1.9220    2.0160    3.7237 H   0  0  0  0  0  0  0  0  0  0  0  0
    1.1255    0.8048    2.7018 H   0  0  0  0  0  0  0  0  0  0  0  0
    1.4094    4.9355    3.1025 N   0  0  0  0  0  0  0  0  0  0  0  0
    2.0652    6.2059    3.3076 C   0  0  0  0  0  0  0  0  0  0  0  0
    0.7394    4.6297    3.8020 H   0  0  0  0  0  0  0  0  0  0  0  0
    2.9922    6.0525    3.8796 H   0  0  0  0  0  0  0  0  0  0  0  0
    2.3061    6.6556    2.3330 H   0  0  0  0  0  0  0  0  0  0  0  0
    1.3967    6.8775    3.8662 H   0  0  0  0  0  0  0  0  0  0  0  0
  1  3  1  0  0  0  0
  1  7  1  0  0  0  0
  1  2  2  0  0  0  0
 23 25  1  0  0  0  0
 23 29  1  0  0  0  0
 23 24  2  0  0  0  0
 50 51  1  0  0  0  0
 51 59  1  0  0  0  0
 51 52  2  0  0  0  0
  8  9  1  0  0  0  0
  9 17  1  0  0  0  0
  9 10  2  0  0  0  0
 30 31  1  0  0  0  0
 31 39  1  0  0  0  0
 31 32  2  0  0  0  0
 40 41  1  0  0  0  0
 41 49  1  0  0  0  0
 41 42  2  0  0  0  0
 50 53  1  0  0  0  0
 30 33  1  0  0  0  0
 59 60  1  0  0  0  0
 17 18  1  0  0  0  0
  8 11  1  0  0  0  0
 11 12  1  0  0  0  0
 40 43  1  0  0  0  0
 43 44  1  0  0  0  0
 49 50  1  0  0  0  0
  7  8  1  0  0  0  0
 29 30  1  0  0  0  0
 39 40  1  0  0  0  0
 12 44  1  0  0  0  0
  3  4  1  0  0  0  0
  3  5  1  0  0  0  0
  3  6  1  0  0  0  0
 25 26  1  0  0  0  0
 25 27  1  0  0  0  0
 25 28  1  0  0  0  0
 53 56  1  0  0  0  0
 53 57  1  0  0  0  0
 53 58  1  0  0  0  0
 33 36  1  0  0  0  0
 33 37  1  0  0  0  0
 33 38  1  0  0  0  0
 60 62  1  0  0  0  0
 60 63  1  0  0  0  0
 60 64  1  0  0  0  0
 18 20  1  0  0  0  0
 18 21  1  0  0  0  0
 18 22  1  0  0  0  0
 11 15  1  0  0  0  0
 11 16  1  0  0  0  0
 43 47  1  0  0  0  0
 43 48  1  0  0  0  0
 50 55  1  0  0  0  0
  8 14  1  0  0  0  0
 30 35  1  0  0  0  0
 40 46  1  0  0  0  0
 59 61  1  0  0  0  0
 17 19  1  0  0  0  0
  7 13  1  0  0  0  0
 29 34  1  0  0  0  0
 49 54  1  0  0  0  0
 39 45  1  0  0  0  0
M  END
$$$$

  -OEChem-05262214473D

 64 63  0     1  0  0  0  0  0999 V2000
    0.2407    6.0322   -7.9915 C   0  0  0  0  0  0  0  0  0  0  0  0
   -0.9612    6.2164   -8.1441 O   0  0  0  0  0  0  0  0  0  0  0  0
    1.1062    5.7949   -9.1844 C   0  0  0  0  0  0  0  0  0  0  0  0
    1.1874    4.7259   -9.4390 H   0  0  0  0  0  0  0  0  0  0  0  0
    0.7140    6.2813  -10.0919 H   0  0  0  0  0  0  0  0  0  0  0  0
    2.1449    6.1503   -9.0912 H   0  0  0  0  0  0  0  0  0  0  0  0
    0.9210    6.0198   -6.7861 N   0  0  0  0  0  0  0  0  0  0  0  0
    0.2788    6.2292   -5.5131 C   0  0  2  0  0  0  0  0  0  0  0  0
    1.2366    6.9853   -4.5946 C   0  0  0  0  0  0  0  0  0  0  0  0
    2.3996    7.2386   -4.9023 O   0  0  0  0  0  0  0  0  0  0  0  0
   -0.2453    4.9266   -4.9037 C   0  0  0  0  0  0  0  0  0  0  0  0
    1.0629    3.7170   -4.5193 S   0  0  0  0  0  0  0  0  0  0  0  0
    1.9249    5.8544   -6.7994 H   0  0  0  0  0  0  0  0  0  0  0  0
   -0.5734    6.8890   -5.7180 H   0  0  0  0  0  0  0  0  0  0  0  0
   -0.7882    5.1282   -3.9745 H   0  0  0  0  0  0  0  0  0  0  0  0
   -0.9438    4.4450   -5.5966 H   0  0  0  0  0  0  0  0  0  0  0  0
    0.6476    7.3206   -3.3837 N   0  0  0  0  0  0  0  0  0  0  0  0
    1.3590    8.0179   -2.3380 C   0  0  0  0  0  0  0  0  0  0  0  0
   -0.3340    7.1098   -3.2299 H   0  0  0  0  0  0  0  0  0  0  0  0
    1.8017    7.2874   -1.6450 H   0  0  0  0  0  0  0  0  0  0  0  0
    2.1565    8.6310   -2.7831 H   0  0  0  0  0  0  0  0  0  0  0  0
    0.6605    8.6670   -1.7894 H   0  0  0  0  0  0  0  0  0  0  0  0
   -6.7256    2.0330   -0.2766 C   0  0  0  0  0  0  0  0  0  0  0  0
   -7.1824    1.1039   -0.9322 O   0  0  0  0  0  0  0  0  0  0  0  0
   -7.5276    2.6077    0.8435 C   0  0  0  0  0  0  0  0  0  0  0  0
   -8.1775    3.4344    0.5145 H   0  0  0  0  0  0  0  0  0  0  0  0
   -8.2057    1.8676    1.2980 H   0  0  0  0  0  0  0  0  0  0  0  0
   -6.9411    3.0162    1.6819 H   0  0  0  0  0  0  0  0  0  0  0  0
   -5.4935    2.6382   -0.4627 N   0  0  0  0  0  0  0  0  0  0  0  0
   -4.5619    2.2388   -1.4845 C   0  0  2  0  0  0  0  0  0  0  0  0
   -3.1535    2.4674   -0.9521 C   0  0  0  0  0  0  0  0  0  0  0  0
   -2.8634    3.3945   -0.1987 O   0  0  0  0  0  0  0  0  0  0  0  0
   -4.7883    3.0138   -2.7732 C   0  0  0  0  0  0  0  0  0  0  0  0
   -5.2337    3.4049    0.1551 H   0  0  0  0  0  0  0  0  0  0  0  0
   -4.7192    1.1682   -1.6549 H   0  0  0  0  0  0  0  0  0  0  0  0
   -4.6352    4.0886   -2.6221 H   0  0  0  0  0  0  0  0  0  0  0  0
   -4.0976    2.6887   -3.5582 H   0  0  0  0  0  0  0  0  0  0  0  0
   -5.8111    2.8719   -3.1387 H   0  0  0  0  0  0  0  0  0  0  0  0
   -2.2466    1.5400   -1.4507 N   0  0  0  0  0  0  0  0  0  0  0  0
   -0.8424    1.5707   -1.1286 C   0  0  2  0  0  0  0  0  0  0  0  0
   -0.6844    1.8042    0.3725 C   0  0  0  0  0  0  0  0  0  0  0  0
   -1.3642    1.2227    1.2158 O   0  0  0  0  0  0  0  0  0  0  0  0
   -0.0703    2.5781   -1.9841 C   0  0  0  0  0  0  0  0  0  0  0  0
   -0.0366    2.1646   -3.7449 S   0  0  0  0  0  0  0  0  0  0  0  0
   -2.5850    0.7815   -2.0381 H   0  0  0  0  0  0  0  0  0  0  0  0
   -0.4676    0.5633   -1.3482 H   0  0  0  0  0  0  0  0  0  0  0  0
   -0.5084    3.5772   -1.8907 H   0  0  0  0  0  0  0  0  0  0  0  0
    0.9684    2.6396   -1.6419 H   0  0  0  0  0  0  0  0  0  0  0  0
    0.2860    2.7546    0.6566 N   0  0  0  0  0  0  0  0  0  0  0  0
    0.6024    3.1661    2.0043 C   0  0  2  0  0  0  0  0  0  0  0  0
    1.0161    4.6312    1.9638 C   0  0  0  0  0  0  0  0  0  0  0  0
    1.6266    5.1300    1.0206 O   0  0  0  0  0  0  0  0  0  0  0  0
    1.7056    2.3060    2.6009 C   0  0  0  0  0  0  0  0  0  0  0  0
    0.8313    3.1543   -0.1013 H   0  0  0  0  0  0  0  0  0  0  0  0
   -0.3169    3.0616    2.5910 H   0  0  0  0  0  0  0  0  0  0  0  0
    2.6347    2.3976    2.0264 H   0  0  0  0  0  0  0  0  0  0  0  0
    1.9245    2.6008    3.6325 H   0  0  0  0  0  0  0  0  0  0  0  0
    1.4183    1.2490    2.6019 H   0  0  0  0  0  0  0  0  0  0  0  0
    0.6614    5.3059    3.1236 N   0  0  0  0  0  0  0  0  0  0  0  0
    0.9815    6.6967    3.3453 C   0  0  0  0  0  0  0  0  0  0  0  0
    0.1217    4.8243    3.8367 H   0  0  0  0  0  0  0  0  0  0  0  0
    1.9408    6.7723    3.8783 H   0  0  0  0  0  0  0  0  0  0  0  0
    1.0582    7.2140    2.3776 H   0  0  0  0  0  0  0  0  0  0  0  0
    0.1891    7.1635    3.9488 H   0  0  0  0  0  0  0  0  0  0  0  0
  1  3  1  0  0  0  0
  1  7  1  0  0  0  0
  1  2  2  0  0  0  0
 23 25  1  0  0  0  0
 23 29  1  0  0  0  0
 23 24  2  0  0  0  0
 50 51  1  0  0  0  0
 51 59  1  0  0  0  0
 51 52  2  0  0  0  0
  8  9  1  0  0  0  0
  9 17  1  0  0  0  0
  9 10  2  0  0  0  0
 30 31  1  0  0  0  0
 31 39  1  0  0  0  0
 31 32  2  0  0  0  0
 40 41  1  0  0  0  0
 41 49  1  0  0  0  0
 41 42  2  0  0  0  0
 50 53  1  0  0  0  0
 30 33  1  0  0  0  0
 59 60  1  0  0  0  0
 17 18  1  0  0  0  0
  8 11  1  0  0  0  0
 11 12  1  0  0  0  0
 40 43  1  0  0  0  0
 43 44  1  0  0  0  0
 49 50  1  0  0  0  0
  7  8  1  0  0  0  0
 29 30  1  0  0  0  0
 39 40  1  0  0  0  0
 12 44  1  0  0  0  0
  3  4  1  0  0  0  0
  3  5  1  0  0  0  0
  3  6  1  0  0  0  0
 25 26  1  0  0  0  0
 25 27  1  0  0  0  0
 25 28  1  0  0  0  0
 53 56  1  0  0  0  0
 53 57  1  0  0  0  0
 53 58  1  0  0  0  0
 33 36  1  0  0  0  0
 33 37  1  0  0  0  0
 33 38  1  0  0  0  0
 60 62  1  0  0  0  0
 60 63  1  0  0  0  0
 60 64  1  0  0  0  0
 18 20  1  0  0  0  0
 18 21  1  0  0  0  0
 18 22  1  0  0  0  0
 11 15  1  0  0  0  0
 11 16  1  0  0  0  0
 43 47  1  0  0  0  0
 43 48  1  0  0  0  0
 50 55  1  0  0  0  0
  8 14  1  0  0  0  0
 30 35  1  0  0  0  0
 40 46  1  0  0  0  0
 59 61  1  0  0  0  0
 17 19  1  0  0  0  0
  7 13  1  0  0  0  0
 29 34  1  0  0  0  0
 49 54  1  0  0  0  0
 39 45  1  0  0  0  0
M  END
$$$$

  -OEChem-05262214473D

 64 63  0     1  0  0  0  0  0999 V2000
    0.2407    6.0322   -7.9915 C   0  0  0  0  0  0  0  0  0  0  0  0
   -0.9612    6.2164   -8.1441 O   0  0  0  0  0  0  0  0  0  0  0  0
    1.1062    5.7949   -9.1844 C   0  0  0  0  0  0  0  0  0  0  0  0
    1.1874    4.7259   -9.4390 H   0  0  0  0  0  0  0  0  0  0  0  0
    0.7140    6.2813  -10.0919 H   0  0  0  0  0  0  0  0  0  0  0  0
    2.1449    6.1503   -9.0912 H   0  0  0  0  0  0  0  0  0  0  0  0
    0.9210    6.0198   -6.7861 N   0  0  0  0  0  0  0  0  0  0  0  0
    0.2788    6.2292   -5.5131 C   0  0  2  0  0  0  0  0  0  0  0  0
    1.2366    6.9853   -4.5946 C   0  0  0  0  0  0  0  0  0  0  0  0
    2.3996    7.2386   -4.9023 O   0  0  0  0  0  0  0  0  0  0  0  0
   -0.2453    4.9266   -4.9037 C   0  0  0  0  0  0  0  0  0  0  0  0
    1.0629    3.7170   -4.5193 S   0  0  0  0  0  0  0  0  0  0  0  0
    1.9249    5.8544   -6.7994 H   0  0  0  0  0  0  0  0  0  0  0  0
   -0.5734    6.8890   -5.7180 H   0  0  0  0  0  0  0  0  0  0  0  0
   -0.7882    5.1282   -3.9745 H   0  0  0  0  0  0  0  0  0  0  0  0
   -0.9438    4.4450   -5.5966 H   0  0  0  0  0  0  0  0  0  0  0  0
    0.6476    7.3206   -3.3837 N   0  0  0  0  0  0  0  0  0  0  0  0
    1.3590    8.0179   -2.3380 C   0  0  0  0  0  0  0  0  0  0  0  0
   -0.3340    7.1098   -3.2299 H   0  0  0  0  0  0  0  0  0  0  0  0
    1.8017    7.2874   -1.6450 H   0  0  0  0  0  0  0  0  0  0  0  0
    2.1565    8.6310   -2.7831 H   0  0  0  0  0  0  0  0  0  0  0  0
    0.6605    8.6670   -1.7894 H   0  0  0  0  0  0  0  0  0  0  0  0
   -6.7256    2.0330   -0.2766 C   0  0  0  0  0  0  0  0  0  0  0  0
   -7.1824    1.1039   -0.9322 O   0  0  0  0  0  0  0  0  0  0  0  0
   -7.5276    2.6077    0.8435 C   0  0  0  0  0  0  0  0  0  0  0  0
   -8.1775    3.4344    0.5145 H   0  0  0  0  0  0  0  0  0  0  0  0
   -8.2057    1.8676    1.2980 H   0  0  0  0  0  0  0  0  0  0  0  0
   -6.9411    3.0162    1.6819 H   0  0  0  0  0  0  0  0  0  0  0  0
   -5.4935    2.6382   -0.4627 N   0  0  0  0  0  0  0  0  0  0  0  0
   -4.5619    2.2388   -1.4845 C   0  0  2  0  0  0  0  0  0  0  0  0
   -3.1535    2.4674   -0.9521 C   0  0  0  0  0  0  0  0  0  0  0  0
   -2.8634    3.3945   -0.1987 O   0  0  0  0  0  0  0  0  0  0  0  0
   -4.7883    3.0138   -2.7732 C   0  0  0  0  0  0  0  0  0  0  0  0
   -5.2337    3.4049    0.1551 H   0  0  0  0  0  0  0  0  0  0  0  0
   -4.7192    1.1682   -1.6549 H   0  0  0  0  0  0  0  0  0  0  0  0
   -4.6352    4.0886   -2.6221 H   0  0  0  0  0  0  0  0  0  0  0  0
   -4.0976    2.6887   -3.5582 H   0  0  0  0  0  0  0  0  0  0  0  0
   -5.8111    2.8719   -3.1387 H   0  0  0  0  0  0  0  0  0  0  0  0
   -2.2466    1.5400   -1.4507 N   0  0  0  0  0  0  0  0  0  0  0  0
   -0.8424    1.5707   -1.1286 C   0  0  2  0  0  0  0  0  0  0  0  0
   -0.6844    1.8042    0.3725 C   0  0  0  0  0  0  0  0  0  0  0  0
   -1.1574    1.0505    1.2208 O   0  0  0  0  0  0  0  0  0  0  0  0
   -0.0703    2.5781   -1.9841 C   0  0  0  0  0  0  0  0  0  0  0  0
   -0.0366    2.1646   -3.7449 S   0  0  0  0  0  0  0  0  0  0  0  0
   -2.5850    0.7815   -2.0381 H   0  0  0  0  0  0  0  0  0  0  0  0
   -0.4676    0.5633   -1.3482 H   0  0  0  0  0  0  0  0  0  0  0  0
   -0.5084    3.5772   -1.8907 H   0  0  0  0  0  0  0  0  0  0  0  0
    0.9684    2.6396   -1.6419 H   0  0  0  0  0  0  0  0  0  0  0  0
    0.0242    2.9641    0.6516 N   0  0  0  0  0  0  0  0  0  0  0  0
    0.2835    3.4134    1.9994 C   0  0  2  0  0  0  0  0  0  0  0  0
    0.3096    4.9361    1.9908 C   0  0  0  0  0  0  0  0  0  0  0  0
    0.7323    5.5944    1.0425 O   0  0  0  0  0  0  0  0  0  0  0  0
    1.5936    2.8503    2.5280 C   0  0  0  0  0  0  0  0  0  0  0  0
    0.4171    3.5060   -0.1124 H   0  0  0  0  0  0  0  0  0  0  0  0
   -0.5530    3.0654    2.6152 H   0  0  0  0  0  0  0  0  0  0  0  0
    2.4433    3.1881    1.9236 H   0  0  0  0  0  0  0  0  0  0  0  0
    1.7746    3.1687    3.5600 H   0  0  0  0  0  0  0  0  0  0  0  0
    1.5843    1.7552    2.5057 H   0  0  0  0  0  0  0  0  0  0  0  0
   -0.1544    5.4729    3.1835 N   0  0  0  0  0  0  0  0  0  0  0  0
   -0.1887    6.8942    3.4378 C   0  0  0  0  0  0  0  0  0  0  0  0
   -0.5230    4.8542    3.8999 H   0  0  0  0  0  0  0  0  0  0  0  0
    0.7420    7.2002    3.9380 H   0  0  0  0  0  0  0  0  0  0  0  0
   -0.2875    7.4347    2.4849 H   0  0  0  0  0  0  0  0  0  0  0  0
   -1.0469    7.1304    4.0841 H   0  0  0  0  0  0  0  0  0  0  0  0
  1  3  1  0  0  0  0
  1  7  1  0  0  0  0
  1  2  2  0  0  0  0
 23 25  1  0  0  0  0
 23 29  1  0  0  0  0
 23 24  2  0  0  0  0
 50 51  1  0  0  0  0
 51 59  1  0  0  0  0
 51 52  2  0  0  0  0
  8  9  1  0  0  0  0
  9 17  1  0  0  0  0
  9 10  2  0  0  0  0
 30 31  1  0  0  0  0
 31 39  1  0  0  0  0
 31 32  2  0  0  0  0
 40 41  1  0  0  0  0
 41 49  1  0  0  0  0
 41 42  2  0  0  0  0
 50 53  1  0  0  0  0
 30 33  1  0  0  0  0
 59 60  1  0  0  0  0
 17 18  1  0  0  0  0
  8 11  1  0  0  0  0
 11 12  1  0  0  0  0
 40 43  1  0  0  0  0
 43 44  1  0  0  0  0
 49 50  1  0  0  0  0
  7  8  1  0  0  0  0
 29 30  1  0  0  0  0
 39 40  1  0  0  0  0
 12 44  1  0  0  0  0
  3  4  1  0  0  0  0
  3  5  1  0  0  0  0
  3  6  1  0  0  0  0
 25 26  1  0  0  0  0
 25 27  1  0  0  0  0
 25 28  1  0  0  0  0
 53 56  1  0  0  0  0
 53 57  1  0  0  0  0
 53 58  1  0  0  0  0
 33 36  1  0  0  0  0
 33 37  1  0  0  0  0
 33 38  1  0  0  0  0
 60 62  1  0  0  0  0
 60 63  1  0  0  0  0
 60 64  1  0  0  0  0
 18 20  1  0  0  0  0
 18 21  1  0  0  0  0
 18 22  1  0  0  0  0
 11 15  1  0  0  0  0
 11 16  1  0  0  0  0
 43 47  1  0  0  0  0
 43 48  1  0  0  0  0
 50 55  1  0  0  0  0
  8 14  1  0  0  0  0
 30 35  1  0  0  0  0
 40 46  1  0  0  0  0
 59 61  1  0  0  0  0
 17 19  1  0  0  0  0
  7 13  1  0  0  0  0
 29 34  1  0  0  0  0
 49 54  1  0  0  0  0
 39 45  1  0  0  0  0
M  END
$$$$

  -OEChem-05262214473D

 64 63  0     1  0  0  0  0  0999 V2000
    0.2407    6.0322   -7.9915 C   0  0  0  0  0  0  0  0  0  0  0  0
   -0.9612    6.2164   -8.1441 O   0  0  0  0  0  0  0  0  0  0  0  0
    1.1062    5.7949   -9.1844 C   0  0  0  0  0  0  0  0  0  0  0  0
    1.1874    4.7259   -9.4390 H   0  0  0  0  0  0  0  0  0  0  0  0
    0.7140    6.2813  -10.0919 H   0  0  0  0  0  0  0  0  0  0  0  0
    2.1449    6.1503   -9.0912 H   0  0  0  0  0  0  0  0  0  0  0  0
    0.9210    6.0198   -6.7861 N   0  0  0  0  0  0  0  0  0  0  0  0
    0.2788    6.2292   -5.5131 C   0  0  2  0  0  0  0  0  0  0  0  0
    1.2366    6.9853   -4.5946 C   0  0  0  0  0  0  0  0  0  0  0  0
    2.3996    7.2386   -4.9023 O   0  0  0  0  0  0  0  0  0  0  0  0
   -0.2453    4.9266   -4.9037 C   0  0  0  0  0  0  0  0  0  0  0  0
    1.0629    3.7170   -4.5193 S   0  0  0  0  0  0  0  0  0  0  0  0
    1.9249    5.8544   -6.7994 H   0  0  0  0  0  0  0  0  0  0  0  0
   -0.5734    6.8890   -5.7180 H   0  0  0  0  0  0  0  0  0  0  0  0
   -0.7882    5.1282   -3.9745 H   0  0  0  0  0  0  0  0  0  0  0  0
   -0.9438    4.4450   -5.5966 H   0  0  0  0  0  0  0  0  0  0  0  0
    0.6476    7.3206   -3.3837 N   0  0  0  0  0  0  0  0  0  0  0  0
    1.3590    8.0179   -2.3380 C   0  0  0  0  0  0  0  0  0  0  0  0
   -0.3340    7.1098   -3.2299 H   0  0  0  0  0  0  0  0  0  0  0  0
    1.8017    7.2874   -1.6450 H   0  0  0  0  0  0  0  0  0  0  0  0
    2.1565    8.6310   -2.7831 H   0  0  0  0  0  0  0  0  0  0  0  0
    0.6605    8.6670   -1.7894 H   0  0  0  0  0  0  0  0  0  0  0  0
   -6.7256    2.0330   -0.2766 C   0  0  0  0  0  0  0  0  0  0  0  0
   -7.1824    1.1039   -0.9322 O   0  0  0  0  0  0  0  0  0  0  0  0
   -7.5276    2.6077    0.8435 C   0  0  0  0  0  0  0  0  0  0  0  0
   -8.1775    3.4344    0.5145 H   0  0  0  0  0  0  0  0  0  0  0  0
   -8.2057    1.8676    1.2980 H   0  0  0  0  0  0  0  0  0  0  0  0
   -6.9411    3.0162    1.6819 H   0  0  0  0  0  0  0  0  0  0  0  0
   -5.4935    2.6382   -0.4627 N   0  0  0  0  0  0  0  0  0  0  0  0
   -4.5619    2.2388   -1.4845 C   0  0  2  0  0  0  0  0  0  0  0  0
   -3.1535    2.4674   -0.9521 C   0  0  0  0  0  0  0  0  0  0  0  0
   -2.8634    3.3945   -0.1987 O   0  0  0  0  0  0  0  0  0  0  0  0
   -4.7883    3.0138   -2.7732 C   0  0  0  0  0  0  0  0  0  0  0  0
   -5.2337    3.4049    0.1551 H   0  0  0  0  0  0  0  0  0  0  0  0
   -4.7192    1.1682   -1.6549 H   0  0  0  0  0  0  0  0  0  0  0  0
   -4.6352    4.0886   -2.6221 H   0  0  0  0  0  0  0  0  0  0  0  0
   -4.0976    2.6887   -3.5582 H   0  0  0  0  0  0  0  0  0  0  0  0
   -5.8111    2.8719   -3.1387 H   0  0  0  0  0  0  0  0  0  0  0  0
   -2.2466    1.5400   -1.4507 N   0  0  0  0  0  0  0  0  0  0  0  0
   -0.8424    1.5707   -1.1286 C   0  0  2  0  0  0  0  0  0  0  0  0
   -0.6844    1.8042    0.3725 C   0  0  0  0  0  0  0  0  0  0  0  0
   -0.9137    0.9366    1.2129 O   0  0  0  0  0  0  0  0  0  0  0  0
   -0.0703    2.5781   -1.9841 C   0  0  0  0  0  0  0  0  0  0  0  0
   -0.0366    2.1646   -3.7449 S   0  0  0  0  0  0  0  0  0  0  0  0
   -2.5850    0.7815   -2.0381 H   0  0  0  0  0  0  0  0  0  0  0  0
   -0.4676    0.5633   -1.3482 H   0  0  0  0  0  0  0  0  0  0  0  0
   -0.5084    3.5772   -1.8907 H   0  0  0  0  0  0  0  0  0  0  0  0
    0.9684    2.6396   -1.6419 H   0  0  0  0  0  0  0  0  0  0  0  0
   -0.2821    3.1001    0.6627 N   0  0  0  0  0  0  0  0  0  0  0  0
   -0.0876    3.5713    2.0139 C   0  0  2  0  0  0  0  0  0  0  0  0
   -0.4492    5.0503    2.0529 C   0  0  0  0  0  0  0  0  0  0  0  0
   -0.2487    5.8149    1.1115 O   0  0  0  0  0  0  0  0  0  0  0  0
    1.3440    3.3495    2.4767 C   0  0  0  0  0  0  0  0  0  0  0  0
   -0.0728    3.7406   -0.0973 H   0  0  0  0  0  0  0  0  0  0  0  0
   -0.7811    3.0084    2.6481 H   0  0  0  0  0  0  0  0  0  0  0  0
    2.0533    3.9057    1.8531 H   0  0  0  0  0  0  0  0  0  0  0  0
    1.4825    3.6811    3.5110 H   0  0  0  0  0  0  0  0  0  0  0  0
    1.6120    2.2889    2.4197 H   0  0  0  0  0  0  0  0  0  0  0  0
   -0.9826    5.4250    3.2782 N   0  0  0  0  0  0  0  0  0  0  0  0
   -1.3655    6.7848    3.5787 C   0  0  0  0  0  0  0  0  0  0  0  0
   -1.1509    4.7175    3.9873 H   0  0  0  0  0  0  0  0  0  0  0  0
   -0.5224    7.3070    4.0545 H   0  0  0  0  0  0  0  0  0  0  0  0
   -1.6393    7.3028    2.6477 H   0  0  0  0  0  0  0  0  0  0  0  0
   -2.2269    6.7803    4.2628 H   0  0  0  0  0  0  0  0  0  0  0  0
  1  3  1  0  0  0  0
  1  7  1  0  0  0  0
  1  2  2  0  0  0  0
 23 25  1  0  0  0  0
 23 29  1  0  0  0  0
 23 24  2  0  0  0  0
 50 51  1  0  0  0  0
 51 59  1  0  0  0  0
 51 52  2  0  0  0  0
  8  9  1  0  0  0  0
  9 17  1  0  0  0  0
  9 10  2  0  0  0  0
 30 31  1  0  0  0  0
 31 39  1  0  0  0  0
 31 32  2  0  0  0  0
 40 41  1  0  0  0  0
 41 49  1  0  0  0  0
 41 42  2  0  0  0  0
 50 53  1  0  0  0  0
 30 33  1  0  0  0  0
 59 60  1  0  0  0  0
 17 18  1  0  0  0  0
  8 11  1  0  0  0  0
 11 12  1  0  0  0  0
 40 43  1  0  0  0  0
 43 44  1  0  0  0  0
 49 50  1  0  0  0  0
  7  8  1  0  0  0  0
 29 30  1  0  0  0  0
 39 40  1  0  0  0  0
 12 44  1  0  0  0  0
  3  4  1  0  0  0  0
  3  5  1  0  0  0  0
  3  6  1  0  0  0  0
 25 26  1  0  0  0  0
 25 27  1  0  0  0  0
 25 28  1  0  0  0  0
 53 56  1  0  0  0  0
 53 57  1  0  0  0  0
 53 58  1  0  0  0  0
 33 36  1  0  0  0  0
 33 37  1  0  0  0  0
 33 38  1  0  0  0  0
 60 62  1  0  0  0  0
 60 63  1  0  0  0  0
 60 64  1  0  0  0  0
 18 20  1  0  0  0  0
 18 21  1  0  0  0  0
 18 22  1  0  0  0  0
 11 15  1  0  0  0  0
 11 16  1  0  0  0  0
 43 47  1  0  0  0  0
 43 48  1  0  0  0  0
 50 55  1  0  0  0  0
  8 14  1  0  0  0  0
 30 35  1  0  0  0  0
 40 46  1  0  0  0  0
 59 61  1  0  0  0  0
 17 19  1  0  0  0  0
  7 13  1  0  0  0  0
 29 34  1  0  0  0  0
 49 54  1  0  0  0  0
 39 45  1  0  0  0  0
M  END
$$$$

  -OEChem-05262214473D

 64 63  0     1  0  0  0  0  0999 V2000
    0.2407    6.0322   -7.9915 C   0  0  0  0  0  0  0  0  0  0  0  0
   -0.9612    6.2164   -8.1441 O   0  0  0  0  0  0  0  0  0  0  0  0
    1.1062    5.7949   -9.1844 C   0  0  0  0  0  0  0  0  0  0  0  0
    1.1874    4.7259   -9.4390 H   0  0  0  0  0  0  0  0  0  0  0  0
    0.7140    6.2813  -10.0919 H   0  0  0  0  0  0  0  0  0  0  0  0
    2.1449    6.1503   -9.0912 H   0  0  0  0  0  0  0  0  0  0  0  0
    0.9210    6.0198   -6.7861 N   0  0  0  0  0  0  0  0  0  0  0  0
    0.2788    6.2292   -5.5131 C   0  0  2  0  0  0  0  0  0  0  0  0
    1.2366    6.9853   -4.5946 C   0  0  0  0  0  0  0  0  0  0  0  0
    2.3996    7.2386   -4.9023 O   0  0  0  0  0  0  0  0  0  0  0  0
   -0.2453    4.9266   -4.9037 C   0  0  0  0  0  0  0  0  0  0  0  0
    1.0629    3.7170   -4.5193 S   0  0  0  0  0  0  0  0  0  0  0  0
    1.9249    5.8544   -6.7994 H   0  0  0  0  0  0  0  0  0  0  0  0
   -0.5734    6.8890   -5.7180 H   0  0  0  0  0  0  0  0  0  0  0  0
   -0.7882    5.1282   -3.9745 H   0  0  0  0  0  0  0  0  0  0  0  0
   -0.9438    4.4450   -5.5966 H   0  0  0  0  0  0  0  0  0  0  0  0
    0.6476    7.3206   -3.3837 N   0  0  0  0  0  0  0  0  0  0  0  0
    1.3590    8.0179   -2.3380 C   0  0  0  0  0  0  0  0  0  0  0  0
   -0.3340    7.1098   -3.2299 H   0  0  0  0  0  0  0  0  0  0  0  0
    1.8017    7.2874   -1.6450 H   0  0  0  0  0  0  0  0  0  0  0  0
    2.1565    8.6310   -2.7831 H   0  0  0  0  0  0  0  0  0  0  0  0
    0.6605    8.6670   -1.7894 H   0  0  0  0  0  0  0  0  0  0  0  0
   -6.7256    2.0330   -0.2766 C   0  0  0  0  0  0  0  0  0  0  0  0
   -7.1824    1.1039   -0.9322 O   0  0  0  0  0  0  0  0  0  0  0  0
   -7.5276    2.6077    0.8435 C   0  0  0  0  0  0  0  0  0  0  0  0
   -8.1775    3.4344    0.5145 H   0  0  0  0  0  0  0  0  0  0  0  0
   -8.2057    1.8676    1.2980 H   0  0  0  0  0  0  0  0  0  0  0  0
   -6.9411    3.0162    1.6819 H   0  0  0  0  0  0  0  0  0  0  0  0
   -5.4935    2.6382   -0.4627 N   0  0  0  0  0  0  0  0  0  0  0  0
   -4.5619    2.2388   -1.4845 C   0  0  2  0  0  0  0  0  0  0  0  0
   -3.1535    2.4674   -0.9521 C   0  0  0  0  0  0  0  0  0  0  0  0
   -2.8634    3.3945   -0.1987 O   0  0  0  0  0  0  0  0  0  0  0  0
   -4.7883    3.0138   -2.7732 C   0  0  0  0  0  0  0  0  0  0  0  0
   -5.2337    3.4049    0.1551 H   0  0  0  0  0  0  0  0  0  0  0  0
   -4.7192    1.1682   -1.6549 H   0  0  0  0  0  0  0  0  0  0  0  0
   -4.6352    4.0886   -2.6221 H   0  0  0  0  0  0  0  0  0  0  0  0
   -4.0976    2.6887   -3.5582 H   0  0  0  0  0  0  0  0  0  0  0  0
   -5.8111    2.8719   -3.1387 H   0  0  0  0  0  0  0  0  0  0  0  0
   -2.2466    1.5400   -1.4507 N   0  0  0  0  0  0  0  0  0  0  0  0
   -0.8424    1.5707   -1.1286 C   0  0  2  0  0  0  0  0  0  0  0  0
   -0.6844    1.8042    0.3725 C   0  0  0  0  0  0  0  0  0  0  0  0
   -0.6496    0.8889    1.1925 O   0  0  0  0  0  0  0  0  0  0  0  0
   -0.0703    2.5781   -1.9841 C   0  0  0  0  0  0  0  0  0  0  0  0
   -0.0366    2.1646   -3.7449 S   0  0  0  0  0  0  0  0  0  0  0  0
   -2.5850    0.7815   -2.0381 H   0  0  0  0  0  0  0  0  0  0  0  0
   -0.4676    0.5633   -1.3482 H   0  0  0  0  0  0  0  0  0  0  0  0
   -0.5084    3.5772   -1.8907 H   0  0  0  0  0  0  0  0  0  0  0  0
    0.9684    2.6396   -1.6419 H   0  0  0  0  0  0  0  0  0  0  0  0
   -0.6121    3.1533    0.6892 N   0  0  0  0  0  0  0  0  0  0  0  0
   -0.4857    3.6291    2.0469 C   0  0  2  0  0  0  0  0  0  0  0  0
   -1.2088    4.9658    2.1460 C   0  0  0  0  0  0  0  0  0  0  0  0
   -1.2496    5.7765    1.2229 O   0  0  0  0  0  0  0  0  0  0  0  0
    0.9739    3.7695    2.4503 C   0  0  0  0  0  0  0  0  0  0  0  0
   -0.6052    3.8423   -0.0571 H   0  0  0  0  0  0  0  0  0  0  0  0
   -0.9856    2.8943    2.6874 H   0  0  0  0  0  0  0  0  0  0  0  0
    1.4913    4.5016    1.8196 H   0  0  0  0  0  0  0  0  0  0  0  0
    1.0681    4.1030    3.4890 H   0  0  0  0  0  0  0  0  0  0  0  0
    1.4996    2.8138    2.3499 H   0  0  0  0  0  0  0  0  0  0  0  0
   -1.7666    5.1655    3.4011 N   0  0  0  0  0  0  0  0  0  0  0  0
   -2.4689    6.3760    3.7585 C   0  0  0  0  0  0  0  0  0  0  0  0
   -1.7191    4.4233    4.0929 H   0  0  0  0  0  0  0  0  0  0  0  0
   -1.7662    7.0855    4.2199 H   0  0  0  0  0  0  0  0  0  0  0  0
   -2.9049    6.8271    2.8549 H   0  0  0  0  0  0  0  0  0  0  0  0
   -3.2707    6.1373    4.4727 H   0  0  0  0  0  0  0  0  0  0  0  0
  1  3  1  0  0  0  0
  1  7  1  0  0  0  0
  1  2  2  0  0  0  0
 23 25  1  0  0  0  0
 23 29  1  0  0  0  0
 23 24  2  0  0  0  0
 50 51  1  0  0  0  0
 51 59  1  0  0  0  0
 51 52  2  0  0  0  0
  8  9  1  0  0  0  0
  9 17  1  0  0  0  0
  9 10  2  0  0  0  0
 30 31  1  0  0  0  0
 31 39  1  0  0  0  0
 31 32  2  0  0  0  0
 40 41  1  0  0  0  0
 41 49  1  0  0  0  0
 41 42  2  0  0  0  0
 50 53  1  0  0  0  0
 30 33  1  0  0  0  0
 59 60  1  0  0  0  0
 17 18  1  0  0  0  0
  8 11  1  0  0  0  0
 11 12  1  0  0  0  0
 40 43  1  0  0  0  0
 43 44  1  0  0  0  0
 49 50  1  0  0  0  0
  7  8  1  0  0  0  0
 29 30  1  0  0  0  0
 39 40  1  0  0  0  0
 12 44  1  0  0  0  0
  3  4  1  0  0  0  0
  3  5  1  0  0  0  0
  3  6  1  0  0  0  0
 25 26  1  0  0  0  0
 25 27  1  0  0  0  0
 25 28  1  0  0  0  0
 53 56  1  0  0  0  0
 53 57  1  0  0  0  0
 53 58  1  0  0  0  0
 33 36  1  0  0  0  0
 33 37  1  0  0  0  0
 33 38  1  0  0  0  0
 60 62  1  0  0  0  0
 60 63  1  0  0  0  0
 60 64  1  0  0  0  0
 18 20  1  0  0  0  0
 18 21  1  0  0  0  0
 18 22  1  0  0  0  0
 11 15  1  0  0  0  0
 11 16  1  0  0  0  0
 43 47  1  0  0  0  0
 43 48  1  0  0  0  0
 50 55  1  0  0  0  0
  8 14  1  0  0  0  0
 30 35  1  0  0  0  0
 40 46  1  0  0  0  0
 59 61  1  0  0  0  0
 17 19  1  0  0  0  0
  7 13  1  0  0  0  0
 29 34  1  0  0  0  0
 49 54  1  0  0  0  0
 39 45  1  0  0  0  0
M  END
$$$$

  -OEChem-05262214473D

 64 63  0     1  0  0  0  0  0999 V2000
    0.2407    6.0322   -7.9915 C   0  0  0  0  0  0  0  0  0  0  0  0
   -0.9612    6.2164   -8.1441 O   0  0  0  0  0  0  0  0  0  0  0  0
    1.1062    5.7949   -9.1844 C   0  0  0  0  0  0  0  0  0  0  0  0
    1.1874    4.7259   -9.4390 H   0  0  0  0  0  0  0  0  0  0  0  0
    0.7140    6.2813  -10.0919 H   0  0  0  0  0  0  0  0  0  0  0  0
    2.1449    6.1503   -9.0912 H   0  0  0  0  0  0  0  0  0  0  0  0
    0.9210    6.0198   -6.7861 N   0  0  0  0  0  0  0  0  0  0  0  0
    0.2788    6.2292   -5.5131 C   0  0  2  0  0  0  0  0  0  0  0  0
    1.2366    6.9853   -4.5946 C   0  0  0  0  0  0  0  0  0  0  0  0
    2.3996    7.2386   -4.9023 O   0  0  0  0  0  0  0  0  0  0  0  0
   -0.2453    4.9266   -4.9037 C   0  0  0  0  0  0  0  0  0  0  0  0
    1.0629    3.7170   -4.5193 S   0  0  0  0  0  0  0  0  0  0  0  0
    1.9249    5.8544   -6.7994 H   0  0  0  0  0  0  0  0  0  0  0  0
   -0.5734    6.8890   -5.7180 H   0  0  0  0  0  0  0  0  0  0  0  0
   -0.7882    5.1282   -3.9745 H   0  0  0  0  0  0  0  0  0  0  0  0
   -0.9438    4.4450   -5.5966 H   0  0  0  0  0  0  0  0  0  0  0  0
    0.6476    7.3206   -3.3837 N   0  0  0  0  0  0  0  0  0  0  0  0
    1.3590    8.0179   -2.3380 C   0  0  0  0  0  0  0  0  0  0  0  0
   -0.3340    7.1098   -3.2299 H   0  0  0  0  0  0  0  0  0  0  0  0
    1.8017    7.2874   -1.6450 H   0  0  0  0  0  0  0  0  0  0  0  0
    2.1565    8.6310   -2.7831 H   0  0  0  0  0  0  0  0  0  0  0  0
    0.6605    8.6670   -1.7894 H   0  0  0  0  0  0  0  0  0  0  0  0
   -6.7256    2.0330   -0.2766 C   0  0  0  0  0  0  0  0  0  0  0  0
   -7.1824    1.1039   -0.9322 O   0  0  0  0  0  0  0  0  0  0  0  0
   -7.5276    2.6077    0.8435 C   0  0  0  0  0  0  0  0  0  0  0  0
   -8.1775    3.4344    0.5145 H   0  0  0  0  0  0  0  0  0  0  0  0
   -8.2057    1.8676    1.2980 H   0  0  0  0  0  0  0  0  0  0  0  0
   -6.9411    3.0162    1.6819 H   0  0  0  0  0  0  0  0  0  0  0  0
   -5.4935    2.6382   -0.4627 N   0  0  0  0  0  0  0  0  0  0  0  0
   -4.5619    2.2388   -1.4845 C   0  0  2  0  0  0  0  0  0  0  0  0
   -3.1535    2.4674   -0.9521 C   0  0  0  0  0  0  0  0  0  0  0  0
   -2.8634    3.3945   -0.1987 O   0  0  0  0  0  0  0  0  0  0  0  0
   -4.7883    3.0138   -2.7732 C   0  0  0  0  0  0  0  0  0  0  0  0
   -5.2337    3.4049    0.1551 H   0  0  0  0  0  0  0  0  0  0  0  0
   -4.7192    1.1682   -1.6549 H   0  0  0  0  0  0  0  0  0  0  0  0
   -4.6352    4.0886   -2.6221 H   0  0  0  0  0  0  0  0  0  0  0  0
   -4.0976    2.6887   -3.5582 H   0  0  0  0  0  0  0  0  0  0  0  0
   -5.8111    2.8719   -3.1387 H   0  0  0  0  0  0  0  0  0  0  0  0
   -2.2466    1.5400   -1.4507 N   0  0  0  0  0  0  0  0  0  0  0  0
   -0.8424    1.5707   -1.1286 C   0  0  2  0  0  0  0  0  0  0  0  0
   -0.6844    1.8042    0.3725 C   0  0  0  0  0  0  0  0  0  0  0  0
   -0.3831    0.9104    1.1611 O   0  0  0  0  0  0  0  0  0  0  0  0
   -0.0703    2.5781   -1.9841 C   0  0  0  0  0  0  0  0  0  0  0  0
   -0.0366    2.1646   -3.7449 S   0  0  0  0  0  0  0  0  0  0  0  0
   -2.5850    0.7815   -2.0381 H   0  0  0  0  0  0  0  0  0  0  0  0
   -0.4676    0.5633   -1.3482 H   0  0  0  0  0  0  0  0  0  0  0  0
   -0.5084    3.5772   -1.8907 H   0  0  0  0  0  0  0  0  0  0  0  0
    0.9684    2.6396   -1.6419 H   0  0  0  0  0  0  0  0  0  0  0  0
   -0.9434    3.1199    0.7292 N   0  0  0  0  0  0  0  0  0  0  0  0
   -0.8836    3.5828    2.0960 C   0  0  2  0  0  0  0  0  0  0  0  0
   -1.9174    4.6885    2.2637 C   0  0  0  0  0  0  0  0  0  0  0  0
   -2.2023    5.4818    1.3690 O   0  0  0  0  0  0  0  0  0  0  0  0
    0.5085    4.0818    2.4507 C   0  0  0  0  0  0  0  0  0  0  0  0
   -1.1437    3.8039    0.0056 H   0  0  0  0  0  0  0  0  0  0  0  0
   -1.1526    2.7311    2.7303 H   0  0  0  0  0  0  0  0  0  0  0  0
    0.7955    4.9351    1.8254 H   0  0  0  0  0  0  0  0  0  0  0  0
    0.5596    4.4057    3.4955 H   0  0  0  0  0  0  0  0  0  0  0  0
    1.2548    3.2941    2.3010 H   0  0  0  0  0  0  0  0  0  0  0  0
   -2.4531    4.7122    3.5438 N   0  0  0  0  0  0  0  0  0  0  0  0
   -3.4235    5.6956    3.9648 C   0  0  0  0  0  0  0  0  0  0  0  0
   -2.1890    3.9918    4.2094 H   0  0  0  0  0  0  0  0  0  0  0  0
   -2.9048    6.5506    4.4229 H   0  0  0  0  0  0  0  0  0  0  0  0
   -3.9982    6.0401    3.0924 H   0  0  0  0  0  0  0  0  0  0  0  0
   -4.1070    5.2450    4.6995 H   0  0  0  0  0  0  0  0  0  0  0  0
  1  3  1  0  0  0  0
  1  7  1  0  0  0  0
  1  2  2  0  0  0  0
 23 25  1  0  0  0  0
 23 29  1  0  0  0  0
 23 24  2  0  0  0  0
 50 51  1  0  0  0  0
 51 59  1  0  0  0  0
 51 52  2  0  0  0  0
  8  9  1  0  0  0  0
  9 17  1  0  0  0  0
  9 10  2  0  0  0  0
 30 31  1  0  0  0  0
 31 39  1  0  0  0  0
 31 32  2  0  0  0  0
 40 41  1  0  0  0  0
 41 49  1  0  0  0  0
 41 42  2  0  0  0  0
 50 53  1  0  0  0  0
 30 33  1  0  0  0  0
 59 60  1  0  0  0  0
 17 18  1  0  0  0  0
  8 11  1  0  0  0  0
 11 12  1  0  0  0  0
 40 43  1  0  0  0  0
 43 44  1  0  0  0  0
 49 50  1  0  0  0  0
  7  8  1  0  0  0  0
 29 30  1  0  0  0  0
 39 40  1  0  0  0  0
 12 44  1  0  0  0  0
  3  4  1  0  0  0  0
  3  5  1  0  0  0  0
  3  6  1  0  0  0  0
 25 26  1  0  0  0  0
 25 27  1  0  0  0  0
 25 28  1  0  0  0  0
 53 56  1  0  0  0  0
 53 57  1  0  0  0  0
 53 58  1  0  0  0  0
 33 36  1  0  0  0  0
 33 37  1  0  0  0  0
 33 38  1  0  0  0  0
 60 62  1  0  0  0  0
 60 63  1  0  0  0  0
 60 64  1  0  0  0  0
 18 20  1  0  0  0  0
 18 21  1  0  0  0  0
 18 22  1  0  0  0  0
 11 15  1  0  0  0  0
 11 16  1  0  0  0  0
 43 47  1  0  0  0  0
 43 48  1  0  0  0  0
 50 55  1  0  0  0  0
  8 14  1  0  0  0  0
 30 35  1  0  0  0  0
 40 46  1  0  0  0  0
 59 61  1  0  0  0  0
 17 19  1  0  0  0  0
  7 13  1  0  0  0  0
 29 34  1  0  0  0  0
 49 54  1  0  0  0  0
 39 45  1  0  0  0  0
M  END
$$$$

  -OEChem-05262214473D

 64 63  0     1  0  0  0  0  0999 V2000
    0.2407    6.0322   -7.9915 C   0  0  0  0  0  0  0  0  0  0  0  0
   -0.9612    6.2164   -8.1441 O   0  0  0  0  0  0  0  0  0  0  0  0
    1.1062    5.7949   -9.1844 C   0  0  0  0  0  0  0  0  0  0  0  0
    1.1874    4.7259   -9.4390 H   0  0  0  0  0  0  0  0  0  0  0  0
    0.7140    6.2813  -10.0919 H   0  0  0  0  0  0  0  0  0  0  0  0
    2.1449    6.1503   -9.0912 H   0  0  0  0  0  0  0  0  0  0  0  0
    0.9210    6.0198   -6.7861 N   0  0  0  0  0  0  0  0  0  0  0  0
    0.2788    6.2292   -5.5131 C   0  0  2  0  0  0  0  0  0  0  0  0
    1.2366    6.9853   -4.5946 C   0  0  0  0  0  0  0  0  0  0  0  0
    2.3996    7.2386   -4.9023 O   0  0  0  0  0  0  0  0  0  0  0  0
   -0.2453    4.9266   -4.9037 C   0  0  0  0  0  0  0  0  0  0  0  0
    1.0629    3.7170   -4.5193 S   0  0  0  0  0  0  0  0  0  0  0  0
    1.9249    5.8544   -6.7994 H   0  0  0  0  0  0  0  0  0  0  0  0
   -0.5734    6.8890   -5.7180 H   0  0  0  0  0  0  0  0  0  0  0  0
   -0.7882    5.1282   -3.9745 H   0  0  0  0  0  0  0  0  0  0  0  0
   -0.9438    4.4450   -5.5966 H   0  0  0  0  0  0  0  0  0  0  0  0
    0.6476    7.3206   -3.3837 N   0  0  0  0  0  0  0  0  0  0  0  0
    1.3590    8.0179   -2.3380 C   0  0  0  0  0  0  0  0  0  0  0  0
   -0.3340    7.1098   -3.2299 H   0  0  0  0  0  0  0  0  0  0  0  0
    1.8017    7.2874   -1.6450 H   0  0  0  0  0  0  0  0  0  0  0  0
    2.1565    8.6310   -2.7831 H   0  0  0  0  0  0  0  0  0  0  0  0
    0.6605    8.6670   -1.7894 H   0  0  0  0  0  0  0  0  0  0  0  0
   -6.7256    2.0330   -0.2766 C   0  0  0  0  0  0  0  0  0  0  0  0
   -7.1824    1.1039   -0.9322 O   0  0  0  0  0  0  0  0  0  0  0  0
   -7.5276    2.6077    0.8435 C   0  0  0  0  0  0  0  0  0  0  0  0
   -8.1775    3.4344    0.5145 H   0  0  0  0  0  0  0  0  0  0  0  0
   -8.2057    1.8676    1.2980 H   0  0  0  0  0  0  0  0  0  0  0  0
   -6.9411    3.0162    1.6819 H   0  0  0  0  0  0  0  0  0  0  0  0
   -5.4935    2.6382   -0.4627 N   0  0  0  0  0  0  0  0  0  0  0  0
   -4.5619    2.2388   -1.4845 C   0  0  2  0  0  0  0  0  0  0  0  0
   -3.1535    2.4674   -0.9521 C   0  0  0  0  0  0  0  0  0  0  0  0
   -2.8634    3.3945   -0.1987 O   0  0  0  0  0  0  0  0  0  0  0  0
   -4.7883    3.0138   -2.7732 C   0  0  0  0  0  0  0  0  0  0  0  0
   -5.2337    3.4049    0.1551 H   0  0  0  0  0  0  0  0  0  0  0  0
   -4.7192    1.1682   -1.6549 H   0  0  0  0  0  0  0  0  0  0  0  0
   -4.6352    4.0886   -2.6221 H   0  0  0  0  0  0  0  0  0  0  0  0
   -4.0976    2.6887   -3.5582 H   0  0  0  0  0  0  0  0  0  0  0  0
   -5.8111    2.8719   -3.1387 H   0  0  0  0  0  0  0  0  0  0  0  0
   -2.2466    1.5400   -1.4507 N   0  0  0  0  0  0  0  0  0  0  0  0
   -0.8424    1.5707   -1.1286 C   0  0  2  0  0  0  0  0  0  0  0  0
   -0.6844    1.8042    0.3725 C   0  0  0  0  0  0  0  0  0  0  0  0
   -0.1325    0.9999    1.1208 O   0  0  0  0  0  0  0  0  0  0  0  0
   -0.0703    2.5781   -1.9841 C   0  0  0  0  0  0  0  0  0  0  0  0
   -0.0366    2.1646   -3.7449 S   0  0  0  0  0  0  0  0  0  0  0  0
   -2.5850    0.7815   -2.0381 H   0  0  0  0  0  0  0  0  0  0  0  0
   -0.4676    0.5633   -1.3482 H   0  0  0  0  0  0  0  0  0  0  0  0
   -0.5084    3.5772   -1.8907 H   0  0  0  0  0  0  0  0  0  0  0  0
    0.9684    2.6396   -1.6419 H   0  0  0  0  0  0  0  0  0  0  0  0
   -1.2533    3.0024    0.7801 N   0  0  0  0  0  0  0  0  0  0  0  0
   -1.2542    3.4355    2.1579 C   0  0  2  0  0  0  0  0  0  0  0  0
   -2.5266    4.2372    2.3981 C   0  0  0  0  0  0  0  0  0  0  0  0
   -3.0418    4.9509    1.5399 O   0  0  0  0  0  0  0  0  0  0  0  0
   -0.0205    4.2651    2.4779 C   0  0  0  0  0  0  0  0  0  0  0  0
   -1.6516    3.6283    0.0864 H   0  0  0  0  0  0  0  0  0  0  0  0
   -1.2707    2.5299    2.7741 H   0  0  0  0  0  0  0  0  0  0  0  0
    0.0134    5.1767    1.8702 H   0  0  0  0  0  0  0  0  0  0  0  0
   -0.0084    4.5686    3.5300 H   0  0  0  0  0  0  0  0  0  0  0  0
    0.8942    3.6971    2.2763 H   0  0  0  0  0  0  0  0  0  0  0  0
   -2.9952    4.0959    3.6968 N   0  0  0  0  0  0  0  0  0  0  0  0
   -4.1644    4.7901    4.1836 C   0  0  0  0  0  0  0  0  0  0  0  0
   -2.5285    3.4523    4.3291 H   0  0  0  0  0  0  0  0  0  0  0  0
   -3.8605    5.7389    4.6498 H   0  0  0  0  0  0  0  0  0  0  0  0
   -4.8448    4.9955    3.3440 H   0  0  0  0  0  0  0  0  0  0  0  0
   -4.6789    4.1643    4.9277 H   0  0  0  0  0  0  0  0  0  0  0  0
  1  3  1  0  0  0  0
  1  7  1  0  0  0  0
  1  2  2  0  0  0  0
 23 25  1  0  0  0  0
 23 29  1  0  0  0  0
 23 24  2  0  0  0  0
 50 51  1  0  0  0  0
 51 59  1  0  0  0  0
 51 52  2  0  0  0  0
  8  9  1  0  0  0  0
  9 17  1  0  0  0  0
  9 10  2  0  0  0  0
 30 31  1  0  0  0  0
 31 39  1  0  0  0  0
 31 32  2  0  0  0  0
 40 41  1  0  0  0  0
 41 49  1  0  0  0  0
 41 42  2  0  0  0  0
 50 53  1  0  0  0  0
 30 33  1  0  0  0  0
 59 60  1  0  0  0  0
 17 18  1  0  0  0  0
  8 11  1  0  0  0  0
 11 12  1  0  0  0  0
 40 43  1  0  0  0  0
 43 44  1  0  0  0  0
 49 50  1  0  0  0  0
  7  8  1  0  0  0  0
 29 30  1  0  0  0  0
 39 40  1  0  0  0  0
 12 44  1  0  0  0  0
  3  4  1  0  0  0  0
  3  5  1  0  0  0  0
  3  6  1  0  0  0  0
 25 26  1  0  0  0  0
 25 27  1  0  0  0  0
 25 28  1  0  0  0  0
 53 56  1  0  0  0  0
 53 57  1  0  0  0  0
 53 58  1  0  0  0  0
 33 36  1  0  0  0  0
 33 37  1  0  0  0  0
 33 38  1  0  0  0  0
 60 62  1  0  0  0  0
 60 63  1  0  0  0  0
 60 64  1  0  0  0  0
 18 20  1  0  0  0  0
 18 21  1  0  0  0  0
 18 22  1  0  0  0  0
 11 15  1  0  0  0  0
 11 16  1  0  0  0  0
 43 47  1  0  0  0  0
 43 48  1  0  0  0  0
 50 55  1  0  0  0  0
  8 14  1  0  0  0  0
 30 35  1  0  0  0  0
 40 46  1  0  0  0  0
 59 61  1  0  0  0  0
 17 19  1  0  0  0  0
  7 13  1  0  0  0  0
 29 34  1  0  0  0  0
 49 54  1  0  0  0  0
 39 45  1  0  0  0  0
M  END
$$$$

  -OEChem-05262214473D

 64 63  0     1  0  0  0  0  0999 V2000
    0.2407    6.0322   -7.9915 C   0  0  0  0  0  0  0  0  0  0  0  0
   -0.9612    6.2164   -8.1441 O   0  0  0  0  0  0  0  0  0  0  0  0
    1.1062    5.7949   -9.1844 C   0  0  0  0  0  0  0  0  0  0  0  0
    1.1874    4.7259   -9.4390 H   0  0  0  0  0  0  0  0  0  0  0  0
    0.7140    6.2813  -10.0919 H   0  0  0  0  0  0  0  0  0  0  0  0
    2.1449    6.1503   -9.0912 H   0  0  0  0  0  0  0  0  0  0  0  0
    0.9210    6.0198   -6.7861 N   0  0  0  0  0  0  0  0  0  0  0  0
    0.2788    6.2292   -5.5131 C   0  0  2  0  0  0  0  0  0  0  0  0
    1.2366    6.9853   -4.5946 C   0  0  0  0  0  0  0  0  0  0  0  0
    2.3996    7.2386   -4.9023 O   0  0  0  0  0  0  0  0  0  0  0  0
   -0.2453    4.9266   -4.9037 C   0  0  0  0  0  0  0  0  0  0  0  0
    1.0629    3.7170   -4.5193 S   0  0  0  0  0  0  0  0  0  0  0  0
    1.9249    5.8544   -6.7994 H   0  0  0  0  0  0  0  0  0  0  0  0
   -0.5734    6.8890   -5.7180 H   0  0  0  0  0  0  0  0  0  0  0  0
   -0.7882    5.1282   -3.9745 H   0  0  0  0  0  0  0  0  0  0  0  0
   -0.9438    4.4450   -5.5966 H   0  0  0  0  0  0  0  0  0  0  0  0
    0.6476    7.3206   -3.3837 N   0  0  0  0  0  0  0  0  0  0  0  0
    1.3590    8.0179   -2.3380 C   0  0  0  0  0  0  0  0  0  0  0  0
   -0.3340    7.1098   -3.2299 H   0  0  0  0  0  0  0  0  0  0  0  0
    1.8017    7.2874   -1.6450 H   0  0  0  0  0  0  0  0  0  0  0  0
    2.1565    8.6310   -2.7831 H   0  0  0  0  0  0  0  0  0  0  0  0
    0.6605    8.6670   -1.7894 H   0  0  0  0  0  0  0  0  0  0  0  0
   -6.7256    2.0330   -0.2766 C   0  0  0  0  0  0  0  0  0  0  0  0
   -7.1824    1.1039   -0.9322 O   0  0  0  0  0  0  0  0  0  0  0  0
   -7.5276    2.6077    0.8435 C   0  0  0  0  0  0  0  0  0  0  0  0
   -8.1775    3.4344    0.5145 H   0  0  0  0  0  0  0  0  0  0  0  0
   -8.2057    1.8676    1.2980 H   0  0  0  0  0  0  0  0  0  0  0  0
   -6.9411    3.0162    1.6819 H   0  0  0  0  0  0  0  0  0  0  0  0
   -5.4935    2.6382   -0.4627 N   0  0  0  0  0  0  0  0  0  0  0  0
   -4.5619    2.2388   -1.4845 C   0  0  2  0  0  0  0  0  0  0  0  0
   -3.1535    2.4674   -0.9521 C   0  0  0  0  0  0  0  0  0  0  0  0
   -2.8634    3.3945   -0.1987 O   0  0  0  0  0  0  0  0  0  0  0  0
   -4.7883    3.0138   -2.7732 C   0  0  0  0  0  0  0  0  0  0  0  0
   -5.2337    3.4049    0.1551 H   0  0  0  0  0  0  0  0  0  0  0  0
   -4.7192    1.1682   -1.6549 H   0  0  0  0  0  0  0  0  0  0  0  0
   -4.6352    4.0886   -2.6221 H   0  0  0  0  0  0  0  0  0  0  0  0
   -4.0976    2.6887   -3.5582 H   0  0  0  0  0  0  0  0  0  0  0  0
   -5.8111    2.8719   -3.1387 H   0  0  0  0  0  0  0  0  0  0  0  0
   -2.2466    1.5400   -1.4507 N   0  0  0  0  0  0  0  0  0  0  0  0
   -0.8424    1.5707   -1.1286 C   0  0  2  0  0  0  0  0  0  0  0  0
   -0.6844    1.8042    0.3725 C   0  0  0  0  0  0  0  0  0  0  0  0
    0.0852    1.1511    1.0744 O   0  0  0  0  0  0  0  0  0  0  0  0
   -0.0703    2.5781   -1.9841 C   0  0  0  0  0  0  0  0  0  0  0  0
   -0.0366    2.1646   -3.7449 S   0  0  0  0  0  0  0  0  0  0  0  0
   -2.5850    0.7815   -2.0381 H   0  0  0  0  0  0  0  0  0  0  0  0
   -0.4676    0.5633   -1.3482 H   0  0  0  0  0  0  0  0  0  0  0  0
   -0.5084    3.5772   -1.8907 H   0  0  0  0  0  0  0  0  0  0  0  0
    0.9684    2.6396   -1.6419 H   0  0  0  0  0  0  0  0  0  0  0  0
   -1.5207    2.8087    0.8384 N   0  0  0  0  0  0  0  0  0  0  0  0
   -1.5722    3.1973    2.2284 C   0  0  2  0  0  0  0  0  0  0  0  0
   -2.9949    3.6428    2.5398 C   0  0  0  0  0  0  0  0  0  0  0  0
   -3.7108    4.2199    1.7240 O   0  0  0  0  0  0  0  0  0  0  0  0
   -0.5769    4.3068    2.5300 C   0  0  0  0  0  0  0  0  0  0  0  0
   -2.0944    3.3272    0.1798 H   0  0  0  0  0  0  0  0  0  0  0  0
   -1.3318    2.3043    2.8156 H   0  0  0  0  0  0  0  0  0  0  0  0
   -0.8018    5.2099    1.9509 H   0  0  0  0  0  0  0  0  0  0  0  0
   -0.5970    4.5805    3.5901 H   0  0  0  0  0  0  0  0  0  0  0  0
    0.4424    3.9953    2.2775 H   0  0  0  0  0  0  0  0  0  0  0  0
   -3.3560    3.3586    3.8494 N   0  0  0  0  0  0  0  0  0  0  0  0
   -4.6410    3.7211    4.4000 C   0  0  0  0  0  0  0  0  0  0  0  0
   -2.7145    2.8417    4.4436 H   0  0  0  0  0  0  0  0  0  0  0  0
   -4.5682    4.7057    4.8850 H   0  0  0  0  0  0  0  0  0  0  0  0
   -5.3867    3.7644    3.5925 H   0  0  0  0  0  0  0  0  0  0  0  0
   -4.9473    2.9689    5.1419 H   0  0  0  0  0  0  0  0  0  0  0  0
  1  3  1  0  0  0  0
  1  7  1  0  0  0  0
  1  2  2  0  0  0  0
 23 25  1  0  0  0  0
 23 29  1  0  0  0  0
 23 24  2  0  0  0  0
 50 51  1  0  0  0  0
 51 59  1  0  0  0  0
 51 52  2  0  0  0  0
  8  9  1  0  0  0  0
  9 17  1  0  0  0  0
  9 10  2  0  0  0  0
 30 31  1  0  0  0  0
 31 39  1  0  0  0  0
 31 32  2  0  0  0  0
 40 41  1  0  0  0  0
 41 49  1  0  0  0  0
 41 42  2  0  0  0  0
 50 53  1  0  0  0  0
 30 33  1  0  0  0  0
 59 60  1  0  0  0  0
 17 18  1  0  0  0  0
  8 11  1  0  0  0  0
 11 12  1  0  0  0  0
 40 43  1  0  0  0  0
 43 44  1  0  0  0  0
 49 50  1  0  0  0  0
  7  8  1  0  0  0  0
 29 30  1  0  0  0  0
 39 40  1  0  0  0  0
 12 44  1  0  0  0  0
  3  4  1  0  0  0  0
  3  5  1  0  0  0  0
  3  6  1  0  0  0  0
 25 26  1  0  0  0  0
 25 27  1  0  0  0  0
 25 28  1  0  0  0  0
 53 56  1  0  0  0  0
 53 57  1  0  0  0  0
 53 58  1  0  0  0  0
 33 36  1  0  0  0  0
 33 37  1  0  0  0  0
 33 38  1  0  0  0  0
 60 62  1  0  0  0  0
 60 63  1  0  0  0  0
 60 64  1  0  0  0  0
 18 20  1  0  0  0  0
 18 21  1  0  0  0  0
 18 22  1  0  0  0  0
 11 15  1  0  0  0  0
 11 16  1  0  0  0  0
 43 47  1  0  0  0  0
 43 48  1  0  0  0  0
 50 55  1  0  0  0  0
  8 14  1  0  0  0  0
 30 35  1  0  0  0  0
 40 46  1  0  0  0  0
 59 61  1  0  0  0  0
 17 19  1  0  0  0  0
  7 13  1  0  0  0  0
 29 34  1  0  0  0  0
 49 54  1  0  0  0  0
 39 45  1  0  0  0  0
M  END
$$$$

  -OEChem-05262214473D

 64 63  0     1  0  0  0  0  0999 V2000
    0.2407    6.0322   -7.9915 C   0  0  0  0  0  0  0  0  0  0  0  0
   -0.9612    6.2164   -8.1441 O   0  0  0  0  0  0  0  0  0  0  0  0
    1.1062    5.7949   -9.1844 C   0  0  0  0  0  0  0  0  0  0  0  0
    1.1874    4.7259   -9.4390 H   0  0  0  0  0  0  0  0  0  0  0  0
    0.7140    6.2813  -10.0919 H   0  0  0  0  0  0  0  0  0  0  0  0
    2.1449    6.1503   -9.0912 H   0  0  0  0  0  0  0  0  0  0  0  0
    0.9210    6.0198   -6.7861 N   0  0  0  0  0  0  0  0  0  0  0  0
    0.2788    6.2292   -5.5131 C   0  0  2  0  0  0  0  0  0  0  0  0
    1.2366    6.9853   -4.5946 C   0  0  0  0  0  0  0  0  0  0  0  0
    2.3996    7.2386   -4.9023 O   0  0  0  0  0  0  0  0  0  0  0  0
   -0.2453    4.9266   -4.9037 C   0  0  0  0  0  0  0  0  0  0  0  0
    1.0629    3.7170   -4.5193 S   0  0  0  0  0  0  0  0  0  0  0  0
    1.9249    5.8544   -6.7994 H   0  0  0  0  0  0  0  0  0  0  0  0
   -0.5734    6.8890   -5.7180 H   0  0  0  0  0  0  0  0  0  0  0  0
   -0.7882    5.1282   -3.9745 H   0  0  0  0  0  0  0  0  0  0  0  0
   -0.9438    4.4450   -5.5966 H   0  0  0  0  0  0  0  0  0  0  0  0
    0.6476    7.3206   -3.3837 N   0  0  0  0  0  0  0  0  0  0  0  0
    1.3590    8.0179   -2.3380 C   0  0  0  0  0  0  0  0  0  0  0  0
   -0.3340    7.1098   -3.2299 H   0  0  0  0  0  0  0  0  0  0  0  0
    1.8017    7.2874   -1.6450 H   0  0  0  0  0  0  0  0  0  0  0  0
    2.1565    8.6310   -2.7831 H   0  0  0  0  0  0  0  0  0  0  0  0
    0.6605    8.6670   -1.7894 H   0  0  0  0  0  0  0  0  0  0  0  0
   -6.7256    2.0330   -0.2766 C   0  0  0  0  0  0  0  0  0  0  0  0
   -7.1824    1.1039   -0.9322 O   0  0  0  0  0  0  0  0  0  0  0  0
   -7.5276    2.6077    0.8435 C   0  0  0  0  0  0  0  0  0  0  0  0
   -8.1775    3.4344    0.5145 H   0  0  0  0  0  0  0  0  0  0  0  0
   -8.2057    1.8676    1.2980 H   0  0  0  0  0  0  0  0  0  0  0  0
   -6.9411    3.0162    1.6819 H   0  0  0  0  0  0  0  0  0  0  0  0
   -5.4935    2.6382   -0.4627 N   0  0  0  0  0  0  0  0  0  0  0  0
   -4.5619    2.2388   -1.4845 C   0  0  2  0  0  0  0  0  0  0  0  0
   -3.1535    2.4674   -0.9521 C   0  0  0  0  0  0  0  0  0  0  0  0
   -2.8634    3.3945   -0.1987 O   0  0  0  0  0  0  0  0  0  0  0  0
   -4.7883    3.0138   -2.7732 C   0  0  0  0  0  0  0  0  0  0  0  0
   -5.2337    3.4049    0.1551 H   0  0  0  0  0  0  0  0  0  0  0  0
   -4.7192    1.1682   -1.6549 H   0  0  0  0  0  0  0  0  0  0  0  0
   -4.6352    4.0886   -2.6221 H   0  0  0  0  0  0  0  0  0  0  0  0
   -4.0976    2.6887   -3.5582 H   0  0  0  0  0  0  0  0  0  0  0  0
   -5.8111    2.8719   -3.1387 H   0  0  0  0  0  0  0  0  0  0  0  0
   -2.2466    1.5400   -1.4507 N   0  0  0  0  0  0  0  0  0  0  0  0
   -0.8424    1.5707   -1.1286 C   0  0  2  0  0  0  0  0  0  0  0  0
   -0.6844    1.8042    0.3725 C   0  0  0  0  0  0  0  0  0  0  0  0
    0.2552    1.3538    1.0250 O   0  0  0  0  0  0  0  0  0  0  0  0
   -0.0703    2.5781   -1.9841 C   0  0  0  0  0  0  0  0  0  0  0  0
   -0.0366    2.1646   -3.7449 S   0  0  0  0  0  0  0  0  0  0  0  0
   -2.5850    0.7815   -2.0381 H   0  0  0  0  0  0  0  0  0  0  0  0
   -0.4676    0.5633   -1.3482 H   0  0  0  0  0  0  0  0  0  0  0  0
   -0.5084    3.5772   -1.8907 H   0  0  0  0  0  0  0  0  0  0  0  0
    0.9684    2.6396   -1.6419 H   0  0  0  0  0  0  0  0  0  0  0  0
   -1.7275    2.5520    0.9001 N   0  0  0  0  0  0  0  0  0  0  0  0
   -1.8161    2.8844    2.3027 C   0  0  2  0  0  0  0  0  0  0  0  0
   -3.2905    2.9457    2.6793 C   0  0  0  0  0  0  0  0  0  0  0  0
   -4.1639    3.3388    1.9088 O   0  0  0  0  0  0  0  0  0  0  0  0
   -1.1230    4.2042    2.6035 C   0  0  0  0  0  0  0  0  0  0  0  0
   -2.4417    2.9213    0.2795 H   0  0  0  0  0  0  0  0  0  0  0  0
   -1.3318    2.0697    2.8521 H   0  0  0  0  0  0  0  0  0  0  0  0
   -1.5944    5.0324    2.0619 H   0  0  0  0  0  0  0  0  0  0  0  0
   -1.1663    4.4407    3.6717 H   0  0  0  0  0  0  0  0  0  0  0  0
   -0.0698    4.1683    2.3045 H   0  0  0  0  0  0  0  0  0  0  0  0
   -3.5109    2.5505    3.9914 N   0  0  0  0  0  0  0  0  0  0  0  0
   -4.8210    2.5614    4.5993 C   0  0  0  0  0  0  0  0  0  0  0  0
   -2.7343    2.2015    4.5453 H   0  0  0  0  0  0  0  0  0  0  0  0
   -4.9796    3.5214    5.1125 H   0  0  0  0  0  0  0  0  0  0  0  0
   -5.5873    2.4308    3.8210 H   0  0  0  0  0  0  0  0  0  0  0  0
   -4.8940    1.7401    5.3274 H   0  0  0  0  0  0  0  0  0  0  0  0
  1  3  1  0  0  0  0
  1  7  1  0  0  0  0
  1  2  2  0  0  0  0
 23 25  1  0  0  0  0
 23 29  1  0  0  0  0
 23 24  2  0  0  0  0
 50 51  1  0  0  0  0
 51 59  1  0  0  0  0
 51 52  2  0  0  0  0
  8  9  1  0  0  0  0
  9 17  1  0  0  0  0
  9 10  2  0  0  0  0
 30 31  1  0  0  0  0
 31 39  1  0  0  0  0
 31 32  2  0  0  0  0
 40 41  1  0  0  0  0
 41 49  1  0  0  0  0
 41 42  2  0  0  0  0
 50 53  1  0  0  0  0
 30 33  1  0  0  0  0
 59 60  1  0  0  0  0
 17 18  1  0  0  0  0
  8 11  1  0  0  0  0
 11 12  1  0  0  0  0
 40 43  1  0  0  0  0
 43 44  1  0  0  0  0
 49 50  1  0  0  0  0
  7  8  1  0  0  0  0
 29 30  1  0  0  0  0
 39 40  1  0  0  0  0
 12 44  1  0  0  0  0
  3  4  1  0  0  0  0
  3  5  1  0  0  0  0
  3  6  1  0  0  0  0
 25 26  1  0  0  0  0
 25 27  1  0  0  0  0
 25 28  1  0  0  0  0
 53 56  1  0  0  0  0
 53 57  1  0  0  0  0
 53 58  1  0  0  0  0
 33 36  1  0  0  0  0
 33 37  1  0  0  0  0
 33 38  1  0  0  0  0
 60 62  1  0  0  0  0
 60 63  1  0  0  0  0
 60 64  1  0  0  0  0
 18 20  1  0  0  0  0
 18 21  1  0  0  0  0
 18 22  1  0  0  0  0
 11 15  1  0  0  0  0
 11 16  1  0  0  0  0
 43 47  1  0  0  0  0
 43 48  1  0  0  0  0
 50 55  1  0  0  0  0
  8 14  1  0  0  0  0
 30 35  1  0  0  0  0
 40 46  1  0  0  0  0
 59 61  1  0  0  0  0
 17 19  1  0  0  0  0
  7 13  1  0  0  0  0
 29 34  1  0  0  0  0
 49 54  1  0  0  0  0
 39 45  1  0  0  0  0
M  END
$$$$

  -OEChem-05262214473D

 64 63  0     1  0  0  0  0  0999 V2000
    0.2407    6.0322   -7.9915 C   0  0  0  0  0  0  0  0  0  0  0  0
   -0.9612    6.2164   -8.1441 O   0  0  0  0  0  0  0  0  0  0  0  0
    1.1062    5.7949   -9.1844 C   0  0  0  0  0  0  0  0  0  0  0  0
    1.1874    4.7259   -9.4390 H   0  0  0  0  0  0  0  0  0  0  0  0
    0.7140    6.2813  -10.0919 H   0  0  0  0  0  0  0  0  0  0  0  0
    2.1449    6.1503   -9.0912 H   0  0  0  0  0  0  0  0  0  0  0  0
    0.9210    6.0198   -6.7861 N   0  0  0  0  0  0  0  0  0  0  0  0
    0.2788    6.2292   -5.5131 C   0  0  2  0  0  0  0  0  0  0  0  0
    1.2366    6.9853   -4.5946 C   0  0  0  0  0  0  0  0  0  0  0  0
    2.3996    7.2386   -4.9023 O   0  0  0  0  0  0  0  0  0  0  0  0
   -0.2453    4.9266   -4.9037 C   0  0  0  0  0  0  0  0  0  0  0  0
    1.0629    3.7170   -4.5193 S   0  0  0  0  0  0  0  0  0  0  0  0
    1.9249    5.8544   -6.7994 H   0  0  0  0  0  0  0  0  0  0  0  0
   -0.5734    6.8890   -5.7180 H   0  0  0  0  0  0  0  0  0  0  0  0
   -0.7882    5.1282   -3.9745 H   0  0  0  0  0  0  0  0  0  0  0  0
   -0.9438    4.4450   -5.5966 H   0  0  0  0  0  0  0  0  0  0  0  0
    0.6476    7.3206   -3.3837 N   0  0  0  0  0  0  0  0  0  0  0  0
    1.3590    8.0179   -2.3380 C   0  0  0  0  0  0  0  0  0  0  0  0
   -0.3340    7.1098   -3.2299 H   0  0  0  0  0  0  0  0  0  0  0  0
    1.8017    7.2874   -1.6450 H   0  0  0  0  0  0  0  0  0  0  0  0
    2.1565    8.6310   -2.7831 H   0  0  0  0  0  0  0  0  0  0  0  0
    0.6605    8.6670   -1.7894 H   0  0  0  0  0  0  0  0  0  0  0  0
   -6.7256    2.0330   -0.2766 C   0  0  0  0  0  0  0  0  0  0  0  0
   -7.1824    1.1039   -0.9322 O   0  0  0  0  0  0  0  0  0  0  0  0
   -7.5276    2.6077    0.8435 C   0  0  0  0  0  0  0  0  0  0  0  0
   -8.1775    3.4344    0.5145 H   0  0  0  0  0  0  0  0  0  0  0  0
   -8.2057    1.8676    1.2980 H   0  0  0  0  0  0  0  0  0  0  0  0
   -6.9411    3.0162    1.6819 H   0  0  0  0  0  0  0  0  0  0  0  0
   -5.4935    2.6382   -0.4627 N   0  0  0  0  0  0  0  0  0  0  0  0
   -4.5619    2.2388   -1.4845 C   0  0  2  0  0  0  0  0  0  0  0  0
   -3.1535    2.4674   -0.9521 C   0  0  0  0  0  0  0  0  0  0  0  0
   -2.8634    3.3945   -0.1987 O   0  0  0  0  0  0  0  0  0  0  0  0
   -4.7883    3.0138   -2.7732 C   0  0  0  0  0  0  0  0  0  0  0  0
   -5.2337    3.4049    0.1551 H   0  0  0  0  0  0  0  0  0  0  0  0
   -4.7192    1.1682   -1.6549 H   0  0  0  0  0  0  0  0  0  0  0  0
   -4.6352    4.0886   -2.6221 H   0  0  0  0  0  0  0  0  0  0  0  0
   -4.0976    2.6887   -3.5582 H   0  0  0  0  0  0  0  0  0  0  0  0
   -5.8111    2.8719   -3.1387 H   0  0  0  0  0  0  0  0  0  0  0  0
   -2.2466    1.5400   -1.4507 N   0  0  0  0  0  0  0  0  0  0  0  0
   -0.8424    1.5707   -1.1286 C   0  0  2  0  0  0  0  0  0  0  0  0
   -0.6844    1.8042    0.3725 C   0  0  0  0  0  0  0  0  0  0  0  0
    0.3659    1.5942    0.9759 O   0  0  0  0  0  0  0  0  0  0  0  0
   -0.0703    2.5781   -1.9841 C   0  0  0  0  0  0  0  0  0  0  0  0
   -0.0366    2.1646   -3.7449 S   0  0  0  0  0  0  0  0  0  0  0  0
   -2.5850    0.7815   -2.0381 H   0  0  0  0  0  0  0  0  0  0  0  0
   -0.4676    0.5633   -1.3482 H   0  0  0  0  0  0  0  0  0  0  0  0
   -0.5084    3.5772   -1.8907 H   0  0  0  0  0  0  0  0  0  0  0  0
    0.9684    2.6396   -1.6419 H   0  0  0  0  0  0  0  0  0  0  0  0
   -1.8594    2.2498    0.9610 N   0  0  0  0  0  0  0  0  0  0  0  0
   -1.9691    2.5182    2.3758 C   0  0  2  0  0  0  0  0  0  0  0  0
   -3.3932    2.1934    2.8071 C   0  0  0  0  0  0  0  0  0  0  0  0
   -4.3700    2.3675    2.0815 O   0  0  0  0  0  0  0  0  0  0  0  0
   -1.6214    3.9642    2.6933 C   0  0  0  0  0  0  0  0  0  0  0  0
   -2.6700    2.4382    0.3786 H   0  0  0  0  0  0  0  0  0  0  0  0
   -1.2707    1.8421    2.8810 H   0  0  0  0  0  0  0  0  0  0  0  0
   -2.3105    4.6564    2.1958 H   0  0  0  0  0  0  0  0  0  0  0  0
   -1.6773    4.1587    3.7694 H   0  0  0  0  0  0  0  0  0  0  0  0
   -0.6075    4.2045    2.3555 H   0  0  0  0  0  0  0  0  0  0  0  0
   -3.4494    1.7268    4.1130 N   0  0  0  0  0  0  0  0  0  0  0  0
   -4.6919    1.3902    4.7679 C   0  0  0  0  0  0  0  0  0  0  0  0
   -2.5865    1.5753    4.6271 H   0  0  0  0  0  0  0  0  0  0  0  0
   -5.0668    2.2667    5.3168 H   0  0  0  0  0  0  0  0  0  0  0  0
   -5.4327    1.0854    4.0140 H   0  0  0  0  0  0  0  0  0  0  0  0
   -4.5227    0.5618    5.4715 H   0  0  0  0  0  0  0  0  0  0  0  0
  1  3  1  0  0  0  0
  1  7  1  0  0  0  0
  1  2  2  0  0  0  0
 23 25  1  0  0  0  0
 23 29  1  0  0  0  0
 23 24  2  0  0  0  0
 50 51  1  0  0  0  0
 51 59  1  0  0  0  0
 51 52  2  0  0  0  0
  8  9  1  0  0  0  0
  9 17  1  0  0  0  0
  9 10  2  0  0  0  0
 30 31  1  0  0  0  0
 31 39  1  0  0  0  0
 31 32  2  0  0  0  0
 40 41  1  0  0  0  0
 41 49  1  0  0  0  0
 41 42  2  0  0  0  0
 50 53  1  0  0  0  0
 30 33  1  0  0  0  0
 59 60  1  0  0  0  0
 17 18  1  0  0  0  0
  8 11  1  0  0  0  0
 11 12  1  0  0  0  0
 40 43  1  0  0  0  0
 43 44  1  0  0  0  0
 49 50  1  0  0  0  0
  7  8  1  0  0  0  0
 29 30  1  0  0  0  0
 39 40  1  0  0  0  0
 12 44  1  0  0  0  0
  3  4  1  0  0  0  0
  3  5  1  0  0  0  0
  3  6  1  0  0  0  0
 25 26  1  0  0  0  0
 25 27  1  0  0  0  0
 25 28  1  0  0  0  0
 53 56  1  0  0  0  0
 53 57  1  0  0  0  0
 53 58  1  0  0  0  0
 33 36  1  0  0  0  0
 33 37  1  0  0  0  0
 33 38  1  0  0  0  0
 60 62  1  0  0  0  0
 60 63  1  0  0  0  0
 60 64  1  0  0  0  0
 18 20  1  0  0  0  0
 18 21  1  0  0  0  0
 18 22  1  0  0  0  0
 11 15  1  0  0  0  0
 11 16  1  0  0  0  0
 43 47  1  0  0  0  0
 43 48  1  0  0  0  0
 50 55  1  0  0  0  0
  8 14  1  0  0  0  0
 30 35  1  0  0  0  0
 40 46  1  0  0  0  0
 59 61  1  0  0  0  0
 17 19  1  0  0  0  0
  7 13  1  0  0  0  0
 29 34  1  0  0  0  0
 49 54  1  0  0  0  0
 39 45  1  0  0  0  0
M  END
$$$$

  -OEChem-05262214473D

 64 63  0     1  0  0  0  0  0999 V2000
    0.2407    6.0322   -7.9915 C   0  0  0  0  0  0  0  0  0  0  0  0
   -0.9612    6.2164   -8.1441 O   0  0  0  0  0  0  0  0  0  0  0  0
    1.1062    5.7949   -9.1844 C   0  0  0  0  0  0  0  0  0  0  0  0
    1.1874    4.7259   -9.4390 H   0  0  0  0  0  0  0  0  0  0  0  0
    0.7140    6.2813  -10.0919 H   0  0  0  0  0  0  0  0  0  0  0  0
    2.1449    6.1503   -9.0912 H   0  0  0  0  0  0  0  0  0  0  0  0
    0.9210    6.0198   -6.7861 N   0  0  0  0  0  0  0  0  0  0  0  0
    0.2788    6.2292   -5.5131 C   0  0  2  0  0  0  0  0  0  0  0  0
    1.2366    6.9853   -4.5946 C   0  0  0  0  0  0  0  0  0  0  0  0
    2.3996    7.2386   -4.9023 O   0  0  0  0  0  0  0  0  0  0  0  0
   -0.2453    4.9266   -4.9037 C   0  0  0  0  0  0  0  0  0  0  0  0
    1.0629    3.7170   -4.5193 S   0  0  0  0  0  0  0  0  0  0  0  0
    1.9249    5.8544   -6.7994 H   0  0  0  0  0  0  0  0  0  0  0  0
   -0.5734    6.8890   -5.7180 H   0  0  0  0  0  0  0  0  0  0  0  0
   -0.7882    5.1282   -3.9745 H   0  0  0  0  0  0  0  0  0  0  0  0
   -0.9438    4.4450   -5.5966 H   0  0  0  0  0  0  0  0  0  0  0  0
    0.6476    7.3206   -3.3837 N   0  0  0  0  0  0  0  0  0  0  0  0
    1.3590    8.0179   -2.3380 C   0  0  0  0  0  0  0  0  0  0  0  0
   -0.3340    7.1098   -3.2299 H   0  0  0  0  0  0  0  0  0  0  0  0
    1.8017    7.2874   -1.6450 H   0  0  0  0  0  0  0  0  0  0  0  0
    2.1565    8.6310   -2.7831 H   0  0  0  0  0  0  0  0  0  0  0  0
    0.6605    8.6670   -1.7894 H   0  0  0  0  0  0  0  0  0  0  0  0
   -6.7256    2.0330   -0.2766 C   0  0  0  0  0  0  0  0  0  0  0  0
   -7.1824    1.1039   -0.9322 O   0  0  0  0  0  0  0  0  0  0  0  0
   -7.5276    2.6077    0.8435 C   0  0  0  0  0  0  0  0  0  0  0  0
   -8.1775    3.4344    0.5145 H   0  0  0  0  0  0  0  0  0  0  0  0
   -8.2057    1.8676    1.2980 H   0  0  0  0  0  0  0  0  0  0  0  0
   -6.9411    3.0162    1.6819 H   0  0  0  0  0  0  0  0  0  0  0  0
   -5.4935    2.6382   -0.4627 N   0  0  0  0  0  0  0  0  0  0  0  0
   -4.5619    2.2388   -1.4845 C   0  0  2  0  0  0  0  0  0  0  0  0
   -3.1535    2.4674   -0.9521 C   0  0  0  0  0  0  0  0  0  0  0  0
   -2.8634    3.3945   -0.1987 O   0  0  0  0  0  0  0  0  0  0  0  0
   -4.7883    3.0138   -2.7732 C   0  0  0  0  0  0  0  0  0  0  0  0
   -5.2337    3.4049    0.1551 H   0  0  0  0  0  0  0  0  0  0  0  0
   -4.7192    1.1682   -1.6549 H   0  0  0  0  0  0  0  0  0  0  0  0
   -4.6352    4.0886   -2.6221 H   0  0  0  0  0  0  0  0  0  0  0  0
   -4.0976    2.6887   -3.5582 H   0  0  0  0  0  0  0  0  0  0  0  0
   -5.8111    2.8719   -3.1387 H   0  0  0  0  0  0  0  0  0  0  0  0
   -2.2466    1.5400   -1.4507 N   0  0  0  0  0  0  0  0  0  0  0  0
   -0.8424    1.5707   -1.1286 C   0  0  2  0  0  0  0  0  0  0  0  0
   -0.6844    1.8042    0.3725 C   0  0  0  0  0  0  0  0  0  0  0  0
    0.4098    1.8559    0.9306 O   0  0  0  0  0  0  0  0  0  0  0  0
   -0.0703    2.5781   -1.9841 C   0  0  0  0  0  0  0  0  0  0  0  0
   -0.0366    2.1646   -3.7449 S   0  0  0  0  0  0  0  0  0  0  0  0
   -2.5850    0.7815   -2.0381 H   0  0  0  0  0  0  0  0  0  0  0  0
   -0.4676    0.5633   -1.3482 H   0  0  0  0  0  0  0  0  0  0  0  0
   -0.5084    3.5772   -1.8907 H   0  0  0  0  0  0  0  0  0  0  0  0
    0.9684    2.6396   -1.6419 H   0  0  0  0  0  0  0  0  0  0  0  0
   -1.9076    1.9226    1.0169 N   0  0  0  0  0  0  0  0  0  0  0  0
   -2.0208    2.1235    2.4426 C   0  0  2  0  0  0  0  0  0  0  0  0
   -3.2959    1.4372    2.9145 C   0  0  0  0  0  0  0  0  0  0  0  0
   -4.3152    1.3722    2.2305 O   0  0  0  0  0  0  0  0  0  0  0  0
   -2.0383    3.6032    2.7933 C   0  0  0  0  0  0  0  0  0  0  0  0
   -2.7638    1.9108    0.4705 H   0  0  0  0  0  0  0  0  0  0  0  0
   -1.1526    1.6371    2.9005 H   0  0  0  0  0  0  0  0  0  0  0  0
   -2.9012    4.1075    2.3433 H   0  0  0  0  0  0  0  0  0  0  0  0
   -2.0954    3.7536    3.8764 H   0  0  0  0  0  0  0  0  0  0  0  0
   -1.1341    4.1012    2.4270 H   0  0  0  0  0  0  0  0  0  0  0  0
   -3.1756    0.9435    4.2060 N   0  0  0  0  0  0  0  0  0  0  0  0
   -4.2626    0.2872    4.8942 C   0  0  0  0  0  0  0  0  0  0  0  0
   -2.2812    1.0059    4.6835 H   0  0  0  0  0  0  0  0  0  0  0  0
   -4.8237    1.0270    5.4840 H   0  0  0  0  0  0  0  0  0  0  0  0
   -4.9335   -0.1799    4.1582 H   0  0  0  0  0  0  0  0  0  0  0  0
   -3.8586   -0.4857    5.5645 H   0  0  0  0  0  0  0  0  0  0  0  0
  1  3  1  0  0  0  0
  1  7  1  0  0  0  0
  1  2  2  0  0  0  0
 23 25  1  0  0  0  0
 23 29  1  0  0  0  0
 23 24  2  0  0  0  0
 50 51  1  0  0  0  0
 51 59  1  0  0  0  0
 51 52  2  0  0  0  0
  8  9  1  0  0  0  0
  9 17  1  0  0  0  0
  9 10  2  0  0  0  0
 30 31  1  0  0  0  0
 31 39  1  0  0  0  0
 31 32  2  0  0  0  0
 40 41  1  0  0  0  0
 41 49  1  0  0  0  0
 41 42  2  0  0  0  0
 50 53  1  0  0  0  0
 30 33  1  0  0  0  0
 59 60  1  0  0  0  0
 17 18  1  0  0  0  0
  8 11  1  0  0  0  0
 11 12  1  0  0  0  0
 40 43  1  0  0  0  0
 43 44  1  0  0  0  0
 49 50  1  0  0  0  0
  7  8  1  0  0  0  0
 29 30  1  0  0  0  0
 39 40  1  0  0  0  0
 12 44  1  0  0  0  0
  3  4  1  0  0  0  0
  3  5  1  0  0  0  0
  3  6  1  0  0  0  0
 25 26  1  0  0  0  0
 25 27  1  0  0  0  0
 25 28  1  0  0  0  0
 53 56  1  0  0  0  0
 53 57  1  0  0  0  0
 53 58  1  0  0  0  0
 33 36  1  0  0  0  0
 33 37  1  0  0  0  0
 33 38  1  0  0  0  0
 60 62  1  0  0  0  0
 60 63  1  0  0  0  0
 60 64  1  0  0  0  0
 18 20  1  0  0  0  0
 18 21  1  0  0  0  0
 18 22  1  0  0  0  0
 11 15  1  0  0  0  0
 11 16  1  0  0  0  0
 43 47  1  0  0  0  0
 43 48  1  0  0  0  0
 50 55  1  0  0  0  0
  8 14  1  0  0  0  0
 30 35  1  0  0  0  0
 40 46  1  0  0  0  0
 59 61  1  0  0  0  0
 17 19  1  0  0  0  0
  7 13  1  0  0  0  0
 29 34  1  0  0  0  0
 49 54  1  0  0  0  0
 39 45  1  0  0  0  0
M  END
$$$$

  -OEChem-05262214473D

 64 63  0     1  0  0  0  0  0999 V2000
    0.2407    6.0322   -7.9915 C   0  0  0  0  0  0  0  0  0  0  0  0
   -0.9612    6.2164   -8.1441 O   0  0  0  0  0  0  0  0  0  0  0  0
    1.1062    5.7949   -9.1844 C   0  0  0  0  0  0  0  0  0  0  0  0
    1.1874    4.7259   -9.4390 H   0  0  0  0  0  0  0  0  0  0  0  0
    0.7140    6.2813  -10.0919 H   0  0  0  0  0  0  0  0  0  0  0  0
    2.1449    6.1503   -9.0912 H   0  0  0  0  0  0  0  0  0  0  0  0
    0.9210    6.0198   -6.7861 N   0  0  0  0  0  0  0  0  0  0  0  0
    0.2788    6.2292   -5.5131 C   0  0  2  0  0  0  0  0  0  0  0  0
    1.2366    6.9853   -4.5946 C   0  0  0  0  0  0  0  0  0  0  0  0
    2.3996    7.2386   -4.9023 O   0  0  0  0  0  0  0  0  0  0  0  0
   -0.2453    4.9266   -4.9037 C   0  0  0  0  0  0  0  0  0  0  0  0
    1.0629    3.7170   -4.5193 S   0  0  0  0  0  0  0  0  0  0  0  0
    1.9249    5.8544   -6.7994 H   0  0  0  0  0  0  0  0  0  0  0  0
   -0.5734    6.8890   -5.7180 H   0  0  0  0  0  0  0  0  0  0  0  0
   -0.7882    5.1282   -3.9745 H   0  0  0  0  0  0  0  0  0  0  0  0
   -0.9438    4.4450   -5.5966 H   0  0  0  0  0  0  0  0  0  0  0  0
    0.6476    7.3206   -3.3837 N   0  0  0  0  0  0  0  0  0  0  0  0
    1.3590    8.0179   -2.3380 C   0  0  0  0  0  0  0  0  0  0  0  0
   -0.3340    7.1098   -3.2299 H   0  0  0  0  0  0  0  0  0  0  0  0
    1.8017    7.2874   -1.6450 H   0  0  0  0  0  0  0  0  0  0  0  0
    2.1565    8.6310   -2.7831 H   0  0  0  0  0  0  0  0  0  0  0  0
    0.6605    8.6670   -1.7894 H   0  0  0  0  0  0  0  0  0  0  0  0
   -6.7256    2.0330   -0.2766 C   0  0  0  0  0  0  0  0  0  0  0  0
   -7.1824    1.1039   -0.9322 O   0  0  0  0  0  0  0  0  0  0  0  0
   -7.5276    2.6077    0.8435 C   0  0  0  0  0  0  0  0  0  0  0  0
   -8.1775    3.4344    0.5145 H   0  0  0  0  0  0  0  0  0  0  0  0
   -8.2057    1.8676    1.2980 H   0  0  0  0  0  0  0  0  0  0  0  0
   -6.9411    3.0162    1.6819 H   0  0  0  0  0  0  0  0  0  0  0  0
   -5.4935    2.6382   -0.4627 N   0  0  0  0  0  0  0  0  0  0  0  0
   -4.5619    2.2388   -1.4845 C   0  0  2  0  0  0  0  0  0  0  0  0
   -3.1535    2.4674   -0.9521 C   0  0  0  0  0  0  0  0  0  0  0  0
   -2.8634    3.3945   -0.1987 O   0  0  0  0  0  0  0  0  0  0  0  0
   -4.7883    3.0138   -2.7732 C   0  0  0  0  0  0  0  0  0  0  0  0
   -5.2337    3.4049    0.1551 H   0  0  0  0  0  0  0  0  0  0  0  0
   -4.7192    1.1682   -1.6549 H   0  0  0  0  0  0  0  0  0  0  0  0
   -4.6352    4.0886   -2.6221 H   0  0  0  0  0  0  0  0  0  0  0  0
   -4.0976    2.6887   -3.5582 H   0  0  0  0  0  0  0  0  0  0  0  0
   -5.8111    2.8719   -3.1387 H   0  0  0  0  0  0  0  0  0  0  0  0
   -2.2466    1.5400   -1.4507 N   0  0  0  0  0  0  0  0  0  0  0  0
   -0.8424    1.5707   -1.1286 C   0  0  2  0  0  0  0  0  0  0  0  0
   -0.6844    1.8042    0.3725 C   0  0  0  0  0  0  0  0  0  0  0  0
    0.3838    2.1210    0.8921 O   0  0  0  0  0  0  0  0  0  0  0  0
   -0.0703    2.5781   -1.9841 C   0  0  0  0  0  0  0  0  0  0  0  0
   -0.0366    2.1646   -3.7449 S   0  0  0  0  0  0  0  0  0  0  0  0
   -2.5850    0.7815   -2.0381 H   0  0  0  0  0  0  0  0  0  0  0  0
   -0.4676    0.5633   -1.3482 H   0  0  0  0  0  0  0  0  0  0  0  0
   -0.5084    3.5772   -1.8907 H   0  0  0  0  0  0  0  0  0  0  0  0
    0.9684    2.6396   -1.6419 H   0  0  0  0  0  0  0  0  0  0  0  0
   -1.8687    1.5929    1.0641 N   0  0  0  0  0  0  0  0  0  0  0  0
   -1.9678    1.7274    2.4987 C   0  0  2  0  0  0  0  0  0  0  0  0
   -3.0054    0.7286    2.9941 C   0  0  0  0  0  0  0  0  0  0  0  0
   -4.0033    0.4208    2.3457 O   0  0  0  0  0  0  0  0  0  0  0  0
   -2.3452    3.1458    2.8967 C   0  0  0  0  0  0  0  0  0  0  0  0
   -2.7165    1.3750    0.5489 H   0  0  0  0  0  0  0  0  0  0  0  0
   -0.9857    1.4685    2.9091 H   0  0  0  0  0  0  0  0  0  0  0  0
   -3.3264    3.4231    2.4945 H   0  0  0  0  0  0  0  0  0  0  0  0
   -2.3919    3.2532    3.9854 H   0  0  0  0  0  0  0  0  0  0  0  0
   -1.6136    3.8657    2.5141 H   0  0  0  0  0  0  0  0  0  0  0  0
   -2.7082    0.2541    4.2640 N   0  0  0  0  0  0  0  0  0  0  0  0
   -3.5624   -0.6724    4.9697 C   0  0  0  0  0  0  0  0  0  0  0  0
   -1.8393    0.5321    4.7107 H   0  0  0  0  0  0  0  0  0  0  0  0
   -4.2670   -0.1130    5.6026 H   0  0  0  0  0  0  0  0  0  0  0  0
   -4.1238   -1.2791    4.2439 H   0  0  0  0  0  0  0  0  0  0  0  0
   -2.9470   -1.3311    5.6000 H   0  0  0  0  0  0  0  0  0  0  0  0
  1  3  1  0  0  0  0
  1  7  1  0  0  0  0
  1  2  2  0  0  0  0
 23 25  1  0  0  0  0
 23 29  1  0  0  0  0
 23 24  2  0  0  0  0
 50 51  1  0  0  0  0
 51 59  1  0  0  0  0
 51 52  2  0  0  0  0
  8  9  1  0  0  0  0
  9 17  1  0  0  0  0
  9 10  2  0  0  0  0
 30 31  1  0  0  0  0
 31 39  1  0  0  0  0
 31 32  2  0  0  0  0
 40 41  1  0  0  0  0
 41 49  1  0  0  0  0
 41 42  2  0  0  0  0
 50 53  1  0  0  0  0
 30 33  1  0  0  0  0
 59 60  1  0  0  0  0
 17 18  1  0  0  0  0
  8 11  1  0  0  0  0
 11 12  1  0  0  0  0
 40 43  1  0  0  0  0
 43 44  1  0  0  0  0
 49 50  1  0  0  0  0
  7  8  1  0  0  0  0
 29 30  1  0  0  0  0
 39 40  1  0  0  0  0
 12 44  1  0  0  0  0
  3  4  1  0  0  0  0
  3  5  1  0  0  0  0
  3  6  1  0  0  0  0
 25 26  1  0  0  0  0
 25 27  1  0  0  0  0
 25 28  1  0  0  0  0
 53 56  1  0  0  0  0
 53 57  1  0  0  0  0
 53 58  1  0  0  0  0
 33 36  1  0  0  0  0
 33 37  1  0  0  0  0
 33 38  1  0  0  0  0
 60 62  1  0  0  0  0
 60 63  1  0  0  0  0
 60 64  1  0  0  0  0
 18 20  1  0  0  0  0
 18 21  1  0  0  0  0
 18 22  1  0  0  0  0
 11 15  1  0  0  0  0
 11 16  1  0  0  0  0
 43 47  1  0  0  0  0
 43 48  1  0  0  0  0
 50 55  1  0  0  0  0
  8 14  1  0  0  0  0
 30 35  1  0  0  0  0
 40 46  1  0  0  0  0
 59 61  1  0  0  0  0
 17 19  1  0  0  0  0
  7 13  1  0  0  0  0
 29 34  1  0  0  0  0
 49 54  1  0  0  0  0
 39 45  1  0  0  0  0
M  END
$$$$

  -OEChem-05262214473D

 64 63  0     1  0  0  0  0  0999 V2000
    0.2407    6.0322   -7.9915 C   0  0  0  0  0  0  0  0  0  0  0  0
   -0.9612    6.2164   -8.1441 O   0  0  0  0  0  0  0  0  0  0  0  0
    1.1062    5.7949   -9.1844 C   0  0  0  0  0  0  0  0  0  0  0  0
    1.1874    4.7259   -9.4390 H   0  0  0  0  0  0  0  0  0  0  0  0
    0.7140    6.2813  -10.0919 H   0  0  0  0  0  0  0  0  0  0  0  0
    2.1449    6.1503   -9.0912 H   0  0  0  0  0  0  0  0  0  0  0  0
    0.9210    6.0198   -6.7861 N   0  0  0  0  0  0  0  0  0  0  0  0
    0.2788    6.2292   -5.5131 C   0  0  2  0  0  0  0  0  0  0  0  0
    1.2366    6.9853   -4.5946 C   0  0  0  0  0  0  0  0  0  0  0  0
    2.3996    7.2386   -4.9023 O   0  0  0  0  0  0  0  0  0  0  0  0
   -0.2453    4.9266   -4.9037 C   0  0  0  0  0  0  0  0  0  0  0  0
    1.0629    3.7170   -4.5193 S   0  0  0  0  0  0  0  0  0  0  0  0
    1.9249    5.8544   -6.7994 H   0  0  0  0  0  0  0  0  0  0  0  0
   -0.5734    6.8890   -5.7180 H   0  0  0  0  0  0  0  0  0  0  0  0
   -0.7882    5.1282   -3.9745 H   0  0  0  0  0  0  0  0  0  0  0  0
   -0.9438    4.4450   -5.5966 H   0  0  0  0  0  0  0  0  0  0  0  0
    0.6476    7.3206   -3.3837 N   0  0  0  0  0  0  0  0  0  0  0  0
    1.3590    8.0179   -2.3380 C   0  0  0  0  0  0  0  0  0  0  0  0
   -0.3340    7.1098   -3.2299 H   0  0  0  0  0  0  0  0  0  0  0  0
    1.8017    7.2874   -1.6450 H   0  0  0  0  0  0  0  0  0  0  0  0
    2.1565    8.6310   -2.7831 H   0  0  0  0  0  0  0  0  0  0  0  0
    0.6605    8.6670   -1.7894 H   0  0  0  0  0  0  0  0  0  0  0  0
   -6.7256    2.0330   -0.2766 C   0  0  0  0  0  0  0  0  0  0  0  0
   -7.1824    1.1039   -0.9322 O   0  0  0  0  0  0  0  0  0  0  0  0
   -7.5276    2.6077    0.8435 C   0  0  0  0  0  0  0  0  0  0  0  0
   -8.1775    3.4344    0.5145 H   0  0  0  0  0  0  0  0  0  0  0  0
   -8.2057    1.8676    1.2980 H   0  0  0  0  0  0  0  0  0  0  0  0
   -6.9411    3.0162    1.6819 H   0  0  0  0  0  0  0  0  0  0  0  0
   -5.4935    2.6382   -0.4627 N   0  0  0  0  0  0  0  0  0  0  0  0
   -4.5619    2.2388   -1.4845 C   0  0  2  0  0  0  0  0  0  0  0  0
   -3.1535    2.4674   -0.9521 C   0  0  0  0  0  0  0  0  0  0  0  0
   -2.8634    3.3945   -0.1987 O   0  0  0  0  0  0  0  0  0  0  0  0
   -4.7883    3.0138   -2.7732 C   0  0  0  0  0  0  0  0  0  0  0  0
   -5.2337    3.4049    0.1551 H   0  0  0  0  0  0  0  0  0  0  0  0
   -4.7192    1.1682   -1.6549 H   0  0  0  0  0  0  0  0  0  0  0  0
   -4.6352    4.0886   -2.6221 H   0  0  0  0  0  0  0  0  0  0  0  0
   -4.0976    2.6887   -3.5582 H   0  0  0  0  0  0  0  0  0  0  0  0
   -5.8111    2.8719   -3.1387 H   0  0  0  0  0  0  0  0  0  0  0  0
   -2.2466    1.5400   -1.4507 N   0  0  0  0  0  0  0  0  0  0  0  0
   -0.8424    1.5707   -1.1286 C   0  0  2  0  0  0  0  0  0  0  0  0
   -0.6844    1.8042    0.3725 C   0  0  0  0  0  0  0  0  0  0  0  0
    0.2897    2.3715    0.8631 O   0  0  0  0  0  0  0  0  0  0  0  0
   -0.0703    2.5781   -1.9841 C   0  0  0  0  0  0  0  0  0  0  0  0
   -0.0366    2.1646   -3.7449 S   0  0  0  0  0  0  0  0  0  0  0  0
   -2.5850    0.7815   -2.0381 H   0  0  0  0  0  0  0  0  0  0  0  0
   -0.4676    0.5633   -1.3482 H   0  0  0  0  0  0  0  0  0  0  0  0
   -0.5084    3.5772   -1.8907 H   0  0  0  0  0  0  0  0  0  0  0  0
    0.9684    2.6396   -1.6419 H   0  0  0  0  0  0  0  0  0  0  0  0
   -1.7454    1.2831    1.0993 N   0  0  0  0  0  0  0  0  0  0  0  0
   -1.8136    1.3567    2.5401 C   0  0  2  0  0  0  0  0  0  0  0  0
   -2.5413    0.1160    3.0405 C   0  0  0  0  0  0  0  0  0  0  0  0
   -3.4554   -0.4219    2.4190 O   0  0  0  0  0  0  0  0  0  0  0  0
   -2.5211    2.6231    2.9965 C   0  0  0  0  0  0  0  0  0  0  0  0
   -2.5315    0.8675    0.6083 H   0  0  0  0  0  0  0  0  0  0  0  0
   -0.7812    1.3479    2.9063 H   0  0  0  0  0  0  0  0  0  0  0  0
   -3.5570    2.6498    2.6390 H   0  0  0  0  0  0  0  0  0  0  0  0
   -2.5467    2.6914    4.0891 H   0  0  0  0  0  0  0  0  0  0  0  0
   -2.0134    3.5138    2.6109 H   0  0  0  0  0  0  0  0  0  0  0  0
   -2.0791   -0.2945    4.2831 N   0  0  0  0  0  0  0  0  0  0  0  0
   -2.6390   -1.4232    4.9893 C   0  0  0  0  0  0  0  0  0  0  0  0
   -1.2909    0.1860    4.7067 H   0  0  0  0  0  0  0  0  0  0  0  0
   -3.4346   -1.0757    5.6647 H   0  0  0  0  0  0  0  0  0  0  0  0
   -3.0587   -2.1370    4.2652 H   0  0  0  0  0  0  0  0  0  0  0  0
   -1.8500   -1.9168    5.5756 H   0  0  0  0  0  0  0  0  0  0  0  0
  1  3  1  0  0  0  0
  1  7  1  0  0  0  0
  1  2  2  0  0  0  0
 23 25  1  0  0  0  0
 23 29  1  0  0  0  0
 23 24  2  0  0  0  0
 50 51  1  0  0  0  0
 51 59  1  0  0  0  0
 51 52  2  0  0  0  0
  8  9  1  0  0  0  0
  9 17  1  0  0  0  0
  9 10  2  0  0  0  0
 30 31  1  0  0  0  0
 31 39  1  0  0  0  0
 31 32  2  0  0  0  0
 40 41  1  0  0  0  0
 41 49  1  0  0  0  0
 41 42  2  0  0  0  0
 50 53  1  0  0  0  0
 30 33  1  0  0  0  0
 59 60  1  0  0  0  0
 17 18  1  0  0  0  0
  8 11  1  0  0  0  0
 11 12  1  0  0  0  0
 40 43  1  0  0  0  0
 43 44  1  0  0  0  0
 49 50  1  0  0  0  0
  7  8  1  0  0  0  0
 29 30  1  0  0  0  0
 39 40  1  0  0  0  0
 12 44  1  0  0  0  0
  3  4  1  0  0  0  0
  3  5  1  0  0  0  0
  3  6  1  0  0  0  0
 25 26  1  0  0  0  0
 25 27  1  0  0  0  0
 25 28  1  0  0  0  0
 53 56  1  0  0  0  0
 53 57  1  0  0  0  0
 53 58  1  0  0  0  0
 33 36  1  0  0  0  0
 33 37  1  0  0  0  0
 33 38  1  0  0  0  0
 60 62  1  0  0  0  0
 60 63  1  0  0  0  0
 60 64  1  0  0  0  0
 18 20  1  0  0  0  0
 18 21  1  0  0  0  0
 18 22  1  0  0  0  0
 11 15  1  0  0  0  0
 11 16  1  0  0  0  0
 43 47  1  0  0  0  0
 43 48  1  0  0  0  0
 50 55  1  0  0  0  0
  8 14  1  0  0  0  0
 30 35  1  0  0  0  0
 40 46  1  0  0  0  0
 59 61  1  0  0  0  0
 17 19  1  0  0  0  0
  7 13  1  0  0  0  0
 29 34  1  0  0  0  0
 49 54  1  0  0  0  0
 39 45  1  0  0  0  0
M  END
$$$$

  -OEChem-05262214473D

 64 63  0     1  0  0  0  0  0999 V2000
    0.2407    6.0322   -7.9915 C   0  0  0  0  0  0  0  0  0  0  0  0
   -0.9612    6.2164   -8.1441 O   0  0  0  0  0  0  0  0  0  0  0  0
    1.1062    5.7949   -9.1844 C   0  0  0  0  0  0  0  0  0  0  0  0
    1.1874    4.7259   -9.4390 H   0  0  0  0  0  0  0  0  0  0  0  0
    0.7140    6.2813  -10.0919 H   0  0  0  0  0  0  0  0  0  0  0  0
    2.1449    6.1503   -9.0912 H   0  0  0  0  0  0  0  0  0  0  0  0
    0.9210    6.0198   -6.7861 N   0  0  0  0  0  0  0  0  0  0  0  0
    0.2788    6.2292   -5.5131 C   0  0  2  0  0  0  0  0  0  0  0  0
    1.2366    6.9853   -4.5946 C   0  0  0  0  0  0  0  0  0  0  0  0
    2.3996    7.2386   -4.9023 O   0  0  0  0  0  0  0  0  0  0  0  0
   -0.2453    4.9266   -4.9037 C   0  0  0  0  0  0  0  0  0  0  0  0
    1.0629    3.7170   -4.5193 S   0  0  0  0  0  0  0  0  0  0  0  0
    1.9249    5.8544   -6.7994 H   0  0  0  0  0  0  0  0  0  0  0  0
   -0.5734    6.8890   -5.7180 H   0  0  0  0  0  0  0  0  0  0  0  0
   -0.7882    5.1282   -3.9745 H   0  0  0  0  0  0  0  0  0  0  0  0
   -0.9438    4.4450   -5.5966 H   0  0  0  0  0  0  0  0  0  0  0  0
    0.6476    7.3206   -3.3837 N   0  0  0  0  0  0  0  0  0  0  0  0
    1.3590    8.0179   -2.3380 C   0  0  0  0  0  0  0  0  0  0  0  0
   -0.3340    7.1098   -3.2299 H   0  0  0  0  0  0  0  0  0  0  0  0
    1.8017    7.2874   -1.6450 H   0  0  0  0  0  0  0  0  0  0  0  0
    2.1565    8.6310   -2.7831 H   0  0  0  0  0  0  0  0  0  0  0  0
    0.6605    8.6670   -1.7894 H   0  0  0  0  0  0  0  0  0  0  0  0
   -6.7256    2.0330   -0.2766 C   0  0  0  0  0  0  0  0  0  0  0  0
   -7.1824    1.1039   -0.9322 O   0  0  0  0  0  0  0  0  0  0  0  0
   -7.5276    2.6077    0.8435 C   0  0  0  0  0  0  0  0  0  0  0  0
   -8.1775    3.4344    0.5145 H   0  0  0  0  0  0  0  0  0  0  0  0
   -8.2057    1.8676    1.2980 H   0  0  0  0  0  0  0  0  0  0  0  0
   -6.9411    3.0162    1.6819 H   0  0  0  0  0  0  0  0  0  0  0  0
   -5.4935    2.6382   -0.4627 N   0  0  0  0  0  0  0  0  0  0  0  0
   -4.5619    2.2388   -1.4845 C   0  0  2  0  0  0  0  0  0  0  0  0
   -3.1535    2.4674   -0.9521 C   0  0  0  0  0  0  0  0  0  0  0  0
   -2.8634    3.3945   -0.1987 O   0  0  0  0  0  0  0  0  0  0  0  0
   -4.7883    3.0138   -2.7732 C   0  0  0  0  0  0  0  0  0  0  0  0
   -5.2337    3.4049    0.1551 H   0  0  0  0  0  0  0  0  0  0  0  0
   -4.7192    1.1682   -1.6549 H   0  0  0  0  0  0  0  0  0  0  0  0
   -4.6352    4.0886   -2.6221 H   0  0  0  0  0  0  0  0  0  0  0  0
   -4.0976    2.6887   -3.5582 H   0  0  0  0  0  0  0  0  0  0  0  0
   -5.8111    2.8719   -3.1387 H   0  0  0  0  0  0  0  0  0  0  0  0
   -2.2466    1.5400   -1.4507 N   0  0  0  0  0  0  0  0  0  0  0  0
   -0.8424    1.5707   -1.1286 C   0  0  2  0  0  0  0  0  0  0  0  0
   -0.6844    1.8042    0.3725 C   0  0  0  0  0  0  0  0  0  0  0  0
    0.1340    2.5903    0.8454 O   0  0  0  0  0  0  0  0  0  0  0  0
   -0.0703    2.5781   -1.9841 C   0  0  0  0  0  0  0  0  0  0  0  0
   -0.0366    2.1646   -3.7449 S   0  0  0  0  0  0  0  0  0  0  0  0
   -2.5850    0.7815   -2.0381 H   0  0  0  0  0  0  0  0  0  0  0  0
   -0.4676    0.5633   -1.3482 H   0  0  0  0  0  0  0  0  0  0  0  0
   -0.5084    3.5772   -1.8907 H   0  0  0  0  0  0  0  0  0  0  0  0
    0.9684    2.6396   -1.6419 H   0  0  0  0  0  0  0  0  0  0  0  0
   -1.5461    1.0142    1.1201 N   0  0  0  0  0  0  0  0  0  0  0  0
   -1.5687    1.0368    2.5640 C   0  0  2  0  0  0  0  0  0  0  0  0
   -1.9354   -0.3589    3.0506 C   0  0  0  0  0  0  0  0  0  0  0  0
   -2.7089   -1.0985    2.4457 O   0  0  0  0  0  0  0  0  0  0  0  0
   -2.5542    2.0708    3.0859 C   0  0  0  0  0  0  0  0  0  0  0  0
   -2.2213    0.4227    0.6448 H   0  0  0  0  0  0  0  0  0  0  0  0
   -0.5531    1.2835    2.8923 H   0  0  0  0  0  0  0  0  0  0  0  0
   -3.5773    1.8403    2.7671 H   0  0  0  0  0  0  0  0  0  0  0  0
   -2.5493    2.1067    4.1803 H   0  0  0  0  0  0  0  0  0  0  0  0
   -2.3063    3.0696    2.7108 H   0  0  0  0  0  0  0  0  0  0  0  0
   -1.3311   -0.6649    4.2619 N   0  0  0  0  0  0  0  0  0  0  0  0
   -1.5553   -1.9140    4.9515 C   0  0  0  0  0  0  0  0  0  0  0  0
   -0.6732   -0.0086    4.6720 H   0  0  0  0  0  0  0  0  0  0  0  0
   -2.3832   -1.7956    5.6660 H   0  0  0  0  0  0  0  0  0  0  0  0
   -1.8107   -2.6954    4.2207 H   0  0  0  0  0  0  0  0  0  0  0  0
   -0.6423   -2.2027    5.4930 H   0  0  0  0  0  0  0  0  0  0  0  0
  1  3  1  0  0  0  0
  1  7  1  0  0  0  0
  1  2  2  0  0  0  0
 23 25  1  0  0  0  0
 23 29  1  0  0  0  0
 23 24  2  0  0  0  0
 50 51  1  0  0  0  0
 51 59  1  0  0  0  0
 51 52  2  0  0  0  0
  8  9  1  0  0  0  0
  9 17  1  0  0  0  0
  9 10  2  0  0  0  0
 30 31  1  0  0  0  0
 31 39  1  0  0  0  0
 31 32  2  0  0  0  0
 40 41  1  0  0  0  0
 41 49  1  0  0  0  0
 41 42  2  0  0  0  0
 50 53  1  0  0  0  0
 30 33  1  0  0  0  0
 59 60  1  0  0  0  0
 17 18  1  0  0  0  0
  8 11  1  0  0  0  0
 11 12  1  0  0  0  0
 40 43  1  0  0  0  0
 43 44  1  0  0  0  0
 49 50  1  0  0  0  0
  7  8  1  0  0  0  0
 29 30  1  0  0  0  0
 39 40  1  0  0  0  0
 12 44  1  0  0  0  0
  3  4  1  0  0  0  0
  3  5  1  0  0  0  0
  3  6  1  0  0  0  0
 25 26  1  0  0  0  0
 25 27  1  0  0  0  0
 25 28  1  0  0  0  0
 53 56  1  0  0  0  0
 53 57  1  0  0  0  0
 53 58  1  0  0  0  0
 33 36  1  0  0  0  0
 33 37  1  0  0  0  0
 33 38  1  0  0  0  0
 60 62  1  0  0  0  0
 60 63  1  0  0  0  0
 60 64  1  0  0  0  0
 18 20  1  0  0  0  0
 18 21  1  0  0  0  0
 18 22  1  0  0  0  0
 11 15  1  0  0  0  0
 11 16  1  0  0  0  0
 43 47  1  0  0  0  0
 43 48  1  0  0  0  0
 50 55  1  0  0  0  0
  8 14  1  0  0  0  0
 30 35  1  0  0  0  0
 40 46  1  0  0  0  0
 59 61  1  0  0  0  0
 17 19  1  0  0  0  0
  7 13  1  0  0  0  0
 29 34  1  0  0  0  0
 49 54  1  0  0  0  0
 39 45  1  0  0  0  0
M  END
$$$$

  -OEChem-05262214473D

 64 63  0     1  0  0  0  0  0999 V2000
    0.2407    6.0322   -7.9915 C   0  0  0  0  0  0  0  0  0  0  0  0
   -0.9612    6.2164   -8.1441 O   0  0  0  0  0  0  0  0  0  0  0  0
    1.1062    5.7949   -9.1844 C   0  0  0  0  0  0  0  0  0  0  0  0
    1.1874    4.7259   -9.4390 H   0  0  0  0  0  0  0  0  0  0  0  0
    0.7140    6.2813  -10.0919 H   0  0  0  0  0  0  0  0  0  0  0  0
    2.1449    6.1503   -9.0912 H   0  0  0  0  0  0  0  0  0  0  0  0
    0.9210    6.0198   -6.7861 N   0  0  0  0  0  0  0  0  0  0  0  0
    0.2788    6.2292   -5.5131 C   0  0  2  0  0  0  0  0  0  0  0  0
    1.2366    6.9853   -4.5946 C   0  0  0  0  0  0  0  0  0  0  0  0
    2.3996    7.2386   -4.9023 O   0  0  0  0  0  0  0  0  0  0  0  0
   -0.2453    4.9266   -4.9037 C   0  0  0  0  0  0  0  0  0  0  0  0
    1.0629    3.7170   -4.5193 S   0  0  0  0  0  0  0  0  0  0  0  0
    1.9249    5.8544   -6.7994 H   0  0  0  0  0  0  0  0  0  0  0  0
   -0.5734    6.8890   -5.7180 H   0  0  0  0  0  0  0  0  0  0  0  0
   -0.7882    5.1282   -3.9745 H   0  0  0  0  0  0  0  0  0  0  0  0
   -0.9438    4.4450   -5.5966 H   0  0  0  0  0  0  0  0  0  0  0  0
    0.6476    7.3206   -3.3837 N   0  0  0  0  0  0  0  0  0  0  0  0
    1.3590    8.0179   -2.3380 C   0  0  0  0  0  0  0  0  0  0  0  0
   -0.3340    7.1098   -3.2299 H   0  0  0  0  0  0  0  0  0  0  0  0
    1.8017    7.2874   -1.6450 H   0  0  0  0  0  0  0  0  0  0  0  0
    2.1565    8.6310   -2.7831 H   0  0  0  0  0  0  0  0  0  0  0  0
    0.6605    8.6670   -1.7894 H   0  0  0  0  0  0  0  0  0  0  0  0
   -6.7256    2.0330   -0.2766 C   0  0  0  0  0  0  0  0  0  0  0  0
   -7.1824    1.1039   -0.9322 O   0  0  0  0  0  0  0  0  0  0  0  0
   -7.5276    2.6077    0.8435 C   0  0  0  0  0  0  0  0  0  0  0  0
   -8.1775    3.4344    0.5145 H   0  0  0  0  0  0  0  0  0  0  0  0
   -8.2057    1.8676    1.2980 H   0  0  0  0  0  0  0  0  0  0  0  0
   -6.9411    3.0162    1.6819 H   0  0  0  0  0  0  0  0  0  0  0  0
   -5.4935    2.6382   -0.4627 N   0  0  0  0  0  0  0  0  0  0  0  0
   -4.5619    2.2388   -1.4845 C   0  0  2  0  0  0  0  0  0  0  0  0
   -3.1535    2.4674   -0.9521 C   0  0  0  0  0  0  0  0  0  0  0  0
   -2.8634    3.3945   -0.1987 O   0  0  0  0  0  0  0  0  0  0  0  0
   -4.7883    3.0138   -2.7732 C   0  0  0  0  0  0  0  0  0  0  0  0
   -5.2337    3.4049    0.1551 H   0  0  0  0  0  0  0  0  0  0  0  0
   -4.7192    1.1682   -1.6549 H   0  0  0  0  0  0  0  0  0  0  0  0
   -4.6352    4.0886   -2.6221 H   0  0  0  0  0  0  0  0  0  0  0  0
   -4.0976    2.6887   -3.5582 H   0  0  0  0  0  0  0  0  0  0  0  0
   -5.8111    2.8719   -3.1387 H   0  0  0  0  0  0  0  0  0  0  0  0
   -2.2466    1.5400   -1.4507 N   0  0  0  0  0  0  0  0  0  0  0  0
   -0.8424    1.5707   -1.1286 C   0  0  2  0  0  0  0  0  0  0  0  0
   -0.6844    1.8042    0.3725 C   0  0  0  0  0  0  0  0  0  0  0  0
   -0.0728    2.7625    0.8404 O   0  0  0  0  0  0  0  0  0  0  0  0
   -0.0703    2.5781   -1.9841 C   0  0  0  0  0  0  0  0  0  0  0  0
   -0.0366    2.1646   -3.7449 S   0  0  0  0  0  0  0  0  0  0  0  0
   -2.5850    0.7815   -2.0381 H   0  0  0  0  0  0  0  0  0  0  0  0
   -0.4676    0.5633   -1.3482 H   0  0  0  0  0  0  0  0  0  0  0  0
   -0.5084    3.5772   -1.8907 H   0  0  0  0  0  0  0  0  0  0  0  0
    0.9684    2.6396   -1.6419 H   0  0  0  0  0  0  0  0  0  0  0  0
   -1.2844    0.8046    1.1252 N   0  0  0  0  0  0  0  0  0  0  0  0
   -1.2498    0.7895    2.5689 C   0  0  2  0  0  0  0  0  0  0  0  0
   -1.2290   -0.6639    3.0236 C   0  0  0  0  0  0  0  0  0  0  0  0
   -1.8146   -1.5629    2.4237 O   0  0  0  0  0  0  0  0  0  0  0  0
   -2.4421    1.5265    3.1588 C   0  0  0  0  0  0  0  0  0  0  0  0
   -1.8072    0.0710    0.6559 H   0  0  0  0  0  0  0  0  0  0  0  0
   -0.3170    1.2798    2.8681 H   0  0  0  0  0  0  0  0  0  0  0  0
   -3.3859    1.0498    2.8699 H   0  0  0  0  0  0  0  0  0  0  0  0
   -2.3994    1.5388    4.2529 H   0  0  0  0  0  0  0  0  0  0  0  0
   -2.4722    2.5634    2.8070 H   0  0  0  0  0  0  0  0  0  0  0  0
   -0.5153   -0.8319    4.2020 N   0  0  0  0  0  0  0  0  0  0  0  0
   -0.3851   -2.1115    4.8590 C   0  0  0  0  0  0  0  0  0  0  0  0
   -0.0285   -0.0386    4.6088 H   0  0  0  0  0  0  0  0  0  0  0  0
   -1.1845   -2.2235    5.6063 H   0  0  0  0  0  0  0  0  0  0  0  0
   -0.4651   -2.9162    4.1133 H   0  0  0  0  0  0  0  0  0  0  0  0
    0.5936   -2.1696    5.3577 H   0  0  0  0  0  0  0  0  0  0  0  0
  1  3  1  0  0  0  0
  1  7  1  0  0  0  0
  1  2  2  0  0  0  0
 23 25  1  0  0  0  0
 23 29  1  0  0  0  0
 23 24  2  0  0  0  0
 50 51  1  0  0  0  0
 51 59  1  0  0  0  0
 51 52  2  0  0  0  0
  8  9  1  0  0  0  0
  9 17  1  0  0  0  0
  9 10  2  0  0  0  0
 30 31  1  0  0  0  0
 31 39  1  0  0  0  0
 31 32  2  0  0  0  0
 40 41  1  0  0  0  0
 41 49  1  0  0  0  0
 41 42  2  0  0  0  0
 50 53  1  0  0  0  0
 30 33  1  0  0  0  0
 59 60  1  0  0  0  0
 17 18  1  0  0  0  0
  8 11  1  0  0  0  0
 11 12  1  0  0  0  0
 40 43  1  0  0  0  0
 43 44  1  0  0  0  0
 49 50  1  0  0  0  0
  7  8  1  0  0  0  0
 29 30  1  0  0  0  0
 39 40  1  0  0  0  0
 12 44  1  0  0  0  0
  3  4  1  0  0  0  0
  3  5  1  0  0  0  0
  3  6  1  0  0  0  0
 25 26  1  0  0  0  0
 25 27  1  0  0  0  0
 25 28  1  0  0  0  0
 53 56  1  0  0  0  0
 53 57  1  0  0  0  0
 53 58  1  0  0  0  0
 33 36  1  0  0  0  0
 33 37  1  0  0  0  0
 33 38  1  0  0  0  0
 60 62  1  0  0  0  0
 60 63  1  0  0  0  0
 60 64  1  0  0  0  0
 18 20  1  0  0  0  0
 18 21  1  0  0  0  0
 18 22  1  0  0  0  0
 11 15  1  0  0  0  0
 11 16  1  0  0  0  0
 43 47  1  0  0  0  0
 43 48  1  0  0  0  0
 50 55  1  0  0  0  0
  8 14  1  0  0  0  0
 30 35  1  0  0  0  0
 40 46  1  0  0  0  0
 59 61  1  0  0  0  0
 17 19  1  0  0  0  0
  7 13  1  0  0  0  0
 29 34  1  0  0  0  0
 49 54  1  0  0  0  0
 39 45  1  0  0  0  0
M  END
$$$$

  -OEChem-05262214473D

 64 63  0     1  0  0  0  0  0999 V2000
    0.2407    6.0322   -7.9915 C   0  0  0  0  0  0  0  0  0  0  0  0
   -0.9612    6.2164   -8.1441 O   0  0  0  0  0  0  0  0  0  0  0  0
    1.1062    5.7949   -9.1844 C   0  0  0  0  0  0  0  0  0  0  0  0
    1.1874    4.7259   -9.4390 H   0  0  0  0  0  0  0  0  0  0  0  0
    0.7140    6.2813  -10.0919 H   0  0  0  0  0  0  0  0  0  0  0  0
    2.1449    6.1503   -9.0912 H   0  0  0  0  0  0  0  0  0  0  0  0
    0.9210    6.0198   -6.7861 N   0  0  0  0  0  0  0  0  0  0  0  0
    0.2788    6.2292   -5.5131 C   0  0  2  0  0  0  0  0  0  0  0  0
    1.2366    6.9853   -4.5946 C   0  0  0  0  0  0  0  0  0  0  0  0
    2.3996    7.2386   -4.9023 O   0  0  0  0  0  0  0  0  0  0  0  0
   -0.2453    4.9266   -4.9037 C   0  0  0  0  0  0  0  0  0  0  0  0
    1.0629    3.7170   -4.5193 S   0  0  0  0  0  0  0  0  0  0  0  0
    1.9249    5.8544   -6.7994 H   0  0  0  0  0  0  0  0  0  0  0  0
   -0.5734    6.8890   -5.7180 H   0  0  0  0  0  0  0  0  0  0  0  0
   -0.7882    5.1282   -3.9745 H   0  0  0  0  0  0  0  0  0  0  0  0
   -0.9438    4.4450   -5.5966 H   0  0  0  0  0  0  0  0  0  0  0  0
    0.6476    7.3206   -3.3837 N   0  0  0  0  0  0  0  0  0  0  0  0
    1.3590    8.0179   -2.3380 C   0  0  0  0  0  0  0  0  0  0  0  0
   -0.3340    7.1098   -3.2299 H   0  0  0  0  0  0  0  0  0  0  0  0
    1.8017    7.2874   -1.6450 H   0  0  0  0  0  0  0  0  0  0  0  0
    2.1565    8.6310   -2.7831 H   0  0  0  0  0  0  0  0  0  0  0  0
    0.6605    8.6670   -1.7894 H   0  0  0  0  0  0  0  0  0  0  0  0
   -6.7256    2.0330   -0.2766 C   0  0  0  0  0  0  0  0  0  0  0  0
   -7.1824    1.1039   -0.9322 O   0  0  0  0  0  0  0  0  0  0  0  0
   -7.5276    2.6077    0.8435 C   0  0  0  0  0  0  0  0  0  0  0  0
   -8.1775    3.4344    0.5145 H   0  0  0  0  0  0  0  0  0  0  0  0
   -8.2057    1.8676    1.2980 H   0  0  0  0  0  0  0  0  0  0  0  0
   -6.9411    3.0162    1.6819 H   0  0  0  0  0  0  0  0  0  0  0  0
   -5.4935    2.6382   -0.4627 N   0  0  0  0  0  0  0  0  0  0  0  0
   -4.5619    2.2388   -1.4845 C   0  0  2  0  0  0  0  0  0  0  0  0
   -3.1535    2.4674   -0.9521 C   0  0  0  0  0  0  0  0  0  0  0  0
   -2.8634    3.3945   -0.1987 O   0  0  0  0  0  0  0  0  0  0  0  0
   -4.7883    3.0138   -2.7732 C   0  0  0  0  0  0  0  0  0  0  0  0
   -5.2337    3.4049    0.1551 H   0  0  0  0  0  0  0  0  0  0  0  0
   -4.7192    1.1682   -1.6549 H   0  0  0  0  0  0  0  0  0  0  0  0
   -4.6352    4.0886   -2.6221 H   0  0  0  0  0  0  0  0  0  0  0  0
   -4.0976    2.6887   -3.5582 H   0  0  0  0  0  0  0  0  0  0  0  0
   -5.8111    2.8719   -3.1387 H   0  0  0  0  0  0  0  0  0  0  0  0
   -2.2466    1.5400   -1.4507 N   0  0  0  0  0  0  0  0  0  0  0  0
   -0.8424    1.5707   -1.1286 C   0  0  2  0  0  0  0  0  0  0  0  0
   -0.6844    1.8042    0.3725 C   0  0  0  0  0  0  0  0  0  0  0  0
   -0.3166    2.8764    0.8484 O   0  0  0  0  0  0  0  0  0  0  0  0
   -0.0703    2.5781   -1.9841 C   0  0  0  0  0  0  0  0  0  0  0  0
   -0.0366    2.1646   -3.7449 S   0  0  0  0  0  0  0  0  0  0  0  0
   -2.5850    0.7815   -2.0381 H   0  0  0  0  0  0  0  0  0  0  0  0
   -0.4676    0.5633   -1.3482 H   0  0  0  0  0  0  0  0  0  0  0  0
   -0.5084    3.5772   -1.8907 H   0  0  0  0  0  0  0  0  0  0  0  0
    0.9684    2.6396   -1.6419 H   0  0  0  0  0  0  0  0  0  0  0  0
   -0.9781    0.6686    1.1141 N   0  0  0  0  0  0  0  0  0  0  0  0
   -0.8787    0.6316    2.5544 C   0  0  2  0  0  0  0  0  0  0  0  0
   -0.4701   -0.7780    2.9615 C   0  0  0  0  0  0  0  0  0  0  0  0
   -0.8336   -1.7834    2.3548 O   0  0  0  0  0  0  0  0  0  0  0  0
   -2.1925    1.0274    3.2101 C   0  0  0  0  0  0  0  0  0  0  0  0
   -1.3172   -0.1637    0.6409 H   0  0  0  0  0  0  0  0  0  0  0  0
   -0.0889    1.3368    2.8352 H   0  0  0  0  0  0  0  0  0  0  0  0
   -2.9959    0.3322    2.9404 H   0  0  0  0  0  0  0  0  0  0  0  0
   -2.1072    1.0264    4.3018 H   0  0  0  0  0  0  0  0  0  0  0  0
   -2.4999    2.0297    2.8929 H   0  0  0  0  0  0  0  0  0  0  0  0
    0.3129   -0.7840    4.1074 N   0  0  0  0  0  0  0  0  0  0  0  0
    0.7917   -2.0020    4.7181 C   0  0  0  0  0  0  0  0  0  0  0  0
    0.5994    0.0982    4.5214 H   0  0  0  0  0  0  0  0  0  0  0  0
    0.0799   -2.3303    5.4898 H   0  0  0  0  0  0  0  0  0  0  0  0
    0.8867   -2.7842    3.9505 H   0  0  0  0  0  0  0  0  0  0  0  0
    1.7737   -1.8196    5.1790 H   0  0  0  0  0  0  0  0  0  0  0  0
  1  3  1  0  0  0  0
  1  7  1  0  0  0  0
  1  2  2  0  0  0  0
 23 25  1  0  0  0  0
 23 29  1  0  0  0  0
 23 24  2  0  0  0  0
 50 51  1  0  0  0  0
 51 59  1  0  0  0  0
 51 52  2  0  0  0  0
  8  9  1  0  0  0  0
  9 17  1  0  0  0  0
  9 10  2  0  0  0  0
 30 31  1  0  0  0  0
 31 39  1  0  0  0  0
 31 32  2  0  0  0  0
 40 41  1  0  0  0  0
 41 49  1  0  0  0  0
 41 42  2  0  0  0  0
 50 53  1  0  0  0  0
 30 33  1  0  0  0  0
 59 60  1  0  0  0  0
 17 18  1  0  0  0  0
  8 11  1  0  0  0  0
 11 12  1  0  0  0  0
 40 43  1  0  0  0  0
 43 44  1  0  0  0  0
 49 50  1  0  0  0  0
  7  8  1  0  0  0  0
 29 30  1  0  0  0  0
 39 40  1  0  0  0  0
 12 44  1  0  0  0  0
  3  4  1  0  0  0  0
  3  5  1  0  0  0  0
  3  6  1  0  0  0  0
 25 26  1  0  0  0  0
 25 27  1  0  0  0  0
 25 28  1  0  0  0  0
 53 56  1  0  0  0  0
 53 57  1  0  0  0  0
 53 58  1  0  0  0  0
 33 36  1  0  0  0  0
 33 37  1  0  0  0  0
 33 38  1  0  0  0  0
 60 62  1  0  0  0  0
 60 63  1  0  0  0  0
 60 64  1  0  0  0  0
 18 20  1  0  0  0  0
 18 21  1  0  0  0  0
 18 22  1  0  0  0  0
 11 15  1  0  0  0  0
 11 16  1  0  0  0  0
 43 47  1  0  0  0  0
 43 48  1  0  0  0  0
 50 55  1  0  0  0  0
  8 14  1  0  0  0  0
 30 35  1  0  0  0  0
 40 46  1  0  0  0  0
 59 61  1  0  0  0  0
 17 19  1  0  0  0  0
  7 13  1  0  0  0  0
 29 34  1  0  0  0  0
 49 54  1  0  0  0  0
 39 45  1  0  0  0  0
M  END
$$$$

  -OEChem-05262214473D

 64 63  0     1  0  0  0  0  0999 V2000
    0.2407    6.0322   -7.9915 C   0  0  0  0  0  0  0  0  0  0  0  0
   -0.9612    6.2164   -8.1441 O   0  0  0  0  0  0  0  0  0  0  0  0
    1.1062    5.7949   -9.1844 C   0  0  0  0  0  0  0  0  0  0  0  0
    1.1874    4.7259   -9.4390 H   0  0  0  0  0  0  0  0  0  0  0  0
    0.7140    6.2813  -10.0919 H   0  0  0  0  0  0  0  0  0  0  0  0
    2.1449    6.1503   -9.0912 H   0  0  0  0  0  0  0  0  0  0  0  0
    0.9210    6.0198   -6.7861 N   0  0  0  0  0  0  0  0  0  0  0  0
    0.2788    6.2292   -5.5131 C   0  0  2  0  0  0  0  0  0  0  0  0
    1.2366    6.9853   -4.5946 C   0  0  0  0  0  0  0  0  0  0  0  0
    2.3996    7.2386   -4.9023 O   0  0  0  0  0  0  0  0  0  0  0  0
   -0.2453    4.9266   -4.9037 C   0  0  0  0  0  0  0  0  0  0  0  0
    1.0629    3.7170   -4.5193 S   0  0  0  0  0  0  0  0  0  0  0  0
    1.9249    5.8544   -6.7994 H   0  0  0  0  0  0  0  0  0  0  0  0
   -0.5734    6.8890   -5.7180 H   0  0  0  0  0  0  0  0  0  0  0  0
   -0.7882    5.1282   -3.9745 H   0  0  0  0  0  0  0  0  0  0  0  0
   -0.9438    4.4450   -5.5966 H   0  0  0  0  0  0  0  0  0  0  0  0
    0.6476    7.3206   -3.3837 N   0  0  0  0  0  0  0  0  0  0  0  0
    1.3590    8.0179   -2.3380 C   0  0  0  0  0  0  0  0  0  0  0  0
   -0.3340    7.1098   -3.2299 H   0  0  0  0  0  0  0  0  0  0  0  0
    1.8017    7.2874   -1.6450 H   0  0  0  0  0  0  0  0  0  0  0  0
    2.1565    8.6310   -2.7831 H   0  0  0  0  0  0  0  0  0  0  0  0
    0.6605    8.6670   -1.7894 H   0  0  0  0  0  0  0  0  0  0  0  0
   -6.7256    2.0330   -0.2766 C   0  0  0  0  0  0  0  0  0  0  0  0
   -7.1824    1.1039   -0.9322 O   0  0  0  0  0  0  0  0  0  0  0  0
   -7.5276    2.6077    0.8435 C   0  0  0  0  0  0  0  0  0  0  0  0
   -8.1775    3.4344    0.5145 H   0  0  0  0  0  0  0  0  0  0  0  0
   -8.2057    1.8676    1.2980 H   0  0  0  0  0  0  0  0  0  0  0  0
   -6.9411    3.0162    1.6819 H   0  0  0  0  0  0  0  0  0  0  0  0
   -5.4935    2.6382   -0.4627 N   0  0  0  0  0  0  0  0  0  0  0  0
   -4.5619    2.2388   -1.4845 C   0  0  2  0  0  0  0  0  0  0  0  0
   -3.1535    2.4674   -0.9521 C   0  0  0  0  0  0  0  0  0  0  0  0
   -2.8634    3.3945   -0.1987 O   0  0  0  0  0  0  0  0  0  0  0  0
   -4.7883    3.0138   -2.7732 C   0  0  0  0  0  0  0  0  0  0  0  0
   -5.2337    3.4049    0.1551 H   0  0  0  0  0  0  0  0  0  0  0  0
   -4.7192    1.1682   -1.6549 H   0  0  0  0  0  0  0  0  0  0  0  0
   -4.6352    4.0886   -2.6221 H   0  0  0  0  0  0  0  0  0  0  0  0
   -4.0976    2.6887   -3.5582 H   0  0  0  0  0  0  0  0  0  0  0  0
   -5.8111    2.8719   -3.1387 H   0  0  0  0  0  0  0  0  0  0  0  0
   -2.2466    1.5400   -1.4507 N   0  0  0  0  0  0  0  0  0  0  0  0
   -0.8424    1.5707   -1.1286 C   0  0  2  0  0  0  0  0  0  0  0  0
   -0.6844    1.8042    0.3725 C   0  0  0  0  0  0  0  0  0  0  0  0
   -0.5807    2.9241    0.8687 O   0  0  0  0  0  0  0  0  0  0  0  0
   -0.0703    2.5781   -1.9841 C   0  0  0  0  0  0  0  0  0  0  0  0
   -0.0366    2.1646   -3.7449 S   0  0  0  0  0  0  0  0  0  0  0  0
   -2.5850    0.7815   -2.0381 H   0  0  0  0  0  0  0  0  0  0  0  0
   -0.4676    0.5633   -1.3482 H   0  0  0  0  0  0  0  0  0  0  0  0
   -0.5084    3.5772   -1.8907 H   0  0  0  0  0  0  0  0  0  0  0  0
    0.9684    2.6396   -1.6419 H   0  0  0  0  0  0  0  0  0  0  0  0
   -0.6481    0.6155    1.0876 N   0  0  0  0  0  0  0  0  0  0  0  0
   -0.4806    0.5738    2.5215 C   0  0  2  0  0  0  0  0  0  0  0  0
    0.2895   -0.6935    2.8684 C   0  0  0  0  0  0  0  0  0  0  0  0
    0.1673   -1.7450    2.2434 O   0  0  0  0  0  0  0  0  0  0  0  0
   -1.8224    0.6073    3.2365 C   0  0  0  0  0  0  0  0  0  0  0  0
   -0.7848   -0.2653    0.6006 H   0  0  0  0  0  0  0  0  0  0  0  0
    0.1156    1.4508    2.7959 H   0  0  0  0  0  0  0  0  0  0  0  0
   -2.4339   -0.2637    2.9739 H   0  0  0  0  0  0  0  0  0  0  0  0
   -1.6928    0.6045    4.3238 H   0  0  0  0  0  0  0  0  0  0  0  0
   -2.3876    1.5048    2.9627 H   0  0  0  0  0  0  0  0  0  0  0  0
    1.0969   -0.5245    3.9845 N   0  0  0  0  0  0  0  0  0  0  0  0
    1.8951   -1.5932    4.5384 C   0  0  0  0  0  0  0  0  0  0  0  0
    1.1677    0.3924    4.4158 H   0  0  0  0  0  0  0  0  0  0  0  0
    1.3238   -2.1087    5.3244 H   0  0  0  0  0  0  0  0  0  0  0  0
    2.1523   -2.3085    3.7433 H   0  0  0  0  0  0  0  0  0  0  0  0
    2.8175   -1.1765    4.9691 H   0  0  0  0  0  0  0  0  0  0  0  0
  1  3  1  0  0  0  0
  1  7  1  0  0  0  0
  1  2  2  0  0  0  0
 23 25  1  0  0  0  0
 23 29  1  0  0  0  0
 23 24  2  0  0  0  0
 50 51  1  0  0  0  0
 51 59  1  0  0  0  0
 51 52  2  0  0  0  0
  8  9  1  0  0  0  0
  9 17  1  0  0  0  0
  9 10  2  0  0  0  0
 30 31  1  0  0  0  0
 31 39  1  0  0  0  0
 31 32  2  0  0  0  0
 40 41  1  0  0  0  0
 41 49  1  0  0  0  0
 41 42  2  0  0  0  0
 50 53  1  0  0  0  0
 30 33  1  0  0  0  0
 59 60  1  0  0  0  0
 17 18  1  0  0  0  0
  8 11  1  0  0  0  0
 11 12  1  0  0  0  0
 40 43  1  0  0  0  0
 43 44  1  0  0  0  0
 49 50  1  0  0  0  0
  7  8  1  0  0  0  0
 29 30  1  0  0  0  0
 39 40  1  0  0  0  0
 12 44  1  0  0  0  0
  3  4  1  0  0  0  0
  3  5  1  0  0  0  0
  3  6  1  0  0  0  0
 25 26  1  0  0  0  0
 25 27  1  0  0  0  0
 25 28  1  0  0  0  0
 53 56  1  0  0  0  0
 53 57  1  0  0  0  0
 53 58  1  0  0  0  0
 33 36  1  0  0  0  0
 33 37  1  0  0  0  0
 33 38  1  0  0  0  0
 60 62  1  0  0  0  0
 60 63  1  0  0  0  0
 60 64  1  0  0  0  0
 18 20  1  0  0  0  0
 18 21  1  0  0  0  0
 18 22  1  0  0  0  0
 11 15  1  0  0  0  0
 11 16  1  0  0  0  0
 43 47  1  0  0  0  0
 43 48  1  0  0  0  0
 50 55  1  0  0  0  0
  8 14  1  0  0  0  0
 30 35  1  0  0  0  0
 40 46  1  0  0  0  0
 59 61  1  0  0  0  0
 17 19  1  0  0  0  0
  7 13  1  0  0  0  0
 29 34  1  0  0  0  0
 49 54  1  0  0  0  0
 39 45  1  0  0  0  0
M  END
$$$$

  -OEChem-05262214473D

 64 63  0     1  0  0  0  0  0999 V2000
    0.2407    6.0322   -7.9915 C   0  0  0  0  0  0  0  0  0  0  0  0
   -0.9612    6.2164   -8.1441 O   0  0  0  0  0  0  0  0  0  0  0  0
    1.1062    5.7949   -9.1844 C   0  0  0  0  0  0  0  0  0  0  0  0
    1.1874    4.7259   -9.4390 H   0  0  0  0  0  0  0  0  0  0  0  0
    0.7140    6.2813  -10.0919 H   0  0  0  0  0  0  0  0  0  0  0  0
    2.1449    6.1503   -9.0912 H   0  0  0  0  0  0  0  0  0  0  0  0
    0.9210    6.0198   -6.7861 N   0  0  0  0  0  0  0  0  0  0  0  0
    0.2788    6.2292   -5.5131 C   0  0  2  0  0  0  0  0  0  0  0  0
    1.2366    6.9853   -4.5946 C   0  0  0  0  0  0  0  0  0  0  0  0
    2.3996    7.2386   -4.9023 O   0  0  0  0  0  0  0  0  0  0  0  0
   -0.2453    4.9266   -4.9037 C   0  0  0  0  0  0  0  0  0  0  0  0
    1.0629    3.7170   -4.5193 S   0  0  0  0  0  0  0  0  0  0  0  0
    1.9249    5.8544   -6.7994 H   0  0  0  0  0  0  0  0  0  0  0  0
   -0.5734    6.8890   -5.7180 H   0  0  0  0  0  0  0  0  0  0  0  0
   -0.7882    5.1282   -3.9745 H   0  0  0  0  0  0  0  0  0  0  0  0
   -0.9438    4.4450   -5.5966 H   0  0  0  0  0  0  0  0  0  0  0  0
    0.6476    7.3206   -3.3837 N   0  0  0  0  0  0  0  0  0  0  0  0
    1.3590    8.0179   -2.3380 C   0  0  0  0  0  0  0  0  0  0  0  0
   -0.3340    7.1098   -3.2299 H   0  0  0  0  0  0  0  0  0  0  0  0
    1.8017    7.2874   -1.6450 H   0  0  0  0  0  0  0  0  0  0  0  0
    2.1565    8.6310   -2.7831 H   0  0  0  0  0  0  0  0  0  0  0  0
    0.6605    8.6670   -1.7894 H   0  0  0  0  0  0  0  0  0  0  0  0
   -6.7256    2.0330   -0.2766 C   0  0  0  0  0  0  0  0  0  0  0  0
   -7.1824    1.1039   -0.9322 O   0  0  0  0  0  0  0  0  0  0  0  0
   -7.5276    2.6077    0.8435 C   0  0  0  0  0  0  0  0  0  0  0  0
   -8.1775    3.4344    0.5145 H   0  0  0  0  0  0  0  0  0  0  0  0
   -8.2057    1.8676    1.2980 H   0  0  0  0  0  0  0  0  0  0  0  0
   -6.9411    3.0162    1.6819 H   0  0  0  0  0  0  0  0  0  0  0  0
   -5.4935    2.6382   -0.4627 N   0  0  0  0  0  0  0  0  0  0  0  0
   -4.5619    2.2388   -1.4845 C   0  0  2  0  0  0  0  0  0  0  0  0
   -3.1535    2.4674   -0.9521 C   0  0  0  0  0  0  0  0  0  0  0  0
   -2.8634    3.3945   -0.1987 O   0  0  0  0  0  0  0  0  0  0  0  0
   -4.7883    3.0138   -2.7732 C   0  0  0  0  0  0  0  0  0  0  0  0
   -5.2337    3.4049    0.1551 H   0  0  0  0  0  0  0  0  0  0  0  0
   -4.7192    1.1682   -1.6549 H   0  0  0  0  0  0  0  0  0  0  0  0
   -4.6352    4.0886   -2.6221 H   0  0  0  0  0  0  0  0  0  0  0  0
   -4.0976    2.6887   -3.5582 H   0  0  0  0  0  0  0  0  0  0  0  0
   -5.8111    2.8719   -3.1387 H   0  0  0  0  0  0  0  0  0  0  0  0
   -2.2466    1.5400   -1.4507 N   0  0  0  0  0  0  0  0  0  0  0  0
   -0.8424    1.5707   -1.1286 C   0  0  2  0  0  0  0  0  0  0  0  0
   -0.6844    1.8042    0.3725 C   0  0  0  0  0  0  0  0  0  0  0  0
   -0.8471    2.9026    0.9001 O   0  0  0  0  0  0  0  0  0  0  0  0
   -0.0703    2.5781   -1.9841 C   0  0  0  0  0  0  0  0  0  0  0  0
   -0.0366    2.1646   -3.7449 S   0  0  0  0  0  0  0  0  0  0  0  0
   -2.5850    0.7815   -2.0381 H   0  0  0  0  0  0  0  0  0  0  0  0
   -0.4676    0.5633   -1.3482 H   0  0  0  0  0  0  0  0  0  0  0  0
   -0.5084    3.5772   -1.8907 H   0  0  0  0  0  0  0  0  0  0  0  0
    0.9684    2.6396   -1.6419 H   0  0  0  0  0  0  0  0  0  0  0  0
   -0.3168    0.6488    1.0475 N   0  0  0  0  0  0  0  0  0  0  0  0
   -0.0827    0.6201    2.4724 C   0  0  2  0  0  0  0  0  0  0  0  0
    0.9981   -0.4162    2.7507 C   0  0  0  0  0  0  0  0  0  0  0  0
    1.1200   -1.4503    2.0973 O   0  0  0  0  0  0  0  0  0  0  0  0
   -1.3570    0.2950    3.2360 C   0  0  0  0  0  0  0  0  0  0  0  0
   -0.2463   -0.2270    0.5380 H   0  0  0  0  0  0  0  0  0  0  0  0
    0.2826    1.6140    2.7530 H   0  0  0  0  0  0  0  0  0  0  0  0
   -1.7381   -0.6972    2.9681 H   0  0  0  0  0  0  0  0  0  0  0  0
   -1.1843    0.3017    4.3173 H   0  0  0  0  0  0  0  0  0  0  0  0
   -2.1427    1.0245    3.0117 H   0  0  0  0  0  0  0  0  0  0  0  0
    1.7834   -0.0712    3.8417 N   0  0  0  0  0  0  0  0  0  0  0  0
    2.8497   -0.9129    4.3321 C   0  0  0  0  0  0  0  0  0  0  0  0
    1.6376    0.8239    4.2993 H   0  0  0  0  0  0  0  0  0  0  0  0
    2.4624   -1.5739    5.1214 H   0  0  0  0  0  0  0  0  0  0  0  0
    3.2457   -1.5216    3.5058 H   0  0  0  0  0  0  0  0  0  0  0  0
    3.6538   -0.2842    4.7423 H   0  0  0  0  0  0  0  0  0  0  0  0
  1  3  1  0  0  0  0
  1  7  1  0  0  0  0
  1  2  2  0  0  0  0
 23 25  1  0  0  0  0
 23 29  1  0  0  0  0
 23 24  2  0  0  0  0
 50 51  1  0  0  0  0
 51 59  1  0  0  0  0
 51 52  2  0  0  0  0
  8  9  1  0  0  0  0
  9 17  1  0  0  0  0
  9 10  2  0  0  0  0
 30 31  1  0  0  0  0
 31 39  1  0  0  0  0
 31 32  2  0  0  0  0
 40 41  1  0  0  0  0
 41 49  1  0  0  0  0
 41 42  2  0  0  0  0
 50 53  1  0  0  0  0
 30 33  1  0  0  0  0
 59 60  1  0  0  0  0
 17 18  1  0  0  0  0
  8 11  1  0  0  0  0
 11 12  1  0  0  0  0
 40 43  1  0  0  0  0
 43 44  1  0  0  0  0
 49 50  1  0  0  0  0
  7  8  1  0  0  0  0
 29 30  1  0  0  0  0
 39 40  1  0  0  0  0
 12 44  1  0  0  0  0
  3  4  1  0  0  0  0
  3  5  1  0  0  0  0
  3  6  1  0  0  0  0
 25 26  1  0  0  0  0
 25 27  1  0  0  0  0
 25 28  1  0  0  0  0
 53 56  1  0  0  0  0
 53 57  1  0  0  0  0
 53 58  1  0  0  0  0
 33 36  1  0  0  0  0
 33 37  1  0  0  0  0
 33 38  1  0  0  0  0
 60 62  1  0  0  0  0
 60 63  1  0  0  0  0
 60 64  1  0  0  0  0
 18 20  1  0  0  0  0
 18 21  1  0  0  0  0
 18 22  1  0  0  0  0
 11 15  1  0  0  0  0
 11 16  1  0  0  0  0
 43 47  1  0  0  0  0
 43 48  1  0  0  0  0
 50 55  1  0  0  0  0
  8 14  1  0  0  0  0
 30 35  1  0  0  0  0
 40 46  1  0  0  0  0
 59 61  1  0  0  0  0
 17 19  1  0  0  0  0
  7 13  1  0  0  0  0
 29 34  1  0  0  0  0
 49 54  1  0  0  0  0
 39 45  1  0  0  0  0
M  END
$$$$

  -OEChem-05262214473D

 64 63  0     1  0  0  0  0  0999 V2000
    0.2407    6.0322   -7.9915 C   0  0  0  0  0  0  0  0  0  0  0  0
   -0.9612    6.2164   -8.1441 O   0  0  0  0  0  0  0  0  0  0  0  0
    1.1062    5.7949   -9.1844 C   0  0  0  0  0  0  0  0  0  0  0  0
    1.1874    4.7259   -9.4390 H   0  0  0  0  0  0  0  0  0  0  0  0
    0.7140    6.2813  -10.0919 H   0  0  0  0  0  0  0  0  0  0  0  0
    2.1449    6.1503   -9.0912 H   0  0  0  0  0  0  0  0  0  0  0  0
    0.9210    6.0198   -6.7861 N   0  0  0  0  0  0  0  0  0  0  0  0
    0.2788    6.2292   -5.5131 C   0  0  2  0  0  0  0  0  0  0  0  0
    1.2366    6.9853   -4.5946 C   0  0  0  0  0  0  0  0  0  0  0  0
    2.3996    7.2386   -4.9023 O   0  0  0  0  0  0  0  0  0  0  0  0
   -0.2453    4.9266   -4.9037 C   0  0  0  0  0  0  0  0  0  0  0  0
    1.0629    3.7170   -4.5193 S   0  0  0  0  0  0  0  0  0  0  0  0
    1.9249    5.8544   -6.7994 H   0  0  0  0  0  0  0  0  0  0  0  0
   -0.5734    6.8890   -5.7180 H   0  0  0  0  0  0  0  0  0  0  0  0
   -0.7882    5.1282   -3.9745 H   0  0  0  0  0  0  0  0  0  0  0  0
   -0.9438    4.4450   -5.5966 H   0  0  0  0  0  0  0  0  0  0  0  0
    0.6476    7.3206   -3.3837 N   0  0  0  0  0  0  0  0  0  0  0  0
    1.3590    8.0179   -2.3380 C   0  0  0  0  0  0  0  0  0  0  0  0
   -0.3340    7.1098   -3.2299 H   0  0  0  0  0  0  0  0  0  0  0  0
    1.8017    7.2874   -1.6450 H   0  0  0  0  0  0  0  0  0  0  0  0
    2.1565    8.6310   -2.7831 H   0  0  0  0  0  0  0  0  0  0  0  0
    0.6605    8.6670   -1.7894 H   0  0  0  0  0  0  0  0  0  0  0  0
   -6.7256    2.0330   -0.2766 C   0  0  0  0  0  0  0  0  0  0  0  0
   -7.1824    1.1039   -0.9322 O   0  0  0  0  0  0  0  0  0  0  0  0
   -7.5276    2.6077    0.8435 C   0  0  0  0  0  0  0  0  0  0  0  0
   -8.1775    3.4344    0.5145 H   0  0  0  0  0  0  0  0  0  0  0  0
   -8.2057    1.8676    1.2980 H   0  0  0  0  0  0  0  0  0  0  0  0
   -6.9411    3.0162    1.6819 H   0  0  0  0  0  0  0  0  0  0  0  0
   -5.4935    2.6382   -0.4627 N   0  0  0  0  0  0  0  0  0  0  0  0
   -4.5619    2.2388   -1.4845 C   0  0  2  0  0  0  0  0  0  0  0  0
   -3.1535    2.4674   -0.9521 C   0  0  0  0  0  0  0  0  0  0  0  0
   -2.8634    3.3945   -0.1987 O   0  0  0  0  0  0  0  0  0  0  0  0
   -4.7883    3.0138   -2.7732 C   0  0  0  0  0  0  0  0  0  0  0  0
   -5.2337    3.4049    0.1551 H   0  0  0  0  0  0  0  0  0  0  0  0
   -4.7192    1.1682   -1.6549 H   0  0  0  0  0  0  0  0  0  0  0  0
   -4.6352    4.0886   -2.6221 H   0  0  0  0  0  0  0  0  0  0  0  0
   -4.0976    2.6887   -3.5582 H   0  0  0  0  0  0  0  0  0  0  0  0
   -5.8111    2.8719   -3.1387 H   0  0  0  0  0  0  0  0  0  0  0  0
   -2.2466    1.5400   -1.4507 N   0  0  0  0  0  0  0  0  0  0  0  0
   -0.8424    1.5707   -1.1286 C   0  0  2  0  0  0  0  0  0  0  0  0
   -0.6844    1.8042    0.3725 C   0  0  0  0  0  0  0  0  0  0  0  0
   -1.0977    2.8131    0.9404 O   0  0  0  0  0  0  0  0  0  0  0  0
   -0.0703    2.5781   -1.9841 C   0  0  0  0  0  0  0  0  0  0  0  0
   -0.0366    2.1646   -3.7449 S   0  0  0  0  0  0  0  0  0  0  0  0
   -2.5850    0.7815   -2.0381 H   0  0  0  0  0  0  0  0  0  0  0  0
   -0.4676    0.5633   -1.3482 H   0  0  0  0  0  0  0  0  0  0  0  0
   -0.5084    3.5772   -1.8907 H   0  0  0  0  0  0  0  0  0  0  0  0
    0.9684    2.6396   -1.6419 H   0  0  0  0  0  0  0  0  0  0  0  0
   -0.0069    0.7664    0.9966 N   0  0  0  0  0  0  0  0  0  0  0  0
    0.2879    0.7674    2.4105 C   0  0  2  0  0  0  0  0  0  0  0  0
    1.6073    0.0351    2.6164 C   0  0  0  0  0  0  0  0  0  0  0  0
    1.9595   -0.9194    1.9263 O   0  0  0  0  0  0  0  0  0  0  0  0
   -0.8281    0.1118    3.2089 C   0  0  0  0  0  0  0  0  0  0  0  0
    0.2616   -0.0513    0.4572 H   0  0  0  0  0  0  0  0  0  0  0  0
    0.4007    1.8153    2.7092 H   0  0  0  0  0  0  0  0  0  0  0  0
   -0.9560   -0.9388    2.9233 H   0  0  0  0  0  0  0  0  0  0  0  0
   -0.6164    0.1389    4.2829 H   0  0  0  0  0  0  0  0  0  0  0  0
   -1.7821    0.6215    3.0364 H   0  0  0  0  0  0  0  0  0  0  0  0
    2.3255    0.5451    3.6888 N   0  0  0  0  0  0  0  0  0  0  0  0
    3.5906   -0.0073    4.1132 C   0  0  0  0  0  0  0  0  0  0  0  0
    1.9771    1.3633    4.1796 H   0  0  0  0  0  0  0  0  0  0  0  0
    3.4181   -0.7622    4.8945 H   0  0  0  0  0  0  0  0  0  0  0  0
    4.0922   -0.4770    3.2542 H   0  0  0  0  0  0  0  0  0  0  0  0
    4.2256    0.7965    4.5141 H   0  0  0  0  0  0  0  0  0  0  0  0
  1  3  1  0  0  0  0
  1  7  1  0  0  0  0
  1  2  2  0  0  0  0
 23 25  1  0  0  0  0
 23 29  1  0  0  0  0
 23 24  2  0  0  0  0
 50 51  1  0  0  0  0
 51 59  1  0  0  0  0
 51 52  2  0  0  0  0
  8  9  1  0  0  0  0
  9 17  1  0  0  0  0
  9 10  2  0  0  0  0
 30 31  1  0  0  0  0
 31 39  1  0  0  0  0
 31 32  2  0  0  0  0
 40 41  1  0  0  0  0
 41 49  1  0  0  0  0
 41 42  2  0  0  0  0
 50 53  1  0  0  0  0
 30 33  1  0  0  0  0
 59 60  1  0  0  0  0
 17 18  1  0  0  0  0
  8 11  1  0  0  0  0
 11 12  1  0  0  0  0
 40 43  1  0  0  0  0
 43 44  1  0  0  0  0
 49 50  1  0  0  0  0
  7  8  1  0  0  0  0
 29 30  1  0  0  0  0
 39 40  1  0  0  0  0
 12 44  1  0  0  0  0
  3  4  1  0  0  0  0
  3  5  1  0  0  0  0
  3  6  1  0  0  0  0
 25 26  1  0  0  0  0
 25 27  1  0  0  0  0
 25 28  1  0  0  0  0
 53 56  1  0  0  0  0
 53 57  1  0  0  0  0
 53 58  1  0  0  0  0
 33 36  1  0  0  0  0
 33 37  1  0  0  0  0
 33 38  1  0  0  0  0
 60 62  1  0  0  0  0
 60 63  1  0  0  0  0
 60 64  1  0  0  0  0
 18 20  1  0  0  0  0
 18 21  1  0  0  0  0
 18 22  1  0  0  0  0
 11 15  1  0  0  0  0
 11 16  1  0  0  0  0
 43 47  1  0  0  0  0
 43 48  1  0  0  0  0
 50 55  1  0  0  0  0
  8 14  1  0  0  0  0
 30 35  1  0  0  0  0
 40 46  1  0  0  0  0
 59 61  1  0  0  0  0
 17 19  1  0  0  0  0
  7 13  1  0  0  0  0
 29 34  1  0  0  0  0
 49 54  1  0  0  0  0
 39 45  1  0  0  0  0
M  END
$$$$

  -OEChem-05262214473D

 64 63  0     1  0  0  0  0  0999 V2000
    0.2407    6.0322   -7.9915 C   0  0  0  0  0  0  0  0  0  0  0  0
   -0.9612    6.2164   -8.1441 O   0  0  0  0  0  0  0  0  0  0  0  0
    1.1062    5.7949   -9.1844 C   0  0  0  0  0  0  0  0  0  0  0  0
    1.1874    4.7259   -9.4390 H   0  0  0  0  0  0  0  0  0  0  0  0
    0.7140    6.2813  -10.0919 H   0  0  0  0  0  0  0  0  0  0  0  0
    2.1449    6.1503   -9.0912 H   0  0  0  0  0  0  0  0  0  0  0  0
    0.9210    6.0198   -6.7861 N   0  0  0  0  0  0  0  0  0  0  0  0
    0.2788    6.2292   -5.5131 C   0  0  2  0  0  0  0  0  0  0  0  0
    1.2366    6.9853   -4.5946 C   0  0  0  0  0  0  0  0  0  0  0  0
    2.3996    7.2386   -4.9023 O   0  0  0  0  0  0  0  0  0  0  0  0
   -0.2453    4.9266   -4.9037 C   0  0  0  0  0  0  0  0  0  0  0  0
    1.0629    3.7170   -4.5193 S   0  0  0  0  0  0  0  0  0  0  0  0
    1.9249    5.8544   -6.7994 H   0  0  0  0  0  0  0  0  0  0  0  0
   -0.5734    6.8890   -5.7180 H   0  0  0  0  0  0  0  0  0  0  0  0
   -0.7882    5.1282   -3.9745 H   0  0  0  0  0  0  0  0  0  0  0  0
   -0.9438    4.4450   -5.5966 H   0  0  0  0  0  0  0  0  0  0  0  0
    0.6476    7.3206   -3.3837 N   0  0  0  0  0  0  0  0  0  0  0  0
    1.3590    8.0179   -2.3380 C   0  0  0  0  0  0  0  0  0  0  0  0
   -0.3340    7.1098   -3.2299 H   0  0  0  0  0  0  0  0  0  0  0  0
    1.8017    7.2874   -1.6450 H   0  0  0  0  0  0  0  0  0  0  0  0
    2.1565    8.6310   -2.7831 H   0  0  0  0  0  0  0  0  0  0  0  0
    0.6605    8.6670   -1.7894 H   0  0  0  0  0  0  0  0  0  0  0  0
   -6.7256    2.0330   -0.2766 C   0  0  0  0  0  0  0  0  0  0  0  0
   -7.1824    1.1039   -0.9322 O   0  0  0  0  0  0  0  0  0  0  0  0
   -7.5276    2.6077    0.8435 C   0  0  0  0  0  0  0  0  0  0  0  0
   -8.1775    3.4344    0.5145 H   0  0  0  0  0  0  0  0  0  0  0  0
   -8.2057    1.8676    1.2980 H   0  0  0  0  0  0  0  0  0  0  0  0
   -6.9411    3.0162    1.6819 H   0  0  0  0  0  0  0  0  0  0  0  0
   -5.4935    2.6382   -0.4627 N   0  0  0  0  0  0  0  0  0  0  0  0
   -4.5619    2.2388   -1.4845 C   0  0  2  0  0  0  0  0  0  0  0  0
   -3.1535    2.4674   -0.9521 C   0  0  0  0  0  0  0  0  0  0  0  0
   -2.8634    3.3945   -0.1987 O   0  0  0  0  0  0  0  0  0  0  0  0
   -4.7883    3.0138   -2.7732 C   0  0  0  0  0  0  0  0  0  0  0  0
   -5.2337    3.4049    0.1551 H   0  0  0  0  0  0  0  0  0  0  0  0
   -4.7192    1.1682   -1.6549 H   0  0  0  0  0  0  0  0  0  0  0  0
   -4.6352    4.0886   -2.6221 H   0  0  0  0  0  0  0  0  0  0  0  0
   -4.0976    2.6887   -3.5582 H   0  0  0  0  0  0  0  0  0  0  0  0
   -5.8111    2.8719   -3.1387 H   0  0  0  0  0  0  0  0  0  0  0  0
   -2.2466    1.5400   -1.4507 N   0  0  0  0  0  0  0  0  0  0  0  0
   -0.8424    1.5707   -1.1286 C   0  0  2  0  0  0  0  0  0  0  0  0
   -0.6844    1.8042    0.3725 C   0  0  0  0  0  0  0  0  0  0  0  0
   -1.3155    2.6619    0.9869 O   0  0  0  0  0  0  0  0  0  0  0  0
   -0.0703    2.5781   -1.9841 C   0  0  0  0  0  0  0  0  0  0  0  0
   -0.0366    2.1646   -3.7449 S   0  0  0  0  0  0  0  0  0  0  0  0
   -2.5850    0.7815   -2.0381 H   0  0  0  0  0  0  0  0  0  0  0  0
   -0.4676    0.5633   -1.3482 H   0  0  0  0  0  0  0  0  0  0  0  0
   -0.5084    3.5772   -1.8907 H   0  0  0  0  0  0  0  0  0  0  0  0
    0.9684    2.6396   -1.6419 H   0  0  0  0  0  0  0  0  0  0  0  0
    0.2606    0.9601    0.9384 N   0  0  0  0  0  0  0  0  0  0  0  0
    0.6059    1.0056    2.3399 C   0  0  2  0  0  0  0  0  0  0  0  0
    2.0756    0.6295    2.4746 C   0  0  0  0  0  0  0  0  0  0  0  0
    2.6285   -0.1884    1.7422 O   0  0  0  0  0  0  0  0  0  0  0  0
   -0.2716    0.0700    3.1568 C   0  0  0  0  0  0  0  0  0  0  0  0
    0.7043    0.2498    0.3637 H   0  0  0  0  0  0  0  0  0  0  0  0
    0.4618    2.0409    2.6677 H   0  0  0  0  0  0  0  0  0  0  0  0
   -0.1408   -0.9720    2.8426 H   0  0  0  0  0  0  0  0  0  0  0  0
   -0.0277    0.1269    4.2227 H   0  0  0  0  0  0  0  0  0  0  0  0
   -1.3303    0.3234    3.0352 H   0  0  0  0  0  0  0  0  0  0  0  0
    2.6863    1.2825    3.5362 N   0  0  0  0  0  0  0  0  0  0  0  0
    4.0673    1.0617    3.8968 C   0  0  0  0  0  0  0  0  0  0  0  0
    2.1630    1.9740    4.0651 H   0  0  0  0  0  0  0  0  0  0  0  0
    4.1257    0.2710    4.6594 H   0  0  0  0  0  0  0  0  0  0  0  0
    4.6342    0.7541    3.0057 H   0  0  0  0  0  0  0  0  0  0  0  0
    4.4941    1.9919    4.2999 H   0  0  0  0  0  0  0  0  0  0  0  0
  1  3  1  0  0  0  0
  1  7  1  0  0  0  0
  1  2  2  0  0  0  0
 23 25  1  0  0  0  0
 23 29  1  0  0  0  0
 23 24  2  0  0  0  0
 50 51  1  0  0  0  0
 51 59  1  0  0  0  0
 51 52  2  0  0  0  0
  8  9  1  0  0  0  0
  9 17  1  0  0  0  0
  9 10  2  0  0  0  0
 30 31  1  0  0  0  0
 31 39  1  0  0  0  0
 31 32  2  0  0  0  0
 40 41  1  0  0  0  0
 41 49  1  0  0  0  0
 41 42  2  0  0  0  0
 50 53  1  0  0  0  0
 30 33  1  0  0  0  0
 59 60  1  0  0  0  0
 17 18  1  0  0  0  0
  8 11  1  0  0  0  0
 11 12  1  0  0  0  0
 40 43  1  0  0  0  0
 43 44  1  0  0  0  0
 49 50  1  0  0  0  0
  7  8  1  0  0  0  0
 29 30  1  0  0  0  0
 39 40  1  0  0  0  0
 12 44  1  0  0  0  0
  3  4  1  0  0  0  0
  3  5  1  0  0  0  0
  3  6  1  0  0  0  0
 25 26  1  0  0  0  0
 25 27  1  0  0  0  0
 25 28  1  0  0  0  0
 53 56  1  0  0  0  0
 53 57  1  0  0  0  0
 53 58  1  0  0  0  0
 33 36  1  0  0  0  0
 33 37  1  0  0  0  0
 33 38  1  0  0  0  0
 60 62  1  0  0  0  0
 60 63  1  0  0  0  0
 60 64  1  0  0  0  0
 18 20  1  0  0  0  0
 18 21  1  0  0  0  0
 18 22  1  0  0  0  0
 11 15  1  0  0  0  0
 11 16  1  0  0  0  0
 43 47  1  0  0  0  0
 43 48  1  0  0  0  0
 50 55  1  0  0  0  0
  8 14  1  0  0  0  0
 30 35  1  0  0  0  0
 40 46  1  0  0  0  0
 59 61  1  0  0  0  0
 17 19  1  0  0  0  0
  7 13  1  0  0  0  0
 29 34  1  0  0  0  0
 49 54  1  0  0  0  0
 39 45  1  0  0  0  0
M  END
$$$$

  -OEChem-05262214473D

 64 63  0     1  0  0  0  0  0999 V2000
    0.2407    6.0322   -7.9915 C   0  0  0  0  0  0  0  0  0  0  0  0
   -0.9612    6.2164   -8.1441 O   0  0  0  0  0  0  0  0  0  0  0  0
    1.1062    5.7949   -9.1844 C   0  0  0  0  0  0  0  0  0  0  0  0
    1.1874    4.7259   -9.4390 H   0  0  0  0  0  0  0  0  0  0  0  0
    0.7140    6.2813  -10.0919 H   0  0  0  0  0  0  0  0  0  0  0  0
    2.1449    6.1503   -9.0912 H   0  0  0  0  0  0  0  0  0  0  0  0
    0.9210    6.0198   -6.7861 N   0  0  0  0  0  0  0  0  0  0  0  0
    0.2788    6.2292   -5.5131 C   0  0  2  0  0  0  0  0  0  0  0  0
    1.2366    6.9853   -4.5946 C   0  0  0  0  0  0  0  0  0  0  0  0
    2.3996    7.2386   -4.9023 O   0  0  0  0  0  0  0  0  0  0  0  0
   -0.2453    4.9266   -4.9037 C   0  0  0  0  0  0  0  0  0  0  0  0
    1.0629    3.7170   -4.5193 S   0  0  0  0  0  0  0  0  0  0  0  0
    1.9249    5.8544   -6.7994 H   0  0  0  0  0  0  0  0  0  0  0  0
   -0.5734    6.8890   -5.7180 H   0  0  0  0  0  0  0  0  0  0  0  0
   -0.7882    5.1282   -3.9745 H   0  0  0  0  0  0  0  0  0  0  0  0
   -0.9438    4.4450   -5.5966 H   0  0  0  0  0  0  0  0  0  0  0  0
    0.6476    7.3206   -3.3837 N   0  0  0  0  0  0  0  0  0  0  0  0
    1.3590    8.0179   -2.3380 C   0  0  0  0  0  0  0  0  0  0  0  0
   -0.3340    7.1098   -3.2299 H   0  0  0  0  0  0  0  0  0  0  0  0
    1.8017    7.2874   -1.6450 H   0  0  0  0  0  0  0  0  0  0  0  0
    2.1565    8.6310   -2.7831 H   0  0  0  0  0  0  0  0  0  0  0  0
    0.6605    8.6670   -1.7894 H   0  0  0  0  0  0  0  0  0  0  0  0
   -6.7256    2.0330   -0.2766 C   0  0  0  0  0  0  0  0  0  0  0  0
   -7.1824    1.1039   -0.9322 O   0  0  0  0  0  0  0  0  0  0  0  0
   -7.5276    2.6077    0.8435 C   0  0  0  0  0  0  0  0  0  0  0  0
   -8.1775    3.4344    0.5145 H   0  0  0  0  0  0  0  0  0  0  0  0
   -8.2057    1.8676    1.2980 H   0  0  0  0  0  0  0  0  0  0  0  0
   -6.9411    3.0162    1.6819 H   0  0  0  0  0  0  0  0  0  0  0  0
   -5.4935    2.6382   -0.4627 N   0  0  0  0  0  0  0  0  0  0  0  0
   -4.5619    2.2388   -1.4845 C   0  0  2  0  0  0  0  0  0  0  0  0
   -3.1535    2.4674   -0.9521 C   0  0  0  0  0  0  0  0  0  0  0  0
   -2.8634    3.3945   -0.1987 O   0  0  0  0  0  0  0  0  0  0  0  0
   -4.7883    3.0138   -2.7732 C   0  0  0  0  0  0  0  0  0  0  0  0
   -5.2337    3.4049    0.1551 H   0  0  0  0  0  0  0  0  0  0  0  0
   -4.7192    1.1682   -1.6549 H   0  0  0  0  0  0  0  0  0  0  0  0
   -4.6352    4.0886   -2.6221 H   0  0  0  0  0  0  0  0  0  0  0  0
   -4.0976    2.6887   -3.5582 H   0  0  0  0  0  0  0  0  0  0  0  0
   -5.8111    2.8719   -3.1387 H   0  0  0  0  0  0  0  0  0  0  0  0
   -2.2466    1.5400   -1.4507 N   0  0  0  0  0  0  0  0  0  0  0  0
   -0.8424    1.5707   -1.1286 C   0  0  2  0  0  0  0  0  0  0  0  0
   -0.6844    1.8042    0.3725 C   0  0  0  0  0  0  0  0  0  0  0  0
   -1.4855    2.4592    1.0363 O   0  0  0  0  0  0  0  0  0  0  0  0
   -0.0703    2.5781   -1.9841 C   0  0  0  0  0  0  0  0  0  0  0  0
   -0.0366    2.1646   -3.7449 S   0  0  0  0  0  0  0  0  0  0  0  0
   -2.5850    0.7815   -2.0381 H   0  0  0  0  0  0  0  0  0  0  0  0
   -0.4676    0.5633   -1.3482 H   0  0  0  0  0  0  0  0  0  0  0  0
   -0.5084    3.5772   -1.8907 H   0  0  0  0  0  0  0  0  0  0  0  0
    0.9684    2.6396   -1.6419 H   0  0  0  0  0  0  0  0  0  0  0  0
    0.4673    1.2168    0.8767 N   0  0  0  0  0  0  0  0  0  0  0  0
    0.8498    1.3185    2.2656 C   0  0  2  0  0  0  0  0  0  0  0  0
    2.3712    1.3266    2.3351 C   0  0  0  0  0  0  0  0  0  0  0  0
    3.0815    0.6927    1.5575 O   0  0  0  0  0  0  0  0  0  0  0  0
    0.2744    0.1726    3.0833 C   0  0  0  0  0  0  0  0  0  0  0  0
    1.0517    0.6557    0.2640 H   0  0  0  0  0  0  0  0  0  0  0  0
    0.4618    2.2755    2.6312 H   0  0  0  0  0  0  0  0  0  0  0  0
    0.6518   -0.7945    2.7316 H   0  0  0  0  0  0  0  0  0  0  0  0
    0.5415    0.2667    4.1411 H   0  0  0  0  0  0  0  0  0  0  0  0
   -0.8181    0.1503    3.0082 H   0  0  0  0  0  0  0  0  0  0  0  0
    2.8412    2.0905    3.3942 N   0  0  0  0  0  0  0  0  0  0  0  0
    4.2472    2.2213    3.6975 C   0  0  0  0  0  0  0  0  0  0  0  0
    2.1828    2.6142    3.9634 H   0  0  0  0  0  0  0  0  0  0  0  0
    4.5372    1.4554    4.4319 H   0  0  0  0  0  0  0  0  0  0  0  0
    4.8347    2.0878    2.7772 H   0  0  0  0  0  0  0  0  0  0  0  0
    4.4408    3.2207    4.1144 H   0  0  0  0  0  0  0  0  0  0  0  0
  1  3  1  0  0  0  0
  1  7  1  0  0  0  0
  1  2  2  0  0  0  0
 23 25  1  0  0  0  0
 23 29  1  0  0  0  0
 23 24  2  0  0  0  0
 50 51  1  0  0  0  0
 51 59  1  0  0  0  0
 51 52  2  0  0  0  0
  8  9  1  0  0  0  0
  9 17  1  0  0  0  0
  9 10  2  0  0  0  0
 30 31  1  0  0  0  0
 31 39  1  0  0  0  0
 31 32  2  0  0  0  0
 40 41  1  0  0  0  0
 41 49  1  0  0  0  0
 41 42  2  0  0  0  0
 50 53  1  0  0  0  0
 30 33  1  0  0  0  0
 59 60  1  0  0  0  0
 17 18  1  0  0  0  0
  8 11  1  0  0  0  0
 11 12  1  0  0  0  0
 40 43  1  0  0  0  0
 43 44  1  0  0  0  0
 49 50  1  0  0  0  0
  7  8  1  0  0  0  0
 29 30  1  0  0  0  0
 39 40  1  0  0  0  0
 12 44  1  0  0  0  0
  3  4  1  0  0  0  0
  3  5  1  0  0  0  0
  3  6  1  0  0  0  0
 25 26  1  0  0  0  0
 25 27  1  0  0  0  0
 25 28  1  0  0  0  0
 53 56  1  0  0  0  0
 53 57  1  0  0  0  0
 53 58  1  0  0  0  0
 33 36  1  0  0  0  0
 33 37  1  0  0  0  0
 33 38  1  0  0  0  0
 60 62  1  0  0  0  0
 60 63  1  0  0  0  0
 60 64  1  0  0  0  0
 18 20  1  0  0  0  0
 18 21  1  0  0  0  0
 18 22  1  0  0  0  0
 11 15  1  0  0  0  0
 11 16  1  0  0  0  0
 43 47  1  0  0  0  0
 43 48  1  0  0  0  0
 50 55  1  0  0  0  0
  8 14  1  0  0  0  0
 30 35  1  0  0  0  0
 40 46  1  0  0  0  0
 59 61  1  0  0  0  0
 17 19  1  0  0  0  0
  7 13  1  0  0  0  0
 29 34  1  0  0  0  0
 49 54  1  0  0  0  0
 39 45  1  0  0  0  0
M  END
$$$$

  -OEChem-05262214473D

 64 63  0     1  0  0  0  0  0999 V2000
    0.2407    6.0322   -7.9915 C   0  0  0  0  0  0  0  0  0  0  0  0
   -0.9612    6.2164   -8.1441 O   0  0  0  0  0  0  0  0  0  0  0  0
    1.1062    5.7949   -9.1844 C   0  0  0  0  0  0  0  0  0  0  0  0
    1.1874    4.7259   -9.4390 H   0  0  0  0  0  0  0  0  0  0  0  0
    0.7140    6.2813  -10.0919 H   0  0  0  0  0  0  0  0  0  0  0  0
    2.1449    6.1503   -9.0912 H   0  0  0  0  0  0  0  0  0  0  0  0
    0.9210    6.0198   -6.7861 N   0  0  0  0  0  0  0  0  0  0  0  0
    0.2788    6.2292   -5.5131 C   0  0  2  0  0  0  0  0  0  0  0  0
    1.2366    6.9853   -4.5946 C   0  0  0  0  0  0  0  0  0  0  0  0
    2.3996    7.2386   -4.9023 O   0  0  0  0  0  0  0  0  0  0  0  0
   -0.2453    4.9266   -4.9037 C   0  0  0  0  0  0  0  0  0  0  0  0
    1.0629    3.7170   -4.5193 S   0  0  0  0  0  0  0  0  0  0  0  0
    1.9249    5.8544   -6.7994 H   0  0  0  0  0  0  0  0  0  0  0  0
   -0.5734    6.8890   -5.7180 H   0  0  0  0  0  0  0  0  0  0  0  0
   -0.7882    5.1282   -3.9745 H   0  0  0  0  0  0  0  0  0  0  0  0
   -0.9438    4.4450   -5.5966 H   0  0  0  0  0  0  0  0  0  0  0  0
    0.6476    7.3206   -3.3837 N   0  0  0  0  0  0  0  0  0  0  0  0
    1.3590    8.0179   -2.3380 C   0  0  0  0  0  0  0  0  0  0  0  0
   -0.3340    7.1098   -3.2299 H   0  0  0  0  0  0  0  0  0  0  0  0
    1.8017    7.2874   -1.6450 H   0  0  0  0  0  0  0  0  0  0  0  0
    2.1565    8.6310   -2.7831 H   0  0  0  0  0  0  0  0  0  0  0  0
    0.6605    8.6670   -1.7894 H   0  0  0  0  0  0  0  0  0  0  0  0
   -6.7256    2.0330   -0.2766 C   0  0  0  0  0  0  0  0  0  0  0  0
   -7.1824    1.1039   -0.9322 O   0  0  0  0  0  0  0  0  0  0  0  0
   -7.5276    2.6077    0.8435 C   0  0  0  0  0  0  0  0  0  0  0  0
   -8.1775    3.4344    0.5145 H   0  0  0  0  0  0  0  0  0  0  0  0
   -8.2057    1.8676    1.2980 H   0  0  0  0  0  0  0  0  0  0  0  0
   -6.9411    3.0162    1.6819 H   0  0  0  0  0  0  0  0  0  0  0  0
   -5.4935    2.6382   -0.4627 N   0  0  0  0  0  0  0  0  0  0  0  0
   -4.5619    2.2388   -1.4845 C   0  0  2  0  0  0  0  0  0  0  0  0
   -3.1535    2.4674   -0.9521 C   0  0  0  0  0  0  0  0  0  0  0  0
   -2.8634    3.3945   -0.1987 O   0  0  0  0  0  0  0  0  0  0  0  0
   -4.7883    3.0138   -2.7732 C   0  0  0  0  0  0  0  0  0  0  0  0
   -5.2337    3.4049    0.1551 H   0  0  0  0  0  0  0  0  0  0  0  0
   -4.7192    1.1682   -1.6549 H   0  0  0  0  0  0  0  0  0  0  0  0
   -4.6352    4.0886   -2.6221 H   0  0  0  0  0  0  0  0  0  0  0  0
   -4.0976    2.6887   -3.5582 H   0  0  0  0  0  0  0  0  0  0  0  0
   -5.8111    2.8719   -3.1387 H   0  0  0  0  0  0  0  0  0  0  0  0
   -2.2466    1.5400   -1.4507 N   0  0  0  0  0  0  0  0  0  0  0  0
   -0.8424    1.5707   -1.1286 C   0  0  2  0  0  0  0  0  0  0  0  0
   -0.6844    1.8042    0.3725 C   0  0  0  0  0  0  0  0  0  0  0  0
   -1.5962    2.2188    1.0854 O   0  0  0  0  0  0  0  0  0  0  0  0
   -0.0703    2.5781   -1.9841 C   0  0  0  0  0  0  0  0  0  0  0  0
   -0.0366    2.1646   -3.7449 S   0  0  0  0  0  0  0  0  0  0  0  0
   -2.5850    0.7815   -2.0381 H   0  0  0  0  0  0  0  0  0  0  0  0
   -0.4676    0.5633   -1.3482 H   0  0  0  0  0  0  0  0  0  0  0  0
   -0.5084    3.5772   -1.8907 H   0  0  0  0  0  0  0  0  0  0  0  0
    0.9684    2.6396   -1.6419 H   0  0  0  0  0  0  0  0  0  0  0  0
    0.5993    1.5190    0.8158 N   0  0  0  0  0  0  0  0  0  0  0  0
    1.0028    1.6847    2.1926 C   0  0  2  0  0  0  0  0  0  0  0  0
    2.4738    2.0789    2.2073 C   0  0  0  0  0  0  0  0  0  0  0  0
    3.2877    1.6640    1.3848 O   0  0  0  0  0  0  0  0  0  0  0  0
    0.7729    0.4126    2.9935 C   0  0  0  0  0  0  0  0  0  0  0  0
    1.2800    1.1388    0.1649 H   0  0  0  0  0  0  0  0  0  0  0  0
    0.4007    2.5031    2.6023 H   0  0  0  0  0  0  0  0  0  0  0  0
    1.3679   -0.4185    2.5978 H   0  0  0  0  0  0  0  0  0  0  0  0
    1.0526    0.5488    4.0434 H   0  0  0  0  0  0  0  0  0  0  0  0
   -0.2804    0.1142    2.9572 H   0  0  0  0  0  0  0  0  0  0  0  0
    2.7797    2.9142    3.2726 N   0  0  0  0  0  0  0  0  0  0  0  0
    4.1181    3.3925    3.5290 C   0  0  0  0  0  0  0  0  0  0  0  0
    2.0350    3.2403    3.8816 H   0  0  0  0  0  0  0  0  0  0  0  0
    4.6244    2.7101    4.2276 H   0  0  0  0  0  0  0  0  0  0  0  0
    4.6801    3.4331    2.5842 H   0  0  0  0  0  0  0  0  0  0  0  0
    4.0695    4.3990    3.9703 H   0  0  0  0  0  0  0  0  0  0  0  0
  1  3  1  0  0  0  0
  1  7  1  0  0  0  0
  1  2  2  0  0  0  0
 23 25  1  0  0  0  0
 23 29  1  0  0  0  0
 23 24  2  0  0  0  0
 50 51  1  0  0  0  0
 51 59  1  0  0  0  0
 51 52  2  0  0  0  0
  8  9  1  0  0  0  0
  9 17  1  0  0  0  0
  9 10  2  0  0  0  0
 30 31  1  0  0  0  0
 31 39  1  0  0  0  0
 31 32  2  0  0  0  0
 40 41  1  0  0  0  0
 41 49  1  0  0  0  0
 41 42  2  0  0  0  0
 50 53  1  0  0  0  0
 30 33  1  0  0  0  0
 59 60  1  0  0  0  0
 17 18  1  0  0  0  0
  8 11  1  0  0  0  0
 11 12  1  0  0  0  0
 40 43  1  0  0  0  0
 43 44  1  0  0  0  0
 49 50  1  0  0  0  0
  7  8  1  0  0  0  0
 29 30  1  0  0  0  0
 39 40  1  0  0  0  0
 12 44  1  0  0  0  0
  3  4  1  0  0  0  0
  3  5  1  0  0  0  0
  3  6  1  0  0  0  0
 25 26  1  0  0  0  0
 25 27  1  0  0  0  0
 25 28  1  0  0  0  0
 53 56  1  0  0  0  0
 53 57  1  0  0  0  0
 53 58  1  0  0  0  0
 33 36  1  0  0  0  0
 33 37  1  0  0  0  0
 33 38  1  0  0  0  0
 60 62  1  0  0  0  0
 60 63  1  0  0  0  0
 60 64  1  0  0  0  0
 18 20  1  0  0  0  0
 18 21  1  0  0  0  0
 18 22  1  0  0  0  0
 11 15  1  0  0  0  0
 11 16  1  0  0  0  0
 43 47  1  0  0  0  0
 43 48  1  0  0  0  0
 50 55  1  0  0  0  0
  8 14  1  0  0  0  0
 30 35  1  0  0  0  0
 40 46  1  0  0  0  0
 59 61  1  0  0  0  0
 17 19  1  0  0  0  0
  7 13  1  0  0  0  0
 29 34  1  0  0  0  0
 49 54  1  0  0  0  0
 39 45  1  0  0  0  0
M  END
$$$$

  -OEChem-05262214473D

 64 63  0     1  0  0  0  0  0999 V2000
   -0.1049    7.6735   -6.6413 C   0  0  0  0  0  0  0  0  0  0  0  0
   -1.3172    7.8194   -6.7448 O   0  0  0  0  0  0  0  0  0  0  0  0
    0.7572    7.7956   -7.8538 C   0  0  0  0  0  0  0  0  0  0  0  0
    0.8961    6.8319   -8.3698 H   0  0  0  0  0  0  0  0  0  0  0  0
    0.3261    8.4712   -8.6099 H   0  0  0  0  0  0  0  0  0  0  0  0
    1.7750    8.1762   -7.6720 H   0  0  0  0  0  0  0  0  0  0  0  0
    0.5905    7.3975   -5.4767 N   0  0  0  0  0  0  0  0  0  0  0  0
   -0.0460    7.2413   -4.1934 C   0  0  2  0  0  0  0  0  0  0  0  0
    0.8788    7.7962   -3.1119 C   0  0  0  0  0  0  0  0  0  0  0  0
    2.0213    8.1866   -3.3435 O   0  0  0  0  0  0  0  0  0  0  0  0
   -0.4870    5.7988   -3.9334 C   0  0  0  0  0  0  0  0  0  0  0  0
    0.8931    4.6101   -3.8642 S   0  0  0  0  0  0  0  0  0  0  0  0
    1.6020    7.2999   -5.5295 H   0  0  0  0  0  0  0  0  0  0  0  0
   -0.9372    7.8804   -4.2268 H   0  0  0  0  0  0  0  0  0  0  0  0
   -1.0285    5.7275   -2.9845 H   0  0  0  0  0  0  0  0  0  0  0  0
   -1.1656    5.4673   -4.7268 H   0  0  0  0  0  0  0  0  0  0  0  0
    0.2872    7.7804   -1.8568 N   0  0  0  0  0  0  0  0  0  0  0  0
    0.9711    8.2321   -0.6676 C   0  0  0  0  0  0  0  0  0  0  0  0
   -0.6786    7.4805   -1.7630 H   0  0  0  0  0  0  0  0  0  0  0  0
    1.4638    7.3777   -0.1805 H   0  0  0  0  0  0  0  0  0  0  0  0
    1.7264    8.9832   -0.9420 H   0  0  0  0  0  0  0  0  0  0  0  0
    0.2438    8.6799    0.0257 H   0  0  0  0  0  0  0  0  0  0  0  0
   -6.7256    2.0330   -0.2766 C   0  0  0  0  0  0  0  0  0  0  0  0
   -7.1824    1.1039   -0.9322 O   0  0  0  0  0  0  0  0  0  0  0  0
   -7.5276    2.6077    0.8435 C   0  0  0  0  0  0  0  0  0  0  0  0
   -8.1775    3.4344    0.5145 H   0  0  0  0  0  0  0  0  0  0  0  0
   -8.2057    1.8676    1.2980 H   0  0  0  0  0  0  0  0  0  0  0  0
   -6.9411    3.0162    1.6819 H   0  0  0  0  0  0  0  0  0  0  0  0
   -5.4935    2.6382   -0.4627 N   0  0  0  0  0  0  0  0  0  0  0  0
   -4.5619    2.2388   -1.4845 C   0  0  2  0  0  0  0  0  0  0  0  0
   -3.1535    2.4674   -0.9521 C   0  0  0  0  0  0  0  0  0  0  0  0
   -2.8634    3.3945   -0.1987 O   0  0  0  0  0  0  0  0  0  0  0  0
   -4.7883    3.0138   -2.7732 C   0  0  0  0  0  0  0  0  0  0  0  0
   -5.2337    3.4049    0.1551 H   0  0  0  0  0  0  0  0  0  0  0  0
   -4.7192    1.1682   -1.6549 H   0  0  0  0  0  0  0  0  0  0  0  0
   -4.6352    4.0886   -2.6221 H   0  0  0  0  0  0  0  0  0  0  0  0
   -4.0976    2.6887   -3.5582 H   0  0  0  0  0  0  0  0  0  0  0  0
   -5.8111    2.8719   -3.1387 H   0  0  0  0  0  0  0  0  0  0  0  0
   -2.2466    1.5400   -1.4507 N   0  0  0  0  0  0  0  0  0  0  0  0
   -0.8424    1.5707   -1.1286 C   0  0  2  0  0  0  0  0  0  0  0  0
   -0.6786    1.4271    0.3831 C   0  0  0  0  0  0  0  0  0  0  0  0
   -1.6315    1.3278    1.1535 O   0  0  0  0  0  0  0  0  0  0  0  0
   -0.1403    2.8047   -1.7007 C   0  0  0  0  0  0  0  0  0  0  0  0
   -0.1058    2.8510   -3.5088 S   0  0  0  0  0  0  0  0  0  0  0  0
   -2.5850    0.7815   -2.0381 H   0  0  0  0  0  0  0  0  0  0  0  0
   -0.4135    0.6749   -1.5946 H   0  0  0  0  0  0  0  0  0  0  0  0
   -0.6335    3.7205   -1.3590 H   0  0  0  0  0  0  0  0  0  0  0  0
    0.8976    2.8386   -1.3520 H   0  0  0  0  0  0  0  0  0  0  0  0
    0.6536    1.4480    0.7711 N   0  0  0  0  0  0  0  0  0  0  0  0
    1.0643    1.3529    2.1524 C   0  0  2  0  0  0  0  0  0  0  0  0
    2.3405    2.1668    2.3206 C   0  0  0  0  0  0  0  0  0  0  0  0
    3.1943    2.2649    1.4417 O   0  0  0  0  0  0  0  0  0  0  0  0
    1.2838   -0.0940    2.5660 C   0  0  0  0  0  0  0  0  0  0  0  0
    1.3800    1.4899    0.0624 H   0  0  0  0  0  0  0  0  0  0  0  0
    0.2637    1.7998    2.7519 H   0  0  0  0  0  0  0  0  0  0  0  0
    2.0824   -0.5585    1.9762 H   0  0  0  0  0  0  0  0  0  0  0  0
    1.5674   -0.1663    3.6212 H   0  0  0  0  0  0  0  0  0  0  0  0
    0.3735   -0.6845    2.4163 H   0  0  0  0  0  0  0  0  0  0  0  0
    2.4343    2.7353    3.5832 N   0  0  0  0  0  0  0  0  0  0  0  0
    3.5725    3.5192    4.0027 C   0  0  0  0  0  0  0  0  0  0  0  0
    1.6615    2.6355    4.2348 H   0  0  0  0  0  0  0  0  0  0  0  0
    4.3035    2.8667    4.5028 H   0  0  0  0  0  0  0  0  0  0  0  0
    4.0397    3.9867    3.1234 H   0  0  0  0  0  0  0  0  0  0  0  0
    3.2413    4.3016    4.7015 H   0  0  0  0  0  0  0  0  0  0  0  0
  1  3  1  0  0  0  0
  1  7  1  0  0  0  0
  1  2  2  0  0  0  0
 23 25  1  0  0  0  0
 23 29  1  0  0  0  0
 23 24  2  0  0  0  0
 50 51  1  0  0  0  0
 51 59  1  0  0  0  0
 51 52  2  0  0  0  0
  8  9  1  0  0  0  0
  9 17  1  0  0  0  0
  9 10  2  0  0  0  0
 30 31  1  0  0  0  0
 31 39  1  0  0  0  0
 31 32  2  0  0  0  0
 40 41  1  0  0  0  0
 41 49  1  0  0  0  0
 41 42  2  0  0  0  0
 50 53  1  0  0  0  0
 30 33  1  0  0  0  0
 59 60  1  0  0  0  0
 17 18  1  0  0  0  0
  8 11  1  0  0  0  0
 11 12  1  0  0  0  0
 40 43  1  0  0  0  0
 43 44  1  0  0  0  0
 49 50  1  0  0  0  0
  7  8  1  0  0  0  0
 29 30  1  0  0  0  0
 39 40  1  0  0  0  0
 12 44  1  0  0  0  0
  3  4  1  0  0  0  0
  3  5  1  0  0  0  0
  3  6  1  0  0  0  0
 25 26  1  0  0  0  0
 25 27  1  0  0  0  0
 25 28  1  0  0  0  0
 53 56  1  0  0  0  0
 53 57  1  0  0  0  0
 53 58  1  0  0  0  0
 33 36  1  0  0  0  0
 33 37  1  0  0  0  0
 33 38  1  0  0  0  0
 60 62  1  0  0  0  0
 60 63  1  0  0  0  0
 60 64  1  0  0  0  0
 18 20  1  0  0  0  0
 18 21  1  0  0  0  0
 18 22  1  0  0  0  0
 11 15  1  0  0  0  0
 11 16  1  0  0  0  0
 43 47  1  0  0  0  0
 43 48  1  0  0  0  0
 50 55  1  0  0  0  0
  8 14  1  0  0  0  0
 30 35  1  0  0  0  0
 40 46  1  0  0  0  0
 59 61  1  0  0  0  0
 17 19  1  0  0  0  0
  7 13  1  0  0  0  0
 29 34  1  0  0  0  0
 49 54  1  0  0  0  0
 39 45  1  0  0  0  0
M  END
$$$$

  -OEChem-05262214473D

 64 63  0     1  0  0  0  0  0999 V2000
   -0.1049    7.6735   -6.6413 C   0  0  0  0  0  0  0  0  0  0  0  0
   -1.3172    7.8194   -6.7448 O   0  0  0  0  0  0  0  0  0  0  0  0
    0.7572    7.7956   -7.8538 C   0  0  0  0  0  0  0  0  0  0  0  0
    0.8961    6.8319   -8.3698 H   0  0  0  0  0  0  0  0  0  0  0  0
    0.3261    8.4712   -8.6099 H   0  0  0  0  0  0  0  0  0  0  0  0
    1.7750    8.1762   -7.6720 H   0  0  0  0  0  0  0  0  0  0  0  0
    0.5905    7.3975   -5.4767 N   0  0  0  0  0  0  0  0  0  0  0  0
   -0.0460    7.2413   -4.1934 C   0  0  2  0  0  0  0  0  0  0  0  0
    0.8788    7.7962   -3.1119 C   0  0  0  0  0  0  0  0  0  0  0  0
    2.0213    8.1866   -3.3435 O   0  0  0  0  0  0  0  0  0  0  0  0
   -0.4870    5.7988   -3.9334 C   0  0  0  0  0  0  0  0  0  0  0  0
    0.8931    4.6101   -3.8642 S   0  0  0  0  0  0  0  0  0  0  0  0
    1.6020    7.2999   -5.5295 H   0  0  0  0  0  0  0  0  0  0  0  0
   -0.9372    7.8804   -4.2268 H   0  0  0  0  0  0  0  0  0  0  0  0
   -1.0285    5.7275   -2.9845 H   0  0  0  0  0  0  0  0  0  0  0  0
   -1.1656    5.4673   -4.7268 H   0  0  0  0  0  0  0  0  0  0  0  0
    0.2872    7.7804   -1.8568 N   0  0  0  0  0  0  0  0  0  0  0  0
    0.9711    8.2321   -0.6676 C   0  0  0  0  0  0  0  0  0  0  0  0
   -0.6786    7.4805   -1.7630 H   0  0  0  0  0  0  0  0  0  0  0  0
    1.4638    7.3777   -0.1805 H   0  0  0  0  0  0  0  0  0  0  0  0
    1.7264    8.9832   -0.9420 H   0  0  0  0  0  0  0  0  0  0  0  0
    0.2438    8.6799    0.0257 H   0  0  0  0  0  0  0  0  0  0  0  0
   -6.7256    2.0330   -0.2766 C   0  0  0  0  0  0  0  0  0  0  0  0
   -7.1824    1.1039   -0.9322 O   0  0  0  0  0  0  0  0  0  0  0  0
   -7.5276    2.6077    0.8435 C   0  0  0  0  0  0  0  0  0  0  0  0
   -8.1775    3.4344    0.5145 H   0  0  0  0  0  0  0  0  0  0  0  0
   -8.2057    1.8676    1.2980 H   0  0  0  0  0  0  0  0  0  0  0  0
   -6.9411    3.0162    1.6819 H   0  0  0  0  0  0  0  0  0  0  0  0
   -5.4935    2.6382   -0.4627 N   0  0  0  0  0  0  0  0  0  0  0  0
   -4.5619    2.2388   -1.4845 C   0  0  2  0  0  0  0  0  0  0  0  0
   -3.1535    2.4674   -0.9521 C   0  0  0  0  0  0  0  0  0  0  0  0
   -2.8634    3.3945   -0.1987 O   0  0  0  0  0  0  0  0  0  0  0  0
   -4.7883    3.0138   -2.7732 C   0  0  0  0  0  0  0  0  0  0  0  0
   -5.2337    3.4049    0.1551 H   0  0  0  0  0  0  0  0  0  0  0  0
   -4.7192    1.1682   -1.6549 H   0  0  0  0  0  0  0  0  0  0  0  0
   -4.6352    4.0886   -2.6221 H   0  0  0  0  0  0  0  0  0  0  0  0
   -4.0976    2.6887   -3.5582 H   0  0  0  0  0  0  0  0  0  0  0  0
   -5.8111    2.8719   -3.1387 H   0  0  0  0  0  0  0  0  0  0  0  0
   -2.2466    1.5400   -1.4507 N   0  0  0  0  0  0  0  0  0  0  0  0
   -0.8424    1.5707   -1.1286 C   0  0  2  0  0  0  0  0  0  0  0  0
   -0.6786    1.4271    0.3831 C   0  0  0  0  0  0  0  0  0  0  0  0
   -1.5899    1.0636    1.1239 O   0  0  0  0  0  0  0  0  0  0  0  0
   -0.1403    2.8047   -1.7007 C   0  0  0  0  0  0  0  0  0  0  0  0
   -0.1058    2.8510   -3.5088 S   0  0  0  0  0  0  0  0  0  0  0  0
   -2.5850    0.7815   -2.0381 H   0  0  0  0  0  0  0  0  0  0  0  0
   -0.4135    0.6749   -1.5946 H   0  0  0  0  0  0  0  0  0  0  0  0
   -0.6335    3.7205   -1.3590 H   0  0  0  0  0  0  0  0  0  0  0  0
    0.8976    2.8386   -1.3520 H   0  0  0  0  0  0  0  0  0  0  0  0
    0.5953    1.7761    0.8085 N   0  0  0  0  0  0  0  0  0  0  0  0
    0.9880    1.7466    2.1980 C   0  0  2  0  0  0  0  0  0  0  0  0
    2.0090    2.8543    2.4219 C   0  0  0  0  0  0  0  0  0  0  0  0
    2.8270    3.1947    1.5698 O   0  0  0  0  0  0  0  0  0  0  0  0
    1.5627    0.3919    2.5819 C   0  0  0  0  0  0  0  0  0  0  0  0
    1.3012    2.0244    0.1217 H   0  0  0  0  0  0  0  0  0  0  0  0
    0.0873    1.9551    2.7857 H   0  0  0  0  0  0  0  0  0  0  0  0
    2.4658    0.1656    2.0034 H   0  0  0  0  0  0  0  0  0  0  0  0
    1.8334    0.3619    3.6425 H   0  0  0  0  0  0  0  0  0  0  0  0
    0.8376   -0.4069    2.3924 H   0  0  0  0  0  0  0  0  0  0  0  0
    1.9276    3.3885    3.7002 N   0  0  0  0  0  0  0  0  0  0  0  0
    2.8177    4.4241    4.1705 C   0  0  0  0  0  0  0  0  0  0  0  0
    1.1929    3.0742    4.3273 H   0  0  0  0  0  0  0  0  0  0  0  0
    3.6811    3.9652    4.6746 H   0  0  0  0  0  0  0  0  0  0  0  0
    3.1674    5.0226    3.3164 H   0  0  0  0  0  0  0  0  0  0  0  0
    2.2825    5.0737    4.8787 H   0  0  0  0  0  0  0  0  0  0  0  0
  1  3  1  0  0  0  0
  1  7  1  0  0  0  0
  1  2  2  0  0  0  0
 23 25  1  0  0  0  0
 23 29  1  0  0  0  0
 23 24  2  0  0  0  0
 50 51  1  0  0  0  0
 51 59  1  0  0  0  0
 51 52  2  0  0  0  0
  8  9  1  0  0  0  0
  9 17  1  0  0  0  0
  9 10  2  0  0  0  0
 30 31  1  0  0  0  0
 31 39  1  0  0  0  0
 31 32  2  0  0  0  0
 40 41  1  0  0  0  0
 41 49  1  0  0  0  0
 41 42  2  0  0  0  0
 50 53  1  0  0  0  0
 30 33  1  0  0  0  0
 59 60  1  0  0  0  0
 17 18  1  0  0  0  0
  8 11  1  0  0  0  0
 11 12  1  0  0  0  0
 40 43  1  0  0  0  0
 43 44  1  0  0  0  0
 49 50  1  0  0  0  0
  7  8  1  0  0  0  0
 29 30  1  0  0  0  0
 39 40  1  0  0  0  0
 12 44  1  0  0  0  0
  3  4  1  0  0  0  0
  3  5  1  0  0  0  0
  3  6  1  0  0  0  0
 25 26  1  0  0  0  0
 25 27  1  0  0  0  0
 25 28  1  0  0  0  0
 53 56  1  0  0  0  0
 53 57  1  0  0  0  0
 53 58  1  0  0  0  0
 33 36  1  0  0  0  0
 33 37  1  0  0  0  0
 33 38  1  0  0  0  0
 60 62  1  0  0  0  0
 60 63  1  0  0  0  0
 60 64  1  0  0  0  0
 18 20  1  0  0  0  0
 18 21  1  0  0  0  0
 18 22  1  0  0  0  0
 11 15  1  0  0  0  0
 11 16  1  0  0  0  0
 43 47  1  0  0  0  0
 43 48  1  0  0  0  0
 50 55  1  0  0  0  0
  8 14  1  0  0  0  0
 30 35  1  0  0  0  0
 40 46  1  0  0  0  0
 59 61  1  0  0  0  0
 17 19  1  0  0  0  0
  7 13  1  0  0  0  0
 29 34  1  0  0  0  0
 49 54  1  0  0  0  0
 39 45  1  0  0  0  0
M  END
$$$$

  -OEChem-05262214473D

 64 63  0     1  0  0  0  0  0999 V2000
   -0.1049    7.6735   -6.6413 C   0  0  0  0  0  0  0  0  0  0  0  0
   -1.3172    7.8194   -6.7448 O   0  0  0  0  0  0  0  0  0  0  0  0
    0.7572    7.7956   -7.8538 C   0  0  0  0  0  0  0  0  0  0  0  0
    0.8961    6.8319   -8.3698 H   0  0  0  0  0  0  0  0  0  0  0  0
    0.3261    8.4712   -8.6099 H   0  0  0  0  0  0  0  0  0  0  0  0
    1.7750    8.1762   -7.6720 H   0  0  0  0  0  0  0  0  0  0  0  0
    0.5905    7.3975   -5.4767 N   0  0  0  0  0  0  0  0  0  0  0  0
   -0.0460    7.2413   -4.1934 C   0  0  2  0  0  0  0  0  0  0  0  0
    0.8788    7.7962   -3.1119 C   0  0  0  0  0  0  0  0  0  0  0  0
    2.0213    8.1866   -3.3435 O   0  0  0  0  0  0  0  0  0  0  0  0
   -0.4870    5.7988   -3.9334 C   0  0  0  0  0  0  0  0  0  0  0  0
    0.8931    4.6101   -3.8642 S   0  0  0  0  0  0  0  0  0  0  0  0
    1.6020    7.2999   -5.5295 H   0  0  0  0  0  0  0  0  0  0  0  0
   -0.9372    7.8804   -4.2268 H   0  0  0  0  0  0  0  0  0  0  0  0
   -1.0285    5.7275   -2.9845 H   0  0  0  0  0  0  0  0  0  0  0  0
   -1.1656    5.4673   -4.7268 H   0  0  0  0  0  0  0  0  0  0  0  0
    0.2872    7.7804   -1.8568 N   0  0  0  0  0  0  0  0  0  0  0  0
    0.9711    8.2321   -0.6676 C   0  0  0  0  0  0  0  0  0  0  0  0
   -0.6786    7.4805   -1.7630 H   0  0  0  0  0  0  0  0  0  0  0  0
    1.4638    7.3777   -0.1805 H   0  0  0  0  0  0  0  0  0  0  0  0
    1.7264    8.9832   -0.9420 H   0  0  0  0  0  0  0  0  0  0  0  0
    0.2438    8.6799    0.0257 H   0  0  0  0  0  0  0  0  0  0  0  0
   -6.7256    2.0330   -0.2766 C   0  0  0  0  0  0  0  0  0  0  0  0
   -7.1824    1.1039   -0.9322 O   0  0  0  0  0  0  0  0  0  0  0  0
   -7.5276    2.6077    0.8435 C   0  0  0  0  0  0  0  0  0  0  0  0
   -8.1775    3.4344    0.5145 H   0  0  0  0  0  0  0  0  0  0  0  0
   -8.2057    1.8676    1.2980 H   0  0  0  0  0  0  0  0  0  0  0  0
   -6.9411    3.0162    1.6819 H   0  0  0  0  0  0  0  0  0  0  0  0
   -5.4935    2.6382   -0.4627 N   0  0  0  0  0  0  0  0  0  0  0  0
   -4.5619    2.2388   -1.4845 C   0  0  2  0  0  0  0  0  0  0  0  0
   -3.1535    2.4674   -0.9521 C   0  0  0  0  0  0  0  0  0  0  0  0
   -2.8634    3.3945   -0.1987 O   0  0  0  0  0  0  0  0  0  0  0  0
   -4.7883    3.0138   -2.7732 C   0  0  0  0  0  0  0  0  0  0  0  0
   -5.2337    3.4049    0.1551 H   0  0  0  0  0  0  0  0  0  0  0  0
   -4.7192    1.1682   -1.6549 H   0  0  0  0  0  0  0  0  0  0  0  0
   -4.6352    4.0886   -2.6221 H   0  0  0  0  0  0  0  0  0  0  0  0
   -4.0976    2.6887   -3.5582 H   0  0  0  0  0  0  0  0  0  0  0  0
   -5.8111    2.8719   -3.1387 H   0  0  0  0  0  0  0  0  0  0  0  0
   -2.2466    1.5400   -1.4507 N   0  0  0  0  0  0  0  0  0  0  0  0
   -0.8424    1.5707   -1.1286 C   0  0  2  0  0  0  0  0  0  0  0  0
   -0.6786    1.4271    0.3831 C   0  0  0  0  0  0  0  0  0  0  0  0
   -1.4813    0.8198    1.0890 O   0  0  0  0  0  0  0  0  0  0  0  0
   -0.1403    2.8047   -1.7007 C   0  0  0  0  0  0  0  0  0  0  0  0
   -0.1058    2.8510   -3.5088 S   0  0  0  0  0  0  0  0  0  0  0  0
   -2.5850    0.7815   -2.0381 H   0  0  0  0  0  0  0  0  0  0  0  0
   -0.4135    0.6749   -1.5946 H   0  0  0  0  0  0  0  0  0  0  0  0
   -0.6335    3.7205   -1.3590 H   0  0  0  0  0  0  0  0  0  0  0  0
    0.8976    2.8386   -1.3520 H   0  0  0  0  0  0  0  0  0  0  0  0
    0.4541    2.0771    0.8524 N   0  0  0  0  0  0  0  0  0  0  0  0
    0.8123    2.1060    2.2512 C   0  0  2  0  0  0  0  0  0  0  0  0
    1.5101    3.4305    2.5307 C   0  0  0  0  0  0  0  0  0  0  0  0
    2.2309    3.9951    1.7105 O   0  0  0  0  0  0  0  0  0  0  0  0
    1.7072    0.9323    2.6176 C   0  0  0  0  0  0  0  0  0  0  0  0
    1.0868    2.5188    0.1919 H   0  0  0  0  0  0  0  0  0  0  0  0
   -0.1237    2.0588    2.8185 H   0  0  0  0  0  0  0  0  0  0  0  0
    2.6499    0.9625    2.0592 H   0  0  0  0  0  0  0  0  0  0  0  0
    1.9545    0.9397    3.6843 H   0  0  0  0  0  0  0  0  0  0  0  0
    1.2154   -0.0192    2.3882 H   0  0  0  0  0  0  0  0  0  0  0  0
    1.2680    3.8864    3.8190 N   0  0  0  0  0  0  0  0  0  0  0  0
    1.8527    5.1002    4.3393 C   0  0  0  0  0  0  0  0  0  0  0  0
    0.6256    3.3754    4.4174 H   0  0  0  0  0  0  0  0  0  0  0  0
    2.7942    4.8621    4.8559 H   0  0  0  0  0  0  0  0  0  0  0  0
    2.0548    5.7943    3.5103 H   0  0  0  0  0  0  0  0  0  0  0  0
    1.1542    5.5690    5.0480 H   0  0  0  0  0  0  0  0  0  0  0  0
  1  3  1  0  0  0  0
  1  7  1  0  0  0  0
  1  2  2  0  0  0  0
 23 25  1  0  0  0  0
 23 29  1  0  0  0  0
 23 24  2  0  0  0  0
 50 51  1  0  0  0  0
 51 59  1  0  0  0  0
 51 52  2  0  0  0  0
  8  9  1  0  0  0  0
  9 17  1  0  0  0  0
  9 10  2  0  0  0  0
 30 31  1  0  0  0  0
 31 39  1  0  0  0  0
 31 32  2  0  0  0  0
 40 41  1  0  0  0  0
 41 49  1  0  0  0  0
 41 42  2  0  0  0  0
 50 53  1  0  0  0  0
 30 33  1  0  0  0  0
 59 60  1  0  0  0  0
 17 18  1  0  0  0  0
  8 11  1  0  0  0  0
 11 12  1  0  0  0  0
 40 43  1  0  0  0  0
 43 44  1  0  0  0  0
 49 50  1  0  0  0  0
  7  8  1  0  0  0  0
 29 30  1  0  0  0  0
 39 40  1  0  0  0  0
 12 44  1  0  0  0  0
  3  4  1  0  0  0  0
  3  5  1  0  0  0  0
  3  6  1  0  0  0  0
 25 26  1  0  0  0  0
 25 27  1  0  0  0  0
 25 28  1  0  0  0  0
 53 56  1  0  0  0  0
 53 57  1  0  0  0  0
 53 58  1  0  0  0  0
 33 36  1  0  0  0  0
 33 37  1  0  0  0  0
 33 38  1  0  0  0  0
 60 62  1  0  0  0  0
 60 63  1  0  0  0  0
 60 64  1  0  0  0  0
 18 20  1  0  0  0  0
 18 21  1  0  0  0  0
 18 22  1  0  0  0  0
 11 15  1  0  0  0  0
 11 16  1  0  0  0  0
 43 47  1  0  0  0  0
 43 48  1  0  0  0  0
 50 55  1  0  0  0  0
  8 14  1  0  0  0  0
 30 35  1  0  0  0  0
 40 46  1  0  0  0  0
 59 61  1  0  0  0  0
 17 19  1  0  0  0  0
  7 13  1  0  0  0  0
 29 34  1  0  0  0  0
 49 54  1  0  0  0  0
 39 45  1  0  0  0  0
M  END
$$$$

  -OEChem-05262214473D

 64 63  0     1  0  0  0  0  0999 V2000
   -0.1049    7.6735   -6.6413 C   0  0  0  0  0  0  0  0  0  0  0  0
   -1.3172    7.8194   -6.7448 O   0  0  0  0  0  0  0  0  0  0  0  0
    0.7572    7.7956   -7.8538 C   0  0  0  0  0  0  0  0  0  0  0  0
    0.8961    6.8319   -8.3698 H   0  0  0  0  0  0  0  0  0  0  0  0
    0.3261    8.4712   -8.6099 H   0  0  0  0  0  0  0  0  0  0  0  0
    1.7750    8.1762   -7.6720 H   0  0  0  0  0  0  0  0  0  0  0  0
    0.5905    7.3975   -5.4767 N   0  0  0  0  0  0  0  0  0  0  0  0
   -0.0460    7.2413   -4.1934 C   0  0  2  0  0  0  0  0  0  0  0  0
    0.8788    7.7962   -3.1119 C   0  0  0  0  0  0  0  0  0  0  0  0
    2.0213    8.1866   -3.3435 O   0  0  0  0  0  0  0  0  0  0  0  0
   -0.4870    5.7988   -3.9334 C   0  0  0  0  0  0  0  0  0  0  0  0
    0.8931    4.6101   -3.8642 S   0  0  0  0  0  0  0  0  0  0  0  0
    1.6020    7.2999   -5.5295 H   0  0  0  0  0  0  0  0  0  0  0  0
   -0.9372    7.8804   -4.2268 H   0  0  0  0  0  0  0  0  0  0  0  0
   -1.0285    5.7275   -2.9845 H   0  0  0  0  0  0  0  0  0  0  0  0
   -1.1656    5.4673   -4.7268 H   0  0  0  0  0  0  0  0  0  0  0  0
    0.2872    7.7804   -1.8568 N   0  0  0  0  0  0  0  0  0  0  0  0
    0.9711    8.2321   -0.6676 C   0  0  0  0  0  0  0  0  0  0  0  0
   -0.6786    7.4805   -1.7630 H   0  0  0  0  0  0  0  0  0  0  0  0
    1.4638    7.3777   -0.1805 H   0  0  0  0  0  0  0  0  0  0  0  0
    1.7264    8.9832   -0.9420 H   0  0  0  0  0  0  0  0  0  0  0  0
    0.2438    8.6799    0.0257 H   0  0  0  0  0  0  0  0  0  0  0  0
   -6.7256    2.0330   -0.2766 C   0  0  0  0  0  0  0  0  0  0  0  0
   -7.1824    1.1039   -0.9322 O   0  0  0  0  0  0  0  0  0  0  0  0
   -7.5276    2.6077    0.8435 C   0  0  0  0  0  0  0  0  0  0  0  0
   -8.1775    3.4344    0.5145 H   0  0  0  0  0  0  0  0  0  0  0  0
   -8.2057    1.8676    1.2980 H   0  0  0  0  0  0  0  0  0  0  0  0
   -6.9411    3.0162    1.6819 H   0  0  0  0  0  0  0  0  0  0  0  0
   -5.4935    2.6382   -0.4627 N   0  0  0  0  0  0  0  0  0  0  0  0
   -4.5619    2.2388   -1.4845 C   0  0  2  0  0  0  0  0  0  0  0  0
   -3.1535    2.4674   -0.9521 C   0  0  0  0  0  0  0  0  0  0  0  0
   -2.8634    3.3945   -0.1987 O   0  0  0  0  0  0  0  0  0  0  0  0
   -4.7883    3.0138   -2.7732 C   0  0  0  0  0  0  0  0  0  0  0  0
   -5.2337    3.4049    0.1551 H   0  0  0  0  0  0  0  0  0  0  0  0
   -4.7192    1.1682   -1.6549 H   0  0  0  0  0  0  0  0  0  0  0  0
   -4.6352    4.0886   -2.6221 H   0  0  0  0  0  0  0  0  0  0  0  0
   -4.0976    2.6887   -3.5582 H   0  0  0  0  0  0  0  0  0  0  0  0
   -5.8111    2.8719   -3.1387 H   0  0  0  0  0  0  0  0  0  0  0  0
   -2.2466    1.5400   -1.4507 N   0  0  0  0  0  0  0  0  0  0  0  0
   -0.8424    1.5707   -1.1286 C   0  0  2  0  0  0  0  0  0  0  0  0
   -0.6786    1.4271    0.3831 C   0  0  0  0  0  0  0  0  0  0  0  0
   -1.3131    0.6131    1.0511 O   0  0  0  0  0  0  0  0  0  0  0  0
   -0.1403    2.8047   -1.7007 C   0  0  0  0  0  0  0  0  0  0  0  0
   -0.1058    2.8510   -3.5088 S   0  0  0  0  0  0  0  0  0  0  0  0
   -2.5850    0.7815   -2.0381 H   0  0  0  0  0  0  0  0  0  0  0  0
   -0.4135    0.6749   -1.5946 H   0  0  0  0  0  0  0  0  0  0  0  0
   -0.6335    3.7205   -1.3590 H   0  0  0  0  0  0  0  0  0  0  0  0
    0.8976    2.8386   -1.3520 H   0  0  0  0  0  0  0  0  0  0  0  0
    0.2395    2.3304    0.8997 N   0  0  0  0  0  0  0  0  0  0  0  0
    0.5492    2.4067    2.3083 C   0  0  2  0  0  0  0  0  0  0  0  0
    0.8780    3.8564    2.6396 C   0  0  0  0  0  0  0  0  0  0  0  0
    1.4467    4.6117    1.8540 O   0  0  0  0  0  0  0  0  0  0  0  0
    1.7075    1.4902    2.6706 C   0  0  0  0  0  0  0  0  0  0  0  0
    0.7512    2.9394    0.2683 H   0  0  0  0  0  0  0  0  0  0  0  0
   -0.3549    2.1041    2.8478 H   0  0  0  0  0  0  0  0  0  0  0  0
    2.6223    1.7779    2.1396 H   0  0  0  0  0  0  0  0  0  0  0  0
    1.9225    1.5277    3.7436 H   0  0  0  0  0  0  0  0  0  0  0  0
    1.4811    0.4521    2.4042 H   0  0  0  0  0  0  0  0  0  0  0  0
    0.5004    4.1950    3.9315 N   0  0  0  0  0  0  0  0  0  0  0  0
    0.7433    5.5013    4.4977 C   0  0  0  0  0  0  0  0  0  0  0  0
   -0.0016    3.5185    4.4989 H   0  0  0  0  0  0  0  0  0  0  0  0
    1.7035    5.4962    5.0343 H   0  0  0  0  0  0  0  0  0  0  0  0
    0.7777    6.2494    3.6919 H   0  0  0  0  0  0  0  0  0  0  0  0
   -0.0666    5.7537    5.1979 H   0  0  0  0  0  0  0  0  0  0  0  0
  1  3  1  0  0  0  0
  1  7  1  0  0  0  0
  1  2  2  0  0  0  0
 23 25  1  0  0  0  0
 23 29  1  0  0  0  0
 23 24  2  0  0  0  0
 50 51  1  0  0  0  0
 51 59  1  0  0  0  0
 51 52  2  0  0  0  0
  8  9  1  0  0  0  0
  9 17  1  0  0  0  0
  9 10  2  0  0  0  0
 30 31  1  0  0  0  0
 31 39  1  0  0  0  0
 31 32  2  0  0  0  0
 40 41  1  0  0  0  0
 41 49  1  0  0  0  0
 41 42  2  0  0  0  0
 50 53  1  0  0  0  0
 30 33  1  0  0  0  0
 59 60  1  0  0  0  0
 17 18  1  0  0  0  0
  8 11  1  0  0  0  0
 11 12  1  0  0  0  0
 40 43  1  0  0  0  0
 43 44  1  0  0  0  0
 49 50  1  0  0  0  0
  7  8  1  0  0  0  0
 29 30  1  0  0  0  0
 39 40  1  0  0  0  0
 12 44  1  0  0  0  0
  3  4  1  0  0  0  0
  3  5  1  0  0  0  0
  3  6  1  0  0  0  0
 25 26  1  0  0  0  0
 25 27  1  0  0  0  0
 25 28  1  0  0  0  0
 53 56  1  0  0  0  0
 53 57  1  0  0  0  0
 53 58  1  0  0  0  0
 33 36  1  0  0  0  0
 33 37  1  0  0  0  0
 33 38  1  0  0  0  0
 60 62  1  0  0  0  0
 60 63  1  0  0  0  0
 60 64  1  0  0  0  0
 18 20  1  0  0  0  0
 18 21  1  0  0  0  0
 18 22  1  0  0  0  0
 11 15  1  0  0  0  0
 11 16  1  0  0  0  0
 43 47  1  0  0  0  0
 43 48  1  0  0  0  0
 50 55  1  0  0  0  0
  8 14  1  0  0  0  0
 30 35  1  0  0  0  0
 40 46  1  0  0  0  0
 59 61  1  0  0  0  0
 17 19  1  0  0  0  0
  7 13  1  0  0  0  0
 29 34  1  0  0  0  0
 49 54  1  0  0  0  0
 39 45  1  0  0  0  0
M  END
$$$$

  -OEChem-05262214473D

 64 63  0     1  0  0  0  0  0999 V2000
   -0.1049    7.6735   -6.6413 C   0  0  0  0  0  0  0  0  0  0  0  0
   -1.3172    7.8194   -6.7448 O   0  0  0  0  0  0  0  0  0  0  0  0
    0.7572    7.7956   -7.8538 C   0  0  0  0  0  0  0  0  0  0  0  0
    0.8961    6.8319   -8.3698 H   0  0  0  0  0  0  0  0  0  0  0  0
    0.3261    8.4712   -8.6099 H   0  0  0  0  0  0  0  0  0  0  0  0
    1.7750    8.1762   -7.6720 H   0  0  0  0  0  0  0  0  0  0  0  0
    0.5905    7.3975   -5.4767 N   0  0  0  0  0  0  0  0  0  0  0  0
   -0.0460    7.2413   -4.1934 C   0  0  2  0  0  0  0  0  0  0  0  0
    0.8788    7.7962   -3.1119 C   0  0  0  0  0  0  0  0  0  0  0  0
    2.0213    8.1866   -3.3435 O   0  0  0  0  0  0  0  0  0  0  0  0
   -0.4870    5.7988   -3.9334 C   0  0  0  0  0  0  0  0  0  0  0  0
    0.8931    4.6101   -3.8642 S   0  0  0  0  0  0  0  0  0  0  0  0
    1.6020    7.2999   -5.5295 H   0  0  0  0  0  0  0  0  0  0  0  0
   -0.9372    7.8804   -4.2268 H   0  0  0  0  0  0  0  0  0  0  0  0
   -1.0285    5.7275   -2.9845 H   0  0  0  0  0  0  0  0  0  0  0  0
   -1.1656    5.4673   -4.7268 H   0  0  0  0  0  0  0  0  0  0  0  0
    0.2872    7.7804   -1.8568 N   0  0  0  0  0  0  0  0  0  0  0  0
    0.9711    8.2321   -0.6676 C   0  0  0  0  0  0  0  0  0  0  0  0
   -0.6786    7.4805   -1.7630 H   0  0  0  0  0  0  0  0  0  0  0  0
    1.4638    7.3777   -0.1805 H   0  0  0  0  0  0  0  0  0  0  0  0
    1.7264    8.9832   -0.9420 H   0  0  0  0  0  0  0  0  0  0  0  0
    0.2438    8.6799    0.0257 H   0  0  0  0  0  0  0  0  0  0  0  0
   -6.7256    2.0330   -0.2766 C   0  0  0  0  0  0  0  0  0  0  0  0
   -7.1824    1.1039   -0.9322 O   0  0  0  0  0  0  0  0  0  0  0  0
   -7.5276    2.6077    0.8435 C   0  0  0  0  0  0  0  0  0  0  0  0
   -8.1775    3.4344    0.5145 H   0  0  0  0  0  0  0  0  0  0  0  0
   -8.2057    1.8676    1.2980 H   0  0  0  0  0  0  0  0  0  0  0  0
   -6.9411    3.0162    1.6819 H   0  0  0  0  0  0  0  0  0  0  0  0
   -5.4935    2.6382   -0.4627 N   0  0  0  0  0  0  0  0  0  0  0  0
   -4.5619    2.2388   -1.4845 C   0  0  2  0  0  0  0  0  0  0  0  0
   -3.1535    2.4674   -0.9521 C   0  0  0  0  0  0  0  0  0  0  0  0
   -2.8634    3.3945   -0.1987 O   0  0  0  0  0  0  0  0  0  0  0  0
   -4.7883    3.0138   -2.7732 C   0  0  0  0  0  0  0  0  0  0  0  0
   -5.2337    3.4049    0.1551 H   0  0  0  0  0  0  0  0  0  0  0  0
   -4.7192    1.1682   -1.6549 H   0  0  0  0  0  0  0  0  0  0  0  0
   -4.6352    4.0886   -2.6221 H   0  0  0  0  0  0  0  0  0  0  0  0
   -4.0976    2.6887   -3.5582 H   0  0  0  0  0  0  0  0  0  0  0  0
   -5.8111    2.8719   -3.1387 H   0  0  0  0  0  0  0  0  0  0  0  0
   -2.2466    1.5400   -1.4507 N   0  0  0  0  0  0  0  0  0  0  0  0
   -0.8424    1.5707   -1.1286 C   0  0  2  0  0  0  0  0  0  0  0  0
   -0.6786    1.4271    0.3831 C   0  0  0  0  0  0  0  0  0  0  0  0
   -1.0967    0.4576    1.0129 O   0  0  0  0  0  0  0  0  0  0  0  0
   -0.1403    2.8047   -1.7007 C   0  0  0  0  0  0  0  0  0  0  0  0
   -0.1058    2.8510   -3.5088 S   0  0  0  0  0  0  0  0  0  0  0  0
   -2.5850    0.7815   -2.0381 H   0  0  0  0  0  0  0  0  0  0  0  0
   -0.4135    0.6749   -1.5946 H   0  0  0  0  0  0  0  0  0  0  0  0
   -0.6335    3.7205   -1.3590 H   0  0  0  0  0  0  0  0  0  0  0  0
    0.8976    2.8386   -1.3520 H   0  0  0  0  0  0  0  0  0  0  0  0
   -0.0339    2.5187    0.9473 N   0  0  0  0  0  0  0  0  0  0  0  0
    0.2167    2.6282    2.3654 C   0  0  2  0  0  0  0  0  0  0  0  0
    0.1557    4.1028    2.7413 C   0  0  0  0  0  0  0  0  0  0  0  0
    0.5277    5.0023    1.9907 O   0  0  0  0  0  0  0  0  0  0  0  0
    1.5635    2.0277    2.7372 C   0  0  0  0  0  0  0  0  0  0  0  0
    0.3175    3.2577    0.3455 H   0  0  0  0  0  0  0  0  0  0  0  0
   -0.5905    2.0879    2.8718 H   0  0  0  0  0  0  0  0  0  0  0  0
    2.3847    2.5561    2.2393 H   0  0  0  0  0  0  0  0  0  0  0  0
    1.7395    2.0858    3.8165 H   0  0  0  0  0  0  0  0  0  0  0  0
    1.6166    0.9750    2.4392 H   0  0  0  0  0  0  0  0  0  0  0  0
   -0.3229    4.2934    4.0301 N   0  0  0  0  0  0  0  0  0  0  0  0
   -0.4349    5.6002    4.6347 C   0  0  0  0  0  0  0  0  0  0  0  0
   -0.6462    3.4937    4.5664 H   0  0  0  0  0  0  0  0  0  0  0  0
    0.4831    5.8243    5.1977 H   0  0  0  0  0  0  0  0  0  0  0  0
   -0.5769    6.3568    3.8489 H   0  0  0  0  0  0  0  0  0  0  0  0
   -1.2968    5.6152    5.3181 H   0  0  0  0  0  0  0  0  0  0  0  0
  1  3  1  0  0  0  0
  1  7  1  0  0  0  0
  1  2  2  0  0  0  0
 23 25  1  0  0  0  0
 23 29  1  0  0  0  0
 23 24  2  0  0  0  0
 50 51  1  0  0  0  0
 51 59  1  0  0  0  0
 51 52  2  0  0  0  0
  8  9  1  0  0  0  0
  9 17  1  0  0  0  0
  9 10  2  0  0  0  0
 30 31  1  0  0  0  0
 31 39  1  0  0  0  0
 31 32  2  0  0  0  0
 40 41  1  0  0  0  0
 41 49  1  0  0  0  0
 41 42  2  0  0  0  0
 50 53  1  0  0  0  0
 30 33  1  0  0  0  0
 59 60  1  0  0  0  0
 17 18  1  0  0  0  0
  8 11  1  0  0  0  0
 11 12  1  0  0  0  0
 40 43  1  0  0  0  0
 43 44  1  0  0  0  0
 49 50  1  0  0  0  0
  7  8  1  0  0  0  0
 29 30  1  0  0  0  0
 39 40  1  0  0  0  0
 12 44  1  0  0  0  0
  3  4  1  0  0  0  0
  3  5  1  0  0  0  0
  3  6  1  0  0  0  0
 25 26  1  0  0  0  0
 25 27  1  0  0  0  0
 25 28  1  0  0  0  0
 53 56  1  0  0  0  0
 53 57  1  0  0  0  0
 53 58  1  0  0  0  0
 33 36  1  0  0  0  0
 33 37  1  0  0  0  0
 33 38  1  0  0  0  0
 60 62  1  0  0  0  0
 60 63  1  0  0  0  0
 60 64  1  0  0  0  0
 18 20  1  0  0  0  0
 18 21  1  0  0  0  0
 18 22  1  0  0  0  0
 11 15  1  0  0  0  0
 11 16  1  0  0  0  0
 43 47  1  0  0  0  0
 43 48  1  0  0  0  0
 50 55  1  0  0  0  0
  8 14  1  0  0  0  0
 30 35  1  0  0  0  0
 40 46  1  0  0  0  0
 59 61  1  0  0  0  0
 17 19  1  0  0  0  0
  7 13  1  0  0  0  0
 29 34  1  0  0  0  0
 49 54  1  0  0  0  0
 39 45  1  0  0  0  0
M  END
$$$$

  -OEChem-05262214473D

 64 63  0     1  0  0  0  0  0999 V2000
   -0.1049    7.6735   -6.6413 C   0  0  0  0  0  0  0  0  0  0  0  0
   -1.3172    7.8194   -6.7448 O   0  0  0  0  0  0  0  0  0  0  0  0
    0.7572    7.7956   -7.8538 C   0  0  0  0  0  0  0  0  0  0  0  0
    0.8961    6.8319   -8.3698 H   0  0  0  0  0  0  0  0  0  0  0  0
    0.3261    8.4712   -8.6099 H   0  0  0  0  0  0  0  0  0  0  0  0
    1.7750    8.1762   -7.6720 H   0  0  0  0  0  0  0  0  0  0  0  0
    0.5905    7.3975   -5.4767 N   0  0  0  0  0  0  0  0  0  0  0  0
   -0.0460    7.2413   -4.1934 C   0  0  2  0  0  0  0  0  0  0  0  0
    0.8788    7.7962   -3.1119 C   0  0  0  0  0  0  0  0  0  0  0  0
    2.0213    8.1866   -3.3435 O   0  0  0  0  0  0  0  0  0  0  0  0
   -0.4870    5.7988   -3.9334 C   0  0  0  0  0  0  0  0  0  0  0  0
    0.8931    4.6101   -3.8642 S   0  0  0  0  0  0  0  0  0  0  0  0
    1.6020    7.2999   -5.5295 H   0  0  0  0  0  0  0  0  0  0  0  0
   -0.9372    7.8804   -4.2268 H   0  0  0  0  0  0  0  0  0  0  0  0
   -1.0285    5.7275   -2.9845 H   0  0  0  0  0  0  0  0  0  0  0  0
   -1.1656    5.4673   -4.7268 H   0  0  0  0  0  0  0  0  0  0  0  0
    0.2872    7.7804   -1.8568 N   0  0  0  0  0  0  0  0  0  0  0  0
    0.9711    8.2321   -0.6676 C   0  0  0  0  0  0  0  0  0  0  0  0
   -0.6786    7.4805   -1.7630 H   0  0  0  0  0  0  0  0  0  0  0  0
    1.4638    7.3777   -0.1805 H   0  0  0  0  0  0  0  0  0  0  0  0
    1.7264    8.9832   -0.9420 H   0  0  0  0  0  0  0  0  0  0  0  0
    0.2438    8.6799    0.0257 H   0  0  0  0  0  0  0  0  0  0  0  0
   -6.7256    2.0330   -0.2766 C   0  0  0  0  0  0  0  0  0  0  0  0
   -7.1824    1.1039   -0.9322 O   0  0  0  0  0  0  0  0  0  0  0  0
   -7.5276    2.6077    0.8435 C   0  0  0  0  0  0  0  0  0  0  0  0
   -8.1775    3.4344    0.5145 H   0  0  0  0  0  0  0  0  0  0  0  0
   -8.2057    1.8676    1.2980 H   0  0  0  0  0  0  0  0  0  0  0  0
   -6.9411    3.0162    1.6819 H   0  0  0  0  0  0  0  0  0  0  0  0
   -5.4935    2.6382   -0.4627 N   0  0  0  0  0  0  0  0  0  0  0  0
   -4.5619    2.2388   -1.4845 C   0  0  2  0  0  0  0  0  0  0  0  0
   -3.1535    2.4674   -0.9521 C   0  0  0  0  0  0  0  0  0  0  0  0
   -2.8634    3.3945   -0.1987 O   0  0  0  0  0  0  0  0  0  0  0  0
   -4.7883    3.0138   -2.7732 C   0  0  0  0  0  0  0  0  0  0  0  0
   -5.2337    3.4049    0.1551 H   0  0  0  0  0  0  0  0  0  0  0  0
   -4.7192    1.1682   -1.6549 H   0  0  0  0  0  0  0  0  0  0  0  0
   -4.6352    4.0886   -2.6221 H   0  0  0  0  0  0  0  0  0  0  0  0
   -4.0976    2.6887   -3.5582 H   0  0  0  0  0  0  0  0  0  0  0  0
   -5.8111    2.8719   -3.1387 H   0  0  0  0  0  0  0  0  0  0  0  0
   -2.2466    1.5400   -1.4507 N   0  0  0  0  0  0  0  0  0  0  0  0
   -0.8424    1.5707   -1.1286 C   0  0  2  0  0  0  0  0  0  0  0  0
   -0.6786    1.4271    0.3831 C   0  0  0  0  0  0  0  0  0  0  0  0
   -0.8470    0.3639    0.9769 O   0  0  0  0  0  0  0  0  0  0  0  0
   -0.1403    2.8047   -1.7007 C   0  0  0  0  0  0  0  0  0  0  0  0
   -0.1058    2.8510   -3.5088 S   0  0  0  0  0  0  0  0  0  0  0  0
   -2.5850    0.7815   -2.0381 H   0  0  0  0  0  0  0  0  0  0  0  0
   -0.4135    0.6749   -1.5946 H   0  0  0  0  0  0  0  0  0  0  0  0
   -0.6335    3.7205   -1.3590 H   0  0  0  0  0  0  0  0  0  0  0  0
    0.8976    2.8386   -1.3520 H   0  0  0  0  0  0  0  0  0  0  0  0
   -0.3473    2.6294    0.9917 N   0  0  0  0  0  0  0  0  0  0  0  0
   -0.1626    2.7553    2.4186 C   0  0  2  0  0  0  0  0  0  0  0  0
   -0.6076    4.1529    2.8288 C   0  0  0  0  0  0  0  0  0  0  0  0
   -0.4633    5.1405    2.1113 O   0  0  0  0  0  0  0  0  0  0  0  0
    1.2852    2.5082    2.8131 C   0  0  0  0  0  0  0  0  0  0  0  0
   -0.1848    3.4519    0.4184 H   0  0  0  0  0  0  0  0  0  0  0  0
   -0.8145    2.0111    2.8888 H   0  0  0  0  0  0  0  0  0  0  0  0
    1.9535    3.2443    2.3514 H   0  0  0  0  0  0  0  0  0  0  0  0
    1.4179    2.5760    3.8979 H   0  0  0  0  0  0  0  0  0  0  0  0
    1.6126    1.5139    2.4908 H   0  0  0  0  0  0  0  0  0  0  0  0
   -1.1456    4.1748    4.1080 N   0  0  0  0  0  0  0  0  0  0  0  0
   -1.6017    5.3901    4.7412 C   0  0  0  0  0  0  0  0  0  0  0  0
   -1.2640    3.3028    4.6153 H   0  0  0  0  0  0  0  0  0  0  0  0
   -0.7837    5.8240    5.3350 H   0  0  0  0  0  0  0  0  0  0  0  0
   -1.9166    6.1091    3.9706 H   0  0  0  0  0  0  0  0  0  0  0  0
   -2.4525    5.1630    5.4004 H   0  0  0  0  0  0  0  0  0  0  0  0
  1  3  1  0  0  0  0
  1  7  1  0  0  0  0
  1  2  2  0  0  0  0
 23 25  1  0  0  0  0
 23 29  1  0  0  0  0
 23 24  2  0  0  0  0
 50 51  1  0  0  0  0
 51 59  1  0  0  0  0
 51 52  2  0  0  0  0
  8  9  1  0  0  0  0
  9 17  1  0  0  0  0
  9 10  2  0  0  0  0
 30 31  1  0  0  0  0
 31 39  1  0  0  0  0
 31 32  2  0  0  0  0
 40 41  1  0  0  0  0
 41 49  1  0  0  0  0
 41 42  2  0  0  0  0
 50 53  1  0  0  0  0
 30 33  1  0  0  0  0
 59 60  1  0  0  0  0
 17 18  1  0  0  0  0
  8 11  1  0  0  0  0
 11 12  1  0  0  0  0
 40 43  1  0  0  0  0
 43 44  1  0  0  0  0
 49 50  1  0  0  0  0
  7  8  1  0  0  0  0
 29 30  1  0  0  0  0
 39 40  1  0  0  0  0
 12 44  1  0  0  0  0
  3  4  1  0  0  0  0
  3  5  1  0  0  0  0
  3  6  1  0  0  0  0
 25 26  1  0  0  0  0
 25 27  1  0  0  0  0
 25 28  1  0  0  0  0
 53 56  1  0  0  0  0
 53 57  1  0  0  0  0
 53 58  1  0  0  0  0
 33 36  1  0  0  0  0
 33 37  1  0  0  0  0
 33 38  1  0  0  0  0
 60 62  1  0  0  0  0
 60 63  1  0  0  0  0
 60 64  1  0  0  0  0
 18 20  1  0  0  0  0
 18 21  1  0  0  0  0
 18 22  1  0  0  0  0
 11 15  1  0  0  0  0
 11 16  1  0  0  0  0
 43 47  1  0  0  0  0
 43 48  1  0  0  0  0
 50 55  1  0  0  0  0
  8 14  1  0  0  0  0
 30 35  1  0  0  0  0
 40 46  1  0  0  0  0
 59 61  1  0  0  0  0
 17 19  1  0  0  0  0
  7 13  1  0  0  0  0
 29 34  1  0  0  0  0
 49 54  1  0  0  0  0
 39 45  1  0  0  0  0
M  END
$$$$

  -OEChem-05262214473D

 64 63  0     1  0  0  0  0  0999 V2000
   -0.1049    7.6735   -6.6413 C   0  0  0  0  0  0  0  0  0  0  0  0
   -1.3172    7.8194   -6.7448 O   0  0  0  0  0  0  0  0  0  0  0  0
    0.7572    7.7956   -7.8538 C   0  0  0  0  0  0  0  0  0  0  0  0
    0.8961    6.8319   -8.3698 H   0  0  0  0  0  0  0  0  0  0  0  0
    0.3261    8.4712   -8.6099 H   0  0  0  0  0  0  0  0  0  0  0  0
    1.7750    8.1762   -7.6720 H   0  0  0  0  0  0  0  0  0  0  0  0
    0.5905    7.3975   -5.4767 N   0  0  0  0  0  0  0  0  0  0  0  0
   -0.0460    7.2413   -4.1934 C   0  0  2  0  0  0  0  0  0  0  0  0
    0.8788    7.7962   -3.1119 C   0  0  0  0  0  0  0  0  0  0  0  0
    2.0213    8.1866   -3.3435 O   0  0  0  0  0  0  0  0  0  0  0  0
   -0.4870    5.7988   -3.9334 C   0  0  0  0  0  0  0  0  0  0  0  0
    0.8931    4.6101   -3.8642 S   0  0  0  0  0  0  0  0  0  0  0  0
    1.6020    7.2999   -5.5295 H   0  0  0  0  0  0  0  0  0  0  0  0
   -0.9372    7.8804   -4.2268 H   0  0  0  0  0  0  0  0  0  0  0  0
   -1.0285    5.7275   -2.9845 H   0  0  0  0  0  0  0  0  0  0  0  0
   -1.1656    5.4673   -4.7268 H   0  0  0  0  0  0  0  0  0  0  0  0
    0.2872    7.7804   -1.8568 N   0  0  0  0  0  0  0  0  0  0  0  0
    0.9711    8.2321   -0.6676 C   0  0  0  0  0  0  0  0  0  0  0  0
   -0.6786    7.4805   -1.7630 H   0  0  0  0  0  0  0  0  0  0  0  0
    1.4638    7.3777   -0.1805 H   0  0  0  0  0  0  0  0  0  0  0  0
    1.7264    8.9832   -0.9420 H   0  0  0  0  0  0  0  0  0  0  0  0
    0.2438    8.6799    0.0257 H   0  0  0  0  0  0  0  0  0  0  0  0
   -6.7256    2.0330   -0.2766 C   0  0  0  0  0  0  0  0  0  0  0  0
   -7.1824    1.1039   -0.9322 O   0  0  0  0  0  0  0  0  0  0  0  0
   -7.5276    2.6077    0.8435 C   0  0  0  0  0  0  0  0  0  0  0  0
   -8.1775    3.4344    0.5145 H   0  0  0  0  0  0  0  0  0  0  0  0
   -8.2057    1.8676    1.2980 H   0  0  0  0  0  0  0  0  0  0  0  0
   -6.9411    3.0162    1.6819 H   0  0  0  0  0  0  0  0  0  0  0  0
   -5.4935    2.6382   -0.4627 N   0  0  0  0  0  0  0  0  0  0  0  0
   -4.5619    2.2388   -1.4845 C   0  0  2  0  0  0  0  0  0  0  0  0
   -3.1535    2.4674   -0.9521 C   0  0  0  0  0  0  0  0  0  0  0  0
   -2.8634    3.3945   -0.1987 O   0  0  0  0  0  0  0  0  0  0  0  0
   -4.7883    3.0138   -2.7732 C   0  0  0  0  0  0  0  0  0  0  0  0
   -5.2337    3.4049    0.1551 H   0  0  0  0  0  0  0  0  0  0  0  0
   -4.7192    1.1682   -1.6549 H   0  0  0  0  0  0  0  0  0  0  0  0
   -4.6352    4.0886   -2.6221 H   0  0  0  0  0  0  0  0  0  0  0  0
   -4.0976    2.6887   -3.5582 H   0  0  0  0  0  0  0  0  0  0  0  0
   -5.8111    2.8719   -3.1387 H   0  0  0  0  0  0  0  0  0  0  0  0
   -2.2466    1.5400   -1.4507 N   0  0  0  0  0  0  0  0  0  0  0  0
   -0.8424    1.5707   -1.1286 C   0  0  2  0  0  0  0  0  0  0  0  0
   -0.6786    1.4271    0.3831 C   0  0  0  0  0  0  0  0  0  0  0  0
   -0.5809    0.3384    0.9457 O   0  0  0  0  0  0  0  0  0  0  0  0
   -0.1403    2.8047   -1.7007 C   0  0  0  0  0  0  0  0  0  0  0  0
   -0.1058    2.8510   -3.5088 S   0  0  0  0  0  0  0  0  0  0  0  0
   -2.5850    0.7815   -2.0381 H   0  0  0  0  0  0  0  0  0  0  0  0
   -0.4135    0.6749   -1.5946 H   0  0  0  0  0  0  0  0  0  0  0  0
   -0.6335    3.7205   -1.3590 H   0  0  0  0  0  0  0  0  0  0  0  0
    0.8976    2.8386   -1.3520 H   0  0  0  0  0  0  0  0  0  0  0  0
   -0.6795    2.6547    1.0301 N   0  0  0  0  0  0  0  0  0  0  0  0
   -0.5628    2.7795    2.4642 C   0  0  2  0  0  0  0  0  0  0  0  0
   -1.3599    4.0033    2.8961 C   0  0  0  0  0  0  0  0  0  0  0  0
   -1.4589    5.0167    2.2074 O   0  0  0  0  0  0  0  0  0  0  0  0
    0.8914    2.8989    2.8928 C   0  0  0  0  0  0  0  0  0  0  0  0
   -0.7216    3.5087    0.4820 H   0  0  0  0  0  0  0  0  0  0  0  0
   -1.0116    1.8791    2.8976 H   0  0  0  0  0  0  0  0  0  0  0  0
    1.3579    3.7954    2.4683 H   0  0  0  0  0  0  0  0  0  0  0  0
    0.9798    2.9648    3.9823 H   0  0  0  0  0  0  0  0  0  0  0  0
    1.4696    2.0319    2.5555 H   0  0  0  0  0  0  0  0  0  0  0  0
   -1.9119    3.8473    4.1599 N   0  0  0  0  0  0  0  0  0  0  0  0
   -2.6775    4.8853    4.8099 C   0  0  0  0  0  0  0  0  0  0  0  0
   -1.8131    2.9588    4.6421 H   0  0  0  0  0  0  0  0  0  0  0  0
   -2.0106    5.4955    5.4368 H   0  0  0  0  0  0  0  0  0  0  0  0
   -3.1502    5.5233    4.0486 H   0  0  0  0  0  0  0  0  0  0  0  0
   -3.4550    4.4278    5.4392 H   0  0  0  0  0  0  0  0  0  0  0  0
  1  3  1  0  0  0  0
  1  7  1  0  0  0  0
  1  2  2  0  0  0  0
 23 25  1  0  0  0  0
 23 29  1  0  0  0  0
 23 24  2  0  0  0  0
 50 51  1  0  0  0  0
 51 59  1  0  0  0  0
 51 52  2  0  0  0  0
  8  9  1  0  0  0  0
  9 17  1  0  0  0  0
  9 10  2  0  0  0  0
 30 31  1  0  0  0  0
 31 39  1  0  0  0  0
 31 32  2  0  0  0  0
 40 41  1  0  0  0  0
 41 49  1  0  0  0  0
 41 42  2  0  0  0  0
 50 53  1  0  0  0  0
 30 33  1  0  0  0  0
 59 60  1  0  0  0  0
 17 18  1  0  0  0  0
  8 11  1  0  0  0  0
 11 12  1  0  0  0  0
 40 43  1  0  0  0  0
 43 44  1  0  0  0  0
 49 50  1  0  0  0  0
  7  8  1  0  0  0  0
 29 30  1  0  0  0  0
 39 40  1  0  0  0  0
 12 44  1  0  0  0  0
  3  4  1  0  0  0  0
  3  5  1  0  0  0  0
  3  6  1  0  0  0  0
 25 26  1  0  0  0  0
 25 27  1  0  0  0  0
 25 28  1  0  0  0  0
 53 56  1  0  0  0  0
 53 57  1  0  0  0  0
 53 58  1  0  0  0  0
 33 36  1  0  0  0  0
 33 37  1  0  0  0  0
 33 38  1  0  0  0  0
 60 62  1  0  0  0  0
 60 63  1  0  0  0  0
 60 64  1  0  0  0  0
 18 20  1  0  0  0  0
 18 21  1  0  0  0  0
 18 22  1  0  0  0  0
 11 15  1  0  0  0  0
 11 16  1  0  0  0  0
 43 47  1  0  0  0  0
 43 48  1  0  0  0  0
 50 55  1  0  0  0  0
  8 14  1  0  0  0  0
 30 35  1  0  0  0  0
 40 46  1  0  0  0  0
 59 61  1  0  0  0  0
 17 19  1  0  0  0  0
  7 13  1  0  0  0  0
 29 34  1  0  0  0  0
 49 54  1  0  0  0  0
 39 45  1  0  0  0  0
M  END
$$$$

  -OEChem-05262214473D

 64 63  0     1  0  0  0  0  0999 V2000
   -0.1049    7.6735   -6.6413 C   0  0  0  0  0  0  0  0  0  0  0  0
   -1.3172    7.8194   -6.7448 O   0  0  0  0  0  0  0  0  0  0  0  0
    0.7572    7.7956   -7.8538 C   0  0  0  0  0  0  0  0  0  0  0  0
    0.8961    6.8319   -8.3698 H   0  0  0  0  0  0  0  0  0  0  0  0
    0.3261    8.4712   -8.6099 H   0  0  0  0  0  0  0  0  0  0  0  0
    1.7750    8.1762   -7.6720 H   0  0  0  0  0  0  0  0  0  0  0  0
    0.5905    7.3975   -5.4767 N   0  0  0  0  0  0  0  0  0  0  0  0
   -0.0460    7.2413   -4.1934 C   0  0  2  0  0  0  0  0  0  0  0  0
    0.8788    7.7962   -3.1119 C   0  0  0  0  0  0  0  0  0  0  0  0
    2.0213    8.1866   -3.3435 O   0  0  0  0  0  0  0  0  0  0  0  0
   -0.4870    5.7988   -3.9334 C   0  0  0  0  0  0  0  0  0  0  0  0
    0.8931    4.6101   -3.8642 S   0  0  0  0  0  0  0  0  0  0  0  0
    1.6020    7.2999   -5.5295 H   0  0  0  0  0  0  0  0  0  0  0  0
   -0.9372    7.8804   -4.2268 H   0  0  0  0  0  0  0  0  0  0  0  0
   -1.0285    5.7275   -2.9845 H   0  0  0  0  0  0  0  0  0  0  0  0
   -1.1656    5.4673   -4.7268 H   0  0  0  0  0  0  0  0  0  0  0  0
    0.2872    7.7804   -1.8568 N   0  0  0  0  0  0  0  0  0  0  0  0
    0.9711    8.2321   -0.6676 C   0  0  0  0  0  0  0  0  0  0  0  0
   -0.6786    7.4805   -1.7630 H   0  0  0  0  0  0  0  0  0  0  0  0
    1.4638    7.3777   -0.1805 H   0  0  0  0  0  0  0  0  0  0  0  0
    1.7264    8.9832   -0.9420 H   0  0  0  0  0  0  0  0  0  0  0  0
    0.2438    8.6799    0.0257 H   0  0  0  0  0  0  0  0  0  0  0  0
   -6.7256    2.0330   -0.2766 C   0  0  0  0  0  0  0  0  0  0  0  0
   -7.1824    1.1039   -0.9322 O   0  0  0  0  0  0  0  0  0  0  0  0
   -7.5276    2.6077    0.8435 C   0  0  0  0  0  0  0  0  0  0  0  0
   -8.1775    3.4344    0.5145 H   0  0  0  0  0  0  0  0  0  0  0  0
   -8.2057    1.8676    1.2980 H   0  0  0  0  0  0  0  0  0  0  0  0
   -6.9411    3.0162    1.6819 H   0  0  0  0  0  0  0  0  0  0  0  0
   -5.4935    2.6382   -0.4627 N   0  0  0  0  0  0  0  0  0  0  0  0
   -4.5619    2.2388   -1.4845 C   0  0  2  0  0  0  0  0  0  0  0  0
   -3.1535    2.4674   -0.9521 C   0  0  0  0  0  0  0  0  0  0  0  0
   -2.8634    3.3945   -0.1987 O   0  0  0  0  0  0  0  0  0  0  0  0
   -4.7883    3.0138   -2.7732 C   0  0  0  0  0  0  0  0  0  0  0  0
   -5.2337    3.4049    0.1551 H   0  0  0  0  0  0  0  0  0  0  0  0
   -4.7192    1.1682   -1.6549 H   0  0  0  0  0  0  0  0  0  0  0  0
   -4.6352    4.0886   -2.6221 H   0  0  0  0  0  0  0  0  0  0  0  0
   -4.0976    2.6887   -3.5582 H   0  0  0  0  0  0  0  0  0  0  0  0
   -5.8111    2.8719   -3.1387 H   0  0  0  0  0  0  0  0  0  0  0  0
   -2.2466    1.5400   -1.4507 N   0  0  0  0  0  0  0  0  0  0  0  0
   -0.8424    1.5707   -1.1286 C   0  0  2  0  0  0  0  0  0  0  0  0
   -0.6786    1.4271    0.3831 C   0  0  0  0  0  0  0  0  0  0  0  0
   -0.3166    0.3827    0.9212 O   0  0  0  0  0  0  0  0  0  0  0  0
   -0.1403    2.8047   -1.7007 C   0  0  0  0  0  0  0  0  0  0  0  0
   -0.1058    2.8510   -3.5088 S   0  0  0  0  0  0  0  0  0  0  0  0
   -2.5850    0.7815   -2.0381 H   0  0  0  0  0  0  0  0  0  0  0  0
   -0.4135    0.6749   -1.5946 H   0  0  0  0  0  0  0  0  0  0  0  0
   -0.6335    3.7205   -1.3590 H   0  0  0  0  0  0  0  0  0  0  0  0
    0.8976    2.8386   -1.3520 H   0  0  0  0  0  0  0  0  0  0  0  0
   -1.0077    2.5930    1.0599 N   0  0  0  0  0  0  0  0  0  0  0  0
   -0.9568    2.6991    2.4993 C   0  0  2  0  0  0  0  0  0  0  0  0
   -2.0498    3.6643    2.9387 C   0  0  0  0  0  0  0  0  0  0  0  0
   -2.3912    4.6394    2.2726 O   0  0  0  0  0  0  0  0  0  0  0  0
    0.4090    3.1732    2.9712 C   0  0  0  0  0  0  0  0  0  0  0  0
   -1.2561    3.4244    0.5319 H   0  0  0  0  0  0  0  0  0  0  0  0
   -1.1684    1.7008    2.8977 H   0  0  0  0  0  0  0  0  0  0  0  0
    0.6386    4.1719    2.5820 H   0  0  0  0  0  0  0  0  0  0  0  0
    0.4550    3.2258    4.0640 H   0  0  0  0  0  0  0  0  0  0  0  0
    1.1971    2.4938    2.6290 H   0  0  0  0  0  0  0  0  0  0  0  0
   -2.5694    3.3332    4.1823 N   0  0  0  0  0  0  0  0  0  0  0  0
   -3.5889    4.1202    4.8360 C   0  0  0  0  0  0  0  0  0  0  0  0
   -2.2560    2.4850    4.6451 H   0  0  0  0  0  0  0  0  0  0  0  0
   -3.1140    4.8610    5.4961 H   0  0  0  0  0  0  0  0  0  0  0  0
   -4.1936    4.6392    4.0777 H   0  0  0  0  0  0  0  0  0  0  0  0
   -4.2360    3.4597    5.4319 H   0  0  0  0  0  0  0  0  0  0  0  0
  1  3  1  0  0  0  0
  1  7  1  0  0  0  0
  1  2  2  0  0  0  0
 23 25  1  0  0  0  0
 23 29  1  0  0  0  0
 23 24  2  0  0  0  0
 50 51  1  0  0  0  0
 51 59  1  0  0  0  0
 51 52  2  0  0  0  0
  8  9  1  0  0  0  0
  9 17  1  0  0  0  0
  9 10  2  0  0  0  0
 30 31  1  0  0  0  0
 31 39  1  0  0  0  0
 31 32  2  0  0  0  0
 40 41  1  0  0  0  0
 41 49  1  0  0  0  0
 41 42  2  0  0  0  0
 50 53  1  0  0  0  0
 30 33  1  0  0  0  0
 59 60  1  0  0  0  0
 17 18  1  0  0  0  0
  8 11  1  0  0  0  0
 11 12  1  0  0  0  0
 40 43  1  0  0  0  0
 43 44  1  0  0  0  0
 49 50  1  0  0  0  0
  7  8  1  0  0  0  0
 29 30  1  0  0  0  0
 39 40  1  0  0  0  0
 12 44  1  0  0  0  0
  3  4  1  0  0  0  0
  3  5  1  0  0  0  0
  3  6  1  0  0  0  0
 25 26  1  0  0  0  0
 25 27  1  0  0  0  0
 25 28  1  0  0  0  0
 53 56  1  0  0  0  0
 53 57  1  0  0  0  0
 53 58  1  0  0  0  0
 33 36  1  0  0  0  0
 33 37  1  0  0  0  0
 33 38  1  0  0  0  0
 60 62  1  0  0  0  0
 60 63  1  0  0  0  0
 60 64  1  0  0  0  0
 18 20  1  0  0  0  0
 18 21  1  0  0  0  0
 18 22  1  0  0  0  0
 11 15  1  0  0  0  0
 11 16  1  0  0  0  0
 43 47  1  0  0  0  0
 43 48  1  0  0  0  0
 50 55  1  0  0  0  0
  8 14  1  0  0  0  0
 30 35  1  0  0  0  0
 40 46  1  0  0  0  0
 59 61  1  0  0  0  0
 17 19  1  0  0  0  0
  7 13  1  0  0  0  0
 29 34  1  0  0  0  0
 49 54  1  0  0  0  0
 39 45  1  0  0  0  0
M  END
$$$$

  -OEChem-05262214473D

 64 63  0     1  0  0  0  0  0999 V2000
   -0.1049    7.6735   -6.6413 C   0  0  0  0  0  0  0  0  0  0  0  0
   -1.3172    7.8194   -6.7448 O   0  0  0  0  0  0  0  0  0  0  0  0
    0.7572    7.7956   -7.8538 C   0  0  0  0  0  0  0  0  0  0  0  0
    0.8961    6.8319   -8.3698 H   0  0  0  0  0  0  0  0  0  0  0  0
    0.3261    8.4712   -8.6099 H   0  0  0  0  0  0  0  0  0  0  0  0
    1.7750    8.1762   -7.6720 H   0  0  0  0  0  0  0  0  0  0  0  0
    0.5905    7.3975   -5.4767 N   0  0  0  0  0  0  0  0  0  0  0  0
   -0.0460    7.2413   -4.1934 C   0  0  2  0  0  0  0  0  0  0  0  0
    0.8788    7.7962   -3.1119 C   0  0  0  0  0  0  0  0  0  0  0  0
    2.0213    8.1866   -3.3435 O   0  0  0  0  0  0  0  0  0  0  0  0
   -0.4870    5.7988   -3.9334 C   0  0  0  0  0  0  0  0  0  0  0  0
    0.8931    4.6101   -3.8642 S   0  0  0  0  0  0  0  0  0  0  0  0
    1.6020    7.2999   -5.5295 H   0  0  0  0  0  0  0  0  0  0  0  0
   -0.9372    7.8804   -4.2268 H   0  0  0  0  0  0  0  0  0  0  0  0
   -1.0285    5.7275   -2.9845 H   0  0  0  0  0  0  0  0  0  0  0  0
   -1.1656    5.4673   -4.7268 H   0  0  0  0  0  0  0  0  0  0  0  0
    0.2872    7.7804   -1.8568 N   0  0  0  0  0  0  0  0  0  0  0  0
    0.9711    8.2321   -0.6676 C   0  0  0  0  0  0  0  0  0  0  0  0
   -0.6786    7.4805   -1.7630 H   0  0  0  0  0  0  0  0  0  0  0  0
    1.4638    7.3777   -0.1805 H   0  0  0  0  0  0  0  0  0  0  0  0
    1.7264    8.9832   -0.9420 H   0  0  0  0  0  0  0  0  0  0  0  0
    0.2438    8.6799    0.0257 H   0  0  0  0  0  0  0  0  0  0  0  0
   -6.7256    2.0330   -0.2766 C   0  0  0  0  0  0  0  0  0  0  0  0
   -7.1824    1.1039   -0.9322 O   0  0  0  0  0  0  0  0  0  0  0  0
   -7.5276    2.6077    0.8435 C   0  0  0  0  0  0  0  0  0  0  0  0
   -8.1775    3.4344    0.5145 H   0  0  0  0  0  0  0  0  0  0  0  0
   -8.2057    1.8676    1.2980 H   0  0  0  0  0  0  0  0  0  0  0  0
   -6.9411    3.0162    1.6819 H   0  0  0  0  0  0  0  0  0  0  0  0
   -5.4935    2.6382   -0.4627 N   0  0  0  0  0  0  0  0  0  0  0  0
   -4.5619    2.2388   -1.4845 C   0  0  2  0  0  0  0  0  0  0  0  0
   -3.1535    2.4674   -0.9521 C   0  0  0  0  0  0  0  0  0  0  0  0
   -2.8634    3.3945   -0.1987 O   0  0  0  0  0  0  0  0  0  0  0  0
   -4.7883    3.0138   -2.7732 C   0  0  0  0  0  0  0  0  0  0  0  0
   -5.2337    3.4049    0.1551 H   0  0  0  0  0  0  0  0  0  0  0  0
   -4.7192    1.1682   -1.6549 H   0  0  0  0  0  0  0  0  0  0  0  0
   -4.6352    4.0886   -2.6221 H   0  0  0  0  0  0  0  0  0  0  0  0
   -4.0976    2.6887   -3.5582 H   0  0  0  0  0  0  0  0  0  0  0  0
   -5.8111    2.8719   -3.1387 H   0  0  0  0  0  0  0  0  0  0  0  0
   -2.2466    1.5400   -1.4507 N   0  0  0  0  0  0  0  0  0  0  0  0
   -0.8424    1.5707   -1.1286 C   0  0  2  0  0  0  0  0  0  0  0  0
   -0.6786    1.4271    0.3831 C   0  0  0  0  0  0  0  0  0  0  0  0
   -0.0720    0.4940    0.9053 O   0  0  0  0  0  0  0  0  0  0  0  0
   -0.1403    2.8047   -1.7007 C   0  0  0  0  0  0  0  0  0  0  0  0
   -0.1058    2.8510   -3.5088 S   0  0  0  0  0  0  0  0  0  0  0  0
   -2.5850    0.7815   -2.0381 H   0  0  0  0  0  0  0  0  0  0  0  0
   -0.4135    0.6749   -1.5946 H   0  0  0  0  0  0  0  0  0  0  0  0
   -0.6335    3.7205   -1.3590 H   0  0  0  0  0  0  0  0  0  0  0  0
    0.8976    2.8386   -1.3520 H   0  0  0  0  0  0  0  0  0  0  0  0
   -1.3097    2.4485    1.0789 N   0  0  0  0  0  0  0  0  0  0  0  0
   -1.3175    2.5195    2.5213 C   0  0  2  0  0  0  0  0  0  0  0  0
   -2.6305    3.1589    2.9536 C   0  0  0  0  0  0  0  0  0  0  0  0
   -3.1966    4.0343    2.3024 O   0  0  0  0  0  0  0  0  0  0  0  0
   -0.1292    3.3124    3.0427 C   0  0  0  0  0  0  0  0  0  0  0  0
   -1.7521    3.2046    0.5647 H   0  0  0  0  0  0  0  0  0  0  0  0
   -1.2743    1.4885    2.8890 H   0  0  0  0  0  0  0  0  0  0  0  0
   -0.1554    4.3481    2.6848 H   0  0  0  0  0  0  0  0  0  0  0  0
   -0.1209    3.3412    4.1373 H   0  0  0  0  0  0  0  0  0  0  0  0
    0.8137    2.8682    2.7061 H   0  0  0  0  0  0  0  0  0  0  0  0
   -3.0734    2.6676    4.1737 N   0  0  0  0  0  0  0  0  0  0  0  0
   -4.2740    3.1470    4.8178 C   0  0  0  0  0  0  0  0  0  0  0  0
   -2.5626    1.9139    4.6241 H   0  0  0  0  0  0  0  0  0  0  0  0
   -4.0188    3.9638    5.5089 H   0  0  0  0  0  0  0  0  0  0  0  0
   -4.9757    3.5172    4.0559 H   0  0  0  0  0  0  0  0  0  0  0  0
   -4.7421    2.3248    5.3789 H   0  0  0  0  0  0  0  0  0  0  0  0
  1  3  1  0  0  0  0
  1  7  1  0  0  0  0
  1  2  2  0  0  0  0
 23 25  1  0  0  0  0
 23 29  1  0  0  0  0
 23 24  2  0  0  0  0
 50 51  1  0  0  0  0
 51 59  1  0  0  0  0
 51 52  2  0  0  0  0
  8  9  1  0  0  0  0
  9 17  1  0  0  0  0
  9 10  2  0  0  0  0
 30 31  1  0  0  0  0
 31 39  1  0  0  0  0
 31 32  2  0  0  0  0
 40 41  1  0  0  0  0
 41 49  1  0  0  0  0
 41 42  2  0  0  0  0
 50 53  1  0  0  0  0
 30 33  1  0  0  0  0
 59 60  1  0  0  0  0
 17 18  1  0  0  0  0
  8 11  1  0  0  0  0
 11 12  1  0  0  0  0
 40 43  1  0  0  0  0
 43 44  1  0  0  0  0
 49 50  1  0  0  0  0
  7  8  1  0  0  0  0
 29 30  1  0  0  0  0
 39 40  1  0  0  0  0
 12 44  1  0  0  0  0
  3  4  1  0  0  0  0
  3  5  1  0  0  0  0
  3  6  1  0  0  0  0
 25 26  1  0  0  0  0
 25 27  1  0  0  0  0
 25 28  1  0  0  0  0
 53 56  1  0  0  0  0
 53 57  1  0  0  0  0
 53 58  1  0  0  0  0
 33 36  1  0  0  0  0
 33 37  1  0  0  0  0
 33 38  1  0  0  0  0
 60 62  1  0  0  0  0
 60 63  1  0  0  0  0
 60 64  1  0  0  0  0
 18 20  1  0  0  0  0
 18 21  1  0  0  0  0
 18 22  1  0  0  0  0
 11 15  1  0  0  0  0
 11 16  1  0  0  0  0
 43 47  1  0  0  0  0
 43 48  1  0  0  0  0
 50 55  1  0  0  0  0
  8 14  1  0  0  0  0
 30 35  1  0  0  0  0
 40 46  1  0  0  0  0
 59 61  1  0  0  0  0
 17 19  1  0  0  0  0
  7 13  1  0  0  0  0
 29 34  1  0  0  0  0
 49 54  1  0  0  0  0
 39 45  1  0  0  0  0
M  END
$$$$

  -OEChem-05262214473D

 64 63  0     1  0  0  0  0  0999 V2000
   -0.1049    7.6735   -6.6413 C   0  0  0  0  0  0  0  0  0  0  0  0
   -1.3172    7.8194   -6.7448 O   0  0  0  0  0  0  0  0  0  0  0  0
    0.7572    7.7956   -7.8538 C   0  0  0  0  0  0  0  0  0  0  0  0
    0.8961    6.8319   -8.3698 H   0  0  0  0  0  0  0  0  0  0  0  0
    0.3261    8.4712   -8.6099 H   0  0  0  0  0  0  0  0  0  0  0  0
    1.7750    8.1762   -7.6720 H   0  0  0  0  0  0  0  0  0  0  0  0
    0.5905    7.3975   -5.4767 N   0  0  0  0  0  0  0  0  0  0  0  0
   -0.0460    7.2413   -4.1934 C   0  0  2  0  0  0  0  0  0  0  0  0
    0.8788    7.7962   -3.1119 C   0  0  0  0  0  0  0  0  0  0  0  0
    2.0213    8.1866   -3.3435 O   0  0  0  0  0  0  0  0  0  0  0  0
   -0.4870    5.7988   -3.9334 C   0  0  0  0  0  0  0  0  0  0  0  0
    0.8931    4.6101   -3.8642 S   0  0  0  0  0  0  0  0  0  0  0  0
    1.6020    7.2999   -5.5295 H   0  0  0  0  0  0  0  0  0  0  0  0
   -0.9372    7.8804   -4.2268 H   0  0  0  0  0  0  0  0  0  0  0  0
   -1.0285    5.7275   -2.9845 H   0  0  0  0  0  0  0  0  0  0  0  0
   -1.1656    5.4673   -4.7268 H   0  0  0  0  0  0  0  0  0  0  0  0
    0.2872    7.7804   -1.8568 N   0  0  0  0  0  0  0  0  0  0  0  0
    0.9711    8.2321   -0.6676 C   0  0  0  0  0  0  0  0  0  0  0  0
   -0.6786    7.4805   -1.7630 H   0  0  0  0  0  0  0  0  0  0  0  0
    1.4638    7.3777   -0.1805 H   0  0  0  0  0  0  0  0  0  0  0  0
    1.7264    8.9832   -0.9420 H   0  0  0  0  0  0  0  0  0  0  0  0
    0.2438    8.6799    0.0257 H   0  0  0  0  0  0  0  0  0  0  0  0
   -6.7256    2.0330   -0.2766 C   0  0  0  0  0  0  0  0  0  0  0  0
   -7.1824    1.1039   -0.9322 O   0  0  0  0  0  0  0  0  0  0  0  0
   -7.5276    2.6077    0.8435 C   0  0  0  0  0  0  0  0  0  0  0  0
   -8.1775    3.4344    0.5145 H   0  0  0  0  0  0  0  0  0  0  0  0
   -8.2057    1.8676    1.2980 H   0  0  0  0  0  0  0  0  0  0  0  0
   -6.9411    3.0162    1.6819 H   0  0  0  0  0  0  0  0  0  0  0  0
   -5.4935    2.6382   -0.4627 N   0  0  0  0  0  0  0  0  0  0  0  0
   -4.5619    2.2388   -1.4845 C   0  0  2  0  0  0  0  0  0  0  0  0
   -3.1535    2.4674   -0.9521 C   0  0  0  0  0  0  0  0  0  0  0  0
   -2.8634    3.3945   -0.1987 O   0  0  0  0  0  0  0  0  0  0  0  0
   -4.7883    3.0138   -2.7732 C   0  0  0  0  0  0  0  0  0  0  0  0
   -5.2337    3.4049    0.1551 H   0  0  0  0  0  0  0  0  0  0  0  0
   -4.7192    1.1682   -1.6549 H   0  0  0  0  0  0  0  0  0  0  0  0
   -4.6352    4.0886   -2.6221 H   0  0  0  0  0  0  0  0  0  0  0  0
   -4.0976    2.6887   -3.5582 H   0  0  0  0  0  0  0  0  0  0  0  0
   -5.8111    2.8719   -3.1387 H   0  0  0  0  0  0  0  0  0  0  0  0
   -2.2466    1.5400   -1.4507 N   0  0  0  0  0  0  0  0  0  0  0  0
   -0.8424    1.5707   -1.1286 C   0  0  2  0  0  0  0  0  0  0  0  0
   -0.6786    1.4271    0.3831 C   0  0  0  0  0  0  0  0  0  0  0  0
    0.1361    0.6645    0.8989 O   0  0  0  0  0  0  0  0  0  0  0  0
   -0.1403    2.8047   -1.7007 C   0  0  0  0  0  0  0  0  0  0  0  0
   -0.1058    2.8510   -3.5088 S   0  0  0  0  0  0  0  0  0  0  0  0
   -2.5850    0.7815   -2.0381 H   0  0  0  0  0  0  0  0  0  0  0  0
   -0.4135    0.6749   -1.5946 H   0  0  0  0  0  0  0  0  0  0  0  0
   -0.6335    3.7205   -1.3590 H   0  0  0  0  0  0  0  0  0  0  0  0
    0.8976    2.8386   -1.3520 H   0  0  0  0  0  0  0  0  0  0  0  0
   -1.5649    2.2310    1.0859 N   0  0  0  0  0  0  0  0  0  0  0  0
   -1.6205    2.2530    2.5289 C   0  0  2  0  0  0  0  0  0  0  0  0
   -3.0622    2.5215    2.9399 C   0  0  0  0  0  0  0  0  0  0  0  0
   -3.8204    3.2427    2.2948 O   0  0  0  0  0  0  0  0  0  0  0  0
   -0.6864    3.3070    3.1026 C   0  0  0  0  0  0  0  0  0  0  0  0
   -2.1757    2.8643    0.5783 H   0  0  0  0  0  0  0  0  0  0  0  0
   -1.3218    1.2565    2.8721 H   0  0  0  0  0  0  0  0  0  0  0  0
   -0.9700    4.3121    2.7697 H   0  0  0  0  0  0  0  0  0  0  0  0
   -0.7084    3.3031    4.1974 H   0  0  0  0  0  0  0  0  0  0  0  0
    0.3457    3.1294    2.7816 H   0  0  0  0  0  0  0  0  0  0  0  0
   -3.3894    1.8958    4.1347 N   0  0  0  0  0  0  0  0  0  0  0  0
   -4.6859    2.0319    4.7565 C   0  0  0  0  0  0  0  0  0  0  0  0
   -2.7118    1.2843    4.5804 H   0  0  0  0  0  0  0  0  0  0  0  0
   -4.6632    2.8650    5.4744 H   0  0  0  0  0  0  0  0  0  0  0  0
   -5.4432    2.2337    3.9847 H   0  0  0  0  0  0  0  0  0  0  0  0
   -4.9390    1.1004    5.2839 H   0  0  0  0  0  0  0  0  0  0  0  0
  1  3  1  0  0  0  0
  1  7  1  0  0  0  0
  1  2  2  0  0  0  0
 23 25  1  0  0  0  0
 23 29  1  0  0  0  0
 23 24  2  0  0  0  0
 50 51  1  0  0  0  0
 51 59  1  0  0  0  0
 51 52  2  0  0  0  0
  8  9  1  0  0  0  0
  9 17  1  0  0  0  0
  9 10  2  0  0  0  0
 30 31  1  0  0  0  0
 31 39  1  0  0  0  0
 31 32  2  0  0  0  0
 40 41  1  0  0  0  0
 41 49  1  0  0  0  0
 41 42  2  0  0  0  0
 50 53  1  0  0  0  0
 30 33  1  0  0  0  0
 59 60  1  0  0  0  0
 17 18  1  0  0  0  0
  8 11  1  0  0  0  0
 11 12  1  0  0  0  0
 40 43  1  0  0  0  0
 43 44  1  0  0  0  0
 49 50  1  0  0  0  0
  7  8  1  0  0  0  0
 29 30  1  0  0  0  0
 39 40  1  0  0  0  0
 12 44  1  0  0  0  0
  3  4  1  0  0  0  0
  3  5  1  0  0  0  0
  3  6  1  0  0  0  0
 25 26  1  0  0  0  0
 25 27  1  0  0  0  0
 25 28  1  0  0  0  0
 53 56  1  0  0  0  0
 53 57  1  0  0  0  0
 53 58  1  0  0  0  0
 33 36  1  0  0  0  0
 33 37  1  0  0  0  0
 33 38  1  0  0  0  0
 60 62  1  0  0  0  0
 60 63  1  0  0  0  0
 60 64  1  0  0  0  0
 18 20  1  0  0  0  0
 18 21  1  0  0  0  0
 18 22  1  0  0  0  0
 11 15  1  0  0  0  0
 11 16  1  0  0  0  0
 43 47  1  0  0  0  0
 43 48  1  0  0  0  0
 50 55  1  0  0  0  0
  8 14  1  0  0  0  0
 30 35  1  0  0  0  0
 40 46  1  0  0  0  0
 59 61  1  0  0  0  0
 17 19  1  0  0  0  0
  7 13  1  0  0  0  0
 29 34  1  0  0  0  0
 49 54  1  0  0  0  0
 39 45  1  0  0  0  0
M  END
$$$$

  -OEChem-05262214473D

 64 63  0     1  0  0  0  0  0999 V2000
   -0.1049    7.6735   -6.6413 C   0  0  0  0  0  0  0  0  0  0  0  0
   -1.3172    7.8194   -6.7448 O   0  0  0  0  0  0  0  0  0  0  0  0
    0.7572    7.7956   -7.8538 C   0  0  0  0  0  0  0  0  0  0  0  0
    0.8961    6.8319   -8.3698 H   0  0  0  0  0  0  0  0  0  0  0  0
    0.3261    8.4712   -8.6099 H   0  0  0  0  0  0  0  0  0  0  0  0
    1.7750    8.1762   -7.6720 H   0  0  0  0  0  0  0  0  0  0  0  0
    0.5905    7.3975   -5.4767 N   0  0  0  0  0  0  0  0  0  0  0  0
   -0.0460    7.2413   -4.1934 C   0  0  2  0  0  0  0  0  0  0  0  0
    0.8788    7.7962   -3.1119 C   0  0  0  0  0  0  0  0  0  0  0  0
    2.0213    8.1866   -3.3435 O   0  0  0  0  0  0  0  0  0  0  0  0
   -0.4870    5.7988   -3.9334 C   0  0  0  0  0  0  0  0  0  0  0  0
    0.8931    4.6101   -3.8642 S   0  0  0  0  0  0  0  0  0  0  0  0
    1.6020    7.2999   -5.5295 H   0  0  0  0  0  0  0  0  0  0  0  0
   -0.9372    7.8804   -4.2268 H   0  0  0  0  0  0  0  0  0  0  0  0
   -1.0285    5.7275   -2.9845 H   0  0  0  0  0  0  0  0  0  0  0  0
   -1.1656    5.4673   -4.7268 H   0  0  0  0  0  0  0  0  0  0  0  0
    0.2872    7.7804   -1.8568 N   0  0  0  0  0  0  0  0  0  0  0  0
    0.9711    8.2321   -0.6676 C   0  0  0  0  0  0  0  0  0  0  0  0
   -0.6786    7.4805   -1.7630 H   0  0  0  0  0  0  0  0  0  0  0  0
    1.4638    7.3777   -0.1805 H   0  0  0  0  0  0  0  0  0  0  0  0
    1.7264    8.9832   -0.9420 H   0  0  0  0  0  0  0  0  0  0  0  0
    0.2438    8.6799    0.0257 H   0  0  0  0  0  0  0  0  0  0  0  0
   -6.7256    2.0330   -0.2766 C   0  0  0  0  0  0  0  0  0  0  0  0
   -7.1824    1.1039   -0.9322 O   0  0  0  0  0  0  0  0  0  0  0  0
   -7.5276    2.6077    0.8435 C   0  0  0  0  0  0  0  0  0  0  0  0
   -8.1775    3.4344    0.5145 H   0  0  0  0  0  0  0  0  0  0  0  0
   -8.2057    1.8676    1.2980 H   0  0  0  0  0  0  0  0  0  0  0  0
   -6.9411    3.0162    1.6819 H   0  0  0  0  0  0  0  0  0  0  0  0
   -5.4935    2.6382   -0.4627 N   0  0  0  0  0  0  0  0  0  0  0  0
   -4.5619    2.2388   -1.4845 C   0  0  2  0  0  0  0  0  0  0  0  0
   -3.1535    2.4674   -0.9521 C   0  0  0  0  0  0  0  0  0  0  0  0
   -2.8634    3.3945   -0.1987 O   0  0  0  0  0  0  0  0  0  0  0  0
   -4.7883    3.0138   -2.7732 C   0  0  0  0  0  0  0  0  0  0  0  0
   -5.2337    3.4049    0.1551 H   0  0  0  0  0  0  0  0  0  0  0  0
   -4.7192    1.1682   -1.6549 H   0  0  0  0  0  0  0  0  0  0  0  0
   -4.6352    4.0886   -2.6221 H   0  0  0  0  0  0  0  0  0  0  0  0
   -4.0976    2.6887   -3.5582 H   0  0  0  0  0  0  0  0  0  0  0  0
   -5.8111    2.8719   -3.1387 H   0  0  0  0  0  0  0  0  0  0  0  0
   -2.2466    1.5400   -1.4507 N   0  0  0  0  0  0  0  0  0  0  0  0
   -0.8424    1.5707   -1.1286 C   0  0  2  0  0  0  0  0  0  0  0  0
   -0.6786    1.4271    0.3831 C   0  0  0  0  0  0  0  0  0  0  0  0
    0.2936    0.8827    0.9026 O   0  0  0  0  0  0  0  0  0  0  0  0
   -0.1403    2.8047   -1.7007 C   0  0  0  0  0  0  0  0  0  0  0  0
   -0.1058    2.8510   -3.5088 S   0  0  0  0  0  0  0  0  0  0  0  0
   -2.5850    0.7815   -2.0381 H   0  0  0  0  0  0  0  0  0  0  0  0
   -0.4135    0.6749   -1.5946 H   0  0  0  0  0  0  0  0  0  0  0  0
   -0.6335    3.7205   -1.3590 H   0  0  0  0  0  0  0  0  0  0  0  0
    0.8976    2.8386   -1.3520 H   0  0  0  0  0  0  0  0  0  0  0  0
   -1.7558    1.9554    1.0804 N   0  0  0  0  0  0  0  0  0  0  0  0
   -1.8451    1.9178    2.5213 C   0  0  2  0  0  0  0  0  0  0  0  0
   -3.3156    1.7957    2.8984 C   0  0  0  0  0  0  0  0  0  0  0  0
   -4.2199    2.3185    2.2503 O   0  0  0  0  0  0  0  0  0  0  0  0
   -1.2247    3.1574    3.1467 C   0  0  0  0  0  0  0  0  0  0  0  0
   -2.4979    2.4267    0.5717 H   0  0  0  0  0  0  0  0  0  0  0  0
   -1.3080    1.0207    2.8482 H   0  0  0  0  0  0  0  0  0  0  0  0
   -1.7496    4.0663    2.8308 H   0  0  0  0  0  0  0  0  0  0  0  0
   -1.2676    3.1141    4.2400 H   0  0  0  0  0  0  0  0  0  0  0  0
   -0.1752    3.2598    2.8504 H   0  0  0  0  0  0  0  0  0  0  0  0
   -3.4961    1.0704    4.0678 N   0  0  0  0  0  0  0  0  0  0  0  0
   -4.7966    0.8510    4.6563 C   0  0  0  0  0  0  0  0  0  0  0  0
   -2.6937    0.6391    4.5172 H   0  0  0  0  0  0  0  0  0  0  0  0
   -5.0033    1.6396    5.3948 H   0  0  0  0  0  0  0  0  0  0  0  0
   -5.5643    0.8761    3.8688 H   0  0  0  0  0  0  0  0  0  0  0  0
   -4.8132   -0.1301    5.1534 H   0  0  0  0  0  0  0  0  0  0  0  0
  1  3  1  0  0  0  0
  1  7  1  0  0  0  0
  1  2  2  0  0  0  0
 23 25  1  0  0  0  0
 23 29  1  0  0  0  0
 23 24  2  0  0  0  0
 50 51  1  0  0  0  0
 51 59  1  0  0  0  0
 51 52  2  0  0  0  0
  8  9  1  0  0  0  0
  9 17  1  0  0  0  0
  9 10  2  0  0  0  0
 30 31  1  0  0  0  0
 31 39  1  0  0  0  0
 31 32  2  0  0  0  0
 40 41  1  0  0  0  0
 41 49  1  0  0  0  0
 41 42  2  0  0  0  0
 50 53  1  0  0  0  0
 30 33  1  0  0  0  0
 59 60  1  0  0  0  0
 17 18  1  0  0  0  0
  8 11  1  0  0  0  0
 11 12  1  0  0  0  0
 40 43  1  0  0  0  0
 43 44  1  0  0  0  0
 49 50  1  0  0  0  0
  7  8  1  0  0  0  0
 29 30  1  0  0  0  0
 39 40  1  0  0  0  0
 12 44  1  0  0  0  0
  3  4  1  0  0  0  0
  3  5  1  0  0  0  0
  3  6  1  0  0  0  0
 25 26  1  0  0  0  0
 25 27  1  0  0  0  0
 25 28  1  0  0  0  0
 53 56  1  0  0  0  0
 53 57  1  0  0  0  0
 53 58  1  0  0  0  0
 33 36  1  0  0  0  0
 33 37  1  0  0  0  0
 33 38  1  0  0  0  0
 60 62  1  0  0  0  0
 60 63  1  0  0  0  0
 60 64  1  0  0  0  0
 18 20  1  0  0  0  0
 18 21  1  0  0  0  0
 18 22  1  0  0  0  0
 11 15  1  0  0  0  0
 11 16  1  0  0  0  0
 43 47  1  0  0  0  0
 43 48  1  0  0  0  0
 50 55  1  0  0  0  0
  8 14  1  0  0  0  0
 30 35  1  0  0  0  0
 40 46  1  0  0  0  0
 59 61  1  0  0  0  0
 17 19  1  0  0  0  0
  7 13  1  0  0  0  0
 29 34  1  0  0  0  0
 49 54  1  0  0  0  0
 39 45  1  0  0  0  0
M  END
$$$$

  -OEChem-05262214473D

 64 63  0     1  0  0  0  0  0999 V2000
   -0.1049    7.6735   -6.6413 C   0  0  0  0  0  0  0  0  0  0  0  0
   -1.3172    7.8194   -6.7448 O   0  0  0  0  0  0  0  0  0  0  0  0
    0.7572    7.7956   -7.8538 C   0  0  0  0  0  0  0  0  0  0  0  0
    0.8961    6.8319   -8.3698 H   0  0  0  0  0  0  0  0  0  0  0  0
    0.3261    8.4712   -8.6099 H   0  0  0  0  0  0  0  0  0  0  0  0
    1.7750    8.1762   -7.6720 H   0  0  0  0  0  0  0  0  0  0  0  0
    0.5905    7.3975   -5.4767 N   0  0  0  0  0  0  0  0  0  0  0  0
   -0.0460    7.2413   -4.1934 C   0  0  2  0  0  0  0  0  0  0  0  0
    0.8788    7.7962   -3.1119 C   0  0  0  0  0  0  0  0  0  0  0  0
    2.0213    8.1866   -3.3435 O   0  0  0  0  0  0  0  0  0  0  0  0
   -0.4870    5.7988   -3.9334 C   0  0  0  0  0  0  0  0  0  0  0  0
    0.8931    4.6101   -3.8642 S   0  0  0  0  0  0  0  0  0  0  0  0
    1.6020    7.2999   -5.5295 H   0  0  0  0  0  0  0  0  0  0  0  0
   -0.9372    7.8804   -4.2268 H   0  0  0  0  0  0  0  0  0  0  0  0
   -1.0285    5.7275   -2.9845 H   0  0  0  0  0  0  0  0  0  0  0  0
   -1.1656    5.4673   -4.7268 H   0  0  0  0  0  0  0  0  0  0  0  0
    0.2872    7.7804   -1.8568 N   0  0  0  0  0  0  0  0  0  0  0  0
    0.9711    8.2321   -0.6676 C   0  0  0  0  0  0  0  0  0  0  0  0
   -0.6786    7.4805   -1.7630 H   0  0  0  0  0  0  0  0  0  0  0  0
    1.4638    7.3777   -0.1805 H   0  0  0  0  0  0  0  0  0  0  0  0
    1.7264    8.9832   -0.9420 H   0  0  0  0  0  0  0  0  0  0  0  0
    0.2438    8.6799    0.0257 H   0  0  0  0  0  0  0  0  0  0  0  0
   -6.7256    2.0330   -0.2766 C   0  0  0  0  0  0  0  0  0  0  0  0
   -7.1824    1.1039   -0.9322 O   0  0  0  0  0  0  0  0  0  0  0  0
   -7.5276    2.6077    0.8435 C   0  0  0  0  0  0  0  0  0  0  0  0
   -8.1775    3.4344    0.5145 H   0  0  0  0  0  0  0  0  0  0  0  0
   -8.2057    1.8676    1.2980 H   0  0  0  0  0  0  0  0  0  0  0  0
   -6.9411    3.0162    1.6819 H   0  0  0  0  0  0  0  0  0  0  0  0
   -5.4935    2.6382   -0.4627 N   0  0  0  0  0  0  0  0  0  0  0  0
   -4.5619    2.2388   -1.4845 C   0  0  2  0  0  0  0  0  0  0  0  0
   -3.1535    2.4674   -0.9521 C   0  0  0  0  0  0  0  0  0  0  0  0
   -2.8634    3.3945   -0.1987 O   0  0  0  0  0  0  0  0  0  0  0  0
   -4.7883    3.0138   -2.7732 C   0  0  0  0  0  0  0  0  0  0  0  0
   -5.2337    3.4049    0.1551 H   0  0  0  0  0  0  0  0  0  0  0  0
   -4.7192    1.1682   -1.6549 H   0  0  0  0  0  0  0  0  0  0  0  0
   -4.6352    4.0886   -2.6221 H   0  0  0  0  0  0  0  0  0  0  0  0
   -4.0976    2.6887   -3.5582 H   0  0  0  0  0  0  0  0  0  0  0  0
   -5.8111    2.8719   -3.1387 H   0  0  0  0  0  0  0  0  0  0  0  0
   -2.2466    1.5400   -1.4507 N   0  0  0  0  0  0  0  0  0  0  0  0
   -0.8424    1.5707   -1.1286 C   0  0  2  0  0  0  0  0  0  0  0  0
   -0.6786    1.4271    0.3831 C   0  0  0  0  0  0  0  0  0  0  0  0
    0.3897    1.1338    0.9160 O   0  0  0  0  0  0  0  0  0  0  0  0
   -0.1403    2.8047   -1.7007 C   0  0  0  0  0  0  0  0  0  0  0  0
   -0.1058    2.8510   -3.5088 S   0  0  0  0  0  0  0  0  0  0  0  0
   -2.5850    0.7815   -2.0381 H   0  0  0  0  0  0  0  0  0  0  0  0
   -0.4135    0.6749   -1.5946 H   0  0  0  0  0  0  0  0  0  0  0  0
   -0.6335    3.7205   -1.3590 H   0  0  0  0  0  0  0  0  0  0  0  0
    0.8976    2.8386   -1.3520 H   0  0  0  0  0  0  0  0  0  0  0  0
   -1.8695    1.6404    1.0628 N   0  0  0  0  0  0  0  0  0  0  0  0
   -1.9760    1.5366    2.4993 C   0  0  2  0  0  0  0  0  0  0  0  0
   -3.3734    1.0308    2.8320 C   0  0  0  0  0  0  0  0  0  0  0  0
   -4.3680    1.3247    2.1720 O   0  0  0  0  0  0  0  0  0  0  0  0
   -1.7074    2.8738    3.1721 C   0  0  0  0  0  0  0  0  0  0  0  0
   -2.6970    1.9217    0.5453 H   0  0  0  0  0  0  0  0  0  0  0  0
   -1.2336    0.7972    2.8189 H   0  0  0  0  0  0  0  0  0  0  0  0
   -2.4413    3.6275    2.8641 H   0  0  0  0  0  0  0  0  0  0  0  0
   -1.7604    2.7871    4.2624 H   0  0  0  0  0  0  0  0  0  0  0  0
   -0.7134    3.2504    2.9079 H   0  0  0  0  0  0  0  0  0  0  0  0
   -3.3860    0.2477    3.9777 N   0  0  0  0  0  0  0  0  0  0  0  0
   -4.5987   -0.3152    4.5241 C   0  0  0  0  0  0  0  0  0  0  0  0
   -2.5093    0.0224    4.4386 H   0  0  0  0  0  0  0  0  0  0  0  0
   -5.0159    0.3710    5.2757 H   0  0  0  0  0  0  0  0  0  0  0  0
   -5.3306   -0.4630    3.7163 H   0  0  0  0  0  0  0  0  0  0  0  0
   -4.3733   -1.2829    4.9962 H   0  0  0  0  0  0  0  0  0  0  0  0
  1  3  1  0  0  0  0
  1  7  1  0  0  0  0
  1  2  2  0  0  0  0
 23 25  1  0  0  0  0
 23 29  1  0  0  0  0
 23 24  2  0  0  0  0
 50 51  1  0  0  0  0
 51 59  1  0  0  0  0
 51 52  2  0  0  0  0
  8  9  1  0  0  0  0
  9 17  1  0  0  0  0
  9 10  2  0  0  0  0
 30 31  1  0  0  0  0
 31 39  1  0  0  0  0
 31 32  2  0  0  0  0
 40 41  1  0  0  0  0
 41 49  1  0  0  0  0
 41 42  2  0  0  0  0
 50 53  1  0  0  0  0
 30 33  1  0  0  0  0
 59 60  1  0  0  0  0
 17 18  1  0  0  0  0
  8 11  1  0  0  0  0
 11 12  1  0  0  0  0
 40 43  1  0  0  0  0
 43 44  1  0  0  0  0
 49 50  1  0  0  0  0
  7  8  1  0  0  0  0
 29 30  1  0  0  0  0
 39 40  1  0  0  0  0
 12 44  1  0  0  0  0
  3  4  1  0  0  0  0
  3  5  1  0  0  0  0
  3  6  1  0  0  0  0
 25 26  1  0  0  0  0
 25 27  1  0  0  0  0
 25 28  1  0  0  0  0
 53 56  1  0  0  0  0
 53 57  1  0  0  0  0
 53 58  1  0  0  0  0
 33 36  1  0  0  0  0
 33 37  1  0  0  0  0
 33 38  1  0  0  0  0
 60 62  1  0  0  0  0
 60 63  1  0  0  0  0
 60 64  1  0  0  0  0
 18 20  1  0  0  0  0
 18 21  1  0  0  0  0
 18 22  1  0  0  0  0
 11 15  1  0  0  0  0
 11 16  1  0  0  0  0
 43 47  1  0  0  0  0
 43 48  1  0  0  0  0
 50 55  1  0  0  0  0
  8 14  1  0  0  0  0
 30 35  1  0  0  0  0
 40 46  1  0  0  0  0
 59 61  1  0  0  0  0
 17 19  1  0  0  0  0
  7 13  1  0  0  0  0
 29 34  1  0  0  0  0
 49 54  1  0  0  0  0
 39 45  1  0  0  0  0
M  END
$$$$

  -OEChem-05262214473D

 64 63  0     1  0  0  0  0  0999 V2000
   -0.1049    7.6735   -6.6413 C   0  0  0  0  0  0  0  0  0  0  0  0
   -1.3172    7.8194   -6.7448 O   0  0  0  0  0  0  0  0  0  0  0  0
    0.7572    7.7956   -7.8538 C   0  0  0  0  0  0  0  0  0  0  0  0
    0.8961    6.8319   -8.3698 H   0  0  0  0  0  0  0  0  0  0  0  0
    0.3261    8.4712   -8.6099 H   0  0  0  0  0  0  0  0  0  0  0  0
    1.7750    8.1762   -7.6720 H   0  0  0  0  0  0  0  0  0  0  0  0
    0.5905    7.3975   -5.4767 N   0  0  0  0  0  0  0  0  0  0  0  0
   -0.0460    7.2413   -4.1934 C   0  0  2  0  0  0  0  0  0  0  0  0
    0.8788    7.7962   -3.1119 C   0  0  0  0  0  0  0  0  0  0  0  0
    2.0213    8.1866   -3.3435 O   0  0  0  0  0  0  0  0  0  0  0  0
   -0.4870    5.7988   -3.9334 C   0  0  0  0  0  0  0  0  0  0  0  0
    0.8931    4.6101   -3.8642 S   0  0  0  0  0  0  0  0  0  0  0  0
    1.6020    7.2999   -5.5295 H   0  0  0  0  0  0  0  0  0  0  0  0
   -0.9372    7.8804   -4.2268 H   0  0  0  0  0  0  0  0  0  0  0  0
   -1.0285    5.7275   -2.9845 H   0  0  0  0  0  0  0  0  0  0  0  0
   -1.1656    5.4673   -4.7268 H   0  0  0  0  0  0  0  0  0  0  0  0
    0.2872    7.7804   -1.8568 N   0  0  0  0  0  0  0  0  0  0  0  0
    0.9711    8.2321   -0.6676 C   0  0  0  0  0  0  0  0  0  0  0  0
   -0.6786    7.4805   -1.7630 H   0  0  0  0  0  0  0  0  0  0  0  0
    1.4638    7.3777   -0.1805 H   0  0  0  0  0  0  0  0  0  0  0  0
    1.7264    8.9832   -0.9420 H   0  0  0  0  0  0  0  0  0  0  0  0
    0.2438    8.6799    0.0257 H   0  0  0  0  0  0  0  0  0  0  0  0
   -6.7256    2.0330   -0.2766 C   0  0  0  0  0  0  0  0  0  0  0  0
   -7.1824    1.1039   -0.9322 O   0  0  0  0  0  0  0  0  0  0  0  0
   -7.5276    2.6077    0.8435 C   0  0  0  0  0  0  0  0  0  0  0  0
   -8.1775    3.4344    0.5145 H   0  0  0  0  0  0  0  0  0  0  0  0
   -8.2057    1.8676    1.2980 H   0  0  0  0  0  0  0  0  0  0  0  0
   -6.9411    3.0162    1.6819 H   0  0  0  0  0  0  0  0  0  0  0  0
   -5.4935    2.6382   -0.4627 N   0  0  0  0  0  0  0  0  0  0  0  0
   -4.5619    2.2388   -1.4845 C   0  0  2  0  0  0  0  0  0  0  0  0
   -3.1535    2.4674   -0.9521 C   0  0  0  0  0  0  0  0  0  0  0  0
   -2.8634    3.3945   -0.1987 O   0  0  0  0  0  0  0  0  0  0  0  0
   -4.7883    3.0138   -2.7732 C   0  0  0  0  0  0  0  0  0  0  0  0
   -5.2337    3.4049    0.1551 H   0  0  0  0  0  0  0  0  0  0  0  0
   -4.7192    1.1682   -1.6549 H   0  0  0  0  0  0  0  0  0  0  0  0
   -4.6352    4.0886   -2.6221 H   0  0  0  0  0  0  0  0  0  0  0  0
   -4.0976    2.6887   -3.5582 H   0  0  0  0  0  0  0  0  0  0  0  0
   -5.8111    2.8719   -3.1387 H   0  0  0  0  0  0  0  0  0  0  0  0
   -2.2466    1.5400   -1.4507 N   0  0  0  0  0  0  0  0  0  0  0  0
   -0.8424    1.5707   -1.1286 C   0  0  2  0  0  0  0  0  0  0  0  0
   -0.6786    1.4271    0.3831 C   0  0  0  0  0  0  0  0  0  0  0  0
    0.4180    1.4005    0.9383 O   0  0  0  0  0  0  0  0  0  0  0  0
   -0.1403    2.8047   -1.7007 C   0  0  0  0  0  0  0  0  0  0  0  0
   -0.1058    2.8510   -3.5088 S   0  0  0  0  0  0  0  0  0  0  0  0
   -2.5850    0.7815   -2.0381 H   0  0  0  0  0  0  0  0  0  0  0  0
   -0.4135    0.6749   -1.5946 H   0  0  0  0  0  0  0  0  0  0  0  0
   -0.6335    3.7205   -1.3590 H   0  0  0  0  0  0  0  0  0  0  0  0
    0.8976    2.8386   -1.3520 H   0  0  0  0  0  0  0  0  0  0  0  0
   -1.8982    1.3075    1.0343 N   0  0  0  0  0  0  0  0  0  0  0  0
   -2.0042    1.1356    2.4643 C   0  0  2  0  0  0  0  0  0  0  0  0
   -3.2317    0.2790    2.7452 C   0  0  0  0  0  0  0  0  0  0  0  0
   -4.2545    0.3290    2.0651 O   0  0  0  0  0  0  0  0  0  0  0  0
   -2.1017    2.4754    3.1770 C   0  0  0  0  0  0  0  0  0  0  0  0
   -2.7592    1.3836    0.5009 H   0  0  0  0  0  0  0  0  0  0  0  0
   -1.1038    0.6011    2.7862 H   0  0  0  0  0  0  0  0  0  0  0  0
   -2.9977    3.0255    2.8672 H   0  0  0  0  0  0  0  0  0  0  0  0
   -2.1532    2.3444    4.2629 H   0  0  0  0  0  0  0  0  0  0  0  0
   -1.2322    3.1018    2.9500 H   0  0  0  0  0  0  0  0  0  0  0  0
   -3.0667   -0.5163    3.8706 N   0  0  0  0  0  0  0  0  0  0  0  0
   -4.1055   -1.3874    4.3688 C   0  0  0  0  0  0  0  0  0  0  0  0
   -2.1713   -0.5240    4.3501 H   0  0  0  0  0  0  0  0  0  0  0  0
   -4.7003   -0.8543    5.1251 H   0  0  0  0  0  0  0  0  0  0  0  0
   -4.7581   -1.6924    3.5375 H   0  0  0  0  0  0  0  0  0  0  0  0
   -3.6493   -2.2793    4.8231 H   0  0  0  0  0  0  0  0  0  0  0  0
  1  3  1  0  0  0  0
  1  7  1  0  0  0  0
  1  2  2  0  0  0  0
 23 25  1  0  0  0  0
 23 29  1  0  0  0  0
 23 24  2  0  0  0  0
 50 51  1  0  0  0  0
 51 59  1  0  0  0  0
 51 52  2  0  0  0  0
  8  9  1  0  0  0  0
  9 17  1  0  0  0  0
  9 10  2  0  0  0  0
 30 31  1  0  0  0  0
 31 39  1  0  0  0  0
 31 32  2  0  0  0  0
 40 41  1  0  0  0  0
 41 49  1  0  0  0  0
 41 42  2  0  0  0  0
 50 53  1  0  0  0  0
 30 33  1  0  0  0  0
 59 60  1  0  0  0  0
 17 18  1  0  0  0  0
  8 11  1  0  0  0  0
 11 12  1  0  0  0  0
 40 43  1  0  0  0  0
 43 44  1  0  0  0  0
 49 50  1  0  0  0  0
  7  8  1  0  0  0  0
 29 30  1  0  0  0  0
 39 40  1  0  0  0  0
 12 44  1  0  0  0  0
  3  4  1  0  0  0  0
  3  5  1  0  0  0  0
  3  6  1  0  0  0  0
 25 26  1  0  0  0  0
 25 27  1  0  0  0  0
 25 28  1  0  0  0  0
 53 56  1  0  0  0  0
 53 57  1  0  0  0  0
 53 58  1  0  0  0  0
 33 36  1  0  0  0  0
 33 37  1  0  0  0  0
 33 38  1  0  0  0  0
 60 62  1  0  0  0  0
 60 63  1  0  0  0  0
 60 64  1  0  0  0  0
 18 20  1  0  0  0  0
 18 21  1  0  0  0  0
 18 22  1  0  0  0  0
 11 15  1  0  0  0  0
 11 16  1  0  0  0  0
 43 47  1  0  0  0  0
 43 48  1  0  0  0  0
 50 55  1  0  0  0  0
  8 14  1  0  0  0  0
 30 35  1  0  0  0  0
 40 46  1  0  0  0  0
 59 61  1  0  0  0  0
 17 19  1  0  0  0  0
  7 13  1  0  0  0  0
 29 34  1  0  0  0  0
 49 54  1  0  0  0  0
 39 45  1  0  0  0  0
M  END
$$$$

  -OEChem-05262214473D

 64 63  0     1  0  0  0  0  0999 V2000
   -0.1049    7.6735   -6.6413 C   0  0  0  0  0  0  0  0  0  0  0  0
   -1.3172    7.8194   -6.7448 O   0  0  0  0  0  0  0  0  0  0  0  0
    0.7572    7.7956   -7.8538 C   0  0  0  0  0  0  0  0  0  0  0  0
    0.8961    6.8319   -8.3698 H   0  0  0  0  0  0  0  0  0  0  0  0
    0.3261    8.4712   -8.6099 H   0  0  0  0  0  0  0  0  0  0  0  0
    1.7750    8.1762   -7.6720 H   0  0  0  0  0  0  0  0  0  0  0  0
    0.5905    7.3975   -5.4767 N   0  0  0  0  0  0  0  0  0  0  0  0
   -0.0460    7.2413   -4.1934 C   0  0  2  0  0  0  0  0  0  0  0  0
    0.8788    7.7962   -3.1119 C   0  0  0  0  0  0  0  0  0  0  0  0
    2.0213    8.1866   -3.3435 O   0  0  0  0  0  0  0  0  0  0  0  0
   -0.4870    5.7988   -3.9334 C   0  0  0  0  0  0  0  0  0  0  0  0
    0.8931    4.6101   -3.8642 S   0  0  0  0  0  0  0  0  0  0  0  0
    1.6020    7.2999   -5.5295 H   0  0  0  0  0  0  0  0  0  0  0  0
   -0.9372    7.8804   -4.2268 H   0  0  0  0  0  0  0  0  0  0  0  0
   -1.0285    5.7275   -2.9845 H   0  0  0  0  0  0  0  0  0  0  0  0
   -1.1656    5.4673   -4.7268 H   0  0  0  0  0  0  0  0  0  0  0  0
    0.2872    7.7804   -1.8568 N   0  0  0  0  0  0  0  0  0  0  0  0
    0.9711    8.2321   -0.6676 C   0  0  0  0  0  0  0  0  0  0  0  0
   -0.6786    7.4805   -1.7630 H   0  0  0  0  0  0  0  0  0  0  0  0
    1.4638    7.3777   -0.1805 H   0  0  0  0  0  0  0  0  0  0  0  0
    1.7264    8.9832   -0.9420 H   0  0  0  0  0  0  0  0  0  0  0  0
    0.2438    8.6799    0.0257 H   0  0  0  0  0  0  0  0  0  0  0  0
   -6.7256    2.0330   -0.2766 C   0  0  0  0  0  0  0  0  0  0  0  0
   -7.1824    1.1039   -0.9322 O   0  0  0  0  0  0  0  0  0  0  0  0
   -7.5276    2.6077    0.8435 C   0  0  0  0  0  0  0  0  0  0  0  0
   -8.1775    3.4344    0.5145 H   0  0  0  0  0  0  0  0  0  0  0  0
   -8.2057    1.8676    1.2980 H   0  0  0  0  0  0  0  0  0  0  0  0
   -6.9411    3.0162    1.6819 H   0  0  0  0  0  0  0  0  0  0  0  0
   -5.4935    2.6382   -0.4627 N   0  0  0  0  0  0  0  0  0  0  0  0
   -4.5619    2.2388   -1.4845 C   0  0  2  0  0  0  0  0  0  0  0  0
   -3.1535    2.4674   -0.9521 C   0  0  0  0  0  0  0  0  0  0  0  0
   -2.8634    3.3945   -0.1987 O   0  0  0  0  0  0  0  0  0  0  0  0
   -4.7883    3.0138   -2.7732 C   0  0  0  0  0  0  0  0  0  0  0  0
   -5.2337    3.4049    0.1551 H   0  0  0  0  0  0  0  0  0  0  0  0
   -4.7192    1.1682   -1.6549 H   0  0  0  0  0  0  0  0  0  0  0  0
   -4.6352    4.0886   -2.6221 H   0  0  0  0  0  0  0  0  0  0  0  0
   -4.0976    2.6887   -3.5582 H   0  0  0  0  0  0  0  0  0  0  0  0
   -5.8111    2.8719   -3.1387 H   0  0  0  0  0  0  0  0  0  0  0  0
   -2.2466    1.5400   -1.4507 N   0  0  0  0  0  0  0  0  0  0  0  0
   -0.8424    1.5707   -1.1286 C   0  0  2  0  0  0  0  0  0  0  0  0
   -0.6786    1.4271    0.3831 C   0  0  0  0  0  0  0  0  0  0  0  0
    0.3764    1.6648    0.9679 O   0  0  0  0  0  0  0  0  0  0  0  0
   -0.1403    2.8047   -1.7007 C   0  0  0  0  0  0  0  0  0  0  0  0
   -0.1058    2.8510   -3.5088 S   0  0  0  0  0  0  0  0  0  0  0  0
   -2.5850    0.7815   -2.0381 H   0  0  0  0  0  0  0  0  0  0  0  0
   -0.4135    0.6749   -1.5946 H   0  0  0  0  0  0  0  0  0  0  0  0
   -0.6335    3.7205   -1.3590 H   0  0  0  0  0  0  0  0  0  0  0  0
    0.8976    2.8386   -1.3520 H   0  0  0  0  0  0  0  0  0  0  0  0
   -1.8399    0.9794    0.9968 N   0  0  0  0  0  0  0  0  0  0  0  0
   -1.9279    0.7419    2.4186 C   0  0  2  0  0  0  0  0  0  0  0  0
   -2.9002   -0.4084    2.6440 C   0  0  0  0  0  0  0  0  0  0  0  0
   -3.8872   -0.6008    1.9370 O   0  0  0  0  0  0  0  0  0  0  0  0
   -2.3805    1.9896    3.1611 C   0  0  0  0  0  0  0  0  0  0  0  0
   -2.6804    0.8491    0.4416 H   0  0  0  0  0  0  0  0  0  0  0  0
   -0.9274    0.4459    2.7523 H   0  0  0  0  0  0  0  0  0  0  0  0
   -3.3811    2.3013    2.8400 H   0  0  0  0  0  0  0  0  0  0  0  0
   -2.4192    1.8162    4.2415 H   0  0  0  0  0  0  0  0  0  0  0  0
   -1.6963    2.8242    2.9739 H   0  0  0  0  0  0  0  0  0  0  0  0
   -2.5600   -1.1695    3.7536 N   0  0  0  0  0  0  0  0  0  0  0  0
   -3.3507   -2.2923    4.2010 C   0  0  0  0  0  0  0  0  0  0  0  0
   -1.7027   -0.9627    4.2576 H   0  0  0  0  0  0  0  0  0  0  0  0
   -4.0779   -1.9528    4.9533 H   0  0  0  0  0  0  0  0  0  0  0  0
   -3.8858   -2.7283    3.3445 H   0  0  0  0  0  0  0  0  0  0  0  0
   -2.6905   -3.0514    4.6459 H   0  0  0  0  0  0  0  0  0  0  0  0
  1  3  1  0  0  0  0
  1  7  1  0  0  0  0
  1  2  2  0  0  0  0
 23 25  1  0  0  0  0
 23 29  1  0  0  0  0
 23 24  2  0  0  0  0
 50 51  1  0  0  0  0
 51 59  1  0  0  0  0
 51 52  2  0  0  0  0
  8  9  1  0  0  0  0
  9 17  1  0  0  0  0
  9 10  2  0  0  0  0
 30 31  1  0  0  0  0
 31 39  1  0  0  0  0
 31 32  2  0  0  0  0
 40 41  1  0  0  0  0
 41 49  1  0  0  0  0
 41 42  2  0  0  0  0
 50 53  1  0  0  0  0
 30 33  1  0  0  0  0
 59 60  1  0  0  0  0
 17 18  1  0  0  0  0
  8 11  1  0  0  0  0
 11 12  1  0  0  0  0
 40 43  1  0  0  0  0
 43 44  1  0  0  0  0
 49 50  1  0  0  0  0
  7  8  1  0  0  0  0
 29 30  1  0  0  0  0
 39 40  1  0  0  0  0
 12 44  1  0  0  0  0
  3  4  1  0  0  0  0
  3  5  1  0  0  0  0
  3  6  1  0  0  0  0
 25 26  1  0  0  0  0
 25 27  1  0  0  0  0
 25 28  1  0  0  0  0
 53 56  1  0  0  0  0
 53 57  1  0  0  0  0
 53 58  1  0  0  0  0
 33 36  1  0  0  0  0
 33 37  1  0  0  0  0
 33 38  1  0  0  0  0
 60 62  1  0  0  0  0
 60 63  1  0  0  0  0
 60 64  1  0  0  0  0
 18 20  1  0  0  0  0
 18 21  1  0  0  0  0
 18 22  1  0  0  0  0
 11 15  1  0  0  0  0
 11 16  1  0  0  0  0
 43 47  1  0  0  0  0
 43 48  1  0  0  0  0
 50 55  1  0  0  0  0
  8 14  1  0  0  0  0
 30 35  1  0  0  0  0
 40 46  1  0  0  0  0
 59 61  1  0  0  0  0
 17 19  1  0  0  0  0
  7 13  1  0  0  0  0
 29 34  1  0  0  0  0
 49 54  1  0  0  0  0
 39 45  1  0  0  0  0
M  END
$$$$

  -OEChem-05262214473D

 64 63  0     1  0  0  0  0  0999 V2000
   -0.1049    7.6735   -6.6413 C   0  0  0  0  0  0  0  0  0  0  0  0
   -1.3172    7.8194   -6.7448 O   0  0  0  0  0  0  0  0  0  0  0  0
    0.7572    7.7956   -7.8538 C   0  0  0  0  0  0  0  0  0  0  0  0
    0.8961    6.8319   -8.3698 H   0  0  0  0  0  0  0  0  0  0  0  0
    0.3261    8.4712   -8.6099 H   0  0  0  0  0  0  0  0  0  0  0  0
    1.7750    8.1762   -7.6720 H   0  0  0  0  0  0  0  0  0  0  0  0
    0.5905    7.3975   -5.4767 N   0  0  0  0  0  0  0  0  0  0  0  0
   -0.0460    7.2413   -4.1934 C   0  0  2  0  0  0  0  0  0  0  0  0
    0.8788    7.7962   -3.1119 C   0  0  0  0  0  0  0  0  0  0  0  0
    2.0213    8.1866   -3.3435 O   0  0  0  0  0  0  0  0  0  0  0  0
   -0.4870    5.7988   -3.9334 C   0  0  0  0  0  0  0  0  0  0  0  0
    0.8931    4.6101   -3.8642 S   0  0  0  0  0  0  0  0  0  0  0  0
    1.6020    7.2999   -5.5295 H   0  0  0  0  0  0  0  0  0  0  0  0
   -0.9372    7.8804   -4.2268 H   0  0  0  0  0  0  0  0  0  0  0  0
   -1.0285    5.7275   -2.9845 H   0  0  0  0  0  0  0  0  0  0  0  0
   -1.1656    5.4673   -4.7268 H   0  0  0  0  0  0  0  0  0  0  0  0
    0.2872    7.7804   -1.8568 N   0  0  0  0  0  0  0  0  0  0  0  0
    0.9711    8.2321   -0.6676 C   0  0  0  0  0  0  0  0  0  0  0  0
   -0.6786    7.4805   -1.7630 H   0  0  0  0  0  0  0  0  0  0  0  0
    1.4638    7.3777   -0.1805 H   0  0  0  0  0  0  0  0  0  0  0  0
    1.7264    8.9832   -0.9420 H   0  0  0  0  0  0  0  0  0  0  0  0
    0.2438    8.6799    0.0257 H   0  0  0  0  0  0  0  0  0  0  0  0
   -6.7256    2.0330   -0.2766 C   0  0  0  0  0  0  0  0  0  0  0  0
   -7.1824    1.1039   -0.9322 O   0  0  0  0  0  0  0  0  0  0  0  0
   -7.5276    2.6077    0.8435 C   0  0  0  0  0  0  0  0  0  0  0  0
   -8.1775    3.4344    0.5145 H   0  0  0  0  0  0  0  0  0  0  0  0
   -8.2057    1.8676    1.2980 H   0  0  0  0  0  0  0  0  0  0  0  0
   -6.9411    3.0162    1.6819 H   0  0  0  0  0  0  0  0  0  0  0  0
   -5.4935    2.6382   -0.4627 N   0  0  0  0  0  0  0  0  0  0  0  0
   -4.5619    2.2388   -1.4845 C   0  0  2  0  0  0  0  0  0  0  0  0
   -3.1535    2.4674   -0.9521 C   0  0  0  0  0  0  0  0  0  0  0  0
   -2.8634    3.3945   -0.1987 O   0  0  0  0  0  0  0  0  0  0  0  0
   -4.7883    3.0138   -2.7732 C   0  0  0  0  0  0  0  0  0  0  0  0
   -5.2337    3.4049    0.1551 H   0  0  0  0  0  0  0  0  0  0  0  0
   -4.7192    1.1682   -1.6549 H   0  0  0  0  0  0  0  0  0  0  0  0
   -4.6352    4.0886   -2.6221 H   0  0  0  0  0  0  0  0  0  0  0  0
   -4.0976    2.6887   -3.5582 H   0  0  0  0  0  0  0  0  0  0  0  0
   -5.8111    2.8719   -3.1387 H   0  0  0  0  0  0  0  0  0  0  0  0
   -2.2466    1.5400   -1.4507 N   0  0  0  0  0  0  0  0  0  0  0  0
   -0.8424    1.5707   -1.1286 C   0  0  2  0  0  0  0  0  0  0  0  0
   -0.6786    1.4271    0.3831 C   0  0  0  0  0  0  0  0  0  0  0  0
    0.2678    1.9085    1.0028 O   0  0  0  0  0  0  0  0  0  0  0  0
   -0.1403    2.8047   -1.7007 C   0  0  0  0  0  0  0  0  0  0  0  0
   -0.1058    2.8510   -3.5088 S   0  0  0  0  0  0  0  0  0  0  0  0
   -2.5850    0.7815   -2.0381 H   0  0  0  0  0  0  0  0  0  0  0  0
   -0.4135    0.6749   -1.5946 H   0  0  0  0  0  0  0  0  0  0  0  0
   -0.6335    3.7205   -1.3590 H   0  0  0  0  0  0  0  0  0  0  0  0
    0.8976    2.8386   -1.3520 H   0  0  0  0  0  0  0  0  0  0  0  0
   -1.6986    0.6785    0.9529 N   0  0  0  0  0  0  0  0  0  0  0  0
   -1.7522    0.3825    2.3654 C   0  0  2  0  0  0  0  0  0  0  0  0
   -2.4013   -0.9847    2.5352 C   0  0  0  0  0  0  0  0  0  0  0  0
   -3.2911   -1.4012    1.7963 O   0  0  0  0  0  0  0  0  0  0  0  0
   -2.5250    1.4492    3.1254 C   0  0  0  0  0  0  0  0  0  0  0  0
   -2.4660    0.3547    0.3714 H   0  0  0  0  0  0  0  0  0  0  0  0
   -0.7164    0.3421    2.7196 H   0  0  0  0  0  0  0  0  0  0  0  0
   -3.5652    1.5044    2.7842 H   0  0  0  0  0  0  0  0  0  0  0  0
   -2.5403    1.2384    4.1998 H   0  0  0  0  0  0  0  0  0  0  0  0
   -2.0741    2.4365    2.9780 H   0  0  0  0  0  0  0  0  0  0  0  0
   -1.9004   -1.6674    3.6348 N   0  0  0  0  0  0  0  0  0  0  0  0
   -2.3857   -2.9684    4.0322 C   0  0  0  0  0  0  0  0  0  0  0  0
   -1.1355   -1.2638    4.1675 H   0  0  0  0  0  0  0  0  0  0  0  0
   -3.1910   -2.8496    4.7720 H   0  0  0  0  0  0  0  0  0  0  0  0
   -2.7732   -3.5000    3.1506 H   0  0  0  0  0  0  0  0  0  0  0  0
   -1.5622   -3.5467    4.4765 H   0  0  0  0  0  0  0  0  0  0  0  0
  1  3  1  0  0  0  0
  1  7  1  0  0  0  0
  1  2  2  0  0  0  0
 23 25  1  0  0  0  0
 23 29  1  0  0  0  0
 23 24  2  0  0  0  0
 50 51  1  0  0  0  0
 51 59  1  0  0  0  0
 51 52  2  0  0  0  0
  8  9  1  0  0  0  0
  9 17  1  0  0  0  0
  9 10  2  0  0  0  0
 30 31  1  0  0  0  0
 31 39  1  0  0  0  0
 31 32  2  0  0  0  0
 40 41  1  0  0  0  0
 41 49  1  0  0  0  0
 41 42  2  0  0  0  0
 50 53  1  0  0  0  0
 30 33  1  0  0  0  0
 59 60  1  0  0  0  0
 17 18  1  0  0  0  0
  8 11  1  0  0  0  0
 11 12  1  0  0  0  0
 40 43  1  0  0  0  0
 43 44  1  0  0  0  0
 49 50  1  0  0  0  0
  7  8  1  0  0  0  0
 29 30  1  0  0  0  0
 39 40  1  0  0  0  0
 12 44  1  0  0  0  0
  3  4  1  0  0  0  0
  3  5  1  0  0  0  0
  3  6  1  0  0  0  0
 25 26  1  0  0  0  0
 25 27  1  0  0  0  0
 25 28  1  0  0  0  0
 53 56  1  0  0  0  0
 53 57  1  0  0  0  0
 53 58  1  0  0  0  0
 33 36  1  0  0  0  0
 33 37  1  0  0  0  0
 33 38  1  0  0  0  0
 60 62  1  0  0  0  0
 60 63  1  0  0  0  0
 60 64  1  0  0  0  0
 18 20  1  0  0  0  0
 18 21  1  0  0  0  0
 18 22  1  0  0  0  0
 11 15  1  0  0  0  0
 11 16  1  0  0  0  0
 43 47  1  0  0  0  0
 43 48  1  0  0  0  0
 50 55  1  0  0  0  0
  8 14  1  0  0  0  0
 30 35  1  0  0  0  0
 40 46  1  0  0  0  0
 59 61  1  0  0  0  0
 17 19  1  0  0  0  0
  7 13  1  0  0  0  0
 29 34  1  0  0  0  0
 49 54  1  0  0  0  0
 39 45  1  0  0  0  0
M  END
$$$$

  -OEChem-05262214473D

 64 63  0     1  0  0  0  0  0999 V2000
   -0.1049    7.6735   -6.6413 C   0  0  0  0  0  0  0  0  0  0  0  0
   -1.3172    7.8194   -6.7448 O   0  0  0  0  0  0  0  0  0  0  0  0
    0.7572    7.7956   -7.8538 C   0  0  0  0  0  0  0  0  0  0  0  0
    0.8961    6.8319   -8.3698 H   0  0  0  0  0  0  0  0  0  0  0  0
    0.3261    8.4712   -8.6099 H   0  0  0  0  0  0  0  0  0  0  0  0
    1.7750    8.1762   -7.6720 H   0  0  0  0  0  0  0  0  0  0  0  0
    0.5905    7.3975   -5.4767 N   0  0  0  0  0  0  0  0  0  0  0  0
   -0.0460    7.2413   -4.1934 C   0  0  2  0  0  0  0  0  0  0  0  0
    0.8788    7.7962   -3.1119 C   0  0  0  0  0  0  0  0  0  0  0  0
    2.0213    8.1866   -3.3435 O   0  0  0  0  0  0  0  0  0  0  0  0
   -0.4870    5.7988   -3.9334 C   0  0  0  0  0  0  0  0  0  0  0  0
    0.8931    4.6101   -3.8642 S   0  0  0  0  0  0  0  0  0  0  0  0
    1.6020    7.2999   -5.5295 H   0  0  0  0  0  0  0  0  0  0  0  0
   -0.9372    7.8804   -4.2268 H   0  0  0  0  0  0  0  0  0  0  0  0
   -1.0285    5.7275   -2.9845 H   0  0  0  0  0  0  0  0  0  0  0  0
   -1.1656    5.4673   -4.7268 H   0  0  0  0  0  0  0  0  0  0  0  0
    0.2872    7.7804   -1.8568 N   0  0  0  0  0  0  0  0  0  0  0  0
    0.9711    8.2321   -0.6676 C   0  0  0  0  0  0  0  0  0  0  0  0
   -0.6786    7.4805   -1.7630 H   0  0  0  0  0  0  0  0  0  0  0  0
    1.4638    7.3777   -0.1805 H   0  0  0  0  0  0  0  0  0  0  0  0
    1.7264    8.9832   -0.9420 H   0  0  0  0  0  0  0  0  0  0  0  0
    0.2438    8.6799    0.0257 H   0  0  0  0  0  0  0  0  0  0  0  0
   -6.7256    2.0330   -0.2766 C   0  0  0  0  0  0  0  0  0  0  0  0
   -7.1824    1.1039   -0.9322 O   0  0  0  0  0  0  0  0  0  0  0  0
   -7.5276    2.6077    0.8435 C   0  0  0  0  0  0  0  0  0  0  0  0
   -8.1775    3.4344    0.5145 H   0  0  0  0  0  0  0  0  0  0  0  0
   -8.2057    1.8676    1.2980 H   0  0  0  0  0  0  0  0  0  0  0  0
   -6.9411    3.0162    1.6819 H   0  0  0  0  0  0  0  0  0  0  0  0
   -5.4935    2.6382   -0.4627 N   0  0  0  0  0  0  0  0  0  0  0  0
   -4.5619    2.2388   -1.4845 C   0  0  2  0  0  0  0  0  0  0  0  0
   -3.1535    2.4674   -0.9521 C   0  0  0  0  0  0  0  0  0  0  0  0
   -2.8634    3.3945   -0.1987 O   0  0  0  0  0  0  0  0  0  0  0  0
   -4.7883    3.0138   -2.7732 C   0  0  0  0  0  0  0  0  0  0  0  0
   -5.2337    3.4049    0.1551 H   0  0  0  0  0  0  0  0  0  0  0  0
   -4.7192    1.1682   -1.6549 H   0  0  0  0  0  0  0  0  0  0  0  0
   -4.6352    4.0886   -2.6221 H   0  0  0  0  0  0  0  0  0  0  0  0
   -4.0976    2.6887   -3.5582 H   0  0  0  0  0  0  0  0  0  0  0  0
   -5.8111    2.8719   -3.1387 H   0  0  0  0  0  0  0  0  0  0  0  0
   -2.2466    1.5400   -1.4507 N   0  0  0  0  0  0  0  0  0  0  0  0
   -0.8424    1.5707   -1.1286 C   0  0  2  0  0  0  0  0  0  0  0  0
   -0.6786    1.4271    0.3831 C   0  0  0  0  0  0  0  0  0  0  0  0
    0.0996    2.1152    1.0407 O   0  0  0  0  0  0  0  0  0  0  0  0
   -0.1403    2.8047   -1.7007 C   0  0  0  0  0  0  0  0  0  0  0  0
   -0.1058    2.8510   -3.5088 S   0  0  0  0  0  0  0  0  0  0  0  0
   -2.5850    0.7815   -2.0381 H   0  0  0  0  0  0  0  0  0  0  0  0
   -0.4135    0.6749   -1.5946 H   0  0  0  0  0  0  0  0  0  0  0  0
   -0.6335    3.7205   -1.3590 H   0  0  0  0  0  0  0  0  0  0  0  0
    0.8976    2.8386   -1.3520 H   0  0  0  0  0  0  0  0  0  0  0  0
   -1.4840    0.4252    0.9056 N   0  0  0  0  0  0  0  0  0  0  0  0
   -1.4891    0.0818    2.3084 C   0  0  2  0  0  0  0  0  0  0  0  0
   -1.7692   -1.4106    2.4262 C   0  0  0  0  0  0  0  0  0  0  0  0
   -2.5069   -2.0178    1.6528 O   0  0  0  0  0  0  0  0  0  0  0  0
   -2.5253    0.8913    3.0724 C   0  0  0  0  0  0  0  0  0  0  0  0
   -2.1304   -0.0659    0.2951 H   0  0  0  0  0  0  0  0  0  0  0  0
   -0.4852    0.2968    2.6903 H   0  0  0  0  0  0  0  0  0  0  0  0
   -3.5376    0.6891    2.7038 H   0  0  0  0  0  0  0  0  0  0  0  0
   -2.5083    0.6504    4.1405 H   0  0  0  0  0  0  0  0  0  0  0  0
   -2.3397    1.9652    2.9620 H   0  0  0  0  0  0  0  0  0  0  0  0
   -1.1328   -1.9761    3.5223 N   0  0  0  0  0  0  0  0  0  0  0  0
   -1.2762   -3.3695    3.8739 C   0  0  0  0  0  0  0  0  0  0  0  0
   -0.5082   -1.4069    4.0860 H   0  0  0  0  0  0  0  0  0  0  0  0
   -2.1003   -3.4837    4.5935 H   0  0  0  0  0  0  0  0  0  0  0  0
   -1.4961   -3.9551    2.9690 H   0  0  0  0  0  0  0  0  0  0  0  0
   -0.3414   -3.7314    4.3267 H   0  0  0  0  0  0  0  0  0  0  0  0
  1  3  1  0  0  0  0
  1  7  1  0  0  0  0
  1  2  2  0  0  0  0
 23 25  1  0  0  0  0
 23 29  1  0  0  0  0
 23 24  2  0  0  0  0
 50 51  1  0  0  0  0
 51 59  1  0  0  0  0
 51 52  2  0  0  0  0
  8  9  1  0  0  0  0
  9 17  1  0  0  0  0
  9 10  2  0  0  0  0
 30 31  1  0  0  0  0
 31 39  1  0  0  0  0
 31 32  2  0  0  0  0
 40 41  1  0  0  0  0
 41 49  1  0  0  0  0
 41 42  2  0  0  0  0
 50 53  1  0  0  0  0
 30 33  1  0  0  0  0
 59 60  1  0  0  0  0
 17 18  1  0  0  0  0
  8 11  1  0  0  0  0
 11 12  1  0  0  0  0
 40 43  1  0  0  0  0
 43 44  1  0  0  0  0
 49 50  1  0  0  0  0
  7  8  1  0  0  0  0
 29 30  1  0  0  0  0
 39 40  1  0  0  0  0
 12 44  1  0  0  0  0
  3  4  1  0  0  0  0
  3  5  1  0  0  0  0
  3  6  1  0  0  0  0
 25 26  1  0  0  0  0
 25 27  1  0  0  0  0
 25 28  1  0  0  0  0
 53 56  1  0  0  0  0
 53 57  1  0  0  0  0
 53 58  1  0  0  0  0
 33 36  1  0  0  0  0
 33 37  1  0  0  0  0
 33 38  1  0  0  0  0
 60 62  1  0  0  0  0
 60 63  1  0  0  0  0
 60 64  1  0  0  0  0
 18 20  1  0  0  0  0
 18 21  1  0  0  0  0
 18 22  1  0  0  0  0
 11 15  1  0  0  0  0
 11 16  1  0  0  0  0
 43 47  1  0  0  0  0
 43 48  1  0  0  0  0
 50 55  1  0  0  0  0
  8 14  1  0  0  0  0
 30 35  1  0  0  0  0
 40 46  1  0  0  0  0
 59 61  1  0  0  0  0
 17 19  1  0  0  0  0
  7 13  1  0  0  0  0
 29 34  1  0  0  0  0
 49 54  1  0  0  0  0
 39 45  1  0  0  0  0
M  END
$$$$

  -OEChem-05262214473D

 64 63  0     1  0  0  0  0  0999 V2000
   -0.1049    7.6735   -6.6413 C   0  0  0  0  0  0  0  0  0  0  0  0
   -1.3172    7.8194   -6.7448 O   0  0  0  0  0  0  0  0  0  0  0  0
    0.7572    7.7956   -7.8538 C   0  0  0  0  0  0  0  0  0  0  0  0
    0.8961    6.8319   -8.3698 H   0  0  0  0  0  0  0  0  0  0  0  0
    0.3261    8.4712   -8.6099 H   0  0  0  0  0  0  0  0  0  0  0  0
    1.7750    8.1762   -7.6720 H   0  0  0  0  0  0  0  0  0  0  0  0
    0.5905    7.3975   -5.4767 N   0  0  0  0  0  0  0  0  0  0  0  0
   -0.0460    7.2413   -4.1934 C   0  0  2  0  0  0  0  0  0  0  0  0
    0.8788    7.7962   -3.1119 C   0  0  0  0  0  0  0  0  0  0  0  0
    2.0213    8.1866   -3.3435 O   0  0  0  0  0  0  0  0  0  0  0  0
   -0.4870    5.7988   -3.9334 C   0  0  0  0  0  0  0  0  0  0  0  0
    0.8931    4.6101   -3.8642 S   0  0  0  0  0  0  0  0  0  0  0  0
    1.6020    7.2999   -5.5295 H   0  0  0  0  0  0  0  0  0  0  0  0
   -0.9372    7.8804   -4.2268 H   0  0  0  0  0  0  0  0  0  0  0  0
   -1.0285    5.7275   -2.9845 H   0  0  0  0  0  0  0  0  0  0  0  0
   -1.1656    5.4673   -4.7268 H   0  0  0  0  0  0  0  0  0  0  0  0
    0.2872    7.7804   -1.8568 N   0  0  0  0  0  0  0  0  0  0  0  0
    0.9711    8.2321   -0.6676 C   0  0  0  0  0  0  0  0  0  0  0  0
   -0.6786    7.4805   -1.7630 H   0  0  0  0  0  0  0  0  0  0  0  0
    1.4638    7.3777   -0.1805 H   0  0  0  0  0  0  0  0  0  0  0  0
    1.7264    8.9832   -0.9420 H   0  0  0  0  0  0  0  0  0  0  0  0
    0.2438    8.6799    0.0257 H   0  0  0  0  0  0  0  0  0  0  0  0
   -6.7256    2.0330   -0.2766 C   0  0  0  0  0  0  0  0  0  0  0  0
   -7.1824    1.1039   -0.9322 O   0  0  0  0  0  0  0  0  0  0  0  0
   -7.5276    2.6077    0.8435 C   0  0  0  0  0  0  0  0  0  0  0  0
   -8.1775    3.4344    0.5145 H   0  0  0  0  0  0  0  0  0  0  0  0
   -8.2057    1.8676    1.2980 H   0  0  0  0  0  0  0  0  0  0  0  0
   -6.9411    3.0162    1.6819 H   0  0  0  0  0  0  0  0  0  0  0  0
   -5.4935    2.6382   -0.4627 N   0  0  0  0  0  0  0  0  0  0  0  0
   -4.5619    2.2388   -1.4845 C   0  0  2  0  0  0  0  0  0  0  0  0
   -3.1535    2.4674   -0.9521 C   0  0  0  0  0  0  0  0  0  0  0  0
   -2.8634    3.3945   -0.1987 O   0  0  0  0  0  0  0  0  0  0  0  0
   -4.7883    3.0138   -2.7732 C   0  0  0  0  0  0  0  0  0  0  0  0
   -5.2337    3.4049    0.1551 H   0  0  0  0  0  0  0  0  0  0  0  0
   -4.7192    1.1682   -1.6549 H   0  0  0  0  0  0  0  0  0  0  0  0
   -4.6352    4.0886   -2.6221 H   0  0  0  0  0  0  0  0  0  0  0  0
   -4.0976    2.6887   -3.5582 H   0  0  0  0  0  0  0  0  0  0  0  0
   -5.8111    2.8719   -3.1387 H   0  0  0  0  0  0  0  0  0  0  0  0
   -2.2466    1.5400   -1.4507 N   0  0  0  0  0  0  0  0  0  0  0  0
   -0.8424    1.5707   -1.1286 C   0  0  2  0  0  0  0  0  0  0  0  0
   -0.6786    1.4271    0.3831 C   0  0  0  0  0  0  0  0  0  0  0  0
   -0.1168    2.2707    1.0789 O   0  0  0  0  0  0  0  0  0  0  0  0
   -0.1403    2.8047   -1.7007 C   0  0  0  0  0  0  0  0  0  0  0  0
   -0.1058    2.8510   -3.5088 S   0  0  0  0  0  0  0  0  0  0  0  0
   -2.5850    0.7815   -2.0381 H   0  0  0  0  0  0  0  0  0  0  0  0
   -0.4135    0.6749   -1.5946 H   0  0  0  0  0  0  0  0  0  0  0  0
   -0.6335    3.7205   -1.3590 H   0  0  0  0  0  0  0  0  0  0  0  0
    0.8976    2.8386   -1.3520 H   0  0  0  0  0  0  0  0  0  0  0  0
   -1.2107    0.2368    0.8580 N   0  0  0  0  0  0  0  0  0  0  0  0
   -1.1566   -0.1397    2.2513 C   0  0  2  0  0  0  0  0  0  0  0  0
   -1.0469   -1.6570    2.3246 C   0  0  0  0  0  0  0  0  0  0  0  0
   -1.5879   -2.4084    1.5161 O   0  0  0  0  0  0  0  0  0  0  0  0
   -2.3814    0.3538    3.0058 C   0  0  0  0  0  0  0  0  0  0  0  0
   -1.6967   -0.3842    0.2178 H   0  0  0  0  0  0  0  0  0  0  0  0
   -0.2495    0.3131    2.6663 H   0  0  0  0  0  0  0  0  0  0  0  0
   -3.3000   -0.0892    2.6041 H   0  0  0  0  0  0  0  0  0  0  0  0
   -2.3252    0.0923    4.0676 H   0  0  0  0  0  0  0  0  0  0  0  0
   -2.4752    1.4422    2.9271 H   0  0  0  0  0  0  0  0  0  0  0  0
   -0.3096   -2.0744    3.4237 N   0  0  0  0  0  0  0  0  0  0  0  0
   -0.0980   -3.4684    3.7368 C   0  0  0  0  0  0  0  0  0  0  0  0
    0.1363   -1.3822    4.0185 H   0  0  0  0  0  0  0  0  0  0  0  0
   -0.8799   -3.8118    4.4301 H   0  0  0  0  0  0  0  0  0  0  0  0
   -0.1415   -4.0625    2.8120 H   0  0  0  0  0  0  0  0  0  0  0  0
    0.8888   -3.5929    4.2065 H   0  0  0  0  0  0  0  0  0  0  0  0
  1  3  1  0  0  0  0
  1  7  1  0  0  0  0
  1  2  2  0  0  0  0
 23 25  1  0  0  0  0
 23 29  1  0  0  0  0
 23 24  2  0  0  0  0
 50 51  1  0  0  0  0
 51 59  1  0  0  0  0
 51 52  2  0  0  0  0
  8  9  1  0  0  0  0
  9 17  1  0  0  0  0
  9 10  2  0  0  0  0
 30 31  1  0  0  0  0
 31 39  1  0  0  0  0
 31 32  2  0  0  0  0
 40 41  1  0  0  0  0
 41 49  1  0  0  0  0
 41 42  2  0  0  0  0
 50 53  1  0  0  0  0
 30 33  1  0  0  0  0
 59 60  1  0  0  0  0
 17 18  1  0  0  0  0
  8 11  1  0  0  0  0
 11 12  1  0  0  0  0
 40 43  1  0  0  0  0
 43 44  1  0  0  0  0
 49 50  1  0  0  0  0
  7  8  1  0  0  0  0
 29 30  1  0  0  0  0
 39 40  1  0  0  0  0
 12 44  1  0  0  0  0
  3  4  1  0  0  0  0
  3  5  1  0  0  0  0
  3  6  1  0  0  0  0
 25 26  1  0  0  0  0
 25 27  1  0  0  0  0
 25 28  1  0  0  0  0
 53 56  1  0  0  0  0
 53 57  1  0  0  0  0
 53 58  1  0  0  0  0
 33 36  1  0  0  0  0
 33 37  1  0  0  0  0
 33 38  1  0  0  0  0
 60 62  1  0  0  0  0
 60 63  1  0  0  0  0
 60 64  1  0  0  0  0
 18 20  1  0  0  0  0
 18 21  1  0  0  0  0
 18 22  1  0  0  0  0
 11 15  1  0  0  0  0
 11 16  1  0  0  0  0
 43 47  1  0  0  0  0
 43 48  1  0  0  0  0
 50 55  1  0  0  0  0
  8 14  1  0  0  0  0
 30 35  1  0  0  0  0
 40 46  1  0  0  0  0
 59 61  1  0  0  0  0
 17 19  1  0  0  0  0
  7 13  1  0  0  0  0
 29 34  1  0  0  0  0
 49 54  1  0  0  0  0
 39 45  1  0  0  0  0
M  END
$$$$

  -OEChem-05262214473D

 64 63  0     1  0  0  0  0  0999 V2000
   -0.1049    7.6735   -6.6413 C   0  0  0  0  0  0  0  0  0  0  0  0
   -1.3172    7.8194   -6.7448 O   0  0  0  0  0  0  0  0  0  0  0  0
    0.7572    7.7956   -7.8538 C   0  0  0  0  0  0  0  0  0  0  0  0
    0.8961    6.8319   -8.3698 H   0  0  0  0  0  0  0  0  0  0  0  0
    0.3261    8.4712   -8.6099 H   0  0  0  0  0  0  0  0  0  0  0  0
    1.7750    8.1762   -7.6720 H   0  0  0  0  0  0  0  0  0  0  0  0
    0.5905    7.3975   -5.4767 N   0  0  0  0  0  0  0  0  0  0  0  0
   -0.0460    7.2413   -4.1934 C   0  0  2  0  0  0  0  0  0  0  0  0
    0.8788    7.7962   -3.1119 C   0  0  0  0  0  0  0  0  0  0  0  0
    2.0213    8.1866   -3.3435 O   0  0  0  0  0  0  0  0  0  0  0  0
   -0.4870    5.7988   -3.9334 C   0  0  0  0  0  0  0  0  0  0  0  0
    0.8931    4.6101   -3.8642 S   0  0  0  0  0  0  0  0  0  0  0  0
    1.6020    7.2999   -5.5295 H   0  0  0  0  0  0  0  0  0  0  0  0
   -0.9372    7.8804   -4.2268 H   0  0  0  0  0  0  0  0  0  0  0  0
   -1.0285    5.7275   -2.9845 H   0  0  0  0  0  0  0  0  0  0  0  0
   -1.1656    5.4673   -4.7268 H   0  0  0  0  0  0  0  0  0  0  0  0
    0.2872    7.7804   -1.8568 N   0  0  0  0  0  0  0  0  0  0  0  0
    0.9711    8.2321   -0.6676 C   0  0  0  0  0  0  0  0  0  0  0  0
   -0.6786    7.4805   -1.7630 H   0  0  0  0  0  0  0  0  0  0  0  0
    1.4638    7.3777   -0.1805 H   0  0  0  0  0  0  0  0  0  0  0  0
    1.7264    8.9832   -0.9420 H   0  0  0  0  0  0  0  0  0  0  0  0
    0.2438    8.6799    0.0257 H   0  0  0  0  0  0  0  0  0  0  0  0
   -6.7256    2.0330   -0.2766 C   0  0  0  0  0  0  0  0  0  0  0  0
   -7.1824    1.1039   -0.9322 O   0  0  0  0  0  0  0  0  0  0  0  0
   -7.5276    2.6077    0.8435 C   0  0  0  0  0  0  0  0  0  0  0  0
   -8.1775    3.4344    0.5145 H   0  0  0  0  0  0  0  0  0  0  0  0
   -8.2057    1.8676    1.2980 H   0  0  0  0  0  0  0  0  0  0  0  0
   -6.9411    3.0162    1.6819 H   0  0  0  0  0  0  0  0  0  0  0  0
   -5.4935    2.6382   -0.4627 N   0  0  0  0  0  0  0  0  0  0  0  0
   -4.5619    2.2388   -1.4845 C   0  0  2  0  0  0  0  0  0  0  0  0
   -3.1535    2.4674   -0.9521 C   0  0  0  0  0  0  0  0  0  0  0  0
   -2.8634    3.3945   -0.1987 O   0  0  0  0  0  0  0  0  0  0  0  0
   -4.7883    3.0138   -2.7732 C   0  0  0  0  0  0  0  0  0  0  0  0
   -5.2337    3.4049    0.1551 H   0  0  0  0  0  0  0  0  0  0  0  0
   -4.7192    1.1682   -1.6549 H   0  0  0  0  0  0  0  0  0  0  0  0
   -4.6352    4.0886   -2.6221 H   0  0  0  0  0  0  0  0  0  0  0  0
   -4.0976    2.6887   -3.5582 H   0  0  0  0  0  0  0  0  0  0  0  0
   -5.8111    2.8719   -3.1387 H   0  0  0  0  0  0  0  0  0  0  0  0
   -2.2466    1.5400   -1.4507 N   0  0  0  0  0  0  0  0  0  0  0  0
   -0.8424    1.5707   -1.1286 C   0  0  2  0  0  0  0  0  0  0  0  0
   -0.6786    1.4271    0.3831 C   0  0  0  0  0  0  0  0  0  0  0  0
   -0.3665    2.3644    1.1149 O   0  0  0  0  0  0  0  0  0  0  0  0
   -0.1403    2.8047   -1.7007 C   0  0  0  0  0  0  0  0  0  0  0  0
   -0.1058    2.8510   -3.5088 S   0  0  0  0  0  0  0  0  0  0  0  0
   -2.5850    0.7815   -2.0381 H   0  0  0  0  0  0  0  0  0  0  0  0
   -0.4135    0.6749   -1.5946 H   0  0  0  0  0  0  0  0  0  0  0  0
   -0.6335    3.7205   -1.3590 H   0  0  0  0  0  0  0  0  0  0  0  0
    0.8976    2.8386   -1.3520 H   0  0  0  0  0  0  0  0  0  0  0  0
   -0.8973    0.1262    0.8136 N   0  0  0  0  0  0  0  0  0  0  0  0
   -0.7773   -0.2669    2.1981 C   0  0  2  0  0  0  0  0  0  0  0  0
   -0.2836   -1.7071    2.2371 C   0  0  0  0  0  0  0  0  0  0  0  0
   -0.5969   -2.5466    1.3955 O   0  0  0  0  0  0  0  0  0  0  0  0
   -2.1030   -0.1267    2.9300 C   0  0  0  0  0  0  0  0  0  0  0  0
   -1.1944   -0.5784    0.1450 H   0  0  0  0  0  0  0  0  0  0  0  0
   -0.0255    0.3899    2.6493 H   0  0  0  0  0  0  0  0  0  0  0  0
   -2.8688   -0.7773    2.4920 H   0  0  0  0  0  0  0  0  0  0  0  0
   -2.0037   -0.3978    3.9862 H   0  0  0  0  0  0  0  0  0  0  0  0
   -2.4713    0.9034    2.8754 H   0  0  0  0  0  0  0  0  0  0  0  0
    0.5132   -1.9558    3.3458 N   0  0  0  0  0  0  0  0  0  0  0  0
    1.0687   -3.2583    3.6303 C   0  0  0  0  0  0  0  0  0  0  0  0
    0.7542   -1.1912    3.9696 H   0  0  0  0  0  0  0  0  0  0  0  0
    0.3869   -3.8116    4.2929 H   0  0  0  0  0  0  0  0  0  0  0  0
    1.1983   -3.8148    2.6903 H   0  0  0  0  0  0  0  0  0  0  0  0
    2.0446   -3.1407    4.1242 H   0  0  0  0  0  0  0  0  0  0  0  0
  1  3  1  0  0  0  0
  1  7  1  0  0  0  0
  1  2  2  0  0  0  0
 23 25  1  0  0  0  0
 23 29  1  0  0  0  0
 23 24  2  0  0  0  0
 50 51  1  0  0  0  0
 51 59  1  0  0  0  0
 51 52  2  0  0  0  0
  8  9  1  0  0  0  0
  9 17  1  0  0  0  0
  9 10  2  0  0  0  0
 30 31  1  0  0  0  0
 31 39  1  0  0  0  0
 31 32  2  0  0  0  0
 40 41  1  0  0  0  0
 41 49  1  0  0  0  0
 41 42  2  0  0  0  0
 50 53  1  0  0  0  0
 30 33  1  0  0  0  0
 59 60  1  0  0  0  0
 17 18  1  0  0  0  0
  8 11  1  0  0  0  0
 11 12  1  0  0  0  0
 40 43  1  0  0  0  0
 43 44  1  0  0  0  0
 49 50  1  0  0  0  0
  7  8  1  0  0  0  0
 29 30  1  0  0  0  0
 39 40  1  0  0  0  0
 12 44  1  0  0  0  0
  3  4  1  0  0  0  0
  3  5  1  0  0  0  0
  3  6  1  0  0  0  0
 25 26  1  0  0  0  0
 25 27  1  0  0  0  0
 25 28  1  0  0  0  0
 53 56  1  0  0  0  0
 53 57  1  0  0  0  0
 53 58  1  0  0  0  0
 33 36  1  0  0  0  0
 33 37  1  0  0  0  0
 33 38  1  0  0  0  0
 60 62  1  0  0  0  0
 60 63  1  0  0  0  0
 60 64  1  0  0  0  0
 18 20  1  0  0  0  0
 18 21  1  0  0  0  0
 18 22  1  0  0  0  0
 11 15  1  0  0  0  0
 11 16  1  0  0  0  0
 43 47  1  0  0  0  0
 43 48  1  0  0  0  0
 50 55  1  0  0  0  0
  8 14  1  0  0  0  0
 30 35  1  0  0  0  0
 40 46  1  0  0  0  0
 59 61  1  0  0  0  0
 17 19  1  0  0  0  0
  7 13  1  0  0  0  0
 29 34  1  0  0  0  0
 49 54  1  0  0  0  0
 39 45  1  0  0  0  0
M  END
$$$$

  -OEChem-05262214473D

 64 63  0     1  0  0  0  0  0999 V2000
   -0.1049    7.6735   -6.6413 C   0  0  0  0  0  0  0  0  0  0  0  0
   -1.3172    7.8194   -6.7448 O   0  0  0  0  0  0  0  0  0  0  0  0
    0.7572    7.7956   -7.8538 C   0  0  0  0  0  0  0  0  0  0  0  0
    0.8961    6.8319   -8.3698 H   0  0  0  0  0  0  0  0  0  0  0  0
    0.3261    8.4712   -8.6099 H   0  0  0  0  0  0  0  0  0  0  0  0
    1.7750    8.1762   -7.6720 H   0  0  0  0  0  0  0  0  0  0  0  0
    0.5905    7.3975   -5.4767 N   0  0  0  0  0  0  0  0  0  0  0  0
   -0.0460    7.2413   -4.1934 C   0  0  2  0  0  0  0  0  0  0  0  0
    0.8788    7.7962   -3.1119 C   0  0  0  0  0  0  0  0  0  0  0  0
    2.0213    8.1866   -3.3435 O   0  0  0  0  0  0  0  0  0  0  0  0
   -0.4870    5.7988   -3.9334 C   0  0  0  0  0  0  0  0  0  0  0  0
    0.8931    4.6101   -3.8642 S   0  0  0  0  0  0  0  0  0  0  0  0
    1.6020    7.2999   -5.5295 H   0  0  0  0  0  0  0  0  0  0  0  0
   -0.9372    7.8804   -4.2268 H   0  0  0  0  0  0  0  0  0  0  0  0
   -1.0285    5.7275   -2.9845 H   0  0  0  0  0  0  0  0  0  0  0  0
   -1.1656    5.4673   -4.7268 H   0  0  0  0  0  0  0  0  0  0  0  0
    0.2872    7.7804   -1.8568 N   0  0  0  0  0  0  0  0  0  0  0  0
    0.9711    8.2321   -0.6676 C   0  0  0  0  0  0  0  0  0  0  0  0
   -0.6786    7.4805   -1.7630 H   0  0  0  0  0  0  0  0  0  0  0  0
    1.4638    7.3777   -0.1805 H   0  0  0  0  0  0  0  0  0  0  0  0
    1.7264    8.9832   -0.9420 H   0  0  0  0  0  0  0  0  0  0  0  0
    0.2438    8.6799    0.0257 H   0  0  0  0  0  0  0  0  0  0  0  0
   -6.7256    2.0330   -0.2766 C   0  0  0  0  0  0  0  0  0  0  0  0
   -7.1824    1.1039   -0.9322 O   0  0  0  0  0  0  0  0  0  0  0  0
   -7.5276    2.6077    0.8435 C   0  0  0  0  0  0  0  0  0  0  0  0
   -8.1775    3.4344    0.5145 H   0  0  0  0  0  0  0  0  0  0  0  0
   -8.2057    1.8676    1.2980 H   0  0  0  0  0  0  0  0  0  0  0  0
   -6.9411    3.0162    1.6819 H   0  0  0  0  0  0  0  0  0  0  0  0
   -5.4935    2.6382   -0.4627 N   0  0  0  0  0  0  0  0  0  0  0  0
   -4.5619    2.2388   -1.4845 C   0  0  2  0  0  0  0  0  0  0  0  0
   -3.1535    2.4674   -0.9521 C   0  0  0  0  0  0  0  0  0  0  0  0
   -2.8634    3.3945   -0.1987 O   0  0  0  0  0  0  0  0  0  0  0  0
   -4.7883    3.0138   -2.7732 C   0  0  0  0  0  0  0  0  0  0  0  0
   -5.2337    3.4049    0.1551 H   0  0  0  0  0  0  0  0  0  0  0  0
   -4.7192    1.1682   -1.6549 H   0  0  0  0  0  0  0  0  0  0  0  0
   -4.6352    4.0886   -2.6221 H   0  0  0  0  0  0  0  0  0  0  0  0
   -4.0976    2.6887   -3.5582 H   0  0  0  0  0  0  0  0  0  0  0  0
   -5.8111    2.8719   -3.1387 H   0  0  0  0  0  0  0  0  0  0  0  0
   -2.2466    1.5400   -1.4507 N   0  0  0  0  0  0  0  0  0  0  0  0
   -0.8424    1.5707   -1.1286 C   0  0  2  0  0  0  0  0  0  0  0  0
   -0.6786    1.4271    0.3831 C   0  0  0  0  0  0  0  0  0  0  0  0
   -0.6326    2.3900    1.1462 O   0  0  0  0  0  0  0  0  0  0  0  0
   -0.1403    2.8047   -1.7007 C   0  0  0  0  0  0  0  0  0  0  0  0
   -0.1058    2.8510   -3.5088 S   0  0  0  0  0  0  0  0  0  0  0  0
   -2.5850    0.7815   -2.0381 H   0  0  0  0  0  0  0  0  0  0  0  0
   -0.4135    0.6749   -1.5946 H   0  0  0  0  0  0  0  0  0  0  0  0
   -0.6335    3.7205   -1.3590 H   0  0  0  0  0  0  0  0  0  0  0  0
    0.8976    2.8386   -1.3520 H   0  0  0  0  0  0  0  0  0  0  0  0
   -0.5651    0.1008    0.7752 N   0  0  0  0  0  0  0  0  0  0  0  0
   -0.3770   -0.2911    2.1524 C   0  0  2  0  0  0  0  0  0  0  0  0
    0.4687   -1.5575    2.1697 C   0  0  0  0  0  0  0  0  0  0  0  0
    0.3987   -2.4228    1.2994 O   0  0  0  0  0  0  0  0  0  0  0  0
   -1.7092   -0.5175    2.8502 C   0  0  0  0  0  0  0  0  0  0  0  0
   -0.6576   -0.6352    0.0814 H   0  0  0  0  0  0  0  0  0  0  0  0
    0.1716    0.5219    2.6405 H   0  0  0  0  0  0  0  0  0  0  0  0
   -2.2732   -1.3284    2.3751 H   0  0  0  0  0  0  0  0  0  0  0  0
   -1.5656   -0.7867    3.9018 H   0  0  0  0  0  0  0  0  0  0  0  0
   -2.3282    0.3854    2.8107 H   0  0  0  0  0  0  0  0  0  0  0  0
    1.2795   -1.6283    3.2939 N   0  0  0  0  0  0  0  0  0  0  0  0
    2.1445   -2.7535    3.5617 C   0  0  0  0  0  0  0  0  0  0  0  0
    1.3033   -0.8472    3.9428 H   0  0  0  0  0  0  0  0  0  0  0  0
    1.6138   -3.4830    4.1911 H   0  0  0  0  0  0  0  0  0  0  0  0
    2.4319   -3.2290    2.6123 H   0  0  0  0  0  0  0  0  0  0  0  0
    3.0471   -2.4055    4.0854 H   0  0  0  0  0  0  0  0  0  0  0  0
  1  3  1  0  0  0  0
  1  7  1  0  0  0  0
  1  2  2  0  0  0  0
 23 25  1  0  0  0  0
 23 29  1  0  0  0  0
 23 24  2  0  0  0  0
 50 51  1  0  0  0  0
 51 59  1  0  0  0  0
 51 52  2  0  0  0  0
  8  9  1  0  0  0  0
  9 17  1  0  0  0  0
  9 10  2  0  0  0  0
 30 31  1  0  0  0  0
 31 39  1  0  0  0  0
 31 32  2  0  0  0  0
 40 41  1  0  0  0  0
 41 49  1  0  0  0  0
 41 42  2  0  0  0  0
 50 53  1  0  0  0  0
 30 33  1  0  0  0  0
 59 60  1  0  0  0  0
 17 18  1  0  0  0  0
  8 11  1  0  0  0  0
 11 12  1  0  0  0  0
 40 43  1  0  0  0  0
 43 44  1  0  0  0  0
 49 50  1  0  0  0  0
  7  8  1  0  0  0  0
 29 30  1  0  0  0  0
 39 40  1  0  0  0  0
 12 44  1  0  0  0  0
  3  4  1  0  0  0  0
  3  5  1  0  0  0  0
  3  6  1  0  0  0  0
 25 26  1  0  0  0  0
 25 27  1  0  0  0  0
 25 28  1  0  0  0  0
 53 56  1  0  0  0  0
 53 57  1  0  0  0  0
 53 58  1  0  0  0  0
 33 36  1  0  0  0  0
 33 37  1  0  0  0  0
 33 38  1  0  0  0  0
 60 62  1  0  0  0  0
 60 63  1  0  0  0  0
 60 64  1  0  0  0  0
 18 20  1  0  0  0  0
 18 21  1  0  0  0  0
 18 22  1  0  0  0  0
 11 15  1  0  0  0  0
 11 16  1  0  0  0  0
 43 47  1  0  0  0  0
 43 48  1  0  0  0  0
 50 55  1  0  0  0  0
  8 14  1  0  0  0  0
 30 35  1  0  0  0  0
 40 46  1  0  0  0  0
 59 61  1  0  0  0  0
 17 19  1  0  0  0  0
  7 13  1  0  0  0  0
 29 34  1  0  0  0  0
 49 54  1  0  0  0  0
 39 45  1  0  0  0  0
M  END
$$$$

  -OEChem-05262214473D

 64 63  0     1  0  0  0  0  0999 V2000
   -0.1049    7.6735   -6.6413 C   0  0  0  0  0  0  0  0  0  0  0  0
   -1.3172    7.8194   -6.7448 O   0  0  0  0  0  0  0  0  0  0  0  0
    0.7572    7.7956   -7.8538 C   0  0  0  0  0  0  0  0  0  0  0  0
    0.8961    6.8319   -8.3698 H   0  0  0  0  0  0  0  0  0  0  0  0
    0.3261    8.4712   -8.6099 H   0  0  0  0  0  0  0  0  0  0  0  0
    1.7750    8.1762   -7.6720 H   0  0  0  0  0  0  0  0  0  0  0  0
    0.5905    7.3975   -5.4767 N   0  0  0  0  0  0  0  0  0  0  0  0
   -0.0460    7.2413   -4.1934 C   0  0  2  0  0  0  0  0  0  0  0  0
    0.8788    7.7962   -3.1119 C   0  0  0  0  0  0  0  0  0  0  0  0
    2.0213    8.1866   -3.3435 O   0  0  0  0  0  0  0  0  0  0  0  0
   -0.4870    5.7988   -3.9334 C   0  0  0  0  0  0  0  0  0  0  0  0
    0.8931    4.6101   -3.8642 S   0  0  0  0  0  0  0  0  0  0  0  0
    1.6020    7.2999   -5.5295 H   0  0  0  0  0  0  0  0  0  0  0  0
   -0.9372    7.8804   -4.2268 H   0  0  0  0  0  0  0  0  0  0  0  0
   -1.0285    5.7275   -2.9845 H   0  0  0  0  0  0  0  0  0  0  0  0
   -1.1656    5.4673   -4.7268 H   0  0  0  0  0  0  0  0  0  0  0  0
    0.2872    7.7804   -1.8568 N   0  0  0  0  0  0  0  0  0  0  0  0
    0.9711    8.2321   -0.6676 C   0  0  0  0  0  0  0  0  0  0  0  0
   -0.6786    7.4805   -1.7630 H   0  0  0  0  0  0  0  0  0  0  0  0
    1.4638    7.3777   -0.1805 H   0  0  0  0  0  0  0  0  0  0  0  0
    1.7264    8.9832   -0.9420 H   0  0  0  0  0  0  0  0  0  0  0  0
    0.2438    8.6799    0.0257 H   0  0  0  0  0  0  0  0  0  0  0  0
   -6.7256    2.0330   -0.2766 C   0  0  0  0  0  0  0  0  0  0  0  0
   -7.1824    1.1039   -0.9322 O   0  0  0  0  0  0  0  0  0  0  0  0
   -7.5276    2.6077    0.8435 C   0  0  0  0  0  0  0  0  0  0  0  0
   -8.1775    3.4344    0.5145 H   0  0  0  0  0  0  0  0  0  0  0  0
   -8.2057    1.8676    1.2980 H   0  0  0  0  0  0  0  0  0  0  0  0
   -6.9411    3.0162    1.6819 H   0  0  0  0  0  0  0  0  0  0  0  0
   -5.4935    2.6382   -0.4627 N   0  0  0  0  0  0  0  0  0  0  0  0
   -4.5619    2.2388   -1.4845 C   0  0  2  0  0  0  0  0  0  0  0  0
   -3.1535    2.4674   -0.9521 C   0  0  0  0  0  0  0  0  0  0  0  0
   -2.8634    3.3945   -0.1987 O   0  0  0  0  0  0  0  0  0  0  0  0
   -4.7883    3.0138   -2.7732 C   0  0  0  0  0  0  0  0  0  0  0  0
   -5.2337    3.4049    0.1551 H   0  0  0  0  0  0  0  0  0  0  0  0
   -4.7192    1.1682   -1.6549 H   0  0  0  0  0  0  0  0  0  0  0  0
   -4.6352    4.0886   -2.6221 H   0  0  0  0  0  0  0  0  0  0  0  0
   -4.0976    2.6887   -3.5582 H   0  0  0  0  0  0  0  0  0  0  0  0
   -5.8111    2.8719   -3.1387 H   0  0  0  0  0  0  0  0  0  0  0  0
   -2.2466    1.5400   -1.4507 N   0  0  0  0  0  0  0  0  0  0  0  0
   -0.8424    1.5707   -1.1286 C   0  0  2  0  0  0  0  0  0  0  0  0
   -0.6786    1.4271    0.3831 C   0  0  0  0  0  0  0  0  0  0  0  0
   -0.8970    2.3456    1.1706 O   0  0  0  0  0  0  0  0  0  0  0  0
   -0.1403    2.8047   -1.7007 C   0  0  0  0  0  0  0  0  0  0  0  0
   -0.1058    2.8510   -3.5088 S   0  0  0  0  0  0  0  0  0  0  0  0
   -2.5850    0.7815   -2.0381 H   0  0  0  0  0  0  0  0  0  0  0  0
   -0.4135    0.6749   -1.5946 H   0  0  0  0  0  0  0  0  0  0  0  0
   -0.6335    3.7205   -1.3590 H   0  0  0  0  0  0  0  0  0  0  0  0
    0.8976    2.8386   -1.3520 H   0  0  0  0  0  0  0  0  0  0  0  0
   -0.2369    0.1625    0.7454 N   0  0  0  0  0  0  0  0  0  0  0  0
    0.0169   -0.2106    2.1174 C   0  0  2  0  0  0  0  0  0  0  0  0
    1.1586   -1.2185    2.1272 C   0  0  0  0  0  0  0  0  0  0  0  0
    1.3310   -2.0455    1.2342 O   0  0  0  0  0  0  0  0  0  0  0  0
   -1.2268   -0.7918    2.7718 C   0  0  0  0  0  0  0  0  0  0  0  0
   -0.1230   -0.5509    0.0315 H   0  0  0  0  0  0  0  0  0  0  0  0
    0.3284    0.7001    2.6404 H   0  0  0  0  0  0  0  0  0  0  0  0
   -1.5539   -1.7049    2.2614 H   0  0  0  0  0  0  0  0  0  0  0  0
   -1.0407   -1.0477    3.8201 H   0  0  0  0  0  0  0  0  0  0  0  0
   -2.0557   -0.0766    2.7373 H   0  0  0  0  0  0  0  0  0  0  0  0
    1.9370   -1.1142    3.2715 N   0  0  0  0  0  0  0  0  0  0  0  0
    3.0560   -1.9884    3.5356 C   0  0  0  0  0  0  0  0  0  0  0  0
    1.7462   -0.3735    3.9398 H   0  0  0  0  0  0  0  0  0  0  0  0
    2.7173   -2.8485    4.1318 H   0  0  0  0  0  0  0  0  0  0  0  0
    3.4753   -2.3449    2.5832 H   0  0  0  0  0  0  0  0  0  0  0  0
    3.8280   -1.4374    4.0927 H   0  0  0  0  0  0  0  0  0  0  0  0
  1  3  1  0  0  0  0
  1  7  1  0  0  0  0
  1  2  2  0  0  0  0
 23 25  1  0  0  0  0
 23 29  1  0  0  0  0
 23 24  2  0  0  0  0
 50 51  1  0  0  0  0
 51 59  1  0  0  0  0
 51 52  2  0  0  0  0
  8  9  1  0  0  0  0
  9 17  1  0  0  0  0
  9 10  2  0  0  0  0
 30 31  1  0  0  0  0
 31 39  1  0  0  0  0
 31 32  2  0  0  0  0
 40 41  1  0  0  0  0
 41 49  1  0  0  0  0
 41 42  2  0  0  0  0
 50 53  1  0  0  0  0
 30 33  1  0  0  0  0
 59 60  1  0  0  0  0
 17 18  1  0  0  0  0
  8 11  1  0  0  0  0
 11 12  1  0  0  0  0
 40 43  1  0  0  0  0
 43 44  1  0  0  0  0
 49 50  1  0  0  0  0
  7  8  1  0  0  0  0
 29 30  1  0  0  0  0
 39 40  1  0  0  0  0
 12 44  1  0  0  0  0
  3  4  1  0  0  0  0
  3  5  1  0  0  0  0
  3  6  1  0  0  0  0
 25 26  1  0  0  0  0
 25 27  1  0  0  0  0
 25 28  1  0  0  0  0
 53 56  1  0  0  0  0
 53 57  1  0  0  0  0
 53 58  1  0  0  0  0
 33 36  1  0  0  0  0
 33 37  1  0  0  0  0
 33 38  1  0  0  0  0
 60 62  1  0  0  0  0
 60 63  1  0  0  0  0
 60 64  1  0  0  0  0
 18 20  1  0  0  0  0
 18 21  1  0  0  0  0
 18 22  1  0  0  0  0
 11 15  1  0  0  0  0
 11 16  1  0  0  0  0
 43 47  1  0  0  0  0
 43 48  1  0  0  0  0
 50 55  1  0  0  0  0
  8 14  1  0  0  0  0
 30 35  1  0  0  0  0
 40 46  1  0  0  0  0
 59 61  1  0  0  0  0
 17 19  1  0  0  0  0
  7 13  1  0  0  0  0
 29 34  1  0  0  0  0
 49 54  1  0  0  0  0
 39 45  1  0  0  0  0
M  END
$$$$

  -OEChem-05262214473D

 64 63  0     1  0  0  0  0  0999 V2000
   -0.1049    7.6735   -6.6413 C   0  0  0  0  0  0  0  0  0  0  0  0
   -1.3172    7.8194   -6.7448 O   0  0  0  0  0  0  0  0  0  0  0  0
    0.7572    7.7956   -7.8538 C   0  0  0  0  0  0  0  0  0  0  0  0
    0.8961    6.8319   -8.3698 H   0  0  0  0  0  0  0  0  0  0  0  0
    0.3261    8.4712   -8.6099 H   0  0  0  0  0  0  0  0  0  0  0  0
    1.7750    8.1762   -7.6720 H   0  0  0  0  0  0  0  0  0  0  0  0
    0.5905    7.3975   -5.4767 N   0  0  0  0  0  0  0  0  0  0  0  0
   -0.0460    7.2413   -4.1934 C   0  0  2  0  0  0  0  0  0  0  0  0
    0.8788    7.7962   -3.1119 C   0  0  0  0  0  0  0  0  0  0  0  0
    2.0213    8.1866   -3.3435 O   0  0  0  0  0  0  0  0  0  0  0  0
   -0.4870    5.7988   -3.9334 C   0  0  0  0  0  0  0  0  0  0  0  0
    0.8931    4.6101   -3.8642 S   0  0  0  0  0  0  0  0  0  0  0  0
    1.6020    7.2999   -5.5295 H   0  0  0  0  0  0  0  0  0  0  0  0
   -0.9372    7.8804   -4.2268 H   0  0  0  0  0  0  0  0  0  0  0  0
   -1.0285    5.7275   -2.9845 H   0  0  0  0  0  0  0  0  0  0  0  0
   -1.1656    5.4673   -4.7268 H   0  0  0  0  0  0  0  0  0  0  0  0
    0.2872    7.7804   -1.8568 N   0  0  0  0  0  0  0  0  0  0  0  0
    0.9711    8.2321   -0.6676 C   0  0  0  0  0  0  0  0  0  0  0  0
   -0.6786    7.4805   -1.7630 H   0  0  0  0  0  0  0  0  0  0  0  0
    1.4638    7.3777   -0.1805 H   0  0  0  0  0  0  0  0  0  0  0  0
    1.7264    8.9832   -0.9420 H   0  0  0  0  0  0  0  0  0  0  0  0
    0.2438    8.6799    0.0257 H   0  0  0  0  0  0  0  0  0  0  0  0
   -6.7256    2.0330   -0.2766 C   0  0  0  0  0  0  0  0  0  0  0  0
   -7.1824    1.1039   -0.9322 O   0  0  0  0  0  0  0  0  0  0  0  0
   -7.5276    2.6077    0.8435 C   0  0  0  0  0  0  0  0  0  0  0  0
   -8.1775    3.4344    0.5145 H   0  0  0  0  0  0  0  0  0  0  0  0
   -8.2057    1.8676    1.2980 H   0  0  0  0  0  0  0  0  0  0  0  0
   -6.9411    3.0162    1.6819 H   0  0  0  0  0  0  0  0  0  0  0  0
   -5.4935    2.6382   -0.4627 N   0  0  0  0  0  0  0  0  0  0  0  0
   -4.5619    2.2388   -1.4845 C   0  0  2  0  0  0  0  0  0  0  0  0
   -3.1535    2.4674   -0.9521 C   0  0  0  0  0  0  0  0  0  0  0  0
   -2.8634    3.3945   -0.1987 O   0  0  0  0  0  0  0  0  0  0  0  0
   -4.7883    3.0138   -2.7732 C   0  0  0  0  0  0  0  0  0  0  0  0
   -5.2337    3.4049    0.1551 H   0  0  0  0  0  0  0  0  0  0  0  0
   -4.7192    1.1682   -1.6549 H   0  0  0  0  0  0  0  0  0  0  0  0
   -4.6352    4.0886   -2.6221 H   0  0  0  0  0  0  0  0  0  0  0  0
   -4.0976    2.6887   -3.5582 H   0  0  0  0  0  0  0  0  0  0  0  0
   -5.8111    2.8719   -3.1387 H   0  0  0  0  0  0  0  0  0  0  0  0
   -2.2466    1.5400   -1.4507 N   0  0  0  0  0  0  0  0  0  0  0  0
   -0.8424    1.5707   -1.1286 C   0  0  2  0  0  0  0  0  0  0  0  0
   -0.6786    1.4271    0.3831 C   0  0  0  0  0  0  0  0  0  0  0  0
   -1.1415    2.2344    1.1865 O   0  0  0  0  0  0  0  0  0  0  0  0
   -0.1403    2.8047   -1.7007 C   0  0  0  0  0  0  0  0  0  0  0  0
   -0.1058    2.8510   -3.5088 S   0  0  0  0  0  0  0  0  0  0  0  0
   -2.5850    0.7815   -2.0381 H   0  0  0  0  0  0  0  0  0  0  0  0
   -0.4135    0.6749   -1.5946 H   0  0  0  0  0  0  0  0  0  0  0  0
   -0.6335    3.7205   -1.3590 H   0  0  0  0  0  0  0  0  0  0  0  0
    0.8976    2.8386   -1.3520 H   0  0  0  0  0  0  0  0  0  0  0  0
    0.0651    0.3070    0.7264 N   0  0  0  0  0  0  0  0  0  0  0  0
    0.3776   -0.0310    2.0953 C   0  0  2  0  0  0  0  0  0  0  0  0
    1.7393   -0.7131    2.1123 C   0  0  0  0  0  0  0  0  0  0  0  0
    2.1365   -1.4404    1.2044 O   0  0  0  0  0  0  0  0  0  0  0  0
   -0.6886   -0.9310    2.7003 C   0  0  0  0  0  0  0  0  0  0  0  0
    0.3729   -0.3311   -0.0014 H   0  0  0  0  0  0  0  0  0  0  0  0
    0.4342    0.9125    2.6491 H   0  0  0  0  0  0  0  0  0  0  0  0
   -0.7599   -1.8812    2.1586 H   0  0  0  0  0  0  0  0  0  0  0  0
   -0.4649   -1.1631    3.7468 H   0  0  0  0  0  0  0  0  0  0  0  0
   -1.6724   -0.4509    2.6602 H   0  0  0  0  0  0  0  0  0  0  0  0
    2.4410   -0.4486    3.2801 N   0  0  0  0  0  0  0  0  0  0  0  0
    3.7410   -1.0151    3.5538 C   0  0  0  0  0  0  0  0  0  0  0  0
    2.0527    0.1976    3.9608 H   0  0  0  0  0  0  0  0  0  0  0  0
    3.6220   -1.9513    4.1189 H   0  0  0  0  0  0  0  0  0  0  0  0
    4.2574   -1.2229    2.6050 H   0  0  0  0  0  0  0  0  0  0  0  0
    4.3342   -0.3025    4.1457 H   0  0  0  0  0  0  0  0  0  0  0  0
  1  3  1  0  0  0  0
  1  7  1  0  0  0  0
  1  2  2  0  0  0  0
 23 25  1  0  0  0  0
 23 29  1  0  0  0  0
 23 24  2  0  0  0  0
 50 51  1  0  0  0  0
 51 59  1  0  0  0  0
 51 52  2  0  0  0  0
  8  9  1  0  0  0  0
  9 17  1  0  0  0  0
  9 10  2  0  0  0  0
 30 31  1  0  0  0  0
 31 39  1  0  0  0  0
 31 32  2  0  0  0  0
 40 41  1  0  0  0  0
 41 49  1  0  0  0  0
 41 42  2  0  0  0  0
 50 53  1  0  0  0  0
 30 33  1  0  0  0  0
 59 60  1  0  0  0  0
 17 18  1  0  0  0  0
  8 11  1  0  0  0  0
 11 12  1  0  0  0  0
 40 43  1  0  0  0  0
 43 44  1  0  0  0  0
 49 50  1  0  0  0  0
  7  8  1  0  0  0  0
 29 30  1  0  0  0  0
 39 40  1  0  0  0  0
 12 44  1  0  0  0  0
  3  4  1  0  0  0  0
  3  5  1  0  0  0  0
  3  6  1  0  0  0  0
 25 26  1  0  0  0  0
 25 27  1  0  0  0  0
 25 28  1  0  0  0  0
 53 56  1  0  0  0  0
 53 57  1  0  0  0  0
 53 58  1  0  0  0  0
 33 36  1  0  0  0  0
 33 37  1  0  0  0  0
 33 38  1  0  0  0  0
 60 62  1  0  0  0  0
 60 63  1  0  0  0  0
 60 64  1  0  0  0  0
 18 20  1  0  0  0  0
 18 21  1  0  0  0  0
 18 22  1  0  0  0  0
 11 15  1  0  0  0  0
 11 16  1  0  0  0  0
 43 47  1  0  0  0  0
 43 48  1  0  0  0  0
 50 55  1  0  0  0  0
  8 14  1  0  0  0  0
 30 35  1  0  0  0  0
 40 46  1  0  0  0  0
 59 61  1  0  0  0  0
 17 19  1  0  0  0  0
  7 13  1  0  0  0  0
 29 34  1  0  0  0  0
 49 54  1  0  0  0  0
 39 45  1  0  0  0  0
M  END
$$$$

  -OEChem-05262214473D

 64 63  0     1  0  0  0  0  0999 V2000
   -0.1049    7.6735   -6.6413 C   0  0  0  0  0  0  0  0  0  0  0  0
   -1.3172    7.8194   -6.7448 O   0  0  0  0  0  0  0  0  0  0  0  0
    0.7572    7.7956   -7.8538 C   0  0  0  0  0  0  0  0  0  0  0  0
    0.8961    6.8319   -8.3698 H   0  0  0  0  0  0  0  0  0  0  0  0
    0.3261    8.4712   -8.6099 H   0  0  0  0  0  0  0  0  0  0  0  0
    1.7750    8.1762   -7.6720 H   0  0  0  0  0  0  0  0  0  0  0  0
    0.5905    7.3975   -5.4767 N   0  0  0  0  0  0  0  0  0  0  0  0
   -0.0460    7.2413   -4.1934 C   0  0  2  0  0  0  0  0  0  0  0  0
    0.8788    7.7962   -3.1119 C   0  0  0  0  0  0  0  0  0  0  0  0
    2.0213    8.1866   -3.3435 O   0  0  0  0  0  0  0  0  0  0  0  0
   -0.4870    5.7988   -3.9334 C   0  0  0  0  0  0  0  0  0  0  0  0
    0.8931    4.6101   -3.8642 S   0  0  0  0  0  0  0  0  0  0  0  0
    1.6020    7.2999   -5.5295 H   0  0  0  0  0  0  0  0  0  0  0  0
   -0.9372    7.8804   -4.2268 H   0  0  0  0  0  0  0  0  0  0  0  0
   -1.0285    5.7275   -2.9845 H   0  0  0  0  0  0  0  0  0  0  0  0
   -1.1656    5.4673   -4.7268 H   0  0  0  0  0  0  0  0  0  0  0  0
    0.2872    7.7804   -1.8568 N   0  0  0  0  0  0  0  0  0  0  0  0
    0.9711    8.2321   -0.6676 C   0  0  0  0  0  0  0  0  0  0  0  0
   -0.6786    7.4805   -1.7630 H   0  0  0  0  0  0  0  0  0  0  0  0
    1.4638    7.3777   -0.1805 H   0  0  0  0  0  0  0  0  0  0  0  0
    1.7264    8.9832   -0.9420 H   0  0  0  0  0  0  0  0  0  0  0  0
    0.2438    8.6799    0.0257 H   0  0  0  0  0  0  0  0  0  0  0  0
   -6.7256    2.0330   -0.2766 C   0  0  0  0  0  0  0  0  0  0  0  0
   -7.1824    1.1039   -0.9322 O   0  0  0  0  0  0  0  0  0  0  0  0
   -7.5276    2.6077    0.8435 C   0  0  0  0  0  0  0  0  0  0  0  0
   -8.1775    3.4344    0.5145 H   0  0  0  0  0  0  0  0  0  0  0  0
   -8.2057    1.8676    1.2980 H   0  0  0  0  0  0  0  0  0  0  0  0
   -6.9411    3.0162    1.6819 H   0  0  0  0  0  0  0  0  0  0  0  0
   -5.4935    2.6382   -0.4627 N   0  0  0  0  0  0  0  0  0  0  0  0
   -4.5619    2.2388   -1.4845 C   0  0  2  0  0  0  0  0  0  0  0  0
   -3.1535    2.4674   -0.9521 C   0  0  0  0  0  0  0  0  0  0  0  0
   -2.8634    3.3945   -0.1987 O   0  0  0  0  0  0  0  0  0  0  0  0
   -4.7883    3.0138   -2.7732 C   0  0  0  0  0  0  0  0  0  0  0  0
   -5.2337    3.4049    0.1551 H   0  0  0  0  0  0  0  0  0  0  0  0
   -4.7192    1.1682   -1.6549 H   0  0  0  0  0  0  0  0  0  0  0  0
   -4.6352    4.0886   -2.6221 H   0  0  0  0  0  0  0  0  0  0  0  0
   -4.0976    2.6887   -3.5582 H   0  0  0  0  0  0  0  0  0  0  0  0
   -5.8111    2.8719   -3.1387 H   0  0  0  0  0  0  0  0  0  0  0  0
   -2.2466    1.5400   -1.4507 N   0  0  0  0  0  0  0  0  0  0  0  0
   -0.8424    1.5707   -1.1286 C   0  0  2  0  0  0  0  0  0  0  0  0
   -0.6786    1.4271    0.3831 C   0  0  0  0  0  0  0  0  0  0  0  0
   -1.3496    2.0638    1.1929 O   0  0  0  0  0  0  0  0  0  0  0  0
   -0.1403    2.8047   -1.7007 C   0  0  0  0  0  0  0  0  0  0  0  0
   -0.1058    2.8510   -3.5088 S   0  0  0  0  0  0  0  0  0  0  0  0
   -2.5850    0.7815   -2.0381 H   0  0  0  0  0  0  0  0  0  0  0  0
   -0.4135    0.6749   -1.5946 H   0  0  0  0  0  0  0  0  0  0  0  0
   -0.6335    3.7205   -1.3590 H   0  0  0  0  0  0  0  0  0  0  0  0
    0.8976    2.8386   -1.3520 H   0  0  0  0  0  0  0  0  0  0  0  0
    0.3203    0.5245    0.7195 N   0  0  0  0  0  0  0  0  0  0  0  0
    0.6806    0.2355    2.0878 C   0  0  2  0  0  0  0  0  0  0  0  0
    2.1710   -0.0757    2.1260 C   0  0  0  0  0  0  0  0  0  0  0  0
    2.7602   -0.6488    1.2120 O   0  0  0  0  0  0  0  0  0  0  0  0
   -0.1314   -0.9256    2.6404 C   0  0  0  0  0  0  0  0  0  0  0  0
    0.7965    0.0092   -0.0150 H   0  0  0  0  0  0  0  0  0  0  0  0
    0.4818    1.1444    2.6660 H   0  0  0  0  0  0  0  0  0  0  0  0
    0.0546   -1.8452    2.0737 H   0  0  0  0  0  0  0  0  0  0  0  0
    0.1226   -1.1250    3.6867 H   0  0  0  0  0  0  0  0  0  0  0  0
   -1.2043   -0.7122    2.5847 H   0  0  0  0  0  0  0  0  0  0  0  0
    2.7570    0.3232    3.3191 N   0  0  0  0  0  0  0  0  0  0  0  0
    4.1529    0.0999    3.6150 C   0  0  0  0  0  0  0  0  0  0  0  0
    2.2020    0.8272    4.0045 H   0  0  0  0  0  0  0  0  0  0  0  0
    4.2664   -0.8526    4.1535 H   0  0  0  0  0  0  0  0  0  0  0  0
    4.7249    0.0606    2.6763 H   0  0  0  0  0  0  0  0  0  0  0  0
    4.5311    0.9219    4.2406 H   0  0  0  0  0  0  0  0  0  0  0  0
  1  3  1  0  0  0  0
  1  7  1  0  0  0  0
  1  2  2  0  0  0  0
 23 25  1  0  0  0  0
 23 29  1  0  0  0  0
 23 24  2  0  0  0  0
 50 51  1  0  0  0  0
 51 59  1  0  0  0  0
 51 52  2  0  0  0  0
  8  9  1  0  0  0  0
  9 17  1  0  0  0  0
  9 10  2  0  0  0  0
 30 31  1  0  0  0  0
 31 39  1  0  0  0  0
 31 32  2  0  0  0  0
 40 41  1  0  0  0  0
 41 49  1  0  0  0  0
 41 42  2  0  0  0  0
 50 53  1  0  0  0  0
 30 33  1  0  0  0  0
 59 60  1  0  0  0  0
 17 18  1  0  0  0  0
  8 11  1  0  0  0  0
 11 12  1  0  0  0  0
 40 43  1  0  0  0  0
 43 44  1  0  0  0  0
 49 50  1  0  0  0  0
  7  8  1  0  0  0  0
 29 30  1  0  0  0  0
 39 40  1  0  0  0  0
 12 44  1  0  0  0  0
  3  4  1  0  0  0  0
  3  5  1  0  0  0  0
  3  6  1  0  0  0  0
 25 26  1  0  0  0  0
 25 27  1  0  0  0  0
 25 28  1  0  0  0  0
 53 56  1  0  0  0  0
 53 57  1  0  0  0  0
 53 58  1  0  0  0  0
 33 36  1  0  0  0  0
 33 37  1  0  0  0  0
 33 38  1  0  0  0  0
 60 62  1  0  0  0  0
 60 63  1  0  0  0  0
 60 64  1  0  0  0  0
 18 20  1  0  0  0  0
 18 21  1  0  0  0  0
 18 22  1  0  0  0  0
 11 15  1  0  0  0  0
 11 16  1  0  0  0  0
 43 47  1  0  0  0  0
 43 48  1  0  0  0  0
 50 55  1  0  0  0  0
  8 14  1  0  0  0  0
 30 35  1  0  0  0  0
 40 46  1  0  0  0  0
 59 61  1  0  0  0  0
 17 19  1  0  0  0  0
  7 13  1  0  0  0  0
 29 34  1  0  0  0  0
 49 54  1  0  0  0  0
 39 45  1  0  0  0  0
M  END
$$$$

  -OEChem-05262214473D

 64 63  0     1  0  0  0  0  0999 V2000
   -0.1049    7.6735   -6.6413 C   0  0  0  0  0  0  0  0  0  0  0  0
   -1.3172    7.8194   -6.7448 O   0  0  0  0  0  0  0  0  0  0  0  0
    0.7572    7.7956   -7.8538 C   0  0  0  0  0  0  0  0  0  0  0  0
    0.8961    6.8319   -8.3698 H   0  0  0  0  0  0  0  0  0  0  0  0
    0.3261    8.4712   -8.6099 H   0  0  0  0  0  0  0  0  0  0  0  0
    1.7750    8.1762   -7.6720 H   0  0  0  0  0  0  0  0  0  0  0  0
    0.5905    7.3975   -5.4767 N   0  0  0  0  0  0  0  0  0  0  0  0
   -0.0460    7.2413   -4.1934 C   0  0  2  0  0  0  0  0  0  0  0  0
    0.8788    7.7962   -3.1119 C   0  0  0  0  0  0  0  0  0  0  0  0
    2.0213    8.1866   -3.3435 O   0  0  0  0  0  0  0  0  0  0  0  0
   -0.4870    5.7988   -3.9334 C   0  0  0  0  0  0  0  0  0  0  0  0
    0.8931    4.6101   -3.8642 S   0  0  0  0  0  0  0  0  0  0  0  0
    1.6020    7.2999   -5.5295 H   0  0  0  0  0  0  0  0  0  0  0  0
   -0.9372    7.8804   -4.2268 H   0  0  0  0  0  0  0  0  0  0  0  0
   -1.0285    5.7275   -2.9845 H   0  0  0  0  0  0  0  0  0  0  0  0
   -1.1656    5.4673   -4.7268 H   0  0  0  0  0  0  0  0  0  0  0  0
    0.2872    7.7804   -1.8568 N   0  0  0  0  0  0  0  0  0  0  0  0
    0.9711    8.2321   -0.6676 C   0  0  0  0  0  0  0  0  0  0  0  0
   -0.6786    7.4805   -1.7630 H   0  0  0  0  0  0  0  0  0  0  0  0
    1.4638    7.3777   -0.1805 H   0  0  0  0  0  0  0  0  0  0  0  0
    1.7264    8.9832   -0.9420 H   0  0  0  0  0  0  0  0  0  0  0  0
    0.2438    8.6799    0.0257 H   0  0  0  0  0  0  0  0  0  0  0  0
   -6.7256    2.0330   -0.2766 C   0  0  0  0  0  0  0  0  0  0  0  0
   -7.1824    1.1039   -0.9322 O   0  0  0  0  0  0  0  0  0  0  0  0
   -7.5276    2.6077    0.8435 C   0  0  0  0  0  0  0  0  0  0  0  0
   -8.1775    3.4344    0.5145 H   0  0  0  0  0  0  0  0  0  0  0  0
   -8.2057    1.8676    1.2980 H   0  0  0  0  0  0  0  0  0  0  0  0
   -6.9411    3.0162    1.6819 H   0  0  0  0  0  0  0  0  0  0  0  0
   -5.4935    2.6382   -0.4627 N   0  0  0  0  0  0  0  0  0  0  0  0
   -4.5619    2.2388   -1.4845 C   0  0  2  0  0  0  0  0  0  0  0  0
   -3.1535    2.4674   -0.9521 C   0  0  0  0  0  0  0  0  0  0  0  0
   -2.8634    3.3945   -0.1987 O   0  0  0  0  0  0  0  0  0  0  0  0
   -4.7883    3.0138   -2.7732 C   0  0  0  0  0  0  0  0  0  0  0  0
   -5.2337    3.4049    0.1551 H   0  0  0  0  0  0  0  0  0  0  0  0
   -4.7192    1.1682   -1.6549 H   0  0  0  0  0  0  0  0  0  0  0  0
   -4.6352    4.0886   -2.6221 H   0  0  0  0  0  0  0  0  0  0  0  0
   -4.0976    2.6887   -3.5582 H   0  0  0  0  0  0  0  0  0  0  0  0
   -5.8111    2.8719   -3.1387 H   0  0  0  0  0  0  0  0  0  0  0  0
   -2.2466    1.5400   -1.4507 N   0  0  0  0  0  0  0  0  0  0  0  0
   -0.8424    1.5707   -1.1286 C   0  0  2  0  0  0  0  0  0  0  0  0
   -0.6786    1.4271    0.3831 C   0  0  0  0  0  0  0  0  0  0  0  0
   -1.5071    1.8456    1.1892 O   0  0  0  0  0  0  0  0  0  0  0  0
   -0.1403    2.8047   -1.7007 C   0  0  0  0  0  0  0  0  0  0  0  0
   -0.1058    2.8510   -3.5088 S   0  0  0  0  0  0  0  0  0  0  0  0
   -2.5850    0.7815   -2.0381 H   0  0  0  0  0  0  0  0  0  0  0  0
   -0.4135    0.6749   -1.5946 H   0  0  0  0  0  0  0  0  0  0  0  0
   -0.6335    3.7205   -1.3590 H   0  0  0  0  0  0  0  0  0  0  0  0
    0.8976    2.8386   -1.3520 H   0  0  0  0  0  0  0  0  0  0  0  0
    0.5112    0.8001    0.7249 N   0  0  0  0  0  0  0  0  0  0  0  0
    0.9052    0.5707    2.0953 C   0  0  2  0  0  0  0  0  0  0  0  0
    2.4244    0.6501    2.1675 C   0  0  0  0  0  0  0  0  0  0  0  0
    3.1597    0.2754    1.2565 O   0  0  0  0  0  0  0  0  0  0  0  0
    0.4069   -0.7759    2.5963 C   0  0  0  0  0  0  0  0  0  0  0  0
    1.1188    0.4468   -0.0083 H   0  0  0  0  0  0  0  0  0  0  0  0
    0.4679    1.3802    2.6899 H   0  0  0  0  0  0  0  0  0  0  0  0
    0.8343   -1.5994    2.0126 H   0  0  0  0  0  0  0  0  0  0  0  0
    0.6819   -0.9360    3.6440 H   0  0  0  0  0  0  0  0  0  0  0  0
   -0.6835   -0.8425    2.5158 H   0  0  0  0  0  0  0  0  0  0  0  0
    2.8637    1.1486    3.3860 N   0  0  0  0  0  0  0  0  0  0  0  0
    4.2637    1.2808    3.7152 C   0  0  0  0  0  0  0  0  0  0  0  0
    2.1838    1.4724    4.0677 H   0  0  0  0  0  0  0  0  0  0  0  0
    4.6065    0.3729    4.2330 H   0  0  0  0  0  0  0  0  0  0  0  0
    4.8459    1.4182    2.7921 H   0  0  0  0  0  0  0  0  0  0  0  0
    4.4053    2.1524    4.3712 H   0  0  0  0  0  0  0  0  0  0  0  0
  1  3  1  0  0  0  0
  1  7  1  0  0  0  0
  1  2  2  0  0  0  0
 23 25  1  0  0  0  0
 23 29  1  0  0  0  0
 23 24  2  0  0  0  0
 50 51  1  0  0  0  0
 51 59  1  0  0  0  0
 51 52  2  0  0  0  0
  8  9  1  0  0  0  0
  9 17  1  0  0  0  0
  9 10  2  0  0  0  0
 30 31  1  0  0  0  0
 31 39  1  0  0  0  0
 31 32  2  0  0  0  0
 40 41  1  0  0  0  0
 41 49  1  0  0  0  0
 41 42  2  0  0  0  0
 50 53  1  0  0  0  0
 30 33  1  0  0  0  0
 59 60  1  0  0  0  0
 17 18  1  0  0  0  0
  8 11  1  0  0  0  0
 11 12  1  0  0  0  0
 40 43  1  0  0  0  0
 43 44  1  0  0  0  0
 49 50  1  0  0  0  0
  7  8  1  0  0  0  0
 29 30  1  0  0  0  0
 39 40  1  0  0  0  0
 12 44  1  0  0  0  0
  3  4  1  0  0  0  0
  3  5  1  0  0  0  0
  3  6  1  0  0  0  0
 25 26  1  0  0  0  0
 25 27  1  0  0  0  0
 25 28  1  0  0  0  0
 53 56  1  0  0  0  0
 53 57  1  0  0  0  0
 53 58  1  0  0  0  0
 33 36  1  0  0  0  0
 33 37  1  0  0  0  0
 33 38  1  0  0  0  0
 60 62  1  0  0  0  0
 60 63  1  0  0  0  0
 60 64  1  0  0  0  0
 18 20  1  0  0  0  0
 18 21  1  0  0  0  0
 18 22  1  0  0  0  0
 11 15  1  0  0  0  0
 11 16  1  0  0  0  0
 43 47  1  0  0  0  0
 43 48  1  0  0  0  0
 50 55  1  0  0  0  0
  8 14  1  0  0  0  0
 30 35  1  0  0  0  0
 40 46  1  0  0  0  0
 59 61  1  0  0  0  0
 17 19  1  0  0  0  0
  7 13  1  0  0  0  0
 29 34  1  0  0  0  0
 49 54  1  0  0  0  0
 39 45  1  0  0  0  0
M  END
$$$$

  -OEChem-05262214473D

 64 63  0     1  0  0  0  0  0999 V2000
   -0.1049    7.6735   -6.6413 C   0  0  0  0  0  0  0  0  0  0  0  0
   -1.3172    7.8194   -6.7448 O   0  0  0  0  0  0  0  0  0  0  0  0
    0.7572    7.7956   -7.8538 C   0  0  0  0  0  0  0  0  0  0  0  0
    0.8961    6.8319   -8.3698 H   0  0  0  0  0  0  0  0  0  0  0  0
    0.3261    8.4712   -8.6099 H   0  0  0  0  0  0  0  0  0  0  0  0
    1.7750    8.1762   -7.6720 H   0  0  0  0  0  0  0  0  0  0  0  0
    0.5905    7.3975   -5.4767 N   0  0  0  0  0  0  0  0  0  0  0  0
   -0.0460    7.2413   -4.1934 C   0  0  2  0  0  0  0  0  0  0  0  0
    0.8788    7.7962   -3.1119 C   0  0  0  0  0  0  0  0  0  0  0  0
    2.0213    8.1866   -3.3435 O   0  0  0  0  0  0  0  0  0  0  0  0
   -0.4870    5.7988   -3.9334 C   0  0  0  0  0  0  0  0  0  0  0  0
    0.8931    4.6101   -3.8642 S   0  0  0  0  0  0  0  0  0  0  0  0
    1.6020    7.2999   -5.5295 H   0  0  0  0  0  0  0  0  0  0  0  0
   -0.9372    7.8804   -4.2268 H   0  0  0  0  0  0  0  0  0  0  0  0
   -1.0285    5.7275   -2.9845 H   0  0  0  0  0  0  0  0  0  0  0  0
   -1.1656    5.4673   -4.7268 H   0  0  0  0  0  0  0  0  0  0  0  0
    0.2872    7.7804   -1.8568 N   0  0  0  0  0  0  0  0  0  0  0  0
    0.9711    8.2321   -0.6676 C   0  0  0  0  0  0  0  0  0  0  0  0
   -0.6786    7.4805   -1.7630 H   0  0  0  0  0  0  0  0  0  0  0  0
    1.4638    7.3777   -0.1805 H   0  0  0  0  0  0  0  0  0  0  0  0
    1.7264    8.9832   -0.9420 H   0  0  0  0  0  0  0  0  0  0  0  0
    0.2438    8.6799    0.0257 H   0  0  0  0  0  0  0  0  0  0  0  0
   -6.7256    2.0330   -0.2766 C   0  0  0  0  0  0  0  0  0  0  0  0
   -7.1824    1.1039   -0.9322 O   0  0  0  0  0  0  0  0  0  0  0  0
   -7.5276    2.6077    0.8435 C   0  0  0  0  0  0  0  0  0  0  0  0
   -8.1775    3.4344    0.5145 H   0  0  0  0  0  0  0  0  0  0  0  0
   -8.2057    1.8676    1.2980 H   0  0  0  0  0  0  0  0  0  0  0  0
   -6.9411    3.0162    1.6819 H   0  0  0  0  0  0  0  0  0  0  0  0
   -5.4935    2.6382   -0.4627 N   0  0  0  0  0  0  0  0  0  0  0  0
   -4.5619    2.2388   -1.4845 C   0  0  2  0  0  0  0  0  0  0  0  0
   -3.1535    2.4674   -0.9521 C   0  0  0  0  0  0  0  0  0  0  0  0
   -2.8634    3.3945   -0.1987 O   0  0  0  0  0  0  0  0  0  0  0  0
   -4.7883    3.0138   -2.7732 C   0  0  0  0  0  0  0  0  0  0  0  0
   -5.2337    3.4049    0.1551 H   0  0  0  0  0  0  0  0  0  0  0  0
   -4.7192    1.1682   -1.6549 H   0  0  0  0  0  0  0  0  0  0  0  0
   -4.6352    4.0886   -2.6221 H   0  0  0  0  0  0  0  0  0  0  0  0
   -4.0976    2.6887   -3.5582 H   0  0  0  0  0  0  0  0  0  0  0  0
   -5.8111    2.8719   -3.1387 H   0  0  0  0  0  0  0  0  0  0  0  0
   -2.2466    1.5400   -1.4507 N   0  0  0  0  0  0  0  0  0  0  0  0
   -0.8424    1.5707   -1.1286 C   0  0  2  0  0  0  0  0  0  0  0  0
   -0.6786    1.4271    0.3831 C   0  0  0  0  0  0  0  0  0  0  0  0
   -1.6033    1.5946    1.1758 O   0  0  0  0  0  0  0  0  0  0  0  0
   -0.1403    2.8047   -1.7007 C   0  0  0  0  0  0  0  0  0  0  0  0
   -0.1058    2.8510   -3.5088 S   0  0  0  0  0  0  0  0  0  0  0  0
   -2.5850    0.7815   -2.0381 H   0  0  0  0  0  0  0  0  0  0  0  0
   -0.4135    0.6749   -1.5946 H   0  0  0  0  0  0  0  0  0  0  0  0
   -0.6335    3.7205   -1.3590 H   0  0  0  0  0  0  0  0  0  0  0  0
    0.8976    2.8386   -1.3520 H   0  0  0  0  0  0  0  0  0  0  0  0
    0.6249    1.1151    0.7425 N   0  0  0  0  0  0  0  0  0  0  0  0
    1.0361    0.9518    2.1173 C   0  0  2  0  0  0  0  0  0  0  0  0
    2.4822    1.4150    2.2339 C   0  0  0  0  0  0  0  0  0  0  0  0
    3.3078    1.2692    1.3348 O   0  0  0  0  0  0  0  0  0  0  0  0
    0.8896   -0.4923    2.5709 C   0  0  0  0  0  0  0  0  0  0  0  0
    1.3178    0.9518    0.0181 H   0  0  0  0  0  0  0  0  0  0  0  0
    0.3936    1.6038    2.7192 H   0  0  0  0  0  0  0  0  0  0  0  0
    1.5260   -1.1605    1.9793 H   0  0  0  0  0  0  0  0  0  0  0  0
    1.1747   -0.6090    3.6217 H   0  0  0  0  0  0  0  0  0  0  0  0
   -0.1453   -0.8331    2.4584 H   0  0  0  0  0  0  0  0  0  0  0  0
    2.7536    1.9713    3.4761 N   0  0  0  0  0  0  0  0  0  0  0  0
    4.0657    2.4471    3.8475 C   0  0  0  0  0  0  0  0  0  0  0  0
    1.9995    2.0892    4.1463 H   0  0  0  0  0  0  0  0  0  0  0  0
    4.6191    1.6414    4.3522 H   0  0  0  0  0  0  0  0  0  0  0  0
    4.6122    2.7573    2.9446 H   0  0  0  0  0  0  0  0  0  0  0  0
    3.9654    3.3051    4.5283 H   0  0  0  0  0  0  0  0  0  0  0  0
  1  3  1  0  0  0  0
  1  7  1  0  0  0  0
  1  2  2  0  0  0  0
 23 25  1  0  0  0  0
 23 29  1  0  0  0  0
 23 24  2  0  0  0  0
 50 51  1  0  0  0  0
 51 59  1  0  0  0  0
 51 52  2  0  0  0  0
  8  9  1  0  0  0  0
  9 17  1  0  0  0  0
  9 10  2  0  0  0  0
 30 31  1  0  0  0  0
 31 39  1  0  0  0  0
 31 32  2  0  0  0  0
 40 41  1  0  0  0  0
 41 49  1  0  0  0  0
 41 42  2  0  0  0  0
 50 53  1  0  0  0  0
 30 33  1  0  0  0  0
 59 60  1  0  0  0  0
 17 18  1  0  0  0  0
  8 11  1  0  0  0  0
 11 12  1  0  0  0  0
 40 43  1  0  0  0  0
 43 44  1  0  0  0  0
 49 50  1  0  0  0  0
  7  8  1  0  0  0  0
 29 30  1  0  0  0  0
 39 40  1  0  0  0  0
 12 44  1  0  0  0  0
  3  4  1  0  0  0  0
  3  5  1  0  0  0  0
  3  6  1  0  0  0  0
 25 26  1  0  0  0  0
 25 27  1  0  0  0  0
 25 28  1  0  0  0  0
 53 56  1  0  0  0  0
 53 57  1  0  0  0  0
 53 58  1  0  0  0  0
 33 36  1  0  0  0  0
 33 37  1  0  0  0  0
 33 38  1  0  0  0  0
 60 62  1  0  0  0  0
 60 63  1  0  0  0  0
 60 64  1  0  0  0  0
 18 20  1  0  0  0  0
 18 21  1  0  0  0  0
 18 22  1  0  0  0  0
 11 15  1  0  0  0  0
 11 16  1  0  0  0  0
 43 47  1  0  0  0  0
 43 48  1  0  0  0  0
 50 55  1  0  0  0  0
  8 14  1  0  0  0  0
 30 35  1  0  0  0  0
 40 46  1  0  0  0  0
 59 61  1  0  0  0  0
 17 19  1  0  0  0  0
  7 13  1  0  0  0  0
 29 34  1  0  0  0  0
 49 54  1  0  0  0  0
 39 45  1  0  0  0  0
M  END
$$$$

  -OEChem-05262214473D

 64 63  0     1  0  0  0  0  0999 V2000
   -0.5263    8.8983   -4.9213 C   0  0  0  0  0  0  0  0  0  0  0  0
   -1.7462    8.9943   -4.9869 O   0  0  0  0  0  0  0  0  0  0  0  0
    0.3117    9.3723   -6.0621 C   0  0  0  0  0  0  0  0  0  0  0  0
    0.4987    8.5797   -6.8043 H   0  0  0  0  0  0  0  0  0  0  0  0
   -0.1670   10.1903   -6.6240 H   0  0  0  0  0  0  0  0  0  0  0  0
    1.3084    9.7538   -5.7882 H   0  0  0  0  0  0  0  0  0  0  0  0
    0.1988    8.3789   -3.8627 N   0  0  0  0  0  0  0  0  0  0  0  0
   -0.4111    7.8673   -2.6616 C   0  0  2  0  0  0  0  0  0  0  0  0
    0.4944    8.1849   -1.4733 C   0  0  0  0  0  0  0  0  0  0  0  0
    1.6096    8.6873   -1.5967 O   0  0  0  0  0  0  0  0  0  0  0  0
   -0.7655    6.3826   -2.7749 C   0  0  0  0  0  0  0  0  0  0  0  0
    0.6810    5.2977   -3.0053 S   0  0  0  0  0  0  0  0  0  0  0  0
    1.2134    8.3572   -3.9365 H   0  0  0  0  0  0  0  0  0  0  0  0
   -1.3377    8.4409   -2.5343 H   0  0  0  0  0  0  0  0  0  0  0  0
   -1.2897    6.0428   -1.8757 H   0  0  0  0  0  0  0  0  0  0  0  0
   -1.4343    6.2226   -3.6275 H   0  0  0  0  0  0  0  0  0  0  0  0
   -0.0790    7.8186   -0.2639 N   0  0  0  0  0  0  0  0  0  0  0  0
    0.5932    7.9953    1.0021 C   0  0  0  0  0  0  0  0  0  0  0  0
   -1.0249    7.4487   -0.2507 H   0  0  0  0  0  0  0  0  0  0  0  0
    1.1402    7.0761    1.2588 H   0  0  0  0  0  0  0  0  0  0  0  0
    1.3008    8.8342    0.9275 H   0  0  0  0  0  0  0  0  0  0  0  0
   -0.1494    8.2104    1.7846 H   0  0  0  0  0  0  0  0  0  0  0  0
   -6.7256    2.0330   -0.2766 C   0  0  0  0  0  0  0  0  0  0  0  0
   -7.1824    1.1039   -0.9322 O   0  0  0  0  0  0  0  0  0  0  0  0
   -7.5276    2.6077    0.8435 C   0  0  0  0  0  0  0  0  0  0  0  0
   -8.1775    3.4344    0.5145 H   0  0  0  0  0  0  0  0  0  0  0  0
   -8.2057    1.8676    1.2980 H   0  0  0  0  0  0  0  0  0  0  0  0
   -6.9411    3.0162    1.6819 H   0  0  0  0  0  0  0  0  0  0  0  0
   -5.4935    2.6382   -0.4627 N   0  0  0  0  0  0  0  0  0  0  0  0
   -4.5619    2.2388   -1.4845 C   0  0  2  0  0  0  0  0  0  0  0  0
   -3.1535    2.4674   -0.9521 C   0  0  0  0  0  0  0  0  0  0  0  0
   -2.8634    3.3945   -0.1987 O   0  0  0  0  0  0  0  0  0  0  0  0
   -4.7883    3.0138   -2.7732 C   0  0  0  0  0  0  0  0  0  0  0  0
   -5.2337    3.4049    0.1551 H   0  0  0  0  0  0  0  0  0  0  0  0
   -4.7192    1.1682   -1.6549 H   0  0  0  0  0  0  0  0  0  0  0  0
   -4.6352    4.0886   -2.6221 H   0  0  0  0  0  0  0  0  0  0  0  0
   -4.0976    2.6887   -3.5582 H   0  0  0  0  0  0  0  0  0  0  0  0
   -5.8111    2.8719   -3.1387 H   0  0  0  0  0  0  0  0  0  0  0  0
   -2.2466    1.5400   -1.4507 N   0  0  0  0  0  0  0  0  0  0  0  0
   -0.8424    1.5707   -1.1286 C   0  0  2  0  0  0  0  0  0  0  0  0
   -0.6511    1.0606    0.2983 C   0  0  0  0  0  0  0  0  0  0  0  0
   -1.5867    0.7147    1.0168 O   0  0  0  0  0  0  0  0  0  0  0  0
   -0.2194    2.9480   -1.3694 C   0  0  0  0  0  0  0  0  0  0  0  0
   -0.2110    3.4504   -3.1072 S   0  0  0  0  0  0  0  0  0  0  0  0
   -2.5850    0.7815   -2.0381 H   0  0  0  0  0  0  0  0  0  0  0  0
   -0.3691    0.8480   -1.8048 H   0  0  0  0  0  0  0  0  0  0  0  0
   -0.7597    3.7176   -0.8086 H   0  0  0  0  0  0  0  0  0  0  0  0
    0.8192    2.9536   -1.0215 H   0  0  0  0  0  0  0  0  0  0  0  0
    0.6826    1.0610    0.6815 N   0  0  0  0  0  0  0  0  0  0  0  0
    1.1159    0.6450    1.9948 C   0  0  2  0  0  0  0  0  0  0  0  0
    2.3456    1.4635    2.3655 C   0  0  0  0  0  0  0  0  0  0  0  0
    3.1809    1.8299    1.5414 O   0  0  0  0  0  0  0  0  0  0  0  0
    1.4231   -0.8439    2.0304 C   0  0  0  0  0  0  0  0  0  0  0  0
    1.3963    1.3226    0.0077 H   0  0  0  0  0  0  0  0  0  0  0  0
    0.2989    0.8788    2.6862 H   0  0  0  0  0  0  0  0  0  0  0  0
    2.2392   -1.0973    1.3439 H   0  0  0  0  0  0  0  0  0  0  0  0
    1.7240   -1.1632    3.0336 H   0  0  0  0  0  0  0  0  0  0  0  0
    0.5462   -1.4300    1.7347 H   0  0  0  0  0  0  0  0  0  0  0  0
    2.4231    1.6999    3.7309 N   0  0  0  0  0  0  0  0  0  0  0  0
    3.5200    2.4180    4.3368 C   0  0  0  0  0  0  0  0  0  0  0  0
    1.6657    1.3941    4.3347 H   0  0  0  0  0  0  0  0  0  0  0  0
    4.2934    1.7046    4.6574 H   0  0  0  0  0  0  0  0  0  0  0  0
    3.9483    3.1186    3.6049 H   0  0  0  0  0  0  0  0  0  0  0  0
    3.1537    2.9783    5.2097 H   0  0  0  0  0  0  0  0  0  0  0  0
  1  3  1  0  0  0  0
  1  7  1  0  0  0  0
  1  2  2  0  0  0  0
 23 25  1  0  0  0  0
 23 29  1  0  0  0  0
 23 24  2  0  0  0  0
 50 51  1  0  0  0  0
 51 59  1  0  0  0  0
 51 52  2  0  0  0  0
  8  9  1  0  0  0  0
  9 17  1  0  0  0  0
  9 10  2  0  0  0  0
 30 31  1  0  0  0  0
 31 39  1  0  0  0  0
 31 32  2  0  0  0  0
 40 41  1  0  0  0  0
 41 49  1  0  0  0  0
 41 42  2  0  0  0  0
 50 53  1  0  0  0  0
 30 33  1  0  0  0  0
 59 60  1  0  0  0  0
 17 18  1  0  0  0  0
  8 11  1  0  0  0  0
 11 12  1  0  0  0  0
 40 43  1  0  0  0  0
 43 44  1  0  0  0  0
 49 50  1  0  0  0  0
  7  8  1  0  0  0  0
 29 30  1  0  0  0  0
 39 40  1  0  0  0  0
 12 44  1  0  0  0  0
  3  4  1  0  0  0  0
  3  5  1  0  0  0  0
  3  6  1  0  0  0  0
 25 26  1  0  0  0  0
 25 27  1  0  0  0  0
 25 28  1  0  0  0  0
 53 56  1  0  0  0  0
 53 57  1  0  0  0  0
 53 58  1  0  0  0  0
 33 36  1  0  0  0  0
 33 37  1  0  0  0  0
 33 38  1  0  0  0  0
 60 62  1  0  0  0  0
 60 63  1  0  0  0  0
 60 64  1  0  0  0  0
 18 20  1  0  0  0  0
 18 21  1  0  0  0  0
 18 22  1  0  0  0  0
 11 15  1  0  0  0  0
 11 16  1  0  0  0  0
 43 47  1  0  0  0  0
 43 48  1  0  0  0  0
 50 55  1  0  0  0  0
  8 14  1  0  0  0  0
 30 35  1  0  0  0  0
 40 46  1  0  0  0  0
 59 61  1  0  0  0  0
 17 19  1  0  0  0  0
  7 13  1  0  0  0  0
 29 34  1  0  0  0  0
 49 54  1  0  0  0  0
 39 45  1  0  0  0  0
M  END
$$$$

  -OEChem-05262214473D

 64 63  0     1  0  0  0  0  0999 V2000
   -0.5263    8.8983   -4.9213 C   0  0  0  0  0  0  0  0  0  0  0  0
   -1.7462    8.9943   -4.9869 O   0  0  0  0  0  0  0  0  0  0  0  0
    0.3117    9.3723   -6.0621 C   0  0  0  0  0  0  0  0  0  0  0  0
    0.4987    8.5797   -6.8043 H   0  0  0  0  0  0  0  0  0  0  0  0
   -0.1670   10.1903   -6.6240 H   0  0  0  0  0  0  0  0  0  0  0  0
    1.3084    9.7538   -5.7882 H   0  0  0  0  0  0  0  0  0  0  0  0
    0.1988    8.3789   -3.8627 N   0  0  0  0  0  0  0  0  0  0  0  0
   -0.4111    7.8673   -2.6616 C   0  0  2  0  0  0  0  0  0  0  0  0
    0.4944    8.1849   -1.4733 C   0  0  0  0  0  0  0  0  0  0  0  0
    1.6096    8.6873   -1.5967 O   0  0  0  0  0  0  0  0  0  0  0  0
   -0.7655    6.3826   -2.7749 C   0  0  0  0  0  0  0  0  0  0  0  0
    0.6810    5.2977   -3.0053 S   0  0  0  0  0  0  0  0  0  0  0  0
    1.2134    8.3572   -3.9365 H   0  0  0  0  0  0  0  0  0  0  0  0
   -1.3377    8.4409   -2.5343 H   0  0  0  0  0  0  0  0  0  0  0  0
   -1.2897    6.0428   -1.8757 H   0  0  0  0  0  0  0  0  0  0  0  0
   -1.4343    6.2226   -3.6275 H   0  0  0  0  0  0  0  0  0  0  0  0
   -0.0790    7.8186   -0.2639 N   0  0  0  0  0  0  0  0  0  0  0  0
    0.5932    7.9953    1.0021 C   0  0  0  0  0  0  0  0  0  0  0  0
   -1.0249    7.4487   -0.2507 H   0  0  0  0  0  0  0  0  0  0  0  0
    1.1402    7.0761    1.2588 H   0  0  0  0  0  0  0  0  0  0  0  0
    1.3008    8.8342    0.9275 H   0  0  0  0  0  0  0  0  0  0  0  0
   -0.1494    8.2104    1.7846 H   0  0  0  0  0  0  0  0  0  0  0  0
   -6.7256    2.0330   -0.2766 C   0  0  0  0  0  0  0  0  0  0  0  0
   -7.1824    1.1039   -0.9322 O   0  0  0  0  0  0  0  0  0  0  0  0
   -7.5276    2.6077    0.8435 C   0  0  0  0  0  0  0  0  0  0  0  0
   -8.1775    3.4344    0.5145 H   0  0  0  0  0  0  0  0  0  0  0  0
   -8.2057    1.8676    1.2980 H   0  0  0  0  0  0  0  0  0  0  0  0
   -6.9411    3.0162    1.6819 H   0  0  0  0  0  0  0  0  0  0  0  0
   -5.4935    2.6382   -0.4627 N   0  0  0  0  0  0  0  0  0  0  0  0
   -4.5619    2.2388   -1.4845 C   0  0  2  0  0  0  0  0  0  0  0  0
   -3.1535    2.4674   -0.9521 C   0  0  0  0  0  0  0  0  0  0  0  0
   -2.8634    3.3945   -0.1987 O   0  0  0  0  0  0  0  0  0  0  0  0
   -4.7883    3.0138   -2.7732 C   0  0  0  0  0  0  0  0  0  0  0  0
   -5.2337    3.4049    0.1551 H   0  0  0  0  0  0  0  0  0  0  0  0
   -4.7192    1.1682   -1.6549 H   0  0  0  0  0  0  0  0  0  0  0  0
   -4.6352    4.0886   -2.6221 H   0  0  0  0  0  0  0  0  0  0  0  0
   -4.0976    2.6887   -3.5582 H   0  0  0  0  0  0  0  0  0  0  0  0
   -5.8111    2.8719   -3.1387 H   0  0  0  0  0  0  0  0  0  0  0  0
   -2.2466    1.5400   -1.4507 N   0  0  0  0  0  0  0  0  0  0  0  0
   -0.8424    1.5707   -1.1286 C   0  0  2  0  0  0  0  0  0  0  0  0
   -0.6511    1.0606    0.2983 C   0  0  0  0  0  0  0  0  0  0  0  0
   -1.5305    0.4693    0.9216 O   0  0  0  0  0  0  0  0  0  0  0  0
   -0.2194    2.9480   -1.3694 C   0  0  0  0  0  0  0  0  0  0  0  0
   -0.2110    3.4504   -3.1072 S   0  0  0  0  0  0  0  0  0  0  0  0
   -2.5850    0.7815   -2.0381 H   0  0  0  0  0  0  0  0  0  0  0  0
   -0.3691    0.8480   -1.8048 H   0  0  0  0  0  0  0  0  0  0  0  0
   -0.7597    3.7176   -0.8086 H   0  0  0  0  0  0  0  0  0  0  0  0
    0.8192    2.9536   -1.0215 H   0  0  0  0  0  0  0  0  0  0  0  0
    0.6062    1.3651    0.8004 N   0  0  0  0  0  0  0  0  0  0  0  0
    1.0178    1.0093    2.1382 C   0  0  2  0  0  0  0  0  0  0  0  0
    1.9766    2.0827    2.6363 C   0  0  0  0  0  0  0  0  0  0  0  0
    2.7628    2.6742    1.8993 O   0  0  0  0  0  0  0  0  0  0  0  0
    1.6739   -0.3623    2.1689 C   0  0  0  0  0  0  0  0  0  0  0  0
    1.2878    1.8193    0.1998 H   0  0  0  0  0  0  0  0  0  0  0  0
    0.1144    1.0098    2.7578 H   0  0  0  0  0  0  0  0  0  0  0  0
    2.5809   -0.3822    1.5537 H   0  0  0  0  0  0  0  0  0  0  0  0
    1.9597   -0.6427    3.1881 H   0  0  0  0  0  0  0  0  0  0  0  0
    0.9933   -1.1286    1.7825 H   0  0  0  0  0  0  0  0  0  0  0  0
    1.8814    2.2717    4.0079 N   0  0  0  0  0  0  0  0  0  0  0  0
    2.7169    3.2057    4.7261 C   0  0  0  0  0  0  0  0  0  0  0  0
    1.1740    1.7671    4.5340 H   0  0  0  0  0  0  0  0  0  0  0  0
    3.6115    2.6860    5.0996 H   0  0  0  0  0  0  0  0  0  0  0  0
    3.0208    4.0195    4.0513 H   0  0  0  0  0  0  0  0  0  0  0  0
    2.1546    3.6233    5.5743 H   0  0  0  0  0  0  0  0  0  0  0  0
  1  3  1  0  0  0  0
  1  7  1  0  0  0  0
  1  2  2  0  0  0  0
 23 25  1  0  0  0  0
 23 29  1  0  0  0  0
 23 24  2  0  0  0  0
 50 51  1  0  0  0  0
 51 59  1  0  0  0  0
 51 52  2  0  0  0  0
  8  9  1  0  0  0  0
  9 17  1  0  0  0  0
  9 10  2  0  0  0  0
 30 31  1  0  0  0  0
 31 39  1  0  0  0  0
 31 32  2  0  0  0  0
 40 41  1  0  0  0  0
 41 49  1  0  0  0  0
 41 42  2  0  0  0  0
 50 53  1  0  0  0  0
 30 33  1  0  0  0  0
 59 60  1  0  0  0  0
 17 18  1  0  0  0  0
  8 11  1  0  0  0  0
 11 12  1  0  0  0  0
 40 43  1  0  0  0  0
 43 44  1  0  0  0  0
 49 50  1  0  0  0  0
  7  8  1  0  0  0  0
 29 30  1  0  0  0  0
 39 40  1  0  0  0  0
 12 44  1  0  0  0  0
  3  4  1  0  0  0  0
  3  5  1  0  0  0  0
  3  6  1  0  0  0  0
 25 26  1  0  0  0  0
 25 27  1  0  0  0  0
 25 28  1  0  0  0  0
 53 56  1  0  0  0  0
 53 57  1  0  0  0  0
 53 58  1  0  0  0  0
 33 36  1  0  0  0  0
 33 37  1  0  0  0  0
 33 38  1  0  0  0  0
 60 62  1  0  0  0  0
 60 63  1  0  0  0  0
 60 64  1  0  0  0  0
 18 20  1  0  0  0  0
 18 21  1  0  0  0  0
 18 22  1  0  0  0  0
 11 15  1  0  0  0  0
 11 16  1  0  0  0  0
 43 47  1  0  0  0  0
 43 48  1  0  0  0  0
 50 55  1  0  0  0  0
  8 14  1  0  0  0  0
 30 35  1  0  0  0  0
 40 46  1  0  0  0  0
 59 61  1  0  0  0  0
 17 19  1  0  0  0  0
  7 13  1  0  0  0  0
 29 34  1  0  0  0  0
 49 54  1  0  0  0  0
 39 45  1  0  0  0  0
M  END
$$$$

  -OEChem-05262214473D

 64 63  0     1  0  0  0  0  0999 V2000
   -0.5263    8.8983   -4.9213 C   0  0  0  0  0  0  0  0  0  0  0  0
   -1.7462    8.9943   -4.9869 O   0  0  0  0  0  0  0  0  0  0  0  0
    0.3117    9.3723   -6.0621 C   0  0  0  0  0  0  0  0  0  0  0  0
    0.4987    8.5797   -6.8043 H   0  0  0  0  0  0  0  0  0  0  0  0
   -0.1670   10.1903   -6.6240 H   0  0  0  0  0  0  0  0  0  0  0  0
    1.3084    9.7538   -5.7882 H   0  0  0  0  0  0  0  0  0  0  0  0
    0.1988    8.3789   -3.8627 N   0  0  0  0  0  0  0  0  0  0  0  0
   -0.4111    7.8673   -2.6616 C   0  0  2  0  0  0  0  0  0  0  0  0
    0.4944    8.1849   -1.4733 C   0  0  0  0  0  0  0  0  0  0  0  0
    1.6096    8.6873   -1.5967 O   0  0  0  0  0  0  0  0  0  0  0  0
   -0.7655    6.3826   -2.7749 C   0  0  0  0  0  0  0  0  0  0  0  0
    0.6810    5.2977   -3.0053 S   0  0  0  0  0  0  0  0  0  0  0  0
    1.2134    8.3572   -3.9365 H   0  0  0  0  0  0  0  0  0  0  0  0
   -1.3377    8.4409   -2.5343 H   0  0  0  0  0  0  0  0  0  0  0  0
   -1.2897    6.0428   -1.8757 H   0  0  0  0  0  0  0  0  0  0  0  0
   -1.4343    6.2226   -3.6275 H   0  0  0  0  0  0  0  0  0  0  0  0
   -0.0790    7.8186   -0.2639 N   0  0  0  0  0  0  0  0  0  0  0  0
    0.5932    7.9953    1.0021 C   0  0  0  0  0  0  0  0  0  0  0  0
   -1.0249    7.4487   -0.2507 H   0  0  0  0  0  0  0  0  0  0  0  0
    1.1402    7.0761    1.2588 H   0  0  0  0  0  0  0  0  0  0  0  0
    1.3008    8.8342    0.9275 H   0  0  0  0  0  0  0  0  0  0  0  0
   -0.1494    8.2104    1.7846 H   0  0  0  0  0  0  0  0  0  0  0  0
   -6.7256    2.0330   -0.2766 C   0  0  0  0  0  0  0  0  0  0  0  0
   -7.1824    1.1039   -0.9322 O   0  0  0  0  0  0  0  0  0  0  0  0
   -7.5276    2.6077    0.8435 C   0  0  0  0  0  0  0  0  0  0  0  0
   -8.1775    3.4344    0.5145 H   0  0  0  0  0  0  0  0  0  0  0  0
   -8.2057    1.8676    1.2980 H   0  0  0  0  0  0  0  0  0  0  0  0
   -6.9411    3.0162    1.6819 H   0  0  0  0  0  0  0  0  0  0  0  0
   -5.4935    2.6382   -0.4627 N   0  0  0  0  0  0  0  0  0  0  0  0
   -4.5619    2.2388   -1.4845 C   0  0  2  0  0  0  0  0  0  0  0  0
   -3.1535    2.4674   -0.9521 C   0  0  0  0  0  0  0  0  0  0  0  0
   -2.8634    3.3945   -0.1987 O   0  0  0  0  0  0  0  0  0  0  0  0
   -4.7883    3.0138   -2.7732 C   0  0  0  0  0  0  0  0  0  0  0  0
   -5.2337    3.4049    0.1551 H   0  0  0  0  0  0  0  0  0  0  0  0
   -4.7192    1.1682   -1.6549 H   0  0  0  0  0  0  0  0  0  0  0  0
   -4.6352    4.0886   -2.6221 H   0  0  0  0  0  0  0  0  0  0  0  0
   -4.0976    2.6887   -3.5582 H   0  0  0  0  0  0  0  0  0  0  0  0
   -5.8111    2.8719   -3.1387 H   0  0  0  0  0  0  0  0  0  0  0  0
   -2.2466    1.5400   -1.4507 N   0  0  0  0  0  0  0  0  0  0  0  0
   -0.8424    1.5707   -1.1286 C   0  0  2  0  0  0  0  0  0  0  0  0
   -0.6511    1.0606    0.2983 C   0  0  0  0  0  0  0  0  0  0  0  0
   -1.4086    0.2490    0.8265 O   0  0  0  0  0  0  0  0  0  0  0  0
   -0.2194    2.9480   -1.3694 C   0  0  0  0  0  0  0  0  0  0  0  0
   -0.2110    3.4504   -3.1072 S   0  0  0  0  0  0  0  0  0  0  0  0
   -2.5850    0.7815   -2.0381 H   0  0  0  0  0  0  0  0  0  0  0  0
   -0.3691    0.8480   -1.8048 H   0  0  0  0  0  0  0  0  0  0  0  0
   -0.7597    3.7176   -0.8086 H   0  0  0  0  0  0  0  0  0  0  0  0
    0.8192    2.9536   -1.0215 H   0  0  0  0  0  0  0  0  0  0  0  0
    0.4485    1.6365    0.9186 N   0  0  0  0  0  0  0  0  0  0  0  0
    0.8226    1.3328    2.2801 C   0  0  2  0  0  0  0  0  0  0  0  0
    1.4471    2.5827    2.8861 C   0  0  0  0  0  0  0  0  0  0  0  0
    2.1238    3.3770    2.2363 O   0  0  0  0  0  0  0  0  0  0  0  0
    1.7878    0.1591    2.3401 C   0  0  0  0  0  0  0  0  0  0  0  0
    1.0464    2.2666    0.3921 H   0  0  0  0  0  0  0  0  0  0  0  0
   -0.1017    1.0895    2.8152 H   0  0  0  0  0  0  0  0  0  0  0  0
    2.7199    0.3843    1.8092 H   0  0  0  0  0  0  0  0  0  0  0  0
    2.0481   -0.0880    3.3746 H   0  0  0  0  0  0  0  0  0  0  0  0
    1.3482   -0.7310    1.8771 H   0  0  0  0  0  0  0  0  0  0  0  0
    1.1960    2.6841    4.2473 N   0  0  0  0  0  0  0  0  0  0  0  0
    1.7171    3.7597    5.0582 C   0  0  0  0  0  0  0  0  0  0  0  0
    0.5917    2.0021    4.6961 H   0  0  0  0  0  0  0  0  0  0  0  0
    2.6773    3.4546    5.4997 H   0  0  0  0  0  0  0  0  0  0  0  0
    1.8685    4.6510    4.4316 H   0  0  0  0  0  0  0  0  0  0  0  0
    1.0022    3.9930    5.8610 H   0  0  0  0  0  0  0  0  0  0  0  0
  1  3  1  0  0  0  0
  1  7  1  0  0  0  0
  1  2  2  0  0  0  0
 23 25  1  0  0  0  0
 23 29  1  0  0  0  0
 23 24  2  0  0  0  0
 50 51  1  0  0  0  0
 51 59  1  0  0  0  0
 51 52  2  0  0  0  0
  8  9  1  0  0  0  0
  9 17  1  0  0  0  0
  9 10  2  0  0  0  0
 30 31  1  0  0  0  0
 31 39  1  0  0  0  0
 31 32  2  0  0  0  0
 40 41  1  0  0  0  0
 41 49  1  0  0  0  0
 41 42  2  0  0  0  0
 50 53  1  0  0  0  0
 30 33  1  0  0  0  0
 59 60  1  0  0  0  0
 17 18  1  0  0  0  0
  8 11  1  0  0  0  0
 11 12  1  0  0  0  0
 40 43  1  0  0  0  0
 43 44  1  0  0  0  0
 49 50  1  0  0  0  0
  7  8  1  0  0  0  0
 29 30  1  0  0  0  0
 39 40  1  0  0  0  0
 12 44  1  0  0  0  0
  3  4  1  0  0  0  0
  3  5  1  0  0  0  0
  3  6  1  0  0  0  0
 25 26  1  0  0  0  0
 25 27  1  0  0  0  0
 25 28  1  0  0  0  0
 53 56  1  0  0  0  0
 53 57  1  0  0  0  0
 53 58  1  0  0  0  0
 33 36  1  0  0  0  0
 33 37  1  0  0  0  0
 33 38  1  0  0  0  0
 60 62  1  0  0  0  0
 60 63  1  0  0  0  0
 60 64  1  0  0  0  0
 18 20  1  0  0  0  0
 18 21  1  0  0  0  0
 18 22  1  0  0  0  0
 11 15  1  0  0  0  0
 11 16  1  0  0  0  0
 43 47  1  0  0  0  0
 43 48  1  0  0  0  0
 50 55  1  0  0  0  0
  8 14  1  0  0  0  0
 30 35  1  0  0  0  0
 40 46  1  0  0  0  0
 59 61  1  0  0  0  0
 17 19  1  0  0  0  0
  7 13  1  0  0  0  0
 29 34  1  0  0  0  0
 49 54  1  0  0  0  0
 39 45  1  0  0  0  0
M  END
$$$$

  -OEChem-05262214473D

 64 63  0     1  0  0  0  0  0999 V2000
   -0.5263    8.8983   -4.9213 C   0  0  0  0  0  0  0  0  0  0  0  0
   -1.7462    8.9943   -4.9869 O   0  0  0  0  0  0  0  0  0  0  0  0
    0.3117    9.3723   -6.0621 C   0  0  0  0  0  0  0  0  0  0  0  0
    0.4987    8.5797   -6.8043 H   0  0  0  0  0  0  0  0  0  0  0  0
   -0.1670   10.1903   -6.6240 H   0  0  0  0  0  0  0  0  0  0  0  0
    1.3084    9.7538   -5.7882 H   0  0  0  0  0  0  0  0  0  0  0  0
    0.1988    8.3789   -3.8627 N   0  0  0  0  0  0  0  0  0  0  0  0
   -0.4111    7.8673   -2.6616 C   0  0  2  0  0  0  0  0  0  0  0  0
    0.4944    8.1849   -1.4733 C   0  0  0  0  0  0  0  0  0  0  0  0
    1.6096    8.6873   -1.5967 O   0  0  0  0  0  0  0  0  0  0  0  0
   -0.7655    6.3826   -2.7749 C   0  0  0  0  0  0  0  0  0  0  0  0
    0.6810    5.2977   -3.0053 S   0  0  0  0  0  0  0  0  0  0  0  0
    1.2134    8.3572   -3.9365 H   0  0  0  0  0  0  0  0  0  0  0  0
   -1.3377    8.4409   -2.5343 H   0  0  0  0  0  0  0  0  0  0  0  0
   -1.2897    6.0428   -1.8757 H   0  0  0  0  0  0  0  0  0  0  0  0
   -1.4343    6.2226   -3.6275 H   0  0  0  0  0  0  0  0  0  0  0  0
   -0.0790    7.8186   -0.2639 N   0  0  0  0  0  0  0  0  0  0  0  0
    0.5932    7.9953    1.0021 C   0  0  0  0  0  0  0  0  0  0  0  0
   -1.0249    7.4487   -0.2507 H   0  0  0  0  0  0  0  0  0  0  0  0
    1.1402    7.0761    1.2588 H   0  0  0  0  0  0  0  0  0  0  0  0
    1.3008    8.8342    0.9275 H   0  0  0  0  0  0  0  0  0  0  0  0
   -0.1494    8.2104    1.7846 H   0  0  0  0  0  0  0  0  0  0  0  0
   -6.7256    2.0330   -0.2766 C   0  0  0  0  0  0  0  0  0  0  0  0
   -7.1824    1.1039   -0.9322 O   0  0  0  0  0  0  0  0  0  0  0  0
   -7.5276    2.6077    0.8435 C   0  0  0  0  0  0  0  0  0  0  0  0
   -8.1775    3.4344    0.5145 H   0  0  0  0  0  0  0  0  0  0  0  0
   -8.2057    1.8676    1.2980 H   0  0  0  0  0  0  0  0  0  0  0  0
   -6.9411    3.0162    1.6819 H   0  0  0  0  0  0  0  0  0  0  0  0
   -5.4935    2.6382   -0.4627 N   0  0  0  0  0  0  0  0  0  0  0  0
   -4.5619    2.2388   -1.4845 C   0  0  2  0  0  0  0  0  0  0  0  0
   -3.1535    2.4674   -0.9521 C   0  0  0  0  0  0  0  0  0  0  0  0
   -2.8634    3.3945   -0.1987 O   0  0  0  0  0  0  0  0  0  0  0  0
   -4.7883    3.0138   -2.7732 C   0  0  0  0  0  0  0  0  0  0  0  0
   -5.2337    3.4049    0.1551 H   0  0  0  0  0  0  0  0  0  0  0  0
   -4.7192    1.1682   -1.6549 H   0  0  0  0  0  0  0  0  0  0  0  0
   -4.6352    4.0886   -2.6221 H   0  0  0  0  0  0  0  0  0  0  0  0
   -4.0976    2.6887   -3.5582 H   0  0  0  0  0  0  0  0  0  0  0  0
   -5.8111    2.8719   -3.1387 H   0  0  0  0  0  0  0  0  0  0  0  0
   -2.2466    1.5400   -1.4507 N   0  0  0  0  0  0  0  0  0  0  0  0
   -0.8424    1.5707   -1.1286 C   0  0  2  0  0  0  0  0  0  0  0  0
   -0.6511    1.0606    0.2983 C   0  0  0  0  0  0  0  0  0  0  0  0
   -1.2294    0.0688    0.7380 O   0  0  0  0  0  0  0  0  0  0  0  0
   -0.2194    2.9480   -1.3694 C   0  0  0  0  0  0  0  0  0  0  0  0
   -0.2110    3.4504   -3.1072 S   0  0  0  0  0  0  0  0  0  0  0  0
   -2.5850    0.7815   -2.0381 H   0  0  0  0  0  0  0  0  0  0  0  0
   -0.3691    0.8480   -1.8048 H   0  0  0  0  0  0  0  0  0  0  0  0
   -0.7597    3.7176   -0.8086 H   0  0  0  0  0  0  0  0  0  0  0  0
    0.8192    2.9536   -1.0215 H   0  0  0  0  0  0  0  0  0  0  0  0
    0.2204    1.8566    1.0279 N   0  0  0  0  0  0  0  0  0  0  0  0
    0.5435    1.5935    2.4107 C   0  0  2  0  0  0  0  0  0  0  0  0
    0.7932    2.9295    3.0978 C   0  0  0  0  0  0  0  0  0  0  0  0
    1.3076    3.8904    2.5293 O   0  0  0  0  0  0  0  0  0  0  0  0
    1.7568    0.6847    2.5321 C   0  0  0  0  0  0  0  0  0  0  0  0
    0.6884    2.6341    0.5715 H   0  0  0  0  0  0  0  0  0  0  0  0
   -0.3347    1.1123    2.8546 H   0  0  0  0  0  0  0  0  0  0  0  0
    2.6467    1.1500    2.0927 H   0  0  0  0  0  0  0  0  0  0  0  0
    1.9832    0.4631    3.5803 H   0  0  0  0  0  0  0  0  0  0  0  0
    1.5867   -0.2641    2.0120 H   0  0  0  0  0  0  0  0  0  0  0  0
    0.4136    2.9089    4.4326 N   0  0  0  0  0  0  0  0  0  0  0  0
    0.5887    4.0423    5.3105 C   0  0  0  0  0  0  0  0  0  0  0  0
   -0.0416    2.0830    4.8099 H   0  0  0  0  0  0  0  0  0  0  0  0
    1.5545    3.9583    5.8303 H   0  0  0  0  0  0  0  0  0  0  0  0
    0.5699    4.9700    4.7197 H   0  0  0  0  0  0  0  0  0  0  0  0
   -0.2252    4.0621    6.0503 H   0  0  0  0  0  0  0  0  0  0  0  0
  1  3  1  0  0  0  0
  1  7  1  0  0  0  0
  1  2  2  0  0  0  0
 23 25  1  0  0  0  0
 23 29  1  0  0  0  0
 23 24  2  0  0  0  0
 50 51  1  0  0  0  0
 51 59  1  0  0  0  0
 51 52  2  0  0  0  0
  8  9  1  0  0  0  0
  9 17  1  0  0  0  0
  9 10  2  0  0  0  0
 30 31  1  0  0  0  0
 31 39  1  0  0  0  0
 31 32  2  0  0  0  0
 40 41  1  0  0  0  0
 41 49  1  0  0  0  0
 41 42  2  0  0  0  0
 50 53  1  0  0  0  0
 30 33  1  0  0  0  0
 59 60  1  0  0  0  0
 17 18  1  0  0  0  0
  8 11  1  0  0  0  0
 11 12  1  0  0  0  0
 40 43  1  0  0  0  0
 43 44  1  0  0  0  0
 49 50  1  0  0  0  0
  7  8  1  0  0  0  0
 29 30  1  0  0  0  0
 39 40  1  0  0  0  0
 12 44  1  0  0  0  0
  3  4  1  0  0  0  0
  3  5  1  0  0  0  0
  3  6  1  0  0  0  0
 25 26  1  0  0  0  0
 25 27  1  0  0  0  0
 25 28  1  0  0  0  0
 53 56  1  0  0  0  0
 53 57  1  0  0  0  0
 53 58  1  0  0  0  0
 33 36  1  0  0  0  0
 33 37  1  0  0  0  0
 33 38  1  0  0  0  0
 60 62  1  0  0  0  0
 60 63  1  0  0  0  0
 60 64  1  0  0  0  0
 18 20  1  0  0  0  0
 18 21  1  0  0  0  0
 18 22  1  0  0  0  0
 11 15  1  0  0  0  0
 11 16  1  0  0  0  0
 43 47  1  0  0  0  0
 43 48  1  0  0  0  0
 50 55  1  0  0  0  0
  8 14  1  0  0  0  0
 30 35  1  0  0  0  0
 40 46  1  0  0  0  0
 59 61  1  0  0  0  0
 17 19  1  0  0  0  0
  7 13  1  0  0  0  0
 29 34  1  0  0  0  0
 49 54  1  0  0  0  0
 39 45  1  0  0  0  0
M  END
$$$$

  -OEChem-05262214473D

 64 63  0     1  0  0  0  0  0999 V2000
   -0.5263    8.8983   -4.9213 C   0  0  0  0  0  0  0  0  0  0  0  0
   -1.7462    8.9943   -4.9869 O   0  0  0  0  0  0  0  0  0  0  0  0
    0.3117    9.3723   -6.0621 C   0  0  0  0  0  0  0  0  0  0  0  0
    0.4987    8.5797   -6.8043 H   0  0  0  0  0  0  0  0  0  0  0  0
   -0.1670   10.1903   -6.6240 H   0  0  0  0  0  0  0  0  0  0  0  0
    1.3084    9.7538   -5.7882 H   0  0  0  0  0  0  0  0  0  0  0  0
    0.1988    8.3789   -3.8627 N   0  0  0  0  0  0  0  0  0  0  0  0
   -0.4111    7.8673   -2.6616 C   0  0  2  0  0  0  0  0  0  0  0  0
    0.4944    8.1849   -1.4733 C   0  0  0  0  0  0  0  0  0  0  0  0
    1.6096    8.6873   -1.5967 O   0  0  0  0  0  0  0  0  0  0  0  0
   -0.7655    6.3826   -2.7749 C   0  0  0  0  0  0  0  0  0  0  0  0
    0.6810    5.2977   -3.0053 S   0  0  0  0  0  0  0  0  0  0  0  0
    1.2134    8.3572   -3.9365 H   0  0  0  0  0  0  0  0  0  0  0  0
   -1.3377    8.4409   -2.5343 H   0  0  0  0  0  0  0  0  0  0  0  0
   -1.2897    6.0428   -1.8757 H   0  0  0  0  0  0  0  0  0  0  0  0
   -1.4343    6.2226   -3.6275 H   0  0  0  0  0  0  0  0  0  0  0  0
   -0.0790    7.8186   -0.2639 N   0  0  0  0  0  0  0  0  0  0  0  0
    0.5932    7.9953    1.0021 C   0  0  0  0  0  0  0  0  0  0  0  0
   -1.0249    7.4487   -0.2507 H   0  0  0  0  0  0  0  0  0  0  0  0
    1.1402    7.0761    1.2588 H   0  0  0  0  0  0  0  0  0  0  0  0
    1.3008    8.8342    0.9275 H   0  0  0  0  0  0  0  0  0  0  0  0
   -0.1494    8.2104    1.7846 H   0  0  0  0  0  0  0  0  0  0  0  0
   -6.7256    2.0330   -0.2766 C   0  0  0  0  0  0  0  0  0  0  0  0
   -7.1824    1.1039   -0.9322 O   0  0  0  0  0  0  0  0  0  0  0  0
   -7.5276    2.6077    0.8435 C   0  0  0  0  0  0  0  0  0  0  0  0
   -8.1775    3.4344    0.5145 H   0  0  0  0  0  0  0  0  0  0  0  0
   -8.2057    1.8676    1.2980 H   0  0  0  0  0  0  0  0  0  0  0  0
   -6.9411    3.0162    1.6819 H   0  0  0  0  0  0  0  0  0  0  0  0
   -5.4935    2.6382   -0.4627 N   0  0  0  0  0  0  0  0  0  0  0  0
   -4.5619    2.2388   -1.4845 C   0  0  2  0  0  0  0  0  0  0  0  0
   -3.1535    2.4674   -0.9521 C   0  0  0  0  0  0  0  0  0  0  0  0
   -2.8634    3.3945   -0.1987 O   0  0  0  0  0  0  0  0  0  0  0  0
   -4.7883    3.0138   -2.7732 C   0  0  0  0  0  0  0  0  0  0  0  0
   -5.2337    3.4049    0.1551 H   0  0  0  0  0  0  0  0  0  0  0  0
   -4.7192    1.1682   -1.6549 H   0  0  0  0  0  0  0  0  0  0  0  0
   -4.6352    4.0886   -2.6221 H   0  0  0  0  0  0  0  0  0  0  0  0
   -4.0976    2.6887   -3.5582 H   0  0  0  0  0  0  0  0  0  0  0  0
   -5.8111    2.8719   -3.1387 H   0  0  0  0  0  0  0  0  0  0  0  0
   -2.2466    1.5400   -1.4507 N   0  0  0  0  0  0  0  0  0  0  0  0
   -0.8424    1.5707   -1.1286 C   0  0  2  0  0  0  0  0  0  0  0  0
   -0.6511    1.0606    0.2983 C   0  0  0  0  0  0  0  0  0  0  0  0
   -1.0050   -0.0591    0.6622 O   0  0  0  0  0  0  0  0  0  0  0  0
   -0.2194    2.9480   -1.3694 C   0  0  0  0  0  0  0  0  0  0  0  0
   -0.2110    3.4504   -3.1072 S   0  0  0  0  0  0  0  0  0  0  0  0
   -2.5850    0.7815   -2.0381 H   0  0  0  0  0  0  0  0  0  0  0  0
   -0.3691    0.8480   -1.8048 H   0  0  0  0  0  0  0  0  0  0  0  0
   -0.7597    3.7176   -0.8086 H   0  0  0  0  0  0  0  0  0  0  0  0
    0.8192    2.9536   -1.0215 H   0  0  0  0  0  0  0  0  0  0  0  0
   -0.0626    2.0106    1.1209 N   0  0  0  0  0  0  0  0  0  0  0  0
    0.1997    1.7736    2.5212 C   0  0  2  0  0  0  0  0  0  0  0  0
    0.0593    3.0996    3.2570 C   0  0  0  0  0  0  0  0  0  0  0  0
    0.3696    4.1795    2.7584 O   0  0  0  0  0  0  0  0  0  0  0  0
    1.5833    1.1787    2.7320 C   0  0  0  0  0  0  0  0  0  0  0  0
    0.2382    2.8967    0.7257 H   0  0  0  0  0  0  0  0  0  0  0  0
   -0.5687    1.0767    2.8733 H   0  0  0  0  0  0  0  0  0  0  0  0
    2.3664    1.8627    2.3851 H   0  0  0  0  0  0  0  0  0  0  0  0
    1.7696    0.9731    3.7913 H   0  0  0  0  0  0  0  0  0  0  0  0
    1.6926    0.2401    2.1781 H   0  0  0  0  0  0  0  0  0  0  0  0
   -0.4126    2.9309    4.5512 N   0  0  0  0  0  0  0  0  0  0  0  0
   -0.5914    4.0342    5.4659 C   0  0  0  0  0  0  0  0  0  0  0  0
   -0.6827    2.0043    4.8678 H   0  0  0  0  0  0  0  0  0  0  0  0
    0.3196    4.1625    6.0689 H   0  0  0  0  0  0  0  0  0  0  0  0
   -0.7865    4.9547    4.8961 H   0  0  0  0  0  0  0  0  0  0  0  0
   -1.4438    3.8260    6.1292 H   0  0  0  0  0  0  0  0  0  0  0  0
  1  3  1  0  0  0  0
  1  7  1  0  0  0  0
  1  2  2  0  0  0  0
 23 25  1  0  0  0  0
 23 29  1  0  0  0  0
 23 24  2  0  0  0  0
 50 51  1  0  0  0  0
 51 59  1  0  0  0  0
 51 52  2  0  0  0  0
  8  9  1  0  0  0  0
  9 17  1  0  0  0  0
  9 10  2  0  0  0  0
 30 31  1  0  0  0  0
 31 39  1  0  0  0  0
 31 32  2  0  0  0  0
 40 41  1  0  0  0  0
 41 49  1  0  0  0  0
 41 42  2  0  0  0  0
 50 53  1  0  0  0  0
 30 33  1  0  0  0  0
 59 60  1  0  0  0  0
 17 18  1  0  0  0  0
  8 11  1  0  0  0  0
 11 12  1  0  0  0  0
 40 43  1  0  0  0  0
 43 44  1  0  0  0  0
 49 50  1  0  0  0  0
  7  8  1  0  0  0  0
 29 30  1  0  0  0  0
 39 40  1  0  0  0  0
 12 44  1  0  0  0  0
  3  4  1  0  0  0  0
  3  5  1  0  0  0  0
  3  6  1  0  0  0  0
 25 26  1  0  0  0  0
 25 27  1  0  0  0  0
 25 28  1  0  0  0  0
 53 56  1  0  0  0  0
 53 57  1  0  0  0  0
 53 58  1  0  0  0  0
 33 36  1  0  0  0  0
 33 37  1  0  0  0  0
 33 38  1  0  0  0  0
 60 62  1  0  0  0  0
 60 63  1  0  0  0  0
 60 64  1  0  0  0  0
 18 20  1  0  0  0  0
 18 21  1  0  0  0  0
 18 22  1  0  0  0  0
 11 15  1  0  0  0  0
 11 16  1  0  0  0  0
 43 47  1  0  0  0  0
 43 48  1  0  0  0  0
 50 55  1  0  0  0  0
  8 14  1  0  0  0  0
 30 35  1  0  0  0  0
 40 46  1  0  0  0  0
 59 61  1  0  0  0  0
 17 19  1  0  0  0  0
  7 13  1  0  0  0  0
 29 34  1  0  0  0  0
 49 54  1  0  0  0  0
 39 45  1  0  0  0  0
M  END
$$$$

  -OEChem-05262214473D

 64 63  0     1  0  0  0  0  0999 V2000
   -0.5263    8.8983   -4.9213 C   0  0  0  0  0  0  0  0  0  0  0  0
   -1.7462    8.9943   -4.9869 O   0  0  0  0  0  0  0  0  0  0  0  0
    0.3117    9.3723   -6.0621 C   0  0  0  0  0  0  0  0  0  0  0  0
    0.4987    8.5797   -6.8043 H   0  0  0  0  0  0  0  0  0  0  0  0
   -0.1670   10.1903   -6.6240 H   0  0  0  0  0  0  0  0  0  0  0  0
    1.3084    9.7538   -5.7882 H   0  0  0  0  0  0  0  0  0  0  0  0
    0.1988    8.3789   -3.8627 N   0  0  0  0  0  0  0  0  0  0  0  0
   -0.4111    7.8673   -2.6616 C   0  0  2  0  0  0  0  0  0  0  0  0
    0.4944    8.1849   -1.4733 C   0  0  0  0  0  0  0  0  0  0  0  0
    1.6096    8.6873   -1.5967 O   0  0  0  0  0  0  0  0  0  0  0  0
   -0.7655    6.3826   -2.7749 C   0  0  0  0  0  0  0  0  0  0  0  0
    0.6810    5.2977   -3.0053 S   0  0  0  0  0  0  0  0  0  0  0  0
    1.2134    8.3572   -3.9365 H   0  0  0  0  0  0  0  0  0  0  0  0
   -1.3377    8.4409   -2.5343 H   0  0  0  0  0  0  0  0  0  0  0  0
   -1.2897    6.0428   -1.8757 H   0  0  0  0  0  0  0  0  0  0  0  0
   -1.4343    6.2226   -3.6275 H   0  0  0  0  0  0  0  0  0  0  0  0
   -0.0790    7.8186   -0.2639 N   0  0  0  0  0  0  0  0  0  0  0  0
    0.5932    7.9953    1.0021 C   0  0  0  0  0  0  0  0  0  0  0  0
   -1.0249    7.4487   -0.2507 H   0  0  0  0  0  0  0  0  0  0  0  0
    1.1402    7.0761    1.2588 H   0  0  0  0  0  0  0  0  0  0  0  0
    1.3008    8.8342    0.9275 H   0  0  0  0  0  0  0  0  0  0  0  0
   -0.1494    8.2104    1.7846 H   0  0  0  0  0  0  0  0  0  0  0  0
   -6.7256    2.0330   -0.2766 C   0  0  0  0  0  0  0  0  0  0  0  0
   -7.1824    1.1039   -0.9322 O   0  0  0  0  0  0  0  0  0  0  0  0
   -7.5276    2.6077    0.8435 C   0  0  0  0  0  0  0  0  0  0  0  0
   -8.1775    3.4344    0.5145 H   0  0  0  0  0  0  0  0  0  0  0  0
   -8.2057    1.8676    1.2980 H   0  0  0  0  0  0  0  0  0  0  0  0
   -6.9411    3.0162    1.6819 H   0  0  0  0  0  0  0  0  0  0  0  0
   -5.4935    2.6382   -0.4627 N   0  0  0  0  0  0  0  0  0  0  0  0
   -4.5619    2.2388   -1.4845 C   0  0  2  0  0  0  0  0  0  0  0  0
   -3.1535    2.4674   -0.9521 C   0  0  0  0  0  0  0  0  0  0  0  0
   -2.8634    3.3945   -0.1987 O   0  0  0  0  0  0  0  0  0  0  0  0
   -4.7883    3.0138   -2.7732 C   0  0  0  0  0  0  0  0  0  0  0  0
   -5.2337    3.4049    0.1551 H   0  0  0  0  0  0  0  0  0  0  0  0
   -4.7192    1.1682   -1.6549 H   0  0  0  0  0  0  0  0  0  0  0  0
   -4.6352    4.0886   -2.6221 H   0  0  0  0  0  0  0  0  0  0  0  0
   -4.0976    2.6887   -3.5582 H   0  0  0  0  0  0  0  0  0  0  0  0
   -5.8111    2.8719   -3.1387 H   0  0  0  0  0  0  0  0  0  0  0  0
   -2.2466    1.5400   -1.4507 N   0  0  0  0  0  0  0  0  0  0  0  0
   -0.8424    1.5707   -1.1286 C   0  0  2  0  0  0  0  0  0  0  0  0
   -0.6511    1.0606    0.2983 C   0  0  0  0  0  0  0  0  0  0  0  0
   -0.7508   -0.1260    0.6042 O   0  0  0  0  0  0  0  0  0  0  0  0
   -0.2194    2.9480   -1.3694 C   0  0  0  0  0  0  0  0  0  0  0  0
   -0.2110    3.4504   -3.1072 S   0  0  0  0  0  0  0  0  0  0  0  0
   -2.5850    0.7815   -2.0381 H   0  0  0  0  0  0  0  0  0  0  0  0
   -0.3691    0.8480   -1.8048 H   0  0  0  0  0  0  0  0  0  0  0  0
   -0.7597    3.7176   -0.8086 H   0  0  0  0  0  0  0  0  0  0  0  0
    0.8192    2.9536   -1.0215 H   0  0  0  0  0  0  0  0  0  0  0  0
   -0.3812    2.0879    1.1912 N   0  0  0  0  0  0  0  0  0  0  0  0
   -0.1856    1.8608    2.6040 C   0  0  2  0  0  0  0  0  0  0  0  0
   -0.7044    3.0812    3.3528 C   0  0  0  0  0  0  0  0  0  0  0  0
   -0.6260    4.2245    2.9080 O   0  0  0  0  0  0  0  0  0  0  0  0
    1.2789    1.6074    2.9261 C   0  0  0  0  0  0  0  0  0  0  0  0
   -0.2735    3.0364    0.8443 H   0  0  0  0  0  0  0  0  0  0  0  0
   -0.7877    0.9852    2.8699 H   0  0  0  0  0  0  0  0  0  0  0  0
    1.8980    2.4739    2.6664 H   0  0  0  0  0  0  0  0  0  0  0  0
    1.4216    1.4072    3.9932 H   0  0  0  0  0  0  0  0  0  0  0  0
    1.6585    0.7473    2.3640 H   0  0  0  0  0  0  0  0  0  0  0  0
   -1.2262    2.7485    4.5951 N   0  0  0  0  0  0  0  0  0  0  0  0
   -1.7427    3.7361    5.5137 C   0  0  0  0  0  0  0  0  0  0  0  0
   -1.2880    1.7714    4.8656 H   0  0  0  0  0  0  0  0  0  0  0  0
   -0.9433    4.0535    6.1993 H   0  0  0  0  0  0  0  0  0  0  0  0
   -2.1082    4.6064    4.9488 H   0  0  0  0  0  0  0  0  0  0  0  0
   -2.5706    3.3007    6.0925 H   0  0  0  0  0  0  0  0  0  0  0  0
  1  3  1  0  0  0  0
  1  7  1  0  0  0  0
  1  2  2  0  0  0  0
 23 25  1  0  0  0  0
 23 29  1  0  0  0  0
 23 24  2  0  0  0  0
 50 51  1  0  0  0  0
 51 59  1  0  0  0  0
 51 52  2  0  0  0  0
  8  9  1  0  0  0  0
  9 17  1  0  0  0  0
  9 10  2  0  0  0  0
 30 31  1  0  0  0  0
 31 39  1  0  0  0  0
 31 32  2  0  0  0  0
 40 41  1  0  0  0  0
 41 49  1  0  0  0  0
 41 42  2  0  0  0  0
 50 53  1  0  0  0  0
 30 33  1  0  0  0  0
 59 60  1  0  0  0  0
 17 18  1  0  0  0  0
  8 11  1  0  0  0  0
 11 12  1  0  0  0  0
 40 43  1  0  0  0  0
 43 44  1  0  0  0  0
 49 50  1  0  0  0  0
  7  8  1  0  0  0  0
 29 30  1  0  0  0  0
 39 40  1  0  0  0  0
 12 44  1  0  0  0  0
  3  4  1  0  0  0  0
  3  5  1  0  0  0  0
  3  6  1  0  0  0  0
 25 26  1  0  0  0  0
 25 27  1  0  0  0  0
 25 28  1  0  0  0  0
 53 56  1  0  0  0  0
 53 57  1  0  0  0  0
 53 58  1  0  0  0  0
 33 36  1  0  0  0  0
 33 37  1  0  0  0  0
 33 38  1  0  0  0  0
 60 62  1  0  0  0  0
 60 63  1  0  0  0  0
 60 64  1  0  0  0  0
 18 20  1  0  0  0  0
 18 21  1  0  0  0  0
 18 22  1  0  0  0  0
 11 15  1  0  0  0  0
 11 16  1  0  0  0  0
 43 47  1  0  0  0  0
 43 48  1  0  0  0  0
 50 55  1  0  0  0  0
  8 14  1  0  0  0  0
 30 35  1  0  0  0  0
 40 46  1  0  0  0  0
 59 61  1  0  0  0  0
 17 19  1  0  0  0  0
  7 13  1  0  0  0  0
 29 34  1  0  0  0  0
 49 54  1  0  0  0  0
 39 45  1  0  0  0  0
M  END
$$$$

  -OEChem-05262214473D

 64 63  0     1  0  0  0  0  0999 V2000
   -0.5263    8.8983   -4.9213 C   0  0  0  0  0  0  0  0  0  0  0  0
   -1.7462    8.9943   -4.9869 O   0  0  0  0  0  0  0  0  0  0  0  0
    0.3117    9.3723   -6.0621 C   0  0  0  0  0  0  0  0  0  0  0  0
    0.4987    8.5797   -6.8043 H   0  0  0  0  0  0  0  0  0  0  0  0
   -0.1670   10.1903   -6.6240 H   0  0  0  0  0  0  0  0  0  0  0  0
    1.3084    9.7538   -5.7882 H   0  0  0  0  0  0  0  0  0  0  0  0
    0.1988    8.3789   -3.8627 N   0  0  0  0  0  0  0  0  0  0  0  0
   -0.4111    7.8673   -2.6616 C   0  0  2  0  0  0  0  0  0  0  0  0
    0.4944    8.1849   -1.4733 C   0  0  0  0  0  0  0  0  0  0  0  0
    1.6096    8.6873   -1.5967 O   0  0  0  0  0  0  0  0  0  0  0  0
   -0.7655    6.3826   -2.7749 C   0  0  0  0  0  0  0  0  0  0  0  0
    0.6810    5.2977   -3.0053 S   0  0  0  0  0  0  0  0  0  0  0  0
    1.2134    8.3572   -3.9365 H   0  0  0  0  0  0  0  0  0  0  0  0
   -1.3377    8.4409   -2.5343 H   0  0  0  0  0  0  0  0  0  0  0  0
   -1.2897    6.0428   -1.8757 H   0  0  0  0  0  0  0  0  0  0  0  0
   -1.4343    6.2226   -3.6275 H   0  0  0  0  0  0  0  0  0  0  0  0
   -0.0790    7.8186   -0.2639 N   0  0  0  0  0  0  0  0  0  0  0  0
    0.5932    7.9953    1.0021 C   0  0  0  0  0  0  0  0  0  0  0  0
   -1.0249    7.4487   -0.2507 H   0  0  0  0  0  0  0  0  0  0  0  0
    1.1402    7.0761    1.2588 H   0  0  0  0  0  0  0  0  0  0  0  0
    1.3008    8.8342    0.9275 H   0  0  0  0  0  0  0  0  0  0  0  0
   -0.1494    8.2104    1.7846 H   0  0  0  0  0  0  0  0  0  0  0  0
   -6.7256    2.0330   -0.2766 C   0  0  0  0  0  0  0  0  0  0  0  0
   -7.1824    1.1039   -0.9322 O   0  0  0  0  0  0  0  0  0  0  0  0
   -7.5276    2.6077    0.8435 C   0  0  0  0  0  0  0  0  0  0  0  0
   -8.1775    3.4344    0.5145 H   0  0  0  0  0  0  0  0  0  0  0  0
   -8.2057    1.8676    1.2980 H   0  0  0  0  0  0  0  0  0  0  0  0
   -6.9411    3.0162    1.6819 H   0  0  0  0  0  0  0  0  0  0  0  0
   -5.4935    2.6382   -0.4627 N   0  0  0  0  0  0  0  0  0  0  0  0
   -4.5619    2.2388   -1.4845 C   0  0  2  0  0  0  0  0  0  0  0  0
   -3.1535    2.4674   -0.9521 C   0  0  0  0  0  0  0  0  0  0  0  0
   -2.8634    3.3945   -0.1987 O   0  0  0  0  0  0  0  0  0  0  0  0
   -4.7883    3.0138   -2.7732 C   0  0  0  0  0  0  0  0  0  0  0  0
   -5.2337    3.4049    0.1551 H   0  0  0  0  0  0  0  0  0  0  0  0
   -4.7192    1.1682   -1.6549 H   0  0  0  0  0  0  0  0  0  0  0  0
   -4.6352    4.0886   -2.6221 H   0  0  0  0  0  0  0  0  0  0  0  0
   -4.0976    2.6887   -3.5582 H   0  0  0  0  0  0  0  0  0  0  0  0
   -5.8111    2.8719   -3.1387 H   0  0  0  0  0  0  0  0  0  0  0  0
   -2.2466    1.5400   -1.4507 N   0  0  0  0  0  0  0  0  0  0  0  0
   -0.8424    1.5707   -1.1286 C   0  0  2  0  0  0  0  0  0  0  0  0
   -0.6511    1.0606    0.2983 C   0  0  0  0  0  0  0  0  0  0  0  0
   -0.4841   -0.1272    0.5680 O   0  0  0  0  0  0  0  0  0  0  0  0
   -0.2194    2.9480   -1.3694 C   0  0  0  0  0  0  0  0  0  0  0  0
   -0.2110    3.4504   -3.1072 S   0  0  0  0  0  0  0  0  0  0  0  0
   -2.5850    0.7815   -2.0381 H   0  0  0  0  0  0  0  0  0  0  0  0
   -0.3691    0.8480   -1.8048 H   0  0  0  0  0  0  0  0  0  0  0  0
   -0.7597    3.7176   -0.8086 H   0  0  0  0  0  0  0  0  0  0  0  0
    0.8192    2.9536   -1.0215 H   0  0  0  0  0  0  0  0  0  0  0  0
   -0.7138    2.0832    1.2341 N   0  0  0  0  0  0  0  0  0  0  0  0
   -0.5859    1.8492    2.6535 C   0  0  2  0  0  0  0  0  0  0  0  0
   -1.4459    2.8758    3.3788 C   0  0  0  0  0  0  0  0  0  0  0  0
   -1.6116    4.0224    2.9679 O   0  0  0  0  0  0  0  0  0  0  0  0
    0.8645    1.9417    3.1012 C   0  0  0  0  0  0  0  0  0  0  0  0
   -0.8117    3.0439    0.9192 H   0  0  0  0  0  0  0  0  0  0  0  0
   -0.9769    0.8439    2.8448 H   0  0  0  0  0  0  0  0  0  0  0  0
    1.2735    2.9419    2.9175 H   0  0  0  0  0  0  0  0  0  0  0  0
    0.9631    1.7358    4.1721 H   0  0  0  0  0  0  0  0  0  0  0  0
    1.4869    1.2230    2.5571 H   0  0  0  0  0  0  0  0  0  0  0  0
   -1.9718    2.3742    4.5612 N   0  0  0  0  0  0  0  0  0  0  0  0
   -2.7869    3.1682    5.4506 C   0  0  0  0  0  0  0  0  0  0  0  0
   -1.8161    1.4002    4.8037 H   0  0  0  0  0  0  0  0  0  0  0  0
   -2.1480    3.6386    6.2125 H   0  0  0  0  0  0  0  0  0  0  0  0
   -3.3052    3.9486    4.8741 H   0  0  0  0  0  0  0  0  0  0  0  0
   -3.5289    2.5221    5.9426 H   0  0  0  0  0  0  0  0  0  0  0  0
  1  3  1  0  0  0  0
  1  7  1  0  0  0  0
  1  2  2  0  0  0  0
 23 25  1  0  0  0  0
 23 29  1  0  0  0  0
 23 24  2  0  0  0  0
 50 51  1  0  0  0  0
 51 59  1  0  0  0  0
 51 52  2  0  0  0  0
  8  9  1  0  0  0  0
  9 17  1  0  0  0  0
  9 10  2  0  0  0  0
 30 31  1  0  0  0  0
 31 39  1  0  0  0  0
 31 32  2  0  0  0  0
 40 41  1  0  0  0  0
 41 49  1  0  0  0  0
 41 42  2  0  0  0  0
 50 53  1  0  0  0  0
 30 33  1  0  0  0  0
 59 60  1  0  0  0  0
 17 18  1  0  0  0  0
  8 11  1  0  0  0  0
 11 12  1  0  0  0  0
 40 43  1  0  0  0  0
 43 44  1  0  0  0  0
 49 50  1  0  0  0  0
  7  8  1  0  0  0  0
 29 30  1  0  0  0  0
 39 40  1  0  0  0  0
 12 44  1  0  0  0  0
  3  4  1  0  0  0  0
  3  5  1  0  0  0  0
  3  6  1  0  0  0  0
 25 26  1  0  0  0  0
 25 27  1  0  0  0  0
 25 28  1  0  0  0  0
 53 56  1  0  0  0  0
 53 57  1  0  0  0  0
 53 58  1  0  0  0  0
 33 36  1  0  0  0  0
 33 37  1  0  0  0  0
 33 38  1  0  0  0  0
 60 62  1  0  0  0  0
 60 63  1  0  0  0  0
 60 64  1  0  0  0  0
 18 20  1  0  0  0  0
 18 21  1  0  0  0  0
 18 22  1  0  0  0  0
 11 15  1  0  0  0  0
 11 16  1  0  0  0  0
 43 47  1  0  0  0  0
 43 48  1  0  0  0  0
 50 55  1  0  0  0  0
  8 14  1  0  0  0  0
 30 35  1  0  0  0  0
 40 46  1  0  0  0  0
 59 61  1  0  0  0  0
 17 19  1  0  0  0  0
  7 13  1  0  0  0  0
 29 34  1  0  0  0  0
 49 54  1  0  0  0  0
 39 45  1  0  0  0  0
M  END
$$$$

  -OEChem-05262214473D

 64 63  0     1  0  0  0  0  0999 V2000
   -0.5263    8.8983   -4.9213 C   0  0  0  0  0  0  0  0  0  0  0  0
   -1.7462    8.9943   -4.9869 O   0  0  0  0  0  0  0  0  0  0  0  0
    0.3117    9.3723   -6.0621 C   0  0  0  0  0  0  0  0  0  0  0  0
    0.4987    8.5797   -6.8043 H   0  0  0  0  0  0  0  0  0  0  0  0
   -0.1670   10.1903   -6.6240 H   0  0  0  0  0  0  0  0  0  0  0  0
    1.3084    9.7538   -5.7882 H   0  0  0  0  0  0  0  0  0  0  0  0
    0.1988    8.3789   -3.8627 N   0  0  0  0  0  0  0  0  0  0  0  0
   -0.4111    7.8673   -2.6616 C   0  0  2  0  0  0  0  0  0  0  0  0
    0.4944    8.1849   -1.4733 C   0  0  0  0  0  0  0  0  0  0  0  0
    1.6096    8.6873   -1.5967 O   0  0  0  0  0  0  0  0  0  0  0  0
   -0.7655    6.3826   -2.7749 C   0  0  0  0  0  0  0  0  0  0  0  0
    0.6810    5.2977   -3.0053 S   0  0  0  0  0  0  0  0  0  0  0  0
    1.2134    8.3572   -3.9365 H   0  0  0  0  0  0  0  0  0  0  0  0
   -1.3377    8.4409   -2.5343 H   0  0  0  0  0  0  0  0  0  0  0  0
   -1.2897    6.0428   -1.8757 H   0  0  0  0  0  0  0  0  0  0  0  0
   -1.4343    6.2226   -3.6275 H   0  0  0  0  0  0  0  0  0  0  0  0
   -0.0790    7.8186   -0.2639 N   0  0  0  0  0  0  0  0  0  0  0  0
    0.5932    7.9953    1.0021 C   0  0  0  0  0  0  0  0  0  0  0  0
   -1.0249    7.4487   -0.2507 H   0  0  0  0  0  0  0  0  0  0  0  0
    1.1402    7.0761    1.2588 H   0  0  0  0  0  0  0  0  0  0  0  0
    1.3008    8.8342    0.9275 H   0  0  0  0  0  0  0  0  0  0  0  0
   -0.1494    8.2104    1.7846 H   0  0  0  0  0  0  0  0  0  0  0  0
   -6.7256    2.0330   -0.2766 C   0  0  0  0  0  0  0  0  0  0  0  0
   -7.1824    1.1039   -0.9322 O   0  0  0  0  0  0  0  0  0  0  0  0
   -7.5276    2.6077    0.8435 C   0  0  0  0  0  0  0  0  0  0  0  0
   -8.1775    3.4344    0.5145 H   0  0  0  0  0  0  0  0  0  0  0  0
   -8.2057    1.8676    1.2980 H   0  0  0  0  0  0  0  0  0  0  0  0
   -6.9411    3.0162    1.6819 H   0  0  0  0  0  0  0  0  0  0  0  0
   -5.4935    2.6382   -0.4627 N   0  0  0  0  0  0  0  0  0  0  0  0
   -4.5619    2.2388   -1.4845 C   0  0  2  0  0  0  0  0  0  0  0  0
   -3.1535    2.4674   -0.9521 C   0  0  0  0  0  0  0  0  0  0  0  0
   -2.8634    3.3945   -0.1987 O   0  0  0  0  0  0  0  0  0  0  0  0
   -4.7883    3.0138   -2.7732 C   0  0  0  0  0  0  0  0  0  0  0  0
   -5.2337    3.4049    0.1551 H   0  0  0  0  0  0  0  0  0  0  0  0
   -4.7192    1.1682   -1.6549 H   0  0  0  0  0  0  0  0  0  0  0  0
   -4.6352    4.0886   -2.6221 H   0  0  0  0  0  0  0  0  0  0  0  0
   -4.0976    2.6887   -3.5582 H   0  0  0  0  0  0  0  0  0  0  0  0
   -5.8111    2.8719   -3.1387 H   0  0  0  0  0  0  0  0  0  0  0  0
   -2.2466    1.5400   -1.4507 N   0  0  0  0  0  0  0  0  0  0  0  0
   -0.8424    1.5707   -1.1286 C   0  0  2  0  0  0  0  0  0  0  0  0
   -0.6511    1.0606    0.2983 C   0  0  0  0  0  0  0  0  0  0  0  0
   -0.2231   -0.0627    0.5561 O   0  0  0  0  0  0  0  0  0  0  0  0
   -0.2194    2.9480   -1.3694 C   0  0  0  0  0  0  0  0  0  0  0  0
   -0.2110    3.4504   -3.1072 S   0  0  0  0  0  0  0  0  0  0  0  0
   -2.5850    0.7815   -2.0381 H   0  0  0  0  0  0  0  0  0  0  0  0
   -0.3691    0.8480   -1.8048 H   0  0  0  0  0  0  0  0  0  0  0  0
   -0.7597    3.7176   -0.8086 H   0  0  0  0  0  0  0  0  0  0  0  0
    0.8192    2.9536   -1.0215 H   0  0  0  0  0  0  0  0  0  0  0  0
   -1.0376    1.9969    1.2467 N   0  0  0  0  0  0  0  0  0  0  0  0
   -0.9741    1.7396    2.6664 C   0  0  2  0  0  0  0  0  0  0  0  0
   -2.1148    2.4971    3.3331 C   0  0  0  0  0  0  0  0  0  0  0  0
   -2.5199    3.5869    2.9340 O   0  0  0  0  0  0  0  0  0  0  0  0
    0.3683    2.1586    3.2453 C   0  0  0  0  0  0  0  0  0  0  0  0
   -1.3399    2.9185    0.9452 H   0  0  0  0  0  0  0  0  0  0  0  0
   -1.1232    0.6625    2.7996 H   0  0  0  0  0  0  0  0  0  0  0  0
    0.5354    3.2348    3.1212 H   0  0  0  0  0  0  0  0  0  0  0  0
    0.4253    1.9366    4.3160 H   0  0  0  0  0  0  0  0  0  0  0  0
    1.1894    1.6348    2.7442 H   0  0  0  0  0  0  0  0  0  0  0  0
   -2.5985    1.8334    4.4519 N   0  0  0  0  0  0  0  0  0  0  0  0
   -3.6527    2.3692    5.2811 C   0  0  0  0  0  0  0  0  0  0  0  0
   -2.2312    0.9159    4.6862 H   0  0  0  0  0  0  0  0  0  0  0  0
   -3.2125    2.9462    6.1077 H   0  0  0  0  0  0  0  0  0  0  0  0
   -4.2959    3.0262    4.6772 H   0  0  0  0  0  0  0  0  0  0  0  0
   -4.2532    1.5431    5.6897 H   0  0  0  0  0  0  0  0  0  0  0  0
  1  3  1  0  0  0  0
  1  7  1  0  0  0  0
  1  2  2  0  0  0  0
 23 25  1  0  0  0  0
 23 29  1  0  0  0  0
 23 24  2  0  0  0  0
 50 51  1  0  0  0  0
 51 59  1  0  0  0  0
 51 52  2  0  0  0  0
  8  9  1  0  0  0  0
  9 17  1  0  0  0  0
  9 10  2  0  0  0  0
 30 31  1  0  0  0  0
 31 39  1  0  0  0  0
 31 32  2  0  0  0  0
 40 41  1  0  0  0  0
 41 49  1  0  0  0  0
 41 42  2  0  0  0  0
 50 53  1  0  0  0  0
 30 33  1  0  0  0  0
 59 60  1  0  0  0  0
 17 18  1  0  0  0  0
  8 11  1  0  0  0  0
 11 12  1  0  0  0  0
 40 43  1  0  0  0  0
 43 44  1  0  0  0  0
 49 50  1  0  0  0  0
  7  8  1  0  0  0  0
 29 30  1  0  0  0  0
 39 40  1  0  0  0  0
 12 44  1  0  0  0  0
  3  4  1  0  0  0  0
  3  5  1  0  0  0  0
  3  6  1  0  0  0  0
 25 26  1  0  0  0  0
 25 27  1  0  0  0  0
 25 28  1  0  0  0  0
 53 56  1  0  0  0  0
 53 57  1  0  0  0  0
 53 58  1  0  0  0  0
 33 36  1  0  0  0  0
 33 37  1  0  0  0  0
 33 38  1  0  0  0  0
 60 62  1  0  0  0  0
 60 63  1  0  0  0  0
 60 64  1  0  0  0  0
 18 20  1  0  0  0  0
 18 21  1  0  0  0  0
 18 22  1  0  0  0  0
 11 15  1  0  0  0  0
 11 16  1  0  0  0  0
 43 47  1  0  0  0  0
 43 48  1  0  0  0  0
 50 55  1  0  0  0  0
  8 14  1  0  0  0  0
 30 35  1  0  0  0  0
 40 46  1  0  0  0  0
 59 61  1  0  0  0  0
 17 19  1  0  0  0  0
  7 13  1  0  0  0  0
 29 34  1  0  0  0  0
 49 54  1  0  0  0  0
 39 45  1  0  0  0  0
M  END
$$$$

  -OEChem-05262214473D

 64 63  0     1  0  0  0  0  0999 V2000
   -0.5263    8.8983   -4.9213 C   0  0  0  0  0  0  0  0  0  0  0  0
   -1.7462    8.9943   -4.9869 O   0  0  0  0  0  0  0  0  0  0  0  0
    0.3117    9.3723   -6.0621 C   0  0  0  0  0  0  0  0  0  0  0  0
    0.4987    8.5797   -6.8043 H   0  0  0  0  0  0  0  0  0  0  0  0
   -0.1670   10.1903   -6.6240 H   0  0  0  0  0  0  0  0  0  0  0  0
    1.3084    9.7538   -5.7882 H   0  0  0  0  0  0  0  0  0  0  0  0
    0.1988    8.3789   -3.8627 N   0  0  0  0  0  0  0  0  0  0  0  0
   -0.4111    7.8673   -2.6616 C   0  0  2  0  0  0  0  0  0  0  0  0
    0.4944    8.1849   -1.4733 C   0  0  0  0  0  0  0  0  0  0  0  0
    1.6096    8.6873   -1.5967 O   0  0  0  0  0  0  0  0  0  0  0  0
   -0.7655    6.3826   -2.7749 C   0  0  0  0  0  0  0  0  0  0  0  0
    0.6810    5.2977   -3.0053 S   0  0  0  0  0  0  0  0  0  0  0  0
    1.2134    8.3572   -3.9365 H   0  0  0  0  0  0  0  0  0  0  0  0
   -1.3377    8.4409   -2.5343 H   0  0  0  0  0  0  0  0  0  0  0  0
   -1.2897    6.0428   -1.8757 H   0  0  0  0  0  0  0  0  0  0  0  0
   -1.4343    6.2226   -3.6275 H   0  0  0  0  0  0  0  0  0  0  0  0
   -0.0790    7.8186   -0.2639 N   0  0  0  0  0  0  0  0  0  0  0  0
    0.5932    7.9953    1.0021 C   0  0  0  0  0  0  0  0  0  0  0  0
   -1.0249    7.4487   -0.2507 H   0  0  0  0  0  0  0  0  0  0  0  0
    1.1402    7.0761    1.2588 H   0  0  0  0  0  0  0  0  0  0  0  0
    1.3008    8.8342    0.9275 H   0  0  0  0  0  0  0  0  0  0  0  0
   -0.1494    8.2104    1.7846 H   0  0  0  0  0  0  0  0  0  0  0  0
   -6.7256    2.0330   -0.2766 C   0  0  0  0  0  0  0  0  0  0  0  0
   -7.1824    1.1039   -0.9322 O   0  0  0  0  0  0  0  0  0  0  0  0
   -7.5276    2.6077    0.8435 C   0  0  0  0  0  0  0  0  0  0  0  0
   -8.1775    3.4344    0.5145 H   0  0  0  0  0  0  0  0  0  0  0  0
   -8.2057    1.8676    1.2980 H   0  0  0  0  0  0  0  0  0  0  0  0
   -6.9411    3.0162    1.6819 H   0  0  0  0  0  0  0  0  0  0  0  0
   -5.4935    2.6382   -0.4627 N   0  0  0  0  0  0  0  0  0  0  0  0
   -4.5619    2.2388   -1.4845 C   0  0  2  0  0  0  0  0  0  0  0  0
   -3.1535    2.4674   -0.9521 C   0  0  0  0  0  0  0  0  0  0  0  0
   -2.8634    3.3945   -0.1987 O   0  0  0  0  0  0  0  0  0  0  0  0
   -4.7883    3.0138   -2.7732 C   0  0  0  0  0  0  0  0  0  0  0  0
   -5.2337    3.4049    0.1551 H   0  0  0  0  0  0  0  0  0  0  0  0
   -4.7192    1.1682   -1.6549 H   0  0  0  0  0  0  0  0  0  0  0  0
   -4.6352    4.0886   -2.6221 H   0  0  0  0  0  0  0  0  0  0  0  0
   -4.0976    2.6887   -3.5582 H   0  0  0  0  0  0  0  0  0  0  0  0
   -5.8111    2.8719   -3.1387 H   0  0  0  0  0  0  0  0  0  0  0  0
   -2.2466    1.5400   -1.4507 N   0  0  0  0  0  0  0  0  0  0  0  0
   -0.8424    1.5707   -1.1286 C   0  0  2  0  0  0  0  0  0  0  0  0
   -0.6511    1.0606    0.2983 C   0  0  0  0  0  0  0  0  0  0  0  0
    0.0145    0.0631    0.5692 O   0  0  0  0  0  0  0  0  0  0  0  0
   -0.2194    2.9480   -1.3694 C   0  0  0  0  0  0  0  0  0  0  0  0
   -0.2110    3.4504   -3.1072 S   0  0  0  0  0  0  0  0  0  0  0  0
   -2.5850    0.7815   -2.0381 H   0  0  0  0  0  0  0  0  0  0  0  0
   -0.3691    0.8480   -1.8048 H   0  0  0  0  0  0  0  0  0  0  0  0
   -0.7597    3.7176   -0.8086 H   0  0  0  0  0  0  0  0  0  0  0  0
    0.8192    2.9536   -1.0215 H   0  0  0  0  0  0  0  0  0  0  0  0
   -1.3305    1.8349    1.2280 N   0  0  0  0  0  0  0  0  0  0  0  0
   -1.3237    1.5394    2.6417 C   0  0  2  0  0  0  0  0  0  0  0  0
   -2.6653    1.9712    3.2189 C   0  0  0  0  0  0  0  0  0  0  0  0
   -3.2890    2.9478    2.8086 O   0  0  0  0  0  0  0  0  0  0  0  0
   -0.1760    2.2435    3.3486 C   0  0  0  0  0  0  0  0  0  0  0  0
   -1.8220    2.6689    0.9205 H   0  0  0  0  0  0  0  0  0  0  0  0
   -1.2168    0.4534    2.7373 H   0  0  0  0  0  0  0  0  0  0  0  0
   -0.2660    3.3326    3.2636 H   0  0  0  0  0  0  0  0  0  0  0  0
   -0.1552    1.9959    4.4150 H   0  0  0  0  0  0  0  0  0  0  0  0
    0.7863    1.9545    2.9125 H   0  0  0  0  0  0  0  0  0  0  0  0
   -3.0636    1.1632    4.2746 N   0  0  0  0  0  0  0  0  0  0  0  0
   -4.2812    1.3935    5.0165 C   0  0  0  0  0  0  0  0  0  0  0  0
   -2.5048    0.3516    4.5212 H   0  0  0  0  0  0  0  0  0  0  0  0
   -4.0642    2.0233    5.8919 H   0  0  0  0  0  0  0  0  0  0  0  0
   -5.0128    1.9021    4.3714 H   0  0  0  0  0  0  0  0  0  0  0  0
   -4.6944    0.4306    5.3511 H   0  0  0  0  0  0  0  0  0  0  0  0
  1  3  1  0  0  0  0
  1  7  1  0  0  0  0
  1  2  2  0  0  0  0
 23 25  1  0  0  0  0
 23 29  1  0  0  0  0
 23 24  2  0  0  0  0
 50 51  1  0  0  0  0
 51 59  1  0  0  0  0
 51 52  2  0  0  0  0
  8  9  1  0  0  0  0
  9 17  1  0  0  0  0
  9 10  2  0  0  0  0
 30 31  1  0  0  0  0
 31 39  1  0  0  0  0
 31 32  2  0  0  0  0
 40 41  1  0  0  0  0
 41 49  1  0  0  0  0
 41 42  2  0  0  0  0
 50 53  1  0  0  0  0
 30 33  1  0  0  0  0
 59 60  1  0  0  0  0
 17 18  1  0  0  0  0
  8 11  1  0  0  0  0
 11 12  1  0  0  0  0
 40 43  1  0  0  0  0
 43 44  1  0  0  0  0
 49 50  1  0  0  0  0
  7  8  1  0  0  0  0
 29 30  1  0  0  0  0
 39 40  1  0  0  0  0
 12 44  1  0  0  0  0
  3  4  1  0  0  0  0
  3  5  1  0  0  0  0
  3  6  1  0  0  0  0
 25 26  1  0  0  0  0
 25 27  1  0  0  0  0
 25 28  1  0  0  0  0
 53 56  1  0  0  0  0
 53 57  1  0  0  0  0
 53 58  1  0  0  0  0
 33 36  1  0  0  0  0
 33 37  1  0  0  0  0
 33 38  1  0  0  0  0
 60 62  1  0  0  0  0
 60 63  1  0  0  0  0
 60 64  1  0  0  0  0
 18 20  1  0  0  0  0
 18 21  1  0  0  0  0
 18 22  1  0  0  0  0
 11 15  1  0  0  0  0
 11 16  1  0  0  0  0
 43 47  1  0  0  0  0
 43 48  1  0  0  0  0
 50 55  1  0  0  0  0
  8 14  1  0  0  0  0
 30 35  1  0  0  0  0
 40 46  1  0  0  0  0
 59 61  1  0  0  0  0
 17 19  1  0  0  0  0
  7 13  1  0  0  0  0
 29 34  1  0  0  0  0
 49 54  1  0  0  0  0
 39 45  1  0  0  0  0
M  END
$$$$

  -OEChem-05262214473D

 64 63  0     1  0  0  0  0  0999 V2000
   -0.5263    8.8983   -4.9213 C   0  0  0  0  0  0  0  0  0  0  0  0
   -1.7462    8.9943   -4.9869 O   0  0  0  0  0  0  0  0  0  0  0  0
    0.3117    9.3723   -6.0621 C   0  0  0  0  0  0  0  0  0  0  0  0
    0.4987    8.5797   -6.8043 H   0  0  0  0  0  0  0  0  0  0  0  0
   -0.1670   10.1903   -6.6240 H   0  0  0  0  0  0  0  0  0  0  0  0
    1.3084    9.7538   -5.7882 H   0  0  0  0  0  0  0  0  0  0  0  0
    0.1988    8.3789   -3.8627 N   0  0  0  0  0  0  0  0  0  0  0  0
   -0.4111    7.8673   -2.6616 C   0  0  2  0  0  0  0  0  0  0  0  0
    0.4944    8.1849   -1.4733 C   0  0  0  0  0  0  0  0  0  0  0  0
    1.6096    8.6873   -1.5967 O   0  0  0  0  0  0  0  0  0  0  0  0
   -0.7655    6.3826   -2.7749 C   0  0  0  0  0  0  0  0  0  0  0  0
    0.6810    5.2977   -3.0053 S   0  0  0  0  0  0  0  0  0  0  0  0
    1.2134    8.3572   -3.9365 H   0  0  0  0  0  0  0  0  0  0  0  0
   -1.3377    8.4409   -2.5343 H   0  0  0  0  0  0  0  0  0  0  0  0
   -1.2897    6.0428   -1.8757 H   0  0  0  0  0  0  0  0  0  0  0  0
   -1.4343    6.2226   -3.6275 H   0  0  0  0  0  0  0  0  0  0  0  0
   -0.0790    7.8186   -0.2639 N   0  0  0  0  0  0  0  0  0  0  0  0
    0.5932    7.9953    1.0021 C   0  0  0  0  0  0  0  0  0  0  0  0
   -1.0249    7.4487   -0.2507 H   0  0  0  0  0  0  0  0  0  0  0  0
    1.1402    7.0761    1.2588 H   0  0  0  0  0  0  0  0  0  0  0  0
    1.3008    8.8342    0.9275 H   0  0  0  0  0  0  0  0  0  0  0  0
   -0.1494    8.2104    1.7846 H   0  0  0  0  0  0  0  0  0  0  0  0
   -6.7256    2.0330   -0.2766 C   0  0  0  0  0  0  0  0  0  0  0  0
   -7.1824    1.1039   -0.9322 O   0  0  0  0  0  0  0  0  0  0  0  0
   -7.5276    2.6077    0.8435 C   0  0  0  0  0  0  0  0  0  0  0  0
   -8.1775    3.4344    0.5145 H   0  0  0  0  0  0  0  0  0  0  0  0
   -8.2057    1.8676    1.2980 H   0  0  0  0  0  0  0  0  0  0  0  0
   -6.9411    3.0162    1.6819 H   0  0  0  0  0  0  0  0  0  0  0  0
   -5.4935    2.6382   -0.4627 N   0  0  0  0  0  0  0  0  0  0  0  0
   -4.5619    2.2388   -1.4845 C   0  0  2  0  0  0  0  0  0  0  0  0
   -3.1535    2.4674   -0.9521 C   0  0  0  0  0  0  0  0  0  0  0  0
   -2.8634    3.3945   -0.1987 O   0  0  0  0  0  0  0  0  0  0  0  0
   -4.7883    3.0138   -2.7732 C   0  0  0  0  0  0  0  0  0  0  0  0
   -5.2337    3.4049    0.1551 H   0  0  0  0  0  0  0  0  0  0  0  0
   -4.7192    1.1682   -1.6549 H   0  0  0  0  0  0  0  0  0  0  0  0
   -4.6352    4.0886   -2.6221 H   0  0  0  0  0  0  0  0  0  0  0  0
   -4.0976    2.6887   -3.5582 H   0  0  0  0  0  0  0  0  0  0  0  0
   -5.8111    2.8719   -3.1387 H   0  0  0  0  0  0  0  0  0  0  0  0
   -2.2466    1.5400   -1.4507 N   0  0  0  0  0  0  0  0  0  0  0  0
   -0.8424    1.5707   -1.1286 C   0  0  2  0  0  0  0  0  0  0  0  0
   -0.6511    1.0606    0.2983 C   0  0  0  0  0  0  0  0  0  0  0  0
    0.2125    0.2416    0.6065 O   0  0  0  0  0  0  0  0  0  0  0  0
   -0.2194    2.9480   -1.3694 C   0  0  0  0  0  0  0  0  0  0  0  0
   -0.2110    3.4504   -3.1072 S   0  0  0  0  0  0  0  0  0  0  0  0
   -2.5850    0.7815   -2.0381 H   0  0  0  0  0  0  0  0  0  0  0  0
   -0.3691    0.8480   -1.8048 H   0  0  0  0  0  0  0  0  0  0  0  0
   -0.7597    3.7176   -0.8086 H   0  0  0  0  0  0  0  0  0  0  0  0
    0.8192    2.9536   -1.0215 H   0  0  0  0  0  0  0  0  0  0  0  0
   -1.5727    1.6081    1.1794 N   0  0  0  0  0  0  0  0  0  0  0  0
   -1.6109    1.2624    2.5812 C   0  0  2  0  0  0  0  0  0  0  0  0
   -3.0601    1.3337    3.0439 C   0  0  0  0  0  0  0  0  0  0  0  0
   -3.8665    2.1485    2.6003 O   0  0  0  0  0  0  0  0  0  0  0  0
   -0.7312    2.1906    3.4041 C   0  0  0  0  0  0  0  0  0  0  0  0
   -2.2252    2.3119    0.8470 H   0  0  0  0  0  0  0  0  0  0  0  0
   -1.2513    0.2308    2.6624 H   0  0  0  0  0  0  0  0  0  0  0  0
   -1.0760    3.2288    3.3351 H   0  0  0  0  0  0  0  0  0  0  0  0
   -0.7387    1.9095    4.4624 H   0  0  0  0  0  0  0  0  0  0  0  0
    0.3051    2.1604    3.0507 H   0  0  0  0  0  0  0  0  0  0  0  0
   -3.3356    0.4090    4.0415 N   0  0  0  0  0  0  0  0  0  0  0  0
   -4.6295    0.3078    4.6750 C   0  0  0  0  0  0  0  0  0  0  0  0
   -2.6184   -0.2543    4.3198 H   0  0  0  0  0  0  0  0  0  0  0  0
   -4.6451    0.9329    5.5800 H   0  0  0  0  0  0  0  0  0  0  0  0
   -5.4071    0.6529    3.9777 H   0  0  0  0  0  0  0  0  0  0  0  0
   -4.8222   -0.7398    4.9498 H   0  0  0  0  0  0  0  0  0  0  0  0
  1  3  1  0  0  0  0
  1  7  1  0  0  0  0
  1  2  2  0  0  0  0
 23 25  1  0  0  0  0
 23 29  1  0  0  0  0
 23 24  2  0  0  0  0
 50 51  1  0  0  0  0
 51 59  1  0  0  0  0
 51 52  2  0  0  0  0
  8  9  1  0  0  0  0
  9 17  1  0  0  0  0
  9 10  2  0  0  0  0
 30 31  1  0  0  0  0
 31 39  1  0  0  0  0
 31 32  2  0  0  0  0
 40 41  1  0  0  0  0
 41 49  1  0  0  0  0
 41 42  2  0  0  0  0
 50 53  1  0  0  0  0
 30 33  1  0  0  0  0
 59 60  1  0  0  0  0
 17 18  1  0  0  0  0
  8 11  1  0  0  0  0
 11 12  1  0  0  0  0
 40 43  1  0  0  0  0
 43 44  1  0  0  0  0
 49 50  1  0  0  0  0
  7  8  1  0  0  0  0
 29 30  1  0  0  0  0
 39 40  1  0  0  0  0
 12 44  1  0  0  0  0
  3  4  1  0  0  0  0
  3  5  1  0  0  0  0
  3  6  1  0  0  0  0
 25 26  1  0  0  0  0
 25 27  1  0  0  0  0
 25 28  1  0  0  0  0
 53 56  1  0  0  0  0
 53 57  1  0  0  0  0
 53 58  1  0  0  0  0
 33 36  1  0  0  0  0
 33 37  1  0  0  0  0
 33 38  1  0  0  0  0
 60 62  1  0  0  0  0
 60 63  1  0  0  0  0
 60 64  1  0  0  0  0
 18 20  1  0  0  0  0
 18 21  1  0  0  0  0
 18 22  1  0  0  0  0
 11 15  1  0  0  0  0
 11 16  1  0  0  0  0
 43 47  1  0  0  0  0
 43 48  1  0  0  0  0
 50 55  1  0  0  0  0
  8 14  1  0  0  0  0
 30 35  1  0  0  0  0
 40 46  1  0  0  0  0
 59 61  1  0  0  0  0
 17 19  1  0  0  0  0
  7 13  1  0  0  0  0
 29 34  1  0  0  0  0
 49 54  1  0  0  0  0
 39 45  1  0  0  0  0
M  END
$$$$

  -OEChem-05262214473D

 64 63  0     1  0  0  0  0  0999 V2000
   -0.5263    8.8983   -4.9213 C   0  0  0  0  0  0  0  0  0  0  0  0
   -1.7462    8.9943   -4.9869 O   0  0  0  0  0  0  0  0  0  0  0  0
    0.3117    9.3723   -6.0621 C   0  0  0  0  0  0  0  0  0  0  0  0
    0.4987    8.5797   -6.8043 H   0  0  0  0  0  0  0  0  0  0  0  0
   -0.1670   10.1903   -6.6240 H   0  0  0  0  0  0  0  0  0  0  0  0
    1.3084    9.7538   -5.7882 H   0  0  0  0  0  0  0  0  0  0  0  0
    0.1988    8.3789   -3.8627 N   0  0  0  0  0  0  0  0  0  0  0  0
   -0.4111    7.8673   -2.6616 C   0  0  2  0  0  0  0  0  0  0  0  0
    0.4944    8.1849   -1.4733 C   0  0  0  0  0  0  0  0  0  0  0  0
    1.6096    8.6873   -1.5967 O   0  0  0  0  0  0  0  0  0  0  0  0
   -0.7655    6.3826   -2.7749 C   0  0  0  0  0  0  0  0  0  0  0  0
    0.6810    5.2977   -3.0053 S   0  0  0  0  0  0  0  0  0  0  0  0
    1.2134    8.3572   -3.9365 H   0  0  0  0  0  0  0  0  0  0  0  0
   -1.3377    8.4409   -2.5343 H   0  0  0  0  0  0  0  0  0  0  0  0
   -1.2897    6.0428   -1.8757 H   0  0  0  0  0  0  0  0  0  0  0  0
   -1.4343    6.2226   -3.6275 H   0  0  0  0  0  0  0  0  0  0  0  0
   -0.0790    7.8186   -0.2639 N   0  0  0  0  0  0  0  0  0  0  0  0
    0.5932    7.9953    1.0021 C   0  0  0  0  0  0  0  0  0  0  0  0
   -1.0249    7.4487   -0.2507 H   0  0  0  0  0  0  0  0  0  0  0  0
    1.1402    7.0761    1.2588 H   0  0  0  0  0  0  0  0  0  0  0  0
    1.3008    8.8342    0.9275 H   0  0  0  0  0  0  0  0  0  0  0  0
   -0.1494    8.2104    1.7846 H   0  0  0  0  0  0  0  0  0  0  0  0
   -6.7256    2.0330   -0.2766 C   0  0  0  0  0  0  0  0  0  0  0  0
   -7.1824    1.1039   -0.9322 O   0  0  0  0  0  0  0  0  0  0  0  0
   -7.5276    2.6077    0.8435 C   0  0  0  0  0  0  0  0  0  0  0  0
   -8.1775    3.4344    0.5145 H   0  0  0  0  0  0  0  0  0  0  0  0
   -8.2057    1.8676    1.2980 H   0  0  0  0  0  0  0  0  0  0  0  0
   -6.9411    3.0162    1.6819 H   0  0  0  0  0  0  0  0  0  0  0  0
   -5.4935    2.6382   -0.4627 N   0  0  0  0  0  0  0  0  0  0  0  0
   -4.5619    2.2388   -1.4845 C   0  0  2  0  0  0  0  0  0  0  0  0
   -3.1535    2.4674   -0.9521 C   0  0  0  0  0  0  0  0  0  0  0  0
   -2.8634    3.3945   -0.1987 O   0  0  0  0  0  0  0  0  0  0  0  0
   -4.7883    3.0138   -2.7732 C   0  0  0  0  0  0  0  0  0  0  0  0
   -5.2337    3.4049    0.1551 H   0  0  0  0  0  0  0  0  0  0  0  0
   -4.7192    1.1682   -1.6549 H   0  0  0  0  0  0  0  0  0  0  0  0
   -4.6352    4.0886   -2.6221 H   0  0  0  0  0  0  0  0  0  0  0  0
   -4.0976    2.6887   -3.5582 H   0  0  0  0  0  0  0  0  0  0  0  0
   -5.8111    2.8719   -3.1387 H   0  0  0  0  0  0  0  0  0  0  0  0
   -2.2466    1.5400   -1.4507 N   0  0  0  0  0  0  0  0  0  0  0  0
   -0.8424    1.5707   -1.1286 C   0  0  2  0  0  0  0  0  0  0  0  0
   -0.6511    1.0606    0.2983 C   0  0  0  0  0  0  0  0  0  0  0  0
    0.3573    0.4607    0.6654 O   0  0  0  0  0  0  0  0  0  0  0  0
   -0.2194    2.9480   -1.3694 C   0  0  0  0  0  0  0  0  0  0  0  0
   -0.2110    3.4504   -3.1072 S   0  0  0  0  0  0  0  0  0  0  0  0
   -2.5850    0.7815   -2.0381 H   0  0  0  0  0  0  0  0  0  0  0  0
   -0.3691    0.8480   -1.8048 H   0  0  0  0  0  0  0  0  0  0  0  0
   -0.7597    3.7176   -0.8086 H   0  0  0  0  0  0  0  0  0  0  0  0
    0.8192    2.9536   -1.0215 H   0  0  0  0  0  0  0  0  0  0  0  0
   -1.7476    1.3320    1.1042 N   0  0  0  0  0  0  0  0  0  0  0  0
   -1.8160    0.9273    2.4889 C   0  0  2  0  0  0  0  0  0  0  0  0
   -3.2721    0.6282    2.8201 C   0  0  0  0  0  0  0  0  0  0  0  0
   -4.2131    1.2436    2.3232 O   0  0  0  0  0  0  0  0  0  0  0  0
   -1.2594    2.0034    3.4080 C   0  0  0  0  0  0  0  0  0  0  0  0
   -2.5220    1.8721    0.7295 H   0  0  0  0  0  0  0  0  0  0  0  0
   -1.2243    0.0099    2.5798 H   0  0  0  0  0  0  0  0  0  0  0  0
   -1.8395    2.9303    3.3307 H   0  0  0  0  0  0  0  0  0  0  0  0
   -1.2857    1.6835    4.4549 H   0  0  0  0  0  0  0  0  0  0  0  0
   -0.2214    2.2384    3.1492 H   0  0  0  0  0  0  0  0  0  0  0  0
   -3.3957   -0.3777    3.7683 N   0  0  0  0  0  0  0  0  0  0  0  0
   -4.6739   -0.8141    4.2799 C   0  0  0  0  0  0  0  0  0  0  0  0
   -2.5642   -0.8605    4.0958 H   0  0  0  0  0  0  0  0  0  0  0  0
   -4.9157   -0.2506    5.1931 H   0  0  0  0  0  0  0  0  0  0  0  0
   -5.4518   -0.6364    3.5227 H   0  0  0  0  0  0  0  0  0  0  0  0
   -4.6280   -1.8881    4.5132 H   0  0  0  0  0  0  0  0  0  0  0  0
  1  3  1  0  0  0  0
  1  7  1  0  0  0  0
  1  2  2  0  0  0  0
 23 25  1  0  0  0  0
 23 29  1  0  0  0  0
 23 24  2  0  0  0  0
 50 51  1  0  0  0  0
 51 59  1  0  0  0  0
 51 52  2  0  0  0  0
  8  9  1  0  0  0  0
  9 17  1  0  0  0  0
  9 10  2  0  0  0  0
 30 31  1  0  0  0  0
 31 39  1  0  0  0  0
 31 32  2  0  0  0  0
 40 41  1  0  0  0  0
 41 49  1  0  0  0  0
 41 42  2  0  0  0  0
 50 53  1  0  0  0  0
 30 33  1  0  0  0  0
 59 60  1  0  0  0  0
 17 18  1  0  0  0  0
  8 11  1  0  0  0  0
 11 12  1  0  0  0  0
 40 43  1  0  0  0  0
 43 44  1  0  0  0  0
 49 50  1  0  0  0  0
  7  8  1  0  0  0  0
 29 30  1  0  0  0  0
 39 40  1  0  0  0  0
 12 44  1  0  0  0  0
  3  4  1  0  0  0  0
  3  5  1  0  0  0  0
  3  6  1  0  0  0  0
 25 26  1  0  0  0  0
 25 27  1  0  0  0  0
 25 28  1  0  0  0  0
 53 56  1  0  0  0  0
 53 57  1  0  0  0  0
 53 58  1  0  0  0  0
 33 36  1  0  0  0  0
 33 37  1  0  0  0  0
 33 38  1  0  0  0  0
 60 62  1  0  0  0  0
 60 63  1  0  0  0  0
 60 64  1  0  0  0  0
 18 20  1  0  0  0  0
 18 21  1  0  0  0  0
 18 22  1  0  0  0  0
 11 15  1  0  0  0  0
 11 16  1  0  0  0  0
 43 47  1  0  0  0  0
 43 48  1  0  0  0  0
 50 55  1  0  0  0  0
  8 14  1  0  0  0  0
 30 35  1  0  0  0  0
 40 46  1  0  0  0  0
 59 61  1  0  0  0  0
 17 19  1  0  0  0  0
  7 13  1  0  0  0  0
 29 34  1  0  0  0  0
 49 54  1  0  0  0  0
 39 45  1  0  0  0  0
M  END
$$$$

  -OEChem-05262214473D

 64 63  0     1  0  0  0  0  0999 V2000
   -0.5263    8.8983   -4.9213 C   0  0  0  0  0  0  0  0  0  0  0  0
   -1.7462    8.9943   -4.9869 O   0  0  0  0  0  0  0  0  0  0  0  0
    0.3117    9.3723   -6.0621 C   0  0  0  0  0  0  0  0  0  0  0  0
    0.4987    8.5797   -6.8043 H   0  0  0  0  0  0  0  0  0  0  0  0
   -0.1670   10.1903   -6.6240 H   0  0  0  0  0  0  0  0  0  0  0  0
    1.3084    9.7538   -5.7882 H   0  0  0  0  0  0  0  0  0  0  0  0
    0.1988    8.3789   -3.8627 N   0  0  0  0  0  0  0  0  0  0  0  0
   -0.4111    7.8673   -2.6616 C   0  0  2  0  0  0  0  0  0  0  0  0
    0.4944    8.1849   -1.4733 C   0  0  0  0  0  0  0  0  0  0  0  0
    1.6096    8.6873   -1.5967 O   0  0  0  0  0  0  0  0  0  0  0  0
   -0.7655    6.3826   -2.7749 C   0  0  0  0  0  0  0  0  0  0  0  0
    0.6810    5.2977   -3.0053 S   0  0  0  0  0  0  0  0  0  0  0  0
    1.2134    8.3572   -3.9365 H   0  0  0  0  0  0  0  0  0  0  0  0
   -1.3377    8.4409   -2.5343 H   0  0  0  0  0  0  0  0  0  0  0  0
   -1.2897    6.0428   -1.8757 H   0  0  0  0  0  0  0  0  0  0  0  0
   -1.4343    6.2226   -3.6275 H   0  0  0  0  0  0  0  0  0  0  0  0
   -0.0790    7.8186   -0.2639 N   0  0  0  0  0  0  0  0  0  0  0  0
    0.5932    7.9953    1.0021 C   0  0  0  0  0  0  0  0  0  0  0  0
   -1.0249    7.4487   -0.2507 H   0  0  0  0  0  0  0  0  0  0  0  0
    1.1402    7.0761    1.2588 H   0  0  0  0  0  0  0  0  0  0  0  0
    1.3008    8.8342    0.9275 H   0  0  0  0  0  0  0  0  0  0  0  0
   -0.1494    8.2104    1.7846 H   0  0  0  0  0  0  0  0  0  0  0  0
   -6.7256    2.0330   -0.2766 C   0  0  0  0  0  0  0  0  0  0  0  0
   -7.1824    1.1039   -0.9322 O   0  0  0  0  0  0  0  0  0  0  0  0
   -7.5276    2.6077    0.8435 C   0  0  0  0  0  0  0  0  0  0  0  0
   -8.1775    3.4344    0.5145 H   0  0  0  0  0  0  0  0  0  0  0  0
   -8.2057    1.8676    1.2980 H   0  0  0  0  0  0  0  0  0  0  0  0
   -6.9411    3.0162    1.6819 H   0  0  0  0  0  0  0  0  0  0  0  0
   -5.4935    2.6382   -0.4627 N   0  0  0  0  0  0  0  0  0  0  0  0
   -4.5619    2.2388   -1.4845 C   0  0  2  0  0  0  0  0  0  0  0  0
   -3.1535    2.4674   -0.9521 C   0  0  0  0  0  0  0  0  0  0  0  0
   -2.8634    3.3945   -0.1987 O   0  0  0  0  0  0  0  0  0  0  0  0
   -4.7883    3.0138   -2.7732 C   0  0  0  0  0  0  0  0  0  0  0  0
   -5.2337    3.4049    0.1551 H   0  0  0  0  0  0  0  0  0  0  0  0
   -4.7192    1.1682   -1.6549 H   0  0  0  0  0  0  0  0  0  0  0  0
   -4.6352    4.0886   -2.6221 H   0  0  0  0  0  0  0  0  0  0  0  0
   -4.0976    2.6887   -3.5582 H   0  0  0  0  0  0  0  0  0  0  0  0
   -5.8111    2.8719   -3.1387 H   0  0  0  0  0  0  0  0  0  0  0  0
   -2.2466    1.5400   -1.4507 N   0  0  0  0  0  0  0  0  0  0  0  0
   -0.8424    1.5707   -1.1286 C   0  0  2  0  0  0  0  0  0  0  0  0
   -0.6511    1.0606    0.2983 C   0  0  0  0  0  0  0  0  0  0  0  0
    0.4391    0.7055    0.7419 O   0  0  0  0  0  0  0  0  0  0  0  0
   -0.2194    2.9480   -1.3694 C   0  0  0  0  0  0  0  0  0  0  0  0
   -0.2110    3.4504   -3.1072 S   0  0  0  0  0  0  0  0  0  0  0  0
   -2.5850    0.7815   -2.0381 H   0  0  0  0  0  0  0  0  0  0  0  0
   -0.3691    0.8480   -1.8048 H   0  0  0  0  0  0  0  0  0  0  0  0
   -0.7597    3.7176   -0.8086 H   0  0  0  0  0  0  0  0  0  0  0  0
    0.8192    2.9536   -1.0215 H   0  0  0  0  0  0  0  0  0  0  0  0
   -1.8433    1.0256    1.0075 N   0  0  0  0  0  0  0  0  0  0  0  0
   -1.9251    0.5570    2.3711 C   0  0  2  0  0  0  0  0  0  0  0  0
   -3.2870   -0.0973    2.5627 C   0  0  0  0  0  0  0  0  0  0  0  0
   -4.3051    0.2947    1.9963 O   0  0  0  0  0  0  0  0  0  0  0  0
   -1.7248    1.6948    3.3601 C   0  0  0  0  0  0  0  0  0  0  0  0
   -2.6922    1.3792    0.5761 H   0  0  0  0  0  0  0  0  0  0  0  0
   -1.1377   -0.1943    2.4952 H   0  0  0  0  0  0  0  0  0  0  0  0
   -2.5044    2.4575    3.2509 H   0  0  0  0  0  0  0  0  0  0  0  0
   -1.7586    1.3332    4.3931 H   0  0  0  0  0  0  0  0  0  0  0  0
   -0.7574    2.1833    3.2013 H   0  0  0  0  0  0  0  0  0  0  0  0
   -3.2400   -1.1433    3.4737 N   0  0  0  0  0  0  0  0  0  0  0  0
   -4.4113   -1.8957    3.8580 C   0  0  0  0  0  0  0  0  0  0  0  0
   -2.3459   -1.4257    3.8644 H   0  0  0  0  0  0  0  0  0  0  0  0
   -4.8574   -1.4467    4.7577 H   0  0  0  0  0  0  0  0  0  0  0  0
   -5.1439   -1.8777    3.0376 H   0  0  0  0  0  0  0  0  0  0  0  0
   -4.1250   -2.9362    4.0711 H   0  0  0  0  0  0  0  0  0  0  0  0
  1  3  1  0  0  0  0
  1  7  1  0  0  0  0
  1  2  2  0  0  0  0
 23 25  1  0  0  0  0
 23 29  1  0  0  0  0
 23 24  2  0  0  0  0
 50 51  1  0  0  0  0
 51 59  1  0  0  0  0
 51 52  2  0  0  0  0
  8  9  1  0  0  0  0
  9 17  1  0  0  0  0
  9 10  2  0  0  0  0
 30 31  1  0  0  0  0
 31 39  1  0  0  0  0
 31 32  2  0  0  0  0
 40 41  1  0  0  0  0
 41 49  1  0  0  0  0
 41 42  2  0  0  0  0
 50 53  1  0  0  0  0
 30 33  1  0  0  0  0
 59 60  1  0  0  0  0
 17 18  1  0  0  0  0
  8 11  1  0  0  0  0
 11 12  1  0  0  0  0
 40 43  1  0  0  0  0
 43 44  1  0  0  0  0
 49 50  1  0  0  0  0
  7  8  1  0  0  0  0
 29 30  1  0  0  0  0
 39 40  1  0  0  0  0
 12 44  1  0  0  0  0
  3  4  1  0  0  0  0
  3  5  1  0  0  0  0
  3  6  1  0  0  0  0
 25 26  1  0  0  0  0
 25 27  1  0  0  0  0
 25 28  1  0  0  0  0
 53 56  1  0  0  0  0
 53 57  1  0  0  0  0
 53 58  1  0  0  0  0
 33 36  1  0  0  0  0
 33 37  1  0  0  0  0
 33 38  1  0  0  0  0
 60 62  1  0  0  0  0
 60 63  1  0  0  0  0
 60 64  1  0  0  0  0
 18 20  1  0  0  0  0
 18 21  1  0  0  0  0
 18 22  1  0  0  0  0
 11 15  1  0  0  0  0
 11 16  1  0  0  0  0
 43 47  1  0  0  0  0
 43 48  1  0  0  0  0
 50 55  1  0  0  0  0
  8 14  1  0  0  0  0
 30 35  1  0  0  0  0
 40 46  1  0  0  0  0
 59 61  1  0  0  0  0
 17 19  1  0  0  0  0
  7 13  1  0  0  0  0
 29 34  1  0  0  0  0
 49 54  1  0  0  0  0
 39 45  1  0  0  0  0
M  END
$$$$

  -OEChem-05262214473D

 64 63  0     1  0  0  0  0  0999 V2000
   -0.5263    8.8983   -4.9213 C   0  0  0  0  0  0  0  0  0  0  0  0
   -1.7462    8.9943   -4.9869 O   0  0  0  0  0  0  0  0  0  0  0  0
    0.3117    9.3723   -6.0621 C   0  0  0  0  0  0  0  0  0  0  0  0
    0.4987    8.5797   -6.8043 H   0  0  0  0  0  0  0  0  0  0  0  0
   -0.1670   10.1903   -6.6240 H   0  0  0  0  0  0  0  0  0  0  0  0
    1.3084    9.7538   -5.7882 H   0  0  0  0  0  0  0  0  0  0  0  0
    0.1988    8.3789   -3.8627 N   0  0  0  0  0  0  0  0  0  0  0  0
   -0.4111    7.8673   -2.6616 C   0  0  2  0  0  0  0  0  0  0  0  0
    0.4944    8.1849   -1.4733 C   0  0  0  0  0  0  0  0  0  0  0  0
    1.6096    8.6873   -1.5967 O   0  0  0  0  0  0  0  0  0  0  0  0
   -0.7655    6.3826   -2.7749 C   0  0  0  0  0  0  0  0  0  0  0  0
    0.6810    5.2977   -3.0053 S   0  0  0  0  0  0  0  0  0  0  0  0
    1.2134    8.3572   -3.9365 H   0  0  0  0  0  0  0  0  0  0  0  0
   -1.3377    8.4409   -2.5343 H   0  0  0  0  0  0  0  0  0  0  0  0
   -1.2897    6.0428   -1.8757 H   0  0  0  0  0  0  0  0  0  0  0  0
   -1.4343    6.2226   -3.6275 H   0  0  0  0  0  0  0  0  0  0  0  0
   -0.0790    7.8186   -0.2639 N   0  0  0  0  0  0  0  0  0  0  0  0
    0.5932    7.9953    1.0021 C   0  0  0  0  0  0  0  0  0  0  0  0
   -1.0249    7.4487   -0.2507 H   0  0  0  0  0  0  0  0  0  0  0  0
    1.1402    7.0761    1.2588 H   0  0  0  0  0  0  0  0  0  0  0  0
    1.3008    8.8342    0.9275 H   0  0  0  0  0  0  0  0  0  0  0  0
   -0.1494    8.2104    1.7846 H   0  0  0  0  0  0  0  0  0  0  0  0
   -6.7256    2.0330   -0.2766 C   0  0  0  0  0  0  0  0  0  0  0  0
   -7.1824    1.1039   -0.9322 O   0  0  0  0  0  0  0  0  0  0  0  0
   -7.5276    2.6077    0.8435 C   0  0  0  0  0  0  0  0  0  0  0  0
   -8.1775    3.4344    0.5145 H   0  0  0  0  0  0  0  0  0  0  0  0
   -8.2057    1.8676    1.2980 H   0  0  0  0  0  0  0  0  0  0  0  0
   -6.9411    3.0162    1.6819 H   0  0  0  0  0  0  0  0  0  0  0  0
   -5.4935    2.6382   -0.4627 N   0  0  0  0  0  0  0  0  0  0  0  0
   -4.5619    2.2388   -1.4845 C   0  0  2  0  0  0  0  0  0  0  0  0
   -3.1535    2.4674   -0.9521 C   0  0  0  0  0  0  0  0  0  0  0  0
   -2.8634    3.3945   -0.1987 O   0  0  0  0  0  0  0  0  0  0  0  0
   -4.7883    3.0138   -2.7732 C   0  0  0  0  0  0  0  0  0  0  0  0
   -5.2337    3.4049    0.1551 H   0  0  0  0  0  0  0  0  0  0  0  0
   -4.7192    1.1682   -1.6549 H   0  0  0  0  0  0  0  0  0  0  0  0
   -4.6352    4.0886   -2.6221 H   0  0  0  0  0  0  0  0  0  0  0  0
   -4.0976    2.6887   -3.5582 H   0  0  0  0  0  0  0  0  0  0  0  0
   -5.8111    2.8719   -3.1387 H   0  0  0  0  0  0  0  0  0  0  0  0
   -2.2466    1.5400   -1.4507 N   0  0  0  0  0  0  0  0  0  0  0  0
   -0.8424    1.5707   -1.1286 C   0  0  2  0  0  0  0  0  0  0  0  0
   -0.6511    1.0606    0.2983 C   0  0  0  0  0  0  0  0  0  0  0  0
    0.4523    0.9592    0.8309 O   0  0  0  0  0  0  0  0  0  0  0  0
   -0.2194    2.9480   -1.3694 C   0  0  0  0  0  0  0  0  0  0  0  0
   -0.2110    3.4504   -3.1072 S   0  0  0  0  0  0  0  0  0  0  0  0
   -2.5850    0.7815   -2.0381 H   0  0  0  0  0  0  0  0  0  0  0  0
   -0.3691    0.8480   -1.8048 H   0  0  0  0  0  0  0  0  0  0  0  0
   -0.7597    3.7176   -0.8086 H   0  0  0  0  0  0  0  0  0  0  0  0
    0.8192    2.9536   -1.0215 H   0  0  0  0  0  0  0  0  0  0  0  0
   -1.8533    0.7095    0.8958 N   0  0  0  0  0  0  0  0  0  0  0  0
   -1.9309    0.1768    2.2360 C   0  0  2  0  0  0  0  0  0  0  0  0
   -3.1037   -0.7933    2.2893 C   0  0  0  0  0  0  0  0  0  0  0  0
   -4.1363   -0.6335    1.6418 O   0  0  0  0  0  0  0  0  0  0  0  0
   -2.0955    1.2857    3.2635 C   0  0  0  0  0  0  0  0  0  0  0  0
   -2.7242    0.8670    0.3973 H   0  0  0  0  0  0  0  0  0  0  0  0
   -0.9973   -0.3679    2.4143 H   0  0  0  0  0  0  0  0  0  0  0  0
   -3.0255    1.8426    3.1009 H   0  0  0  0  0  0  0  0  0  0  0  0
   -2.1254    0.8824    4.2811 H   0  0  0  0  0  0  0  0  0  0  0  0
   -1.2663    1.9988    3.2036 H   0  0  0  0  0  0  0  0  0  0  0  0
   -2.8790   -1.8355    3.1778 N   0  0  0  0  0  0  0  0  0  0  0  0
   -3.8597   -2.8633    3.4381 C   0  0  0  0  0  0  0  0  0  0  0  0
   -1.9784   -1.9114    3.6415 H   0  0  0  0  0  0  0  0  0  0  0  0
   -4.4742   -2.5738    4.3033 H   0  0  0  0  0  0  0  0  0  0  0  0
   -4.5045   -2.9866    2.5554 H   0  0  0  0  0  0  0  0  0  0  0  0
   -3.3475   -3.8126    3.6535 H   0  0  0  0  0  0  0  0  0  0  0  0
  1  3  1  0  0  0  0
  1  7  1  0  0  0  0
  1  2  2  0  0  0  0
 23 25  1  0  0  0  0
 23 29  1  0  0  0  0
 23 24  2  0  0  0  0
 50 51  1  0  0  0  0
 51 59  1  0  0  0  0
 51 52  2  0  0  0  0
  8  9  1  0  0  0  0
  9 17  1  0  0  0  0
  9 10  2  0  0  0  0
 30 31  1  0  0  0  0
 31 39  1  0  0  0  0
 31 32  2  0  0  0  0
 40 41  1  0  0  0  0
 41 49  1  0  0  0  0
 41 42  2  0  0  0  0
 50 53  1  0  0  0  0
 30 33  1  0  0  0  0
 59 60  1  0  0  0  0
 17 18  1  0  0  0  0
  8 11  1  0  0  0  0
 11 12  1  0  0  0  0
 40 43  1  0  0  0  0
 43 44  1  0  0  0  0
 49 50  1  0  0  0  0
  7  8  1  0  0  0  0
 29 30  1  0  0  0  0
 39 40  1  0  0  0  0
 12 44  1  0  0  0  0
  3  4  1  0  0  0  0
  3  5  1  0  0  0  0
  3  6  1  0  0  0  0
 25 26  1  0  0  0  0
 25 27  1  0  0  0  0
 25 28  1  0  0  0  0
 53 56  1  0  0  0  0
 53 57  1  0  0  0  0
 53 58  1  0  0  0  0
 33 36  1  0  0  0  0
 33 37  1  0  0  0  0
 33 38  1  0  0  0  0
 60 62  1  0  0  0  0
 60 63  1  0  0  0  0
 60 64  1  0  0  0  0
 18 20  1  0  0  0  0
 18 21  1  0  0  0  0
 18 22  1  0  0  0  0
 11 15  1  0  0  0  0
 11 16  1  0  0  0  0
 43 47  1  0  0  0  0
 43 48  1  0  0  0  0
 50 55  1  0  0  0  0
  8 14  1  0  0  0  0
 30 35  1  0  0  0  0
 40 46  1  0  0  0  0
 59 61  1  0  0  0  0
 17 19  1  0  0  0  0
  7 13  1  0  0  0  0
 29 34  1  0  0  0  0
 49 54  1  0  0  0  0
 39 45  1  0  0  0  0
M  END
$$$$

  -OEChem-05262214473D

 64 63  0     1  0  0  0  0  0999 V2000
   -0.5263    8.8983   -4.9213 C   0  0  0  0  0  0  0  0  0  0  0  0
   -1.7462    8.9943   -4.9869 O   0  0  0  0  0  0  0  0  0  0  0  0
    0.3117    9.3723   -6.0621 C   0  0  0  0  0  0  0  0  0  0  0  0
    0.4987    8.5797   -6.8043 H   0  0  0  0  0  0  0  0  0  0  0  0
   -0.1670   10.1903   -6.6240 H   0  0  0  0  0  0  0  0  0  0  0  0
    1.3084    9.7538   -5.7882 H   0  0  0  0  0  0  0  0  0  0  0  0
    0.1988    8.3789   -3.8627 N   0  0  0  0  0  0  0  0  0  0  0  0
   -0.4111    7.8673   -2.6616 C   0  0  2  0  0  0  0  0  0  0  0  0
    0.4944    8.1849   -1.4733 C   0  0  0  0  0  0  0  0  0  0  0  0
    1.6096    8.6873   -1.5967 O   0  0  0  0  0  0  0  0  0  0  0  0
   -0.7655    6.3826   -2.7749 C   0  0  0  0  0  0  0  0  0  0  0  0
    0.6810    5.2977   -3.0053 S   0  0  0  0  0  0  0  0  0  0  0  0
    1.2134    8.3572   -3.9365 H   0  0  0  0  0  0  0  0  0  0  0  0
   -1.3377    8.4409   -2.5343 H   0  0  0  0  0  0  0  0  0  0  0  0
   -1.2897    6.0428   -1.8757 H   0  0  0  0  0  0  0  0  0  0  0  0
   -1.4343    6.2226   -3.6275 H   0  0  0  0  0  0  0  0  0  0  0  0
   -0.0790    7.8186   -0.2639 N   0  0  0  0  0  0  0  0  0  0  0  0
    0.5932    7.9953    1.0021 C   0  0  0  0  0  0  0  0  0  0  0  0
   -1.0249    7.4487   -0.2507 H   0  0  0  0  0  0  0  0  0  0  0  0
    1.1402    7.0761    1.2588 H   0  0  0  0  0  0  0  0  0  0  0  0
    1.3008    8.8342    0.9275 H   0  0  0  0  0  0  0  0  0  0  0  0
   -0.1494    8.2104    1.7846 H   0  0  0  0  0  0  0  0  0  0  0  0
   -6.7256    2.0330   -0.2766 C   0  0  0  0  0  0  0  0  0  0  0  0
   -7.1824    1.1039   -0.9322 O   0  0  0  0  0  0  0  0  0  0  0  0
   -7.5276    2.6077    0.8435 C   0  0  0  0  0  0  0  0  0  0  0  0
   -8.1775    3.4344    0.5145 H   0  0  0  0  0  0  0  0  0  0  0  0
   -8.2057    1.8676    1.2980 H   0  0  0  0  0  0  0  0  0  0  0  0
   -6.9411    3.0162    1.6819 H   0  0  0  0  0  0  0  0  0  0  0  0
   -5.4935    2.6382   -0.4627 N   0  0  0  0  0  0  0  0  0  0  0  0
   -4.5619    2.2388   -1.4845 C   0  0  2  0  0  0  0  0  0  0  0  0
   -3.1535    2.4674   -0.9521 C   0  0  0  0  0  0  0  0  0  0  0  0
   -2.8634    3.3945   -0.1987 O   0  0  0  0  0  0  0  0  0  0  0  0
   -4.7883    3.0138   -2.7732 C   0  0  0  0  0  0  0  0  0  0  0  0
   -5.2337    3.4049    0.1551 H   0  0  0  0  0  0  0  0  0  0  0  0
   -4.7192    1.1682   -1.6549 H   0  0  0  0  0  0  0  0  0  0  0  0
   -4.6352    4.0886   -2.6221 H   0  0  0  0  0  0  0  0  0  0  0  0
   -4.0976    2.6887   -3.5582 H   0  0  0  0  0  0  0  0  0  0  0  0
   -5.8111    2.8719   -3.1387 H   0  0  0  0  0  0  0  0  0  0  0  0
   -2.2466    1.5400   -1.4507 N   0  0  0  0  0  0  0  0  0  0  0  0
   -0.8424    1.5707   -1.1286 C   0  0  2  0  0  0  0  0  0  0  0  0
   -0.6511    1.0606    0.2983 C   0  0  0  0  0  0  0  0  0  0  0  0
    0.3960    1.2045    0.9261 O   0  0  0  0  0  0  0  0  0  0  0  0
   -0.2194    2.9480   -1.3694 C   0  0  0  0  0  0  0  0  0  0  0  0
   -0.2110    3.4504   -3.1072 S   0  0  0  0  0  0  0  0  0  0  0  0
   -2.5850    0.7815   -2.0381 H   0  0  0  0  0  0  0  0  0  0  0  0
   -0.3691    0.8480   -1.8048 H   0  0  0  0  0  0  0  0  0  0  0  0
   -0.7597    3.7176   -0.8086 H   0  0  0  0  0  0  0  0  0  0  0  0
    0.8192    2.9536   -1.0215 H   0  0  0  0  0  0  0  0  0  0  0  0
   -1.7769    0.4054    0.7768 N   0  0  0  0  0  0  0  0  0  0  0  0
   -1.8328   -0.1875    2.0926 C   0  0  2  0  0  0  0  0  0  0  0  0
   -2.7347   -1.4124    2.0185 C   0  0  0  0  0  0  0  0  0  0  0  0
   -3.7182   -1.4778    1.2839 O   0  0  0  0  0  0  0  0  0  0  0  0
   -2.3463    0.8040    3.1250 C   0  0  0  0  0  0  0  0  0  0  0  0
   -2.6157    0.3703    0.2052 H   0  0  0  0  0  0  0  0  0  0  0  0
   -0.8127   -0.4989    2.3427 H   0  0  0  0  0  0  0  0  0  0  0  0
   -3.3671    1.1275    2.8910 H   0  0  0  0  0  0  0  0  0  0  0  0
   -2.3611    0.3619    4.1266 H   0  0  0  0  0  0  0  0  0  0  0  0
   -1.7134    1.6975    3.1558 H   0  0  0  0  0  0  0  0  0  0  0  0
   -2.3373   -2.4073    2.9007 N   0  0  0  0  0  0  0  0  0  0  0  0
   -3.0566   -3.6509    3.0488 C   0  0  0  0  0  0  0  0  0  0  0  0
   -1.4868   -2.2844    3.4423 H   0  0  0  0  0  0  0  0  0  0  0  0
   -3.7923   -3.5552    3.8610 H   0  0  0  0  0  0  0  0  0  0  0  0
   -3.5770   -3.8875    2.1090 H   0  0  0  0  0  0  0  0  0  0  0  0
   -2.3485   -4.4577    3.2889 H   0  0  0  0  0  0  0  0  0  0  0  0
  1  3  1  0  0  0  0
  1  7  1  0  0  0  0
  1  2  2  0  0  0  0
 23 25  1  0  0  0  0
 23 29  1  0  0  0  0
 23 24  2  0  0  0  0
 50 51  1  0  0  0  0
 51 59  1  0  0  0  0
 51 52  2  0  0  0  0
  8  9  1  0  0  0  0
  9 17  1  0  0  0  0
  9 10  2  0  0  0  0
 30 31  1  0  0  0  0
 31 39  1  0  0  0  0
 31 32  2  0  0  0  0
 40 41  1  0  0  0  0
 41 49  1  0  0  0  0
 41 42  2  0  0  0  0
 50 53  1  0  0  0  0
 30 33  1  0  0  0  0
 59 60  1  0  0  0  0
 17 18  1  0  0  0  0
  8 11  1  0  0  0  0
 11 12  1  0  0  0  0
 40 43  1  0  0  0  0
 43 44  1  0  0  0  0
 49 50  1  0  0  0  0
  7  8  1  0  0  0  0
 29 30  1  0  0  0  0
 39 40  1  0  0  0  0
 12 44  1  0  0  0  0
  3  4  1  0  0  0  0
  3  5  1  0  0  0  0
  3  6  1  0  0  0  0
 25 26  1  0  0  0  0
 25 27  1  0  0  0  0
 25 28  1  0  0  0  0
 53 56  1  0  0  0  0
 53 57  1  0  0  0  0
 53 58  1  0  0  0  0
 33 36  1  0  0  0  0
 33 37  1  0  0  0  0
 33 38  1  0  0  0  0
 60 62  1  0  0  0  0
 60 63  1  0  0  0  0
 60 64  1  0  0  0  0
 18 20  1  0  0  0  0
 18 21  1  0  0  0  0
 18 22  1  0  0  0  0
 11 15  1  0  0  0  0
 11 16  1  0  0  0  0
 43 47  1  0  0  0  0
 43 48  1  0  0  0  0
 50 55  1  0  0  0  0
  8 14  1  0  0  0  0
 30 35  1  0  0  0  0
 40 46  1  0  0  0  0
 59 61  1  0  0  0  0
 17 19  1  0  0  0  0
  7 13  1  0  0  0  0
 29 34  1  0  0  0  0
 49 54  1  0  0  0  0
 39 45  1  0  0  0  0
M  END
$$$$

  -OEChem-05262214473D

 64 63  0     1  0  0  0  0  0999 V2000
   -0.5263    8.8983   -4.9213 C   0  0  0  0  0  0  0  0  0  0  0  0
   -1.7462    8.9943   -4.9869 O   0  0  0  0  0  0  0  0  0  0  0  0
    0.3117    9.3723   -6.0621 C   0  0  0  0  0  0  0  0  0  0  0  0
    0.4987    8.5797   -6.8043 H   0  0  0  0  0  0  0  0  0  0  0  0
   -0.1670   10.1903   -6.6240 H   0  0  0  0  0  0  0  0  0  0  0  0
    1.3084    9.7538   -5.7882 H   0  0  0  0  0  0  0  0  0  0  0  0
    0.1988    8.3789   -3.8627 N   0  0  0  0  0  0  0  0  0  0  0  0
   -0.4111    7.8673   -2.6616 C   0  0  2  0  0  0  0  0  0  0  0  0
    0.4944    8.1849   -1.4733 C   0  0  0  0  0  0  0  0  0  0  0  0
    1.6096    8.6873   -1.5967 O   0  0  0  0  0  0  0  0  0  0  0  0
   -0.7655    6.3826   -2.7749 C   0  0  0  0  0  0  0  0  0  0  0  0
    0.6810    5.2977   -3.0053 S   0  0  0  0  0  0  0  0  0  0  0  0
    1.2134    8.3572   -3.9365 H   0  0  0  0  0  0  0  0  0  0  0  0
   -1.3377    8.4409   -2.5343 H   0  0  0  0  0  0  0  0  0  0  0  0
   -1.2897    6.0428   -1.8757 H   0  0  0  0  0  0  0  0  0  0  0  0
   -1.4343    6.2226   -3.6275 H   0  0  0  0  0  0  0  0  0  0  0  0
   -0.0790    7.8186   -0.2639 N   0  0  0  0  0  0  0  0  0  0  0  0
    0.5932    7.9953    1.0021 C   0  0  0  0  0  0  0  0  0  0  0  0
   -1.0249    7.4487   -0.2507 H   0  0  0  0  0  0  0  0  0  0  0  0
    1.1402    7.0761    1.2588 H   0  0  0  0  0  0  0  0  0  0  0  0
    1.3008    8.8342    0.9275 H   0  0  0  0  0  0  0  0  0  0  0  0
   -0.1494    8.2104    1.7846 H   0  0  0  0  0  0  0  0  0  0  0  0
   -6.7256    2.0330   -0.2766 C   0  0  0  0  0  0  0  0  0  0  0  0
   -7.1824    1.1039   -0.9322 O   0  0  0  0  0  0  0  0  0  0  0  0
   -7.5276    2.6077    0.8435 C   0  0  0  0  0  0  0  0  0  0  0  0
   -8.1775    3.4344    0.5145 H   0  0  0  0  0  0  0  0  0  0  0  0
   -8.2057    1.8676    1.2980 H   0  0  0  0  0  0  0  0  0  0  0  0
   -6.9411    3.0162    1.6819 H   0  0  0  0  0  0  0  0  0  0  0  0
   -5.4935    2.6382   -0.4627 N   0  0  0  0  0  0  0  0  0  0  0  0
   -4.5619    2.2388   -1.4845 C   0  0  2  0  0  0  0  0  0  0  0  0
   -3.1535    2.4674   -0.9521 C   0  0  0  0  0  0  0  0  0  0  0  0
   -2.8634    3.3945   -0.1987 O   0  0  0  0  0  0  0  0  0  0  0  0
   -4.7883    3.0138   -2.7732 C   0  0  0  0  0  0  0  0  0  0  0  0
   -5.2337    3.4049    0.1551 H   0  0  0  0  0  0  0  0  0  0  0  0
   -4.7192    1.1682   -1.6549 H   0  0  0  0  0  0  0  0  0  0  0  0
   -4.6352    4.0886   -2.6221 H   0  0  0  0  0  0  0  0  0  0  0  0
   -4.0976    2.6887   -3.5582 H   0  0  0  0  0  0  0  0  0  0  0  0
   -5.8111    2.8719   -3.1387 H   0  0  0  0  0  0  0  0  0  0  0  0
   -2.2466    1.5400   -1.4507 N   0  0  0  0  0  0  0  0  0  0  0  0
   -0.8424    1.5707   -1.1286 C   0  0  2  0  0  0  0  0  0  0  0  0
   -0.6511    1.0606    0.2983 C   0  0  0  0  0  0  0  0  0  0  0  0
    0.2741    1.4248    1.0212 O   0  0  0  0  0  0  0  0  0  0  0  0
   -0.2194    2.9480   -1.3694 C   0  0  0  0  0  0  0  0  0  0  0  0
   -0.2110    3.4504   -3.1072 S   0  0  0  0  0  0  0  0  0  0  0  0
   -2.5850    0.7815   -2.0381 H   0  0  0  0  0  0  0  0  0  0  0  0
   -0.3691    0.8480   -1.8048 H   0  0  0  0  0  0  0  0  0  0  0  0
   -0.7597    3.7176   -0.8086 H   0  0  0  0  0  0  0  0  0  0  0  0
    0.8192    2.9536   -1.0215 H   0  0  0  0  0  0  0  0  0  0  0  0
   -1.6192    0.1341    0.6587 N   0  0  0  0  0  0  0  0  0  0  0  0
   -1.6375   -0.5110    1.9507 C   0  0  2  0  0  0  0  0  0  0  0  0
   -2.2052   -1.9124    1.7687 C   0  0  0  0  0  0  0  0  0  0  0  0
   -3.0792   -2.1806    0.9469 O   0  0  0  0  0  0  0  0  0  0  0  0
   -2.4601    0.2826    2.9538 C   0  0  0  0  0  0  0  0  0  0  0  0
   -2.3743   -0.0770    0.0129 H   0  0  0  0  0  0  0  0  0  0  0  0
   -0.5966   -0.5786    2.2852 H   0  0  0  0  0  0  0  0  0  0  0  0
   -3.5061    0.3610    2.6356 H   0  0  0  0  0  0  0  0  0  0  0  0
   -2.4495   -0.1927    3.9402 H   0  0  0  0  0  0  0  0  0  0  0  0
   -2.0683    1.2998    3.0612 H   0  0  0  0  0  0  0  0  0  0  0  0
   -1.6519   -2.8197    2.6614 N   0  0  0  0  0  0  0  0  0  0  0  0
   -2.0568   -4.2049    2.7167 C   0  0  0  0  0  0  0  0  0  0  0  0
   -0.9045   -2.5193    3.2802 H   0  0  0  0  0  0  0  0  0  0  0  0
   -2.8581   -4.3238    3.4609 H   0  0  0  0  0  0  0  0  0  0  0  0
   -2.4247   -4.5190    1.7287 H   0  0  0  0  0  0  0  0  0  0  0  0
   -1.1960   -4.8274    3.0022 H   0  0  0  0  0  0  0  0  0  0  0  0
  1  3  1  0  0  0  0
  1  7  1  0  0  0  0
  1  2  2  0  0  0  0
 23 25  1  0  0  0  0
 23 29  1  0  0  0  0
 23 24  2  0  0  0  0
 50 51  1  0  0  0  0
 51 59  1  0  0  0  0
 51 52  2  0  0  0  0
  8  9  1  0  0  0  0
  9 17  1  0  0  0  0
  9 10  2  0  0  0  0
 30 31  1  0  0  0  0
 31 39  1  0  0  0  0
 31 32  2  0  0  0  0
 40 41  1  0  0  0  0
 41 49  1  0  0  0  0
 41 42  2  0  0  0  0
 50 53  1  0  0  0  0
 30 33  1  0  0  0  0
 59 60  1  0  0  0  0
 17 18  1  0  0  0  0
  8 11  1  0  0  0  0
 11 12  1  0  0  0  0
 40 43  1  0  0  0  0
 43 44  1  0  0  0  0
 49 50  1  0  0  0  0
  7  8  1  0  0  0  0
 29 30  1  0  0  0  0
 39 40  1  0  0  0  0
 12 44  1  0  0  0  0
  3  4  1  0  0  0  0
  3  5  1  0  0  0  0
  3  6  1  0  0  0  0
 25 26  1  0  0  0  0
 25 27  1  0  0  0  0
 25 28  1  0  0  0  0
 53 56  1  0  0  0  0
 53 57  1  0  0  0  0
 53 58  1  0  0  0  0
 33 36  1  0  0  0  0
 33 37  1  0  0  0  0
 33 38  1  0  0  0  0
 60 62  1  0  0  0  0
 60 63  1  0  0  0  0
 60 64  1  0  0  0  0
 18 20  1  0  0  0  0
 18 21  1  0  0  0  0
 18 22  1  0  0  0  0
 11 15  1  0  0  0  0
 11 16  1  0  0  0  0
 43 47  1  0  0  0  0
 43 48  1  0  0  0  0
 50 55  1  0  0  0  0
  8 14  1  0  0  0  0
 30 35  1  0  0  0  0
 40 46  1  0  0  0  0
 59 61  1  0  0  0  0
 17 19  1  0  0  0  0
  7 13  1  0  0  0  0
 29 34  1  0  0  0  0
 49 54  1  0  0  0  0
 39 45  1  0  0  0  0
M  END
$$$$

  -OEChem-05262214473D

 64 63  0     1  0  0  0  0  0999 V2000
   -0.5263    8.8983   -4.9213 C   0  0  0  0  0  0  0  0  0  0  0  0
   -1.7462    8.9943   -4.9869 O   0  0  0  0  0  0  0  0  0  0  0  0
    0.3117    9.3723   -6.0621 C   0  0  0  0  0  0  0  0  0  0  0  0
    0.4987    8.5797   -6.8043 H   0  0  0  0  0  0  0  0  0  0  0  0
   -0.1670   10.1903   -6.6240 H   0  0  0  0  0  0  0  0  0  0  0  0
    1.3084    9.7538   -5.7882 H   0  0  0  0  0  0  0  0  0  0  0  0
    0.1988    8.3789   -3.8627 N   0  0  0  0  0  0  0  0  0  0  0  0
   -0.4111    7.8673   -2.6616 C   0  0  2  0  0  0  0  0  0  0  0  0
    0.4944    8.1849   -1.4733 C   0  0  0  0  0  0  0  0  0  0  0  0
    1.6096    8.6873   -1.5967 O   0  0  0  0  0  0  0  0  0  0  0  0
   -0.7655    6.3826   -2.7749 C   0  0  0  0  0  0  0  0  0  0  0  0
    0.6810    5.2977   -3.0053 S   0  0  0  0  0  0  0  0  0  0  0  0
    1.2134    8.3572   -3.9365 H   0  0  0  0  0  0  0  0  0  0  0  0
   -1.3377    8.4409   -2.5343 H   0  0  0  0  0  0  0  0  0  0  0  0
   -1.2897    6.0428   -1.8757 H   0  0  0  0  0  0  0  0  0  0  0  0
   -1.4343    6.2226   -3.6275 H   0  0  0  0  0  0  0  0  0  0  0  0
   -0.0790    7.8186   -0.2639 N   0  0  0  0  0  0  0  0  0  0  0  0
    0.5932    7.9953    1.0021 C   0  0  0  0  0  0  0  0  0  0  0  0
   -1.0249    7.4487   -0.2507 H   0  0  0  0  0  0  0  0  0  0  0  0
    1.1402    7.0761    1.2588 H   0  0  0  0  0  0  0  0  0  0  0  0
    1.3008    8.8342    0.9275 H   0  0  0  0  0  0  0  0  0  0  0  0
   -0.1494    8.2104    1.7846 H   0  0  0  0  0  0  0  0  0  0  0  0
   -6.7256    2.0330   -0.2766 C   0  0  0  0  0  0  0  0  0  0  0  0
   -7.1824    1.1039   -0.9322 O   0  0  0  0  0  0  0  0  0  0  0  0
   -7.5276    2.6077    0.8435 C   0  0  0  0  0  0  0  0  0  0  0  0
   -8.1775    3.4344    0.5145 H   0  0  0  0  0  0  0  0  0  0  0  0
   -8.2057    1.8676    1.2980 H   0  0  0  0  0  0  0  0  0  0  0  0
   -6.9411    3.0162    1.6819 H   0  0  0  0  0  0  0  0  0  0  0  0
   -5.4935    2.6382   -0.4627 N   0  0  0  0  0  0  0  0  0  0  0  0
   -4.5619    2.2388   -1.4845 C   0  0  2  0  0  0  0  0  0  0  0  0
   -3.1535    2.4674   -0.9521 C   0  0  0  0  0  0  0  0  0  0  0  0
   -2.8634    3.3945   -0.1987 O   0  0  0  0  0  0  0  0  0  0  0  0
   -4.7883    3.0138   -2.7732 C   0  0  0  0  0  0  0  0  0  0  0  0
   -5.2337    3.4049    0.1551 H   0  0  0  0  0  0  0  0  0  0  0  0
   -4.7192    1.1682   -1.6549 H   0  0  0  0  0  0  0  0  0  0  0  0
   -4.6352    4.0886   -2.6221 H   0  0  0  0  0  0  0  0  0  0  0  0
   -4.0976    2.6887   -3.5582 H   0  0  0  0  0  0  0  0  0  0  0  0
   -5.8111    2.8719   -3.1387 H   0  0  0  0  0  0  0  0  0  0  0  0
   -2.2466    1.5400   -1.4507 N   0  0  0  0  0  0  0  0  0  0  0  0
   -0.8424    1.5707   -1.1286 C   0  0  2  0  0  0  0  0  0  0  0  0
   -0.6511    1.0606    0.2983 C   0  0  0  0  0  0  0  0  0  0  0  0
    0.0949    1.6051    1.1097 O   0  0  0  0  0  0  0  0  0  0  0  0
   -0.2194    2.9480   -1.3694 C   0  0  0  0  0  0  0  0  0  0  0  0
   -0.2110    3.4504   -3.1072 S   0  0  0  0  0  0  0  0  0  0  0  0
   -2.5850    0.7815   -2.0381 H   0  0  0  0  0  0  0  0  0  0  0  0
   -0.3691    0.8480   -1.8048 H   0  0  0  0  0  0  0  0  0  0  0  0
   -0.7597    3.7176   -0.8086 H   0  0  0  0  0  0  0  0  0  0  0  0
    0.8192    2.9536   -1.0215 H   0  0  0  0  0  0  0  0  0  0  0  0
   -1.3912   -0.0861    0.5494 N   0  0  0  0  0  0  0  0  0  0  0  0
   -1.3585   -0.7716    1.8201 C   0  0  2  0  0  0  0  0  0  0  0  0
   -1.5513   -2.2593    1.5570 C   0  0  0  0  0  0  0  0  0  0  0  0
   -2.2630   -2.6941    0.6539 O   0  0  0  0  0  0  0  0  0  0  0  0
   -2.4292   -0.2430    2.7618 C   0  0  0  0  0  0  0  0  0  0  0  0
   -2.0163   -0.4445   -0.1665 H   0  0  0  0  0  0  0  0  0  0  0  0
   -0.3636   -0.6014    2.2458 H   0  0  0  0  0  0  0  0  0  0  0  0
   -3.4330   -0.4047    2.3521 H   0  0  0  0  0  0  0  0  0  0  0  0
   -2.3847   -0.7439    3.7345 H   0  0  0  0  0  0  0  0  0  0  0  0
   -2.3068    0.8330    2.9263 H   0  0  0  0  0  0  0  0  0  0  0  0
   -0.8694   -3.0445    2.4761 N   0  0  0  0  0  0  0  0  0  0  0  0
   -0.9284   -4.4875    2.4643 C   0  0  0  0  0  0  0  0  0  0  0  0
   -0.2711   -2.6002    3.1663 H   0  0  0  0  0  0  0  0  0  0  0  0
   -1.7352   -4.8275    3.1303 H   0  0  0  0  0  0  0  0  0  0  0  0
   -1.1261   -4.8380    1.4406 H   0  0  0  0  0  0  0  0  0  0  0  0
    0.0314   -4.8965    2.8129 H   0  0  0  0  0  0  0  0  0  0  0  0
  1  3  1  0  0  0  0
  1  7  1  0  0  0  0
  1  2  2  0  0  0  0
 23 25  1  0  0  0  0
 23 29  1  0  0  0  0
 23 24  2  0  0  0  0
 50 51  1  0  0  0  0
 51 59  1  0  0  0  0
 51 52  2  0  0  0  0
  8  9  1  0  0  0  0
  9 17  1  0  0  0  0
  9 10  2  0  0  0  0
 30 31  1  0  0  0  0
 31 39  1  0  0  0  0
 31 32  2  0  0  0  0
 40 41  1  0  0  0  0
 41 49  1  0  0  0  0
 41 42  2  0  0  0  0
 50 53  1  0  0  0  0
 30 33  1  0  0  0  0
 59 60  1  0  0  0  0
 17 18  1  0  0  0  0
  8 11  1  0  0  0  0
 11 12  1  0  0  0  0
 40 43  1  0  0  0  0
 43 44  1  0  0  0  0
 49 50  1  0  0  0  0
  7  8  1  0  0  0  0
 29 30  1  0  0  0  0
 39 40  1  0  0  0  0
 12 44  1  0  0  0  0
  3  4  1  0  0  0  0
  3  5  1  0  0  0  0
  3  6  1  0  0  0  0
 25 26  1  0  0  0  0
 25 27  1  0  0  0  0
 25 28  1  0  0  0  0
 53 56  1  0  0  0  0
 53 57  1  0  0  0  0
 53 58  1  0  0  0  0
 33 36  1  0  0  0  0
 33 37  1  0  0  0  0
 33 38  1  0  0  0  0
 60 62  1  0  0  0  0
 60 63  1  0  0  0  0
 60 64  1  0  0  0  0
 18 20  1  0  0  0  0
 18 21  1  0  0  0  0
 18 22  1  0  0  0  0
 11 15  1  0  0  0  0
 11 16  1  0  0  0  0
 43 47  1  0  0  0  0
 43 48  1  0  0  0  0
 50 55  1  0  0  0  0
  8 14  1  0  0  0  0
 30 35  1  0  0  0  0
 40 46  1  0  0  0  0
 59 61  1  0  0  0  0
 17 19  1  0  0  0  0
  7 13  1  0  0  0  0
 29 34  1  0  0  0  0
 49 54  1  0  0  0  0
 39 45  1  0  0  0  0
M  END
$$$$

  -OEChem-05262214473D

 64 63  0     1  0  0  0  0  0999 V2000
   -0.5263    8.8983   -4.9213 C   0  0  0  0  0  0  0  0  0  0  0  0
   -1.7462    8.9943   -4.9869 O   0  0  0  0  0  0  0  0  0  0  0  0
    0.3117    9.3723   -6.0621 C   0  0  0  0  0  0  0  0  0  0  0  0
    0.4987    8.5797   -6.8043 H   0  0  0  0  0  0  0  0  0  0  0  0
   -0.1670   10.1903   -6.6240 H   0  0  0  0  0  0  0  0  0  0  0  0
    1.3084    9.7538   -5.7882 H   0  0  0  0  0  0  0  0  0  0  0  0
    0.1988    8.3789   -3.8627 N   0  0  0  0  0  0  0  0  0  0  0  0
   -0.4111    7.8673   -2.6616 C   0  0  2  0  0  0  0  0  0  0  0  0
    0.4944    8.1849   -1.4733 C   0  0  0  0  0  0  0  0  0  0  0  0
    1.6096    8.6873   -1.5967 O   0  0  0  0  0  0  0  0  0  0  0  0
   -0.7655    6.3826   -2.7749 C   0  0  0  0  0  0  0  0  0  0  0  0
    0.6810    5.2977   -3.0053 S   0  0  0  0  0  0  0  0  0  0  0  0
    1.2134    8.3572   -3.9365 H   0  0  0  0  0  0  0  0  0  0  0  0
   -1.3377    8.4409   -2.5343 H   0  0  0  0  0  0  0  0  0  0  0  0
   -1.2897    6.0428   -1.8757 H   0  0  0  0  0  0  0  0  0  0  0  0
   -1.4343    6.2226   -3.6275 H   0  0  0  0  0  0  0  0  0  0  0  0
   -0.0790    7.8186   -0.2639 N   0  0  0  0  0  0  0  0  0  0  0  0
    0.5932    7.9953    1.0021 C   0  0  0  0  0  0  0  0  0  0  0  0
   -1.0249    7.4487   -0.2507 H   0  0  0  0  0  0  0  0  0  0  0  0
    1.1402    7.0761    1.2588 H   0  0  0  0  0  0  0  0  0  0  0  0
    1.3008    8.8342    0.9275 H   0  0  0  0  0  0  0  0  0  0  0  0
   -0.1494    8.2104    1.7846 H   0  0  0  0  0  0  0  0  0  0  0  0
   -6.7256    2.0330   -0.2766 C   0  0  0  0  0  0  0  0  0  0  0  0
   -7.1824    1.1039   -0.9322 O   0  0  0  0  0  0  0  0  0  0  0  0
   -7.5276    2.6077    0.8435 C   0  0  0  0  0  0  0  0  0  0  0  0
   -8.1775    3.4344    0.5145 H   0  0  0  0  0  0  0  0  0  0  0  0
   -8.2057    1.8676    1.2980 H   0  0  0  0  0  0  0  0  0  0  0  0
   -6.9411    3.0162    1.6819 H   0  0  0  0  0  0  0  0  0  0  0  0
   -5.4935    2.6382   -0.4627 N   0  0  0  0  0  0  0  0  0  0  0  0
   -4.5619    2.2388   -1.4845 C   0  0  2  0  0  0  0  0  0  0  0  0
   -3.1535    2.4674   -0.9521 C   0  0  0  0  0  0  0  0  0  0  0  0
   -2.8634    3.3945   -0.1987 O   0  0  0  0  0  0  0  0  0  0  0  0
   -4.7883    3.0138   -2.7732 C   0  0  0  0  0  0  0  0  0  0  0  0
   -5.2337    3.4049    0.1551 H   0  0  0  0  0  0  0  0  0  0  0  0
   -4.7192    1.1682   -1.6549 H   0  0  0  0  0  0  0  0  0  0  0  0
   -4.6352    4.0886   -2.6221 H   0  0  0  0  0  0  0  0  0  0  0  0
   -4.0976    2.6887   -3.5582 H   0  0  0  0  0  0  0  0  0  0  0  0
   -5.8111    2.8719   -3.1387 H   0  0  0  0  0  0  0  0  0  0  0  0
   -2.2466    1.5400   -1.4507 N   0  0  0  0  0  0  0  0  0  0  0  0
   -0.8424    1.5707   -1.1286 C   0  0  2  0  0  0  0  0  0  0  0  0
   -0.6511    1.0606    0.2983 C   0  0  0  0  0  0  0  0  0  0  0  0
   -0.1295    1.7330    1.1855 O   0  0  0  0  0  0  0  0  0  0  0  0
   -0.2194    2.9480   -1.3694 C   0  0  0  0  0  0  0  0  0  0  0  0
   -0.2110    3.4504   -3.1072 S   0  0  0  0  0  0  0  0  0  0  0  0
   -2.5850    0.7815   -2.0381 H   0  0  0  0  0  0  0  0  0  0  0  0
   -0.3691    0.8480   -1.8048 H   0  0  0  0  0  0  0  0  0  0  0  0
   -0.7597    3.7176   -0.8086 H   0  0  0  0  0  0  0  0  0  0  0  0
    0.8192    2.9536   -1.0215 H   0  0  0  0  0  0  0  0  0  0  0  0
   -1.1081   -0.2401    0.4564 N   0  0  0  0  0  0  0  0  0  0  0  0
   -1.0146   -0.9517    1.7096 C   0  0  2  0  0  0  0  0  0  0  0  0
   -0.8174   -2.4294    1.3978 C   0  0  0  0  0  0  0  0  0  0  0  0
   -1.3250   -2.9831    0.4248 O   0  0  0  0  0  0  0  0  0  0  0  0
   -2.2557   -0.7370    2.5619 C   0  0  0  0  0  0  0  0  0  0  0  0
   -1.5661   -0.7070   -0.3207 H   0  0  0  0  0  0  0  0  0  0  0  0
   -0.1296   -0.5658    2.2272 H   0  0  0  0  0  0  0  0  0  0  0  0
   -3.1527   -1.1174    2.0597 H   0  0  0  0  0  0  0  0  0  0  0  0
   -2.1710   -1.2539    3.5235 H   0  0  0  0  0  0  0  0  0  0  0  0
   -2.4126    0.3288    2.7602 H   0  0  0  0  0  0  0  0  0  0  0  0
   -0.0433   -3.0665    2.3575 N   0  0  0  0  0  0  0  0  0  0  0  0
    0.2516   -4.4795    2.3090 C   0  0  0  0  0  0  0  0  0  0  0  0
    0.3700   -2.5216    3.1085 H   0  0  0  0  0  0  0  0  0  0  0  0
   -0.5003   -5.0317    2.8917 H   0  0  0  0  0  0  0  0  0  0  0  0
    0.2302   -4.8228    1.2641 H   0  0  0  0  0  0  0  0  0  0  0  0
    1.2500   -4.6604    2.7340 H   0  0  0  0  0  0  0  0  0  0  0  0
  1  3  1  0  0  0  0
  1  7  1  0  0  0  0
  1  2  2  0  0  0  0
 23 25  1  0  0  0  0
 23 29  1  0  0  0  0
 23 24  2  0  0  0  0
 50 51  1  0  0  0  0
 51 59  1  0  0  0  0
 51 52  2  0  0  0  0
  8  9  1  0  0  0  0
  9 17  1  0  0  0  0
  9 10  2  0  0  0  0
 30 31  1  0  0  0  0
 31 39  1  0  0  0  0
 31 32  2  0  0  0  0
 40 41  1  0  0  0  0
 41 49  1  0  0  0  0
 41 42  2  0  0  0  0
 50 53  1  0  0  0  0
 30 33  1  0  0  0  0
 59 60  1  0  0  0  0
 17 18  1  0  0  0  0
  8 11  1  0  0  0  0
 11 12  1  0  0  0  0
 40 43  1  0  0  0  0
 43 44  1  0  0  0  0
 49 50  1  0  0  0  0
  7  8  1  0  0  0  0
 29 30  1  0  0  0  0
 39 40  1  0  0  0  0
 12 44  1  0  0  0  0
  3  4  1  0  0  0  0
  3  5  1  0  0  0  0
  3  6  1  0  0  0  0
 25 26  1  0  0  0  0
 25 27  1  0  0  0  0
 25 28  1  0  0  0  0
 53 56  1  0  0  0  0
 53 57  1  0  0  0  0
 53 58  1  0  0  0  0
 33 36  1  0  0  0  0
 33 37  1  0  0  0  0
 33 38  1  0  0  0  0
 60 62  1  0  0  0  0
 60 63  1  0  0  0  0
 60 64  1  0  0  0  0
 18 20  1  0  0  0  0
 18 21  1  0  0  0  0
 18 22  1  0  0  0  0
 11 15  1  0  0  0  0
 11 16  1  0  0  0  0
 43 47  1  0  0  0  0
 43 48  1  0  0  0  0
 50 55  1  0  0  0  0
  8 14  1  0  0  0  0
 30 35  1  0  0  0  0
 40 46  1  0  0  0  0
 59 61  1  0  0  0  0
 17 19  1  0  0  0  0
  7 13  1  0  0  0  0
 29 34  1  0  0  0  0
 49 54  1  0  0  0  0
 39 45  1  0  0  0  0
M  END
$$$$

  -OEChem-05262214473D

 64 63  0     1  0  0  0  0  0999 V2000
   -0.5263    8.8983   -4.9213 C   0  0  0  0  0  0  0  0  0  0  0  0
   -1.7462    8.9943   -4.9869 O   0  0  0  0  0  0  0  0  0  0  0  0
    0.3117    9.3723   -6.0621 C   0  0  0  0  0  0  0  0  0  0  0  0
    0.4987    8.5797   -6.8043 H   0  0  0  0  0  0  0  0  0  0  0  0
   -0.1670   10.1903   -6.6240 H   0  0  0  0  0  0  0  0  0  0  0  0
    1.3084    9.7538   -5.7882 H   0  0  0  0  0  0  0  0  0  0  0  0
    0.1988    8.3789   -3.8627 N   0  0  0  0  0  0  0  0  0  0  0  0
   -0.4111    7.8673   -2.6616 C   0  0  2  0  0  0  0  0  0  0  0  0
    0.4944    8.1849   -1.4733 C   0  0  0  0  0  0  0  0  0  0  0  0
    1.6096    8.6873   -1.5967 O   0  0  0  0  0  0  0  0  0  0  0  0
   -0.7655    6.3826   -2.7749 C   0  0  0  0  0  0  0  0  0  0  0  0
    0.6810    5.2977   -3.0053 S   0  0  0  0  0  0  0  0  0  0  0  0
    1.2134    8.3572   -3.9365 H   0  0  0  0  0  0  0  0  0  0  0  0
   -1.3377    8.4409   -2.5343 H   0  0  0  0  0  0  0  0  0  0  0  0
   -1.2897    6.0428   -1.8757 H   0  0  0  0  0  0  0  0  0  0  0  0
   -1.4343    6.2226   -3.6275 H   0  0  0  0  0  0  0  0  0  0  0  0
   -0.0790    7.8186   -0.2639 N   0  0  0  0  0  0  0  0  0  0  0  0
    0.5932    7.9953    1.0021 C   0  0  0  0  0  0  0  0  0  0  0  0
   -1.0249    7.4487   -0.2507 H   0  0  0  0  0  0  0  0  0  0  0  0
    1.1402    7.0761    1.2588 H   0  0  0  0  0  0  0  0  0  0  0  0
    1.3008    8.8342    0.9275 H   0  0  0  0  0  0  0  0  0  0  0  0
   -0.1494    8.2104    1.7846 H   0  0  0  0  0  0  0  0  0  0  0  0
   -6.7256    2.0330   -0.2766 C   0  0  0  0  0  0  0  0  0  0  0  0
   -7.1824    1.1039   -0.9322 O   0  0  0  0  0  0  0  0  0  0  0  0
   -7.5276    2.6077    0.8435 C   0  0  0  0  0  0  0  0  0  0  0  0
   -8.1775    3.4344    0.5145 H   0  0  0  0  0  0  0  0  0  0  0  0
   -8.2057    1.8676    1.2980 H   0  0  0  0  0  0  0  0  0  0  0  0
   -6.9411    3.0162    1.6819 H   0  0  0  0  0  0  0  0  0  0  0  0
   -5.4935    2.6382   -0.4627 N   0  0  0  0  0  0  0  0  0  0  0  0
   -4.5619    2.2388   -1.4845 C   0  0  2  0  0  0  0  0  0  0  0  0
   -3.1535    2.4674   -0.9521 C   0  0  0  0  0  0  0  0  0  0  0  0
   -2.8634    3.3945   -0.1987 O   0  0  0  0  0  0  0  0  0  0  0  0
   -4.7883    3.0138   -2.7732 C   0  0  0  0  0  0  0  0  0  0  0  0
   -5.2337    3.4049    0.1551 H   0  0  0  0  0  0  0  0  0  0  0  0
   -4.7192    1.1682   -1.6549 H   0  0  0  0  0  0  0  0  0  0  0  0
   -4.6352    4.0886   -2.6221 H   0  0  0  0  0  0  0  0  0  0  0  0
   -4.0976    2.6887   -3.5582 H   0  0  0  0  0  0  0  0  0  0  0  0
   -5.8111    2.8719   -3.1387 H   0  0  0  0  0  0  0  0  0  0  0  0
   -2.2466    1.5400   -1.4507 N   0  0  0  0  0  0  0  0  0  0  0  0
   -0.8424    1.5707   -1.1286 C   0  0  2  0  0  0  0  0  0  0  0  0
   -0.6511    1.0606    0.2983 C   0  0  0  0  0  0  0  0  0  0  0  0
   -0.3837    1.7998    1.2435 O   0  0  0  0  0  0  0  0  0  0  0  0
   -0.2194    2.9480   -1.3694 C   0  0  0  0  0  0  0  0  0  0  0  0
   -0.2110    3.4504   -3.1072 S   0  0  0  0  0  0  0  0  0  0  0  0
   -2.5850    0.7815   -2.0381 H   0  0  0  0  0  0  0  0  0  0  0  0
   -0.3691    0.8480   -1.8048 H   0  0  0  0  0  0  0  0  0  0  0  0
   -0.7597    3.7176   -0.8086 H   0  0  0  0  0  0  0  0  0  0  0  0
    0.8192    2.9536   -1.0215 H   0  0  0  0  0  0  0  0  0  0  0  0
   -0.7895   -0.3174    0.3860 N   0  0  0  0  0  0  0  0  0  0  0  0
   -0.6294   -1.0389    1.6268 C   0  0  2  0  0  0  0  0  0  0  0  0
   -0.0537   -2.4110    1.3020 C   0  0  0  0  0  0  0  0  0  0  0  0
   -0.3294   -3.0282    0.2752 O   0  0  0  0  0  0  0  0  0  0  0  0
   -1.9513   -1.1657    2.3678 C   0  0  0  0  0  0  0  0  0  0  0  0
   -1.0545   -0.8468   -0.4393 H   0  0  0  0  0  0  0  0  0  0  0  0
    0.0894   -0.4743    2.2305 H   0  0  0  0  0  0  0  0  0  0  0  0
   -2.6843   -1.7286    1.7784 H   0  0  0  0  0  0  0  0  0  0  0  0
   -1.8230   -1.6880    3.3216 H   0  0  0  0  0  0  0  0  0  0  0  0
   -2.3786   -0.1785    2.5743 H   0  0  0  0  0  0  0  0  0  0  0  0
    0.7703   -2.8841    2.3136 N   0  0  0  0  0  0  0  0  0  0  0  0
    1.4030   -4.1814    2.2612 C   0  0  0  0  0  0  0  0  0  0  0  0
    0.9752   -2.2887    3.1106 H   0  0  0  0  0  0  0  0  0  0  0  0
    0.7625   -4.9227    2.7614 H   0  0  0  0  0  0  0  0  0  0  0  0
    1.5520   -4.4744    1.2115 H   0  0  0  0  0  0  0  0  0  0  0  0
    2.3768   -4.1351    2.7707 H   0  0  0  0  0  0  0  0  0  0  0  0
  1  3  1  0  0  0  0
  1  7  1  0  0  0  0
  1  2  2  0  0  0  0
 23 25  1  0  0  0  0
 23 29  1  0  0  0  0
 23 24  2  0  0  0  0
 50 51  1  0  0  0  0
 51 59  1  0  0  0  0
 51 52  2  0  0  0  0
  8  9  1  0  0  0  0
  9 17  1  0  0  0  0
  9 10  2  0  0  0  0
 30 31  1  0  0  0  0
 31 39  1  0  0  0  0
 31 32  2  0  0  0  0
 40 41  1  0  0  0  0
 41 49  1  0  0  0  0
 41 42  2  0  0  0  0
 50 53  1  0  0  0  0
 30 33  1  0  0  0  0
 59 60  1  0  0  0  0
 17 18  1  0  0  0  0
  8 11  1  0  0  0  0
 11 12  1  0  0  0  0
 40 43  1  0  0  0  0
 43 44  1  0  0  0  0
 49 50  1  0  0  0  0
  7  8  1  0  0  0  0
 29 30  1  0  0  0  0
 39 40  1  0  0  0  0
 12 44  1  0  0  0  0
  3  4  1  0  0  0  0
  3  5  1  0  0  0  0
  3  6  1  0  0  0  0
 25 26  1  0  0  0  0
 25 27  1  0  0  0  0
 25 28  1  0  0  0  0
 53 56  1  0  0  0  0
 53 57  1  0  0  0  0
 53 58  1  0  0  0  0
 33 36  1  0  0  0  0
 33 37  1  0  0  0  0
 33 38  1  0  0  0  0
 60 62  1  0  0  0  0
 60 63  1  0  0  0  0
 60 64  1  0  0  0  0
 18 20  1  0  0  0  0
 18 21  1  0  0  0  0
 18 22  1  0  0  0  0
 11 15  1  0  0  0  0
 11 16  1  0  0  0  0
 43 47  1  0  0  0  0
 43 48  1  0  0  0  0
 50 55  1  0  0  0  0
  8 14  1  0  0  0  0
 30 35  1  0  0  0  0
 40 46  1  0  0  0  0
 59 61  1  0  0  0  0
 17 19  1  0  0  0  0
  7 13  1  0  0  0  0
 29 34  1  0  0  0  0
 49 54  1  0  0  0  0
 39 45  1  0  0  0  0
M  END
$$$$

  -OEChem-05262214473D

 64 63  0     1  0  0  0  0  0999 V2000
   -0.5263    8.8983   -4.9213 C   0  0  0  0  0  0  0  0  0  0  0  0
   -1.7462    8.9943   -4.9869 O   0  0  0  0  0  0  0  0  0  0  0  0
    0.3117    9.3723   -6.0621 C   0  0  0  0  0  0  0  0  0  0  0  0
    0.4987    8.5797   -6.8043 H   0  0  0  0  0  0  0  0  0  0  0  0
   -0.1670   10.1903   -6.6240 H   0  0  0  0  0  0  0  0  0  0  0  0
    1.3084    9.7538   -5.7882 H   0  0  0  0  0  0  0  0  0  0  0  0
    0.1988    8.3789   -3.8627 N   0  0  0  0  0  0  0  0  0  0  0  0
   -0.4111    7.8673   -2.6616 C   0  0  2  0  0  0  0  0  0  0  0  0
    0.4944    8.1849   -1.4733 C   0  0  0  0  0  0  0  0  0  0  0  0
    1.6096    8.6873   -1.5967 O   0  0  0  0  0  0  0  0  0  0  0  0
   -0.7655    6.3826   -2.7749 C   0  0  0  0  0  0  0  0  0  0  0  0
    0.6810    5.2977   -3.0053 S   0  0  0  0  0  0  0  0  0  0  0  0
    1.2134    8.3572   -3.9365 H   0  0  0  0  0  0  0  0  0  0  0  0
   -1.3377    8.4409   -2.5343 H   0  0  0  0  0  0  0  0  0  0  0  0
   -1.2897    6.0428   -1.8757 H   0  0  0  0  0  0  0  0  0  0  0  0
   -1.4343    6.2226   -3.6275 H   0  0  0  0  0  0  0  0  0  0  0  0
   -0.0790    7.8186   -0.2639 N   0  0  0  0  0  0  0  0  0  0  0  0
    0.5932    7.9953    1.0021 C   0  0  0  0  0  0  0  0  0  0  0  0
   -1.0249    7.4487   -0.2507 H   0  0  0  0  0  0  0  0  0  0  0  0
    1.1402    7.0761    1.2588 H   0  0  0  0  0  0  0  0  0  0  0  0
    1.3008    8.8342    0.9275 H   0  0  0  0  0  0  0  0  0  0  0  0
   -0.1494    8.2104    1.7846 H   0  0  0  0  0  0  0  0  0  0  0  0
   -6.7256    2.0330   -0.2766 C   0  0  0  0  0  0  0  0  0  0  0  0
   -7.1824    1.1039   -0.9322 O   0  0  0  0  0  0  0  0  0  0  0  0
   -7.5276    2.6077    0.8435 C   0  0  0  0  0  0  0  0  0  0  0  0
   -8.1775    3.4344    0.5145 H   0  0  0  0  0  0  0  0  0  0  0  0
   -8.2057    1.8676    1.2980 H   0  0  0  0  0  0  0  0  0  0  0  0
   -6.9411    3.0162    1.6819 H   0  0  0  0  0  0  0  0  0  0  0  0
   -5.4935    2.6382   -0.4627 N   0  0  0  0  0  0  0  0  0  0  0  0
   -4.5619    2.2388   -1.4845 C   0  0  2  0  0  0  0  0  0  0  0  0
   -3.1535    2.4674   -0.9521 C   0  0  0  0  0  0  0  0  0  0  0  0
   -2.8634    3.3945   -0.1987 O   0  0  0  0  0  0  0  0  0  0  0  0
   -4.7883    3.0138   -2.7732 C   0  0  0  0  0  0  0  0  0  0  0  0
   -5.2337    3.4049    0.1551 H   0  0  0  0  0  0  0  0  0  0  0  0
   -4.7192    1.1682   -1.6549 H   0  0  0  0  0  0  0  0  0  0  0  0
   -4.6352    4.0886   -2.6221 H   0  0  0  0  0  0  0  0  0  0  0  0
   -4.0976    2.6887   -3.5582 H   0  0  0  0  0  0  0  0  0  0  0  0
   -5.8111    2.8719   -3.1387 H   0  0  0  0  0  0  0  0  0  0  0  0
   -2.2466    1.5400   -1.4507 N   0  0  0  0  0  0  0  0  0  0  0  0
   -0.8424    1.5707   -1.1286 C   0  0  2  0  0  0  0  0  0  0  0  0
   -0.6511    1.0606    0.2983 C   0  0  0  0  0  0  0  0  0  0  0  0
   -0.6504    1.8010    1.2797 O   0  0  0  0  0  0  0  0  0  0  0  0
   -0.2194    2.9480   -1.3694 C   0  0  0  0  0  0  0  0  0  0  0  0
   -0.2110    3.4504   -3.1072 S   0  0  0  0  0  0  0  0  0  0  0  0
   -2.5850    0.7815   -2.0381 H   0  0  0  0  0  0  0  0  0  0  0  0
   -0.3691    0.8480   -1.8048 H   0  0  0  0  0  0  0  0  0  0  0  0
   -0.7597    3.7176   -0.8086 H   0  0  0  0  0  0  0  0  0  0  0  0
    0.8192    2.9536   -1.0215 H   0  0  0  0  0  0  0  0  0  0  0  0
   -0.4570   -0.3127    0.3431 N   0  0  0  0  0  0  0  0  0  0  0  0
   -0.2290   -1.0274    1.5773 C   0  0  2  0  0  0  0  0  0  0  0  0
    0.6879   -2.2055    1.2760 C   0  0  0  0  0  0  0  0  0  0  0  0
    0.6562   -2.8261    0.2153 O   0  0  0  0  0  0  0  0  0  0  0  0
   -1.5369   -1.4999    2.1927 C   0  0  0  0  0  0  0  0  0  0  0  0
   -0.5162   -0.8542   -0.5141 H   0  0  0  0  0  0  0  0  0  0  0  0
    0.2786   -0.3330    2.2557 H   0  0  0  0  0  0  0  0  0  0  0  0
   -2.0598   -2.1966    1.5273 H   0  0  0  0  0  0  0  0  0  0  0  0
   -1.3645   -2.0166    3.1426 H   0  0  0  0  0  0  0  0  0  0  0  0
   -2.2069   -0.6542    2.3812 H   0  0  0  0  0  0  0  0  0  0  0  0
    1.5159   -2.5098    2.3475 N   0  0  0  0  0  0  0  0  0  0  0  0
    2.4472   -3.6134    2.3242 C   0  0  0  0  0  0  0  0  0  0  0  0
    1.5034   -1.9174    3.1725 H   0  0  0  0  0  0  0  0  0  0  0  0
    1.9672   -4.5078    2.7482 H   0  0  0  0  0  0  0  0  0  0  0  0
    2.7490   -3.8166    1.2861 H   0  0  0  0  0  0  0  0  0  0  0  0
    3.3351   -3.3564    2.9206 H   0  0  0  0  0  0  0  0  0  0  0  0
  1  3  1  0  0  0  0
  1  7  1  0  0  0  0
  1  2  2  0  0  0  0
 23 25  1  0  0  0  0
 23 29  1  0  0  0  0
 23 24  2  0  0  0  0
 50 51  1  0  0  0  0
 51 59  1  0  0  0  0
 51 52  2  0  0  0  0
  8  9  1  0  0  0  0
  9 17  1  0  0  0  0
  9 10  2  0  0  0  0
 30 31  1  0  0  0  0
 31 39  1  0  0  0  0
 31 32  2  0  0  0  0
 40 41  1  0  0  0  0
 41 49  1  0  0  0  0
 41 42  2  0  0  0  0
 50 53  1  0  0  0  0
 30 33  1  0  0  0  0
 59 60  1  0  0  0  0
 17 18  1  0  0  0  0
  8 11  1  0  0  0  0
 11 12  1  0  0  0  0
 40 43  1  0  0  0  0
 43 44  1  0  0  0  0
 49 50  1  0  0  0  0
  7  8  1  0  0  0  0
 29 30  1  0  0  0  0
 39 40  1  0  0  0  0
 12 44  1  0  0  0  0
  3  4  1  0  0  0  0
  3  5  1  0  0  0  0
  3  6  1  0  0  0  0
 25 26  1  0  0  0  0
 25 27  1  0  0  0  0
 25 28  1  0  0  0  0
 53 56  1  0  0  0  0
 53 57  1  0  0  0  0
 53 58  1  0  0  0  0
 33 36  1  0  0  0  0
 33 37  1  0  0  0  0
 33 38  1  0  0  0  0
 60 62  1  0  0  0  0
 60 63  1  0  0  0  0
 60 64  1  0  0  0  0
 18 20  1  0  0  0  0
 18 21  1  0  0  0  0
 18 22  1  0  0  0  0
 11 15  1  0  0  0  0
 11 16  1  0  0  0  0
 43 47  1  0  0  0  0
 43 48  1  0  0  0  0
 50 55  1  0  0  0  0
  8 14  1  0  0  0  0
 30 35  1  0  0  0  0
 40 46  1  0  0  0  0
 59 61  1  0  0  0  0
 17 19  1  0  0  0  0
  7 13  1  0  0  0  0
 29 34  1  0  0  0  0
 49 54  1  0  0  0  0
 39 45  1  0  0  0  0
M  END
$$$$

  -OEChem-05262214473D

 64 63  0     1  0  0  0  0  0999 V2000
   -0.5263    8.8983   -4.9213 C   0  0  0  0  0  0  0  0  0  0  0  0
   -1.7462    8.9943   -4.9869 O   0  0  0  0  0  0  0  0  0  0  0  0
    0.3117    9.3723   -6.0621 C   0  0  0  0  0  0  0  0  0  0  0  0
    0.4987    8.5797   -6.8043 H   0  0  0  0  0  0  0  0  0  0  0  0
   -0.1670   10.1903   -6.6240 H   0  0  0  0  0  0  0  0  0  0  0  0
    1.3084    9.7538   -5.7882 H   0  0  0  0  0  0  0  0  0  0  0  0
    0.1988    8.3789   -3.8627 N   0  0  0  0  0  0  0  0  0  0  0  0
   -0.4111    7.8673   -2.6616 C   0  0  2  0  0  0  0  0  0  0  0  0
    0.4944    8.1849   -1.4733 C   0  0  0  0  0  0  0  0  0  0  0  0
    1.6096    8.6873   -1.5967 O   0  0  0  0  0  0  0  0  0  0  0  0
   -0.7655    6.3826   -2.7749 C   0  0  0  0  0  0  0  0  0  0  0  0
    0.6810    5.2977   -3.0053 S   0  0  0  0  0  0  0  0  0  0  0  0
    1.2134    8.3572   -3.9365 H   0  0  0  0  0  0  0  0  0  0  0  0
   -1.3377    8.4409   -2.5343 H   0  0  0  0  0  0  0  0  0  0  0  0
   -1.2897    6.0428   -1.8757 H   0  0  0  0  0  0  0  0  0  0  0  0
   -1.4343    6.2226   -3.6275 H   0  0  0  0  0  0  0  0  0  0  0  0
   -0.0790    7.8186   -0.2639 N   0  0  0  0  0  0  0  0  0  0  0  0
    0.5932    7.9953    1.0021 C   0  0  0  0  0  0  0  0  0  0  0  0
   -1.0249    7.4487   -0.2507 H   0  0  0  0  0  0  0  0  0  0  0  0
    1.1402    7.0761    1.2588 H   0  0  0  0  0  0  0  0  0  0  0  0
    1.3008    8.8342    0.9275 H   0  0  0  0  0  0  0  0  0  0  0  0
   -0.1494    8.2104    1.7846 H   0  0  0  0  0  0  0  0  0  0  0  0
   -6.7256    2.0330   -0.2766 C   0  0  0  0  0  0  0  0  0  0  0  0
   -7.1824    1.1039   -0.9322 O   0  0  0  0  0  0  0  0  0  0  0  0
   -7.5276    2.6077    0.8435 C   0  0  0  0  0  0  0  0  0  0  0  0
   -8.1775    3.4344    0.5145 H   0  0  0  0  0  0  0  0  0  0  0  0
   -8.2057    1.8676    1.2980 H   0  0  0  0  0  0  0  0  0  0  0  0
   -6.9411    3.0162    1.6819 H   0  0  0  0  0  0  0  0  0  0  0  0
   -5.4935    2.6382   -0.4627 N   0  0  0  0  0  0  0  0  0  0  0  0
   -4.5619    2.2388   -1.4845 C   0  0  2  0  0  0  0  0  0  0  0  0
   -3.1535    2.4674   -0.9521 C   0  0  0  0  0  0  0  0  0  0  0  0
   -2.8634    3.3945   -0.1987 O   0  0  0  0  0  0  0  0  0  0  0  0
   -4.7883    3.0138   -2.7732 C   0  0  0  0  0  0  0  0  0  0  0  0
   -5.2337    3.4049    0.1551 H   0  0  0  0  0  0  0  0  0  0  0  0
   -4.7192    1.1682   -1.6549 H   0  0  0  0  0  0  0  0  0  0  0  0
   -4.6352    4.0886   -2.6221 H   0  0  0  0  0  0  0  0  0  0  0  0
   -4.0976    2.6887   -3.5582 H   0  0  0  0  0  0  0  0  0  0  0  0
   -5.8111    2.8719   -3.1387 H   0  0  0  0  0  0  0  0  0  0  0  0
   -2.2466    1.5400   -1.4507 N   0  0  0  0  0  0  0  0  0  0  0  0
   -0.8424    1.5707   -1.1286 C   0  0  2  0  0  0  0  0  0  0  0  0
   -0.6511    1.0606    0.2983 C   0  0  0  0  0  0  0  0  0  0  0  0
   -0.9114    1.7365    1.2916 O   0  0  0  0  0  0  0  0  0  0  0  0
   -0.2194    2.9480   -1.3694 C   0  0  0  0  0  0  0  0  0  0  0  0
   -0.2110    3.4504   -3.1072 S   0  0  0  0  0  0  0  0  0  0  0  0
   -2.5850    0.7815   -2.0381 H   0  0  0  0  0  0  0  0  0  0  0  0
   -0.3691    0.8480   -1.8048 H   0  0  0  0  0  0  0  0  0  0  0  0
   -0.7597    3.7176   -0.8086 H   0  0  0  0  0  0  0  0  0  0  0  0
    0.8192    2.9536   -1.0215 H   0  0  0  0  0  0  0  0  0  0  0  0
   -0.1332   -0.2264    0.3306 N   0  0  0  0  0  0  0  0  0  0  0  0
    0.1592   -0.9177    1.5644 C   0  0  2  0  0  0  0  0  0  0  0  0
    1.3567   -1.8269    1.3217 C   0  0  0  0  0  0  0  0  0  0  0  0
    1.5645   -2.3906    0.2492 O   0  0  0  0  0  0  0  0  0  0  0  0
   -1.0406   -1.7169    2.0486 C   0  0  0  0  0  0  0  0  0  0  0  0
    0.0120   -0.7289   -0.5401 H   0  0  0  0  0  0  0  0  0  0  0  0
    0.4249   -0.1516    2.3009 H   0  0  0  0  0  0  0  0  0  0  0  0
   -1.3217   -2.4895    1.3236 H   0  0  0  0  0  0  0  0  0  0  0  0
   -0.8267   -2.2174    2.9987 H   0  0  0  0  0  0  0  0  0  0  0  0
   -1.9095   -1.0659    2.1941 H   0  0  0  0  0  0  0  0  0  0  0  0
    2.1426   -1.9690    2.4567 N   0  0  0  0  0  0  0  0  0  0  0  0
    3.3130   -2.8144    2.4938 C   0  0  0  0  0  0  0  0  0  0  0  0
    1.9184   -1.4331    3.2900 H   0  0  0  0  0  0  0  0  0  0  0  0
    3.0317   -3.8154    2.8530 H   0  0  0  0  0  0  0  0  0  0  0  0
    3.7397   -2.8942    1.4831 H   0  0  0  0  0  0  0  0  0  0  0  0
    4.0594   -2.3775    3.1735 H   0  0  0  0  0  0  0  0  0  0  0  0
  1  3  1  0  0  0  0
  1  7  1  0  0  0  0
  1  2  2  0  0  0  0
 23 25  1  0  0  0  0
 23 29  1  0  0  0  0
 23 24  2  0  0  0  0
 50 51  1  0  0  0  0
 51 59  1  0  0  0  0
 51 52  2  0  0  0  0
  8  9  1  0  0  0  0
  9 17  1  0  0  0  0
  9 10  2  0  0  0  0
 30 31  1  0  0  0  0
 31 39  1  0  0  0  0
 31 32  2  0  0  0  0
 40 41  1  0  0  0  0
 41 49  1  0  0  0  0
 41 42  2  0  0  0  0
 50 53  1  0  0  0  0
 30 33  1  0  0  0  0
 59 60  1  0  0  0  0
 17 18  1  0  0  0  0
  8 11  1  0  0  0  0
 11 12  1  0  0  0  0
 40 43  1  0  0  0  0
 43 44  1  0  0  0  0
 49 50  1  0  0  0  0
  7  8  1  0  0  0  0
 29 30  1  0  0  0  0
 39 40  1  0  0  0  0
 12 44  1  0  0  0  0
  3  4  1  0  0  0  0
  3  5  1  0  0  0  0
  3  6  1  0  0  0  0
 25 26  1  0  0  0  0
 25 27  1  0  0  0  0
 25 28  1  0  0  0  0
 53 56  1  0  0  0  0
 53 57  1  0  0  0  0
 53 58  1  0  0  0  0
 33 36  1  0  0  0  0
 33 37  1  0  0  0  0
 33 38  1  0  0  0  0
 60 62  1  0  0  0  0
 60 63  1  0  0  0  0
 60 64  1  0  0  0  0
 18 20  1  0  0  0  0
 18 21  1  0  0  0  0
 18 22  1  0  0  0  0
 11 15  1  0  0  0  0
 11 16  1  0  0  0  0
 43 47  1  0  0  0  0
 43 48  1  0  0  0  0
 50 55  1  0  0  0  0
  8 14  1  0  0  0  0
 30 35  1  0  0  0  0
 40 46  1  0  0  0  0
 59 61  1  0  0  0  0
 17 19  1  0  0  0  0
  7 13  1  0  0  0  0
 29 34  1  0  0  0  0
 49 54  1  0  0  0  0
 39 45  1  0  0  0  0
M  END
$$$$

  -OEChem-05262214473D

 64 63  0     1  0  0  0  0  0999 V2000
   -0.5263    8.8983   -4.9213 C   0  0  0  0  0  0  0  0  0  0  0  0
   -1.7462    8.9943   -4.9869 O   0  0  0  0  0  0  0  0  0  0  0  0
    0.3117    9.3723   -6.0621 C   0  0  0  0  0  0  0  0  0  0  0  0
    0.4987    8.5797   -6.8043 H   0  0  0  0  0  0  0  0  0  0  0  0
   -0.1670   10.1903   -6.6240 H   0  0  0  0  0  0  0  0  0  0  0  0
    1.3084    9.7538   -5.7882 H   0  0  0  0  0  0  0  0  0  0  0  0
    0.1988    8.3789   -3.8627 N   0  0  0  0  0  0  0  0  0  0  0  0
   -0.4111    7.8673   -2.6616 C   0  0  2  0  0  0  0  0  0  0  0  0
    0.4944    8.1849   -1.4733 C   0  0  0  0  0  0  0  0  0  0  0  0
    1.6096    8.6873   -1.5967 O   0  0  0  0  0  0  0  0  0  0  0  0
   -0.7655    6.3826   -2.7749 C   0  0  0  0  0  0  0  0  0  0  0  0
    0.6810    5.2977   -3.0053 S   0  0  0  0  0  0  0  0  0  0  0  0
    1.2134    8.3572   -3.9365 H   0  0  0  0  0  0  0  0  0  0  0  0
   -1.3377    8.4409   -2.5343 H   0  0  0  0  0  0  0  0  0  0  0  0
   -1.2897    6.0428   -1.8757 H   0  0  0  0  0  0  0  0  0  0  0  0
   -1.4343    6.2226   -3.6275 H   0  0  0  0  0  0  0  0  0  0  0  0
   -0.0790    7.8186   -0.2639 N   0  0  0  0  0  0  0  0  0  0  0  0
    0.5932    7.9953    1.0021 C   0  0  0  0  0  0  0  0  0  0  0  0
   -1.0249    7.4487   -0.2507 H   0  0  0  0  0  0  0  0  0  0  0  0
    1.1402    7.0761    1.2588 H   0  0  0  0  0  0  0  0  0  0  0  0
    1.3008    8.8342    0.9275 H   0  0  0  0  0  0  0  0  0  0  0  0
   -0.1494    8.2104    1.7846 H   0  0  0  0  0  0  0  0  0  0  0  0
   -6.7256    2.0330   -0.2766 C   0  0  0  0  0  0  0  0  0  0  0  0
   -7.1824    1.1039   -0.9322 O   0  0  0  0  0  0  0  0  0  0  0  0
   -7.5276    2.6077    0.8435 C   0  0  0  0  0  0  0  0  0  0  0  0
   -8.1775    3.4344    0.5145 H   0  0  0  0  0  0  0  0  0  0  0  0
   -8.2057    1.8676    1.2980 H   0  0  0  0  0  0  0  0  0  0  0  0
   -6.9411    3.0162    1.6819 H   0  0  0  0  0  0  0  0  0  0  0  0
   -5.4935    2.6382   -0.4627 N   0  0  0  0  0  0  0  0  0  0  0  0
   -4.5619    2.2388   -1.4845 C   0  0  2  0  0  0  0  0  0  0  0  0
   -3.1535    2.4674   -0.9521 C   0  0  0  0  0  0  0  0  0  0  0  0
   -2.8634    3.3945   -0.1987 O   0  0  0  0  0  0  0  0  0  0  0  0
   -4.7883    3.0138   -2.7732 C   0  0  0  0  0  0  0  0  0  0  0  0
   -5.2337    3.4049    0.1551 H   0  0  0  0  0  0  0  0  0  0  0  0
   -4.7192    1.1682   -1.6549 H   0  0  0  0  0  0  0  0  0  0  0  0
   -4.6352    4.0886   -2.6221 H   0  0  0  0  0  0  0  0  0  0  0  0
   -4.0976    2.6887   -3.5582 H   0  0  0  0  0  0  0  0  0  0  0  0
   -5.8111    2.8719   -3.1387 H   0  0  0  0  0  0  0  0  0  0  0  0
   -2.2466    1.5400   -1.4507 N   0  0  0  0  0  0  0  0  0  0  0  0
   -0.8424    1.5707   -1.1286 C   0  0  2  0  0  0  0  0  0  0  0  0
   -0.6511    1.0606    0.2983 C   0  0  0  0  0  0  0  0  0  0  0  0
   -1.1490    1.6107    1.2785 O   0  0  0  0  0  0  0  0  0  0  0  0
   -0.2194    2.9480   -1.3694 C   0  0  0  0  0  0  0  0  0  0  0  0
   -0.2110    3.4504   -3.1072 S   0  0  0  0  0  0  0  0  0  0  0  0
   -2.5850    0.7815   -2.0381 H   0  0  0  0  0  0  0  0  0  0  0  0
   -0.3691    0.8480   -1.8048 H   0  0  0  0  0  0  0  0  0  0  0  0
   -0.7597    3.7176   -0.8086 H   0  0  0  0  0  0  0  0  0  0  0  0
    0.8192    2.9536   -1.0215 H   0  0  0  0  0  0  0  0  0  0  0  0
    0.1598   -0.0643    0.3492 N   0  0  0  0  0  0  0  0  0  0  0  0
    0.5088   -0.7176    1.5891 C   0  0  2  0  0  0  0  0  0  0  0  0
    1.9073   -1.3009    1.4359 C   0  0  0  0  0  0  0  0  0  0  0  0
    2.3336   -1.7514    0.3746 O   0  0  0  0  0  0  0  0  0  0  0  0
   -0.4964   -1.8018    1.9453 C   0  0  0  0  0  0  0  0  0  0  0  0
    0.4941   -0.4792   -0.5155 H   0  0  0  0  0  0  0  0  0  0  0  0
    0.5185    0.0575    2.3631 H   0  0  0  0  0  0  0  0  0  0  0  0
   -0.5203   -2.5873    1.1812 H   0  0  0  0  0  0  0  0  0  0  0  0
   -0.2463   -2.2766    2.8997 H   0  0  0  0  0  0  0  0  0  0  0  0
   -1.5064   -1.3856    2.0258 H   0  0  0  0  0  0  0  0  0  0  0  0
    2.6078   -1.2987    2.6340 N   0  0  0  0  0  0  0  0  0  0  0  0
    3.9415   -1.8388    2.7584 C   0  0  0  0  0  0  0  0  0  0  0  0
    2.1921   -0.8688    3.4551 H   0  0  0  0  0  0  0  0  0  0  0  0
    3.8835   -2.8925    3.0687 H   0  0  0  0  0  0  0  0  0  0  0  0
    4.4566   -1.7701    1.7888 H   0  0  0  0  0  0  0  0  0  0  0  0
    4.5005   -1.2649    3.5121 H   0  0  0  0  0  0  0  0  0  0  0  0
  1  3  1  0  0  0  0
  1  7  1  0  0  0  0
  1  2  2  0  0  0  0
 23 25  1  0  0  0  0
 23 29  1  0  0  0  0
 23 24  2  0  0  0  0
 50 51  1  0  0  0  0
 51 59  1  0  0  0  0
 51 52  2  0  0  0  0
  8  9  1  0  0  0  0
  9 17  1  0  0  0  0
  9 10  2  0  0  0  0
 30 31  1  0  0  0  0
 31 39  1  0  0  0  0
 31 32  2  0  0  0  0
 40 41  1  0  0  0  0
 41 49  1  0  0  0  0
 41 42  2  0  0  0  0
 50 53  1  0  0  0  0
 30 33  1  0  0  0  0
 59 60  1  0  0  0  0
 17 18  1  0  0  0  0
  8 11  1  0  0  0  0
 11 12  1  0  0  0  0
 40 43  1  0  0  0  0
 43 44  1  0  0  0  0
 49 50  1  0  0  0  0
  7  8  1  0  0  0  0
 29 30  1  0  0  0  0
 39 40  1  0  0  0  0
 12 44  1  0  0  0  0
  3  4  1  0  0  0  0
  3  5  1  0  0  0  0
  3  6  1  0  0  0  0
 25 26  1  0  0  0  0
 25 27  1  0  0  0  0
 25 28  1  0  0  0  0
 53 56  1  0  0  0  0
 53 57  1  0  0  0  0
 53 58  1  0  0  0  0
 33 36  1  0  0  0  0
 33 37  1  0  0  0  0
 33 38  1  0  0  0  0
 60 62  1  0  0  0  0
 60 63  1  0  0  0  0
 60 64  1  0  0  0  0
 18 20  1  0  0  0  0
 18 21  1  0  0  0  0
 18 22  1  0  0  0  0
 11 15  1  0  0  0  0
 11 16  1  0  0  0  0
 43 47  1  0  0  0  0
 43 48  1  0  0  0  0
 50 55  1  0  0  0  0
  8 14  1  0  0  0  0
 30 35  1  0  0  0  0
 40 46  1  0  0  0  0
 59 61  1  0  0  0  0
 17 19  1  0  0  0  0
  7 13  1  0  0  0  0
 29 34  1  0  0  0  0
 49 54  1  0  0  0  0
 39 45  1  0  0  0  0
M  END
$$$$

  -OEChem-05262214473D

 64 63  0     1  0  0  0  0  0999 V2000
   -0.5263    8.8983   -4.9213 C   0  0  0  0  0  0  0  0  0  0  0  0
   -1.7462    8.9943   -4.9869 O   0  0  0  0  0  0  0  0  0  0  0  0
    0.3117    9.3723   -6.0621 C   0  0  0  0  0  0  0  0  0  0  0  0
    0.4987    8.5797   -6.8043 H   0  0  0  0  0  0  0  0  0  0  0  0
   -0.1670   10.1903   -6.6240 H   0  0  0  0  0  0  0  0  0  0  0  0
    1.3084    9.7538   -5.7882 H   0  0  0  0  0  0  0  0  0  0  0  0
    0.1988    8.3789   -3.8627 N   0  0  0  0  0  0  0  0  0  0  0  0
   -0.4111    7.8673   -2.6616 C   0  0  2  0  0  0  0  0  0  0  0  0
    0.4944    8.1849   -1.4733 C   0  0  0  0  0  0  0  0  0  0  0  0
    1.6096    8.6873   -1.5967 O   0  0  0  0  0  0  0  0  0  0  0  0
   -0.7655    6.3826   -2.7749 C   0  0  0  0  0  0  0  0  0  0  0  0
    0.6810    5.2977   -3.0053 S   0  0  0  0  0  0  0  0  0  0  0  0
    1.2134    8.3572   -3.9365 H   0  0  0  0  0  0  0  0  0  0  0  0
   -1.3377    8.4409   -2.5343 H   0  0  0  0  0  0  0  0  0  0  0  0
   -1.2897    6.0428   -1.8757 H   0  0  0  0  0  0  0  0  0  0  0  0
   -1.4343    6.2226   -3.6275 H   0  0  0  0  0  0  0  0  0  0  0  0
   -0.0790    7.8186   -0.2639 N   0  0  0  0  0  0  0  0  0  0  0  0
    0.5932    7.9953    1.0021 C   0  0  0  0  0  0  0  0  0  0  0  0
   -1.0249    7.4487   -0.2507 H   0  0  0  0  0  0  0  0  0  0  0  0
    1.1402    7.0761    1.2588 H   0  0  0  0  0  0  0  0  0  0  0  0
    1.3008    8.8342    0.9275 H   0  0  0  0  0  0  0  0  0  0  0  0
   -0.1494    8.2104    1.7846 H   0  0  0  0  0  0  0  0  0  0  0  0
   -6.7256    2.0330   -0.2766 C   0  0  0  0  0  0  0  0  0  0  0  0
   -7.1824    1.1039   -0.9322 O   0  0  0  0  0  0  0  0  0  0  0  0
   -7.5276    2.6077    0.8435 C   0  0  0  0  0  0  0  0  0  0  0  0
   -8.1775    3.4344    0.5145 H   0  0  0  0  0  0  0  0  0  0  0  0
   -8.2057    1.8676    1.2980 H   0  0  0  0  0  0  0  0  0  0  0  0
   -6.9411    3.0162    1.6819 H   0  0  0  0  0  0  0  0  0  0  0  0
   -5.4935    2.6382   -0.4627 N   0  0  0  0  0  0  0  0  0  0  0  0
   -4.5619    2.2388   -1.4845 C   0  0  2  0  0  0  0  0  0  0  0  0
   -3.1535    2.4674   -0.9521 C   0  0  0  0  0  0  0  0  0  0  0  0
   -2.8634    3.3945   -0.1987 O   0  0  0  0  0  0  0  0  0  0  0  0
   -4.7883    3.0138   -2.7732 C   0  0  0  0  0  0  0  0  0  0  0  0
   -5.2337    3.4049    0.1551 H   0  0  0  0  0  0  0  0  0  0  0  0
   -4.7192    1.1682   -1.6549 H   0  0  0  0  0  0  0  0  0  0  0  0
   -4.6352    4.0886   -2.6221 H   0  0  0  0  0  0  0  0  0  0  0  0
   -4.0976    2.6887   -3.5582 H   0  0  0  0  0  0  0  0  0  0  0  0
   -5.8111    2.8719   -3.1387 H   0  0  0  0  0  0  0  0  0  0  0  0
   -2.2466    1.5400   -1.4507 N   0  0  0  0  0  0  0  0  0  0  0  0
   -0.8424    1.5707   -1.1286 C   0  0  2  0  0  0  0  0  0  0  0  0
   -0.6511    1.0606    0.2983 C   0  0  0  0  0  0  0  0  0  0  0  0
   -1.3469    1.4322    1.2412 O   0  0  0  0  0  0  0  0  0  0  0  0
   -0.2194    2.9480   -1.3694 C   0  0  0  0  0  0  0  0  0  0  0  0
   -0.2110    3.4504   -3.1072 S   0  0  0  0  0  0  0  0  0  0  0  0
   -2.5850    0.7815   -2.0381 H   0  0  0  0  0  0  0  0  0  0  0  0
   -0.3691    0.8480   -1.8048 H   0  0  0  0  0  0  0  0  0  0  0  0
   -0.7597    3.7176   -0.8086 H   0  0  0  0  0  0  0  0  0  0  0  0
    0.8192    2.9536   -1.0215 H   0  0  0  0  0  0  0  0  0  0  0  0
    0.4020    0.1625    0.3978 N   0  0  0  0  0  0  0  0  0  0  0  0
    0.7959   -0.4405    1.6496 C   0  0  2  0  0  0  0  0  0  0  0  0
    2.3020   -0.6635    1.6109 C   0  0  0  0  0  0  0  0  0  0  0  0
    2.9111   -0.9522    0.5829 O   0  0  0  0  0  0  0  0  0  0  0  0
    0.0588   -1.7489    1.8898 C   0  0  0  0  0  0  0  0  0  0  0  0
    0.8973   -0.1223   -0.4420 H   0  0  0  0  0  0  0  0  0  0  0  0
    0.5530    0.2801    2.4381 H   0  0  0  0  0  0  0  0  0  0  0  0
    0.2898   -2.4835    1.1097 H   0  0  0  0  0  0  0  0  0  0  0  0
    0.3373   -2.1903    2.8524 H   0  0  0  0  0  0  0  0  0  0  0  0
   -1.0252   -1.5915    1.8876 H   0  0  0  0  0  0  0  0  0  0  0  0
    2.8797   -0.5445    2.8672 N   0  0  0  0  0  0  0  0  0  0  0  0
    4.2898   -0.7530    3.0998 C   0  0  0  0  0  0  0  0  0  0  0  0
    2.3057   -0.2629    3.6565 H   0  0  0  0  0  0  0  0  0  0  0  0
    4.4644   -1.8022    3.3807 H   0  0  0  0  0  0  0  0  0  0  0  0
    4.8508   -0.5209    2.1826 H   0  0  0  0  0  0  0  0  0  0  0  0
    4.6284   -0.0946    3.9134 H   0  0  0  0  0  0  0  0  0  0  0  0
  1  3  1  0  0  0  0
  1  7  1  0  0  0  0
  1  2  2  0  0  0  0
 23 25  1  0  0  0  0
 23 29  1  0  0  0  0
 23 24  2  0  0  0  0
 50 51  1  0  0  0  0
 51 59  1  0  0  0  0
 51 52  2  0  0  0  0
  8  9  1  0  0  0  0
  9 17  1  0  0  0  0
  9 10  2  0  0  0  0
 30 31  1  0  0  0  0
 31 39  1  0  0  0  0
 31 32  2  0  0  0  0
 40 41  1  0  0  0  0
 41 49  1  0  0  0  0
 41 42  2  0  0  0  0
 50 53  1  0  0  0  0
 30 33  1  0  0  0  0
 59 60  1  0  0  0  0
 17 18  1  0  0  0  0
  8 11  1  0  0  0  0
 11 12  1  0  0  0  0
 40 43  1  0  0  0  0
 43 44  1  0  0  0  0
 49 50  1  0  0  0  0
  7  8  1  0  0  0  0
 29 30  1  0  0  0  0
 39 40  1  0  0  0  0
 12 44  1  0  0  0  0
  3  4  1  0  0  0  0
  3  5  1  0  0  0  0
  3  6  1  0  0  0  0
 25 26  1  0  0  0  0
 25 27  1  0  0  0  0
 25 28  1  0  0  0  0
 53 56  1  0  0  0  0
 53 57  1  0  0  0  0
 53 58  1  0  0  0  0
 33 36  1  0  0  0  0
 33 37  1  0  0  0  0
 33 38  1  0  0  0  0
 60 62  1  0  0  0  0
 60 63  1  0  0  0  0
 60 64  1  0  0  0  0
 18 20  1  0  0  0  0
 18 21  1  0  0  0  0
 18 22  1  0  0  0  0
 11 15  1  0  0  0  0
 11 16  1  0  0  0  0
 43 47  1  0  0  0  0
 43 48  1  0  0  0  0
 50 55  1  0  0  0  0
  8 14  1  0  0  0  0
 30 35  1  0  0  0  0
 40 46  1  0  0  0  0
 59 61  1  0  0  0  0
 17 19  1  0  0  0  0
  7 13  1  0  0  0  0
 29 34  1  0  0  0  0
 49 54  1  0  0  0  0
 39 45  1  0  0  0  0
M  END
$$$$

  -OEChem-05262214473D

 64 63  0     1  0  0  0  0  0999 V2000
   -0.5263    8.8983   -4.9213 C   0  0  0  0  0  0  0  0  0  0  0  0
   -1.7462    8.9943   -4.9869 O   0  0  0  0  0  0  0  0  0  0  0  0
    0.3117    9.3723   -6.0621 C   0  0  0  0  0  0  0  0  0  0  0  0
    0.4987    8.5797   -6.8043 H   0  0  0  0  0  0  0  0  0  0  0  0
   -0.1670   10.1903   -6.6240 H   0  0  0  0  0  0  0  0  0  0  0  0
    1.3084    9.7538   -5.7882 H   0  0  0  0  0  0  0  0  0  0  0  0
    0.1988    8.3789   -3.8627 N   0  0  0  0  0  0  0  0  0  0  0  0
   -0.4111    7.8673   -2.6616 C   0  0  2  0  0  0  0  0  0  0  0  0
    0.4944    8.1849   -1.4733 C   0  0  0  0  0  0  0  0  0  0  0  0
    1.6096    8.6873   -1.5967 O   0  0  0  0  0  0  0  0  0  0  0  0
   -0.7655    6.3826   -2.7749 C   0  0  0  0  0  0  0  0  0  0  0  0
    0.6810    5.2977   -3.0053 S   0  0  0  0  0  0  0  0  0  0  0  0
    1.2134    8.3572   -3.9365 H   0  0  0  0  0  0  0  0  0  0  0  0
   -1.3377    8.4409   -2.5343 H   0  0  0  0  0  0  0  0  0  0  0  0
   -1.2897    6.0428   -1.8757 H   0  0  0  0  0  0  0  0  0  0  0  0
   -1.4343    6.2226   -3.6275 H   0  0  0  0  0  0  0  0  0  0  0  0
   -0.0790    7.8186   -0.2639 N   0  0  0  0  0  0  0  0  0  0  0  0
    0.5932    7.9953    1.0021 C   0  0  0  0  0  0  0  0  0  0  0  0
   -1.0249    7.4487   -0.2507 H   0  0  0  0  0  0  0  0  0  0  0  0
    1.1402    7.0761    1.2588 H   0  0  0  0  0  0  0  0  0  0  0  0
    1.3008    8.8342    0.9275 H   0  0  0  0  0  0  0  0  0  0  0  0
   -0.1494    8.2104    1.7846 H   0  0  0  0  0  0  0  0  0  0  0  0
   -6.7256    2.0330   -0.2766 C   0  0  0  0  0  0  0  0  0  0  0  0
   -7.1824    1.1039   -0.9322 O   0  0  0  0  0  0  0  0  0  0  0  0
   -7.5276    2.6077    0.8435 C   0  0  0  0  0  0  0  0  0  0  0  0
   -8.1775    3.4344    0.5145 H   0  0  0  0  0  0  0  0  0  0  0  0
   -8.2057    1.8676    1.2980 H   0  0  0  0  0  0  0  0  0  0  0  0
   -6.9411    3.0162    1.6819 H   0  0  0  0  0  0  0  0  0  0  0  0
   -5.4935    2.6382   -0.4627 N   0  0  0  0  0  0  0  0  0  0  0  0
   -4.5619    2.2388   -1.4845 C   0  0  2  0  0  0  0  0  0  0  0  0
   -3.1535    2.4674   -0.9521 C   0  0  0  0  0  0  0  0  0  0  0  0
   -2.8634    3.3945   -0.1987 O   0  0  0  0  0  0  0  0  0  0  0  0
   -4.7883    3.0138   -2.7732 C   0  0  0  0  0  0  0  0  0  0  0  0
   -5.2337    3.4049    0.1551 H   0  0  0  0  0  0  0  0  0  0  0  0
   -4.7192    1.1682   -1.6549 H   0  0  0  0  0  0  0  0  0  0  0  0
   -4.6352    4.0886   -2.6221 H   0  0  0  0  0  0  0  0  0  0  0  0
   -4.0976    2.6887   -3.5582 H   0  0  0  0  0  0  0  0  0  0  0  0
   -5.8111    2.8719   -3.1387 H   0  0  0  0  0  0  0  0  0  0  0  0
   -2.2466    1.5400   -1.4507 N   0  0  0  0  0  0  0  0  0  0  0  0
   -0.8424    1.5707   -1.1286 C   0  0  2  0  0  0  0  0  0  0  0  0
   -0.6511    1.0606    0.2983 C   0  0  0  0  0  0  0  0  0  0  0  0
   -1.4917    1.2131    1.1823 O   0  0  0  0  0  0  0  0  0  0  0  0
   -0.2194    2.9480   -1.3694 C   0  0  0  0  0  0  0  0  0  0  0  0
   -0.2110    3.4504   -3.1072 S   0  0  0  0  0  0  0  0  0  0  0  0
   -2.5850    0.7815   -2.0381 H   0  0  0  0  0  0  0  0  0  0  0  0
   -0.3691    0.8480   -1.8048 H   0  0  0  0  0  0  0  0  0  0  0  0
   -0.7597    3.7176   -0.8086 H   0  0  0  0  0  0  0  0  0  0  0  0
    0.8192    2.9536   -1.0215 H   0  0  0  0  0  0  0  0  0  0  0  0
    0.5769    0.4385    0.4731 N   0  0  0  0  0  0  0  0  0  0  0  0
    1.0011   -0.1055    1.7419 C   0  0  2  0  0  0  0  0  0  0  0  0
    2.5140    0.0420    1.8347 C   0  0  0  0  0  0  0  0  0  0  0  0
    3.2577   -0.0472    0.8600 O   0  0  0  0  0  0  0  0  0  0  0  0
    0.5871   -1.5617    1.8859 C   0  0  0  0  0  0  0  0  0  0  0  0
    1.1941    0.3176   -0.3245 H   0  0  0  0  0  0  0  0  0  0  0  0
    0.5260    0.5010    2.5207 H   0  0  0  0  0  0  0  0  0  0  0  0
    1.0533   -2.1849    1.1141 H   0  0  0  0  0  0  0  0  0  0  0  0
    0.8842   -1.9643    2.8598 H   0  0  0  0  0  0  0  0  0  0  0  0
   -0.4987   -1.6696    1.7891 H   0  0  0  0  0  0  0  0  0  0  0  0
    2.9398    0.2421    3.1404 N   0  0  0  0  0  0  0  0  0  0  0  0
    4.3341    0.3689    3.4950 C   0  0  0  0  0  0  0  0  0  0  0  0
    2.2515    0.3433    3.8805 H   0  0  0  0  0  0  0  0  0  0  0  0
    4.7349   -0.6186    3.7676 H   0  0  0  0  0  0  0  0  0  0  0  0
    4.8956    0.7684    2.6376 H   0  0  0  0  0  0  0  0  0  0  0  0
    4.4341    1.0537    4.3500 H   0  0  0  0  0  0  0  0  0  0  0  0
  1  3  1  0  0  0  0
  1  7  1  0  0  0  0
  1  2  2  0  0  0  0
 23 25  1  0  0  0  0
 23 29  1  0  0  0  0
 23 24  2  0  0  0  0
 50 51  1  0  0  0  0
 51 59  1  0  0  0  0
 51 52  2  0  0  0  0
  8  9  1  0  0  0  0
  9 17  1  0  0  0  0
  9 10  2  0  0  0  0
 30 31  1  0  0  0  0
 31 39  1  0  0  0  0
 31 32  2  0  0  0  0
 40 41  1  0  0  0  0
 41 49  1  0  0  0  0
 41 42  2  0  0  0  0
 50 53  1  0  0  0  0
 30 33  1  0  0  0  0
 59 60  1  0  0  0  0
 17 18  1  0  0  0  0
  8 11  1  0  0  0  0
 11 12  1  0  0  0  0
 40 43  1  0  0  0  0
 43 44  1  0  0  0  0
 49 50  1  0  0  0  0
  7  8  1  0  0  0  0
 29 30  1  0  0  0  0
 39 40  1  0  0  0  0
 12 44  1  0  0  0  0
  3  4  1  0  0  0  0
  3  5  1  0  0  0  0
  3  6  1  0  0  0  0
 25 26  1  0  0  0  0
 25 27  1  0  0  0  0
 25 28  1  0  0  0  0
 53 56  1  0  0  0  0
 53 57  1  0  0  0  0
 53 58  1  0  0  0  0
 33 36  1  0  0  0  0
 33 37  1  0  0  0  0
 33 38  1  0  0  0  0
 60 62  1  0  0  0  0
 60 63  1  0  0  0  0
 60 64  1  0  0  0  0
 18 20  1  0  0  0  0
 18 21  1  0  0  0  0
 18 22  1  0  0  0  0
 11 15  1  0  0  0  0
 11 16  1  0  0  0  0
 43 47  1  0  0  0  0
 43 48  1  0  0  0  0
 50 55  1  0  0  0  0
  8 14  1  0  0  0  0
 30 35  1  0  0  0  0
 40 46  1  0  0  0  0
 59 61  1  0  0  0  0
 17 19  1  0  0  0  0
  7 13  1  0  0  0  0
 29 34  1  0  0  0  0
 49 54  1  0  0  0  0
 39 45  1  0  0  0  0
M  END
$$$$

  -OEChem-05262214473D

 64 63  0     1  0  0  0  0  0999 V2000
   -0.5263    8.8983   -4.9213 C   0  0  0  0  0  0  0  0  0  0  0  0
   -1.7462    8.9943   -4.9869 O   0  0  0  0  0  0  0  0  0  0  0  0
    0.3117    9.3723   -6.0621 C   0  0  0  0  0  0  0  0  0  0  0  0
    0.4987    8.5797   -6.8043 H   0  0  0  0  0  0  0  0  0  0  0  0
   -0.1670   10.1903   -6.6240 H   0  0  0  0  0  0  0  0  0  0  0  0
    1.3084    9.7538   -5.7882 H   0  0  0  0  0  0  0  0  0  0  0  0
    0.1988    8.3789   -3.8627 N   0  0  0  0  0  0  0  0  0  0  0  0
   -0.4111    7.8673   -2.6616 C   0  0  2  0  0  0  0  0  0  0  0  0
    0.4944    8.1849   -1.4733 C   0  0  0  0  0  0  0  0  0  0  0  0
    1.6096    8.6873   -1.5967 O   0  0  0  0  0  0  0  0  0  0  0  0
   -0.7655    6.3826   -2.7749 C   0  0  0  0  0  0  0  0  0  0  0  0
    0.6810    5.2977   -3.0053 S   0  0  0  0  0  0  0  0  0  0  0  0
    1.2134    8.3572   -3.9365 H   0  0  0  0  0  0  0  0  0  0  0  0
   -1.3377    8.4409   -2.5343 H   0  0  0  0  0  0  0  0  0  0  0  0
   -1.2897    6.0428   -1.8757 H   0  0  0  0  0  0  0  0  0  0  0  0
   -1.4343    6.2226   -3.6275 H   0  0  0  0  0  0  0  0  0  0  0  0
   -0.0790    7.8186   -0.2639 N   0  0  0  0  0  0  0  0  0  0  0  0
    0.5932    7.9953    1.0021 C   0  0  0  0  0  0  0  0  0  0  0  0
   -1.0249    7.4487   -0.2507 H   0  0  0  0  0  0  0  0  0  0  0  0
    1.1402    7.0761    1.2588 H   0  0  0  0  0  0  0  0  0  0  0  0
    1.3008    8.8342    0.9275 H   0  0  0  0  0  0  0  0  0  0  0  0
   -0.1494    8.2104    1.7846 H   0  0  0  0  0  0  0  0  0  0  0  0
   -6.7256    2.0330   -0.2766 C   0  0  0  0  0  0  0  0  0  0  0  0
   -7.1824    1.1039   -0.9322 O   0  0  0  0  0  0  0  0  0  0  0  0
   -7.5276    2.6077    0.8435 C   0  0  0  0  0  0  0  0  0  0  0  0
   -8.1775    3.4344    0.5145 H   0  0  0  0  0  0  0  0  0  0  0  0
   -8.2057    1.8676    1.2980 H   0  0  0  0  0  0  0  0  0  0  0  0
   -6.9411    3.0162    1.6819 H   0  0  0  0  0  0  0  0  0  0  0  0
   -5.4935    2.6382   -0.4627 N   0  0  0  0  0  0  0  0  0  0  0  0
   -4.5619    2.2388   -1.4845 C   0  0  2  0  0  0  0  0  0  0  0  0
   -3.1535    2.4674   -0.9521 C   0  0  0  0  0  0  0  0  0  0  0  0
   -2.8634    3.3945   -0.1987 O   0  0  0  0  0  0  0  0  0  0  0  0
   -4.7883    3.0138   -2.7732 C   0  0  0  0  0  0  0  0  0  0  0  0
   -5.2337    3.4049    0.1551 H   0  0  0  0  0  0  0  0  0  0  0  0
   -4.7192    1.1682   -1.6549 H   0  0  0  0  0  0  0  0  0  0  0  0
   -4.6352    4.0886   -2.6221 H   0  0  0  0  0  0  0  0  0  0  0  0
   -4.0976    2.6887   -3.5582 H   0  0  0  0  0  0  0  0  0  0  0  0
   -5.8111    2.8719   -3.1387 H   0  0  0  0  0  0  0  0  0  0  0  0
   -2.2466    1.5400   -1.4507 N   0  0  0  0  0  0  0  0  0  0  0  0
   -0.8424    1.5707   -1.1286 C   0  0  2  0  0  0  0  0  0  0  0  0
   -0.6511    1.0606    0.2983 C   0  0  0  0  0  0  0  0  0  0  0  0
   -1.5735    0.9684    1.1058 O   0  0  0  0  0  0  0  0  0  0  0  0
   -0.2194    2.9480   -1.3694 C   0  0  0  0  0  0  0  0  0  0  0  0
   -0.2110    3.4504   -3.1072 S   0  0  0  0  0  0  0  0  0  0  0  0
   -2.5850    0.7815   -2.0381 H   0  0  0  0  0  0  0  0  0  0  0  0
   -0.3691    0.8480   -1.8048 H   0  0  0  0  0  0  0  0  0  0  0  0
   -0.7597    3.7176   -0.8086 H   0  0  0  0  0  0  0  0  0  0  0  0
    0.8192    2.9536   -1.0215 H   0  0  0  0  0  0  0  0  0  0  0  0
    0.6726    0.7450    0.5698 N   0  0  0  0  0  0  0  0  0  0  0  0
    1.1102    0.2648    1.8597 C   0  0  2  0  0  0  0  0  0  0  0  0
    2.5289    0.7675    2.0921 C   0  0  0  0  0  0  0  0  0  0  0  0
    3.3498    0.9017    1.1869 O   0  0  0  0  0  0  0  0  0  0  0  0
    1.0524   -1.2530    1.9338 C   0  0  0  0  0  0  0  0  0  0  0  0
    1.3643    0.8104   -0.1711 H   0  0  0  0  0  0  0  0  0  0  0  0
    0.4393    0.7052    2.6053 H   0  0  0  0  0  0  0  0  0  0  0  0
    1.7182   -1.7121    1.1939 H   0  0  0  0  0  0  0  0  0  0  0  0
    1.3572   -1.6139    2.9217 H   0  0  0  0  0  0  0  0  0  0  0  0
    0.0373   -1.6145    1.7370 H   0  0  0  0  0  0  0  0  0  0  0  0
    2.7841    1.0077    3.4350 N   0  0  0  0  0  0  0  0  0  0  0  0
    4.0716    1.4505    3.9169 C   0  0  0  0  0  0  0  0  0  0  0  0
    2.0332    0.9085    4.1118 H   0  0  0  0  0  0  0  0  0  0  0  0
    4.6766    0.5775    4.2030 H   0  0  0  0  0  0  0  0  0  0  0  0
    4.5877    2.0097    3.1227 H   0  0  0  0  0  0  0  0  0  0  0  0
    3.9312    2.1018    4.7921 H   0  0  0  0  0  0  0  0  0  0  0  0
  1  3  1  0  0  0  0
  1  7  1  0  0  0  0
  1  2  2  0  0  0  0
 23 25  1  0  0  0  0
 23 29  1  0  0  0  0
 23 24  2  0  0  0  0
 50 51  1  0  0  0  0
 51 59  1  0  0  0  0
 51 52  2  0  0  0  0
  8  9  1  0  0  0  0
  9 17  1  0  0  0  0
  9 10  2  0  0  0  0
 30 31  1  0  0  0  0
 31 39  1  0  0  0  0
 31 32  2  0  0  0  0
 40 41  1  0  0  0  0
 41 49  1  0  0  0  0
 41 42  2  0  0  0  0
 50 53  1  0  0  0  0
 30 33  1  0  0  0  0
 59 60  1  0  0  0  0
 17 18  1  0  0  0  0
  8 11  1  0  0  0  0
 11 12  1  0  0  0  0
 40 43  1  0  0  0  0
 43 44  1  0  0  0  0
 49 50  1  0  0  0  0
  7  8  1  0  0  0  0
 29 30  1  0  0  0  0
 39 40  1  0  0  0  0
 12 44  1  0  0  0  0
  3  4  1  0  0  0  0
  3  5  1  0  0  0  0
  3  6  1  0  0  0  0
 25 26  1  0  0  0  0
 25 27  1  0  0  0  0
 25 28  1  0  0  0  0
 53 56  1  0  0  0  0
 53 57  1  0  0  0  0
 53 58  1  0  0  0  0
 33 36  1  0  0  0  0
 33 37  1  0  0  0  0
 33 38  1  0  0  0  0
 60 62  1  0  0  0  0
 60 63  1  0  0  0  0
 60 64  1  0  0  0  0
 18 20  1  0  0  0  0
 18 21  1  0  0  0  0
 18 22  1  0  0  0  0
 11 15  1  0  0  0  0
 11 16  1  0  0  0  0
 43 47  1  0  0  0  0
 43 48  1  0  0  0  0
 50 55  1  0  0  0  0
  8 14  1  0  0  0  0
 30 35  1  0  0  0  0
 40 46  1  0  0  0  0
 59 61  1  0  0  0  0
 17 19  1  0  0  0  0
  7 13  1  0  0  0  0
 29 34  1  0  0  0  0
 49 54  1  0  0  0  0
 39 45  1  0  0  0  0
M  END
$$$$

  -OEChem-05262214473D

 64 63  0     1  0  0  0  0  0999 V2000
   -0.9946    9.6232   -2.9486 C   0  0  0  0  0  0  0  0  0  0  0  0
   -2.2188    9.6611   -2.9902 O   0  0  0  0  0  0  0  0  0  0  0  0
   -0.2000   10.4177   -3.9313 C   0  0  0  0  0  0  0  0  0  0  0  0
    0.0224    9.8501   -4.8491 H   0  0  0  0  0  0  0  0  0  0  0  0
   -0.7319   11.3214   -4.2695 H   0  0  0  0  0  0  0  0  0  0  0  0
    0.7767   10.7755   -3.5681 H   0  0  0  0  0  0  0  0  0  0  0  0
   -0.2275    8.8971   -2.0541 N   0  0  0  0  0  0  0  0  0  0  0  0
   -0.7916    8.0645   -1.0220 C   0  0  2  0  0  0  0  0  0  0  0  0
    0.1096    8.1248    0.2096 C   0  0  0  0  0  0  0  0  0  0  0  0
    1.1926    8.7065    0.2192 O   0  0  0  0  0  0  0  0  0  0  0  0
   -1.0619    6.6381   -1.5071 C   0  0  0  0  0  0  0  0  0  0  0  0
    0.4411    5.7330   -2.0010 S   0  0  0  0  0  0  0  0  0  0  0  0
    0.7857    8.9542   -2.1290 H   0  0  0  0  0  0  0  0  0  0  0  0
   -1.7477    8.5322   -0.7559 H   0  0  0  0  0  0  0  0  0  0  0  0
   -1.5542    6.0526   -0.7237 H   0  0  0  0  0  0  0  0  0  0  0  0
   -1.7315    6.6594   -2.3737 H   0  0  0  0  0  0  0  0  0  0  0  0
   -0.4262    7.4326    1.2864 N   0  0  0  0  0  0  0  0  0  0  0  0
    0.2512    7.3235    2.5573 C   0  0  0  0  0  0  0  0  0  0  0  0
   -1.3491    7.0166    1.2040 H   0  0  0  0  0  0  0  0  0  0  0  0
    0.8531    6.4030    2.5747 H   0  0  0  0  0  0  0  0  0  0  0  0
    0.9086    8.1941    2.6981 H   0  0  0  0  0  0  0  0  0  0  0  0
   -0.4924    7.2906    3.3673 H   0  0  0  0  0  0  0  0  0  0  0  0
   -6.7256    2.0330   -0.2766 C   0  0  0  0  0  0  0  0  0  0  0  0
   -7.1824    1.1039   -0.9322 O   0  0  0  0  0  0  0  0  0  0  0  0
   -7.5276    2.6077    0.8435 C   0  0  0  0  0  0  0  0  0  0  0  0
   -8.1775    3.4344    0.5145 H   0  0  0  0  0  0  0  0  0  0  0  0
   -8.2057    1.8676    1.2980 H   0  0  0  0  0  0  0  0  0  0  0  0
   -6.9411    3.0162    1.6819 H   0  0  0  0  0  0  0  0  0  0  0  0
   -5.4935    2.6382   -0.4627 N   0  0  0  0  0  0  0  0  0  0  0  0
   -4.5619    2.2388   -1.4845 C   0  0  2  0  0  0  0  0  0  0  0  0
   -3.1535    2.4674   -0.9521 C   0  0  0  0  0  0  0  0  0  0  0  0
   -2.8634    3.3945   -0.1987 O   0  0  0  0  0  0  0  0  0  0  0  0
   -4.7883    3.0138   -2.7732 C   0  0  0  0  0  0  0  0  0  0  0  0
   -5.2337    3.4049    0.1551 H   0  0  0  0  0  0  0  0  0  0  0  0
   -4.7192    1.1682   -1.6549 H   0  0  0  0  0  0  0  0  0  0  0  0
   -4.6352    4.0886   -2.6221 H   0  0  0  0  0  0  0  0  0  0  0  0
   -4.0976    2.6887   -3.5582 H   0  0  0  0  0  0  0  0  0  0  0  0
   -5.8111    2.8719   -3.1387 H   0  0  0  0  0  0  0  0  0  0  0  0
   -2.2466    1.5400   -1.4507 N   0  0  0  0  0  0  0  0  0  0  0  0
   -0.8424    1.5707   -1.1286 C   0  0  2  0  0  0  0  0  0  0  0  0
   -0.6038    0.7295    0.1237 C   0  0  0  0  0  0  0  0  0  0  0  0
   -1.5088    0.1595    0.7299 O   0  0  0  0  0  0  0  0  0  0  0  0
   -0.3023    2.9982   -1.0128 C   0  0  0  0  0  0  0  0  0  0  0  0
   -0.3451    3.9221   -2.5676 S   0  0  0  0  0  0  0  0  0  0  0  0
   -2.5850    0.7815   -2.0381 H   0  0  0  0  0  0  0  0  0  0  0  0
   -0.3374    1.0708   -1.9644 H   0  0  0  0  0  0  0  0  0  0  0  0
   -0.8784    3.5687   -0.2770 H   0  0  0  0  0  0  0  0  0  0  0  0
    0.7387    2.9769   -0.6728 H   0  0  0  0  0  0  0  0  0  0  0  0
    0.7325    0.7115    0.4971 N   0  0  0  0  0  0  0  0  0  0  0  0
    1.2059    0.0040    1.6639 C   0  0  2  0  0  0  0  0  0  0  0  0
    2.3915    0.7732    2.2314 C   0  0  0  0  0  0  0  0  0  0  0  0
    3.1938    1.3837    1.5281 O   0  0  0  0  0  0  0  0  0  0  0  0
    1.5981   -1.4252    1.3230 C   0  0  0  0  0  0  0  0  0  0  0  0
    1.4213    1.1758   -0.0874 H   0  0  0  0  0  0  0  0  0  0  0  0
    0.3859    0.0077    2.3903 H   0  0  0  0  0  0  0  0  0  0  0  0
    2.4184   -1.4491    0.5964 H   0  0  0  0  0  0  0  0  0  0  0  0
    1.9297   -1.9688    2.2139 H   0  0  0  0  0  0  0  0  0  0  0  0
    0.7523   -1.9681    0.8874 H   0  0  0  0  0  0  0  0  0  0  0  0
    2.4729    0.6620    3.6124 N   0  0  0  0  0  0  0  0  0  0  0  0
    3.5348    1.2671    4.3821 C   0  0  0  0  0  0  0  0  0  0  0  0
    1.7422    0.1700    4.1181 H   0  0  0  0  0  0  0  0  0  0  0  0
    4.3518    0.5425    4.5137 H   0  0  0  0  0  0  0  0  0  0  0  0
    3.9128    2.1534    3.8514 H   0  0  0  0  0  0  0  0  0  0  0  0
    3.1483    1.5668    5.3674 H   0  0  0  0  0  0  0  0  0  0  0  0
  1  3  1  0  0  0  0
  1  7  1  0  0  0  0
  1  2  2  0  0  0  0
 23 25  1  0  0  0  0
 23 29  1  0  0  0  0
 23 24  2  0  0  0  0
 50 51  1  0  0  0  0
 51 59  1  0  0  0  0
 51 52  2  0  0  0  0
  8  9  1  0  0  0  0
  9 17  1  0  0  0  0
  9 10  2  0  0  0  0
 30 31  1  0  0  0  0
 31 39  1  0  0  0  0
 31 32  2  0  0  0  0
 40 41  1  0  0  0  0
 41 49  1  0  0  0  0
 41 42  2  0  0  0  0
 50 53  1  0  0  0  0
 30 33  1  0  0  0  0
 59 60  1  0  0  0  0
 17 18  1  0  0  0  0
  8 11  1  0  0  0  0
 11 12  1  0  0  0  0
 40 43  1  0  0  0  0
 43 44  1  0  0  0  0
 49 50  1  0  0  0  0
  7  8  1  0  0  0  0
 29 30  1  0  0  0  0
 39 40  1  0  0  0  0
 12 44  1  0  0  0  0
  3  4  1  0  0  0  0
  3  5  1  0  0  0  0
  3  6  1  0  0  0  0
 25 26  1  0  0  0  0
 25 27  1  0  0  0  0
 25 28  1  0  0  0  0
 53 56  1  0  0  0  0
 53 57  1  0  0  0  0
 53 58  1  0  0  0  0
 33 36  1  0  0  0  0
 33 37  1  0  0  0  0
 33 38  1  0  0  0  0
 60 62  1  0  0  0  0
 60 63  1  0  0  0  0
 60 64  1  0  0  0  0
 18 20  1  0  0  0  0
 18 21  1  0  0  0  0
 18 22  1  0  0  0  0
 11 15  1  0  0  0  0
 11 16  1  0  0  0  0
 43 47  1  0  0  0  0
 43 48  1  0  0  0  0
 50 55  1  0  0  0  0
  8 14  1  0  0  0  0
 30 35  1  0  0  0  0
 40 46  1  0  0  0  0
 59 61  1  0  0  0  0
 17 19  1  0  0  0  0
  7 13  1  0  0  0  0
 29 34  1  0  0  0  0
 49 54  1  0  0  0  0
 39 45  1  0  0  0  0
M  END
$$$$

  -OEChem-05262214473D

 64 63  0     1  0  0  0  0  0999 V2000
   -0.9946    9.6232   -2.9486 C   0  0  0  0  0  0  0  0  0  0  0  0
   -2.2188    9.6611   -2.9902 O   0  0  0  0  0  0  0  0  0  0  0  0
   -0.2000   10.4177   -3.9313 C   0  0  0  0  0  0  0  0  0  0  0  0
    0.0224    9.8501   -4.8491 H   0  0  0  0  0  0  0  0  0  0  0  0
   -0.7319   11.3214   -4.2695 H   0  0  0  0  0  0  0  0  0  0  0  0
    0.7767   10.7755   -3.5681 H   0  0  0  0  0  0  0  0  0  0  0  0
   -0.2275    8.8971   -2.0541 N   0  0  0  0  0  0  0  0  0  0  0  0
   -0.7916    8.0645   -1.0220 C   0  0  2  0  0  0  0  0  0  0  0  0
    0.1096    8.1248    0.2096 C   0  0  0  0  0  0  0  0  0  0  0  0
    1.1926    8.7065    0.2192 O   0  0  0  0  0  0  0  0  0  0  0  0
   -1.0619    6.6381   -1.5071 C   0  0  0  0  0  0  0  0  0  0  0  0
    0.4411    5.7330   -2.0010 S   0  0  0  0  0  0  0  0  0  0  0  0
    0.7857    8.9542   -2.1290 H   0  0  0  0  0  0  0  0  0  0  0  0
   -1.7477    8.5322   -0.7559 H   0  0  0  0  0  0  0  0  0  0  0  0
   -1.5542    6.0526   -0.7237 H   0  0  0  0  0  0  0  0  0  0  0  0
   -1.7315    6.6594   -2.3737 H   0  0  0  0  0  0  0  0  0  0  0  0
   -0.4262    7.4326    1.2864 N   0  0  0  0  0  0  0  0  0  0  0  0
    0.2512    7.3235    2.5573 C   0  0  0  0  0  0  0  0  0  0  0  0
   -1.3491    7.0166    1.2040 H   0  0  0  0  0  0  0  0  0  0  0  0
    0.8531    6.4030    2.5747 H   0  0  0  0  0  0  0  0  0  0  0  0
    0.9086    8.1941    2.6981 H   0  0  0  0  0  0  0  0  0  0  0  0
   -0.4924    7.2906    3.3673 H   0  0  0  0  0  0  0  0  0  0  0  0
   -6.7256    2.0330   -0.2766 C   0  0  0  0  0  0  0  0  0  0  0  0
   -7.1824    1.1039   -0.9322 O   0  0  0  0  0  0  0  0  0  0  0  0
   -7.5276    2.6077    0.8435 C   0  0  0  0  0  0  0  0  0  0  0  0
   -8.1775    3.4344    0.5145 H   0  0  0  0  0  0  0  0  0  0  0  0
   -8.2057    1.8676    1.2980 H   0  0  0  0  0  0  0  0  0  0  0  0
   -6.9411    3.0162    1.6819 H   0  0  0  0  0  0  0  0  0  0  0  0
   -5.4935    2.6382   -0.4627 N   0  0  0  0  0  0  0  0  0  0  0  0
   -4.5619    2.2388   -1.4845 C   0  0  2  0  0  0  0  0  0  0  0  0
   -3.1535    2.4674   -0.9521 C   0  0  0  0  0  0  0  0  0  0  0  0
   -2.8634    3.3945   -0.1987 O   0  0  0  0  0  0  0  0  0  0  0  0
   -4.7883    3.0138   -2.7732 C   0  0  0  0  0  0  0  0  0  0  0  0
   -5.2337    3.4049    0.1551 H   0  0  0  0  0  0  0  0  0  0  0  0
   -4.7192    1.1682   -1.6549 H   0  0  0  0  0  0  0  0  0  0  0  0
   -4.6352    4.0886   -2.6221 H   0  0  0  0  0  0  0  0  0  0  0  0
   -4.0976    2.6887   -3.5582 H   0  0  0  0  0  0  0  0  0  0  0  0
   -5.8111    2.8719   -3.1387 H   0  0  0  0  0  0  0  0  0  0  0  0
   -2.2466    1.5400   -1.4507 N   0  0  0  0  0  0  0  0  0  0  0  0
   -0.8424    1.5707   -1.1286 C   0  0  2  0  0  0  0  0  0  0  0  0
   -0.6038    0.7295    0.1237 C   0  0  0  0  0  0  0  0  0  0  0  0
   -1.4398   -0.0502    0.5759 O   0  0  0  0  0  0  0  0  0  0  0  0
   -0.3023    2.9982   -1.0128 C   0  0  0  0  0  0  0  0  0  0  0  0
   -0.3451    3.9221   -2.5676 S   0  0  0  0  0  0  0  0  0  0  0  0
   -2.5850    0.7815   -2.0381 H   0  0  0  0  0  0  0  0  0  0  0  0
   -0.3374    1.0708   -1.9644 H   0  0  0  0  0  0  0  0  0  0  0  0
   -0.8784    3.5687   -0.2770 H   0  0  0  0  0  0  0  0  0  0  0  0
    0.7387    2.9769   -0.6728 H   0  0  0  0  0  0  0  0  0  0  0  0
    0.6404    0.9707    0.6888 N   0  0  0  0  0  0  0  0  0  0  0  0
    1.0890    0.3140    1.8944 C   0  0  2  0  0  0  0  0  0  0  0  0
    1.9913    1.2814    2.6490 C   0  0  0  0  0  0  0  0  0  0  0  0
    2.7327    2.0846    2.0867 O   0  0  0  0  0  0  0  0  0  0  0  0
    1.8227   -0.9802    1.5792 C   0  0  0  0  0  0  0  0  0  0  0  0
    1.2871    1.6008    0.2236 H   0  0  0  0  0  0  0  0  0  0  0  0
    0.1951    0.1054    2.4923 H   0  0  0  0  0  0  0  0  0  0  0  0
    2.7213   -0.7913    0.9806 H   0  0  0  0  0  0  0  0  0  0  0  0
    2.1372   -1.4912    2.4951 H   0  0  0  0  0  0  0  0  0  0  0  0
    1.1821   -1.6629    1.0105 H   0  0  0  0  0  0  0  0  0  0  0  0
    1.9031    1.1127    4.0238 N   0  0  0  0  0  0  0  0  0  0  0  0
    2.6931    1.8828    4.9560 C   0  0  0  0  0  0  0  0  0  0  0  0
    1.2326    0.4513    4.4041 H   0  0  0  0  0  0  0  0  0  0  0  0
    3.6207    1.3390    5.1880 H   0  0  0  0  0  0  0  0  0  0  0  0
    2.9412    2.8568    4.5090 H   0  0  0  0  0  0  0  0  0  0  0  0
    2.1189    2.0395    5.8810 H   0  0  0  0  0  0  0  0  0  0  0  0
  1  3  1  0  0  0  0
  1  7  1  0  0  0  0
  1  2  2  0  0  0  0
 23 25  1  0  0  0  0
 23 29  1  0  0  0  0
 23 24  2  0  0  0  0
 50 51  1  0  0  0  0
 51 59  1  0  0  0  0
 51 52  2  0  0  0  0
  8  9  1  0  0  0  0
  9 17  1  0  0  0  0
  9 10  2  0  0  0  0
 30 31  1  0  0  0  0
 31 39  1  0  0  0  0
 31 32  2  0  0  0  0
 40 41  1  0  0  0  0
 41 49  1  0  0  0  0
 41 42  2  0  0  0  0
 50 53  1  0  0  0  0
 30 33  1  0  0  0  0
 59 60  1  0  0  0  0
 17 18  1  0  0  0  0
  8 11  1  0  0  0  0
 11 12  1  0  0  0  0
 40 43  1  0  0  0  0
 43 44  1  0  0  0  0
 49 50  1  0  0  0  0
  7  8  1  0  0  0  0
 29 30  1  0  0  0  0
 39 40  1  0  0  0  0
 12 44  1  0  0  0  0
  3  4  1  0  0  0  0
  3  5  1  0  0  0  0
  3  6  1  0  0  0  0
 25 26  1  0  0  0  0
 25 27  1  0  0  0  0
 25 28  1  0  0  0  0
 53 56  1  0  0  0  0
 53 57  1  0  0  0  0
 53 58  1  0  0  0  0
 33 36  1  0  0  0  0
 33 37  1  0  0  0  0
 33 38  1  0  0  0  0
 60 62  1  0  0  0  0
 60 63  1  0  0  0  0
 60 64  1  0  0  0  0
 18 20  1  0  0  0  0
 18 21  1  0  0  0  0
 18 22  1  0  0  0  0
 11 15  1  0  0  0  0
 11 16  1  0  0  0  0
 43 47  1  0  0  0  0
 43 48  1  0  0  0  0
 50 55  1  0  0  0  0
  8 14  1  0  0  0  0
 30 35  1  0  0  0  0
 40 46  1  0  0  0  0
 59 61  1  0  0  0  0
 17 19  1  0  0  0  0
  7 13  1  0  0  0  0
 29 34  1  0  0  0  0
 49 54  1  0  0  0  0
 39 45  1  0  0  0  0
M  END
$$$$

  -OEChem-05262214473D

 64 63  0     1  0  0  0  0  0999 V2000
   -0.9946    9.6232   -2.9486 C   0  0  0  0  0  0  0  0  0  0  0  0
   -2.2188    9.6611   -2.9902 O   0  0  0  0  0  0  0  0  0  0  0  0
   -0.2000   10.4177   -3.9313 C   0  0  0  0  0  0  0  0  0  0  0  0
    0.0224    9.8501   -4.8491 H   0  0  0  0  0  0  0  0  0  0  0  0
   -0.7319   11.3214   -4.2695 H   0  0  0  0  0  0  0  0  0  0  0  0
    0.7767   10.7755   -3.5681 H   0  0  0  0  0  0  0  0  0  0  0  0
   -0.2275    8.8971   -2.0541 N   0  0  0  0  0  0  0  0  0  0  0  0
   -0.7916    8.0645   -1.0220 C   0  0  2  0  0  0  0  0  0  0  0  0
    0.1096    8.1248    0.2096 C   0  0  0  0  0  0  0  0  0  0  0  0
    1.1926    8.7065    0.2192 O   0  0  0  0  0  0  0  0  0  0  0  0
   -1.0619    6.6381   -1.5071 C   0  0  0  0  0  0  0  0  0  0  0  0
    0.4411    5.7330   -2.0010 S   0  0  0  0  0  0  0  0  0  0  0  0
    0.7857    8.9542   -2.1290 H   0  0  0  0  0  0  0  0  0  0  0  0
   -1.7477    8.5322   -0.7559 H   0  0  0  0  0  0  0  0  0  0  0  0
   -1.5542    6.0526   -0.7237 H   0  0  0  0  0  0  0  0  0  0  0  0
   -1.7315    6.6594   -2.3737 H   0  0  0  0  0  0  0  0  0  0  0  0
   -0.4262    7.4326    1.2864 N   0  0  0  0  0  0  0  0  0  0  0  0
    0.2512    7.3235    2.5573 C   0  0  0  0  0  0  0  0  0  0  0  0
   -1.3491    7.0166    1.2040 H   0  0  0  0  0  0  0  0  0  0  0  0
    0.8531    6.4030    2.5747 H   0  0  0  0  0  0  0  0  0  0  0  0
    0.9086    8.1941    2.6981 H   0  0  0  0  0  0  0  0  0  0  0  0
   -0.4924    7.2906    3.3673 H   0  0  0  0  0  0  0  0  0  0  0  0
   -6.7256    2.0330   -0.2766 C   0  0  0  0  0  0  0  0  0  0  0  0
   -7.1824    1.1039   -0.9322 O   0  0  0  0  0  0  0  0  0  0  0  0
   -7.5276    2.6077    0.8435 C   0  0  0  0  0  0  0  0  0  0  0  0
   -8.1775    3.4344    0.5145 H   0  0  0  0  0  0  0  0  0  0  0  0
   -8.2057    1.8676    1.2980 H   0  0  0  0  0  0  0  0  0  0  0  0
   -6.9411    3.0162    1.6819 H   0  0  0  0  0  0  0  0  0  0  0  0
   -5.4935    2.6382   -0.4627 N   0  0  0  0  0  0  0  0  0  0  0  0
   -4.5619    2.2388   -1.4845 C   0  0  2  0  0  0  0  0  0  0  0  0
   -3.1535    2.4674   -0.9521 C   0  0  0  0  0  0  0  0  0  0  0  0
   -2.8634    3.3945   -0.1987 O   0  0  0  0  0  0  0  0  0  0  0  0
   -4.7883    3.0138   -2.7732 C   0  0  0  0  0  0  0  0  0  0  0  0
   -5.2337    3.4049    0.1551 H   0  0  0  0  0  0  0  0  0  0  0  0
   -4.7192    1.1682   -1.6549 H   0  0  0  0  0  0  0  0  0  0  0  0
   -4.6352    4.0886   -2.6221 H   0  0  0  0  0  0  0  0  0  0  0  0
   -4.0976    2.6887   -3.5582 H   0  0  0  0  0  0  0  0  0  0  0  0
   -5.8111    2.8719   -3.1387 H   0  0  0  0  0  0  0  0  0  0  0  0
   -2.2466    1.5400   -1.4507 N   0  0  0  0  0  0  0  0  0  0  0  0
   -0.8424    1.5707   -1.1286 C   0  0  2  0  0  0  0  0  0  0  0  0
   -0.6038    0.7295    0.1237 C   0  0  0  0  0  0  0  0  0  0  0  0
   -1.3068   -0.2319    0.4285 O   0  0  0  0  0  0  0  0  0  0  0  0
   -0.3023    2.9982   -1.0128 C   0  0  0  0  0  0  0  0  0  0  0  0
   -0.3451    3.9221   -2.5676 S   0  0  0  0  0  0  0  0  0  0  0  0
   -2.5850    0.7815   -2.0381 H   0  0  0  0  0  0  0  0  0  0  0  0
   -0.3374    1.0708   -1.9644 H   0  0  0  0  0  0  0  0  0  0  0  0
   -0.8784    3.5687   -0.2770 H   0  0  0  0  0  0  0  0  0  0  0  0
    0.7387    2.9769   -0.6728 H   0  0  0  0  0  0  0  0  0  0  0  0
    0.4690    1.1938    0.8714 N   0  0  0  0  0  0  0  0  0  0  0  0
    0.8774    0.5793    2.1129 C   0  0  2  0  0  0  0  0  0  0  0  0
    1.4373    1.6704    3.0159 C   0  0  0  0  0  0  0  0  0  0  0  0
    2.0590    2.6411    2.5889 O   0  0  0  0  0  0  0  0  0  0  0  0
    1.9088   -0.5130    1.8766 C   0  0  0  0  0  0  0  0  0  0  0  0
    1.0230    1.9703    0.5221 H   0  0  0  0  0  0  0  0  0  0  0  0
   -0.0245    0.1552    2.5675 H   0  0  0  0  0  0  0  0  0  0  0  0
    2.8196   -0.1071    1.4214 H   0  0  0  0  0  0  0  0  0  0  0  0
    2.1961   -0.9973    2.8157 H   0  0  0  0  0  0  0  0  0  0  0  0
    1.5149   -1.2818    1.2031 H   0  0  0  0  0  0  0  0  0  0  0  0
    1.1984    1.4106    4.3581 N   0  0  0  0  0  0  0  0  0  0  0  0
    1.6676    2.2757    5.4152 C   0  0  0  0  0  0  0  0  0  0  0  0
    0.6400    0.6033    4.6191 H   0  0  0  0  0  0  0  0  0  0  0  0
    2.6493    1.9260    5.7673 H   0  0  0  0  0  0  0  0  0  0  0  0
    1.7597    3.3034    5.0341 H   0  0  0  0  0  0  0  0  0  0  0  0
    0.9510    2.2568    6.2495 H   0  0  0  0  0  0  0  0  0  0  0  0
  1  3  1  0  0  0  0
  1  7  1  0  0  0  0
  1  2  2  0  0  0  0
 23 25  1  0  0  0  0
 23 29  1  0  0  0  0
 23 24  2  0  0  0  0
 50 51  1  0  0  0  0
 51 59  1  0  0  0  0
 51 52  2  0  0  0  0
  8  9  1  0  0  0  0
  9 17  1  0  0  0  0
  9 10  2  0  0  0  0
 30 31  1  0  0  0  0
 31 39  1  0  0  0  0
 31 32  2  0  0  0  0
 40 41  1  0  0  0  0
 41 49  1  0  0  0  0
 41 42  2  0  0  0  0
 50 53  1  0  0  0  0
 30 33  1  0  0  0  0
 59 60  1  0  0  0  0
 17 18  1  0  0  0  0
  8 11  1  0  0  0  0
 11 12  1  0  0  0  0
 40 43  1  0  0  0  0
 43 44  1  0  0  0  0
 49 50  1  0  0  0  0
  7  8  1  0  0  0  0
 29 30  1  0  0  0  0
 39 40  1  0  0  0  0
 12 44  1  0  0  0  0
  3  4  1  0  0  0  0
  3  5  1  0  0  0  0
  3  6  1  0  0  0  0
 25 26  1  0  0  0  0
 25 27  1  0  0  0  0
 25 28  1  0  0  0  0
 53 56  1  0  0  0  0
 53 57  1  0  0  0  0
 53 58  1  0  0  0  0
 33 36  1  0  0  0  0
 33 37  1  0  0  0  0
 33 38  1  0  0  0  0
 60 62  1  0  0  0  0
 60 63  1  0  0  0  0
 60 64  1  0  0  0  0
 18 20  1  0  0  0  0
 18 21  1  0  0  0  0
 18 22  1  0  0  0  0
 11 15  1  0  0  0  0
 11 16  1  0  0  0  0
 43 47  1  0  0  0  0
 43 48  1  0  0  0  0
 50 55  1  0  0  0  0
  8 14  1  0  0  0  0
 30 35  1  0  0  0  0
 40 46  1  0  0  0  0
 59 61  1  0  0  0  0
 17 19  1  0  0  0  0
  7 13  1  0  0  0  0
 29 34  1  0  0  0  0
 49 54  1  0  0  0  0
 39 45  1  0  0  0  0
M  END
$$$$

  -OEChem-05262214473D

 64 63  0     1  0  0  0  0  0999 V2000
   -0.9946    9.6232   -2.9486 C   0  0  0  0  0  0  0  0  0  0  0  0
   -2.2188    9.6611   -2.9902 O   0  0  0  0  0  0  0  0  0  0  0  0
   -0.2000   10.4177   -3.9313 C   0  0  0  0  0  0  0  0  0  0  0  0
    0.0224    9.8501   -4.8491 H   0  0  0  0  0  0  0  0  0  0  0  0
   -0.7319   11.3214   -4.2695 H   0  0  0  0  0  0  0  0  0  0  0  0
    0.7767   10.7755   -3.5681 H   0  0  0  0  0  0  0  0  0  0  0  0
   -0.2275    8.8971   -2.0541 N   0  0  0  0  0  0  0  0  0  0  0  0
   -0.7916    8.0645   -1.0220 C   0  0  2  0  0  0  0  0  0  0  0  0
    0.1096    8.1248    0.2096 C   0  0  0  0  0  0  0  0  0  0  0  0
    1.1926    8.7065    0.2192 O   0  0  0  0  0  0  0  0  0  0  0  0
   -1.0619    6.6381   -1.5071 C   0  0  0  0  0  0  0  0  0  0  0  0
    0.4411    5.7330   -2.0010 S   0  0  0  0  0  0  0  0  0  0  0  0
    0.7857    8.9542   -2.1290 H   0  0  0  0  0  0  0  0  0  0  0  0
   -1.7477    8.5322   -0.7559 H   0  0  0  0  0  0  0  0  0  0  0  0
   -1.5542    6.0526   -0.7237 H   0  0  0  0  0  0  0  0  0  0  0  0
   -1.7315    6.6594   -2.3737 H   0  0  0  0  0  0  0  0  0  0  0  0
   -0.4262    7.4326    1.2864 N   0  0  0  0  0  0  0  0  0  0  0  0
    0.2512    7.3235    2.5573 C   0  0  0  0  0  0  0  0  0  0  0  0
   -1.3491    7.0166    1.2040 H   0  0  0  0  0  0  0  0  0  0  0  0
    0.8531    6.4030    2.5747 H   0  0  0  0  0  0  0  0  0  0  0  0
    0.9086    8.1941    2.6981 H   0  0  0  0  0  0  0  0  0  0  0  0
   -0.4924    7.2906    3.3673 H   0  0  0  0  0  0  0  0  0  0  0  0
   -6.7256    2.0330   -0.2766 C   0  0  0  0  0  0  0  0  0  0  0  0
   -7.1824    1.1039   -0.9322 O   0  0  0  0  0  0  0  0  0  0  0  0
   -7.5276    2.6077    0.8435 C   0  0  0  0  0  0  0  0  0  0  0  0
   -8.1775    3.4344    0.5145 H   0  0  0  0  0  0  0  0  0  0  0  0
   -8.2057    1.8676    1.2980 H   0  0  0  0  0  0  0  0  0  0  0  0
   -6.9411    3.0162    1.6819 H   0  0  0  0  0  0  0  0  0  0  0  0
   -5.4935    2.6382   -0.4627 N   0  0  0  0  0  0  0  0  0  0  0  0
   -4.5619    2.2388   -1.4845 C   0  0  2  0  0  0  0  0  0  0  0  0
   -3.1535    2.4674   -0.9521 C   0  0  0  0  0  0  0  0  0  0  0  0
   -2.8634    3.3945   -0.1987 O   0  0  0  0  0  0  0  0  0  0  0  0
   -4.7883    3.0138   -2.7732 C   0  0  0  0  0  0  0  0  0  0  0  0
   -5.2337    3.4049    0.1551 H   0  0  0  0  0  0  0  0  0  0  0  0
   -4.7192    1.1682   -1.6549 H   0  0  0  0  0  0  0  0  0  0  0  0
   -4.6352    4.0886   -2.6221 H   0  0  0  0  0  0  0  0  0  0  0  0
   -4.0976    2.6887   -3.5582 H   0  0  0  0  0  0  0  0  0  0  0  0
   -5.8111    2.8719   -3.1387 H   0  0  0  0  0  0  0  0  0  0  0  0
   -2.2466    1.5400   -1.4507 N   0  0  0  0  0  0  0  0  0  0  0  0
   -0.8424    1.5707   -1.1286 C   0  0  2  0  0  0  0  0  0  0  0  0
   -0.6038    0.7295    0.1237 C   0  0  0  0  0  0  0  0  0  0  0  0
   -1.1187   -0.3732    0.2978 O   0  0  0  0  0  0  0  0  0  0  0  0
   -0.3023    2.9982   -1.0128 C   0  0  0  0  0  0  0  0  0  0  0  0
   -0.3451    3.9221   -2.5676 S   0  0  0  0  0  0  0  0  0  0  0  0
   -2.5850    0.7815   -2.0381 H   0  0  0  0  0  0  0  0  0  0  0  0
   -0.3374    1.0708   -1.9644 H   0  0  0  0  0  0  0  0  0  0  0  0
   -0.8784    3.5687   -0.2770 H   0  0  0  0  0  0  0  0  0  0  0  0
    0.7387    2.9769   -0.6728 H   0  0  0  0  0  0  0  0  0  0  0  0
    0.2302    1.3656    1.0323 N   0  0  0  0  0  0  0  0  0  0  0  0
    0.5856    0.7818    2.3045 C   0  0  2  0  0  0  0  0  0  0  0  0
    0.7674    1.9138    3.3070 C   0  0  0  0  0  0  0  0  0  0  0  0
    1.2186    3.0154    3.0004 O   0  0  0  0  0  0  0  0  0  0  0  0
    1.8504   -0.0555    2.1950 C   0  0  0  0  0  0  0  0  0  0  0  0
    0.6469    2.2590    0.7878 H   0  0  0  0  0  0  0  0  0  0  0  0
   -0.2579    0.1537    2.6110 H   0  0  0  0  0  0  0  0  0  0  0  0
    2.7065    0.5567    1.8889 H   0  0  0  0  0  0  0  0  0  0  0  0
    2.1026   -0.5206    3.1537 H   0  0  0  0  0  0  0  0  0  0  0  0
    1.7280   -0.8509    1.4519 H   0  0  0  0  0  0  0  0  0  0  0  0
    0.4069    1.5352    4.5927 N   0  0  0  0  0  0  0  0  0  0  0  0
    0.5283    2.4190    5.7286 C   0  0  0  0  0  0  0  0  0  0  0  0
    0.0046    0.6156    4.7485 H   0  0  0  0  0  0  0  0  0  0  0  0
    1.5040    2.2634    6.2122 H   0  0  0  0  0  0  0  0  0  0  0  0
    0.4489    3.4629    5.3910 H   0  0  0  0  0  0  0  0  0  0  0  0
   -0.2758    2.2040    6.4478 H   0  0  0  0  0  0  0  0  0  0  0  0
  1  3  1  0  0  0  0
  1  7  1  0  0  0  0
  1  2  2  0  0  0  0
 23 25  1  0  0  0  0
 23 29  1  0  0  0  0
 23 24  2  0  0  0  0
 50 51  1  0  0  0  0
 51 59  1  0  0  0  0
 51 52  2  0  0  0  0
  8  9  1  0  0  0  0
  9 17  1  0  0  0  0
  9 10  2  0  0  0  0
 30 31  1  0  0  0  0
 31 39  1  0  0  0  0
 31 32  2  0  0  0  0
 40 41  1  0  0  0  0
 41 49  1  0  0  0  0
 41 42  2  0  0  0  0
 50 53  1  0  0  0  0
 30 33  1  0  0  0  0
 59 60  1  0  0  0  0
 17 18  1  0  0  0  0
  8 11  1  0  0  0  0
 11 12  1  0  0  0  0
 40 43  1  0  0  0  0
 43 44  1  0  0  0  0
 49 50  1  0  0  0  0
  7  8  1  0  0  0  0
 29 30  1  0  0  0  0
 39 40  1  0  0  0  0
 12 44  1  0  0  0  0
  3  4  1  0  0  0  0
  3  5  1  0  0  0  0
  3  6  1  0  0  0  0
 25 26  1  0  0  0  0
 25 27  1  0  0  0  0
 25 28  1  0  0  0  0
 53 56  1  0  0  0  0
 53 57  1  0  0  0  0
 53 58  1  0  0  0  0
 33 36  1  0  0  0  0
 33 37  1  0  0  0  0
 33 38  1  0  0  0  0
 60 62  1  0  0  0  0
 60 63  1  0  0  0  0
 60 64  1  0  0  0  0
 18 20  1  0  0  0  0
 18 21  1  0  0  0  0
 18 22  1  0  0  0  0
 11 15  1  0  0  0  0
 11 16  1  0  0  0  0
 43 47  1  0  0  0  0
 43 48  1  0  0  0  0
 50 55  1  0  0  0  0
  8 14  1  0  0  0  0
 30 35  1  0  0  0  0
 40 46  1  0  0  0  0
 59 61  1  0  0  0  0
 17 19  1  0  0  0  0
  7 13  1  0  0  0  0
 29 34  1  0  0  0  0
 49 54  1  0  0  0  0
 39 45  1  0  0  0  0
M  END
$$$$

  -OEChem-05262214473D

 64 63  0     1  0  0  0  0  0999 V2000
   -0.9946    9.6232   -2.9486 C   0  0  0  0  0  0  0  0  0  0  0  0
   -2.2188    9.6611   -2.9902 O   0  0  0  0  0  0  0  0  0  0  0  0
   -0.2000   10.4177   -3.9313 C   0  0  0  0  0  0  0  0  0  0  0  0
    0.0224    9.8501   -4.8491 H   0  0  0  0  0  0  0  0  0  0  0  0
   -0.7319   11.3214   -4.2695 H   0  0  0  0  0  0  0  0  0  0  0  0
    0.7767   10.7755   -3.5681 H   0  0  0  0  0  0  0  0  0  0  0  0
   -0.2275    8.8971   -2.0541 N   0  0  0  0  0  0  0  0  0  0  0  0
   -0.7916    8.0645   -1.0220 C   0  0  2  0  0  0  0  0  0  0  0  0
    0.1096    8.1248    0.2096 C   0  0  0  0  0  0  0  0  0  0  0  0
    1.1926    8.7065    0.2192 O   0  0  0  0  0  0  0  0  0  0  0  0
   -1.0619    6.6381   -1.5071 C   0  0  0  0  0  0  0  0  0  0  0  0
    0.4411    5.7330   -2.0010 S   0  0  0  0  0  0  0  0  0  0  0  0
    0.7857    8.9542   -2.1290 H   0  0  0  0  0  0  0  0  0  0  0  0
   -1.7477    8.5322   -0.7559 H   0  0  0  0  0  0  0  0  0  0  0  0
   -1.5542    6.0526   -0.7237 H   0  0  0  0  0  0  0  0  0  0  0  0
   -1.7315    6.6594   -2.3737 H   0  0  0  0  0  0  0  0  0  0  0  0
   -0.4262    7.4326    1.2864 N   0  0  0  0  0  0  0  0  0  0  0  0
    0.2512    7.3235    2.5573 C   0  0  0  0  0  0  0  0  0  0  0  0
   -1.3491    7.0166    1.2040 H   0  0  0  0  0  0  0  0  0  0  0  0
    0.8531    6.4030    2.5747 H   0  0  0  0  0  0  0  0  0  0  0  0
    0.9086    8.1941    2.6981 H   0  0  0  0  0  0  0  0  0  0  0  0
   -0.4924    7.2906    3.3673 H   0  0  0  0  0  0  0  0  0  0  0  0
   -6.7256    2.0330   -0.2766 C   0  0  0  0  0  0  0  0  0  0  0  0
   -7.1824    1.1039   -0.9322 O   0  0  0  0  0  0  0  0  0  0  0  0
   -7.5276    2.6077    0.8435 C   0  0  0  0  0  0  0  0  0  0  0  0
   -8.1775    3.4344    0.5145 H   0  0  0  0  0  0  0  0  0  0  0  0
   -8.2057    1.8676    1.2980 H   0  0  0  0  0  0  0  0  0  0  0  0
   -6.9411    3.0162    1.6819 H   0  0  0  0  0  0  0  0  0  0  0  0
   -5.4935    2.6382   -0.4627 N   0  0  0  0  0  0  0  0  0  0  0  0
   -4.5619    2.2388   -1.4845 C   0  0  2  0  0  0  0  0  0  0  0  0
   -3.1535    2.4674   -0.9521 C   0  0  0  0  0  0  0  0  0  0  0  0
   -2.8634    3.3945   -0.1987 O   0  0  0  0  0  0  0  0  0  0  0  0
   -4.7883    3.0138   -2.7732 C   0  0  0  0  0  0  0  0  0  0  0  0
   -5.2337    3.4049    0.1551 H   0  0  0  0  0  0  0  0  0  0  0  0
   -4.7192    1.1682   -1.6549 H   0  0  0  0  0  0  0  0  0  0  0  0
   -4.6352    4.0886   -2.6221 H   0  0  0  0  0  0  0  0  0  0  0  0
   -4.0976    2.6887   -3.5582 H   0  0  0  0  0  0  0  0  0  0  0  0
   -5.8111    2.8719   -3.1387 H   0  0  0  0  0  0  0  0  0  0  0  0
   -2.2466    1.5400   -1.4507 N   0  0  0  0  0  0  0  0  0  0  0  0
   -0.8424    1.5707   -1.1286 C   0  0  2  0  0  0  0  0  0  0  0  0
   -0.6038    0.7295    0.1237 C   0  0  0  0  0  0  0  0  0  0  0  0
   -0.8884   -0.4645    0.1926 O   0  0  0  0  0  0  0  0  0  0  0  0
   -0.3023    2.9982   -1.0128 C   0  0  0  0  0  0  0  0  0  0  0  0
   -0.3451    3.9221   -2.5676 S   0  0  0  0  0  0  0  0  0  0  0  0
   -2.5850    0.7815   -2.0381 H   0  0  0  0  0  0  0  0  0  0  0  0
   -0.3374    1.0708   -1.9644 H   0  0  0  0  0  0  0  0  0  0  0  0
   -0.8784    3.5687   -0.2770 H   0  0  0  0  0  0  0  0  0  0  0  0
    0.7387    2.9769   -0.6728 H   0  0  0  0  0  0  0  0  0  0  0  0
   -0.0600    1.4743    1.1606 N   0  0  0  0  0  0  0  0  0  0  0  0
    0.2335    0.9078    2.4562 C   0  0  2  0  0  0  0  0  0  0  0  0
    0.0271    1.9950    3.5026 C   0  0  0  0  0  0  0  0  0  0  0  0
    0.2687    3.1819    3.2933 O   0  0  0  0  0  0  0  0  0  0  0  0
    1.6515    0.3611    2.5128 C   0  0  0  0  0  0  0  0  0  0  0  0
    0.1845    2.4474    1.0024 H   0  0  0  0  0  0  0  0  0  0  0  0
   -0.4892    0.1009    2.6196 H   0  0  0  0  0  0  0  0  0  0  0  0
    2.3897    1.1551    2.3512 H   0  0  0  0  0  0  0  0  0  0  0  0
    1.8629   -0.0936    3.4862 H   0  0  0  0  0  0  0  0  0  0  0  0
    1.8070   -0.3996    1.7401 H   0  0  0  0  0  0  0  0  0  0  0  0
   -0.4176    1.4782    4.7114 N   0  0  0  0  0  0  0  0  0  0  0  0
   -0.6473    2.3029    5.8746 C   0  0  0  0  0  0  0  0  0  0  0  0
   -0.6302    0.4875    4.7834 H   0  0  0  0  0  0  0  0  0  0  0  0
    0.2626    2.3282    6.4923 H   0  0  0  0  0  0  0  0  0  0  0  0
   -0.9020    3.3243    5.5553 H   0  0  0  0  0  0  0  0  0  0  0  0
   -1.4778    1.8847    6.4623 H   0  0  0  0  0  0  0  0  0  0  0  0
  1  3  1  0  0  0  0
  1  7  1  0  0  0  0
  1  2  2  0  0  0  0
 23 25  1  0  0  0  0
 23 29  1  0  0  0  0
 23 24  2  0  0  0  0
 50 51  1  0  0  0  0
 51 59  1  0  0  0  0
 51 52  2  0  0  0  0
  8  9  1  0  0  0  0
  9 17  1  0  0  0  0
  9 10  2  0  0  0  0
 30 31  1  0  0  0  0
 31 39  1  0  0  0  0
 31 32  2  0  0  0  0
 40 41  1  0  0  0  0
 41 49  1  0  0  0  0
 41 42  2  0  0  0  0
 50 53  1  0  0  0  0
 30 33  1  0  0  0  0
 59 60  1  0  0  0  0
 17 18  1  0  0  0  0
  8 11  1  0  0  0  0
 11 12  1  0  0  0  0
 40 43  1  0  0  0  0
 43 44  1  0  0  0  0
 49 50  1  0  0  0  0
  7  8  1  0  0  0  0
 29 30  1  0  0  0  0
 39 40  1  0  0  0  0
 12 44  1  0  0  0  0
  3  4  1  0  0  0  0
  3  5  1  0  0  0  0
  3  6  1  0  0  0  0
 25 26  1  0  0  0  0
 25 27  1  0  0  0  0
 25 28  1  0  0  0  0
 53 56  1  0  0  0  0
 53 57  1  0  0  0  0
 53 58  1  0  0  0  0
 33 36  1  0  0  0  0
 33 37  1  0  0  0  0
 33 38  1  0  0  0  0
 60 62  1  0  0  0  0
 60 63  1  0  0  0  0
 60 64  1  0  0  0  0
 18 20  1  0  0  0  0
 18 21  1  0  0  0  0
 18 22  1  0  0  0  0
 11 15  1  0  0  0  0
 11 16  1  0  0  0  0
 43 47  1  0  0  0  0
 43 48  1  0  0  0  0
 50 55  1  0  0  0  0
  8 14  1  0  0  0  0
 30 35  1  0  0  0  0
 40 46  1  0  0  0  0
 59 61  1  0  0  0  0
 17 19  1  0  0  0  0
  7 13  1  0  0  0  0
 29 34  1  0  0  0  0
 49 54  1  0  0  0  0
 39 45  1  0  0  0  0
M  END
$$$$

  -OEChem-05262214473D

 64 63  0     1  0  0  0  0  0999 V2000
   -0.9946    9.6232   -2.9486 C   0  0  0  0  0  0  0  0  0  0  0  0
   -2.2188    9.6611   -2.9902 O   0  0  0  0  0  0  0  0  0  0  0  0
   -0.2000   10.4177   -3.9313 C   0  0  0  0  0  0  0  0  0  0  0  0
    0.0224    9.8501   -4.8491 H   0  0  0  0  0  0  0  0  0  0  0  0
   -0.7319   11.3214   -4.2695 H   0  0  0  0  0  0  0  0  0  0  0  0
    0.7767   10.7755   -3.5681 H   0  0  0  0  0  0  0  0  0  0  0  0
   -0.2275    8.8971   -2.0541 N   0  0  0  0  0  0  0  0  0  0  0  0
   -0.7916    8.0645   -1.0220 C   0  0  2  0  0  0  0  0  0  0  0  0
    0.1096    8.1248    0.2096 C   0  0  0  0  0  0  0  0  0  0  0  0
    1.1926    8.7065    0.2192 O   0  0  0  0  0  0  0  0  0  0  0  0
   -1.0619    6.6381   -1.5071 C   0  0  0  0  0  0  0  0  0  0  0  0
    0.4411    5.7330   -2.0010 S   0  0  0  0  0  0  0  0  0  0  0  0
    0.7857    8.9542   -2.1290 H   0  0  0  0  0  0  0  0  0  0  0  0
   -1.7477    8.5322   -0.7559 H   0  0  0  0  0  0  0  0  0  0  0  0
   -1.5542    6.0526   -0.7237 H   0  0  0  0  0  0  0  0  0  0  0  0
   -1.7315    6.6594   -2.3737 H   0  0  0  0  0  0  0  0  0  0  0  0
   -0.4262    7.4326    1.2864 N   0  0  0  0  0  0  0  0  0  0  0  0
    0.2512    7.3235    2.5573 C   0  0  0  0  0  0  0  0  0  0  0  0
   -1.3491    7.0166    1.2040 H   0  0  0  0  0  0  0  0  0  0  0  0
    0.8531    6.4030    2.5747 H   0  0  0  0  0  0  0  0  0  0  0  0
    0.9086    8.1941    2.6981 H   0  0  0  0  0  0  0  0  0  0  0  0
   -0.4924    7.2906    3.3673 H   0  0  0  0  0  0  0  0  0  0  0  0
   -6.7256    2.0330   -0.2766 C   0  0  0  0  0  0  0  0  0  0  0  0
   -7.1824    1.1039   -0.9322 O   0  0  0  0  0  0  0  0  0  0  0  0
   -7.5276    2.6077    0.8435 C   0  0  0  0  0  0  0  0  0  0  0  0
   -8.1775    3.4344    0.5145 H   0  0  0  0  0  0  0  0  0  0  0  0
   -8.2057    1.8676    1.2980 H   0  0  0  0  0  0  0  0  0  0  0  0
   -6.9411    3.0162    1.6819 H   0  0  0  0  0  0  0  0  0  0  0  0
   -5.4935    2.6382   -0.4627 N   0  0  0  0  0  0  0  0  0  0  0  0
   -4.5619    2.2388   -1.4845 C   0  0  2  0  0  0  0  0  0  0  0  0
   -3.1535    2.4674   -0.9521 C   0  0  0  0  0  0  0  0  0  0  0  0
   -2.8634    3.3945   -0.1987 O   0  0  0  0  0  0  0  0  0  0  0  0
   -4.7883    3.0138   -2.7732 C   0  0  0  0  0  0  0  0  0  0  0  0
   -5.2337    3.4049    0.1551 H   0  0  0  0  0  0  0  0  0  0  0  0
   -4.7192    1.1682   -1.6549 H   0  0  0  0  0  0  0  0  0  0  0  0
   -4.6352    4.0886   -2.6221 H   0  0  0  0  0  0  0  0  0  0  0  0
   -4.0976    2.6887   -3.5582 H   0  0  0  0  0  0  0  0  0  0  0  0
   -5.8111    2.8719   -3.1387 H   0  0  0  0  0  0  0  0  0  0  0  0
   -2.2466    1.5400   -1.4507 N   0  0  0  0  0  0  0  0  0  0  0  0
   -0.8424    1.5707   -1.1286 C   0  0  2  0  0  0  0  0  0  0  0  0
   -0.6038    0.7295    0.1237 C   0  0  0  0  0  0  0  0  0  0  0  0
   -0.6316   -0.4995    0.1201 O   0  0  0  0  0  0  0  0  0  0  0  0
   -0.3023    2.9982   -1.0128 C   0  0  0  0  0  0  0  0  0  0  0  0
   -0.3451    3.9221   -2.5676 S   0  0  0  0  0  0  0  0  0  0  0  0
   -2.5850    0.7815   -2.0381 H   0  0  0  0  0  0  0  0  0  0  0  0
   -0.3374    1.0708   -1.9644 H   0  0  0  0  0  0  0  0  0  0  0  0
   -0.8784    3.5687   -0.2770 H   0  0  0  0  0  0  0  0  0  0  0  0
    0.7387    2.9769   -0.6728 H   0  0  0  0  0  0  0  0  0  0  0  0
   -0.3816    1.5126    1.2475 N   0  0  0  0  0  0  0  0  0  0  0  0
   -0.1550    0.9486    2.5576 C   0  0  2  0  0  0  0  0  0  0  0  0
   -0.7330    1.9084    3.5892 C   0  0  0  0  0  0  0  0  0  0  0  0
   -0.7259    3.1294    3.4475 O   0  0  0  0  0  0  0  0  0  0  0  0
    1.3256    0.7085    2.8082 C   0  0  0  0  0  0  0  0  0  0  0  0
   -0.3327    2.5226    1.1514 H   0  0  0  0  0  0  0  0  0  0  0  0
   -0.7027    0.0005    2.5928 H   0  0  0  0  0  0  0  0  0  0  0  0
    1.8908    1.6471    2.7768 H   0  0  0  0  0  0  0  0  0  0  0  0
    1.4933    0.2544    3.7904 H   0  0  0  0  0  0  0  0  0  0  0  0
    1.7464    0.0416    2.0479 H   0  0  0  0  0  0  0  0  0  0  0  0
   -1.2188    1.2433    4.7063 N   0  0  0  0  0  0  0  0  0  0  0  0
   -1.7790    1.9355    5.8434 C   0  0  0  0  0  0  0  0  0  0  0  0
   -1.2211    0.2276    4.7214 H   0  0  0  0  0  0  0  0  0  0  0  0
   -0.9902    2.1161    6.5885 H   0  0  0  0  0  0  0  0  0  0  0  0
   -2.2009    2.8971    5.5158 H   0  0  0  0  0  0  0  0  0  0  0  0
   -2.5731    1.3205    6.2921 H   0  0  0  0  0  0  0  0  0  0  0  0
  1  3  1  0  0  0  0
  1  7  1  0  0  0  0
  1  2  2  0  0  0  0
 23 25  1  0  0  0  0
 23 29  1  0  0  0  0
 23 24  2  0  0  0  0
 50 51  1  0  0  0  0
 51 59  1  0  0  0  0
 51 52  2  0  0  0  0
  8  9  1  0  0  0  0
  9 17  1  0  0  0  0
  9 10  2  0  0  0  0
 30 31  1  0  0  0  0
 31 39  1  0  0  0  0
 31 32  2  0  0  0  0
 40 41  1  0  0  0  0
 41 49  1  0  0  0  0
 41 42  2  0  0  0  0
 50 53  1  0  0  0  0
 30 33  1  0  0  0  0
 59 60  1  0  0  0  0
 17 18  1  0  0  0  0
  8 11  1  0  0  0  0
 11 12  1  0  0  0  0
 40 43  1  0  0  0  0
 43 44  1  0  0  0  0
 49 50  1  0  0  0  0
  7  8  1  0  0  0  0
 29 30  1  0  0  0  0
 39 40  1  0  0  0  0
 12 44  1  0  0  0  0
  3  4  1  0  0  0  0
  3  5  1  0  0  0  0
  3  6  1  0  0  0  0
 25 26  1  0  0  0  0
 25 27  1  0  0  0  0
 25 28  1  0  0  0  0
 53 56  1  0  0  0  0
 53 57  1  0  0  0  0
 53 58  1  0  0  0  0
 33 36  1  0  0  0  0
 33 37  1  0  0  0  0
 33 38  1  0  0  0  0
 60 62  1  0  0  0  0
 60 63  1  0  0  0  0
 60 64  1  0  0  0  0
 18 20  1  0  0  0  0
 18 21  1  0  0  0  0
 18 22  1  0  0  0  0
 11 15  1  0  0  0  0
 11 16  1  0  0  0  0
 43 47  1  0  0  0  0
 43 48  1  0  0  0  0
 50 55  1  0  0  0  0
  8 14  1  0  0  0  0
 30 35  1  0  0  0  0
 40 46  1  0  0  0  0
 59 61  1  0  0  0  0
 17 19  1  0  0  0  0
  7 13  1  0  0  0  0
 29 34  1  0  0  0  0
 49 54  1  0  0  0  0
 39 45  1  0  0  0  0
M  END
$$$$

  -OEChem-05262214473D

 64 63  0     1  0  0  0  0  0999 V2000
   -0.9946    9.6232   -2.9486 C   0  0  0  0  0  0  0  0  0  0  0  0
   -2.2188    9.6611   -2.9902 O   0  0  0  0  0  0  0  0  0  0  0  0
   -0.2000   10.4177   -3.9313 C   0  0  0  0  0  0  0  0  0  0  0  0
    0.0224    9.8501   -4.8491 H   0  0  0  0  0  0  0  0  0  0  0  0
   -0.7319   11.3214   -4.2695 H   0  0  0  0  0  0  0  0  0  0  0  0
    0.7767   10.7755   -3.5681 H   0  0  0  0  0  0  0  0  0  0  0  0
   -0.2275    8.8971   -2.0541 N   0  0  0  0  0  0  0  0  0  0  0  0
   -0.7916    8.0645   -1.0220 C   0  0  2  0  0  0  0  0  0  0  0  0
    0.1096    8.1248    0.2096 C   0  0  0  0  0  0  0  0  0  0  0  0
    1.1926    8.7065    0.2192 O   0  0  0  0  0  0  0  0  0  0  0  0
   -1.0619    6.6381   -1.5071 C   0  0  0  0  0  0  0  0  0  0  0  0
    0.4411    5.7330   -2.0010 S   0  0  0  0  0  0  0  0  0  0  0  0
    0.7857    8.9542   -2.1290 H   0  0  0  0  0  0  0  0  0  0  0  0
   -1.7477    8.5322   -0.7559 H   0  0  0  0  0  0  0  0  0  0  0  0
   -1.5542    6.0526   -0.7237 H   0  0  0  0  0  0  0  0  0  0  0  0
   -1.7315    6.6594   -2.3737 H   0  0  0  0  0  0  0  0  0  0  0  0
   -0.4262    7.4326    1.2864 N   0  0  0  0  0  0  0  0  0  0  0  0
    0.2512    7.3235    2.5573 C   0  0  0  0  0  0  0  0  0  0  0  0
   -1.3491    7.0166    1.2040 H   0  0  0  0  0  0  0  0  0  0  0  0
    0.8531    6.4030    2.5747 H   0  0  0  0  0  0  0  0  0  0  0  0
    0.9086    8.1941    2.6981 H   0  0  0  0  0  0  0  0  0  0  0  0
   -0.4924    7.2906    3.3673 H   0  0  0  0  0  0  0  0  0  0  0  0
   -6.7256    2.0330   -0.2766 C   0  0  0  0  0  0  0  0  0  0  0  0
   -7.1824    1.1039   -0.9322 O   0  0  0  0  0  0  0  0  0  0  0  0
   -7.5276    2.6077    0.8435 C   0  0  0  0  0  0  0  0  0  0  0  0
   -8.1775    3.4344    0.5145 H   0  0  0  0  0  0  0  0  0  0  0  0
   -8.2057    1.8676    1.2980 H   0  0  0  0  0  0  0  0  0  0  0  0
   -6.9411    3.0162    1.6819 H   0  0  0  0  0  0  0  0  0  0  0  0
   -5.4935    2.6382   -0.4627 N   0  0  0  0  0  0  0  0  0  0  0  0
   -4.5619    2.2388   -1.4845 C   0  0  2  0  0  0  0  0  0  0  0  0
   -3.1535    2.4674   -0.9521 C   0  0  0  0  0  0  0  0  0  0  0  0
   -2.8634    3.3945   -0.1987 O   0  0  0  0  0  0  0  0  0  0  0  0
   -4.7883    3.0138   -2.7732 C   0  0  0  0  0  0  0  0  0  0  0  0
   -5.2337    3.4049    0.1551 H   0  0  0  0  0  0  0  0  0  0  0  0
   -4.7192    1.1682   -1.6549 H   0  0  0  0  0  0  0  0  0  0  0  0
   -4.6352    4.0886   -2.6221 H   0  0  0  0  0  0  0  0  0  0  0  0
   -4.0976    2.6887   -3.5582 H   0  0  0  0  0  0  0  0  0  0  0  0
   -5.8111    2.8719   -3.1387 H   0  0  0  0  0  0  0  0  0  0  0  0
   -2.2466    1.5400   -1.4507 N   0  0  0  0  0  0  0  0  0  0  0  0
   -0.8424    1.5707   -1.1286 C   0  0  2  0  0  0  0  0  0  0  0  0
   -0.6038    0.7295    0.1237 C   0  0  0  0  0  0  0  0  0  0  0  0
   -0.3657   -0.4760    0.0853 O   0  0  0  0  0  0  0  0  0  0  0  0
   -0.3023    2.9982   -1.0128 C   0  0  0  0  0  0  0  0  0  0  0  0
   -0.3451    3.9221   -2.5676 S   0  0  0  0  0  0  0  0  0  0  0  0
   -2.5850    0.7815   -2.0381 H   0  0  0  0  0  0  0  0  0  0  0  0
   -0.3374    1.0708   -1.9644 H   0  0  0  0  0  0  0  0  0  0  0  0
   -0.8784    3.5687   -0.2770 H   0  0  0  0  0  0  0  0  0  0  0  0
    0.7387    2.9769   -0.6728 H   0  0  0  0  0  0  0  0  0  0  0  0
   -0.7127    1.4778    1.2873 N   0  0  0  0  0  0  0  0  0  0  0  0
   -0.5534    0.9015    2.6019 C   0  0  2  0  0  0  0  0  0  0  0  0
   -1.4612    1.6599    3.5611 C   0  0  0  0  0  0  0  0  0  0  0  0
   -1.6974    2.8614    3.4526 O   0  0  0  0  0  0  0  0  0  0  0  0
    0.8951    0.9629    3.0611 C   0  0  0  0  0  0  0  0  0  0  0  0
   -0.8695    2.4794    1.2247 H   0  0  0  0  0  0  0  0  0  0  0  0
   -0.8837   -0.1407    2.5325 H   0  0  0  0  0  0  0  0  0  0  0  0
    1.2439    1.9993    3.1366 H   0  0  0  0  0  0  0  0  0  0  0  0
    1.0191    0.4999    4.0457 H   0  0  0  0  0  0  0  0  0  0  0  0
    1.5504    0.4423    2.3545 H   0  0  0  0  0  0  0  0  0  0  0  0
   -1.9421    0.8466    4.5776 N   0  0  0  0  0  0  0  0  0  0  0  0
   -2.7898    1.3416    5.6371 C   0  0  0  0  0  0  0  0  0  0  0  0
   -1.7280   -0.1463    4.5668 H   0  0  0  0  0  0  0  0  0  0  0  0
   -2.1690    1.6414    6.4943 H   0  0  0  0  0  0  0  0  0  0  0  0
   -3.3592    2.2104    5.2752 H   0  0  0  0  0  0  0  0  0  0  0  0
   -3.4872    0.5501    5.9487 H   0  0  0  0  0  0  0  0  0  0  0  0
  1  3  1  0  0  0  0
  1  7  1  0  0  0  0
  1  2  2  0  0  0  0
 23 25  1  0  0  0  0
 23 29  1  0  0  0  0
 23 24  2  0  0  0  0
 50 51  1  0  0  0  0
 51 59  1  0  0  0  0
 51 52  2  0  0  0  0
  8  9  1  0  0  0  0
  9 17  1  0  0  0  0
  9 10  2  0  0  0  0
 30 31  1  0  0  0  0
 31 39  1  0  0  0  0
 31 32  2  0  0  0  0
 40 41  1  0  0  0  0
 41 49  1  0  0  0  0
 41 42  2  0  0  0  0
 50 53  1  0  0  0  0
 30 33  1  0  0  0  0
 59 60  1  0  0  0  0
 17 18  1  0  0  0  0
  8 11  1  0  0  0  0
 11 12  1  0  0  0  0
 40 43  1  0  0  0  0
 43 44  1  0  0  0  0
 49 50  1  0  0  0  0
  7  8  1  0  0  0  0
 29 30  1  0  0  0  0
 39 40  1  0  0  0  0
 12 44  1  0  0  0  0
  3  4  1  0  0  0  0
  3  5  1  0  0  0  0
  3  6  1  0  0  0  0
 25 26  1  0  0  0  0
 25 27  1  0  0  0  0
 25 28  1  0  0  0  0
 53 56  1  0  0  0  0
 53 57  1  0  0  0  0
 53 58  1  0  0  0  0
 33 36  1  0  0  0  0
 33 37  1  0  0  0  0
 33 38  1  0  0  0  0
 60 62  1  0  0  0  0
 60 63  1  0  0  0  0
 60 64  1  0  0  0  0
 18 20  1  0  0  0  0
 18 21  1  0  0  0  0
 18 22  1  0  0  0  0
 11 15  1  0  0  0  0
 11 16  1  0  0  0  0
 43 47  1  0  0  0  0
 43 48  1  0  0  0  0
 50 55  1  0  0  0  0
  8 14  1  0  0  0  0
 30 35  1  0  0  0  0
 40 46  1  0  0  0  0
 59 61  1  0  0  0  0
 17 19  1  0  0  0  0
  7 13  1  0  0  0  0
 29 34  1  0  0  0  0
 49 54  1  0  0  0  0
 39 45  1  0  0  0  0
M  END
$$$$

  -OEChem-05262214473D

 64 63  0     1  0  0  0  0  0999 V2000
   -0.9946    9.6232   -2.9486 C   0  0  0  0  0  0  0  0  0  0  0  0
   -2.2188    9.6611   -2.9902 O   0  0  0  0  0  0  0  0  0  0  0  0
   -0.2000   10.4177   -3.9313 C   0  0  0  0  0  0  0  0  0  0  0  0
    0.0224    9.8501   -4.8491 H   0  0  0  0  0  0  0  0  0  0  0  0
   -0.7319   11.3214   -4.2695 H   0  0  0  0  0  0  0  0  0  0  0  0
    0.7767   10.7755   -3.5681 H   0  0  0  0  0  0  0  0  0  0  0  0
   -0.2275    8.8971   -2.0541 N   0  0  0  0  0  0  0  0  0  0  0  0
   -0.7916    8.0645   -1.0220 C   0  0  2  0  0  0  0  0  0  0  0  0
    0.1096    8.1248    0.2096 C   0  0  0  0  0  0  0  0  0  0  0  0
    1.1926    8.7065    0.2192 O   0  0  0  0  0  0  0  0  0  0  0  0
   -1.0619    6.6381   -1.5071 C   0  0  0  0  0  0  0  0  0  0  0  0
    0.4411    5.7330   -2.0010 S   0  0  0  0  0  0  0  0  0  0  0  0
    0.7857    8.9542   -2.1290 H   0  0  0  0  0  0  0  0  0  0  0  0
   -1.7477    8.5322   -0.7559 H   0  0  0  0  0  0  0  0  0  0  0  0
   -1.5542    6.0526   -0.7237 H   0  0  0  0  0  0  0  0  0  0  0  0
   -1.7315    6.6594   -2.3737 H   0  0  0  0  0  0  0  0  0  0  0  0
   -0.4262    7.4326    1.2864 N   0  0  0  0  0  0  0  0  0  0  0  0
    0.2512    7.3235    2.5573 C   0  0  0  0  0  0  0  0  0  0  0  0
   -1.3491    7.0166    1.2040 H   0  0  0  0  0  0  0  0  0  0  0  0
    0.8531    6.4030    2.5747 H   0  0  0  0  0  0  0  0  0  0  0  0
    0.9086    8.1941    2.6981 H   0  0  0  0  0  0  0  0  0  0  0  0
   -0.4924    7.2906    3.3673 H   0  0  0  0  0  0  0  0  0  0  0  0
   -6.7256    2.0330   -0.2766 C   0  0  0  0  0  0  0  0  0  0  0  0
   -7.1824    1.1039   -0.9322 O   0  0  0  0  0  0  0  0  0  0  0  0
   -7.5276    2.6077    0.8435 C   0  0  0  0  0  0  0  0  0  0  0  0
   -8.1775    3.4344    0.5145 H   0  0  0  0  0  0  0  0  0  0  0  0
   -8.2057    1.8676    1.2980 H   0  0  0  0  0  0  0  0  0  0  0  0
   -6.9411    3.0162    1.6819 H   0  0  0  0  0  0  0  0  0  0  0  0
   -5.4935    2.6382   -0.4627 N   0  0  0  0  0  0  0  0  0  0  0  0
   -4.5619    2.2388   -1.4845 C   0  0  2  0  0  0  0  0  0  0  0  0
   -3.1535    2.4674   -0.9521 C   0  0  0  0  0  0  0  0  0  0  0  0
   -2.8634    3.3945   -0.1987 O   0  0  0  0  0  0  0  0  0  0  0  0
   -4.7883    3.0138   -2.7732 C   0  0  0  0  0  0  0  0  0  0  0  0
   -5.2337    3.4049    0.1551 H   0  0  0  0  0  0  0  0  0  0  0  0
   -4.7192    1.1682   -1.6549 H   0  0  0  0  0  0  0  0  0  0  0  0
   -4.6352    4.0886   -2.6221 H   0  0  0  0  0  0  0  0  0  0  0  0
   -4.0976    2.6887   -3.5582 H   0  0  0  0  0  0  0  0  0  0  0  0
   -5.8111    2.8719   -3.1387 H   0  0  0  0  0  0  0  0  0  0  0  0
   -2.2466    1.5400   -1.4507 N   0  0  0  0  0  0  0  0  0  0  0  0
   -0.8424    1.5707   -1.1286 C   0  0  2  0  0  0  0  0  0  0  0  0
   -0.6038    0.7295    0.1237 C   0  0  0  0  0  0  0  0  0  0  0  0
   -0.1090   -0.3954    0.0905 O   0  0  0  0  0  0  0  0  0  0  0  0
   -0.3023    2.9982   -1.0128 C   0  0  0  0  0  0  0  0  0  0  0  0
   -0.3451    3.9221   -2.5676 S   0  0  0  0  0  0  0  0  0  0  0  0
   -2.5850    0.7815   -2.0381 H   0  0  0  0  0  0  0  0  0  0  0  0
   -0.3374    1.0708   -1.9644 H   0  0  0  0  0  0  0  0  0  0  0  0
   -0.8784    3.5687   -0.2770 H   0  0  0  0  0  0  0  0  0  0  0  0
    0.7387    2.9769   -0.6728 H   0  0  0  0  0  0  0  0  0  0  0  0
   -1.0308    1.3723    1.2770 N   0  0  0  0  0  0  0  0  0  0  0  0
   -0.9345    0.7696    2.5859 C   0  0  2  0  0  0  0  0  0  0  0  0
   -2.1078    1.2665    3.4200 C   0  0  0  0  0  0  0  0  0  0  0  0
   -2.5797    2.3961    3.3081 O   0  0  0  0  0  0  0  0  0  0  0  0
    0.3892    1.1071    3.2544 C   0  0  0  0  0  0  0  0  0  0  0  0
   -1.3892    2.3208    1.2172 H   0  0  0  0  0  0  0  0  0  0  0  0
   -1.0200   -0.3131    2.4427 H   0  0  0  0  0  0  0  0  0  0  0  0
    0.4929    2.1877    3.4062 H   0  0  0  0  0  0  0  0  0  0  0  0
    0.4726    0.6261    4.2346 H   0  0  0  0  0  0  0  0  0  0  0  0
    1.2323    0.7755    2.6389 H   0  0  0  0  0  0  0  0  0  0  0  0
   -2.5383    0.3151    4.3342 N   0  0  0  0  0  0  0  0  0  0  0  0
   -3.6106    0.5619    5.2697 C   0  0  0  0  0  0  0  0  0  0  0  0
   -2.1161   -0.6087    4.3301 H   0  0  0  0  0  0  0  0  0  0  0  0
   -3.1934    0.9366    6.2160 H   0  0  0  0  0  0  0  0  0  0  0  0
   -4.2980    1.3111    4.8500 H   0  0  0  0  0  0  0  0  0  0  0  0
   -4.1576   -0.3742    5.4555 H   0  0  0  0  0  0  0  0  0  0  0  0
  1  3  1  0  0  0  0
  1  7  1  0  0  0  0
  1  2  2  0  0  0  0
 23 25  1  0  0  0  0
 23 29  1  0  0  0  0
 23 24  2  0  0  0  0
 50 51  1  0  0  0  0
 51 59  1  0  0  0  0
 51 52  2  0  0  0  0
  8  9  1  0  0  0  0
  9 17  1  0  0  0  0
  9 10  2  0  0  0  0
 30 31  1  0  0  0  0
 31 39  1  0  0  0  0
 31 32  2  0  0  0  0
 40 41  1  0  0  0  0
 41 49  1  0  0  0  0
 41 42  2  0  0  0  0
 50 53  1  0  0  0  0
 30 33  1  0  0  0  0
 59 60  1  0  0  0  0
 17 18  1  0  0  0  0
  8 11  1  0  0  0  0
 11 12  1  0  0  0  0
 40 43  1  0  0  0  0
 43 44  1  0  0  0  0
 49 50  1  0  0  0  0
  7  8  1  0  0  0  0
 29 30  1  0  0  0  0
 39 40  1  0  0  0  0
 12 44  1  0  0  0  0
  3  4  1  0  0  0  0
  3  5  1  0  0  0  0
  3  6  1  0  0  0  0
 25 26  1  0  0  0  0
 25 27  1  0  0  0  0
 25 28  1  0  0  0  0
 53 56  1  0  0  0  0
 53 57  1  0  0  0  0
 53 58  1  0  0  0  0
 33 36  1  0  0  0  0
 33 37  1  0  0  0  0
 33 38  1  0  0  0  0
 60 62  1  0  0  0  0
 60 63  1  0  0  0  0
 60 64  1  0  0  0  0
 18 20  1  0  0  0  0
 18 21  1  0  0  0  0
 18 22  1  0  0  0  0
 11 15  1  0  0  0  0
 11 16  1  0  0  0  0
 43 47  1  0  0  0  0
 43 48  1  0  0  0  0
 50 55  1  0  0  0  0
  8 14  1  0  0  0  0
 30 35  1  0  0  0  0
 40 46  1  0  0  0  0
 59 61  1  0  0  0  0
 17 19  1  0  0  0  0
  7 13  1  0  0  0  0
 29 34  1  0  0  0  0
 49 54  1  0  0  0  0
 39 45  1  0  0  0  0
M  END
$$$$

  -OEChem-05262214473D

 64 63  0     1  0  0  0  0  0999 V2000
   -0.9946    9.6232   -2.9486 C   0  0  0  0  0  0  0  0  0  0  0  0
   -2.2188    9.6611   -2.9902 O   0  0  0  0  0  0  0  0  0  0  0  0
   -0.2000   10.4177   -3.9313 C   0  0  0  0  0  0  0  0  0  0  0  0
    0.0224    9.8501   -4.8491 H   0  0  0  0  0  0  0  0  0  0  0  0
   -0.7319   11.3214   -4.2695 H   0  0  0  0  0  0  0  0  0  0  0  0
    0.7767   10.7755   -3.5681 H   0  0  0  0  0  0  0  0  0  0  0  0
   -0.2275    8.8971   -2.0541 N   0  0  0  0  0  0  0  0  0  0  0  0
   -0.7916    8.0645   -1.0220 C   0  0  2  0  0  0  0  0  0  0  0  0
    0.1096    8.1248    0.2096 C   0  0  0  0  0  0  0  0  0  0  0  0
    1.1926    8.7065    0.2192 O   0  0  0  0  0  0  0  0  0  0  0  0
   -1.0619    6.6381   -1.5071 C   0  0  0  0  0  0  0  0  0  0  0  0
    0.4411    5.7330   -2.0010 S   0  0  0  0  0  0  0  0  0  0  0  0
    0.7857    8.9542   -2.1290 H   0  0  0  0  0  0  0  0  0  0  0  0
   -1.7477    8.5322   -0.7559 H   0  0  0  0  0  0  0  0  0  0  0  0
   -1.5542    6.0526   -0.7237 H   0  0  0  0  0  0  0  0  0  0  0  0
   -1.7315    6.6594   -2.3737 H   0  0  0  0  0  0  0  0  0  0  0  0
   -0.4262    7.4326    1.2864 N   0  0  0  0  0  0  0  0  0  0  0  0
    0.2512    7.3235    2.5573 C   0  0  0  0  0  0  0  0  0  0  0  0
   -1.3491    7.0166    1.2040 H   0  0  0  0  0  0  0  0  0  0  0  0
    0.8531    6.4030    2.5747 H   0  0  0  0  0  0  0  0  0  0  0  0
    0.9086    8.1941    2.6981 H   0  0  0  0  0  0  0  0  0  0  0  0
   -0.4924    7.2906    3.3673 H   0  0  0  0  0  0  0  0  0  0  0  0
   -6.7256    2.0330   -0.2766 C   0  0  0  0  0  0  0  0  0  0  0  0
   -7.1824    1.1039   -0.9322 O   0  0  0  0  0  0  0  0  0  0  0  0
   -7.5276    2.6077    0.8435 C   0  0  0  0  0  0  0  0  0  0  0  0
   -8.1775    3.4344    0.5145 H   0  0  0  0  0  0  0  0  0  0  0  0
   -8.2057    1.8676    1.2980 H   0  0  0  0  0  0  0  0  0  0  0  0
   -6.9411    3.0162    1.6819 H   0  0  0  0  0  0  0  0  0  0  0  0
   -5.4935    2.6382   -0.4627 N   0  0  0  0  0  0  0  0  0  0  0  0
   -4.5619    2.2388   -1.4845 C   0  0  2  0  0  0  0  0  0  0  0  0
   -3.1535    2.4674   -0.9521 C   0  0  0  0  0  0  0  0  0  0  0  0
   -2.8634    3.3945   -0.1987 O   0  0  0  0  0  0  0  0  0  0  0  0
   -4.7883    3.0138   -2.7732 C   0  0  0  0  0  0  0  0  0  0  0  0
   -5.2337    3.4049    0.1551 H   0  0  0  0  0  0  0  0  0  0  0  0
   -4.7192    1.1682   -1.6549 H   0  0  0  0  0  0  0  0  0  0  0  0
   -4.6352    4.0886   -2.6221 H   0  0  0  0  0  0  0  0  0  0  0  0
   -4.0976    2.6887   -3.5582 H   0  0  0  0  0  0  0  0  0  0  0  0
   -5.8111    2.8719   -3.1387 H   0  0  0  0  0  0  0  0  0  0  0  0
   -2.2466    1.5400   -1.4507 N   0  0  0  0  0  0  0  0  0  0  0  0
   -0.8424    1.5707   -1.1286 C   0  0  2  0  0  0  0  0  0  0  0  0
   -0.6038    0.7295    0.1237 C   0  0  0  0  0  0  0  0  0  0  0  0
    0.1212   -0.2633    0.1354 O   0  0  0  0  0  0  0  0  0  0  0  0
   -0.3023    2.9982   -1.0128 C   0  0  0  0  0  0  0  0  0  0  0  0
   -0.3451    3.9221   -2.5676 S   0  0  0  0  0  0  0  0  0  0  0  0
   -2.5850    0.7815   -2.0381 H   0  0  0  0  0  0  0  0  0  0  0  0
   -0.3374    1.0708   -1.9644 H   0  0  0  0  0  0  0  0  0  0  0  0
   -0.8784    3.5687   -0.2770 H   0  0  0  0  0  0  0  0  0  0  0  0
    0.7387    2.9769   -0.6728 H   0  0  0  0  0  0  0  0  0  0  0  0
   -1.3143    1.2033    1.2175 N   0  0  0  0  0  0  0  0  0  0  0  0
   -1.2723    0.5620    2.5109 C   0  0  2  0  0  0  0  0  0  0  0  0
   -2.6289    0.7550    3.1757 C   0  0  0  0  0  0  0  0  0  0  0  0
   -3.3126    1.7653    3.0240 O   0  0  0  0  0  0  0  0  0  0  0  0
   -0.1577    1.1312    3.3748 C   0  0  0  0  0  0  0  0  0  0  0  0
   -1.8566    2.0576    1.1295 H   0  0  0  0  0  0  0  0  0  0  0  0
   -1.1023   -0.5049    2.3295 H   0  0  0  0  0  0  0  0  0  0  0  0
   -0.3108    2.1994    3.5672 H   0  0  0  0  0  0  0  0  0  0  0  0
   -0.1089    0.6244    4.3442 H   0  0  0  0  0  0  0  0  0  0  0  0
    0.8139    1.0183    2.8817 H   0  0  0  0  0  0  0  0  0  0  0  0
   -2.9666   -0.3149    3.9926 N   0  0  0  0  0  0  0  0  0  0  0  0
   -4.1857   -0.3507    4.7663 C   0  0  0  0  0  0  0  0  0  0  0  0
   -2.3592   -1.1283    4.0274 H   0  0  0  0  0  0  0  0  0  0  0  0
   -3.9937    0.0497    5.7727 H   0  0  0  0  0  0  0  0  0  0  0  0
   -4.9534    0.2603    4.2691 H   0  0  0  0  0  0  0  0  0  0  0  0
   -4.5388   -1.3894    4.8463 H   0  0  0  0  0  0  0  0  0  0  0  0
  1  3  1  0  0  0  0
  1  7  1  0  0  0  0
  1  2  2  0  0  0  0
 23 25  1  0  0  0  0
 23 29  1  0  0  0  0
 23 24  2  0  0  0  0
 50 51  1  0  0  0  0
 51 59  1  0  0  0  0
 51 52  2  0  0  0  0
  8  9  1  0  0  0  0
  9 17  1  0  0  0  0
  9 10  2  0  0  0  0
 30 31  1  0  0  0  0
 31 39  1  0  0  0  0
 31 32  2  0  0  0  0
 40 41  1  0  0  0  0
 41 49  1  0  0  0  0
 41 42  2  0  0  0  0
 50 53  1  0  0  0  0
 30 33  1  0  0  0  0
 59 60  1  0  0  0  0
 17 18  1  0  0  0  0
  8 11  1  0  0  0  0
 11 12  1  0  0  0  0
 40 43  1  0  0  0  0
 43 44  1  0  0  0  0
 49 50  1  0  0  0  0
  7  8  1  0  0  0  0
 29 30  1  0  0  0  0
 39 40  1  0  0  0  0
 12 44  1  0  0  0  0
  3  4  1  0  0  0  0
  3  5  1  0  0  0  0
  3  6  1  0  0  0  0
 25 26  1  0  0  0  0
 25 27  1  0  0  0  0
 25 28  1  0  0  0  0
 53 56  1  0  0  0  0
 53 57  1  0  0  0  0
 53 58  1  0  0  0  0
 33 36  1  0  0  0  0
 33 37  1  0  0  0  0
 33 38  1  0  0  0  0
 60 62  1  0  0  0  0
 60 63  1  0  0  0  0
 60 64  1  0  0  0  0
 18 20  1  0  0  0  0
 18 21  1  0  0  0  0
 18 22  1  0  0  0  0
 11 15  1  0  0  0  0
 11 16  1  0  0  0  0
 43 47  1  0  0  0  0
 43 48  1  0  0  0  0
 50 55  1  0  0  0  0
  8 14  1  0  0  0  0
 30 35  1  0  0  0  0
 40 46  1  0  0  0  0
 59 61  1  0  0  0  0
 17 19  1  0  0  0  0
  7 13  1  0  0  0  0
 29 34  1  0  0  0  0
 49 54  1  0  0  0  0
 39 45  1  0  0  0  0
M  END
$$$$

  -OEChem-05262214473D

 64 63  0     1  0  0  0  0  0999 V2000
   -0.9946    9.6232   -2.9486 C   0  0  0  0  0  0  0  0  0  0  0  0
   -2.2188    9.6611   -2.9902 O   0  0  0  0  0  0  0  0  0  0  0  0
   -0.2000   10.4177   -3.9313 C   0  0  0  0  0  0  0  0  0  0  0  0
    0.0224    9.8501   -4.8491 H   0  0  0  0  0  0  0  0  0  0  0  0
   -0.7319   11.3214   -4.2695 H   0  0  0  0  0  0  0  0  0  0  0  0
    0.7767   10.7755   -3.5681 H   0  0  0  0  0  0  0  0  0  0  0  0
   -0.2275    8.8971   -2.0541 N   0  0  0  0  0  0  0  0  0  0  0  0
   -0.7916    8.0645   -1.0220 C   0  0  2  0  0  0  0  0  0  0  0  0
    0.1096    8.1248    0.2096 C   0  0  0  0  0  0  0  0  0  0  0  0
    1.1926    8.7065    0.2192 O   0  0  0  0  0  0  0  0  0  0  0  0
   -1.0619    6.6381   -1.5071 C   0  0  0  0  0  0  0  0  0  0  0  0
    0.4411    5.7330   -2.0010 S   0  0  0  0  0  0  0  0  0  0  0  0
    0.7857    8.9542   -2.1290 H   0  0  0  0  0  0  0  0  0  0  0  0
   -1.7477    8.5322   -0.7559 H   0  0  0  0  0  0  0  0  0  0  0  0
   -1.5542    6.0526   -0.7237 H   0  0  0  0  0  0  0  0  0  0  0  0
   -1.7315    6.6594   -2.3737 H   0  0  0  0  0  0  0  0  0  0  0  0
   -0.4262    7.4326    1.2864 N   0  0  0  0  0  0  0  0  0  0  0  0
    0.2512    7.3235    2.5573 C   0  0  0  0  0  0  0  0  0  0  0  0
   -1.3491    7.0166    1.2040 H   0  0  0  0  0  0  0  0  0  0  0  0
    0.8531    6.4030    2.5747 H   0  0  0  0  0  0  0  0  0  0  0  0
    0.9086    8.1941    2.6981 H   0  0  0  0  0  0  0  0  0  0  0  0
   -0.4924    7.2906    3.3673 H   0  0  0  0  0  0  0  0  0  0  0  0
   -6.7256    2.0330   -0.2766 C   0  0  0  0  0  0  0  0  0  0  0  0
   -7.1824    1.1039   -0.9322 O   0  0  0  0  0  0  0  0  0  0  0  0
   -7.5276    2.6077    0.8435 C   0  0  0  0  0  0  0  0  0  0  0  0
   -8.1775    3.4344    0.5145 H   0  0  0  0  0  0  0  0  0  0  0  0
   -8.2057    1.8676    1.2980 H   0  0  0  0  0  0  0  0  0  0  0  0
   -6.9411    3.0162    1.6819 H   0  0  0  0  0  0  0  0  0  0  0  0
   -5.4935    2.6382   -0.4627 N   0  0  0  0  0  0  0  0  0  0  0  0
   -4.5619    2.2388   -1.4845 C   0  0  2  0  0  0  0  0  0  0  0  0
   -3.1535    2.4674   -0.9521 C   0  0  0  0  0  0  0  0  0  0  0  0
   -2.8634    3.3945   -0.1987 O   0  0  0  0  0  0  0  0  0  0  0  0
   -4.7883    3.0138   -2.7732 C   0  0  0  0  0  0  0  0  0  0  0  0
   -5.2337    3.4049    0.1551 H   0  0  0  0  0  0  0  0  0  0  0  0
   -4.7192    1.1682   -1.6549 H   0  0  0  0  0  0  0  0  0  0  0  0
   -4.6352    4.0886   -2.6221 H   0  0  0  0  0  0  0  0  0  0  0  0
   -4.0976    2.6887   -3.5582 H   0  0  0  0  0  0  0  0  0  0  0  0
   -5.8111    2.8719   -3.1387 H   0  0  0  0  0  0  0  0  0  0  0  0
   -2.2466    1.5400   -1.4507 N   0  0  0  0  0  0  0  0  0  0  0  0
   -0.8424    1.5707   -1.1286 C   0  0  2  0  0  0  0  0  0  0  0  0
   -0.6038    0.7295    0.1237 C   0  0  0  0  0  0  0  0  0  0  0  0
    0.3090   -0.0886    0.2169 O   0  0  0  0  0  0  0  0  0  0  0  0
   -0.3023    2.9982   -1.0128 C   0  0  0  0  0  0  0  0  0  0  0  0
   -0.3451    3.9221   -2.5676 S   0  0  0  0  0  0  0  0  0  0  0  0
   -2.5850    0.7815   -2.0381 H   0  0  0  0  0  0  0  0  0  0  0  0
   -0.3374    1.0708   -1.9644 H   0  0  0  0  0  0  0  0  0  0  0  0
   -0.8784    3.5687   -0.2770 H   0  0  0  0  0  0  0  0  0  0  0  0
    0.7387    2.9769   -0.6728 H   0  0  0  0  0  0  0  0  0  0  0  0
   -1.5438    0.9823    1.1128 N   0  0  0  0  0  0  0  0  0  0  0  0
   -1.5439    0.2928    2.3818 C   0  0  2  0  0  0  0  0  0  0  0  0
   -2.9888    0.1603    2.8448 C   0  0  0  0  0  0  0  0  0  0  0  0
   -3.8461    1.0119    2.6196 O   0  0  0  0  0  0  0  0  0  0  0  0
   -0.7082    1.0335    3.4141 C   0  0  0  0  0  0  0  0  0  0  0  0
   -2.2396    1.7078    0.9675 H   0  0  0  0  0  0  0  0  0  0  0  0
   -1.1250   -0.7030    2.2007 H   0  0  0  0  0  0  0  0  0  0  0  0
   -1.1126    2.0336    3.6086 H   0  0  0  0  0  0  0  0  0  0  0  0
   -0.6860    0.4949    4.3671 H   0  0  0  0  0  0  0  0  0  0  0  0
    0.3235    1.1542    3.0664 H   0  0  0  0  0  0  0  0  0  0  0  0
   -3.1980   -1.0006    3.5762 N   0  0  0  0  0  0  0  0  0  0  0  0
   -4.4757   -1.3338    4.1612 C   0  0  0  0  0  0  0  0  0  0  0  0
   -2.4406   -1.6694    3.6794 H   0  0  0  0  0  0  0  0  0  0  0  0
   -4.5154   -0.9589    5.1946 H   0  0  0  0  0  0  0  0  0  0  0  0
   -5.2807   -0.8702    3.5720 H   0  0  0  0  0  0  0  0  0  0  0  0
   -4.6047   -2.4262    4.1624 H   0  0  0  0  0  0  0  0  0  0  0  0
  1  3  1  0  0  0  0
  1  7  1  0  0  0  0
  1  2  2  0  0  0  0
 23 25  1  0  0  0  0
 23 29  1  0  0  0  0
 23 24  2  0  0  0  0
 50 51  1  0  0  0  0
 51 59  1  0  0  0  0
 51 52  2  0  0  0  0
  8  9  1  0  0  0  0
  9 17  1  0  0  0  0
  9 10  2  0  0  0  0
 30 31  1  0  0  0  0
 31 39  1  0  0  0  0
 31 32  2  0  0  0  0
 40 41  1  0  0  0  0
 41 49  1  0  0  0  0
 41 42  2  0  0  0  0
 50 53  1  0  0  0  0
 30 33  1  0  0  0  0
 59 60  1  0  0  0  0
 17 18  1  0  0  0  0
  8 11  1  0  0  0  0
 11 12  1  0  0  0  0
 40 43  1  0  0  0  0
 43 44  1  0  0  0  0
 49 50  1  0  0  0  0
  7  8  1  0  0  0  0
 29 30  1  0  0  0  0
 39 40  1  0  0  0  0
 12 44  1  0  0  0  0
  3  4  1  0  0  0  0
  3  5  1  0  0  0  0
  3  6  1  0  0  0  0
 25 26  1  0  0  0  0
 25 27  1  0  0  0  0
 25 28  1  0  0  0  0
 53 56  1  0  0  0  0
 53 57  1  0  0  0  0
 53 58  1  0  0  0  0
 33 36  1  0  0  0  0
 33 37  1  0  0  0  0
 33 38  1  0  0  0  0
 60 62  1  0  0  0  0
 60 63  1  0  0  0  0
 60 64  1  0  0  0  0
 18 20  1  0  0  0  0
 18 21  1  0  0  0  0
 18 22  1  0  0  0  0
 11 15  1  0  0  0  0
 11 16  1  0  0  0  0
 43 47  1  0  0  0  0
 43 48  1  0  0  0  0
 50 55  1  0  0  0  0
  8 14  1  0  0  0  0
 30 35  1  0  0  0  0
 40 46  1  0  0  0  0
 59 61  1  0  0  0  0
 17 19  1  0  0  0  0
  7 13  1  0  0  0  0
 29 34  1  0  0  0  0
 49 54  1  0  0  0  0
 39 45  1  0  0  0  0
M  END
$$$$

  -OEChem-05262214473D

 64 63  0     1  0  0  0  0  0999 V2000
   -0.9946    9.6232   -2.9486 C   0  0  0  0  0  0  0  0  0  0  0  0
   -2.2188    9.6611   -2.9902 O   0  0  0  0  0  0  0  0  0  0  0  0
   -0.2000   10.4177   -3.9313 C   0  0  0  0  0  0  0  0  0  0  0  0
    0.0224    9.8501   -4.8491 H   0  0  0  0  0  0  0  0  0  0  0  0
   -0.7319   11.3214   -4.2695 H   0  0  0  0  0  0  0  0  0  0  0  0
    0.7767   10.7755   -3.5681 H   0  0  0  0  0  0  0  0  0  0  0  0
   -0.2275    8.8971   -2.0541 N   0  0  0  0  0  0  0  0  0  0  0  0
   -0.7916    8.0645   -1.0220 C   0  0  2  0  0  0  0  0  0  0  0  0
    0.1096    8.1248    0.2096 C   0  0  0  0  0  0  0  0  0  0  0  0
    1.1926    8.7065    0.2192 O   0  0  0  0  0  0  0  0  0  0  0  0
   -1.0619    6.6381   -1.5071 C   0  0  0  0  0  0  0  0  0  0  0  0
    0.4411    5.7330   -2.0010 S   0  0  0  0  0  0  0  0  0  0  0  0
    0.7857    8.9542   -2.1290 H   0  0  0  0  0  0  0  0  0  0  0  0
   -1.7477    8.5322   -0.7559 H   0  0  0  0  0  0  0  0  0  0  0  0
   -1.5542    6.0526   -0.7237 H   0  0  0  0  0  0  0  0  0  0  0  0
   -1.7315    6.6594   -2.3737 H   0  0  0  0  0  0  0  0  0  0  0  0
   -0.4262    7.4326    1.2864 N   0  0  0  0  0  0  0  0  0  0  0  0
    0.2512    7.3235    2.5573 C   0  0  0  0  0  0  0  0  0  0  0  0
   -1.3491    7.0166    1.2040 H   0  0  0  0  0  0  0  0  0  0  0  0
    0.8531    6.4030    2.5747 H   0  0  0  0  0  0  0  0  0  0  0  0
    0.9086    8.1941    2.6981 H   0  0  0  0  0  0  0  0  0  0  0  0
   -0.4924    7.2906    3.3673 H   0  0  0  0  0  0  0  0  0  0  0  0
   -6.7256    2.0330   -0.2766 C   0  0  0  0  0  0  0  0  0  0  0  0
   -7.1824    1.1039   -0.9322 O   0  0  0  0  0  0  0  0  0  0  0  0
   -7.5276    2.6077    0.8435 C   0  0  0  0  0  0  0  0  0  0  0  0
   -8.1775    3.4344    0.5145 H   0  0  0  0  0  0  0  0  0  0  0  0
   -8.2057    1.8676    1.2980 H   0  0  0  0  0  0  0  0  0  0  0  0
   -6.9411    3.0162    1.6819 H   0  0  0  0  0  0  0  0  0  0  0  0
   -5.4935    2.6382   -0.4627 N   0  0  0  0  0  0  0  0  0  0  0  0
   -4.5619    2.2388   -1.4845 C   0  0  2  0  0  0  0  0  0  0  0  0
   -3.1535    2.4674   -0.9521 C   0  0  0  0  0  0  0  0  0  0  0  0
   -2.8634    3.3945   -0.1987 O   0  0  0  0  0  0  0  0  0  0  0  0
   -4.7883    3.0138   -2.7732 C   0  0  0  0  0  0  0  0  0  0  0  0
   -5.2337    3.4049    0.1551 H   0  0  0  0  0  0  0  0  0  0  0  0
   -4.7192    1.1682   -1.6549 H   0  0  0  0  0  0  0  0  0  0  0  0
   -4.6352    4.0886   -2.6221 H   0  0  0  0  0  0  0  0  0  0  0  0
   -4.0976    2.6887   -3.5582 H   0  0  0  0  0  0  0  0  0  0  0  0
   -5.8111    2.8719   -3.1387 H   0  0  0  0  0  0  0  0  0  0  0  0
   -2.2466    1.5400   -1.4507 N   0  0  0  0  0  0  0  0  0  0  0  0
   -0.8424    1.5707   -1.1286 C   0  0  2  0  0  0  0  0  0  0  0  0
   -0.6038    0.7295    0.1237 C   0  0  0  0  0  0  0  0  0  0  0  0
    0.4418    0.1166    0.3295 O   0  0  0  0  0  0  0  0  0  0  0  0
   -0.3023    2.9982   -1.0128 C   0  0  0  0  0  0  0  0  0  0  0  0
   -0.3451    3.9221   -2.5676 S   0  0  0  0  0  0  0  0  0  0  0  0
   -2.5850    0.7815   -2.0381 H   0  0  0  0  0  0  0  0  0  0  0  0
   -0.3374    1.0708   -1.9644 H   0  0  0  0  0  0  0  0  0  0  0  0
   -0.8784    3.5687   -0.2770 H   0  0  0  0  0  0  0  0  0  0  0  0
    0.7387    2.9769   -0.6728 H   0  0  0  0  0  0  0  0  0  0  0  0
   -1.7036    0.7244    0.9700 N   0  0  0  0  0  0  0  0  0  0  0  0
   -1.7308   -0.0196    2.2075 C   0  0  2  0  0  0  0  0  0  0  0  0
   -3.1630   -0.4772    2.4498 C   0  0  0  0  0  0  0  0  0  0  0  0
   -4.1440    0.1873    2.1225 O   0  0  0  0  0  0  0  0  0  0  0  0
   -1.2248    0.8208    3.3696 C   0  0  0  0  0  0  0  0  0  0  0  0
   -2.5123    1.2951    0.7422 H   0  0  0  0  0  0  0  0  0  0  0  0
   -1.0865   -0.8940    2.0651 H   0  0  0  0  0  0  0  0  0  0  0  0
   -1.8578    1.7016    3.5276 H   0  0  0  0  0  0  0  0  0  0  0  0
   -1.2191    0.2464    4.3018 H   0  0  0  0  0  0  0  0  0  0  0  0
   -0.2053    1.1739    3.1804 H   0  0  0  0  0  0  0  0  0  0  0  0
   -3.2166   -1.6951    3.1132 N   0  0  0  0  0  0  0  0  0  0  0  0
   -4.4610   -2.3205    3.4956 C   0  0  0  0  0  0  0  0  0  0  0  0
   -2.3547   -2.1954    3.3098 H   0  0  0  0  0  0  0  0  0  0  0  0
   -4.7228   -2.0205    4.5210 H   0  0  0  0  0  0  0  0  0  0  0  0
   -5.2576   -2.0035    2.8064 H   0  0  0  0  0  0  0  0  0  0  0  0
   -4.3508   -3.4140    3.4505 H   0  0  0  0  0  0  0  0  0  0  0  0
  1  3  1  0  0  0  0
  1  7  1  0  0  0  0
  1  2  2  0  0  0  0
 23 25  1  0  0  0  0
 23 29  1  0  0  0  0
 23 24  2  0  0  0  0
 50 51  1  0  0  0  0
 51 59  1  0  0  0  0
 51 52  2  0  0  0  0
  8  9  1  0  0  0  0
  9 17  1  0  0  0  0
  9 10  2  0  0  0  0
 30 31  1  0  0  0  0
 31 39  1  0  0  0  0
 31 32  2  0  0  0  0
 40 41  1  0  0  0  0
 41 49  1  0  0  0  0
 41 42  2  0  0  0  0
 50 53  1  0  0  0  0
 30 33  1  0  0  0  0
 59 60  1  0  0  0  0
 17 18  1  0  0  0  0
  8 11  1  0  0  0  0
 11 12  1  0  0  0  0
 40 43  1  0  0  0  0
 43 44  1  0  0  0  0
 49 50  1  0  0  0  0
  7  8  1  0  0  0  0
 29 30  1  0  0  0  0
 39 40  1  0  0  0  0
 12 44  1  0  0  0  0
  3  4  1  0  0  0  0
  3  5  1  0  0  0  0
  3  6  1  0  0  0  0
 25 26  1  0  0  0  0
 25 27  1  0  0  0  0
 25 28  1  0  0  0  0
 53 56  1  0  0  0  0
 53 57  1  0  0  0  0
 53 58  1  0  0  0  0
 33 36  1  0  0  0  0
 33 37  1  0  0  0  0
 33 38  1  0  0  0  0
 60 62  1  0  0  0  0
 60 63  1  0  0  0  0
 60 64  1  0  0  0  0
 18 20  1  0  0  0  0
 18 21  1  0  0  0  0
 18 22  1  0  0  0  0
 11 15  1  0  0  0  0
 11 16  1  0  0  0  0
 43 47  1  0  0  0  0
 43 48  1  0  0  0  0
 50 55  1  0  0  0  0
  8 14  1  0  0  0  0
 30 35  1  0  0  0  0
 40 46  1  0  0  0  0
 59 61  1  0  0  0  0
 17 19  1  0  0  0  0
  7 13  1  0  0  0  0
 29 34  1  0  0  0  0
 49 54  1  0  0  0  0
 39 45  1  0  0  0  0
M  END
$$$$

  -OEChem-05262214473D

 64 63  0     1  0  0  0  0  0999 V2000
   -0.9946    9.6232   -2.9486 C   0  0  0  0  0  0  0  0  0  0  0  0
   -2.2188    9.6611   -2.9902 O   0  0  0  0  0  0  0  0  0  0  0  0
   -0.2000   10.4177   -3.9313 C   0  0  0  0  0  0  0  0  0  0  0  0
    0.0224    9.8501   -4.8491 H   0  0  0  0  0  0  0  0  0  0  0  0
   -0.7319   11.3214   -4.2695 H   0  0  0  0  0  0  0  0  0  0  0  0
    0.7767   10.7755   -3.5681 H   0  0  0  0  0  0  0  0  0  0  0  0
   -0.2275    8.8971   -2.0541 N   0  0  0  0  0  0  0  0  0  0  0  0
   -0.7916    8.0645   -1.0220 C   0  0  2  0  0  0  0  0  0  0  0  0
    0.1096    8.1248    0.2096 C   0  0  0  0  0  0  0  0  0  0  0  0
    1.1926    8.7065    0.2192 O   0  0  0  0  0  0  0  0  0  0  0  0
   -1.0619    6.6381   -1.5071 C   0  0  0  0  0  0  0  0  0  0  0  0
    0.4411    5.7330   -2.0010 S   0  0  0  0  0  0  0  0  0  0  0  0
    0.7857    8.9542   -2.1290 H   0  0  0  0  0  0  0  0  0  0  0  0
   -1.7477    8.5322   -0.7559 H   0  0  0  0  0  0  0  0  0  0  0  0
   -1.5542    6.0526   -0.7237 H   0  0  0  0  0  0  0  0  0  0  0  0
   -1.7315    6.6594   -2.3737 H   0  0  0  0  0  0  0  0  0  0  0  0
   -0.4262    7.4326    1.2864 N   0  0  0  0  0  0  0  0  0  0  0  0
    0.2512    7.3235    2.5573 C   0  0  0  0  0  0  0  0  0  0  0  0
   -1.3491    7.0166    1.2040 H   0  0  0  0  0  0  0  0  0  0  0  0
    0.8531    6.4030    2.5747 H   0  0  0  0  0  0  0  0  0  0  0  0
    0.9086    8.1941    2.6981 H   0  0  0  0  0  0  0  0  0  0  0  0
   -0.4924    7.2906    3.3673 H   0  0  0  0  0  0  0  0  0  0  0  0
   -6.7256    2.0330   -0.2766 C   0  0  0  0  0  0  0  0  0  0  0  0
   -7.1824    1.1039   -0.9322 O   0  0  0  0  0  0  0  0  0  0  0  0
   -7.5276    2.6077    0.8435 C   0  0  0  0  0  0  0  0  0  0  0  0
   -8.1775    3.4344    0.5145 H   0  0  0  0  0  0  0  0  0  0  0  0
   -8.2057    1.8676    1.2980 H   0  0  0  0  0  0  0  0  0  0  0  0
   -6.9411    3.0162    1.6819 H   0  0  0  0  0  0  0  0  0  0  0  0
   -5.4935    2.6382   -0.4627 N   0  0  0  0  0  0  0  0  0  0  0  0
   -4.5619    2.2388   -1.4845 C   0  0  2  0  0  0  0  0  0  0  0  0
   -3.1535    2.4674   -0.9521 C   0  0  0  0  0  0  0  0  0  0  0  0
   -2.8634    3.3945   -0.1987 O   0  0  0  0  0  0  0  0  0  0  0  0
   -4.7883    3.0138   -2.7732 C   0  0  0  0  0  0  0  0  0  0  0  0
   -5.2337    3.4049    0.1551 H   0  0  0  0  0  0  0  0  0  0  0  0
   -4.7192    1.1682   -1.6549 H   0  0  0  0  0  0  0  0  0  0  0  0
   -4.6352    4.0886   -2.6221 H   0  0  0  0  0  0  0  0  0  0  0  0
   -4.0976    2.6887   -3.5582 H   0  0  0  0  0  0  0  0  0  0  0  0
   -5.8111    2.8719   -3.1387 H   0  0  0  0  0  0  0  0  0  0  0  0
   -2.2466    1.5400   -1.4507 N   0  0  0  0  0  0  0  0  0  0  0  0
   -0.8424    1.5707   -1.1286 C   0  0  2  0  0  0  0  0  0  0  0  0
   -0.6038    0.7295    0.1237 C   0  0  0  0  0  0  0  0  0  0  0  0
    0.5105    0.3385    0.4655 O   0  0  0  0  0  0  0  0  0  0  0  0
   -0.3023    2.9982   -1.0128 C   0  0  0  0  0  0  0  0  0  0  0  0
   -0.3451    3.9221   -2.5676 S   0  0  0  0  0  0  0  0  0  0  0  0
   -2.5850    0.7815   -2.0381 H   0  0  0  0  0  0  0  0  0  0  0  0
   -0.3374    1.0708   -1.9644 H   0  0  0  0  0  0  0  0  0  0  0  0
   -0.8784    3.5687   -0.2770 H   0  0  0  0  0  0  0  0  0  0  0  0
    0.7387    2.9769   -0.6728 H   0  0  0  0  0  0  0  0  0  0  0  0
   -1.7828    0.4471    0.7988 N   0  0  0  0  0  0  0  0  0  0  0  0
   -1.8201   -0.3540    1.9999 C   0  0  2  0  0  0  0  0  0  0  0  0
   -3.1397   -1.1140    2.0176 C   0  0  0  0  0  0  0  0  0  0  0  0
   -4.1859   -0.6522    1.5665 O   0  0  0  0  0  0  0  0  0  0  0  0
   -1.6723    0.5075    3.2444 C   0  0  0  0  0  0  0  0  0  0  0  0
   -2.6560    0.8478    0.4691 H   0  0  0  0  0  0  0  0  0  0  0  0
   -0.9894   -1.0649    1.9318 H   0  0  0  0  0  0  0  0  0  0  0  0
   -2.4956    1.2261    3.3297 H   0  0  0  0  0  0  0  0  0  0  0  0
   -1.6721   -0.1041    4.1527 H   0  0  0  0  0  0  0  0  0  0  0  0
   -0.7365    1.0761    3.2159 H   0  0  0  0  0  0  0  0  0  0  0  0
   -3.0212   -2.3512    2.6352 N   0  0  0  0  0  0  0  0  0  0  0  0
   -4.1426   -3.2435    2.8149 C   0  0  0  0  0  0  0  0  0  0  0  0
   -2.1075   -2.6702    2.9437 H   0  0  0  0  0  0  0  0  0  0  0  0
   -4.6019   -3.0627    3.7979 H   0  0  0  0  0  0  0  0  0  0  0  0
   -4.8856   -3.0623    2.0243 H   0  0  0  0  0  0  0  0  0  0  0  0
   -3.7945   -4.2855    2.7591 H   0  0  0  0  0  0  0  0  0  0  0  0
  1  3  1  0  0  0  0
  1  7  1  0  0  0  0
  1  2  2  0  0  0  0
 23 25  1  0  0  0  0
 23 29  1  0  0  0  0
 23 24  2  0  0  0  0
 50 51  1  0  0  0  0
 51 59  1  0  0  0  0
 51 52  2  0  0  0  0
  8  9  1  0  0  0  0
  9 17  1  0  0  0  0
  9 10  2  0  0  0  0
 30 31  1  0  0  0  0
 31 39  1  0  0  0  0
 31 32  2  0  0  0  0
 40 41  1  0  0  0  0
 41 49  1  0  0  0  0
 41 42  2  0  0  0  0
 50 53  1  0  0  0  0
 30 33  1  0  0  0  0
 59 60  1  0  0  0  0
 17 18  1  0  0  0  0
  8 11  1  0  0  0  0
 11 12  1  0  0  0  0
 40 43  1  0  0  0  0
 43 44  1  0  0  0  0
 49 50  1  0  0  0  0
  7  8  1  0  0  0  0
 29 30  1  0  0  0  0
 39 40  1  0  0  0  0
 12 44  1  0  0  0  0
  3  4  1  0  0  0  0
  3  5  1  0  0  0  0
  3  6  1  0  0  0  0
 25 26  1  0  0  0  0
 25 27  1  0  0  0  0
 25 28  1  0  0  0  0
 53 56  1  0  0  0  0
 53 57  1  0  0  0  0
 53 58  1  0  0  0  0
 33 36  1  0  0  0  0
 33 37  1  0  0  0  0
 33 38  1  0  0  0  0
 60 62  1  0  0  0  0
 60 63  1  0  0  0  0
 60 64  1  0  0  0  0
 18 20  1  0  0  0  0
 18 21  1  0  0  0  0
 18 22  1  0  0  0  0
 11 15  1  0  0  0  0
 11 16  1  0  0  0  0
 43 47  1  0  0  0  0
 43 48  1  0  0  0  0
 50 55  1  0  0  0  0
  8 14  1  0  0  0  0
 30 35  1  0  0  0  0
 40 46  1  0  0  0  0
 59 61  1  0  0  0  0
 17 19  1  0  0  0  0
  7 13  1  0  0  0  0
 29 34  1  0  0  0  0
 49 54  1  0  0  0  0
 39 45  1  0  0  0  0
M  END
$$$$

  -OEChem-05262214473D

 64 63  0     1  0  0  0  0  0999 V2000
   -0.9946    9.6232   -2.9486 C   0  0  0  0  0  0  0  0  0  0  0  0
   -2.2188    9.6611   -2.9902 O   0  0  0  0  0  0  0  0  0  0  0  0
   -0.2000   10.4177   -3.9313 C   0  0  0  0  0  0  0  0  0  0  0  0
    0.0224    9.8501   -4.8491 H   0  0  0  0  0  0  0  0  0  0  0  0
   -0.7319   11.3214   -4.2695 H   0  0  0  0  0  0  0  0  0  0  0  0
    0.7767   10.7755   -3.5681 H   0  0  0  0  0  0  0  0  0  0  0  0
   -0.2275    8.8971   -2.0541 N   0  0  0  0  0  0  0  0  0  0  0  0
   -0.7916    8.0645   -1.0220 C   0  0  2  0  0  0  0  0  0  0  0  0
    0.1096    8.1248    0.2096 C   0  0  0  0  0  0  0  0  0  0  0  0
    1.1926    8.7065    0.2192 O   0  0  0  0  0  0  0  0  0  0  0  0
   -1.0619    6.6381   -1.5071 C   0  0  0  0  0  0  0  0  0  0  0  0
    0.4411    5.7330   -2.0010 S   0  0  0  0  0  0  0  0  0  0  0  0
    0.7857    8.9542   -2.1290 H   0  0  0  0  0  0  0  0  0  0  0  0
   -1.7477    8.5322   -0.7559 H   0  0  0  0  0  0  0  0  0  0  0  0
   -1.5542    6.0526   -0.7237 H   0  0  0  0  0  0  0  0  0  0  0  0
   -1.7315    6.6594   -2.3737 H   0  0  0  0  0  0  0  0  0  0  0  0
   -0.4262    7.4326    1.2864 N   0  0  0  0  0  0  0  0  0  0  0  0
    0.2512    7.3235    2.5573 C   0  0  0  0  0  0  0  0  0  0  0  0
   -1.3491    7.0166    1.2040 H   0  0  0  0  0  0  0  0  0  0  0  0
    0.8531    6.4030    2.5747 H   0  0  0  0  0  0  0  0  0  0  0  0
    0.9086    8.1941    2.6981 H   0  0  0  0  0  0  0  0  0  0  0  0
   -0.4924    7.2906    3.3673 H   0  0  0  0  0  0  0  0  0  0  0  0
   -6.7256    2.0330   -0.2766 C   0  0  0  0  0  0  0  0  0  0  0  0
   -7.1824    1.1039   -0.9322 O   0  0  0  0  0  0  0  0  0  0  0  0
   -7.5276    2.6077    0.8435 C   0  0  0  0  0  0  0  0  0  0  0  0
   -8.1775    3.4344    0.5145 H   0  0  0  0  0  0  0  0  0  0  0  0
   -8.2057    1.8676    1.2980 H   0  0  0  0  0  0  0  0  0  0  0  0
   -6.9411    3.0162    1.6819 H   0  0  0  0  0  0  0  0  0  0  0  0
   -5.4935    2.6382   -0.4627 N   0  0  0  0  0  0  0  0  0  0  0  0
   -4.5619    2.2388   -1.4845 C   0  0  2  0  0  0  0  0  0  0  0  0
   -3.1535    2.4674   -0.9521 C   0  0  0  0  0  0  0  0  0  0  0  0
   -2.8634    3.3945   -0.1987 O   0  0  0  0  0  0  0  0  0  0  0  0
   -4.7883    3.0138   -2.7732 C   0  0  0  0  0  0  0  0  0  0  0  0
   -5.2337    3.4049    0.1551 H   0  0  0  0  0  0  0  0  0  0  0  0
   -4.7192    1.1682   -1.6549 H   0  0  0  0  0  0  0  0  0  0  0  0
   -4.6352    4.0886   -2.6221 H   0  0  0  0  0  0  0  0  0  0  0  0
   -4.0976    2.6887   -3.5582 H   0  0  0  0  0  0  0  0  0  0  0  0
   -5.8111    2.8719   -3.1387 H   0  0  0  0  0  0  0  0  0  0  0  0
   -2.2466    1.5400   -1.4507 N   0  0  0  0  0  0  0  0  0  0  0  0
   -0.8424    1.5707   -1.1286 C   0  0  2  0  0  0  0  0  0  0  0  0
   -0.6038    0.7295    0.1237 C   0  0  0  0  0  0  0  0  0  0  0  0
    0.5103    0.5619    0.6156 O   0  0  0  0  0  0  0  0  0  0  0  0
   -0.3023    2.9982   -1.0128 C   0  0  0  0  0  0  0  0  0  0  0  0
   -0.3451    3.9221   -2.5676 S   0  0  0  0  0  0  0  0  0  0  0  0
   -2.5850    0.7815   -2.0381 H   0  0  0  0  0  0  0  0  0  0  0  0
   -0.3374    1.0708   -1.9644 H   0  0  0  0  0  0  0  0  0  0  0  0
   -0.8784    3.5687   -0.2770 H   0  0  0  0  0  0  0  0  0  0  0  0
    0.7387    2.9769   -0.6728 H   0  0  0  0  0  0  0  0  0  0  0  0
   -1.7762    0.1694    0.6110 N   0  0  0  0  0  0  0  0  0  0  0  0
   -1.8058   -0.6875    1.7732 C   0  0  2  0  0  0  0  0  0  0  0  0
   -2.9205   -1.7067    1.5777 C   0  0  0  0  0  0  0  0  0  0  0  0
   -3.9689   -1.4496    0.9896 O   0  0  0  0  0  0  0  0  0  0  0  0
   -2.0202    0.1150    3.0470 C   0  0  0  0  0  0  0  0  0  0  0  0
   -2.6610    0.3962    0.1667 H   0  0  0  0  0  0  0  0  0  0  0  0
   -0.8404   -1.2039    1.8101 H   0  0  0  0  0  0  0  0  0  0  0  0
   -2.9826    0.6395    3.0284 H   0  0  0  0  0  0  0  0  0  0  0  0
   -2.0139   -0.5328    3.9299 H   0  0  0  0  0  0  0  0  0  0  0  0
   -1.2340    0.8675    3.1706 H   0  0  0  0  0  0  0  0  0  0  0  0
   -2.6251   -2.9242    2.1749 N   0  0  0  0  0  0  0  0  0  0  0  0
   -3.5420   -4.0400    2.1655 C   0  0  0  0  0  0  0  0  0  0  0  0
   -1.7158   -3.0616    2.6062 H   0  0  0  0  0  0  0  0  0  0  0  0
   -4.1608   -4.0144    3.0746 H   0  0  0  0  0  0  0  0  0  0  0  0
   -4.1901   -3.9744    1.2790 H   0  0  0  0  0  0  0  0  0  0  0  0
   -2.9736   -4.9813    2.1353 H   0  0  0  0  0  0  0  0  0  0  0  0
  1  3  1  0  0  0  0
  1  7  1  0  0  0  0
  1  2  2  0  0  0  0
 23 25  1  0  0  0  0
 23 29  1  0  0  0  0
 23 24  2  0  0  0  0
 50 51  1  0  0  0  0
 51 59  1  0  0  0  0
 51 52  2  0  0  0  0
  8  9  1  0  0  0  0
  9 17  1  0  0  0  0
  9 10  2  0  0  0  0
 30 31  1  0  0  0  0
 31 39  1  0  0  0  0
 31 32  2  0  0  0  0
 40 41  1  0  0  0  0
 41 49  1  0  0  0  0
 41 42  2  0  0  0  0
 50 53  1  0  0  0  0
 30 33  1  0  0  0  0
 59 60  1  0  0  0  0
 17 18  1  0  0  0  0
  8 11  1  0  0  0  0
 11 12  1  0  0  0  0
 40 43  1  0  0  0  0
 43 44  1  0  0  0  0
 49 50  1  0  0  0  0
  7  8  1  0  0  0  0
 29 30  1  0  0  0  0
 39 40  1  0  0  0  0
 12 44  1  0  0  0  0
  3  4  1  0  0  0  0
  3  5  1  0  0  0  0
  3  6  1  0  0  0  0
 25 26  1  0  0  0  0
 25 27  1  0  0  0  0
 25 28  1  0  0  0  0
 53 56  1  0  0  0  0
 53 57  1  0  0  0  0
 53 58  1  0  0  0  0
 33 36  1  0  0  0  0
 33 37  1  0  0  0  0
 33 38  1  0  0  0  0
 60 62  1  0  0  0  0
 60 63  1  0  0  0  0
 60 64  1  0  0  0  0
 18 20  1  0  0  0  0
 18 21  1  0  0  0  0
 18 22  1  0  0  0  0
 11 15  1  0  0  0  0
 11 16  1  0  0  0  0
 43 47  1  0  0  0  0
 43 48  1  0  0  0  0
 50 55  1  0  0  0  0
  8 14  1  0  0  0  0
 30 35  1  0  0  0  0
 40 46  1  0  0  0  0
 59 61  1  0  0  0  0
 17 19  1  0  0  0  0
  7 13  1  0  0  0  0
 29 34  1  0  0  0  0
 49 54  1  0  0  0  0
 39 45  1  0  0  0  0
M  END
$$$$

  -OEChem-05262214473D

 64 63  0     1  0  0  0  0  0999 V2000
   -0.9946    9.6232   -2.9486 C   0  0  0  0  0  0  0  0  0  0  0  0
   -2.2188    9.6611   -2.9902 O   0  0  0  0  0  0  0  0  0  0  0  0
   -0.2000   10.4177   -3.9313 C   0  0  0  0  0  0  0  0  0  0  0  0
    0.0224    9.8501   -4.8491 H   0  0  0  0  0  0  0  0  0  0  0  0
   -0.7319   11.3214   -4.2695 H   0  0  0  0  0  0  0  0  0  0  0  0
    0.7767   10.7755   -3.5681 H   0  0  0  0  0  0  0  0  0  0  0  0
   -0.2275    8.8971   -2.0541 N   0  0  0  0  0  0  0  0  0  0  0  0
   -0.7916    8.0645   -1.0220 C   0  0  2  0  0  0  0  0  0  0  0  0
    0.1096    8.1248    0.2096 C   0  0  0  0  0  0  0  0  0  0  0  0
    1.1926    8.7065    0.2192 O   0  0  0  0  0  0  0  0  0  0  0  0
   -1.0619    6.6381   -1.5071 C   0  0  0  0  0  0  0  0  0  0  0  0
    0.4411    5.7330   -2.0010 S   0  0  0  0  0  0  0  0  0  0  0  0
    0.7857    8.9542   -2.1290 H   0  0  0  0  0  0  0  0  0  0  0  0
   -1.7477    8.5322   -0.7559 H   0  0  0  0  0  0  0  0  0  0  0  0
   -1.5542    6.0526   -0.7237 H   0  0  0  0  0  0  0  0  0  0  0  0
   -1.7315    6.6594   -2.3737 H   0  0  0  0  0  0  0  0  0  0  0  0
   -0.4262    7.4326    1.2864 N   0  0  0  0  0  0  0  0  0  0  0  0
    0.2512    7.3235    2.5573 C   0  0  0  0  0  0  0  0  0  0  0  0
   -1.3491    7.0166    1.2040 H   0  0  0  0  0  0  0  0  0  0  0  0
    0.8531    6.4030    2.5747 H   0  0  0  0  0  0  0  0  0  0  0  0
    0.9086    8.1941    2.6981 H   0  0  0  0  0  0  0  0  0  0  0  0
   -0.4924    7.2906    3.3673 H   0  0  0  0  0  0  0  0  0  0  0  0
   -6.7256    2.0330   -0.2766 C   0  0  0  0  0  0  0  0  0  0  0  0
   -7.1824    1.1039   -0.9322 O   0  0  0  0  0  0  0  0  0  0  0  0
   -7.5276    2.6077    0.8435 C   0  0  0  0  0  0  0  0  0  0  0  0
   -8.1775    3.4344    0.5145 H   0  0  0  0  0  0  0  0  0  0  0  0
   -8.2057    1.8676    1.2980 H   0  0  0  0  0  0  0  0  0  0  0  0
   -6.9411    3.0162    1.6819 H   0  0  0  0  0  0  0  0  0  0  0  0
   -5.4935    2.6382   -0.4627 N   0  0  0  0  0  0  0  0  0  0  0  0
   -4.5619    2.2388   -1.4845 C   0  0  2  0  0  0  0  0  0  0  0  0
   -3.1535    2.4674   -0.9521 C   0  0  0  0  0  0  0  0  0  0  0  0
   -2.8634    3.3945   -0.1987 O   0  0  0  0  0  0  0  0  0  0  0  0
   -4.7883    3.0138   -2.7732 C   0  0  0  0  0  0  0  0  0  0  0  0
   -5.2337    3.4049    0.1551 H   0  0  0  0  0  0  0  0  0  0  0  0
   -4.7192    1.1682   -1.6549 H   0  0  0  0  0  0  0  0  0  0  0  0
   -4.6352    4.0886   -2.6221 H   0  0  0  0  0  0  0  0  0  0  0  0
   -4.0976    2.6887   -3.5582 H   0  0  0  0  0  0  0  0  0  0  0  0
   -5.8111    2.8719   -3.1387 H   0  0  0  0  0  0  0  0  0  0  0  0
   -2.2466    1.5400   -1.4507 N   0  0  0  0  0  0  0  0  0  0  0  0
   -0.8424    1.5707   -1.1286 C   0  0  2  0  0  0  0  0  0  0  0  0
   -0.6038    0.7295    0.1237 C   0  0  0  0  0  0  0  0  0  0  0  0
    0.4414    0.7716    0.7695 O   0  0  0  0  0  0  0  0  0  0  0  0
   -0.3023    2.9982   -1.0128 C   0  0  0  0  0  0  0  0  0  0  0  0
   -0.3451    3.9221   -2.5676 S   0  0  0  0  0  0  0  0  0  0  0  0
   -2.5850    0.7815   -2.0381 H   0  0  0  0  0  0  0  0  0  0  0  0
   -0.3374    1.0708   -1.9644 H   0  0  0  0  0  0  0  0  0  0  0  0
   -0.8784    3.5687   -0.2770 H   0  0  0  0  0  0  0  0  0  0  0  0
    0.7387    2.9769   -0.6728 H   0  0  0  0  0  0  0  0  0  0  0  0
   -1.6840   -0.0898    0.4193 N   0  0  0  0  0  0  0  0  0  0  0  0
   -1.6889   -0.9975    1.5427 C   0  0  2  0  0  0  0  0  0  0  0  0
   -2.5203   -2.2148    1.1601 C   0  0  0  0  0  0  0  0  0  0  0  0
   -3.5078   -2.1505    0.4309 O   0  0  0  0  0  0  0  0  0  0  0  0
   -2.2449   -0.3300    2.7909 C   0  0  0  0  0  0  0  0  0  0  0  0
   -2.5268   -0.0288   -0.1443 H   0  0  0  0  0  0  0  0  0  0  0  0
   -0.6496   -1.3016    1.7081 H   0  0  0  0  0  0  0  0  0  0  0  0
   -3.2855   -0.0184    2.6443 H   0  0  0  0  0  0  0  0  0  0  0  0
   -2.2214   -1.0104    3.6486 H   0  0  0  0  0  0  0  0  0  0  0  0
   -1.6637    0.5623    3.0475 H   0  0  0  0  0  0  0  0  0  0  0  0
   -2.0553   -3.3749    1.7635 N   0  0  0  0  0  0  0  0  0  0  0  0
   -2.7004   -4.6557    1.5916 C   0  0  0  0  0  0  0  0  0  0  0  0
   -1.2062   -3.3429    2.3202 H   0  0  0  0  0  0  0  0  0  0  0  0
   -3.4297   -4.8109    2.4002 H   0  0  0  0  0  0  0  0  0  0  0  0
   -3.2185   -4.6778    0.6215 H   0  0  0  0  0  0  0  0  0  0  0  0
   -1.9442   -5.4540    1.6217 H   0  0  0  0  0  0  0  0  0  0  0  0
  1  3  1  0  0  0  0
  1  7  1  0  0  0  0
  1  2  2  0  0  0  0
 23 25  1  0  0  0  0
 23 29  1  0  0  0  0
 23 24  2  0  0  0  0
 50 51  1  0  0  0  0
 51 59  1  0  0  0  0
 51 52  2  0  0  0  0
  8  9  1  0  0  0  0
  9 17  1  0  0  0  0
  9 10  2  0  0  0  0
 30 31  1  0  0  0  0
 31 39  1  0  0  0  0
 31 32  2  0  0  0  0
 40 41  1  0  0  0  0
 41 49  1  0  0  0  0
 41 42  2  0  0  0  0
 50 53  1  0  0  0  0
 30 33  1  0  0  0  0
 59 60  1  0  0  0  0
 17 18  1  0  0  0  0
  8 11  1  0  0  0  0
 11 12  1  0  0  0  0
 40 43  1  0  0  0  0
 43 44  1  0  0  0  0
 49 50  1  0  0  0  0
  7  8  1  0  0  0  0
 29 30  1  0  0  0  0
 39 40  1  0  0  0  0
 12 44  1  0  0  0  0
  3  4  1  0  0  0  0
  3  5  1  0  0  0  0
  3  6  1  0  0  0  0
 25 26  1  0  0  0  0
 25 27  1  0  0  0  0
 25 28  1  0  0  0  0
 53 56  1  0  0  0  0
 53 57  1  0  0  0  0
 53 58  1  0  0  0  0
 33 36  1  0  0  0  0
 33 37  1  0  0  0  0
 33 38  1  0  0  0  0
 60 62  1  0  0  0  0
 60 63  1  0  0  0  0
 60 64  1  0  0  0  0
 18 20  1  0  0  0  0
 18 21  1  0  0  0  0
 18 22  1  0  0  0  0
 11 15  1  0  0  0  0
 11 16  1  0  0  0  0
 43 47  1  0  0  0  0
 43 48  1  0  0  0  0
 50 55  1  0  0  0  0
  8 14  1  0  0  0  0
 30 35  1  0  0  0  0
 40 46  1  0  0  0  0
 59 61  1  0  0  0  0
 17 19  1  0  0  0  0
  7 13  1  0  0  0  0
 29 34  1  0  0  0  0
 49 54  1  0  0  0  0
 39 45  1  0  0  0  0
M  END
$$$$

  -OEChem-05262214473D

 64 63  0     1  0  0  0  0  0999 V2000
   -0.9946    9.6232   -2.9486 C   0  0  0  0  0  0  0  0  0  0  0  0
   -2.2188    9.6611   -2.9902 O   0  0  0  0  0  0  0  0  0  0  0  0
   -0.2000   10.4177   -3.9313 C   0  0  0  0  0  0  0  0  0  0  0  0
    0.0224    9.8501   -4.8491 H   0  0  0  0  0  0  0  0  0  0  0  0
   -0.7319   11.3214   -4.2695 H   0  0  0  0  0  0  0  0  0  0  0  0
    0.7767   10.7755   -3.5681 H   0  0  0  0  0  0  0  0  0  0  0  0
   -0.2275    8.8971   -2.0541 N   0  0  0  0  0  0  0  0  0  0  0  0
   -0.7916    8.0645   -1.0220 C   0  0  2  0  0  0  0  0  0  0  0  0
    0.1096    8.1248    0.2096 C   0  0  0  0  0  0  0  0  0  0  0  0
    1.1926    8.7065    0.2192 O   0  0  0  0  0  0  0  0  0  0  0  0
   -1.0619    6.6381   -1.5071 C   0  0  0  0  0  0  0  0  0  0  0  0
    0.4411    5.7330   -2.0010 S   0  0  0  0  0  0  0  0  0  0  0  0
    0.7857    8.9542   -2.1290 H   0  0  0  0  0  0  0  0  0  0  0  0
   -1.7477    8.5322   -0.7559 H   0  0  0  0  0  0  0  0  0  0  0  0
   -1.5542    6.0526   -0.7237 H   0  0  0  0  0  0  0  0  0  0  0  0
   -1.7315    6.6594   -2.3737 H   0  0  0  0  0  0  0  0  0  0  0  0
   -0.4262    7.4326    1.2864 N   0  0  0  0  0  0  0  0  0  0  0  0
    0.2512    7.3235    2.5573 C   0  0  0  0  0  0  0  0  0  0  0  0
   -1.3491    7.0166    1.2040 H   0  0  0  0  0  0  0  0  0  0  0  0
    0.8531    6.4030    2.5747 H   0  0  0  0  0  0  0  0  0  0  0  0
    0.9086    8.1941    2.6981 H   0  0  0  0  0  0  0  0  0  0  0  0
   -0.4924    7.2906    3.3673 H   0  0  0  0  0  0  0  0  0  0  0  0
   -6.7256    2.0330   -0.2766 C   0  0  0  0  0  0  0  0  0  0  0  0
   -7.1824    1.1039   -0.9322 O   0  0  0  0  0  0  0  0  0  0  0  0
   -7.5276    2.6077    0.8435 C   0  0  0  0  0  0  0  0  0  0  0  0
   -8.1775    3.4344    0.5145 H   0  0  0  0  0  0  0  0  0  0  0  0
   -8.2057    1.8676    1.2980 H   0  0  0  0  0  0  0  0  0  0  0  0
   -6.9411    3.0162    1.6819 H   0  0  0  0  0  0  0  0  0  0  0  0
   -5.4935    2.6382   -0.4627 N   0  0  0  0  0  0  0  0  0  0  0  0
   -4.5619    2.2388   -1.4845 C   0  0  2  0  0  0  0  0  0  0  0  0
   -3.1535    2.4674   -0.9521 C   0  0  0  0  0  0  0  0  0  0  0  0
   -2.8634    3.3945   -0.1987 O   0  0  0  0  0  0  0  0  0  0  0  0
   -4.7883    3.0138   -2.7732 C   0  0  0  0  0  0  0  0  0  0  0  0
   -5.2337    3.4049    0.1551 H   0  0  0  0  0  0  0  0  0  0  0  0
   -4.7192    1.1682   -1.6549 H   0  0  0  0  0  0  0  0  0  0  0  0
   -4.6352    4.0886   -2.6221 H   0  0  0  0  0  0  0  0  0  0  0  0
   -4.0976    2.6887   -3.5582 H   0  0  0  0  0  0  0  0  0  0  0  0
   -5.8111    2.8719   -3.1387 H   0  0  0  0  0  0  0  0  0  0  0  0
   -2.2466    1.5400   -1.4507 N   0  0  0  0  0  0  0  0  0  0  0  0
   -0.8424    1.5707   -1.1286 C   0  0  2  0  0  0  0  0  0  0  0  0
   -0.6038    0.7295    0.1237 C   0  0  0  0  0  0  0  0  0  0  0  0
    0.3084    0.9533    0.9169 O   0  0  0  0  0  0  0  0  0  0  0  0
   -0.3023    2.9982   -1.0128 C   0  0  0  0  0  0  0  0  0  0  0  0
   -0.3451    3.9221   -2.5676 S   0  0  0  0  0  0  0  0  0  0  0  0
   -2.5850    0.7815   -2.0381 H   0  0  0  0  0  0  0  0  0  0  0  0
   -0.3374    1.0708   -1.9644 H   0  0  0  0  0  0  0  0  0  0  0  0
   -0.8784    3.5687   -0.2770 H   0  0  0  0  0  0  0  0  0  0  0  0
    0.7387    2.9769   -0.6728 H   0  0  0  0  0  0  0  0  0  0  0  0
   -1.5127   -0.3130    0.2368 N   0  0  0  0  0  0  0  0  0  0  0  0
   -1.4774   -1.2628    1.3242 C   0  0  2  0  0  0  0  0  0  0  0  0
   -1.9663   -2.6039    0.7933 C   0  0  0  0  0  0  0  0  0  0  0  0
   -2.8341   -2.7070   -0.0712 O   0  0  0  0  0  0  0  0  0  0  0  0
   -2.3309   -0.7972    2.4935 C   0  0  0  0  0  0  0  0  0  0  0  0
   -2.2627   -0.3983   -0.4428 H   0  0  0  0  0  0  0  0  0  0  0  0
   -0.4300   -1.3514    1.6328 H   0  0  0  0  0  0  0  0  0  0  0  0
   -3.3837   -0.7025    2.2034 H   0  0  0  0  0  0  0  0  0  0  0  0
   -2.2804   -1.5044    3.3280 H   0  0  0  0  0  0  0  0  0  0  0  0
   -1.9965    0.1813    2.8549 H   0  0  0  0  0  0  0  0  0  0  0  0
   -1.3506   -3.6728    1.4292 N   0  0  0  0  0  0  0  0  0  0  0  0
   -1.6749   -5.0485    1.1323 C   0  0  0  0  0  0  0  0  0  0  0  0
   -0.6136   -3.4949    2.1051 H   0  0  0  0  0  0  0  0  0  0  0  0
   -2.4583   -5.3979    1.8209 H   0  0  0  0  0  0  0  0  0  0  0  0
   -2.0370   -5.1244    0.0963 H   0  0  0  0  0  0  0  0  0  0  0  0
   -0.7763   -5.6713    1.2531 H   0  0  0  0  0  0  0  0  0  0  0  0
  1  3  1  0  0  0  0
  1  7  1  0  0  0  0
  1  2  2  0  0  0  0
 23 25  1  0  0  0  0
 23 29  1  0  0  0  0
 23 24  2  0  0  0  0
 50 51  1  0  0  0  0
 51 59  1  0  0  0  0
 51 52  2  0  0  0  0
  8  9  1  0  0  0  0
  9 17  1  0  0  0  0
  9 10  2  0  0  0  0
 30 31  1  0  0  0  0
 31 39  1  0  0  0  0
 31 32  2  0  0  0  0
 40 41  1  0  0  0  0
 41 49  1  0  0  0  0
 41 42  2  0  0  0  0
 50 53  1  0  0  0  0
 30 33  1  0  0  0  0
 59 60  1  0  0  0  0
 17 18  1  0  0  0  0
  8 11  1  0  0  0  0
 11 12  1  0  0  0  0
 40 43  1  0  0  0  0
 43 44  1  0  0  0  0
 49 50  1  0  0  0  0
  7  8  1  0  0  0  0
 29 30  1  0  0  0  0
 39 40  1  0  0  0  0
 12 44  1  0  0  0  0
  3  4  1  0  0  0  0
  3  5  1  0  0  0  0
  3  6  1  0  0  0  0
 25 26  1  0  0  0  0
 25 27  1  0  0  0  0
 25 28  1  0  0  0  0
 53 56  1  0  0  0  0
 53 57  1  0  0  0  0
 53 58  1  0  0  0  0
 33 36  1  0  0  0  0
 33 37  1  0  0  0  0
 33 38  1  0  0  0  0
 60 62  1  0  0  0  0
 60 63  1  0  0  0  0
 60 64  1  0  0  0  0
 18 20  1  0  0  0  0
 18 21  1  0  0  0  0
 18 22  1  0  0  0  0
 11 15  1  0  0  0  0
 11 16  1  0  0  0  0
 43 47  1  0  0  0  0
 43 48  1  0  0  0  0
 50 55  1  0  0  0  0
  8 14  1  0  0  0  0
 30 35  1  0  0  0  0
 40 46  1  0  0  0  0
 59 61  1  0  0  0  0
 17 19  1  0  0  0  0
  7 13  1  0  0  0  0
 29 34  1  0  0  0  0
 49 54  1  0  0  0  0
 39 45  1  0  0  0  0
M  END
$$$$

  -OEChem-05262214473D

 64 63  0     1  0  0  0  0  0999 V2000
   -0.9946    9.6232   -2.9486 C   0  0  0  0  0  0  0  0  0  0  0  0
   -2.2188    9.6611   -2.9902 O   0  0  0  0  0  0  0  0  0  0  0  0
   -0.2000   10.4177   -3.9313 C   0  0  0  0  0  0  0  0  0  0  0  0
    0.0224    9.8501   -4.8491 H   0  0  0  0  0  0  0  0  0  0  0  0
   -0.7319   11.3214   -4.2695 H   0  0  0  0  0  0  0  0  0  0  0  0
    0.7767   10.7755   -3.5681 H   0  0  0  0  0  0  0  0  0  0  0  0
   -0.2275    8.8971   -2.0541 N   0  0  0  0  0  0  0  0  0  0  0  0
   -0.7916    8.0645   -1.0220 C   0  0  2  0  0  0  0  0  0  0  0  0
    0.1096    8.1248    0.2096 C   0  0  0  0  0  0  0  0  0  0  0  0
    1.1926    8.7065    0.2192 O   0  0  0  0  0  0  0  0  0  0  0  0
   -1.0619    6.6381   -1.5071 C   0  0  0  0  0  0  0  0  0  0  0  0
    0.4411    5.7330   -2.0010 S   0  0  0  0  0  0  0  0  0  0  0  0
    0.7857    8.9542   -2.1290 H   0  0  0  0  0  0  0  0  0  0  0  0
   -1.7477    8.5322   -0.7559 H   0  0  0  0  0  0  0  0  0  0  0  0
   -1.5542    6.0526   -0.7237 H   0  0  0  0  0  0  0  0  0  0  0  0
   -1.7315    6.6594   -2.3737 H   0  0  0  0  0  0  0  0  0  0  0  0
   -0.4262    7.4326    1.2864 N   0  0  0  0  0  0  0  0  0  0  0  0
    0.2512    7.3235    2.5573 C   0  0  0  0  0  0  0  0  0  0  0  0
   -1.3491    7.0166    1.2040 H   0  0  0  0  0  0  0  0  0  0  0  0
    0.8531    6.4030    2.5747 H   0  0  0  0  0  0  0  0  0  0  0  0
    0.9086    8.1941    2.6981 H   0  0  0  0  0  0  0  0  0  0  0  0
   -0.4924    7.2906    3.3673 H   0  0  0  0  0  0  0  0  0  0  0  0
   -6.7256    2.0330   -0.2766 C   0  0  0  0  0  0  0  0  0  0  0  0
   -7.1824    1.1039   -0.9322 O   0  0  0  0  0  0  0  0  0  0  0  0
   -7.5276    2.6077    0.8435 C   0  0  0  0  0  0  0  0  0  0  0  0
   -8.1775    3.4344    0.5145 H   0  0  0  0  0  0  0  0  0  0  0  0
   -8.2057    1.8676    1.2980 H   0  0  0  0  0  0  0  0  0  0  0  0
   -6.9411    3.0162    1.6819 H   0  0  0  0  0  0  0  0  0  0  0  0
   -5.4935    2.6382   -0.4627 N   0  0  0  0  0  0  0  0  0  0  0  0
   -4.5619    2.2388   -1.4845 C   0  0  2  0  0  0  0  0  0  0  0  0
   -3.1535    2.4674   -0.9521 C   0  0  0  0  0  0  0  0  0  0  0  0
   -2.8634    3.3945   -0.1987 O   0  0  0  0  0  0  0  0  0  0  0  0
   -4.7883    3.0138   -2.7732 C   0  0  0  0  0  0  0  0  0  0  0  0
   -5.2337    3.4049    0.1551 H   0  0  0  0  0  0  0  0  0  0  0  0
   -4.7192    1.1682   -1.6549 H   0  0  0  0  0  0  0  0  0  0  0  0
   -4.6352    4.0886   -2.6221 H   0  0  0  0  0  0  0  0  0  0  0  0
   -4.0976    2.6887   -3.5582 H   0  0  0  0  0  0  0  0  0  0  0  0
   -5.8111    2.8719   -3.1387 H   0  0  0  0  0  0  0  0  0  0  0  0
   -2.2466    1.5400   -1.4507 N   0  0  0  0  0  0  0  0  0  0  0  0
   -0.8424    1.5707   -1.1286 C   0  0  2  0  0  0  0  0  0  0  0  0
   -0.6038    0.7295    0.1237 C   0  0  0  0  0  0  0  0  0  0  0  0
    0.1203    1.0946    1.0477 O   0  0  0  0  0  0  0  0  0  0  0  0
   -0.3023    2.9982   -1.0128 C   0  0  0  0  0  0  0  0  0  0  0  0
   -0.3451    3.9221   -2.5676 S   0  0  0  0  0  0  0  0  0  0  0  0
   -2.5850    0.7815   -2.0381 H   0  0  0  0  0  0  0  0  0  0  0  0
   -0.3374    1.0708   -1.9644 H   0  0  0  0  0  0  0  0  0  0  0  0
   -0.8784    3.5687   -0.2770 H   0  0  0  0  0  0  0  0  0  0  0  0
    0.7387    2.9769   -0.6728 H   0  0  0  0  0  0  0  0  0  0  0  0
   -1.2738   -0.4847    0.0759 N   0  0  0  0  0  0  0  0  0  0  0  0
   -1.1856   -1.4653    1.1325 C   0  0  2  0  0  0  0  0  0  0  0  0
   -1.2964   -2.8473    0.5021 C   0  0  0  0  0  0  0  0  0  0  0  0
   -1.9937   -3.0813   -0.4828 O   0  0  0  0  0  0  0  0  0  0  0  0
   -2.2725   -1.2547    2.1751 C   0  0  0  0  0  0  0  0  0  0  0  0
   -1.8866   -0.6871   -0.7085 H   0  0  0  0  0  0  0  0  0  0  0  0
   -0.1966   -1.3499    1.5893 H   0  0  0  0  0  0  0  0  0  0  0  0
   -3.2706   -1.3664    1.7359 H   0  0  0  0  0  0  0  0  0  0  0  0
   -2.1868   -1.9811    2.9900 H   0  0  0  0  0  0  0  0  0  0  0  0
   -2.2097   -0.2496    2.6061 H   0  0  0  0  0  0  0  0  0  0  0  0
   -0.5590   -3.7974    1.1946 N   0  0  0  0  0  0  0  0  0  0  0  0
   -0.5356   -5.1918    0.8189 C   0  0  0  0  0  0  0  0  0  0  0  0
    0.0218   -3.5072    1.9758 H   0  0  0  0  0  0  0  0  0  0  0  0
   -1.3130   -5.7353    1.3760 H   0  0  0  0  0  0  0  0  0  0  0  0
   -0.7262   -5.2838   -0.2605 H   0  0  0  0  0  0  0  0  0  0  0  0
    0.4505   -5.6185    1.0549 H   0  0  0  0  0  0  0  0  0  0  0  0
  1  3  1  0  0  0  0
  1  7  1  0  0  0  0
  1  2  2  0  0  0  0
 23 25  1  0  0  0  0
 23 29  1  0  0  0  0
 23 24  2  0  0  0  0
 50 51  1  0  0  0  0
 51 59  1  0  0  0  0
 51 52  2  0  0  0  0
  8  9  1  0  0  0  0
  9 17  1  0  0  0  0
  9 10  2  0  0  0  0
 30 31  1  0  0  0  0
 31 39  1  0  0  0  0
 31 32  2  0  0  0  0
 40 41  1  0  0  0  0
 41 49  1  0  0  0  0
 41 42  2  0  0  0  0
 50 53  1  0  0  0  0
 30 33  1  0  0  0  0
 59 60  1  0  0  0  0
 17 18  1  0  0  0  0
  8 11  1  0  0  0  0
 11 12  1  0  0  0  0
 40 43  1  0  0  0  0
 43 44  1  0  0  0  0
 49 50  1  0  0  0  0
  7  8  1  0  0  0  0
 29 30  1  0  0  0  0
 39 40  1  0  0  0  0
 12 44  1  0  0  0  0
  3  4  1  0  0  0  0
  3  5  1  0  0  0  0
  3  6  1  0  0  0  0
 25 26  1  0  0  0  0
 25 27  1  0  0  0  0
 25 28  1  0  0  0  0
 53 56  1  0  0  0  0
 53 57  1  0  0  0  0
 53 58  1  0  0  0  0
 33 36  1  0  0  0  0
 33 37  1  0  0  0  0
 33 38  1  0  0  0  0
 60 62  1  0  0  0  0
 60 63  1  0  0  0  0
 60 64  1  0  0  0  0
 18 20  1  0  0  0  0
 18 21  1  0  0  0  0
 18 22  1  0  0  0  0
 11 15  1  0  0  0  0
 11 16  1  0  0  0  0
 43 47  1  0  0  0  0
 43 48  1  0  0  0  0
 50 55  1  0  0  0  0
  8 14  1  0  0  0  0
 30 35  1  0  0  0  0
 40 46  1  0  0  0  0
 59 61  1  0  0  0  0
 17 19  1  0  0  0  0
  7 13  1  0  0  0  0
 29 34  1  0  0  0  0
 49 54  1  0  0  0  0
 39 45  1  0  0  0  0
M  END
$$$$

  -OEChem-05262214473D

 64 63  0     1  0  0  0  0  0999 V2000
   -0.9946    9.6232   -2.9486 C   0  0  0  0  0  0  0  0  0  0  0  0
   -2.2188    9.6611   -2.9902 O   0  0  0  0  0  0  0  0  0  0  0  0
   -0.2000   10.4177   -3.9313 C   0  0  0  0  0  0  0  0  0  0  0  0
    0.0224    9.8501   -4.8491 H   0  0  0  0  0  0  0  0  0  0  0  0
   -0.7319   11.3214   -4.2695 H   0  0  0  0  0  0  0  0  0  0  0  0
    0.7767   10.7755   -3.5681 H   0  0  0  0  0  0  0  0  0  0  0  0
   -0.2275    8.8971   -2.0541 N   0  0  0  0  0  0  0  0  0  0  0  0
   -0.7916    8.0645   -1.0220 C   0  0  2  0  0  0  0  0  0  0  0  0
    0.1096    8.1248    0.2096 C   0  0  0  0  0  0  0  0  0  0  0  0
    1.1926    8.7065    0.2192 O   0  0  0  0  0  0  0  0  0  0  0  0
   -1.0619    6.6381   -1.5071 C   0  0  0  0  0  0  0  0  0  0  0  0
    0.4411    5.7330   -2.0010 S   0  0  0  0  0  0  0  0  0  0  0  0
    0.7857    8.9542   -2.1290 H   0  0  0  0  0  0  0  0  0  0  0  0
   -1.7477    8.5322   -0.7559 H   0  0  0  0  0  0  0  0  0  0  0  0
   -1.5542    6.0526   -0.7237 H   0  0  0  0  0  0  0  0  0  0  0  0
   -1.7315    6.6594   -2.3737 H   0  0  0  0  0  0  0  0  0  0  0  0
   -0.4262    7.4326    1.2864 N   0  0  0  0  0  0  0  0  0  0  0  0
    0.2512    7.3235    2.5573 C   0  0  0  0  0  0  0  0  0  0  0  0
   -1.3491    7.0166    1.2040 H   0  0  0  0  0  0  0  0  0  0  0  0
    0.8531    6.4030    2.5747 H   0  0  0  0  0  0  0  0  0  0  0  0
    0.9086    8.1941    2.6981 H   0  0  0  0  0  0  0  0  0  0  0  0
   -0.4924    7.2906    3.3673 H   0  0  0  0  0  0  0  0  0  0  0  0
   -6.7256    2.0330   -0.2766 C   0  0  0  0  0  0  0  0  0  0  0  0
   -7.1824    1.1039   -0.9322 O   0  0  0  0  0  0  0  0  0  0  0  0
   -7.5276    2.6077    0.8435 C   0  0  0  0  0  0  0  0  0  0  0  0
   -8.1775    3.4344    0.5145 H   0  0  0  0  0  0  0  0  0  0  0  0
   -8.2057    1.8676    1.2980 H   0  0  0  0  0  0  0  0  0  0  0  0
   -6.9411    3.0162    1.6819 H   0  0  0  0  0  0  0  0  0  0  0  0
   -5.4935    2.6382   -0.4627 N   0  0  0  0  0  0  0  0  0  0  0  0
   -4.5619    2.2388   -1.4845 C   0  0  2  0  0  0  0  0  0  0  0  0
   -3.1535    2.4674   -0.9521 C   0  0  0  0  0  0  0  0  0  0  0  0
   -2.8634    3.3945   -0.1987 O   0  0  0  0  0  0  0  0  0  0  0  0
   -4.7883    3.0138   -2.7732 C   0  0  0  0  0  0  0  0  0  0  0  0
   -5.2337    3.4049    0.1551 H   0  0  0  0  0  0  0  0  0  0  0  0
   -4.7192    1.1682   -1.6549 H   0  0  0  0  0  0  0  0  0  0  0  0
   -4.6352    4.0886   -2.6221 H   0  0  0  0  0  0  0  0  0  0  0  0
   -4.0976    2.6887   -3.5582 H   0  0  0  0  0  0  0  0  0  0  0  0
   -5.8111    2.8719   -3.1387 H   0  0  0  0  0  0  0  0  0  0  0  0
   -2.2466    1.5400   -1.4507 N   0  0  0  0  0  0  0  0  0  0  0  0
   -0.8424    1.5707   -1.1286 C   0  0  2  0  0  0  0  0  0  0  0  0
   -0.6038    0.7295    0.1237 C   0  0  0  0  0  0  0  0  0  0  0  0
   -0.1100    1.1859    1.1529 O   0  0  0  0  0  0  0  0  0  0  0  0
   -0.3023    2.9982   -1.0128 C   0  0  0  0  0  0  0  0  0  0  0  0
   -0.3451    3.9221   -2.5676 S   0  0  0  0  0  0  0  0  0  0  0  0
   -2.5850    0.7815   -2.0381 H   0  0  0  0  0  0  0  0  0  0  0  0
   -0.3374    1.0708   -1.9644 H   0  0  0  0  0  0  0  0  0  0  0  0
   -0.8784    3.5687   -0.2770 H   0  0  0  0  0  0  0  0  0  0  0  0
    0.7387    2.9769   -0.6728 H   0  0  0  0  0  0  0  0  0  0  0  0
   -0.9837   -0.5934   -0.0524 N   0  0  0  0  0  0  0  0  0  0  0  0
   -0.8334   -1.5913    0.9808 C   0  0  2  0  0  0  0  0  0  0  0  0
   -0.5562   -2.9284    0.3066 C   0  0  0  0  0  0  0  0  0  0  0  0
   -1.0438   -3.2478   -0.7757 O   0  0  0  0  0  0  0  0  0  0  0  0
   -2.0736   -1.6713    1.8573 C   0  0  0  0  0  0  0  0  0  0  0  0
   -1.4242   -0.8754   -0.9231 H   0  0  0  0  0  0  0  0  0  0  0  0
    0.0347   -1.2971    1.5807 H   0  0  0  0  0  0  0  0  0  0  0  0
   -2.9538   -1.9647    1.2737 H   0  0  0  0  0  0  0  0  0  0  0  0
   -1.9471   -2.4080    2.6575 H   0  0  0  0  0  0  0  0  0  0  0  0
   -2.2886   -0.7010    2.3179 H   0  0  0  0  0  0  0  0  0  0  0  0
    0.2655   -3.7404    1.0759 N   0  0  0  0  0  0  0  0  0  0  0  0
    0.6400   -5.0758    0.6729 C   0  0  0  0  0  0  0  0  0  0  0  0
    0.6566   -3.3791    1.9409 H   0  0  0  0  0  0  0  0  0  0  0  0
   -0.0716   -5.8001    1.0960 H   0  0  0  0  0  0  0  0  0  0  0  0
    0.6247   -5.1453   -0.4248 H   0  0  0  0  0  0  0  0  0  0  0  0
    1.6525   -5.2991    1.0404 H   0  0  0  0  0  0  0  0  0  0  0  0
  1  3  1  0  0  0  0
  1  7  1  0  0  0  0
  1  2  2  0  0  0  0
 23 25  1  0  0  0  0
 23 29  1  0  0  0  0
 23 24  2  0  0  0  0
 50 51  1  0  0  0  0
 51 59  1  0  0  0  0
 51 52  2  0  0  0  0
  8  9  1  0  0  0  0
  9 17  1  0  0  0  0
  9 10  2  0  0  0  0
 30 31  1  0  0  0  0
 31 39  1  0  0  0  0
 31 32  2  0  0  0  0
 40 41  1  0  0  0  0
 41 49  1  0  0  0  0
 41 42  2  0  0  0  0
 50 53  1  0  0  0  0
 30 33  1  0  0  0  0
 59 60  1  0  0  0  0
 17 18  1  0  0  0  0
  8 11  1  0  0  0  0
 11 12  1  0  0  0  0
 40 43  1  0  0  0  0
 43 44  1  0  0  0  0
 49 50  1  0  0  0  0
  7  8  1  0  0  0  0
 29 30  1  0  0  0  0
 39 40  1  0  0  0  0
 12 44  1  0  0  0  0
  3  4  1  0  0  0  0
  3  5  1  0  0  0  0
  3  6  1  0  0  0  0
 25 26  1  0  0  0  0
 25 27  1  0  0  0  0
 25 28  1  0  0  0  0
 53 56  1  0  0  0  0
 53 57  1  0  0  0  0
 53 58  1  0  0  0  0
 33 36  1  0  0  0  0
 33 37  1  0  0  0  0
 33 38  1  0  0  0  0
 60 62  1  0  0  0  0
 60 63  1  0  0  0  0
 60 64  1  0  0  0  0
 18 20  1  0  0  0  0
 18 21  1  0  0  0  0
 18 22  1  0  0  0  0
 11 15  1  0  0  0  0
 11 16  1  0  0  0  0
 43 47  1  0  0  0  0
 43 48  1  0  0  0  0
 50 55  1  0  0  0  0
  8 14  1  0  0  0  0
 30 35  1  0  0  0  0
 40 46  1  0  0  0  0
 59 61  1  0  0  0  0
 17 19  1  0  0  0  0
  7 13  1  0  0  0  0
 29 34  1  0  0  0  0
 49 54  1  0  0  0  0
 39 45  1  0  0  0  0
M  END
$$$$

  -OEChem-05262214473D

 64 63  0     1  0  0  0  0  0999 V2000
   -0.9946    9.6232   -2.9486 C   0  0  0  0  0  0  0  0  0  0  0  0
   -2.2188    9.6611   -2.9902 O   0  0  0  0  0  0  0  0  0  0  0  0
   -0.2000   10.4177   -3.9313 C   0  0  0  0  0  0  0  0  0  0  0  0
    0.0224    9.8501   -4.8491 H   0  0  0  0  0  0  0  0  0  0  0  0
   -0.7319   11.3214   -4.2695 H   0  0  0  0  0  0  0  0  0  0  0  0
    0.7767   10.7755   -3.5681 H   0  0  0  0  0  0  0  0  0  0  0  0
   -0.2275    8.8971   -2.0541 N   0  0  0  0  0  0  0  0  0  0  0  0
   -0.7916    8.0645   -1.0220 C   0  0  2  0  0  0  0  0  0  0  0  0
    0.1096    8.1248    0.2096 C   0  0  0  0  0  0  0  0  0  0  0  0
    1.1926    8.7065    0.2192 O   0  0  0  0  0  0  0  0  0  0  0  0
   -1.0619    6.6381   -1.5071 C   0  0  0  0  0  0  0  0  0  0  0  0
    0.4411    5.7330   -2.0010 S   0  0  0  0  0  0  0  0  0  0  0  0
    0.7857    8.9542   -2.1290 H   0  0  0  0  0  0  0  0  0  0  0  0
   -1.7477    8.5322   -0.7559 H   0  0  0  0  0  0  0  0  0  0  0  0
   -1.5542    6.0526   -0.7237 H   0  0  0  0  0  0  0  0  0  0  0  0
   -1.7315    6.6594   -2.3737 H   0  0  0  0  0  0  0  0  0  0  0  0
   -0.4262    7.4326    1.2864 N   0  0  0  0  0  0  0  0  0  0  0  0
    0.2512    7.3235    2.5573 C   0  0  0  0  0  0  0  0  0  0  0  0
   -1.3491    7.0166    1.2040 H   0  0  0  0  0  0  0  0  0  0  0  0
    0.8531    6.4030    2.5747 H   0  0  0  0  0  0  0  0  0  0  0  0
    0.9086    8.1941    2.6981 H   0  0  0  0  0  0  0  0  0  0  0  0
   -0.4924    7.2906    3.3673 H   0  0  0  0  0  0  0  0  0  0  0  0
   -6.7256    2.0330   -0.2766 C   0  0  0  0  0  0  0  0  0  0  0  0
   -7.1824    1.1039   -0.9322 O   0  0  0  0  0  0  0  0  0  0  0  0
   -7.5276    2.6077    0.8435 C   0  0  0  0  0  0  0  0  0  0  0  0
   -8.1775    3.4344    0.5145 H   0  0  0  0  0  0  0  0  0  0  0  0
   -8.2057    1.8676    1.2980 H   0  0  0  0  0  0  0  0  0  0  0  0
   -6.9411    3.0162    1.6819 H   0  0  0  0  0  0  0  0  0  0  0  0
   -5.4935    2.6382   -0.4627 N   0  0  0  0  0  0  0  0  0  0  0  0
   -4.5619    2.2388   -1.4845 C   0  0  2  0  0  0  0  0  0  0  0  0
   -3.1535    2.4674   -0.9521 C   0  0  0  0  0  0  0  0  0  0  0  0
   -2.8634    3.3945   -0.1987 O   0  0  0  0  0  0  0  0  0  0  0  0
   -4.7883    3.0138   -2.7732 C   0  0  0  0  0  0  0  0  0  0  0  0
   -5.2337    3.4049    0.1551 H   0  0  0  0  0  0  0  0  0  0  0  0
   -4.7192    1.1682   -1.6549 H   0  0  0  0  0  0  0  0  0  0  0  0
   -4.6352    4.0886   -2.6221 H   0  0  0  0  0  0  0  0  0  0  0  0
   -4.0976    2.6887   -3.5582 H   0  0  0  0  0  0  0  0  0  0  0  0
   -5.8111    2.8719   -3.1387 H   0  0  0  0  0  0  0  0  0  0  0  0
   -2.2466    1.5400   -1.4507 N   0  0  0  0  0  0  0  0  0  0  0  0
   -0.8424    1.5707   -1.1286 C   0  0  2  0  0  0  0  0  0  0  0  0
   -0.6038    0.7295    0.1237 C   0  0  0  0  0  0  0  0  0  0  0  0
   -0.3669    1.2210    1.2254 O   0  0  0  0  0  0  0  0  0  0  0  0
   -0.3023    2.9982   -1.0128 C   0  0  0  0  0  0  0  0  0  0  0  0
   -0.3451    3.9221   -2.5676 S   0  0  0  0  0  0  0  0  0  0  0  0
   -2.5850    0.7815   -2.0381 H   0  0  0  0  0  0  0  0  0  0  0  0
   -0.3374    1.0708   -1.9644 H   0  0  0  0  0  0  0  0  0  0  0  0
   -0.8784    3.5687   -0.2770 H   0  0  0  0  0  0  0  0  0  0  0  0
    0.7387    2.9769   -0.6728 H   0  0  0  0  0  0  0  0  0  0  0  0
   -0.6621   -0.6317   -0.1394 N   0  0  0  0  0  0  0  0  0  0  0  0
   -0.4449   -1.6321    0.8794 C   0  0  2  0  0  0  0  0  0  0  0  0
    0.2040   -2.8418    0.2199 C   0  0  0  0  0  0  0  0  0  0  0  0
   -0.0492   -3.1953   -0.9299 O   0  0  0  0  0  0  0  0  0  0  0  0
   -1.7478   -2.0187    1.5619 C   0  0  0  0  0  0  0  0  0  0  0  0
   -0.9070   -0.9506   -1.0721 H   0  0  0  0  0  0  0  0  0  0  0  0
    0.2481   -1.1967    1.6075 H   0  0  0  0  0  0  0  0  0  0  0  0
   -2.4550   -2.4568    0.8481 H   0  0  0  0  0  0  0  0  0  0  0  0
   -1.5776   -2.7561    2.3533 H   0  0  0  0  0  0  0  0  0  0  0  0
   -2.2281   -1.1422    2.0101 H   0  0  0  0  0  0  0  0  0  0  0  0
    1.0667   -3.5055    1.0810 N   0  0  0  0  0  0  0  0  0  0  0  0
    1.7717   -4.7083    0.7041 C   0  0  0  0  0  0  0  0  0  0  0  0
    1.2475   -3.1192    2.0029 H   0  0  0  0  0  0  0  0  0  0  0  0
    1.1812   -5.5880    0.9998 H   0  0  0  0  0  0  0  0  0  0  0  0
    1.9236   -4.7181   -0.3853 H   0  0  0  0  0  0  0  0  0  0  0  0
    2.7478   -4.7350    1.2106 H   0  0  0  0  0  0  0  0  0  0  0  0
  1  3  1  0  0  0  0
  1  7  1  0  0  0  0
  1  2  2  0  0  0  0
 23 25  1  0  0  0  0
 23 29  1  0  0  0  0
 23 24  2  0  0  0  0
 50 51  1  0  0  0  0
 51 59  1  0  0  0  0
 51 52  2  0  0  0  0
  8  9  1  0  0  0  0
  9 17  1  0  0  0  0
  9 10  2  0  0  0  0
 30 31  1  0  0  0  0
 31 39  1  0  0  0  0
 31 32  2  0  0  0  0
 40 41  1  0  0  0  0
 41 49  1  0  0  0  0
 41 42  2  0  0  0  0
 50 53  1  0  0  0  0
 30 33  1  0  0  0  0
 59 60  1  0  0  0  0
 17 18  1  0  0  0  0
  8 11  1  0  0  0  0
 11 12  1  0  0  0  0
 40 43  1  0  0  0  0
 43 44  1  0  0  0  0
 49 50  1  0  0  0  0
  7  8  1  0  0  0  0
 29 30  1  0  0  0  0
 39 40  1  0  0  0  0
 12 44  1  0  0  0  0
  3  4  1  0  0  0  0
  3  5  1  0  0  0  0
  3  6  1  0  0  0  0
 25 26  1  0  0  0  0
 25 27  1  0  0  0  0
 25 28  1  0  0  0  0
 53 56  1  0  0  0  0
 53 57  1  0  0  0  0
 53 58  1  0  0  0  0
 33 36  1  0  0  0  0
 33 37  1  0  0  0  0
 33 38  1  0  0  0  0
 60 62  1  0  0  0  0
 60 63  1  0  0  0  0
 60 64  1  0  0  0  0
 18 20  1  0  0  0  0
 18 21  1  0  0  0  0
 18 22  1  0  0  0  0
 11 15  1  0  0  0  0
 11 16  1  0  0  0  0
 43 47  1  0  0  0  0
 43 48  1  0  0  0  0
 50 55  1  0  0  0  0
  8 14  1  0  0  0  0
 30 35  1  0  0  0  0
 40 46  1  0  0  0  0
 59 61  1  0  0  0  0
 17 19  1  0  0  0  0
  7 13  1  0  0  0  0
 29 34  1  0  0  0  0
 49 54  1  0  0  0  0
 39 45  1  0  0  0  0
M  END
$$$$

  -OEChem-05262214473D

 64 63  0     1  0  0  0  0  0999 V2000
   -0.9946    9.6232   -2.9486 C   0  0  0  0  0  0  0  0  0  0  0  0
   -2.2188    9.6611   -2.9902 O   0  0  0  0  0  0  0  0  0  0  0  0
   -0.2000   10.4177   -3.9313 C   0  0  0  0  0  0  0  0  0  0  0  0
    0.0224    9.8501   -4.8491 H   0  0  0  0  0  0  0  0  0  0  0  0
   -0.7319   11.3214   -4.2695 H   0  0  0  0  0  0  0  0  0  0  0  0
    0.7767   10.7755   -3.5681 H   0  0  0  0  0  0  0  0  0  0  0  0
   -0.2275    8.8971   -2.0541 N   0  0  0  0  0  0  0  0  0  0  0  0
   -0.7916    8.0645   -1.0220 C   0  0  2  0  0  0  0  0  0  0  0  0
    0.1096    8.1248    0.2096 C   0  0  0  0  0  0  0  0  0  0  0  0
    1.1926    8.7065    0.2192 O   0  0  0  0  0  0  0  0  0  0  0  0
   -1.0619    6.6381   -1.5071 C   0  0  0  0  0  0  0  0  0  0  0  0
    0.4411    5.7330   -2.0010 S   0  0  0  0  0  0  0  0  0  0  0  0
    0.7857    8.9542   -2.1290 H   0  0  0  0  0  0  0  0  0  0  0  0
   -1.7477    8.5322   -0.7559 H   0  0  0  0  0  0  0  0  0  0  0  0
   -1.5542    6.0526   -0.7237 H   0  0  0  0  0  0  0  0  0  0  0  0
   -1.7315    6.6594   -2.3737 H   0  0  0  0  0  0  0  0  0  0  0  0
   -0.4262    7.4326    1.2864 N   0  0  0  0  0  0  0  0  0  0  0  0
    0.2512    7.3235    2.5573 C   0  0  0  0  0  0  0  0  0  0  0  0
   -1.3491    7.0166    1.2040 H   0  0  0  0  0  0  0  0  0  0  0  0
    0.8531    6.4030    2.5747 H   0  0  0  0  0  0  0  0  0  0  0  0
    0.9086    8.1941    2.6981 H   0  0  0  0  0  0  0  0  0  0  0  0
   -0.4924    7.2906    3.3673 H   0  0  0  0  0  0  0  0  0  0  0  0
   -6.7256    2.0330   -0.2766 C   0  0  0  0  0  0  0  0  0  0  0  0
   -7.1824    1.1039   -0.9322 O   0  0  0  0  0  0  0  0  0  0  0  0
   -7.5276    2.6077    0.8435 C   0  0  0  0  0  0  0  0  0  0  0  0
   -8.1775    3.4344    0.5145 H   0  0  0  0  0  0  0  0  0  0  0  0
   -8.2057    1.8676    1.2980 H   0  0  0  0  0  0  0  0  0  0  0  0
   -6.9411    3.0162    1.6819 H   0  0  0  0  0  0  0  0  0  0  0  0
   -5.4935    2.6382   -0.4627 N   0  0  0  0  0  0  0  0  0  0  0  0
   -4.5619    2.2388   -1.4845 C   0  0  2  0  0  0  0  0  0  0  0  0
   -3.1535    2.4674   -0.9521 C   0  0  0  0  0  0  0  0  0  0  0  0
   -2.8634    3.3945   -0.1987 O   0  0  0  0  0  0  0  0  0  0  0  0
   -4.7883    3.0138   -2.7732 C   0  0  0  0  0  0  0  0  0  0  0  0
   -5.2337    3.4049    0.1551 H   0  0  0  0  0  0  0  0  0  0  0  0
   -4.7192    1.1682   -1.6549 H   0  0  0  0  0  0  0  0  0  0  0  0
   -4.6352    4.0886   -2.6221 H   0  0  0  0  0  0  0  0  0  0  0  0
   -4.0976    2.6887   -3.5582 H   0  0  0  0  0  0  0  0  0  0  0  0
   -5.8111    2.8719   -3.1387 H   0  0  0  0  0  0  0  0  0  0  0  0
   -2.2466    1.5400   -1.4507 N   0  0  0  0  0  0  0  0  0  0  0  0
   -0.8424    1.5707   -1.1286 C   0  0  2  0  0  0  0  0  0  0  0  0
   -0.6038    0.7295    0.1237 C   0  0  0  0  0  0  0  0  0  0  0  0
   -0.6327    1.1974    1.2602 O   0  0  0  0  0  0  0  0  0  0  0  0
   -0.3023    2.9982   -1.0128 C   0  0  0  0  0  0  0  0  0  0  0  0
   -0.3451    3.9221   -2.5676 S   0  0  0  0  0  0  0  0  0  0  0  0
   -2.5850    0.7815   -2.0381 H   0  0  0  0  0  0  0  0  0  0  0  0
   -0.3374    1.0708   -1.9644 H   0  0  0  0  0  0  0  0  0  0  0  0
   -0.8784    3.5687   -0.2770 H   0  0  0  0  0  0  0  0  0  0  0  0
    0.7387    2.9769   -0.6728 H   0  0  0  0  0  0  0  0  0  0  0  0
   -0.3310   -0.5969   -0.1791 N   0  0  0  0  0  0  0  0  0  0  0  0
   -0.0466   -1.5849    0.8352 C   0  0  2  0  0  0  0  0  0  0  0  0
    0.9322   -2.5934    0.2481 C   0  0  0  0  0  0  0  0  0  0  0  0
    0.9223   -2.9273   -0.9349 O   0  0  0  0  0  0  0  0  0  0  0  0
   -1.3173   -2.2731    1.3089 C   0  0  0  0  0  0  0  0  0  0  0  0
   -0.3702   -0.9074   -1.1454 H   0  0  0  0  0  0  0  0  0  0  0  0
    0.4292   -1.0555    1.6678 H   0  0  0  0  0  0  0  0  0  0  0  0
   -1.8080   -2.8090    0.4883 H   0  0  0  0  0  0  0  0  0  0  0  0
   -1.1034   -3.0016    2.0980 H   0  0  0  0  0  0  0  0  0  0  0  0
   -2.0321   -1.5429    1.7035 H   0  0  0  0  0  0  0  0  0  0  0  0
    1.7900   -3.1088    1.2096 N   0  0  0  0  0  0  0  0  0  0  0  0
    2.7825   -4.1145    0.9104 C   0  0  0  0  0  0  0  0  0  0  0  0
    1.7543   -2.7453    2.1575 H   0  0  0  0  0  0  0  0  0  0  0  0
    2.3600   -5.1134    1.0940 H   0  0  0  0  0  0  0  0  0  0  0  0
    3.0819   -4.0314   -0.1448 H   0  0  0  0  0  0  0  0  0  0  0  0
    3.6618   -3.9645    1.5540 H   0  0  0  0  0  0  0  0  0  0  0  0
  1  3  1  0  0  0  0
  1  7  1  0  0  0  0
  1  2  2  0  0  0  0
 23 25  1  0  0  0  0
 23 29  1  0  0  0  0
 23 24  2  0  0  0  0
 50 51  1  0  0  0  0
 51 59  1  0  0  0  0
 51 52  2  0  0  0  0
  8  9  1  0  0  0  0
  9 17  1  0  0  0  0
  9 10  2  0  0  0  0
 30 31  1  0  0  0  0
 31 39  1  0  0  0  0
 31 32  2  0  0  0  0
 40 41  1  0  0  0  0
 41 49  1  0  0  0  0
 41 42  2  0  0  0  0
 50 53  1  0  0  0  0
 30 33  1  0  0  0  0
 59 60  1  0  0  0  0
 17 18  1  0  0  0  0
  8 11  1  0  0  0  0
 11 12  1  0  0  0  0
 40 43  1  0  0  0  0
 43 44  1  0  0  0  0
 49 50  1  0  0  0  0
  7  8  1  0  0  0  0
 29 30  1  0  0  0  0
 39 40  1  0  0  0  0
 12 44  1  0  0  0  0
  3  4  1  0  0  0  0
  3  5  1  0  0  0  0
  3  6  1  0  0  0  0
 25 26  1  0  0  0  0
 25 27  1  0  0  0  0
 25 28  1  0  0  0  0
 53 56  1  0  0  0  0
 53 57  1  0  0  0  0
 53 58  1  0  0  0  0
 33 36  1  0  0  0  0
 33 37  1  0  0  0  0
 33 38  1  0  0  0  0
 60 62  1  0  0  0  0
 60 63  1  0  0  0  0
 60 64  1  0  0  0  0
 18 20  1  0  0  0  0
 18 21  1  0  0  0  0
 18 22  1  0  0  0  0
 11 15  1  0  0  0  0
 11 16  1  0  0  0  0
 43 47  1  0  0  0  0
 43 48  1  0  0  0  0
 50 55  1  0  0  0  0
  8 14  1  0  0  0  0
 30 35  1  0  0  0  0
 40 46  1  0  0  0  0
 59 61  1  0  0  0  0
 17 19  1  0  0  0  0
  7 13  1  0  0  0  0
 29 34  1  0  0  0  0
 49 54  1  0  0  0  0
 39 45  1  0  0  0  0
M  END
$$$$

  -OEChem-05262214473D

 64 63  0     1  0  0  0  0  0999 V2000
   -0.9946    9.6232   -2.9486 C   0  0  0  0  0  0  0  0  0  0  0  0
   -2.2188    9.6611   -2.9902 O   0  0  0  0  0  0  0  0  0  0  0  0
   -0.2000   10.4177   -3.9313 C   0  0  0  0  0  0  0  0  0  0  0  0
    0.0224    9.8501   -4.8491 H   0  0  0  0  0  0  0  0  0  0  0  0
   -0.7319   11.3214   -4.2695 H   0  0  0  0  0  0  0  0  0  0  0  0
    0.7767   10.7755   -3.5681 H   0  0  0  0  0  0  0  0  0  0  0  0
   -0.2275    8.8971   -2.0541 N   0  0  0  0  0  0  0  0  0  0  0  0
   -0.7916    8.0645   -1.0220 C   0  0  2  0  0  0  0  0  0  0  0  0
    0.1096    8.1248    0.2096 C   0  0  0  0  0  0  0  0  0  0  0  0
    1.1926    8.7065    0.2192 O   0  0  0  0  0  0  0  0  0  0  0  0
   -1.0619    6.6381   -1.5071 C   0  0  0  0  0  0  0  0  0  0  0  0
    0.4411    5.7330   -2.0010 S   0  0  0  0  0  0  0  0  0  0  0  0
    0.7857    8.9542   -2.1290 H   0  0  0  0  0  0  0  0  0  0  0  0
   -1.7477    8.5322   -0.7559 H   0  0  0  0  0  0  0  0  0  0  0  0
   -1.5542    6.0526   -0.7237 H   0  0  0  0  0  0  0  0  0  0  0  0
   -1.7315    6.6594   -2.3737 H   0  0  0  0  0  0  0  0  0  0  0  0
   -0.4262    7.4326    1.2864 N   0  0  0  0  0  0  0  0  0  0  0  0
    0.2512    7.3235    2.5573 C   0  0  0  0  0  0  0  0  0  0  0  0
   -1.3491    7.0166    1.2040 H   0  0  0  0  0  0  0  0  0  0  0  0
    0.8531    6.4030    2.5747 H   0  0  0  0  0  0  0  0  0  0  0  0
    0.9086    8.1941    2.6981 H   0  0  0  0  0  0  0  0  0  0  0  0
   -0.4924    7.2906    3.3673 H   0  0  0  0  0  0  0  0  0  0  0  0
   -6.7256    2.0330   -0.2766 C   0  0  0  0  0  0  0  0  0  0  0  0
   -7.1824    1.1039   -0.9322 O   0  0  0  0  0  0  0  0  0  0  0  0
   -7.5276    2.6077    0.8435 C   0  0  0  0  0  0  0  0  0  0  0  0
   -8.1775    3.4344    0.5145 H   0  0  0  0  0  0  0  0  0  0  0  0
   -8.2057    1.8676    1.2980 H   0  0  0  0  0  0  0  0  0  0  0  0
   -6.9411    3.0162    1.6819 H   0  0  0  0  0  0  0  0  0  0  0  0
   -5.4935    2.6382   -0.4627 N   0  0  0  0  0  0  0  0  0  0  0  0
   -4.5619    2.2388   -1.4845 C   0  0  2  0  0  0  0  0  0  0  0  0
   -3.1535    2.4674   -0.9521 C   0  0  0  0  0  0  0  0  0  0  0  0
   -2.8634    3.3945   -0.1987 O   0  0  0  0  0  0  0  0  0  0  0  0
   -4.7883    3.0138   -2.7732 C   0  0  0  0  0  0  0  0  0  0  0  0
   -5.2337    3.4049    0.1551 H   0  0  0  0  0  0  0  0  0  0  0  0
   -4.7192    1.1682   -1.6549 H   0  0  0  0  0  0  0  0  0  0  0  0
   -4.6352    4.0886   -2.6221 H   0  0  0  0  0  0  0  0  0  0  0  0
   -4.0976    2.6887   -3.5582 H   0  0  0  0  0  0  0  0  0  0  0  0
   -5.8111    2.8719   -3.1387 H   0  0  0  0  0  0  0  0  0  0  0  0
   -2.2466    1.5400   -1.4507 N   0  0  0  0  0  0  0  0  0  0  0  0
   -0.8424    1.5707   -1.1286 C   0  0  2  0  0  0  0  0  0  0  0  0
   -0.6038    0.7295    0.1237 C   0  0  0  0  0  0  0  0  0  0  0  0
   -0.8895    1.1168    1.2550 O   0  0  0  0  0  0  0  0  0  0  0  0
   -0.3023    2.9982   -1.0128 C   0  0  0  0  0  0  0  0  0  0  0  0
   -0.3451    3.9221   -2.5676 S   0  0  0  0  0  0  0  0  0  0  0  0
   -2.5850    0.7815   -2.0381 H   0  0  0  0  0  0  0  0  0  0  0  0
   -0.3374    1.0708   -1.9644 H   0  0  0  0  0  0  0  0  0  0  0  0
   -0.8784    3.5687   -0.2770 H   0  0  0  0  0  0  0  0  0  0  0  0
    0.7387    2.9769   -0.6728 H   0  0  0  0  0  0  0  0  0  0  0  0
   -0.0128   -0.4914   -0.1689 N   0  0  0  0  0  0  0  0  0  0  0  0
    0.3345   -1.4531    0.8511 C   0  0  2  0  0  0  0  0  0  0  0  0
    1.5788   -2.2000    0.3891 C   0  0  0  0  0  0  0  0  0  0  0  0
    1.8046   -2.4620   -0.7905 O   0  0  0  0  0  0  0  0  0  0  0  0
   -0.8113   -2.4173    1.1157 C   0  0  0  0  0  0  0  0  0  0  0  0
    0.1496   -0.7488   -1.1379 H   0  0  0  0  0  0  0  0  0  0  0  0
    0.5655   -0.8831    1.7577 H   0  0  0  0  0  0  0  0  0  0  0  0
   -1.0571   -2.9973    0.2187 H   0  0  0  0  0  0  0  0  0  0  0  0
   -0.5569   -3.1277    1.9092 H   0  0  0  0  0  0  0  0  0  0  0  0
   -1.7140   -1.8761    1.4191 H   0  0  0  0  0  0  0  0  0  0  0  0
    2.3861   -2.5773    1.4531 N   0  0  0  0  0  0  0  0  0  0  0  0
    3.6033   -3.3347    1.2778 C   0  0  0  0  0  0  0  0  0  0  0  0
    2.1425   -2.2828    2.3942 H   0  0  0  0  0  0  0  0  0  0  0  0
    3.3844   -4.4086    1.3722 H   0  0  0  0  0  0  0  0  0  0  0  0
    4.0208   -3.1321    0.2805 H   0  0  0  0  0  0  0  0  0  0  0  0
    4.3323   -3.0402    2.0471 H   0  0  0  0  0  0  0  0  0  0  0  0
  1  3  1  0  0  0  0
  1  7  1  0  0  0  0
  1  2  2  0  0  0  0
 23 25  1  0  0  0  0
 23 29  1  0  0  0  0
 23 24  2  0  0  0  0
 50 51  1  0  0  0  0
 51 59  1  0  0  0  0
 51 52  2  0  0  0  0
  8  9  1  0  0  0  0
  9 17  1  0  0  0  0
  9 10  2  0  0  0  0
 30 31  1  0  0  0  0
 31 39  1  0  0  0  0
 31 32  2  0  0  0  0
 40 41  1  0  0  0  0
 41 49  1  0  0  0  0
 41 42  2  0  0  0  0
 50 53  1  0  0  0  0
 30 33  1  0  0  0  0
 59 60  1  0  0  0  0
 17 18  1  0  0  0  0
  8 11  1  0  0  0  0
 11 12  1  0  0  0  0
 40 43  1  0  0  0  0
 43 44  1  0  0  0  0
 49 50  1  0  0  0  0
  7  8  1  0  0  0  0
 29 30  1  0  0  0  0
 39 40  1  0  0  0  0
 12 44  1  0  0  0  0
  3  4  1  0  0  0  0
  3  5  1  0  0  0  0
  3  6  1  0  0  0  0
 25 26  1  0  0  0  0
 25 27  1  0  0  0  0
 25 28  1  0  0  0  0
 53 56  1  0  0  0  0
 53 57  1  0  0  0  0
 53 58  1  0  0  0  0
 33 36  1  0  0  0  0
 33 37  1  0  0  0  0
 33 38  1  0  0  0  0
 60 62  1  0  0  0  0
 60 63  1  0  0  0  0
 60 64  1  0  0  0  0
 18 20  1  0  0  0  0
 18 21  1  0  0  0  0
 18 22  1  0  0  0  0
 11 15  1  0  0  0  0
 11 16  1  0  0  0  0
 43 47  1  0  0  0  0
 43 48  1  0  0  0  0
 50 55  1  0  0  0  0
  8 14  1  0  0  0  0
 30 35  1  0  0  0  0
 40 46  1  0  0  0  0
 59 61  1  0  0  0  0
 17 19  1  0  0  0  0
  7 13  1  0  0  0  0
 29 34  1  0  0  0  0
 49 54  1  0  0  0  0
 39 45  1  0  0  0  0
M  END
$$$$

  -OEChem-05262214473D

 64 63  0     1  0  0  0  0  0999 V2000
   -0.9946    9.6232   -2.9486 C   0  0  0  0  0  0  0  0  0  0  0  0
   -2.2188    9.6611   -2.9902 O   0  0  0  0  0  0  0  0  0  0  0  0
   -0.2000   10.4177   -3.9313 C   0  0  0  0  0  0  0  0  0  0  0  0
    0.0224    9.8501   -4.8491 H   0  0  0  0  0  0  0  0  0  0  0  0
   -0.7319   11.3214   -4.2695 H   0  0  0  0  0  0  0  0  0  0  0  0
    0.7767   10.7755   -3.5681 H   0  0  0  0  0  0  0  0  0  0  0  0
   -0.2275    8.8971   -2.0541 N   0  0  0  0  0  0  0  0  0  0  0  0
   -0.7916    8.0645   -1.0220 C   0  0  2  0  0  0  0  0  0  0  0  0
    0.1096    8.1248    0.2096 C   0  0  0  0  0  0  0  0  0  0  0  0
    1.1926    8.7065    0.2192 O   0  0  0  0  0  0  0  0  0  0  0  0
   -1.0619    6.6381   -1.5071 C   0  0  0  0  0  0  0  0  0  0  0  0
    0.4411    5.7330   -2.0010 S   0  0  0  0  0  0  0  0  0  0  0  0
    0.7857    8.9542   -2.1290 H   0  0  0  0  0  0  0  0  0  0  0  0
   -1.7477    8.5322   -0.7559 H   0  0  0  0  0  0  0  0  0  0  0  0
   -1.5542    6.0526   -0.7237 H   0  0  0  0  0  0  0  0  0  0  0  0
   -1.7315    6.6594   -2.3737 H   0  0  0  0  0  0  0  0  0  0  0  0
   -0.4262    7.4326    1.2864 N   0  0  0  0  0  0  0  0  0  0  0  0
    0.2512    7.3235    2.5573 C   0  0  0  0  0  0  0  0  0  0  0  0
   -1.3491    7.0166    1.2040 H   0  0  0  0  0  0  0  0  0  0  0  0
    0.8531    6.4030    2.5747 H   0  0  0  0  0  0  0  0  0  0  0  0
    0.9086    8.1941    2.6981 H   0  0  0  0  0  0  0  0  0  0  0  0
   -0.4924    7.2906    3.3673 H   0  0  0  0  0  0  0  0  0  0  0  0
   -6.7256    2.0330   -0.2766 C   0  0  0  0  0  0  0  0  0  0  0  0
   -7.1824    1.1039   -0.9322 O   0  0  0  0  0  0  0  0  0  0  0  0
   -7.5276    2.6077    0.8435 C   0  0  0  0  0  0  0  0  0  0  0  0
   -8.1775    3.4344    0.5145 H   0  0  0  0  0  0  0  0  0  0  0  0
   -8.2057    1.8676    1.2980 H   0  0  0  0  0  0  0  0  0  0  0  0
   -6.9411    3.0162    1.6819 H   0  0  0  0  0  0  0  0  0  0  0  0
   -5.4935    2.6382   -0.4627 N   0  0  0  0  0  0  0  0  0  0  0  0
   -4.5619    2.2388   -1.4845 C   0  0  2  0  0  0  0  0  0  0  0  0
   -3.1535    2.4674   -0.9521 C   0  0  0  0  0  0  0  0  0  0  0  0
   -2.8634    3.3945   -0.1987 O   0  0  0  0  0  0  0  0  0  0  0  0
   -4.7883    3.0138   -2.7732 C   0  0  0  0  0  0  0  0  0  0  0  0
   -5.2337    3.4049    0.1551 H   0  0  0  0  0  0  0  0  0  0  0  0
   -4.7192    1.1682   -1.6549 H   0  0  0  0  0  0  0  0  0  0  0  0
   -4.6352    4.0886   -2.6221 H   0  0  0  0  0  0  0  0  0  0  0  0
   -4.0976    2.6887   -3.5582 H   0  0  0  0  0  0  0  0  0  0  0  0
   -5.8111    2.8719   -3.1387 H   0  0  0  0  0  0  0  0  0  0  0  0
   -2.2466    1.5400   -1.4507 N   0  0  0  0  0  0  0  0  0  0  0  0
   -0.8424    1.5707   -1.1286 C   0  0  2  0  0  0  0  0  0  0  0  0
   -0.6038    0.7295    0.1237 C   0  0  0  0  0  0  0  0  0  0  0  0
   -1.1196    0.9847    1.2101 O   0  0  0  0  0  0  0  0  0  0  0  0
   -0.3023    2.9982   -1.0128 C   0  0  0  0  0  0  0  0  0  0  0  0
   -0.3451    3.9221   -2.5676 S   0  0  0  0  0  0  0  0  0  0  0  0
   -2.5850    0.7815   -2.0381 H   0  0  0  0  0  0  0  0  0  0  0  0
   -0.3374    1.0708   -1.9644 H   0  0  0  0  0  0  0  0  0  0  0  0
   -0.8784    3.5687   -0.2770 H   0  0  0  0  0  0  0  0  0  0  0  0
    0.7387    2.9769   -0.6728 H   0  0  0  0  0  0  0  0  0  0  0  0
    0.2706   -0.3224   -0.1093 N   0  0  0  0  0  0  0  0  0  0  0  0
    0.6724   -1.2455    0.9262 C   0  0  2  0  0  0  0  0  0  0  0  0
    2.0998   -1.6885    0.6334 C   0  0  0  0  0  0  0  0  0  0  0  0
    2.5375   -1.8312   -0.5064 O   0  0  0  0  0  0  0  0  0  0  0  0
   -0.2645   -2.4414    0.9953 C   0  0  0  0  0  0  0  0  0  0  0  0
    0.6169   -0.4856   -1.0502 H   0  0  0  0  0  0  0  0  0  0  0  0
    0.6478   -0.6913    1.8708 H   0  0  0  0  0  0  0  0  0  0  0  0
   -0.2533   -3.0090    0.0577 H   0  0  0  0  0  0  0  0  0  0  0  0
    0.0247   -3.1260    1.7995 H   0  0  0  0  0  0  0  0  0  0  0  0
   -1.2955   -2.1189    1.1763 H   0  0  0  0  0  0  0  0  0  0  0  0
    2.8145   -1.9473    1.7946 N   0  0  0  0  0  0  0  0  0  0  0  0
    4.1784   -2.4222    1.7812 C   0  0  0  0  0  0  0  0  0  0  0  0
    2.3856   -1.7633    2.6968 H   0  0  0  0  0  0  0  0  0  0  0  0
    4.1847   -3.5217    1.8155 H   0  0  0  0  0  0  0  0  0  0  0  0
    4.6762   -2.0813    0.8614 H   0  0  0  0  0  0  0  0  0  0  0  0
    4.7135   -2.0251    2.6564 H   0  0  0  0  0  0  0  0  0  0  0  0
  1  3  1  0  0  0  0
  1  7  1  0  0  0  0
  1  2  2  0  0  0  0
 23 25  1  0  0  0  0
 23 29  1  0  0  0  0
 23 24  2  0  0  0  0
 50 51  1  0  0  0  0
 51 59  1  0  0  0  0
 51 52  2  0  0  0  0
  8  9  1  0  0  0  0
  9 17  1  0  0  0  0
  9 10  2  0  0  0  0
 30 31  1  0  0  0  0
 31 39  1  0  0  0  0
 31 32  2  0  0  0  0
 40 41  1  0  0  0  0
 41 49  1  0  0  0  0
 41 42  2  0  0  0  0
 50 53  1  0  0  0  0
 30 33  1  0  0  0  0
 59 60  1  0  0  0  0
 17 18  1  0  0  0  0
  8 11  1  0  0  0  0
 11 12  1  0  0  0  0
 40 43  1  0  0  0  0
 43 44  1  0  0  0  0
 49 50  1  0  0  0  0
  7  8  1  0  0  0  0
 29 30  1  0  0  0  0
 39 40  1  0  0  0  0
 12 44  1  0  0  0  0
  3  4  1  0  0  0  0
  3  5  1  0  0  0  0
  3  6  1  0  0  0  0
 25 26  1  0  0  0  0
 25 27  1  0  0  0  0
 25 28  1  0  0  0  0
 53 56  1  0  0  0  0
 53 57  1  0  0  0  0
 53 58  1  0  0  0  0
 33 36  1  0  0  0  0
 33 37  1  0  0  0  0
 33 38  1  0  0  0  0
 60 62  1  0  0  0  0
 60 63  1  0  0  0  0
 60 64  1  0  0  0  0
 18 20  1  0  0  0  0
 18 21  1  0  0  0  0
 18 22  1  0  0  0  0
 11 15  1  0  0  0  0
 11 16  1  0  0  0  0
 43 47  1  0  0  0  0
 43 48  1  0  0  0  0
 50 55  1  0  0  0  0
  8 14  1  0  0  0  0
 30 35  1  0  0  0  0
 40 46  1  0  0  0  0
 59 61  1  0  0  0  0
 17 19  1  0  0  0  0
  7 13  1  0  0  0  0
 29 34  1  0  0  0  0
 49 54  1  0  0  0  0
 39 45  1  0  0  0  0
M  END
$$$$

  -OEChem-05262214473D

 64 63  0     1  0  0  0  0  0999 V2000
   -0.9946    9.6232   -2.9486 C   0  0  0  0  0  0  0  0  0  0  0  0
   -2.2188    9.6611   -2.9902 O   0  0  0  0  0  0  0  0  0  0  0  0
   -0.2000   10.4177   -3.9313 C   0  0  0  0  0  0  0  0  0  0  0  0
    0.0224    9.8501   -4.8491 H   0  0  0  0  0  0  0  0  0  0  0  0
   -0.7319   11.3214   -4.2695 H   0  0  0  0  0  0  0  0  0  0  0  0
    0.7767   10.7755   -3.5681 H   0  0  0  0  0  0  0  0  0  0  0  0
   -0.2275    8.8971   -2.0541 N   0  0  0  0  0  0  0  0  0  0  0  0
   -0.7916    8.0645   -1.0220 C   0  0  2  0  0  0  0  0  0  0  0  0
    0.1096    8.1248    0.2096 C   0  0  0  0  0  0  0  0  0  0  0  0
    1.1926    8.7065    0.2192 O   0  0  0  0  0  0  0  0  0  0  0  0
   -1.0619    6.6381   -1.5071 C   0  0  0  0  0  0  0  0  0  0  0  0
    0.4411    5.7330   -2.0010 S   0  0  0  0  0  0  0  0  0  0  0  0
    0.7857    8.9542   -2.1290 H   0  0  0  0  0  0  0  0  0  0  0  0
   -1.7477    8.5322   -0.7559 H   0  0  0  0  0  0  0  0  0  0  0  0
   -1.5542    6.0526   -0.7237 H   0  0  0  0  0  0  0  0  0  0  0  0
   -1.7315    6.6594   -2.3737 H   0  0  0  0  0  0  0  0  0  0  0  0
   -0.4262    7.4326    1.2864 N   0  0  0  0  0  0  0  0  0  0  0  0
    0.2512    7.3235    2.5573 C   0  0  0  0  0  0  0  0  0  0  0  0
   -1.3491    7.0166    1.2040 H   0  0  0  0  0  0  0  0  0  0  0  0
    0.8531    6.4030    2.5747 H   0  0  0  0  0  0  0  0  0  0  0  0
    0.9086    8.1941    2.6981 H   0  0  0  0  0  0  0  0  0  0  0  0
   -0.4924    7.2906    3.3673 H   0  0  0  0  0  0  0  0  0  0  0  0
   -6.7256    2.0330   -0.2766 C   0  0  0  0  0  0  0  0  0  0  0  0
   -7.1824    1.1039   -0.9322 O   0  0  0  0  0  0  0  0  0  0  0  0
   -7.5276    2.6077    0.8435 C   0  0  0  0  0  0  0  0  0  0  0  0
   -8.1775    3.4344    0.5145 H   0  0  0  0  0  0  0  0  0  0  0  0
   -8.2057    1.8676    1.2980 H   0  0  0  0  0  0  0  0  0  0  0  0
   -6.9411    3.0162    1.6819 H   0  0  0  0  0  0  0  0  0  0  0  0
   -5.4935    2.6382   -0.4627 N   0  0  0  0  0  0  0  0  0  0  0  0
   -4.5619    2.2388   -1.4845 C   0  0  2  0  0  0  0  0  0  0  0  0
   -3.1535    2.4674   -0.9521 C   0  0  0  0  0  0  0  0  0  0  0  0
   -2.8634    3.3945   -0.1987 O   0  0  0  0  0  0  0  0  0  0  0  0
   -4.7883    3.0138   -2.7732 C   0  0  0  0  0  0  0  0  0  0  0  0
   -5.2337    3.4049    0.1551 H   0  0  0  0  0  0  0  0  0  0  0  0
   -4.7192    1.1682   -1.6549 H   0  0  0  0  0  0  0  0  0  0  0  0
   -4.6352    4.0886   -2.6221 H   0  0  0  0  0  0  0  0  0  0  0  0
   -4.0976    2.6887   -3.5582 H   0  0  0  0  0  0  0  0  0  0  0  0
   -5.8111    2.8719   -3.1387 H   0  0  0  0  0  0  0  0  0  0  0  0
   -2.2466    1.5400   -1.4507 N   0  0  0  0  0  0  0  0  0  0  0  0
   -0.8424    1.5707   -1.1286 C   0  0  2  0  0  0  0  0  0  0  0  0
   -0.6038    0.7295    0.1237 C   0  0  0  0  0  0  0  0  0  0  0  0
   -1.3075    0.8101    1.1286 O   0  0  0  0  0  0  0  0  0  0  0  0
   -0.3023    2.9982   -1.0128 C   0  0  0  0  0  0  0  0  0  0  0  0
   -0.3451    3.9221   -2.5676 S   0  0  0  0  0  0  0  0  0  0  0  0
   -2.5850    0.7815   -2.0381 H   0  0  0  0  0  0  0  0  0  0  0  0
   -0.3374    1.0708   -1.9644 H   0  0  0  0  0  0  0  0  0  0  0  0
   -0.8784    3.5687   -0.2770 H   0  0  0  0  0  0  0  0  0  0  0  0
    0.7387    2.9769   -0.6728 H   0  0  0  0  0  0  0  0  0  0  0  0
    0.5001   -0.1014   -0.0046 N   0  0  0  0  0  0  0  0  0  0  0  0
    0.9440   -0.9763    1.0552 C   0  0  2  0  0  0  0  0  0  0  0  0
    2.4597   -1.0937    0.9644 C   0  0  0  0  0  0  0  0  0  0  0  0
    3.0710   -1.0778   -0.1020 O   0  0  0  0  0  0  0  0  0  0  0  0
    0.2860   -2.3438    0.9560 C   0  0  0  0  0  0  0  0  0  0  0  0
    1.0000   -0.1358   -0.8882 H   0  0  0  0  0  0  0  0  0  0  0  0
    0.6705   -0.4932    1.9996 H   0  0  0  0  0  0  0  0  0  0  0  0
    0.5485   -2.8432    0.0163 H   0  0  0  0  0  0  0  0  0  0  0  0
    0.6017   -2.9965    1.7766 H   0  0  0  0  0  0  0  0  0  0  0  0
   -0.8051   -2.2547    0.9916 H   0  0  0  0  0  0  0  0  0  0  0  0
    3.0459   -1.2616    2.2111 N   0  0  0  0  0  0  0  0  0  0  0  0
    4.4685   -1.4391    2.3863 C   0  0  0  0  0  0  0  0  0  0  0  0
    2.4669   -1.2222    3.0448 H   0  0  0  0  0  0  0  0  0  0  0  0
    4.7064   -2.5130    2.3936 H   0  0  0  0  0  0  0  0  0  0  0  0
    5.0034   -0.9508    1.5584 H   0  0  0  0  0  0  0  0  0  0  0  0
    4.7794   -0.9883    3.3403 H   0  0  0  0  0  0  0  0  0  0  0  0
  1  3  1  0  0  0  0
  1  7  1  0  0  0  0
  1  2  2  0  0  0  0
 23 25  1  0  0  0  0
 23 29  1  0  0  0  0
 23 24  2  0  0  0  0
 50 51  1  0  0  0  0
 51 59  1  0  0  0  0
 51 52  2  0  0  0  0
  8  9  1  0  0  0  0
  9 17  1  0  0  0  0
  9 10  2  0  0  0  0
 30 31  1  0  0  0  0
 31 39  1  0  0  0  0
 31 32  2  0  0  0  0
 40 41  1  0  0  0  0
 41 49  1  0  0  0  0
 41 42  2  0  0  0  0
 50 53  1  0  0  0  0
 30 33  1  0  0  0  0
 59 60  1  0  0  0  0
 17 18  1  0  0  0  0
  8 11  1  0  0  0  0
 11 12  1  0  0  0  0
 40 43  1  0  0  0  0
 43 44  1  0  0  0  0
 49 50  1  0  0  0  0
  7  8  1  0  0  0  0
 29 30  1  0  0  0  0
 39 40  1  0  0  0  0
 12 44  1  0  0  0  0
  3  4  1  0  0  0  0
  3  5  1  0  0  0  0
  3  6  1  0  0  0  0
 25 26  1  0  0  0  0
 25 27  1  0  0  0  0
 25 28  1  0  0  0  0
 53 56  1  0  0  0  0
 53 57  1  0  0  0  0
 53 58  1  0  0  0  0
 33 36  1  0  0  0  0
 33 37  1  0  0  0  0
 33 38  1  0  0  0  0
 60 62  1  0  0  0  0
 60 63  1  0  0  0  0
 60 64  1  0  0  0  0
 18 20  1  0  0  0  0
 18 21  1  0  0  0  0
 18 22  1  0  0  0  0
 11 15  1  0  0  0  0
 11 16  1  0  0  0  0
 43 47  1  0  0  0  0
 43 48  1  0  0  0  0
 50 55  1  0  0  0  0
  8 14  1  0  0  0  0
 30 35  1  0  0  0  0
 40 46  1  0  0  0  0
 59 61  1  0  0  0  0
 17 19  1  0  0  0  0
  7 13  1  0  0  0  0
 29 34  1  0  0  0  0
 49 54  1  0  0  0  0
 39 45  1  0  0  0  0
M  END
$$$$

  -OEChem-05262214473D

 64 63  0     1  0  0  0  0  0999 V2000
   -0.9946    9.6232   -2.9486 C   0  0  0  0  0  0  0  0  0  0  0  0
   -2.2188    9.6611   -2.9902 O   0  0  0  0  0  0  0  0  0  0  0  0
   -0.2000   10.4177   -3.9313 C   0  0  0  0  0  0  0  0  0  0  0  0
    0.0224    9.8501   -4.8491 H   0  0  0  0  0  0  0  0  0  0  0  0
   -0.7319   11.3214   -4.2695 H   0  0  0  0  0  0  0  0  0  0  0  0
    0.7767   10.7755   -3.5681 H   0  0  0  0  0  0  0  0  0  0  0  0
   -0.2275    8.8971   -2.0541 N   0  0  0  0  0  0  0  0  0  0  0  0
   -0.7916    8.0645   -1.0220 C   0  0  2  0  0  0  0  0  0  0  0  0
    0.1096    8.1248    0.2096 C   0  0  0  0  0  0  0  0  0  0  0  0
    1.1926    8.7065    0.2192 O   0  0  0  0  0  0  0  0  0  0  0  0
   -1.0619    6.6381   -1.5071 C   0  0  0  0  0  0  0  0  0  0  0  0
    0.4411    5.7330   -2.0010 S   0  0  0  0  0  0  0  0  0  0  0  0
    0.7857    8.9542   -2.1290 H   0  0  0  0  0  0  0  0  0  0  0  0
   -1.7477    8.5322   -0.7559 H   0  0  0  0  0  0  0  0  0  0  0  0
   -1.5542    6.0526   -0.7237 H   0  0  0  0  0  0  0  0  0  0  0  0
   -1.7315    6.6594   -2.3737 H   0  0  0  0  0  0  0  0  0  0  0  0
   -0.4262    7.4326    1.2864 N   0  0  0  0  0  0  0  0  0  0  0  0
    0.2512    7.3235    2.5573 C   0  0  0  0  0  0  0  0  0  0  0  0
   -1.3491    7.0166    1.2040 H   0  0  0  0  0  0  0  0  0  0  0  0
    0.8531    6.4030    2.5747 H   0  0  0  0  0  0  0  0  0  0  0  0
    0.9086    8.1941    2.6981 H   0  0  0  0  0  0  0  0  0  0  0  0
   -0.4924    7.2906    3.3673 H   0  0  0  0  0  0  0  0  0  0  0  0
   -6.7256    2.0330   -0.2766 C   0  0  0  0  0  0  0  0  0  0  0  0
   -7.1824    1.1039   -0.9322 O   0  0  0  0  0  0  0  0  0  0  0  0
   -7.5276    2.6077    0.8435 C   0  0  0  0  0  0  0  0  0  0  0  0
   -8.1775    3.4344    0.5145 H   0  0  0  0  0  0  0  0  0  0  0  0
   -8.2057    1.8676    1.2980 H   0  0  0  0  0  0  0  0  0  0  0  0
   -6.9411    3.0162    1.6819 H   0  0  0  0  0  0  0  0  0  0  0  0
   -5.4935    2.6382   -0.4627 N   0  0  0  0  0  0  0  0  0  0  0  0
   -4.5619    2.2388   -1.4845 C   0  0  2  0  0  0  0  0  0  0  0  0
   -3.1535    2.4674   -0.9521 C   0  0  0  0  0  0  0  0  0  0  0  0
   -2.8634    3.3945   -0.1987 O   0  0  0  0  0  0  0  0  0  0  0  0
   -4.7883    3.0138   -2.7732 C   0  0  0  0  0  0  0  0  0  0  0  0
   -5.2337    3.4049    0.1551 H   0  0  0  0  0  0  0  0  0  0  0  0
   -4.7192    1.1682   -1.6549 H   0  0  0  0  0  0  0  0  0  0  0  0
   -4.6352    4.0886   -2.6221 H   0  0  0  0  0  0  0  0  0  0  0  0
   -4.0976    2.6887   -3.5582 H   0  0  0  0  0  0  0  0  0  0  0  0
   -5.8111    2.8719   -3.1387 H   0  0  0  0  0  0  0  0  0  0  0  0
   -2.2466    1.5400   -1.4507 N   0  0  0  0  0  0  0  0  0  0  0  0
   -0.8424    1.5707   -1.1286 C   0  0  2  0  0  0  0  0  0  0  0  0
   -0.6038    0.7295    0.1237 C   0  0  0  0  0  0  0  0  0  0  0  0
   -1.4403    0.6048    1.0160 O   0  0  0  0  0  0  0  0  0  0  0  0
   -0.3023    2.9982   -1.0128 C   0  0  0  0  0  0  0  0  0  0  0  0
   -0.3451    3.9221   -2.5676 S   0  0  0  0  0  0  0  0  0  0  0  0
   -2.5850    0.7815   -2.0381 H   0  0  0  0  0  0  0  0  0  0  0  0
   -0.3374    1.0708   -1.9644 H   0  0  0  0  0  0  0  0  0  0  0  0
   -0.8784    3.5687   -0.2770 H   0  0  0  0  0  0  0  0  0  0  0  0
    0.7387    2.9769   -0.6728 H   0  0  0  0  0  0  0  0  0  0  0  0
    0.6599    0.1565    0.1382 N   0  0  0  0  0  0  0  0  0  0  0  0
    1.1308   -0.6639    1.2295 C   0  0  2  0  0  0  0  0  0  0  0  0
    2.6340   -0.4562    1.3594 C   0  0  0  0  0  0  0  0  0  0  0  0
    3.3689   -0.2532    0.3951 O   0  0  0  0  0  0  0  0  0  0  0  0
    0.8026   -2.1311    1.0005 C   0  0  0  0  0  0  0  0  0  0  0  0
    1.2726    0.2769   -0.6629 H   0  0  0  0  0  0  0  0  0  0  0  0
    0.6320   -0.3022    2.1352 H   0  0  0  0  0  0  0  0  0  0  0  0
    1.2936   -2.5113    0.0973 H   0  0  0  0  0  0  0  0  0  0  0  0
    1.1349   -2.7480    1.8419 H   0  0  0  0  0  0  0  0  0  0  0  0
   -0.2763   -2.2745    0.8776 H   0  0  0  0  0  0  0  0  0  0  0  0
    3.0645   -0.5671    2.6741 N   0  0  0  0  0  0  0  0  0  0  0  0
    4.4538   -0.4524    3.0519 C   0  0  0  0  0  0  0  0  0  0  0  0
    2.3811   -0.6962    3.4145 H   0  0  0  0  0  0  0  0  0  0  0  0
    4.9138   -1.4515    3.0672 H   0  0  0  0  0  0  0  0  0  0  0  0
    4.9803    0.1825    2.3241 H   0  0  0  0  0  0  0  0  0  0  0  0
    4.5255   -0.0005    4.0522 H   0  0  0  0  0  0  0  0  0  0  0  0
  1  3  1  0  0  0  0
  1  7  1  0  0  0  0
  1  2  2  0  0  0  0
 23 25  1  0  0  0  0
 23 29  1  0  0  0  0
 23 24  2  0  0  0  0
 50 51  1  0  0  0  0
 51 59  1  0  0  0  0
 51 52  2  0  0  0  0
  8  9  1  0  0  0  0
  9 17  1  0  0  0  0
  9 10  2  0  0  0  0
 30 31  1  0  0  0  0
 31 39  1  0  0  0  0
 31 32  2  0  0  0  0
 40 41  1  0  0  0  0
 41 49  1  0  0  0  0
 41 42  2  0  0  0  0
 50 53  1  0  0  0  0
 30 33  1  0  0  0  0
 59 60  1  0  0  0  0
 17 18  1  0  0  0  0
  8 11  1  0  0  0  0
 11 12  1  0  0  0  0
 40 43  1  0  0  0  0
 43 44  1  0  0  0  0
 49 50  1  0  0  0  0
  7  8  1  0  0  0  0
 29 30  1  0  0  0  0
 39 40  1  0  0  0  0
 12 44  1  0  0  0  0
  3  4  1  0  0  0  0
  3  5  1  0  0  0  0
  3  6  1  0  0  0  0
 25 26  1  0  0  0  0
 25 27  1  0  0  0  0
 25 28  1  0  0  0  0
 53 56  1  0  0  0  0
 53 57  1  0  0  0  0
 53 58  1  0  0  0  0
 33 36  1  0  0  0  0
 33 37  1  0  0  0  0
 33 38  1  0  0  0  0
 60 62  1  0  0  0  0
 60 63  1  0  0  0  0
 60 64  1  0  0  0  0
 18 20  1  0  0  0  0
 18 21  1  0  0  0  0
 18 22  1  0  0  0  0
 11 15  1  0  0  0  0
 11 16  1  0  0  0  0
 43 47  1  0  0  0  0
 43 48  1  0  0  0  0
 50 55  1  0  0  0  0
  8 14  1  0  0  0  0
 30 35  1  0  0  0  0
 40 46  1  0  0  0  0
 59 61  1  0  0  0  0
 17 19  1  0  0  0  0
  7 13  1  0  0  0  0
 29 34  1  0  0  0  0
 49 54  1  0  0  0  0
 39 45  1  0  0  0  0
M  END
$$$$

  -OEChem-05262214473D

 64 63  0     1  0  0  0  0  0999 V2000
   -0.9946    9.6232   -2.9486 C   0  0  0  0  0  0  0  0  0  0  0  0
   -2.2188    9.6611   -2.9902 O   0  0  0  0  0  0  0  0  0  0  0  0
   -0.2000   10.4177   -3.9313 C   0  0  0  0  0  0  0  0  0  0  0  0
    0.0224    9.8501   -4.8491 H   0  0  0  0  0  0  0  0  0  0  0  0
   -0.7319   11.3214   -4.2695 H   0  0  0  0  0  0  0  0  0  0  0  0
    0.7767   10.7755   -3.5681 H   0  0  0  0  0  0  0  0  0  0  0  0
   -0.2275    8.8971   -2.0541 N   0  0  0  0  0  0  0  0  0  0  0  0
   -0.7916    8.0645   -1.0220 C   0  0  2  0  0  0  0  0  0  0  0  0
    0.1096    8.1248    0.2096 C   0  0  0  0  0  0  0  0  0  0  0  0
    1.1926    8.7065    0.2192 O   0  0  0  0  0  0  0  0  0  0  0  0
   -1.0619    6.6381   -1.5071 C   0  0  0  0  0  0  0  0  0  0  0  0
    0.4411    5.7330   -2.0010 S   0  0  0  0  0  0  0  0  0  0  0  0
    0.7857    8.9542   -2.1290 H   0  0  0  0  0  0  0  0  0  0  0  0
   -1.7477    8.5322   -0.7559 H   0  0  0  0  0  0  0  0  0  0  0  0
   -1.5542    6.0526   -0.7237 H   0  0  0  0  0  0  0  0  0  0  0  0
   -1.7315    6.6594   -2.3737 H   0  0  0  0  0  0  0  0  0  0  0  0
   -0.4262    7.4326    1.2864 N   0  0  0  0  0  0  0  0  0  0  0  0
    0.2512    7.3235    2.5573 C   0  0  0  0  0  0  0  0  0  0  0  0
   -1.3491    7.0166    1.2040 H   0  0  0  0  0  0  0  0  0  0  0  0
    0.8531    6.4030    2.5747 H   0  0  0  0  0  0  0  0  0  0  0  0
    0.9086    8.1941    2.6981 H   0  0  0  0  0  0  0  0  0  0  0  0
   -0.4924    7.2906    3.3673 H   0  0  0  0  0  0  0  0  0  0  0  0
   -6.7256    2.0330   -0.2766 C   0  0  0  0  0  0  0  0  0  0  0  0
   -7.1824    1.1039   -0.9322 O   0  0  0  0  0  0  0  0  0  0  0  0
   -7.5276    2.6077    0.8435 C   0  0  0  0  0  0  0  0  0  0  0  0
   -8.1775    3.4344    0.5145 H   0  0  0  0  0  0  0  0  0  0  0  0
   -8.2057    1.8676    1.2980 H   0  0  0  0  0  0  0  0  0  0  0  0
   -6.9411    3.0162    1.6819 H   0  0  0  0  0  0  0  0  0  0  0  0
   -5.4935    2.6382   -0.4627 N   0  0  0  0  0  0  0  0  0  0  0  0
   -4.5619    2.2388   -1.4845 C   0  0  2  0  0  0  0  0  0  0  0  0
   -3.1535    2.4674   -0.9521 C   0  0  0  0  0  0  0  0  0  0  0  0
   -2.8634    3.3945   -0.1987 O   0  0  0  0  0  0  0  0  0  0  0  0
   -4.7883    3.0138   -2.7732 C   0  0  0  0  0  0  0  0  0  0  0  0
   -5.2337    3.4049    0.1551 H   0  0  0  0  0  0  0  0  0  0  0  0
   -4.7192    1.1682   -1.6549 H   0  0  0  0  0  0  0  0  0  0  0  0
   -4.6352    4.0886   -2.6221 H   0  0  0  0  0  0  0  0  0  0  0  0
   -4.0976    2.6887   -3.5582 H   0  0  0  0  0  0  0  0  0  0  0  0
   -5.8111    2.8719   -3.1387 H   0  0  0  0  0  0  0  0  0  0  0  0
   -2.2466    1.5400   -1.4507 N   0  0  0  0  0  0  0  0  0  0  0  0
   -0.8424    1.5707   -1.1286 C   0  0  2  0  0  0  0  0  0  0  0  0
   -0.6038    0.7295    0.1237 C   0  0  0  0  0  0  0  0  0  0  0  0
   -1.5089    0.3829    0.8800 O   0  0  0  0  0  0  0  0  0  0  0  0
   -0.3023    2.9982   -1.0128 C   0  0  0  0  0  0  0  0  0  0  0  0
   -0.3451    3.9221   -2.5676 S   0  0  0  0  0  0  0  0  0  0  0  0
   -2.5850    0.7815   -2.0381 H   0  0  0  0  0  0  0  0  0  0  0  0
   -0.3374    1.0708   -1.9644 H   0  0  0  0  0  0  0  0  0  0  0  0
   -0.8784    3.5687   -0.2770 H   0  0  0  0  0  0  0  0  0  0  0  0
    0.7387    2.9769   -0.6728 H   0  0  0  0  0  0  0  0  0  0  0  0
    0.7392    0.4338    0.3093 N   0  0  0  0  0  0  0  0  0  0  0  0
    1.2201   -0.3295    1.4371 C   0  0  2  0  0  0  0  0  0  0  0  0
    2.6107    0.1806    1.7916 C   0  0  0  0  0  0  0  0  0  0  0  0
    3.4107    0.5864    0.9511 O   0  0  0  0  0  0  0  0  0  0  0  0
    1.2501   -1.8178    1.1257 C   0  0  0  0  0  0  0  0  0  0  0  0
    1.4163    0.7242   -0.3898 H   0  0  0  0  0  0  0  0  0  0  0  0
    0.5349   -0.1313    2.2685 H   0  0  0  0  0  0  0  0  0  0  0  0
    1.9315   -2.0358    0.2951 H   0  0  0  0  0  0  0  0  0  0  0  0
    1.5878   -2.3975    1.9910 H   0  0  0  0  0  0  0  0  0  0  0  0
    0.2549   -2.1767    0.8420 H   0  0  0  0  0  0  0  0  0  0  0  0
    2.8691    0.0890    3.1521 N   0  0  0  0  0  0  0  0  0  0  0  0
    4.1353    0.4707    3.7326 C   0  0  0  0  0  0  0  0  0  0  0  0
    2.1339   -0.2214    3.7805 H   0  0  0  0  0  0  0  0  0  0  0  0
    4.7929   -0.4093    3.7903 H   0  0  0  0  0  0  0  0  0  0  0  0
    4.6083    1.2413    3.1062 H   0  0  0  0  0  0  0  0  0  0  0  0
    3.9692    0.8710    4.7436 H   0  0  0  0  0  0  0  0  0  0  0  0
  1  3  1  0  0  0  0
  1  7  1  0  0  0  0
  1  2  2  0  0  0  0
 23 25  1  0  0  0  0
 23 29  1  0  0  0  0
 23 24  2  0  0  0  0
 50 51  1  0  0  0  0
 51 59  1  0  0  0  0
 51 52  2  0  0  0  0
  8  9  1  0  0  0  0
  9 17  1  0  0  0  0
  9 10  2  0  0  0  0
 30 31  1  0  0  0  0
 31 39  1  0  0  0  0
 31 32  2  0  0  0  0
 40 41  1  0  0  0  0
 41 49  1  0  0  0  0
 41 42  2  0  0  0  0
 50 53  1  0  0  0  0
 30 33  1  0  0  0  0
 59 60  1  0  0  0  0
 17 18  1  0  0  0  0
  8 11  1  0  0  0  0
 11 12  1  0  0  0  0
 40 43  1  0  0  0  0
 43 44  1  0  0  0  0
 49 50  1  0  0  0  0
  7  8  1  0  0  0  0
 29 30  1  0  0  0  0
 39 40  1  0  0  0  0
 12 44  1  0  0  0  0
  3  4  1  0  0  0  0
  3  5  1  0  0  0  0
  3  6  1  0  0  0  0
 25 26  1  0  0  0  0
 25 27  1  0  0  0  0
 25 28  1  0  0  0  0
 53 56  1  0  0  0  0
 53 57  1  0  0  0  0
 53 58  1  0  0  0  0
 33 36  1  0  0  0  0
 33 37  1  0  0  0  0
 33 38  1  0  0  0  0
 60 62  1  0  0  0  0
 60 63  1  0  0  0  0
 60 64  1  0  0  0  0
 18 20  1  0  0  0  0
 18 21  1  0  0  0  0
 18 22  1  0  0  0  0
 11 15  1  0  0  0  0
 11 16  1  0  0  0  0
 43 47  1  0  0  0  0
 43 48  1  0  0  0  0
 50 55  1  0  0  0  0
  8 14  1  0  0  0  0
 30 35  1  0  0  0  0
 40 46  1  0  0  0  0
 59 61  1  0  0  0  0
 17 19  1  0  0  0  0
  7 13  1  0  0  0  0
 29 34  1  0  0  0  0
 49 54  1  0  0  0  0
 39 45  1  0  0  0  0
M  END
$$$$

  -OEChem-05262214473D

 64 63  0     1  0  0  0  0  0999 V2000
   -1.4781    9.7988   -0.8578 C   0  0  0  0  0  0  0  0  0  0  0  0
   -2.7029    9.7741   -0.8908 O   0  0  0  0  0  0  0  0  0  0  0  0
   -0.7429   10.8604   -1.6066 C   0  0  0  0  0  0  0  0  0  0  0  0
   -0.5003   10.5565   -2.6376 H   0  0  0  0  0  0  0  0  0  0  0  0
   -1.3299   11.7874   -1.7068 H   0  0  0  0  0  0  0  0  0  0  0  0
    0.2163   11.1717   -1.1630 H   0  0  0  0  0  0  0  0  0  0  0  0
   -0.6592    8.9169   -0.1739 N   0  0  0  0  0  0  0  0  0  0  0  0
   -1.1614    7.8195    0.6135 C   0  0  2  0  0  0  0  0  0  0  0  0
   -0.2493    7.6200    1.8222 C   0  0  0  0  0  0  0  0  0  0  0  0
    0.7987    8.2429    1.9803 O   0  0  0  0  0  0  0  0  0  0  0  0
   -1.3561    6.5481   -0.2164 C   0  0  0  0  0  0  0  0  0  0  0  0
    0.1898    5.8863   -0.9199 S   0  0  0  0  0  0  0  0  0  0  0  0
    0.3480    9.0502   -0.2301 H   0  0  0  0  0  0  0  0  0  0  0  0
   -2.1391    8.1481    0.9872 H   0  0  0  0  0  0  0  0  0  0  0  0
   -1.8039    5.7562    0.3929 H   0  0  0  0  0  0  0  0  0  0  0  0
   -2.0369    6.7478   -1.0509 H   0  0  0  0  0  0  0  0  0  0  0  0
   -0.7307    6.6487    2.6884 N   0  0  0  0  0  0  0  0  0  0  0  0
   -0.0318    6.2626    3.8919 C   0  0  0  0  0  0  0  0  0  0  0  0
   -1.6293    6.2135    2.5019 H   0  0  0  0  0  0  0  0  0  0  0  0
    0.6219    5.4043    3.6776 H   0  0  0  0  0  0  0  0  0  0  0  0
    0.5766    7.1065    4.2491 H   0  0  0  0  0  0  0  0  0  0  0  0
   -0.7617    5.9832    4.6659 H   0  0  0  0  0  0  0  0  0  0  0  0
   -6.7256    2.0330   -0.2766 C   0  0  0  0  0  0  0  0  0  0  0  0
   -7.1824    1.1039   -0.9322 O   0  0  0  0  0  0  0  0  0  0  0  0
   -7.5276    2.6077    0.8435 C   0  0  0  0  0  0  0  0  0  0  0  0
   -8.1775    3.4344    0.5145 H   0  0  0  0  0  0  0  0  0  0  0  0
   -8.2057    1.8676    1.2980 H   0  0  0  0  0  0  0  0  0  0  0  0
   -6.9411    3.0162    1.6819 H   0  0  0  0  0  0  0  0  0  0  0  0
   -5.4935    2.6382   -0.4627 N   0  0  0  0  0  0  0  0  0  0  0  0
   -4.5619    2.2388   -1.4845 C   0  0  2  0  0  0  0  0  0  0  0  0
   -3.1535    2.4674   -0.9521 C   0  0  0  0  0  0  0  0  0  0  0  0
   -2.8634    3.3945   -0.1987 O   0  0  0  0  0  0  0  0  0  0  0  0
   -4.7883    3.0138   -2.7732 C   0  0  0  0  0  0  0  0  0  0  0  0
   -5.2337    3.4049    0.1551 H   0  0  0  0  0  0  0  0  0  0  0  0
   -4.7192    1.1682   -1.6549 H   0  0  0  0  0  0  0  0  0  0  0  0
   -4.6352    4.0886   -2.6221 H   0  0  0  0  0  0  0  0  0  0  0  0
   -4.0976    2.6887   -3.5582 H   0  0  0  0  0  0  0  0  0  0  0  0
   -5.8111    2.8719   -3.1387 H   0  0  0  0  0  0  0  0  0  0  0  0
   -2.2466    1.5400   -1.4507 N   0  0  0  0  0  0  0  0  0  0  0  0
   -0.8424    1.5707   -1.1286 C   0  0  2  0  0  0  0  0  0  0  0  0
   -0.5400    0.4565   -0.1287 C   0  0  0  0  0  0  0  0  0  0  0  0
   -1.4030   -0.2999    0.3124 O   0  0  0  0  0  0  0  0  0  0  0  0
   -0.3833    2.9521   -0.6553 C   0  0  0  0  0  0  0  0  0  0  0  0
   -0.4990    4.2339   -1.9266 S   0  0  0  0  0  0  0  0  0  0  0  0
   -2.5850    0.7815   -2.0381 H   0  0  0  0  0  0  0  0  0  0  0  0
   -0.3205    1.3280   -2.0625 H   0  0  0  0  0  0  0  0  0  0  0  0
   -0.9815    3.2839    0.1996 H   0  0  0  0  0  0  0  0  0  0  0  0
    0.6616    2.9067   -0.3297 H   0  0  0  0  0  0  0  0  0  0  0  0
    0.7999    0.4232    0.2307 N   0  0  0  0  0  0  0  0  0  0  0  0
    1.3280   -0.5265    1.1820 C   0  0  2  0  0  0  0  0  0  0  0  0
    2.4750    0.1429    1.9276 C   0  0  0  0  0  0  0  0  0  0  0  0
    3.2319    0.9569    1.4026 O   0  0  0  0  0  0  0  0  0  0  0  0
    1.7968   -1.7982    0.4923 C   0  0  0  0  0  0  0  0  0  0  0  0
    1.4534    1.0594   -0.2165 H   0  0  0  0  0  0  0  0  0  0  0  0
    0.5186   -0.7541    1.8842 H   0  0  0  0  0  0  0  0  0  0  0  0
    2.6077   -1.5901   -0.2153 H   0  0  0  0  0  0  0  0  0  0  0  0
    2.1704   -2.5284    1.2177 H   0  0  0  0  0  0  0  0  0  0  0  0
    0.9779   -2.2623   -0.0679 H   0  0  0  0  0  0  0  0  0  0  0  0
    2.5805   -0.3079    3.2359 N   0  0  0  0  0  0  0  0  0  0  0  0
    3.6159    0.1449    4.1354 C   0  0  0  0  0  0  0  0  0  0  0  0
    1.8857   -0.9533    3.5997 H   0  0  0  0  0  0  0  0  0  0  0  0
    4.4746   -0.5404    4.0814 H   0  0  0  0  0  0  0  0  0  0  0  0
    3.9357    1.1569    3.8464 H   0  0  0  0  0  0  0  0  0  0  0  0
    3.2257    0.1634    5.1637 H   0  0  0  0  0  0  0  0  0  0  0  0
  1  3  1  0  0  0  0
  1  7  1  0  0  0  0
  1  2  2  0  0  0  0
 23 25  1  0  0  0  0
 23 29  1  0  0  0  0
 23 24  2  0  0  0  0
 50 51  1  0  0  0  0
 51 59  1  0  0  0  0
 51 52  2  0  0  0  0
  8  9  1  0  0  0  0
  9 17  1  0  0  0  0
  9 10  2  0  0  0  0
 30 31  1  0  0  0  0
 31 39  1  0  0  0  0
 31 32  2  0  0  0  0
 40 41  1  0  0  0  0
 41 49  1  0  0  0  0
 41 42  2  0  0  0  0
 50 53  1  0  0  0  0
 30 33  1  0  0  0  0
 59 60  1  0  0  0  0
 17 18  1  0  0  0  0
  8 11  1  0  0  0  0
 11 12  1  0  0  0  0
 40 43  1  0  0  0  0
 43 44  1  0  0  0  0
 49 50  1  0  0  0  0
  7  8  1  0  0  0  0
 29 30  1  0  0  0  0
 39 40  1  0  0  0  0
 12 44  1  0  0  0  0
  3  4  1  0  0  0  0
  3  5  1  0  0  0  0
  3  6  1  0  0  0  0
 25 26  1  0  0  0  0
 25 27  1  0  0  0  0
 25 28  1  0  0  0  0
 53 56  1  0  0  0  0
 53 57  1  0  0  0  0
 53 58  1  0  0  0  0
 33 36  1  0  0  0  0
 33 37  1  0  0  0  0
 33 38  1  0  0  0  0
 60 62  1  0  0  0  0
 60 63  1  0  0  0  0
 60 64  1  0  0  0  0
 18 20  1  0  0  0  0
 18 21  1  0  0  0  0
 18 22  1  0  0  0  0
 11 15  1  0  0  0  0
 11 16  1  0  0  0  0
 43 47  1  0  0  0  0
 43 48  1  0  0  0  0
 50 55  1  0  0  0  0
  8 14  1  0  0  0  0
 30 35  1  0  0  0  0
 40 46  1  0  0  0  0
 59 61  1  0  0  0  0
 17 19  1  0  0  0  0
  7 13  1  0  0  0  0
 29 34  1  0  0  0  0
 49 54  1  0  0  0  0
 39 45  1  0  0  0  0
M  END
$$$$

  -OEChem-05262214473D

 64 63  0     1  0  0  0  0  0999 V2000
   -1.4781    9.7988   -0.8578 C   0  0  0  0  0  0  0  0  0  0  0  0
   -2.7029    9.7741   -0.8908 O   0  0  0  0  0  0  0  0  0  0  0  0
   -0.7429   10.8604   -1.6066 C   0  0  0  0  0  0  0  0  0  0  0  0
   -0.5003   10.5565   -2.6376 H   0  0  0  0  0  0  0  0  0  0  0  0
   -1.3299   11.7874   -1.7068 H   0  0  0  0  0  0  0  0  0  0  0  0
    0.2163   11.1717   -1.1630 H   0  0  0  0  0  0  0  0  0  0  0  0
   -0.6592    8.9169   -0.1739 N   0  0  0  0  0  0  0  0  0  0  0  0
   -1.1614    7.8195    0.6135 C   0  0  2  0  0  0  0  0  0  0  0  0
   -0.2493    7.6200    1.8222 C   0  0  0  0  0  0  0  0  0  0  0  0
    0.7987    8.2429    1.9803 O   0  0  0  0  0  0  0  0  0  0  0  0
   -1.3561    6.5481   -0.2164 C   0  0  0  0  0  0  0  0  0  0  0  0
    0.1898    5.8863   -0.9199 S   0  0  0  0  0  0  0  0  0  0  0  0
    0.3480    9.0502   -0.2301 H   0  0  0  0  0  0  0  0  0  0  0  0
   -2.1391    8.1481    0.9872 H   0  0  0  0  0  0  0  0  0  0  0  0
   -1.8039    5.7562    0.3929 H   0  0  0  0  0  0  0  0  0  0  0  0
   -2.0369    6.7478   -1.0509 H   0  0  0  0  0  0  0  0  0  0  0  0
   -0.7307    6.6487    2.6884 N   0  0  0  0  0  0  0  0  0  0  0  0
   -0.0318    6.2626    3.8919 C   0  0  0  0  0  0  0  0  0  0  0  0
   -1.6293    6.2135    2.5019 H   0  0  0  0  0  0  0  0  0  0  0  0
    0.6219    5.4043    3.6776 H   0  0  0  0  0  0  0  0  0  0  0  0
    0.5766    7.1065    4.2491 H   0  0  0  0  0  0  0  0  0  0  0  0
   -0.7617    5.9832    4.6659 H   0  0  0  0  0  0  0  0  0  0  0  0
   -6.7256    2.0330   -0.2766 C   0  0  0  0  0  0  0  0  0  0  0  0
   -7.1824    1.1039   -0.9322 O   0  0  0  0  0  0  0  0  0  0  0  0
   -7.5276    2.6077    0.8435 C   0  0  0  0  0  0  0  0  0  0  0  0
   -8.1775    3.4344    0.5145 H   0  0  0  0  0  0  0  0  0  0  0  0
   -8.2057    1.8676    1.2980 H   0  0  0  0  0  0  0  0  0  0  0  0
   -6.9411    3.0162    1.6819 H   0  0  0  0  0  0  0  0  0  0  0  0
   -5.4935    2.6382   -0.4627 N   0  0  0  0  0  0  0  0  0  0  0  0
   -4.5619    2.2388   -1.4845 C   0  0  2  0  0  0  0  0  0  0  0  0
   -3.1535    2.4674   -0.9521 C   0  0  0  0  0  0  0  0  0  0  0  0
   -2.8634    3.3945   -0.1987 O   0  0  0  0  0  0  0  0  0  0  0  0
   -4.7883    3.0138   -2.7732 C   0  0  0  0  0  0  0  0  0  0  0  0
   -5.2337    3.4049    0.1551 H   0  0  0  0  0  0  0  0  0  0  0  0
   -4.7192    1.1682   -1.6549 H   0  0  0  0  0  0  0  0  0  0  0  0
   -4.6352    4.0886   -2.6221 H   0  0  0  0  0  0  0  0  0  0  0  0
   -4.0976    2.6887   -3.5582 H   0  0  0  0  0  0  0  0  0  0  0  0
   -5.8111    2.8719   -3.1387 H   0  0  0  0  0  0  0  0  0  0  0  0
   -2.2466    1.5400   -1.4507 N   0  0  0  0  0  0  0  0  0  0  0  0
   -0.8424    1.5707   -1.1286 C   0  0  2  0  0  0  0  0  0  0  0  0
   -0.5400    0.4565   -0.1287 C   0  0  0  0  0  0  0  0  0  0  0  0
   -1.3241   -0.4596    0.1106 O   0  0  0  0  0  0  0  0  0  0  0  0
   -0.3833    2.9521   -0.6553 C   0  0  0  0  0  0  0  0  0  0  0  0
   -0.4990    4.2339   -1.9266 S   0  0  0  0  0  0  0  0  0  0  0  0
   -2.5850    0.7815   -2.0381 H   0  0  0  0  0  0  0  0  0  0  0  0
   -0.3205    1.3280   -2.0625 H   0  0  0  0  0  0  0  0  0  0  0  0
   -0.9815    3.2839    0.1996 H   0  0  0  0  0  0  0  0  0  0  0  0
    0.6616    2.9067   -0.3297 H   0  0  0  0  0  0  0  0  0  0  0  0
    0.6956    0.6199    0.4814 N   0  0  0  0  0  0  0  0  0  0  0  0
    1.1966   -0.2920    1.4830 C   0  0  2  0  0  0  0  0  0  0  0  0
    2.0518    0.5051    2.4591 C   0  0  0  0  0  0  0  0  0  0  0  0
    2.7388    1.4660    2.1191 O   0  0  0  0  0  0  0  0  0  0  0  0
    1.9990   -1.4197    0.8528 C   0  0  0  0  0  0  0  0  0  0  0  0
    1.2992    1.3837    0.1915 H   0  0  0  0  0  0  0  0  0  0  0  0
    0.3239   -0.6965    2.0072 H   0  0  0  0  0  0  0  0  0  0  0  0
    2.8775   -1.0337    0.3230 H   0  0  0  0  0  0  0  0  0  0  0  0
    2.3539   -2.1258    1.6108 H   0  0  0  0  0  0  0  0  0  0  0  0
    1.3911   -1.9733    0.1291 H   0  0  0  0  0  0  0  0  0  0  0  0
    1.9912   -0.0095    3.7467 N   0  0  0  0  0  0  0  0  0  0  0  0
    2.7479    0.5456    4.8445 C   0  0  0  0  0  0  0  0  0  0  0  0
    1.3646   -0.7836    3.9465 H   0  0  0  0  0  0  0  0  0  0  0  0
    3.7080    0.0162    4.9336 H   0  0  0  0  0  0  0  0  0  0  0  0
    2.9341    1.6137    4.6583 H   0  0  0  0  0  0  0  0  0  0  0  0
    2.1777    0.4302    5.7781 H   0  0  0  0  0  0  0  0  0  0  0  0
  1  3  1  0  0  0  0
  1  7  1  0  0  0  0
  1  2  2  0  0  0  0
 23 25  1  0  0  0  0
 23 29  1  0  0  0  0
 23 24  2  0  0  0  0
 50 51  1  0  0  0  0
 51 59  1  0  0  0  0
 51 52  2  0  0  0  0
  8  9  1  0  0  0  0
  9 17  1  0  0  0  0
  9 10  2  0  0  0  0
 30 31  1  0  0  0  0
 31 39  1  0  0  0  0
 31 32  2  0  0  0  0
 40 41  1  0  0  0  0
 41 49  1  0  0  0  0
 41 42  2  0  0  0  0
 50 53  1  0  0  0  0
 30 33  1  0  0  0  0
 59 60  1  0  0  0  0
 17 18  1  0  0  0  0
  8 11  1  0  0  0  0
 11 12  1  0  0  0  0
 40 43  1  0  0  0  0
 43 44  1  0  0  0  0
 49 50  1  0  0  0  0
  7  8  1  0  0  0  0
 29 30  1  0  0  0  0
 39 40  1  0  0  0  0
 12 44  1  0  0  0  0
  3  4  1  0  0  0  0
  3  5  1  0  0  0  0
  3  6  1  0  0  0  0
 25 26  1  0  0  0  0
 25 27  1  0  0  0  0
 25 28  1  0  0  0  0
 53 56  1  0  0  0  0
 53 57  1  0  0  0  0
 53 58  1  0  0  0  0
 33 36  1  0  0  0  0
 33 37  1  0  0  0  0
 33 38  1  0  0  0  0
 60 62  1  0  0  0  0
 60 63  1  0  0  0  0
 60 64  1  0  0  0  0
 18 20  1  0  0  0  0
 18 21  1  0  0  0  0
 18 22  1  0  0  0  0
 11 15  1  0  0  0  0
 11 16  1  0  0  0  0
 43 47  1  0  0  0  0
 43 48  1  0  0  0  0
 50 55  1  0  0  0  0
  8 14  1  0  0  0  0
 30 35  1  0  0  0  0
 40 46  1  0  0  0  0
 59 61  1  0  0  0  0
 17 19  1  0  0  0  0
  7 13  1  0  0  0  0
 29 34  1  0  0  0  0
 49 54  1  0  0  0  0
 39 45  1  0  0  0  0
M  END
$$$$

  -OEChem-05262214473D

 64 63  0     1  0  0  0  0  0999 V2000
   -1.4781    9.7988   -0.8578 C   0  0  0  0  0  0  0  0  0  0  0  0
   -2.7029    9.7741   -0.8908 O   0  0  0  0  0  0  0  0  0  0  0  0
   -0.7429   10.8604   -1.6066 C   0  0  0  0  0  0  0  0  0  0  0  0
   -0.5003   10.5565   -2.6376 H   0  0  0  0  0  0  0  0  0  0  0  0
   -1.3299   11.7874   -1.7068 H   0  0  0  0  0  0  0  0  0  0  0  0
    0.2163   11.1717   -1.1630 H   0  0  0  0  0  0  0  0  0  0  0  0
   -0.6592    8.9169   -0.1739 N   0  0  0  0  0  0  0  0  0  0  0  0
   -1.1614    7.8195    0.6135 C   0  0  2  0  0  0  0  0  0  0  0  0
   -0.2493    7.6200    1.8222 C   0  0  0  0  0  0  0  0  0  0  0  0
    0.7987    8.2429    1.9803 O   0  0  0  0  0  0  0  0  0  0  0  0
   -1.3561    6.5481   -0.2164 C   0  0  0  0  0  0  0  0  0  0  0  0
    0.1898    5.8863   -0.9199 S   0  0  0  0  0  0  0  0  0  0  0  0
    0.3480    9.0502   -0.2301 H   0  0  0  0  0  0  0  0  0  0  0  0
   -2.1391    8.1481    0.9872 H   0  0  0  0  0  0  0  0  0  0  0  0
   -1.8039    5.7562    0.3929 H   0  0  0  0  0  0  0  0  0  0  0  0
   -2.0369    6.7478   -1.0509 H   0  0  0  0  0  0  0  0  0  0  0  0
   -0.7307    6.6487    2.6884 N   0  0  0  0  0  0  0  0  0  0  0  0
   -0.0318    6.2626    3.8919 C   0  0  0  0  0  0  0  0  0  0  0  0
   -1.6293    6.2135    2.5019 H   0  0  0  0  0  0  0  0  0  0  0  0
    0.6219    5.4043    3.6776 H   0  0  0  0  0  0  0  0  0  0  0  0
    0.5766    7.1065    4.2491 H   0  0  0  0  0  0  0  0  0  0  0  0
   -0.7617    5.9832    4.6659 H   0  0  0  0  0  0  0  0  0  0  0  0
   -6.7256    2.0330   -0.2766 C   0  0  0  0  0  0  0  0  0  0  0  0
   -7.1824    1.1039   -0.9322 O   0  0  0  0  0  0  0  0  0  0  0  0
   -7.5276    2.6077    0.8435 C   0  0  0  0  0  0  0  0  0  0  0  0
   -8.1775    3.4344    0.5145 H   0  0  0  0  0  0  0  0  0  0  0  0
   -8.2057    1.8676    1.2980 H   0  0  0  0  0  0  0  0  0  0  0  0
   -6.9411    3.0162    1.6819 H   0  0  0  0  0  0  0  0  0  0  0  0
   -5.4935    2.6382   -0.4627 N   0  0  0  0  0  0  0  0  0  0  0  0
   -4.5619    2.2388   -1.4845 C   0  0  2  0  0  0  0  0  0  0  0  0
   -3.1535    2.4674   -0.9521 C   0  0  0  0  0  0  0  0  0  0  0  0
   -2.8634    3.3945   -0.1987 O   0  0  0  0  0  0  0  0  0  0  0  0
   -4.7883    3.0138   -2.7732 C   0  0  0  0  0  0  0  0  0  0  0  0
   -5.2337    3.4049    0.1551 H   0  0  0  0  0  0  0  0  0  0  0  0
   -4.7192    1.1682   -1.6549 H   0  0  0  0  0  0  0  0  0  0  0  0
   -4.6352    4.0886   -2.6221 H   0  0  0  0  0  0  0  0  0  0  0  0
   -4.0976    2.6887   -3.5582 H   0  0  0  0  0  0  0  0  0  0  0  0
   -5.8111    2.8719   -3.1387 H   0  0  0  0  0  0  0  0  0  0  0  0
   -2.2466    1.5400   -1.4507 N   0  0  0  0  0  0  0  0  0  0  0  0
   -0.8424    1.5707   -1.1286 C   0  0  2  0  0  0  0  0  0  0  0  0
   -0.5400    0.4565   -0.1287 C   0  0  0  0  0  0  0  0  0  0  0  0
   -1.1828   -0.5901   -0.0777 O   0  0  0  0  0  0  0  0  0  0  0  0
   -0.3833    2.9521   -0.6553 C   0  0  0  0  0  0  0  0  0  0  0  0
   -0.4990    4.2339   -1.9266 S   0  0  0  0  0  0  0  0  0  0  0  0
   -2.5850    0.7815   -2.0381 H   0  0  0  0  0  0  0  0  0  0  0  0
   -0.3205    1.3280   -2.0625 H   0  0  0  0  0  0  0  0  0  0  0  0
   -0.9815    3.2839    0.1996 H   0  0  0  0  0  0  0  0  0  0  0  0
    0.6616    2.9067   -0.3297 H   0  0  0  0  0  0  0  0  0  0  0  0
    0.5142    0.7794    0.7140 N   0  0  0  0  0  0  0  0  0  0  0  0
    0.9731   -0.1032    1.7610 C   0  0  2  0  0  0  0  0  0  0  0  0
    1.4813    0.7559    2.9113 C   0  0  0  0  0  0  0  0  0  0  0  0
    2.0410    1.8376    2.7442 O   0  0  0  0  0  0  0  0  0  0  0  0
    2.0620   -1.0384    1.2587 C   0  0  0  0  0  0  0  0  0  0  0  0
    1.0183    1.6498    0.5731 H   0  0  0  0  0  0  0  0  0  0  0  0
    0.1028   -0.6803    2.0922 H   0  0  0  0  0  0  0  0  0  0  0  0
    2.9422   -0.4782    0.9224 H   0  0  0  0  0  0  0  0  0  0  0  0
    2.3887   -1.7260    2.0457 H   0  0  0  0  0  0  0  0  0  0  0  0
    1.7040   -1.6343    0.4122 H   0  0  0  0  0  0  0  0  0  0  0  0
    1.2750    0.1527    4.1440 N   0  0  0  0  0  0  0  0  0  0  0  0
    1.7077    0.7493    5.3861 C   0  0  0  0  0  0  0  0  0  0  0  0
    0.7670   -0.7256    4.1917 H   0  0  0  0  0  0  0  0  0  0  0  0
    2.7122    0.3803    5.6404 H   0  0  0  0  0  0  0  0  0  0  0  0
    1.7360    1.8435    5.2769 H   0  0  0  0  0  0  0  0  0  0  0  0
    1.0041    0.4789    6.1873 H   0  0  0  0  0  0  0  0  0  0  0  0
  1  3  1  0  0  0  0
  1  7  1  0  0  0  0
  1  2  2  0  0  0  0
 23 25  1  0  0  0  0
 23 29  1  0  0  0  0
 23 24  2  0  0  0  0
 50 51  1  0  0  0  0
 51 59  1  0  0  0  0
 51 52  2  0  0  0  0
  8  9  1  0  0  0  0
  9 17  1  0  0  0  0
  9 10  2  0  0  0  0
 30 31  1  0  0  0  0
 31 39  1  0  0  0  0
 31 32  2  0  0  0  0
 40 41  1  0  0  0  0
 41 49  1  0  0  0  0
 41 42  2  0  0  0  0
 50 53  1  0  0  0  0
 30 33  1  0  0  0  0
 59 60  1  0  0  0  0
 17 18  1  0  0  0  0
  8 11  1  0  0  0  0
 11 12  1  0  0  0  0
 40 43  1  0  0  0  0
 43 44  1  0  0  0  0
 49 50  1  0  0  0  0
  7  8  1  0  0  0  0
 29 30  1  0  0  0  0
 39 40  1  0  0  0  0
 12 44  1  0  0  0  0
  3  4  1  0  0  0  0
  3  5  1  0  0  0  0
  3  6  1  0  0  0  0
 25 26  1  0  0  0  0
 25 27  1  0  0  0  0
 25 28  1  0  0  0  0
 53 56  1  0  0  0  0
 53 57  1  0  0  0  0
 53 58  1  0  0  0  0
 33 36  1  0  0  0  0
 33 37  1  0  0  0  0
 33 38  1  0  0  0  0
 60 62  1  0  0  0  0
 60 63  1  0  0  0  0
 60 64  1  0  0  0  0
 18 20  1  0  0  0  0
 18 21  1  0  0  0  0
 18 22  1  0  0  0  0
 11 15  1  0  0  0  0
 11 16  1  0  0  0  0
 43 47  1  0  0  0  0
 43 48  1  0  0  0  0
 50 55  1  0  0  0  0
  8 14  1  0  0  0  0
 30 35  1  0  0  0  0
 40 46  1  0  0  0  0
 59 61  1  0  0  0  0
 17 19  1  0  0  0  0
  7 13  1  0  0  0  0
 29 34  1  0  0  0  0
 49 54  1  0  0  0  0
 39 45  1  0  0  0  0
M  END
$$$$

  -OEChem-05262214473D

 64 63  0     1  0  0  0  0  0999 V2000
   -1.4781    9.7988   -0.8578 C   0  0  0  0  0  0  0  0  0  0  0  0
   -2.7029    9.7741   -0.8908 O   0  0  0  0  0  0  0  0  0  0  0  0
   -0.7429   10.8604   -1.6066 C   0  0  0  0  0  0  0  0  0  0  0  0
   -0.5003   10.5565   -2.6376 H   0  0  0  0  0  0  0  0  0  0  0  0
   -1.3299   11.7874   -1.7068 H   0  0  0  0  0  0  0  0  0  0  0  0
    0.2163   11.1717   -1.1630 H   0  0  0  0  0  0  0  0  0  0  0  0
   -0.6592    8.9169   -0.1739 N   0  0  0  0  0  0  0  0  0  0  0  0
   -1.1614    7.8195    0.6135 C   0  0  2  0  0  0  0  0  0  0  0  0
   -0.2493    7.6200    1.8222 C   0  0  0  0  0  0  0  0  0  0  0  0
    0.7987    8.2429    1.9803 O   0  0  0  0  0  0  0  0  0  0  0  0
   -1.3561    6.5481   -0.2164 C   0  0  0  0  0  0  0  0  0  0  0  0
    0.1898    5.8863   -0.9199 S   0  0  0  0  0  0  0  0  0  0  0  0
    0.3480    9.0502   -0.2301 H   0  0  0  0  0  0  0  0  0  0  0  0
   -2.1391    8.1481    0.9872 H   0  0  0  0  0  0  0  0  0  0  0  0
   -1.8039    5.7562    0.3929 H   0  0  0  0  0  0  0  0  0  0  0  0
   -2.0369    6.7478   -1.0509 H   0  0  0  0  0  0  0  0  0  0  0  0
   -0.7307    6.6487    2.6884 N   0  0  0  0  0  0  0  0  0  0  0  0
   -0.0318    6.2626    3.8919 C   0  0  0  0  0  0  0  0  0  0  0  0
   -1.6293    6.2135    2.5019 H   0  0  0  0  0  0  0  0  0  0  0  0
    0.6219    5.4043    3.6776 H   0  0  0  0  0  0  0  0  0  0  0  0
    0.5766    7.1065    4.2491 H   0  0  0  0  0  0  0  0  0  0  0  0
   -0.7617    5.9832    4.6659 H   0  0  0  0  0  0  0  0  0  0  0  0
   -6.7256    2.0330   -0.2766 C   0  0  0  0  0  0  0  0  0  0  0  0
   -7.1824    1.1039   -0.9322 O   0  0  0  0  0  0  0  0  0  0  0  0
   -7.5276    2.6077    0.8435 C   0  0  0  0  0  0  0  0  0  0  0  0
   -8.1775    3.4344    0.5145 H   0  0  0  0  0  0  0  0  0  0  0  0
   -8.2057    1.8676    1.2980 H   0  0  0  0  0  0  0  0  0  0  0  0
   -6.9411    3.0162    1.6819 H   0  0  0  0  0  0  0  0  0  0  0  0
   -5.4935    2.6382   -0.4627 N   0  0  0  0  0  0  0  0  0  0  0  0
   -4.5619    2.2388   -1.4845 C   0  0  2  0  0  0  0  0  0  0  0  0
   -3.1535    2.4674   -0.9521 C   0  0  0  0  0  0  0  0  0  0  0  0
   -2.8634    3.3945   -0.1987 O   0  0  0  0  0  0  0  0  0  0  0  0
   -4.7883    3.0138   -2.7732 C   0  0  0  0  0  0  0  0  0  0  0  0
   -5.2337    3.4049    0.1551 H   0  0  0  0  0  0  0  0  0  0  0  0
   -4.7192    1.1682   -1.6549 H   0  0  0  0  0  0  0  0  0  0  0  0
   -4.6352    4.0886   -2.6221 H   0  0  0  0  0  0  0  0  0  0  0  0
   -4.0976    2.6887   -3.5582 H   0  0  0  0  0  0  0  0  0  0  0  0
   -5.8111    2.8719   -3.1387 H   0  0  0  0  0  0  0  0  0  0  0  0
   -2.2466    1.5400   -1.4507 N   0  0  0  0  0  0  0  0  0  0  0  0
   -0.8424    1.5707   -1.1286 C   0  0  2  0  0  0  0  0  0  0  0  0
   -0.5400    0.4565   -0.1287 C   0  0  0  0  0  0  0  0  0  0  0  0
   -0.9887   -0.6827   -0.2395 O   0  0  0  0  0  0  0  0  0  0  0  0
   -0.3833    2.9521   -0.6553 C   0  0  0  0  0  0  0  0  0  0  0  0
   -0.4990    4.2339   -1.9266 S   0  0  0  0  0  0  0  0  0  0  0  0
   -2.5850    0.7815   -2.0381 H   0  0  0  0  0  0  0  0  0  0  0  0
   -0.3205    1.3280   -2.0625 H   0  0  0  0  0  0  0  0  0  0  0  0
   -0.9815    3.2839    0.1996 H   0  0  0  0  0  0  0  0  0  0  0  0
    0.6616    2.9067   -0.3297 H   0  0  0  0  0  0  0  0  0  0  0  0
    0.2680    0.8908    0.9126 N   0  0  0  0  0  0  0  0  0  0  0  0
    0.6727    0.0270    1.9970 C   0  0  2  0  0  0  0  0  0  0  0  0
    0.8024    0.8784    3.2531 C   0  0  0  0  0  0  0  0  0  0  0  0
    1.1859    2.0462    3.2353 O   0  0  0  0  0  0  0  0  0  0  0  0
    1.9817   -0.6802    1.6821 C   0  0  0  0  0  0  0  0  0  0  0  0
    0.6298    1.8398    0.9023 H   0  0  0  0  0  0  0  0  0  0  0  0
   -0.1295   -0.7064    2.1334 H   0  0  0  0  0  0  0  0  0  0  0  0
    2.7973    0.0386    1.5421 H   0  0  0  0  0  0  0  0  0  0  0  0
    2.2724   -1.3562    2.4930 H   0  0  0  0  0  0  0  0  0  0  0  0
    1.8954   -1.2683    0.7621 H   0  0  0  0  0  0  0  0  0  0  0  0
    0.4807    0.1676    4.4009 N   0  0  0  0  0  0  0  0  0  0  0  0
    0.5662    0.7420    5.7233 C   0  0  0  0  0  0  0  0  0  0  0  0
    0.1337   -0.7835    4.3188 H   0  0  0  0  0  0  0  0  0  0  0  0
    1.5553    0.5270    6.1538 H   0  0  0  0  0  0  0  0  0  0  0  0
    0.4229    1.8308    5.6599 H   0  0  0  0  0  0  0  0  0  0  0  0
   -0.2149    0.3060    6.3635 H   0  0  0  0  0  0  0  0  0  0  0  0
  1  3  1  0  0  0  0
  1  7  1  0  0  0  0
  1  2  2  0  0  0  0
 23 25  1  0  0  0  0
 23 29  1  0  0  0  0
 23 24  2  0  0  0  0
 50 51  1  0  0  0  0
 51 59  1  0  0  0  0
 51 52  2  0  0  0  0
  8  9  1  0  0  0  0
  9 17  1  0  0  0  0
  9 10  2  0  0  0  0
 30 31  1  0  0  0  0
 31 39  1  0  0  0  0
 31 32  2  0  0  0  0
 40 41  1  0  0  0  0
 41 49  1  0  0  0  0
 41 42  2  0  0  0  0
 50 53  1  0  0  0  0
 30 33  1  0  0  0  0
 59 60  1  0  0  0  0
 17 18  1  0  0  0  0
  8 11  1  0  0  0  0
 11 12  1  0  0  0  0
 40 43  1  0  0  0  0
 43 44  1  0  0  0  0
 49 50  1  0  0  0  0
  7  8  1  0  0  0  0
 29 30  1  0  0  0  0
 39 40  1  0  0  0  0
 12 44  1  0  0  0  0
  3  4  1  0  0  0  0
  3  5  1  0  0  0  0
  3  6  1  0  0  0  0
 25 26  1  0  0  0  0
 25 27  1  0  0  0  0
 25 28  1  0  0  0  0
 53 56  1  0  0  0  0
 53 57  1  0  0  0  0
 53 58  1  0  0  0  0
 33 36  1  0  0  0  0
 33 37  1  0  0  0  0
 33 38  1  0  0  0  0
 60 62  1  0  0  0  0
 60 63  1  0  0  0  0
 60 64  1  0  0  0  0
 18 20  1  0  0  0  0
 18 21  1  0  0  0  0
 18 22  1  0  0  0  0
 11 15  1  0  0  0  0
 11 16  1  0  0  0  0
 43 47  1  0  0  0  0
 43 48  1  0  0  0  0
 50 55  1  0  0  0  0
  8 14  1  0  0  0  0
 30 35  1  0  0  0  0
 40 46  1  0  0  0  0
 59 61  1  0  0  0  0
 17 19  1  0  0  0  0
  7 13  1  0  0  0  0
 29 34  1  0  0  0  0
 49 54  1  0  0  0  0
 39 45  1  0  0  0  0
M  END
$$$$

  -OEChem-05262214473D

 64 63  0     1  0  0  0  0  0999 V2000
   -1.4781    9.7988   -0.8578 C   0  0  0  0  0  0  0  0  0  0  0  0
   -2.7029    9.7741   -0.8908 O   0  0  0  0  0  0  0  0  0  0  0  0
   -0.7429   10.8604   -1.6066 C   0  0  0  0  0  0  0  0  0  0  0  0
   -0.5003   10.5565   -2.6376 H   0  0  0  0  0  0  0  0  0  0  0  0
   -1.3299   11.7874   -1.7068 H   0  0  0  0  0  0  0  0  0  0  0  0
    0.2163   11.1717   -1.1630 H   0  0  0  0  0  0  0  0  0  0  0  0
   -0.6592    8.9169   -0.1739 N   0  0  0  0  0  0  0  0  0  0  0  0
   -1.1614    7.8195    0.6135 C   0  0  2  0  0  0  0  0  0  0  0  0
   -0.2493    7.6200    1.8222 C   0  0  0  0  0  0  0  0  0  0  0  0
    0.7987    8.2429    1.9803 O   0  0  0  0  0  0  0  0  0  0  0  0
   -1.3561    6.5481   -0.2164 C   0  0  0  0  0  0  0  0  0  0  0  0
    0.1898    5.8863   -0.9199 S   0  0  0  0  0  0  0  0  0  0  0  0
    0.3480    9.0502   -0.2301 H   0  0  0  0  0  0  0  0  0  0  0  0
   -2.1391    8.1481    0.9872 H   0  0  0  0  0  0  0  0  0  0  0  0
   -1.8039    5.7562    0.3929 H   0  0  0  0  0  0  0  0  0  0  0  0
   -2.0369    6.7478   -1.0509 H   0  0  0  0  0  0  0  0  0  0  0  0
   -0.7307    6.6487    2.6884 N   0  0  0  0  0  0  0  0  0  0  0  0
   -0.0318    6.2626    3.8919 C   0  0  0  0  0  0  0  0  0  0  0  0
   -1.6293    6.2135    2.5019 H   0  0  0  0  0  0  0  0  0  0  0  0
    0.6219    5.4043    3.6776 H   0  0  0  0  0  0  0  0  0  0  0  0
    0.5766    7.1065    4.2491 H   0  0  0  0  0  0  0  0  0  0  0  0
   -0.7617    5.9832    4.6659 H   0  0  0  0  0  0  0  0  0  0  0  0
   -6.7256    2.0330   -0.2766 C   0  0  0  0  0  0  0  0  0  0  0  0
   -7.1824    1.1039   -0.9322 O   0  0  0  0  0  0  0  0  0  0  0  0
   -7.5276    2.6077    0.8435 C   0  0  0  0  0  0  0  0  0  0  0  0
   -8.1775    3.4344    0.5145 H   0  0  0  0  0  0  0  0  0  0  0  0
   -8.2057    1.8676    1.2980 H   0  0  0  0  0  0  0  0  0  0  0  0
   -6.9411    3.0162    1.6819 H   0  0  0  0  0  0  0  0  0  0  0  0
   -5.4935    2.6382   -0.4627 N   0  0  0  0  0  0  0  0  0  0  0  0
   -4.5619    2.2388   -1.4845 C   0  0  2  0  0  0  0  0  0  0  0  0
   -3.1535    2.4674   -0.9521 C   0  0  0  0  0  0  0  0  0  0  0  0
   -2.8634    3.3945   -0.1987 O   0  0  0  0  0  0  0  0  0  0  0  0
   -4.7883    3.0138   -2.7732 C   0  0  0  0  0  0  0  0  0  0  0  0
   -5.2337    3.4049    0.1551 H   0  0  0  0  0  0  0  0  0  0  0  0
   -4.7192    1.1682   -1.6549 H   0  0  0  0  0  0  0  0  0  0  0  0
   -4.6352    4.0886   -2.6221 H   0  0  0  0  0  0  0  0  0  0  0  0
   -4.0976    2.6887   -3.5582 H   0  0  0  0  0  0  0  0  0  0  0  0
   -5.8111    2.8719   -3.1387 H   0  0  0  0  0  0  0  0  0  0  0  0
   -2.2466    1.5400   -1.4507 N   0  0  0  0  0  0  0  0  0  0  0  0
   -0.8424    1.5707   -1.1286 C   0  0  2  0  0  0  0  0  0  0  0  0
   -0.5400    0.4565   -0.1287 C   0  0  0  0  0  0  0  0  0  0  0  0
   -0.7549   -0.7308   -0.3639 O   0  0  0  0  0  0  0  0  0  0  0  0
   -0.3833    2.9521   -0.6553 C   0  0  0  0  0  0  0  0  0  0  0  0
   -0.4990    4.2339   -1.9266 S   0  0  0  0  0  0  0  0  0  0  0  0
   -2.5850    0.7815   -2.0381 H   0  0  0  0  0  0  0  0  0  0  0  0
   -0.3205    1.3280   -2.0625 H   0  0  0  0  0  0  0  0  0  0  0  0
   -0.9815    3.2839    0.1996 H   0  0  0  0  0  0  0  0  0  0  0  0
    0.6616    2.9067   -0.3297 H   0  0  0  0  0  0  0  0  0  0  0  0
   -0.0262    0.9465    1.0636 N   0  0  0  0  0  0  0  0  0  0  0  0
    0.3159    0.0898    2.1749 C   0  0  2  0  0  0  0  0  0  0  0  0
    0.0613    0.8642    3.4614 C   0  0  0  0  0  0  0  0  0  0  0  0
    0.2319    2.0776    3.5589 O   0  0  0  0  0  0  0  0  0  0  0  0
    1.7634   -0.3695    2.0944 C   0  0  0  0  0  0  0  0  0  0  0  0
    0.1602    1.9406    1.1566 H   0  0  0  0  0  0  0  0  0  0  0  0
   -0.3573   -0.7731    2.1280 H   0  0  0  0  0  0  0  0  0  0  0  0
    2.4529    0.4815    2.1398 H   0  0  0  0  0  0  0  0  0  0  0  0
    2.0130   -1.0416    2.9219 H   0  0  0  0  0  0  0  0  0  0  0  0
    1.9522   -0.9003    1.1550 H   0  0  0  0  0  0  0  0  0  0  0  0
   -0.3375    0.0343    4.4998 N   0  0  0  0  0  0  0  0  0  0  0  0
   -0.5989    0.5243    5.8331 C   0  0  0  0  0  0  0  0  0  0  0  0
   -0.4922   -0.9532    4.3190 H   0  0  0  0  0  0  0  0  0  0  0  0
    0.3160    0.4463    6.4389 H   0  0  0  0  0  0  0  0  0  0  0  0
   -0.9157    1.5764    5.7813 H   0  0  0  0  0  0  0  0  0  0  0  0
   -1.3964   -0.0765    6.2946 H   0  0  0  0  0  0  0  0  0  0  0  0
  1  3  1  0  0  0  0
  1  7  1  0  0  0  0
  1  2  2  0  0  0  0
 23 25  1  0  0  0  0
 23 29  1  0  0  0  0
 23 24  2  0  0  0  0
 50 51  1  0  0  0  0
 51 59  1  0  0  0  0
 51 52  2  0  0  0  0
  8  9  1  0  0  0  0
  9 17  1  0  0  0  0
  9 10  2  0  0  0  0
 30 31  1  0  0  0  0
 31 39  1  0  0  0  0
 31 32  2  0  0  0  0
 40 41  1  0  0  0  0
 41 49  1  0  0  0  0
 41 42  2  0  0  0  0
 50 53  1  0  0  0  0
 30 33  1  0  0  0  0
 59 60  1  0  0  0  0
 17 18  1  0  0  0  0
  8 11  1  0  0  0  0
 11 12  1  0  0  0  0
 40 43  1  0  0  0  0
 43 44  1  0  0  0  0
 49 50  1  0  0  0  0
  7  8  1  0  0  0  0
 29 30  1  0  0  0  0
 39 40  1  0  0  0  0
 12 44  1  0  0  0  0
  3  4  1  0  0  0  0
  3  5  1  0  0  0  0
  3  6  1  0  0  0  0
 25 26  1  0  0  0  0
 25 27  1  0  0  0  0
 25 28  1  0  0  0  0
 53 56  1  0  0  0  0
 53 57  1  0  0  0  0
 53 58  1  0  0  0  0
 33 36  1  0  0  0  0
 33 37  1  0  0  0  0
 33 38  1  0  0  0  0
 60 62  1  0  0  0  0
 60 63  1  0  0  0  0
 60 64  1  0  0  0  0
 18 20  1  0  0  0  0
 18 21  1  0  0  0  0
 18 22  1  0  0  0  0
 11 15  1  0  0  0  0
 11 16  1  0  0  0  0
 43 47  1  0  0  0  0
 43 48  1  0  0  0  0
 50 55  1  0  0  0  0
  8 14  1  0  0  0  0
 30 35  1  0  0  0  0
 40 46  1  0  0  0  0
 59 61  1  0  0  0  0
 17 19  1  0  0  0  0
  7 13  1  0  0  0  0
 29 34  1  0  0  0  0
 49 54  1  0  0  0  0
 39 45  1  0  0  0  0
M  END
$$$$

  -OEChem-05262214473D

 64 63  0     1  0  0  0  0  0999 V2000
   -1.4781    9.7988   -0.8578 C   0  0  0  0  0  0  0  0  0  0  0  0
   -2.7029    9.7741   -0.8908 O   0  0  0  0  0  0  0  0  0  0  0  0
   -0.7429   10.8604   -1.6066 C   0  0  0  0  0  0  0  0  0  0  0  0
   -0.5003   10.5565   -2.6376 H   0  0  0  0  0  0  0  0  0  0  0  0
   -1.3299   11.7874   -1.7068 H   0  0  0  0  0  0  0  0  0  0  0  0
    0.2163   11.1717   -1.1630 H   0  0  0  0  0  0  0  0  0  0  0  0
   -0.6592    8.9169   -0.1739 N   0  0  0  0  0  0  0  0  0  0  0  0
   -1.1614    7.8195    0.6135 C   0  0  2  0  0  0  0  0  0  0  0  0
   -0.2493    7.6200    1.8222 C   0  0  0  0  0  0  0  0  0  0  0  0
    0.7987    8.2429    1.9803 O   0  0  0  0  0  0  0  0  0  0  0  0
   -1.3561    6.5481   -0.2164 C   0  0  0  0  0  0  0  0  0  0  0  0
    0.1898    5.8863   -0.9199 S   0  0  0  0  0  0  0  0  0  0  0  0
    0.3480    9.0502   -0.2301 H   0  0  0  0  0  0  0  0  0  0  0  0
   -2.1391    8.1481    0.9872 H   0  0  0  0  0  0  0  0  0  0  0  0
   -1.8039    5.7562    0.3929 H   0  0  0  0  0  0  0  0  0  0  0  0
   -2.0369    6.7478   -1.0509 H   0  0  0  0  0  0  0  0  0  0  0  0
   -0.7307    6.6487    2.6884 N   0  0  0  0  0  0  0  0  0  0  0  0
   -0.0318    6.2626    3.8919 C   0  0  0  0  0  0  0  0  0  0  0  0
   -1.6293    6.2135    2.5019 H   0  0  0  0  0  0  0  0  0  0  0  0
    0.6219    5.4043    3.6776 H   0  0  0  0  0  0  0  0  0  0  0  0
    0.5766    7.1065    4.2491 H   0  0  0  0  0  0  0  0  0  0  0  0
   -0.7617    5.9832    4.6659 H   0  0  0  0  0  0  0  0  0  0  0  0
   -6.7256    2.0330   -0.2766 C   0  0  0  0  0  0  0  0  0  0  0  0
   -7.1824    1.1039   -0.9322 O   0  0  0  0  0  0  0  0  0  0  0  0
   -7.5276    2.6077    0.8435 C   0  0  0  0  0  0  0  0  0  0  0  0
   -8.1775    3.4344    0.5145 H   0  0  0  0  0  0  0  0  0  0  0  0
   -8.2057    1.8676    1.2980 H   0  0  0  0  0  0  0  0  0  0  0  0
   -6.9411    3.0162    1.6819 H   0  0  0  0  0  0  0  0  0  0  0  0
   -5.4935    2.6382   -0.4627 N   0  0  0  0  0  0  0  0  0  0  0  0
   -4.5619    2.2388   -1.4845 C   0  0  2  0  0  0  0  0  0  0  0  0
   -3.1535    2.4674   -0.9521 C   0  0  0  0  0  0  0  0  0  0  0  0
   -2.8634    3.3945   -0.1987 O   0  0  0  0  0  0  0  0  0  0  0  0
   -4.7883    3.0138   -2.7732 C   0  0  0  0  0  0  0  0  0  0  0  0
   -5.2337    3.4049    0.1551 H   0  0  0  0  0  0  0  0  0  0  0  0
   -4.7192    1.1682   -1.6549 H   0  0  0  0  0  0  0  0  0  0  0  0
   -4.6352    4.0886   -2.6221 H   0  0  0  0  0  0  0  0  0  0  0  0
   -4.0976    2.6887   -3.5582 H   0  0  0  0  0  0  0  0  0  0  0  0
   -5.8111    2.8719   -3.1387 H   0  0  0  0  0  0  0  0  0  0  0  0
   -2.2466    1.5400   -1.4507 N   0  0  0  0  0  0  0  0  0  0  0  0
   -0.8424    1.5707   -1.1286 C   0  0  2  0  0  0  0  0  0  0  0  0
   -0.5400    0.4565   -0.1287 C   0  0  0  0  0  0  0  0  0  0  0  0
   -0.4975   -0.7314   -0.4424 O   0  0  0  0  0  0  0  0  0  0  0  0
   -0.3833    2.9521   -0.6553 C   0  0  0  0  0  0  0  0  0  0  0  0
   -0.4990    4.2339   -1.9266 S   0  0  0  0  0  0  0  0  0  0  0  0
   -2.5850    0.7815   -2.0381 H   0  0  0  0  0  0  0  0  0  0  0  0
   -0.3205    1.3280   -2.0625 H   0  0  0  0  0  0  0  0  0  0  0  0
   -0.9815    3.2839    0.1996 H   0  0  0  0  0  0  0  0  0  0  0  0
    0.6616    2.9067   -0.3297 H   0  0  0  0  0  0  0  0  0  0  0  0
   -0.3483    0.9427    1.1568 N   0  0  0  0  0  0  0  0  0  0  0  0
   -0.0729    0.0809    2.2826 C   0  0  2  0  0  0  0  0  0  0  0  0
   -0.6914    0.7142    3.5219 C   0  0  0  0  0  0  0  0  0  0  0  0
   -0.7559    1.9298    3.6930 O   0  0  0  0  0  0  0  0  0  0  0  0
    1.4221   -0.1275    2.4673 C   0  0  0  0  0  0  0  0  0  0  0  0
   -0.3585    1.9453    1.3188 H   0  0  0  0  0  0  0  0  0  0  0  0
   -0.5650   -0.8758    2.0764 H   0  0  0  0  0  0  0  0  0  0  0  0
    1.9323    0.8203    2.6748 H   0  0  0  0  0  0  0  0  0  0  0  0
    1.6282   -0.8037    3.3035 H   0  0  0  0  0  0  0  0  0  0  0  0
    1.8705   -0.5554    1.5641 H   0  0  0  0  0  0  0  0  0  0  0  0
   -1.1240   -0.2383    4.4341 N   0  0  0  0  0  0  0  0  0  0  0  0
   -1.7081    0.1109    5.7080 C   0  0  0  0  0  0  0  0  0  0  0  0
   -1.0681   -1.2233    4.1924 H   0  0  0  0  0  0  0  0  0  0  0  0
   -0.9213    0.1438    6.4760 H   0  0  0  0  0  0  0  0  0  0  0  0
   -2.1884    1.0977    5.6328 H   0  0  0  0  0  0  0  0  0  0  0  0
   -2.4598   -0.6426    5.9854 H   0  0  0  0  0  0  0  0  0  0  0  0
  1  3  1  0  0  0  0
  1  7  1  0  0  0  0
  1  2  2  0  0  0  0
 23 25  1  0  0  0  0
 23 29  1  0  0  0  0
 23 24  2  0  0  0  0
 50 51  1  0  0  0  0
 51 59  1  0  0  0  0
 51 52  2  0  0  0  0
  8  9  1  0  0  0  0
  9 17  1  0  0  0  0
  9 10  2  0  0  0  0
 30 31  1  0  0  0  0
 31 39  1  0  0  0  0
 31 32  2  0  0  0  0
 40 41  1  0  0  0  0
 41 49  1  0  0  0  0
 41 42  2  0  0  0  0
 50 53  1  0  0  0  0
 30 33  1  0  0  0  0
 59 60  1  0  0  0  0
 17 18  1  0  0  0  0
  8 11  1  0  0  0  0
 11 12  1  0  0  0  0
 40 43  1  0  0  0  0
 43 44  1  0  0  0  0
 49 50  1  0  0  0  0
  7  8  1  0  0  0  0
 29 30  1  0  0  0  0
 39 40  1  0  0  0  0
 12 44  1  0  0  0  0
  3  4  1  0  0  0  0
  3  5  1  0  0  0  0
  3  6  1  0  0  0  0
 25 26  1  0  0  0  0
 25 27  1  0  0  0  0
 25 28  1  0  0  0  0
 53 56  1  0  0  0  0
 53 57  1  0  0  0  0
 53 58  1  0  0  0  0
 33 36  1  0  0  0  0
 33 37  1  0  0  0  0
 33 38  1  0  0  0  0
 60 62  1  0  0  0  0
 60 63  1  0  0  0  0
 60 64  1  0  0  0  0
 18 20  1  0  0  0  0
 18 21  1  0  0  0  0
 18 22  1  0  0  0  0
 11 15  1  0  0  0  0
 11 16  1  0  0  0  0
 43 47  1  0  0  0  0
 43 48  1  0  0  0  0
 50 55  1  0  0  0  0
  8 14  1  0  0  0  0
 30 35  1  0  0  0  0
 40 46  1  0  0  0  0
 59 61  1  0  0  0  0
 17 19  1  0  0  0  0
  7 13  1  0  0  0  0
 29 34  1  0  0  0  0
 49 54  1  0  0  0  0
 39 45  1  0  0  0  0
M  END
$$$$

  -OEChem-05262214473D

 64 63  0     1  0  0  0  0  0999 V2000
   -1.4781    9.7988   -0.8578 C   0  0  0  0  0  0  0  0  0  0  0  0
   -2.7029    9.7741   -0.8908 O   0  0  0  0  0  0  0  0  0  0  0  0
   -0.7429   10.8604   -1.6066 C   0  0  0  0  0  0  0  0  0  0  0  0
   -0.5003   10.5565   -2.6376 H   0  0  0  0  0  0  0  0  0  0  0  0
   -1.3299   11.7874   -1.7068 H   0  0  0  0  0  0  0  0  0  0  0  0
    0.2163   11.1717   -1.1630 H   0  0  0  0  0  0  0  0  0  0  0  0
   -0.6592    8.9169   -0.1739 N   0  0  0  0  0  0  0  0  0  0  0  0
   -1.1614    7.8195    0.6135 C   0  0  2  0  0  0  0  0  0  0  0  0
   -0.2493    7.6200    1.8222 C   0  0  0  0  0  0  0  0  0  0  0  0
    0.7987    8.2429    1.9803 O   0  0  0  0  0  0  0  0  0  0  0  0
   -1.3561    6.5481   -0.2164 C   0  0  0  0  0  0  0  0  0  0  0  0
    0.1898    5.8863   -0.9199 S   0  0  0  0  0  0  0  0  0  0  0  0
    0.3480    9.0502   -0.2301 H   0  0  0  0  0  0  0  0  0  0  0  0
   -2.1391    8.1481    0.9872 H   0  0  0  0  0  0  0  0  0  0  0  0
   -1.8039    5.7562    0.3929 H   0  0  0  0  0  0  0  0  0  0  0  0
   -2.0369    6.7478   -1.0509 H   0  0  0  0  0  0  0  0  0  0  0  0
   -0.7307    6.6487    2.6884 N   0  0  0  0  0  0  0  0  0  0  0  0
   -0.0318    6.2626    3.8919 C   0  0  0  0  0  0  0  0  0  0  0  0
   -1.6293    6.2135    2.5019 H   0  0  0  0  0  0  0  0  0  0  0  0
    0.6219    5.4043    3.6776 H   0  0  0  0  0  0  0  0  0  0  0  0
    0.5766    7.1065    4.2491 H   0  0  0  0  0  0  0  0  0  0  0  0
   -0.7617    5.9832    4.6659 H   0  0  0  0  0  0  0  0  0  0  0  0
   -6.7256    2.0330   -0.2766 C   0  0  0  0  0  0  0  0  0  0  0  0
   -7.1824    1.1039   -0.9322 O   0  0  0  0  0  0  0  0  0  0  0  0
   -7.5276    2.6077    0.8435 C   0  0  0  0  0  0  0  0  0  0  0  0
   -8.1775    3.4344    0.5145 H   0  0  0  0  0  0  0  0  0  0  0  0
   -8.2057    1.8676    1.2980 H   0  0  0  0  0  0  0  0  0  0  0  0
   -6.9411    3.0162    1.6819 H   0  0  0  0  0  0  0  0  0  0  0  0
   -5.4935    2.6382   -0.4627 N   0  0  0  0  0  0  0  0  0  0  0  0
   -4.5619    2.2388   -1.4845 C   0  0  2  0  0  0  0  0  0  0  0  0
   -3.1535    2.4674   -0.9521 C   0  0  0  0  0  0  0  0  0  0  0  0
   -2.8634    3.3945   -0.1987 O   0  0  0  0  0  0  0  0  0  0  0  0
   -4.7883    3.0138   -2.7732 C   0  0  0  0  0  0  0  0  0  0  0  0
   -5.2337    3.4049    0.1551 H   0  0  0  0  0  0  0  0  0  0  0  0
   -4.7192    1.1682   -1.6549 H   0  0  0  0  0  0  0  0  0  0  0  0
   -4.6352    4.0886   -2.6221 H   0  0  0  0  0  0  0  0  0  0  0  0
   -4.0976    2.6887   -3.5582 H   0  0  0  0  0  0  0  0  0  0  0  0
   -5.8111    2.8719   -3.1387 H   0  0  0  0  0  0  0  0  0  0  0  0
   -2.2466    1.5400   -1.4507 N   0  0  0  0  0  0  0  0  0  0  0  0
   -0.8424    1.5707   -1.1286 C   0  0  2  0  0  0  0  0  0  0  0  0
   -0.5400    0.4565   -0.1287 C   0  0  0  0  0  0  0  0  0  0  0  0
   -0.2339   -0.6843   -0.4696 O   0  0  0  0  0  0  0  0  0  0  0  0
   -0.3833    2.9521   -0.6553 C   0  0  0  0  0  0  0  0  0  0  0  0
   -0.4990    4.2339   -1.9266 S   0  0  0  0  0  0  0  0  0  0  0  0
   -2.5850    0.7815   -2.0381 H   0  0  0  0  0  0  0  0  0  0  0  0
   -0.3205    1.3280   -2.0625 H   0  0  0  0  0  0  0  0  0  0  0  0
   -0.9815    3.2839    0.1996 H   0  0  0  0  0  0  0  0  0  0  0  0
    0.6616    2.9067   -0.3297 H   0  0  0  0  0  0  0  0  0  0  0  0
   -0.6764    0.8797    1.1858 N   0  0  0  0  0  0  0  0  0  0  0  0
   -0.4674    0.0009    2.3128 C   0  0  2  0  0  0  0  0  0  0  0  0
   -1.4046    0.4386    3.4306 C   0  0  0  0  0  0  0  0  0  0  0  0
   -1.7104    1.6127    3.6284 O   0  0  0  0  0  0  0  0  0  0  0  0
    0.9810    0.0294    2.7754 C   0  0  0  0  0  0  0  0  0  0  0  0
   -0.8909    1.8537    1.3778 H   0  0  0  0  0  0  0  0  0  0  0  0
   -0.7385   -1.0076    1.9820 H   0  0  0  0  0  0  0  0  0  0  0  0
    1.2710    1.0319    3.1107 H   0  0  0  0  0  0  0  0  0  0  0  0
    1.1441   -0.6587    3.6115 H   0  0  0  0  0  0  0  0  0  0  0  0
    1.6559   -0.2570    1.9615 H   0  0  0  0  0  0  0  0  0  0  0  0
   -1.8250   -0.6314    4.2081 N   0  0  0  0  0  0  0  0  0  0  0  0
   -2.6858   -0.4699    5.3566 C   0  0  0  0  0  0  0  0  0  0  0  0
   -1.5546   -1.5751    3.9474 H   0  0  0  0  0  0  0  0  0  0  0  0
   -2.0721   -0.3600    6.2628 H   0  0  0  0  0  0  0  0  0  0  0  0
   -3.3086    0.4272    5.2246 H   0  0  0  0  0  0  0  0  0  0  0  0
   -3.3327   -1.3539    5.4569 H   0  0  0  0  0  0  0  0  0  0  0  0
  1  3  1  0  0  0  0
  1  7  1  0  0  0  0
  1  2  2  0  0  0  0
 23 25  1  0  0  0  0
 23 29  1  0  0  0  0
 23 24  2  0  0  0  0
 50 51  1  0  0  0  0
 51 59  1  0  0  0  0
 51 52  2  0  0  0  0
  8  9  1  0  0  0  0
  9 17  1  0  0  0  0
  9 10  2  0  0  0  0
 30 31  1  0  0  0  0
 31 39  1  0  0  0  0
 31 32  2  0  0  0  0
 40 41  1  0  0  0  0
 41 49  1  0  0  0  0
 41 42  2  0  0  0  0
 50 53  1  0  0  0  0
 30 33  1  0  0  0  0
 59 60  1  0  0  0  0
 17 18  1  0  0  0  0
  8 11  1  0  0  0  0
 11 12  1  0  0  0  0
 40 43  1  0  0  0  0
 43 44  1  0  0  0  0
 49 50  1  0  0  0  0
  7  8  1  0  0  0  0
 29 30  1  0  0  0  0
 39 40  1  0  0  0  0
 12 44  1  0  0  0  0
  3  4  1  0  0  0  0
  3  5  1  0  0  0  0
  3  6  1  0  0  0  0
 25 26  1  0  0  0  0
 25 27  1  0  0  0  0
 25 28  1  0  0  0  0
 53 56  1  0  0  0  0
 53 57  1  0  0  0  0
 53 58  1  0  0  0  0
 33 36  1  0  0  0  0
 33 37  1  0  0  0  0
 33 38  1  0  0  0  0
 60 62  1  0  0  0  0
 60 63  1  0  0  0  0
 60 64  1  0  0  0  0
 18 20  1  0  0  0  0
 18 21  1  0  0  0  0
 18 22  1  0  0  0  0
 11 15  1  0  0  0  0
 11 16  1  0  0  0  0
 43 47  1  0  0  0  0
 43 48  1  0  0  0  0
 50 55  1  0  0  0  0
  8 14  1  0  0  0  0
 30 35  1  0  0  0  0
 40 46  1  0  0  0  0
 59 61  1  0  0  0  0
 17 19  1  0  0  0  0
  7 13  1  0  0  0  0
 29 34  1  0  0  0  0
 49 54  1  0  0  0  0
 39 45  1  0  0  0  0
M  END
$$$$

  -OEChem-05262214473D

 64 63  0     1  0  0  0  0  0999 V2000
   -1.4781    9.7988   -0.8578 C   0  0  0  0  0  0  0  0  0  0  0  0
   -2.7029    9.7741   -0.8908 O   0  0  0  0  0  0  0  0  0  0  0  0
   -0.7429   10.8604   -1.6066 C   0  0  0  0  0  0  0  0  0  0  0  0
   -0.5003   10.5565   -2.6376 H   0  0  0  0  0  0  0  0  0  0  0  0
   -1.3299   11.7874   -1.7068 H   0  0  0  0  0  0  0  0  0  0  0  0
    0.2163   11.1717   -1.1630 H   0  0  0  0  0  0  0  0  0  0  0  0
   -0.6592    8.9169   -0.1739 N   0  0  0  0  0  0  0  0  0  0  0  0
   -1.1614    7.8195    0.6135 C   0  0  2  0  0  0  0  0  0  0  0  0
   -0.2493    7.6200    1.8222 C   0  0  0  0  0  0  0  0  0  0  0  0
    0.7987    8.2429    1.9803 O   0  0  0  0  0  0  0  0  0  0  0  0
   -1.3561    6.5481   -0.2164 C   0  0  0  0  0  0  0  0  0  0  0  0
    0.1898    5.8863   -0.9199 S   0  0  0  0  0  0  0  0  0  0  0  0
    0.3480    9.0502   -0.2301 H   0  0  0  0  0  0  0  0  0  0  0  0
   -2.1391    8.1481    0.9872 H   0  0  0  0  0  0  0  0  0  0  0  0
   -1.8039    5.7562    0.3929 H   0  0  0  0  0  0  0  0  0  0  0  0
   -2.0369    6.7478   -1.0509 H   0  0  0  0  0  0  0  0  0  0  0  0
   -0.7307    6.6487    2.6884 N   0  0  0  0  0  0  0  0  0  0  0  0
   -0.0318    6.2626    3.8919 C   0  0  0  0  0  0  0  0  0  0  0  0
   -1.6293    6.2135    2.5019 H   0  0  0  0  0  0  0  0  0  0  0  0
    0.6219    5.4043    3.6776 H   0  0  0  0  0  0  0  0  0  0  0  0
    0.5766    7.1065    4.2491 H   0  0  0  0  0  0  0  0  0  0  0  0
   -0.7617    5.9832    4.6659 H   0  0  0  0  0  0  0  0  0  0  0  0
   -6.7256    2.0330   -0.2766 C   0  0  0  0  0  0  0  0  0  0  0  0
   -7.1824    1.1039   -0.9322 O   0  0  0  0  0  0  0  0  0  0  0  0
   -7.5276    2.6077    0.8435 C   0  0  0  0  0  0  0  0  0  0  0  0
   -8.1775    3.4344    0.5145 H   0  0  0  0  0  0  0  0  0  0  0  0
   -8.2057    1.8676    1.2980 H   0  0  0  0  0  0  0  0  0  0  0  0
   -6.9411    3.0162    1.6819 H   0  0  0  0  0  0  0  0  0  0  0  0
   -5.4935    2.6382   -0.4627 N   0  0  0  0  0  0  0  0  0  0  0  0
   -4.5619    2.2388   -1.4845 C   0  0  2  0  0  0  0  0  0  0  0  0
   -3.1535    2.4674   -0.9521 C   0  0  0  0  0  0  0  0  0  0  0  0
   -2.8634    3.3945   -0.1987 O   0  0  0  0  0  0  0  0  0  0  0  0
   -4.7883    3.0138   -2.7732 C   0  0  0  0  0  0  0  0  0  0  0  0
   -5.2337    3.4049    0.1551 H   0  0  0  0  0  0  0  0  0  0  0  0
   -4.7192    1.1682   -1.6549 H   0  0  0  0  0  0  0  0  0  0  0  0
   -4.6352    4.0886   -2.6221 H   0  0  0  0  0  0  0  0  0  0  0  0
   -4.0976    2.6887   -3.5582 H   0  0  0  0  0  0  0  0  0  0  0  0
   -5.8111    2.8719   -3.1387 H   0  0  0  0  0  0  0  0  0  0  0  0
   -2.2466    1.5400   -1.4507 N   0  0  0  0  0  0  0  0  0  0  0  0
   -0.8424    1.5707   -1.1286 C   0  0  2  0  0  0  0  0  0  0  0  0
   -0.5400    0.4565   -0.1287 C   0  0  0  0  0  0  0  0  0  0  0  0
    0.0179   -0.5927   -0.4437 O   0  0  0  0  0  0  0  0  0  0  0  0
   -0.3833    2.9521   -0.6553 C   0  0  0  0  0  0  0  0  0  0  0  0
   -0.4990    4.2339   -1.9266 S   0  0  0  0  0  0  0  0  0  0  0  0
   -2.5850    0.7815   -2.0381 H   0  0  0  0  0  0  0  0  0  0  0  0
   -0.3205    1.3280   -2.0625 H   0  0  0  0  0  0  0  0  0  0  0  0
   -0.9815    3.2839    0.1996 H   0  0  0  0  0  0  0  0  0  0  0  0
    0.6616    2.9067   -0.3297 H   0  0  0  0  0  0  0  0  0  0  0  0
   -0.9881    0.7617    1.1487 N   0  0  0  0  0  0  0  0  0  0  0  0
   -0.8405   -0.1447    2.2633 C   0  0  2  0  0  0  0  0  0  0  0  0
   -2.0294    0.0563    3.1936 C   0  0  0  0  0  0  0  0  0  0  0  0
   -2.5665    1.1480    3.3695 O   0  0  0  0  0  0  0  0  0  0  0  0
    0.4702    0.0903    2.9979 C   0  0  0  0  0  0  0  0  0  0  0  0
   -1.4008    1.6720    1.3295 H   0  0  0  0  0  0  0  0  0  0  0  0
   -0.8659   -1.1594    1.8513 H   0  0  0  0  0  0  0  0  0  0  0  0
    0.5140    1.1019    3.4177 H   0  0  0  0  0  0  0  0  0  0  0  0
    0.5937   -0.6164    3.8251 H   0  0  0  0  0  0  0  0  0  0  0  0
    1.3230   -0.0255    2.3202 H   0  0  0  0  0  0  0  0  0  0  0  0
   -2.3929   -1.1183    3.8373 N   0  0  0  0  0  0  0  0  0  0  0  0
   -3.4654   -1.1786    4.8027 C   0  0  0  0  0  0  0  0  0  0  0  0
   -1.9188   -1.9850    3.6009 H   0  0  0  0  0  0  0  0  0  0  0  0
   -3.0581   -1.0306    5.8138 H   0  0  0  0  0  0  0  0  0  0  0  0
   -4.1999   -0.3893    4.5843 H   0  0  0  0  0  0  0  0  0  0  0  0
   -3.9556   -2.1617    4.7452 H   0  0  0  0  0  0  0  0  0  0  0  0
  1  3  1  0  0  0  0
  1  7  1  0  0  0  0
  1  2  2  0  0  0  0
 23 25  1  0  0  0  0
 23 29  1  0  0  0  0
 23 24  2  0  0  0  0
 50 51  1  0  0  0  0
 51 59  1  0  0  0  0
 51 52  2  0  0  0  0
  8  9  1  0  0  0  0
  9 17  1  0  0  0  0
  9 10  2  0  0  0  0
 30 31  1  0  0  0  0
 31 39  1  0  0  0  0
 31 32  2  0  0  0  0
 40 41  1  0  0  0  0
 41 49  1  0  0  0  0
 41 42  2  0  0  0  0
 50 53  1  0  0  0  0
 30 33  1  0  0  0  0
 59 60  1  0  0  0  0
 17 18  1  0  0  0  0
  8 11  1  0  0  0  0
 11 12  1  0  0  0  0
 40 43  1  0  0  0  0
 43 44  1  0  0  0  0
 49 50  1  0  0  0  0
  7  8  1  0  0  0  0
 29 30  1  0  0  0  0
 39 40  1  0  0  0  0
 12 44  1  0  0  0  0
  3  4  1  0  0  0  0
  3  5  1  0  0  0  0
  3  6  1  0  0  0  0
 25 26  1  0  0  0  0
 25 27  1  0  0  0  0
 25 28  1  0  0  0  0
 53 56  1  0  0  0  0
 53 57  1  0  0  0  0
 53 58  1  0  0  0  0
 33 36  1  0  0  0  0
 33 37  1  0  0  0  0
 33 38  1  0  0  0  0
 60 62  1  0  0  0  0
 60 63  1  0  0  0  0
 60 64  1  0  0  0  0
 18 20  1  0  0  0  0
 18 21  1  0  0  0  0
 18 22  1  0  0  0  0
 11 15  1  0  0  0  0
 11 16  1  0  0  0  0
 43 47  1  0  0  0  0
 43 48  1  0  0  0  0
 50 55  1  0  0  0  0
  8 14  1  0  0  0  0
 30 35  1  0  0  0  0
 40 46  1  0  0  0  0
 59 61  1  0  0  0  0
 17 19  1  0  0  0  0
  7 13  1  0  0  0  0
 29 34  1  0  0  0  0
 49 54  1  0  0  0  0
 39 45  1  0  0  0  0
M  END
$$$$

  -OEChem-05262214473D

 64 63  0     1  0  0  0  0  0999 V2000
   -1.4781    9.7988   -0.8578 C   0  0  0  0  0  0  0  0  0  0  0  0
   -2.7029    9.7741   -0.8908 O   0  0  0  0  0  0  0  0  0  0  0  0
   -0.7429   10.8604   -1.6066 C   0  0  0  0  0  0  0  0  0  0  0  0
   -0.5003   10.5565   -2.6376 H   0  0  0  0  0  0  0  0  0  0  0  0
   -1.3299   11.7874   -1.7068 H   0  0  0  0  0  0  0  0  0  0  0  0
    0.2163   11.1717   -1.1630 H   0  0  0  0  0  0  0  0  0  0  0  0
   -0.6592    8.9169   -0.1739 N   0  0  0  0  0  0  0  0  0  0  0  0
   -1.1614    7.8195    0.6135 C   0  0  2  0  0  0  0  0  0  0  0  0
   -0.2493    7.6200    1.8222 C   0  0  0  0  0  0  0  0  0  0  0  0
    0.7987    8.2429    1.9803 O   0  0  0  0  0  0  0  0  0  0  0  0
   -1.3561    6.5481   -0.2164 C   0  0  0  0  0  0  0  0  0  0  0  0
    0.1898    5.8863   -0.9199 S   0  0  0  0  0  0  0  0  0  0  0  0
    0.3480    9.0502   -0.2301 H   0  0  0  0  0  0  0  0  0  0  0  0
   -2.1391    8.1481    0.9872 H   0  0  0  0  0  0  0  0  0  0  0  0
   -1.8039    5.7562    0.3929 H   0  0  0  0  0  0  0  0  0  0  0  0
   -2.0369    6.7478   -1.0509 H   0  0  0  0  0  0  0  0  0  0  0  0
   -0.7307    6.6487    2.6884 N   0  0  0  0  0  0  0  0  0  0  0  0
   -0.0318    6.2626    3.8919 C   0  0  0  0  0  0  0  0  0  0  0  0
   -1.6293    6.2135    2.5019 H   0  0  0  0  0  0  0  0  0  0  0  0
    0.6219    5.4043    3.6776 H   0  0  0  0  0  0  0  0  0  0  0  0
    0.5766    7.1065    4.2491 H   0  0  0  0  0  0  0  0  0  0  0  0
   -0.7617    5.9832    4.6659 H   0  0  0  0  0  0  0  0  0  0  0  0
   -6.7256    2.0330   -0.2766 C   0  0  0  0  0  0  0  0  0  0  0  0
   -7.1824    1.1039   -0.9322 O   0  0  0  0  0  0  0  0  0  0  0  0
   -7.5276    2.6077    0.8435 C   0  0  0  0  0  0  0  0  0  0  0  0
   -8.1775    3.4344    0.5145 H   0  0  0  0  0  0  0  0  0  0  0  0
   -8.2057    1.8676    1.2980 H   0  0  0  0  0  0  0  0  0  0  0  0
   -6.9411    3.0162    1.6819 H   0  0  0  0  0  0  0  0  0  0  0  0
   -5.4935    2.6382   -0.4627 N   0  0  0  0  0  0  0  0  0  0  0  0
   -4.5619    2.2388   -1.4845 C   0  0  2  0  0  0  0  0  0  0  0  0
   -3.1535    2.4674   -0.9521 C   0  0  0  0  0  0  0  0  0  0  0  0
   -2.8634    3.3945   -0.1987 O   0  0  0  0  0  0  0  0  0  0  0  0
   -4.7883    3.0138   -2.7732 C   0  0  0  0  0  0  0  0  0  0  0  0
   -5.2337    3.4049    0.1551 H   0  0  0  0  0  0  0  0  0  0  0  0
   -4.7192    1.1682   -1.6549 H   0  0  0  0  0  0  0  0  0  0  0  0
   -4.6352    4.0886   -2.6221 H   0  0  0  0  0  0  0  0  0  0  0  0
   -4.0976    2.6887   -3.5582 H   0  0  0  0  0  0  0  0  0  0  0  0
   -5.8111    2.8719   -3.1387 H   0  0  0  0  0  0  0  0  0  0  0  0
   -2.2466    1.5400   -1.4507 N   0  0  0  0  0  0  0  0  0  0  0  0
   -0.8424    1.5707   -1.1286 C   0  0  2  0  0  0  0  0  0  0  0  0
   -0.5400    0.4565   -0.1287 C   0  0  0  0  0  0  0  0  0  0  0  0
    0.2407   -0.4629   -0.3665 O   0  0  0  0  0  0  0  0  0  0  0  0
   -0.3833    2.9521   -0.6553 C   0  0  0  0  0  0  0  0  0  0  0  0
   -0.4990    4.2339   -1.9266 S   0  0  0  0  0  0  0  0  0  0  0  0
   -2.5850    0.7815   -2.0381 H   0  0  0  0  0  0  0  0  0  0  0  0
   -0.3205    1.3280   -2.0625 H   0  0  0  0  0  0  0  0  0  0  0  0
   -0.9815    3.2839    0.1996 H   0  0  0  0  0  0  0  0  0  0  0  0
    0.6616    2.9067   -0.3297 H   0  0  0  0  0  0  0  0  0  0  0  0
   -1.2621    0.5969    1.0479 N   0  0  0  0  0  0  0  0  0  0  0  0
   -1.1669   -0.3461    2.1377 C   0  0  2  0  0  0  0  0  0  0  0  0
   -2.5235   -0.4067    2.8271 C   0  0  0  0  0  0  0  0  0  0  0  0
   -3.2657    0.5673    2.9340 O   0  0  0  0  0  0  0  0  0  0  0  0
   -0.0755    0.0512    3.1194 C   0  0  0  0  0  0  0  0  0  0  0  0
   -1.8535    1.4125    1.1773 H   0  0  0  0  0  0  0  0  0  0  0  0
   -0.9385   -1.3210    1.6933 H   0  0  0  0  0  0  0  0  0  0  0  0
   -0.2869    1.0255    3.5749 H   0  0  0  0  0  0  0  0  0  0  0  0
    0.0147   -0.6798    3.9296 H   0  0  0  0  0  0  0  0  0  0  0  0
    0.8945    0.1233    2.6156 H   0  0  0  0  0  0  0  0  0  0  0  0
   -2.7890   -1.6659    3.3469 N   0  0  0  0  0  0  0  0  0  0  0  0
   -3.9939   -1.9668    4.0842 C   0  0  0  0  0  0  0  0  0  0  0  0
   -2.1356   -2.4247    3.1765 H   0  0  0  0  0  0  0  0  0  0  0  0
   -3.8121   -1.8225    5.1595 H   0  0  0  0  0  0  0  0  0  0  0  0
   -4.8017   -1.2963    3.7558 H   0  0  0  0  0  0  0  0  0  0  0  0
   -4.2859   -3.0110    3.8988 H   0  0  0  0  0  0  0  0  0  0  0  0
  1  3  1  0  0  0  0
  1  7  1  0  0  0  0
  1  2  2  0  0  0  0
 23 25  1  0  0  0  0
 23 29  1  0  0  0  0
 23 24  2  0  0  0  0
 50 51  1  0  0  0  0
 51 59  1  0  0  0  0
 51 52  2  0  0  0  0
  8  9  1  0  0  0  0
  9 17  1  0  0  0  0
  9 10  2  0  0  0  0
 30 31  1  0  0  0  0
 31 39  1  0  0  0  0
 31 32  2  0  0  0  0
 40 41  1  0  0  0  0
 41 49  1  0  0  0  0
 41 42  2  0  0  0  0
 50 53  1  0  0  0  0
 30 33  1  0  0  0  0
 59 60  1  0  0  0  0
 17 18  1  0  0  0  0
  8 11  1  0  0  0  0
 11 12  1  0  0  0  0
 40 43  1  0  0  0  0
 43 44  1  0  0  0  0
 49 50  1  0  0  0  0
  7  8  1  0  0  0  0
 29 30  1  0  0  0  0
 39 40  1  0  0  0  0
 12 44  1  0  0  0  0
  3  4  1  0  0  0  0
  3  5  1  0  0  0  0
  3  6  1  0  0  0  0
 25 26  1  0  0  0  0
 25 27  1  0  0  0  0
 25 28  1  0  0  0  0
 53 56  1  0  0  0  0
 53 57  1  0  0  0  0
 53 58  1  0  0  0  0
 33 36  1  0  0  0  0
 33 37  1  0  0  0  0
 33 38  1  0  0  0  0
 60 62  1  0  0  0  0
 60 63  1  0  0  0  0
 60 64  1  0  0  0  0
 18 20  1  0  0  0  0
 18 21  1  0  0  0  0
 18 22  1  0  0  0  0
 11 15  1  0  0  0  0
 11 16  1  0  0  0  0
 43 47  1  0  0  0  0
 43 48  1  0  0  0  0
 50 55  1  0  0  0  0
  8 14  1  0  0  0  0
 30 35  1  0  0  0  0
 40 46  1  0  0  0  0
 59 61  1  0  0  0  0
 17 19  1  0  0  0  0
  7 13  1  0  0  0  0
 29 34  1  0  0  0  0
 49 54  1  0  0  0  0
 39 45  1  0  0  0  0
M  END
$$$$

  -OEChem-05262214473D

 64 63  0     1  0  0  0  0  0999 V2000
   -1.4781    9.7988   -0.8578 C   0  0  0  0  0  0  0  0  0  0  0  0
   -2.7029    9.7741   -0.8908 O   0  0  0  0  0  0  0  0  0  0  0  0
   -0.7429   10.8604   -1.6066 C   0  0  0  0  0  0  0  0  0  0  0  0
   -0.5003   10.5565   -2.6376 H   0  0  0  0  0  0  0  0  0  0  0  0
   -1.3299   11.7874   -1.7068 H   0  0  0  0  0  0  0  0  0  0  0  0
    0.2163   11.1717   -1.1630 H   0  0  0  0  0  0  0  0  0  0  0  0
   -0.6592    8.9169   -0.1739 N   0  0  0  0  0  0  0  0  0  0  0  0
   -1.1614    7.8195    0.6135 C   0  0  2  0  0  0  0  0  0  0  0  0
   -0.2493    7.6200    1.8222 C   0  0  0  0  0  0  0  0  0  0  0  0
    0.7987    8.2429    1.9803 O   0  0  0  0  0  0  0  0  0  0  0  0
   -1.3561    6.5481   -0.2164 C   0  0  0  0  0  0  0  0  0  0  0  0
    0.1898    5.8863   -0.9199 S   0  0  0  0  0  0  0  0  0  0  0  0
    0.3480    9.0502   -0.2301 H   0  0  0  0  0  0  0  0  0  0  0  0
   -2.1391    8.1481    0.9872 H   0  0  0  0  0  0  0  0  0  0  0  0
   -1.8039    5.7562    0.3929 H   0  0  0  0  0  0  0  0  0  0  0  0
   -2.0369    6.7478   -1.0509 H   0  0  0  0  0  0  0  0  0  0  0  0
   -0.7307    6.6487    2.6884 N   0  0  0  0  0  0  0  0  0  0  0  0
   -0.0318    6.2626    3.8919 C   0  0  0  0  0  0  0  0  0  0  0  0
   -1.6293    6.2135    2.5019 H   0  0  0  0  0  0  0  0  0  0  0  0
    0.6219    5.4043    3.6776 H   0  0  0  0  0  0  0  0  0  0  0  0
    0.5766    7.1065    4.2491 H   0  0  0  0  0  0  0  0  0  0  0  0
   -0.7617    5.9832    4.6659 H   0  0  0  0  0  0  0  0  0  0  0  0
   -6.7256    2.0330   -0.2766 C   0  0  0  0  0  0  0  0  0  0  0  0
   -7.1824    1.1039   -0.9322 O   0  0  0  0  0  0  0  0  0  0  0  0
   -7.5276    2.6077    0.8435 C   0  0  0  0  0  0  0  0  0  0  0  0
   -8.1775    3.4344    0.5145 H   0  0  0  0  0  0  0  0  0  0  0  0
   -8.2057    1.8676    1.2980 H   0  0  0  0  0  0  0  0  0  0  0  0
   -6.9411    3.0162    1.6819 H   0  0  0  0  0  0  0  0  0  0  0  0
   -5.4935    2.6382   -0.4627 N   0  0  0  0  0  0  0  0  0  0  0  0
   -4.5619    2.2388   -1.4845 C   0  0  2  0  0  0  0  0  0  0  0  0
   -3.1535    2.4674   -0.9521 C   0  0  0  0  0  0  0  0  0  0  0  0
   -2.8634    3.3945   -0.1987 O   0  0  0  0  0  0  0  0  0  0  0  0
   -4.7883    3.0138   -2.7732 C   0  0  0  0  0  0  0  0  0  0  0  0
   -5.2337    3.4049    0.1551 H   0  0  0  0  0  0  0  0  0  0  0  0
   -4.7192    1.1682   -1.6549 H   0  0  0  0  0  0  0  0  0  0  0  0
   -4.6352    4.0886   -2.6221 H   0  0  0  0  0  0  0  0  0  0  0  0
   -4.0976    2.6887   -3.5582 H   0  0  0  0  0  0  0  0  0  0  0  0
   -5.8111    2.8719   -3.1387 H   0  0  0  0  0  0  0  0  0  0  0  0
   -2.2466    1.5400   -1.4507 N   0  0  0  0  0  0  0  0  0  0  0  0
   -0.8424    1.5707   -1.1286 C   0  0  2  0  0  0  0  0  0  0  0  0
   -0.5400    0.4565   -0.1287 C   0  0  0  0  0  0  0  0  0  0  0  0
    0.4193   -0.3038   -0.2432 O   0  0  0  0  0  0  0  0  0  0  0  0
   -0.3833    2.9521   -0.6553 C   0  0  0  0  0  0  0  0  0  0  0  0
   -0.4990    4.2339   -1.9266 S   0  0  0  0  0  0  0  0  0  0  0  0
   -2.5850    0.7815   -2.0381 H   0  0  0  0  0  0  0  0  0  0  0  0
   -0.3205    1.3280   -2.0625 H   0  0  0  0  0  0  0  0  0  0  0  0
   -0.9815    3.2839    0.1996 H   0  0  0  0  0  0  0  0  0  0  0  0
    0.6616    2.9067   -0.3297 H   0  0  0  0  0  0  0  0  0  0  0  0
   -1.4799    0.3964    0.8904 N   0  0  0  0  0  0  0  0  0  0  0  0
   -1.4243   -0.5895    1.9443 C   0  0  2  0  0  0  0  0  0  0  0  0
   -2.8531   -0.9189    2.3561 C   0  0  0  0  0  0  0  0  0  0  0  0
   -3.7605   -0.0897    2.3515 O   0  0  0  0  0  0  0  0  0  0  0  0
   -0.6189   -0.0853    3.1317 C   0  0  0  0  0  0  0  0  0  0  0  0
   -2.2180    1.0930    0.9315 H   0  0  0  0  0  0  0  0  0  0  0  0
   -0.9515   -1.4813    1.5186 H   0  0  0  0  0  0  0  0  0  0  0  0
   -1.0773    0.8080    3.5715 H   0  0  0  0  0  0  0  0  0  0  0  0
   -0.5537   -0.8445    3.9180 H   0  0  0  0  0  0  0  0  0  0  0  0
    0.3996    0.1793    2.8277 H   0  0  0  0  0  0  0  0  0  0  0  0
   -2.9861   -2.2367    2.7704 N   0  0  0  0  0  0  0  0  0  0  0  0
   -4.2351   -2.7809    3.2500 C   0  0  0  0  0  0  0  0  0  0  0  0
   -2.1904   -2.8645    2.7030 H   0  0  0  0  0  0  0  0  0  0  0  0
   -4.2827   -2.6816    4.3445 H   0  0  0  0  0  0  0  0  0  0  0  0
   -5.0728   -2.2318    2.7954 H   0  0  0  0  0  0  0  0  0  0  0  0
   -4.3013   -3.8440    2.9752 H   0  0  0  0  0  0  0  0  0  0  0  0
  1  3  1  0  0  0  0
  1  7  1  0  0  0  0
  1  2  2  0  0  0  0
 23 25  1  0  0  0  0
 23 29  1  0  0  0  0
 23 24  2  0  0  0  0
 50 51  1  0  0  0  0
 51 59  1  0  0  0  0
 51 52  2  0  0  0  0
  8  9  1  0  0  0  0
  9 17  1  0  0  0  0
  9 10  2  0  0  0  0
 30 31  1  0  0  0  0
 31 39  1  0  0  0  0
 31 32  2  0  0  0  0
 40 41  1  0  0  0  0
 41 49  1  0  0  0  0
 41 42  2  0  0  0  0
 50 53  1  0  0  0  0
 30 33  1  0  0  0  0
 59 60  1  0  0  0  0
 17 18  1  0  0  0  0
  8 11  1  0  0  0  0
 11 12  1  0  0  0  0
 40 43  1  0  0  0  0
 43 44  1  0  0  0  0
 49 50  1  0  0  0  0
  7  8  1  0  0  0  0
 29 30  1  0  0  0  0
 39 40  1  0  0  0  0
 12 44  1  0  0  0  0
  3  4  1  0  0  0  0
  3  5  1  0  0  0  0
  3  6  1  0  0  0  0
 25 26  1  0  0  0  0
 25 27  1  0  0  0  0
 25 28  1  0  0  0  0
 53 56  1  0  0  0  0
 53 57  1  0  0  0  0
 53 58  1  0  0  0  0
 33 36  1  0  0  0  0
 33 37  1  0  0  0  0
 33 38  1  0  0  0  0
 60 62  1  0  0  0  0
 60 63  1  0  0  0  0
 60 64  1  0  0  0  0
 18 20  1  0  0  0  0
 18 21  1  0  0  0  0
 18 22  1  0  0  0  0
 11 15  1  0  0  0  0
 11 16  1  0  0  0  0
 43 47  1  0  0  0  0
 43 48  1  0  0  0  0
 50 55  1  0  0  0  0
  8 14  1  0  0  0  0
 30 35  1  0  0  0  0
 40 46  1  0  0  0  0
 59 61  1  0  0  0  0
 17 19  1  0  0  0  0
  7 13  1  0  0  0  0
 29 34  1  0  0  0  0
 49 54  1  0  0  0  0
 39 45  1  0  0  0  0
M  END
$$$$

  -OEChem-05262214473D

 64 63  0     1  0  0  0  0  0999 V2000
   -1.4781    9.7988   -0.8578 C   0  0  0  0  0  0  0  0  0  0  0  0
   -2.7029    9.7741   -0.8908 O   0  0  0  0  0  0  0  0  0  0  0  0
   -0.7429   10.8604   -1.6066 C   0  0  0  0  0  0  0  0  0  0  0  0
   -0.5003   10.5565   -2.6376 H   0  0  0  0  0  0  0  0  0  0  0  0
   -1.3299   11.7874   -1.7068 H   0  0  0  0  0  0  0  0  0  0  0  0
    0.2163   11.1717   -1.1630 H   0  0  0  0  0  0  0  0  0  0  0  0
   -0.6592    8.9169   -0.1739 N   0  0  0  0  0  0  0  0  0  0  0  0
   -1.1614    7.8195    0.6135 C   0  0  2  0  0  0  0  0  0  0  0  0
   -0.2493    7.6200    1.8222 C   0  0  0  0  0  0  0  0  0  0  0  0
    0.7987    8.2429    1.9803 O   0  0  0  0  0  0  0  0  0  0  0  0
   -1.3561    6.5481   -0.2164 C   0  0  0  0  0  0  0  0  0  0  0  0
    0.1898    5.8863   -0.9199 S   0  0  0  0  0  0  0  0  0  0  0  0
    0.3480    9.0502   -0.2301 H   0  0  0  0  0  0  0  0  0  0  0  0
   -2.1391    8.1481    0.9872 H   0  0  0  0  0  0  0  0  0  0  0  0
   -1.8039    5.7562    0.3929 H   0  0  0  0  0  0  0  0  0  0  0  0
   -2.0369    6.7478   -1.0509 H   0  0  0  0  0  0  0  0  0  0  0  0
   -0.7307    6.6487    2.6884 N   0  0  0  0  0  0  0  0  0  0  0  0
   -0.0318    6.2626    3.8919 C   0  0  0  0  0  0  0  0  0  0  0  0
   -1.6293    6.2135    2.5019 H   0  0  0  0  0  0  0  0  0  0  0  0
    0.6219    5.4043    3.6776 H   0  0  0  0  0  0  0  0  0  0  0  0
    0.5766    7.1065    4.2491 H   0  0  0  0  0  0  0  0  0  0  0  0
   -0.7617    5.9832    4.6659 H   0  0  0  0  0  0  0  0  0  0  0  0
   -6.7256    2.0330   -0.2766 C   0  0  0  0  0  0  0  0  0  0  0  0
   -7.1824    1.1039   -0.9322 O   0  0  0  0  0  0  0  0  0  0  0  0
   -7.5276    2.6077    0.8435 C   0  0  0  0  0  0  0  0  0  0  0  0
   -8.1775    3.4344    0.5145 H   0  0  0  0  0  0  0  0  0  0  0  0
   -8.2057    1.8676    1.2980 H   0  0  0  0  0  0  0  0  0  0  0  0
   -6.9411    3.0162    1.6819 H   0  0  0  0  0  0  0  0  0  0  0  0
   -5.4935    2.6382   -0.4627 N   0  0  0  0  0  0  0  0  0  0  0  0
   -4.5619    2.2388   -1.4845 C   0  0  2  0  0  0  0  0  0  0  0  0
   -3.1535    2.4674   -0.9521 C   0  0  0  0  0  0  0  0  0  0  0  0
   -2.8634    3.3945   -0.1987 O   0  0  0  0  0  0  0  0  0  0  0  0
   -4.7883    3.0138   -2.7732 C   0  0  0  0  0  0  0  0  0  0  0  0
   -5.2337    3.4049    0.1551 H   0  0  0  0  0  0  0  0  0  0  0  0
   -4.7192    1.1682   -1.6549 H   0  0  0  0  0  0  0  0  0  0  0  0
   -4.6352    4.0886   -2.6221 H   0  0  0  0  0  0  0  0  0  0  0  0
   -4.0976    2.6887   -3.5582 H   0  0  0  0  0  0  0  0  0  0  0  0
   -5.8111    2.8719   -3.1387 H   0  0  0  0  0  0  0  0  0  0  0  0
   -2.2466    1.5400   -1.4507 N   0  0  0  0  0  0  0  0  0  0  0  0
   -0.8424    1.5707   -1.1286 C   0  0  2  0  0  0  0  0  0  0  0  0
   -0.5400    0.4565   -0.1287 C   0  0  0  0  0  0  0  0  0  0  0  0
    0.5416   -0.1261   -0.0822 O   0  0  0  0  0  0  0  0  0  0  0  0
   -0.3833    2.9521   -0.6553 C   0  0  0  0  0  0  0  0  0  0  0  0
   -0.4990    4.2339   -1.9266 S   0  0  0  0  0  0  0  0  0  0  0  0
   -2.5850    0.7815   -2.0381 H   0  0  0  0  0  0  0  0  0  0  0  0
   -0.3205    1.3280   -2.0625 H   0  0  0  0  0  0  0  0  0  0  0  0
   -0.9815    3.2839    0.1996 H   0  0  0  0  0  0  0  0  0  0  0  0
    0.6616    2.9067   -0.3297 H   0  0  0  0  0  0  0  0  0  0  0  0
   -1.6266    0.1739    0.6868 N   0  0  0  0  0  0  0  0  0  0  0  0
   -1.5952   -0.8583    1.6965 C   0  0  2  0  0  0  0  0  0  0  0  0
   -2.9957   -1.4453    1.8127 C   0  0  0  0  0  0  0  0  0  0  0  0
   -4.0172   -0.7783    1.6618 O   0  0  0  0  0  0  0  0  0  0  0  0
   -1.1231   -0.3098    3.0340 C   0  0  0  0  0  0  0  0  0  0  0  0
   -2.4695    0.7352    0.6089 H   0  0  0  0  0  0  0  0  0  0  0  0
   -0.9039   -1.6293    1.3392 H   0  0  0  0  0  0  0  0  0  0  0  0
   -1.8033    0.4641    3.4080 H   0  0  0  0  0  0  0  0  0  0  0  0
   -1.0725   -1.0993    3.7911 H   0  0  0  0  0  0  0  0  0  0  0  0
   -0.1280    0.1387    2.9420 H   0  0  0  0  0  0  0  0  0  0  0  0
   -2.9710   -2.7920    2.1471 N   0  0  0  0  0  0  0  0  0  0  0  0
   -4.1726   -3.5654    2.3570 C   0  0  0  0  0  0  0  0  0  0  0  0
   -2.0795   -3.2743    2.2128 H   0  0  0  0  0  0  0  0  0  0  0  0
   -4.4378   -3.5494    3.4244 H   0  0  0  0  0  0  0  0  0  0  0  0
   -4.9948   -3.1321    1.7685 H   0  0  0  0  0  0  0  0  0  0  0  0
   -4.0007   -4.6038    2.0376 H   0  0  0  0  0  0  0  0  0  0  0  0
  1  3  1  0  0  0  0
  1  7  1  0  0  0  0
  1  2  2  0  0  0  0
 23 25  1  0  0  0  0
 23 29  1  0  0  0  0
 23 24  2  0  0  0  0
 50 51  1  0  0  0  0
 51 59  1  0  0  0  0
 51 52  2  0  0  0  0
  8  9  1  0  0  0  0
  9 17  1  0  0  0  0
  9 10  2  0  0  0  0
 30 31  1  0  0  0  0
 31 39  1  0  0  0  0
 31 32  2  0  0  0  0
 40 41  1  0  0  0  0
 41 49  1  0  0  0  0
 41 42  2  0  0  0  0
 50 53  1  0  0  0  0
 30 33  1  0  0  0  0
 59 60  1  0  0  0  0
 17 18  1  0  0  0  0
  8 11  1  0  0  0  0
 11 12  1  0  0  0  0
 40 43  1  0  0  0  0
 43 44  1  0  0  0  0
 49 50  1  0  0  0  0
  7  8  1  0  0  0  0
 29 30  1  0  0  0  0
 39 40  1  0  0  0  0
 12 44  1  0  0  0  0
  3  4  1  0  0  0  0
  3  5  1  0  0  0  0
  3  6  1  0  0  0  0
 25 26  1  0  0  0  0
 25 27  1  0  0  0  0
 25 28  1  0  0  0  0
 53 56  1  0  0  0  0
 53 57  1  0  0  0  0
 53 58  1  0  0  0  0
 33 36  1  0  0  0  0
 33 37  1  0  0  0  0
 33 38  1  0  0  0  0
 60 62  1  0  0  0  0
 60 63  1  0  0  0  0
 60 64  1  0  0  0  0
 18 20  1  0  0  0  0
 18 21  1  0  0  0  0
 18 22  1  0  0  0  0
 11 15  1  0  0  0  0
 11 16  1  0  0  0  0
 43 47  1  0  0  0  0
 43 48  1  0  0  0  0
 50 55  1  0  0  0  0
  8 14  1  0  0  0  0
 30 35  1  0  0  0  0
 40 46  1  0  0  0  0
 59 61  1  0  0  0  0
 17 19  1  0  0  0  0
  7 13  1  0  0  0  0
 29 34  1  0  0  0  0
 49 54  1  0  0  0  0
 39 45  1  0  0  0  0
M  END
$$$$

  -OEChem-05262214473D

 64 63  0     1  0  0  0  0  0999 V2000
   -1.4781    9.7988   -0.8578 C   0  0  0  0  0  0  0  0  0  0  0  0
   -2.7029    9.7741   -0.8908 O   0  0  0  0  0  0  0  0  0  0  0  0
   -0.7429   10.8604   -1.6066 C   0  0  0  0  0  0  0  0  0  0  0  0
   -0.5003   10.5565   -2.6376 H   0  0  0  0  0  0  0  0  0  0  0  0
   -1.3299   11.7874   -1.7068 H   0  0  0  0  0  0  0  0  0  0  0  0
    0.2163   11.1717   -1.1630 H   0  0  0  0  0  0  0  0  0  0  0  0
   -0.6592    8.9169   -0.1739 N   0  0  0  0  0  0  0  0  0  0  0  0
   -1.1614    7.8195    0.6135 C   0  0  2  0  0  0  0  0  0  0  0  0
   -0.2493    7.6200    1.8222 C   0  0  0  0  0  0  0  0  0  0  0  0
    0.7987    8.2429    1.9803 O   0  0  0  0  0  0  0  0  0  0  0  0
   -1.3561    6.5481   -0.2164 C   0  0  0  0  0  0  0  0  0  0  0  0
    0.1898    5.8863   -0.9199 S   0  0  0  0  0  0  0  0  0  0  0  0
    0.3480    9.0502   -0.2301 H   0  0  0  0  0  0  0  0  0  0  0  0
   -2.1391    8.1481    0.9872 H   0  0  0  0  0  0  0  0  0  0  0  0
   -1.8039    5.7562    0.3929 H   0  0  0  0  0  0  0  0  0  0  0  0
   -2.0369    6.7478   -1.0509 H   0  0  0  0  0  0  0  0  0  0  0  0
   -0.7307    6.6487    2.6884 N   0  0  0  0  0  0  0  0  0  0  0  0
   -0.0318    6.2626    3.8919 C   0  0  0  0  0  0  0  0  0  0  0  0
   -1.6293    6.2135    2.5019 H   0  0  0  0  0  0  0  0  0  0  0  0
    0.6219    5.4043    3.6776 H   0  0  0  0  0  0  0  0  0  0  0  0
    0.5766    7.1065    4.2491 H   0  0  0  0  0  0  0  0  0  0  0  0
   -0.7617    5.9832    4.6659 H   0  0  0  0  0  0  0  0  0  0  0  0
   -6.7256    2.0330   -0.2766 C   0  0  0  0  0  0  0  0  0  0  0  0
   -7.1824    1.1039   -0.9322 O   0  0  0  0  0  0  0  0  0  0  0  0
   -7.5276    2.6077    0.8435 C   0  0  0  0  0  0  0  0  0  0  0  0
   -8.1775    3.4344    0.5145 H   0  0  0  0  0  0  0  0  0  0  0  0
   -8.2057    1.8676    1.2980 H   0  0  0  0  0  0  0  0  0  0  0  0
   -6.9411    3.0162    1.6819 H   0  0  0  0  0  0  0  0  0  0  0  0
   -5.4935    2.6382   -0.4627 N   0  0  0  0  0  0  0  0  0  0  0  0
   -4.5619    2.2388   -1.4845 C   0  0  2  0  0  0  0  0  0  0  0  0
   -3.1535    2.4674   -0.9521 C   0  0  0  0  0  0  0  0  0  0  0  0
   -2.8634    3.3945   -0.1987 O   0  0  0  0  0  0  0  0  0  0  0  0
   -4.7883    3.0138   -2.7732 C   0  0  0  0  0  0  0  0  0  0  0  0
   -5.2337    3.4049    0.1551 H   0  0  0  0  0  0  0  0  0  0  0  0
   -4.7192    1.1682   -1.6549 H   0  0  0  0  0  0  0  0  0  0  0  0
   -4.6352    4.0886   -2.6221 H   0  0  0  0  0  0  0  0  0  0  0  0
   -4.0976    2.6887   -3.5582 H   0  0  0  0  0  0  0  0  0  0  0  0
   -5.8111    2.8719   -3.1387 H   0  0  0  0  0  0  0  0  0  0  0  0
   -2.2466    1.5400   -1.4507 N   0  0  0  0  0  0  0  0  0  0  0  0
   -0.8424    1.5707   -1.1286 C   0  0  2  0  0  0  0  0  0  0  0  0
   -0.5400    0.4565   -0.1287 C   0  0  0  0  0  0  0  0  0  0  0  0
    0.5992    0.0580    0.1055 O   0  0  0  0  0  0  0  0  0  0  0  0
   -0.3833    2.9521   -0.6553 C   0  0  0  0  0  0  0  0  0  0  0  0
   -0.4990    4.2339   -1.9266 S   0  0  0  0  0  0  0  0  0  0  0  0
   -2.5850    0.7815   -2.0381 H   0  0  0  0  0  0  0  0  0  0  0  0
   -0.3205    1.3280   -2.0625 H   0  0  0  0  0  0  0  0  0  0  0  0
   -0.9815    3.2839    0.1996 H   0  0  0  0  0  0  0  0  0  0  0  0
    0.6616    2.9067   -0.3297 H   0  0  0  0  0  0  0  0  0  0  0  0
   -1.6921   -0.0555    0.4511 N   0  0  0  0  0  0  0  0  0  0  0  0
   -1.6679   -1.1342    1.4111 C   0  0  2  0  0  0  0  0  0  0  0  0
   -2.9417   -1.9501    1.2338 C   0  0  0  0  0  0  0  0  0  0  0  0
   -4.0182   -1.4516    0.9119 O   0  0  0  0  0  0  0  0  0  0  0  0
   -1.5535   -0.6071    2.8330 C   0  0  0  0  0  0  0  0  0  0  0  0
   -2.5909    0.3635    0.2315 H   0  0  0  0  0  0  0  0  0  0  0  0
   -0.7989   -1.7551    1.1674 H   0  0  0  0  0  0  0  0  0  0  0  0
   -2.4154    0.0173    3.0953 H   0  0  0  0  0  0  0  0  0  0  0  0
   -1.5066   -1.4268    3.5574 H   0  0  0  0  0  0  0  0  0  0  0  0
   -0.6522    0.0042    2.9507 H   0  0  0  0  0  0  0  0  0  0  0  0
   -2.7446   -3.2939    1.5194 N   0  0  0  0  0  0  0  0  0  0  0  0
   -3.8108   -4.2668    1.4660 C   0  0  0  0  0  0  0  0  0  0  0  0
   -1.8103   -3.6262    1.7392 H   0  0  0  0  0  0  0  0  0  0  0  0
   -4.2669   -4.3667    2.4619 H   0  0  0  0  0  0  0  0  0  0  0  0
   -4.5731   -3.9359    0.7452 H   0  0  0  0  0  0  0  0  0  0  0  0
   -3.4044   -5.2388    1.1497 H   0  0  0  0  0  0  0  0  0  0  0  0
  1  3  1  0  0  0  0
  1  7  1  0  0  0  0
  1  2  2  0  0  0  0
 23 25  1  0  0  0  0
 23 29  1  0  0  0  0
 23 24  2  0  0  0  0
 50 51  1  0  0  0  0
 51 59  1  0  0  0  0
 51 52  2  0  0  0  0
  8  9  1  0  0  0  0
  9 17  1  0  0  0  0
  9 10  2  0  0  0  0
 30 31  1  0  0  0  0
 31 39  1  0  0  0  0
 31 32  2  0  0  0  0
 40 41  1  0  0  0  0
 41 49  1  0  0  0  0
 41 42  2  0  0  0  0
 50 53  1  0  0  0  0
 30 33  1  0  0  0  0
 59 60  1  0  0  0  0
 17 18  1  0  0  0  0
  8 11  1  0  0  0  0
 11 12  1  0  0  0  0
 40 43  1  0  0  0  0
 43 44  1  0  0  0  0
 49 50  1  0  0  0  0
  7  8  1  0  0  0  0
 29 30  1  0  0  0  0
 39 40  1  0  0  0  0
 12 44  1  0  0  0  0
  3  4  1  0  0  0  0
  3  5  1  0  0  0  0
  3  6  1  0  0  0  0
 25 26  1  0  0  0  0
 25 27  1  0  0  0  0
 25 28  1  0  0  0  0
 53 56  1  0  0  0  0
 53 57  1  0  0  0  0
 53 58  1  0  0  0  0
 33 36  1  0  0  0  0
 33 37  1  0  0  0  0
 33 38  1  0  0  0  0
 60 62  1  0  0  0  0
 60 63  1  0  0  0  0
 60 64  1  0  0  0  0
 18 20  1  0  0  0  0
 18 21  1  0  0  0  0
 18 22  1  0  0  0  0
 11 15  1  0  0  0  0
 11 16  1  0  0  0  0
 43 47  1  0  0  0  0
 43 48  1  0  0  0  0
 50 55  1  0  0  0  0
  8 14  1  0  0  0  0
 30 35  1  0  0  0  0
 40 46  1  0  0  0  0
 59 61  1  0  0  0  0
 17 19  1  0  0  0  0
  7 13  1  0  0  0  0
 29 34  1  0  0  0  0
 49 54  1  0  0  0  0
 39 45  1  0  0  0  0
M  END
$$$$

  -OEChem-05262214473D

 64 63  0     1  0  0  0  0  0999 V2000
   -1.4781    9.7988   -0.8578 C   0  0  0  0  0  0  0  0  0  0  0  0
   -2.7029    9.7741   -0.8908 O   0  0  0  0  0  0  0  0  0  0  0  0
   -0.7429   10.8604   -1.6066 C   0  0  0  0  0  0  0  0  0  0  0  0
   -0.5003   10.5565   -2.6376 H   0  0  0  0  0  0  0  0  0  0  0  0
   -1.3299   11.7874   -1.7068 H   0  0  0  0  0  0  0  0  0  0  0  0
    0.2163   11.1717   -1.1630 H   0  0  0  0  0  0  0  0  0  0  0  0
   -0.6592    8.9169   -0.1739 N   0  0  0  0  0  0  0  0  0  0  0  0
   -1.1614    7.8195    0.6135 C   0  0  2  0  0  0  0  0  0  0  0  0
   -0.2493    7.6200    1.8222 C   0  0  0  0  0  0  0  0  0  0  0  0
    0.7987    8.2429    1.9803 O   0  0  0  0  0  0  0  0  0  0  0  0
   -1.3561    6.5481   -0.2164 C   0  0  0  0  0  0  0  0  0  0  0  0
    0.1898    5.8863   -0.9199 S   0  0  0  0  0  0  0  0  0  0  0  0
    0.3480    9.0502   -0.2301 H   0  0  0  0  0  0  0  0  0  0  0  0
   -2.1391    8.1481    0.9872 H   0  0  0  0  0  0  0  0  0  0  0  0
   -1.8039    5.7562    0.3929 H   0  0  0  0  0  0  0  0  0  0  0  0
   -2.0369    6.7478   -1.0509 H   0  0  0  0  0  0  0  0  0  0  0  0
   -0.7307    6.6487    2.6884 N   0  0  0  0  0  0  0  0  0  0  0  0
   -0.0318    6.2626    3.8919 C   0  0  0  0  0  0  0  0  0  0  0  0
   -1.6293    6.2135    2.5019 H   0  0  0  0  0  0  0  0  0  0  0  0
    0.6219    5.4043    3.6776 H   0  0  0  0  0  0  0  0  0  0  0  0
    0.5766    7.1065    4.2491 H   0  0  0  0  0  0  0  0  0  0  0  0
   -0.7617    5.9832    4.6659 H   0  0  0  0  0  0  0  0  0  0  0  0
   -6.7256    2.0330   -0.2766 C   0  0  0  0  0  0  0  0  0  0  0  0
   -7.1824    1.1039   -0.9322 O   0  0  0  0  0  0  0  0  0  0  0  0
   -7.5276    2.6077    0.8435 C   0  0  0  0  0  0  0  0  0  0  0  0
   -8.1775    3.4344    0.5145 H   0  0  0  0  0  0  0  0  0  0  0  0
   -8.2057    1.8676    1.2980 H   0  0  0  0  0  0  0  0  0  0  0  0
   -6.9411    3.0162    1.6819 H   0  0  0  0  0  0  0  0  0  0  0  0
   -5.4935    2.6382   -0.4627 N   0  0  0  0  0  0  0  0  0  0  0  0
   -4.5619    2.2388   -1.4845 C   0  0  2  0  0  0  0  0  0  0  0  0
   -3.1535    2.4674   -0.9521 C   0  0  0  0  0  0  0  0  0  0  0  0
   -2.8634    3.3945   -0.1987 O   0  0  0  0  0  0  0  0  0  0  0  0
   -4.7883    3.0138   -2.7732 C   0  0  0  0  0  0  0  0  0  0  0  0
   -5.2337    3.4049    0.1551 H   0  0  0  0  0  0  0  0  0  0  0  0
   -4.7192    1.1682   -1.6549 H   0  0  0  0  0  0  0  0  0  0  0  0
   -4.6352    4.0886   -2.6221 H   0  0  0  0  0  0  0  0  0  0  0  0
   -4.0976    2.6887   -3.5582 H   0  0  0  0  0  0  0  0  0  0  0  0
   -5.8111    2.8719   -3.1387 H   0  0  0  0  0  0  0  0  0  0  0  0
   -2.2466    1.5400   -1.4507 N   0  0  0  0  0  0  0  0  0  0  0  0
   -0.8424    1.5707   -1.1286 C   0  0  2  0  0  0  0  0  0  0  0  0
   -0.5400    0.4565   -0.1287 C   0  0  0  0  0  0  0  0  0  0  0  0
    0.5882    0.2359    0.3071 O   0  0  0  0  0  0  0  0  0  0  0  0
   -0.3833    2.9521   -0.6553 C   0  0  0  0  0  0  0  0  0  0  0  0
   -0.4990    4.2339   -1.9266 S   0  0  0  0  0  0  0  0  0  0  0  0
   -2.5850    0.7815   -2.0381 H   0  0  0  0  0  0  0  0  0  0  0  0
   -0.3205    1.3280   -2.0625 H   0  0  0  0  0  0  0  0  0  0  0  0
   -0.9815    3.2839    0.1996 H   0  0  0  0  0  0  0  0  0  0  0  0
    0.6616    2.9067   -0.3297 H   0  0  0  0  0  0  0  0  0  0  0  0
   -1.6720   -0.2760    0.1993 N   0  0  0  0  0  0  0  0  0  0  0  0
   -1.6375   -1.3984    1.1075 C   0  0  2  0  0  0  0  0  0  0  0  0
   -2.6946   -2.3989    0.6590 C   0  0  0  0  0  0  0  0  0  0  0  0
   -3.7635   -2.0637    0.1528 O   0  0  0  0  0  0  0  0  0  0  0  0
   -1.8810   -0.9569    2.5422 C   0  0  0  0  0  0  0  0  0  0  0  0
   -2.5740    0.0032   -0.1751 H   0  0  0  0  0  0  0  0  0  0  0  0
   -0.6438   -1.8499    1.0147 H   0  0  0  0  0  0  0  0  0  0  0  0
   -2.8719   -0.5019    2.6547 H   0  0  0  0  0  0  0  0  0  0  0  0
   -1.8263   -1.8047    3.2330 H   0  0  0  0  0  0  0  0  0  0  0  0
   -1.1375   -0.2150    2.8532 H   0  0  0  0  0  0  0  0  0  0  0  0
   -2.3224   -3.7081    0.9301 N   0  0  0  0  0  0  0  0  0  0  0  0
   -3.1741   -4.8373    0.6377 C   0  0  0  0  0  0  0  0  0  0  0  0
   -1.4012   -3.8963    1.3146 H   0  0  0  0  0  0  0  0  0  0  0  0
   -3.7815   -5.0779    1.5226 H   0  0  0  0  0  0  0  0  0  0  0  0
   -3.8363   -4.5885   -0.2047 H   0  0  0  0  0  0  0  0  0  0  0  0
   -2.5533   -5.7056    0.3720 H   0  0  0  0  0  0  0  0  0  0  0  0
  1  3  1  0  0  0  0
  1  7  1  0  0  0  0
  1  2  2  0  0  0  0
 23 25  1  0  0  0  0
 23 29  1  0  0  0  0
 23 24  2  0  0  0  0
 50 51  1  0  0  0  0
 51 59  1  0  0  0  0
 51 52  2  0  0  0  0
  8  9  1  0  0  0  0
  9 17  1  0  0  0  0
  9 10  2  0  0  0  0
 30 31  1  0  0  0  0
 31 39  1  0  0  0  0
 31 32  2  0  0  0  0
 40 41  1  0  0  0  0
 41 49  1  0  0  0  0
 41 42  2  0  0  0  0
 50 53  1  0  0  0  0
 30 33  1  0  0  0  0
 59 60  1  0  0  0  0
 17 18  1  0  0  0  0
  8 11  1  0  0  0  0
 11 12  1  0  0  0  0
 40 43  1  0  0  0  0
 43 44  1  0  0  0  0
 49 50  1  0  0  0  0
  7  8  1  0  0  0  0
 29 30  1  0  0  0  0
 39 40  1  0  0  0  0
 12 44  1  0  0  0  0
  3  4  1  0  0  0  0
  3  5  1  0  0  0  0
  3  6  1  0  0  0  0
 25 26  1  0  0  0  0
 25 27  1  0  0  0  0
 25 28  1  0  0  0  0
 53 56  1  0  0  0  0
 53 57  1  0  0  0  0
 53 58  1  0  0  0  0
 33 36  1  0  0  0  0
 33 37  1  0  0  0  0
 33 38  1  0  0  0  0
 60 62  1  0  0  0  0
 60 63  1  0  0  0  0
 60 64  1  0  0  0  0
 18 20  1  0  0  0  0
 18 21  1  0  0  0  0
 18 22  1  0  0  0  0
 11 15  1  0  0  0  0
 11 16  1  0  0  0  0
 43 47  1  0  0  0  0
 43 48  1  0  0  0  0
 50 55  1  0  0  0  0
  8 14  1  0  0  0  0
 30 35  1  0  0  0  0
 40 46  1  0  0  0  0
 59 61  1  0  0  0  0
 17 19  1  0  0  0  0
  7 13  1  0  0  0  0
 29 34  1  0  0  0  0
 49 54  1  0  0  0  0
 39 45  1  0  0  0  0
M  END
$$$$

  -OEChem-05262214473D

 64 63  0     1  0  0  0  0  0999 V2000
   -1.4781    9.7988   -0.8578 C   0  0  0  0  0  0  0  0  0  0  0  0
   -2.7029    9.7741   -0.8908 O   0  0  0  0  0  0  0  0  0  0  0  0
   -0.7429   10.8604   -1.6066 C   0  0  0  0  0  0  0  0  0  0  0  0
   -0.5003   10.5565   -2.6376 H   0  0  0  0  0  0  0  0  0  0  0  0
   -1.3299   11.7874   -1.7068 H   0  0  0  0  0  0  0  0  0  0  0  0
    0.2163   11.1717   -1.1630 H   0  0  0  0  0  0  0  0  0  0  0  0
   -0.6592    8.9169   -0.1739 N   0  0  0  0  0  0  0  0  0  0  0  0
   -1.1614    7.8195    0.6135 C   0  0  2  0  0  0  0  0  0  0  0  0
   -0.2493    7.6200    1.8222 C   0  0  0  0  0  0  0  0  0  0  0  0
    0.7987    8.2429    1.9803 O   0  0  0  0  0  0  0  0  0  0  0  0
   -1.3561    6.5481   -0.2164 C   0  0  0  0  0  0  0  0  0  0  0  0
    0.1898    5.8863   -0.9199 S   0  0  0  0  0  0  0  0  0  0  0  0
    0.3480    9.0502   -0.2301 H   0  0  0  0  0  0  0  0  0  0  0  0
   -2.1391    8.1481    0.9872 H   0  0  0  0  0  0  0  0  0  0  0  0
   -1.8039    5.7562    0.3929 H   0  0  0  0  0  0  0  0  0  0  0  0
   -2.0369    6.7478   -1.0509 H   0  0  0  0  0  0  0  0  0  0  0  0
   -0.7307    6.6487    2.6884 N   0  0  0  0  0  0  0  0  0  0  0  0
   -0.0318    6.2626    3.8919 C   0  0  0  0  0  0  0  0  0  0  0  0
   -1.6293    6.2135    2.5019 H   0  0  0  0  0  0  0  0  0  0  0  0
    0.6219    5.4043    3.6776 H   0  0  0  0  0  0  0  0  0  0  0  0
    0.5766    7.1065    4.2491 H   0  0  0  0  0  0  0  0  0  0  0  0
   -0.7617    5.9832    4.6659 H   0  0  0  0  0  0  0  0  0  0  0  0
   -6.7256    2.0330   -0.2766 C   0  0  0  0  0  0  0  0  0  0  0  0
   -7.1824    1.1039   -0.9322 O   0  0  0  0  0  0  0  0  0  0  0  0
   -7.5276    2.6077    0.8435 C   0  0  0  0  0  0  0  0  0  0  0  0
   -8.1775    3.4344    0.5145 H   0  0  0  0  0  0  0  0  0  0  0  0
   -8.2057    1.8676    1.2980 H   0  0  0  0  0  0  0  0  0  0  0  0
   -6.9411    3.0162    1.6819 H   0  0  0  0  0  0  0  0  0  0  0  0
   -5.4935    2.6382   -0.4627 N   0  0  0  0  0  0  0  0  0  0  0  0
   -4.5619    2.2388   -1.4845 C   0  0  2  0  0  0  0  0  0  0  0  0
   -3.1535    2.4674   -0.9521 C   0  0  0  0  0  0  0  0  0  0  0  0
   -2.8634    3.3945   -0.1987 O   0  0  0  0  0  0  0  0  0  0  0  0
   -4.7883    3.0138   -2.7732 C   0  0  0  0  0  0  0  0  0  0  0  0
   -5.2337    3.4049    0.1551 H   0  0  0  0  0  0  0  0  0  0  0  0
   -4.7192    1.1682   -1.6549 H   0  0  0  0  0  0  0  0  0  0  0  0
   -4.6352    4.0886   -2.6221 H   0  0  0  0  0  0  0  0  0  0  0  0
   -4.0976    2.6887   -3.5582 H   0  0  0  0  0  0  0  0  0  0  0  0
   -5.8111    2.8719   -3.1387 H   0  0  0  0  0  0  0  0  0  0  0  0
   -2.2466    1.5400   -1.4507 N   0  0  0  0  0  0  0  0  0  0  0  0
   -0.8424    1.5707   -1.1286 C   0  0  2  0  0  0  0  0  0  0  0  0
   -0.5400    0.4565   -0.1287 C   0  0  0  0  0  0  0  0  0  0  0  0
    0.5094    0.3956    0.5089 O   0  0  0  0  0  0  0  0  0  0  0  0
   -0.3833    2.9521   -0.6553 C   0  0  0  0  0  0  0  0  0  0  0  0
   -0.4990    4.2339   -1.9266 S   0  0  0  0  0  0  0  0  0  0  0  0
   -2.5850    0.7815   -2.0381 H   0  0  0  0  0  0  0  0  0  0  0  0
   -0.3205    1.3280   -2.0625 H   0  0  0  0  0  0  0  0  0  0  0  0
   -0.9815    3.2839    0.1996 H   0  0  0  0  0  0  0  0  0  0  0  0
    0.6616    2.9067   -0.3297 H   0  0  0  0  0  0  0  0  0  0  0  0
   -1.5677   -0.4727   -0.0515 N   0  0  0  0  0  0  0  0  0  0  0  0
   -1.5061   -1.6329    0.8065 C   0  0  2  0  0  0  0  0  0  0  0  0
   -2.2715   -2.7610    0.1275 C   0  0  0  0  0  0  0  0  0  0  0  0
   -3.2704   -2.5729   -0.5637 O   0  0  0  0  0  0  0  0  0  0  0  0
   -2.0832   -1.3353    2.1817 C   0  0  0  0  0  0  0  0  0  0  0  0
   -2.4198   -0.3210   -0.5831 H   0  0  0  0  0  0  0  0  0  0  0  0
   -0.4491   -1.9075    0.8917 H   0  0  0  0  0  0  0  0  0  0  0  0
   -3.1417   -1.0582    2.1164 H   0  0  0  0  0  0  0  0  0  0  0  0
   -2.0097   -2.2073    2.8399 H   0  0  0  0  0  0  0  0  0  0  0  0
   -1.5507   -0.5040    2.6562 H   0  0  0  0  0  0  0  0  0  0  0  0
   -1.7331   -4.0065    0.4194 N   0  0  0  0  0  0  0  0  0  0  0  0
   -2.3062   -5.2380   -0.0714 C   0  0  0  0  0  0  0  0  0  0  0  0
   -0.8802   -4.0661    0.9678 H   0  0  0  0  0  0  0  0  0  0  0  0
   -3.0149   -5.6345    0.6705 H   0  0  0  0  0  0  0  0  0  0  0  0
   -2.8347   -5.0452   -1.0167 H   0  0  0  0  0  0  0  0  0  0  0  0
   -1.5053   -5.9724   -0.2423 H   0  0  0  0  0  0  0  0  0  0  0  0
  1  3  1  0  0  0  0
  1  7  1  0  0  0  0
  1  2  2  0  0  0  0
 23 25  1  0  0  0  0
 23 29  1  0  0  0  0
 23 24  2  0  0  0  0
 50 51  1  0  0  0  0
 51 59  1  0  0  0  0
 51 52  2  0  0  0  0
  8  9  1  0  0  0  0
  9 17  1  0  0  0  0
  9 10  2  0  0  0  0
 30 31  1  0  0  0  0
 31 39  1  0  0  0  0
 31 32  2  0  0  0  0
 40 41  1  0  0  0  0
 41 49  1  0  0  0  0
 41 42  2  0  0  0  0
 50 53  1  0  0  0  0
 30 33  1  0  0  0  0
 59 60  1  0  0  0  0
 17 18  1  0  0  0  0
  8 11  1  0  0  0  0
 11 12  1  0  0  0  0
 40 43  1  0  0  0  0
 43 44  1  0  0  0  0
 49 50  1  0  0  0  0
  7  8  1  0  0  0  0
 29 30  1  0  0  0  0
 39 40  1  0  0  0  0
 12 44  1  0  0  0  0
  3  4  1  0  0  0  0
  3  5  1  0  0  0  0
  3  6  1  0  0  0  0
 25 26  1  0  0  0  0
 25 27  1  0  0  0  0
 25 28  1  0  0  0  0
 53 56  1  0  0  0  0
 53 57  1  0  0  0  0
 53 58  1  0  0  0  0
 33 36  1  0  0  0  0
 33 37  1  0  0  0  0
 33 38  1  0  0  0  0
 60 62  1  0  0  0  0
 60 63  1  0  0  0  0
 60 64  1  0  0  0  0
 18 20  1  0  0  0  0
 18 21  1  0  0  0  0
 18 22  1  0  0  0  0
 11 15  1  0  0  0  0
 11 16  1  0  0  0  0
 43 47  1  0  0  0  0
 43 48  1  0  0  0  0
 50 55  1  0  0  0  0
  8 14  1  0  0  0  0
 30 35  1  0  0  0  0
 40 46  1  0  0  0  0
 59 61  1  0  0  0  0
 17 19  1  0  0  0  0
  7 13  1  0  0  0  0
 29 34  1  0  0  0  0
 49 54  1  0  0  0  0
 39 45  1  0  0  0  0
M  END
$$$$

  -OEChem-05262214473D

 64 63  0     1  0  0  0  0  0999 V2000
   -1.4781    9.7988   -0.8578 C   0  0  0  0  0  0  0  0  0  0  0  0
   -2.7029    9.7741   -0.8908 O   0  0  0  0  0  0  0  0  0  0  0  0
   -0.7429   10.8604   -1.6066 C   0  0  0  0  0  0  0  0  0  0  0  0
   -0.5003   10.5565   -2.6376 H   0  0  0  0  0  0  0  0  0  0  0  0
   -1.3299   11.7874   -1.7068 H   0  0  0  0  0  0  0  0  0  0  0  0
    0.2163   11.1717   -1.1630 H   0  0  0  0  0  0  0  0  0  0  0  0
   -0.6592    8.9169   -0.1739 N   0  0  0  0  0  0  0  0  0  0  0  0
   -1.1614    7.8195    0.6135 C   0  0  2  0  0  0  0  0  0  0  0  0
   -0.2493    7.6200    1.8222 C   0  0  0  0  0  0  0  0  0  0  0  0
    0.7987    8.2429    1.9803 O   0  0  0  0  0  0  0  0  0  0  0  0
   -1.3561    6.5481   -0.2164 C   0  0  0  0  0  0  0  0  0  0  0  0
    0.1898    5.8863   -0.9199 S   0  0  0  0  0  0  0  0  0  0  0  0
    0.3480    9.0502   -0.2301 H   0  0  0  0  0  0  0  0  0  0  0  0
   -2.1391    8.1481    0.9872 H   0  0  0  0  0  0  0  0  0  0  0  0
   -1.8039    5.7562    0.3929 H   0  0  0  0  0  0  0  0  0  0  0  0
   -2.0369    6.7478   -1.0509 H   0  0  0  0  0  0  0  0  0  0  0  0
   -0.7307    6.6487    2.6884 N   0  0  0  0  0  0  0  0  0  0  0  0
   -0.0318    6.2626    3.8919 C   0  0  0  0  0  0  0  0  0  0  0  0
   -1.6293    6.2135    2.5019 H   0  0  0  0  0  0  0  0  0  0  0  0
    0.6219    5.4043    3.6776 H   0  0  0  0  0  0  0  0  0  0  0  0
    0.5766    7.1065    4.2491 H   0  0  0  0  0  0  0  0  0  0  0  0
   -0.7617    5.9832    4.6659 H   0  0  0  0  0  0  0  0  0  0  0  0
   -6.7256    2.0330   -0.2766 C   0  0  0  0  0  0  0  0  0  0  0  0
   -7.1824    1.1039   -0.9322 O   0  0  0  0  0  0  0  0  0  0  0  0
   -7.5276    2.6077    0.8435 C   0  0  0  0  0  0  0  0  0  0  0  0
   -8.1775    3.4344    0.5145 H   0  0  0  0  0  0  0  0  0  0  0  0
   -8.2057    1.8676    1.2980 H   0  0  0  0  0  0  0  0  0  0  0  0
   -6.9411    3.0162    1.6819 H   0  0  0  0  0  0  0  0  0  0  0  0
   -5.4935    2.6382   -0.4627 N   0  0  0  0  0  0  0  0  0  0  0  0
   -4.5619    2.2388   -1.4845 C   0  0  2  0  0  0  0  0  0  0  0  0
   -3.1535    2.4674   -0.9521 C   0  0  0  0  0  0  0  0  0  0  0  0
   -2.8634    3.3945   -0.1987 O   0  0  0  0  0  0  0  0  0  0  0  0
   -4.7883    3.0138   -2.7732 C   0  0  0  0  0  0  0  0  0  0  0  0
   -5.2337    3.4049    0.1551 H   0  0  0  0  0  0  0  0  0  0  0  0
   -4.7192    1.1682   -1.6549 H   0  0  0  0  0  0  0  0  0  0  0  0
   -4.6352    4.0886   -2.6221 H   0  0  0  0  0  0  0  0  0  0  0  0
   -4.0976    2.6887   -3.5582 H   0  0  0  0  0  0  0  0  0  0  0  0
   -5.8111    2.8719   -3.1387 H   0  0  0  0  0  0  0  0  0  0  0  0
   -2.2466    1.5400   -1.4507 N   0  0  0  0  0  0  0  0  0  0  0  0
   -0.8424    1.5707   -1.1286 C   0  0  2  0  0  0  0  0  0  0  0  0
   -0.5400    0.4565   -0.1287 C   0  0  0  0  0  0  0  0  0  0  0  0
    0.3681    0.5262    0.6971 O   0  0  0  0  0  0  0  0  0  0  0  0
   -0.3833    2.9521   -0.6553 C   0  0  0  0  0  0  0  0  0  0  0  0
   -0.4990    4.2339   -1.9266 S   0  0  0  0  0  0  0  0  0  0  0  0
   -2.5850    0.7815   -2.0381 H   0  0  0  0  0  0  0  0  0  0  0  0
   -0.3205    1.3280   -2.0625 H   0  0  0  0  0  0  0  0  0  0  0  0
   -0.9815    3.2839    0.1996 H   0  0  0  0  0  0  0  0  0  0  0  0
    0.6616    2.9067   -0.3297 H   0  0  0  0  0  0  0  0  0  0  0  0
   -1.3862   -0.6322   -0.2841 N   0  0  0  0  0  0  0  0  0  0  0  0
   -1.2826   -1.8217    0.5285 C   0  0  2  0  0  0  0  0  0  0  0  0
   -1.7010   -3.0119   -0.3246 C   0  0  0  0  0  0  0  0  0  0  0  0
   -2.5726   -2.9444   -1.1888 O   0  0  0  0  0  0  0  0  0  0  0  0
   -2.1462   -1.7166    1.7758 C   0  0  0  0  0  0  0  0  0  0  0  0
   -2.1389   -0.5872   -0.9647 H   0  0  0  0  0  0  0  0  0  0  0  0
   -0.2280   -1.9237    0.8067 H   0  0  0  0  0  0  0  0  0  0  0  0
   -3.2063   -1.6137    1.5170 H   0  0  0  0  0  0  0  0  0  0  0  0
   -2.0445   -2.6071    2.4049 H   0  0  0  0  0  0  0  0  0  0  0  0
   -1.8636   -0.8430    2.3731 H   0  0  0  0  0  0  0  0  0  0  0  0
   -1.0169   -4.1686    0.0221 N   0  0  0  0  0  0  0  0  0  0  0  0
   -1.2660   -5.4417   -0.6130 C   0  0  0  0  0  0  0  0  0  0  0  0
   -0.2826   -4.1240    0.7225 H   0  0  0  0  0  0  0  0  0  0  0  0
   -2.0192   -5.9986   -0.0363 H   0  0  0  0  0  0  0  0  0  0  0  0
   -1.6365   -5.2751   -1.6352 H   0  0  0  0  0  0  0  0  0  0  0  0
   -0.3317   -6.0211   -0.6515 H   0  0  0  0  0  0  0  0  0  0  0  0
  1  3  1  0  0  0  0
  1  7  1  0  0  0  0
  1  2  2  0  0  0  0
 23 25  1  0  0  0  0
 23 29  1  0  0  0  0
 23 24  2  0  0  0  0
 50 51  1  0  0  0  0
 51 59  1  0  0  0  0
 51 52  2  0  0  0  0
  8  9  1  0  0  0  0
  9 17  1  0  0  0  0
  9 10  2  0  0  0  0
 30 31  1  0  0  0  0
 31 39  1  0  0  0  0
 31 32  2  0  0  0  0
 40 41  1  0  0  0  0
 41 49  1  0  0  0  0
 41 42  2  0  0  0  0
 50 53  1  0  0  0  0
 30 33  1  0  0  0  0
 59 60  1  0  0  0  0
 17 18  1  0  0  0  0
  8 11  1  0  0  0  0
 11 12  1  0  0  0  0
 40 43  1  0  0  0  0
 43 44  1  0  0  0  0
 49 50  1  0  0  0  0
  7  8  1  0  0  0  0
 29 30  1  0  0  0  0
 39 40  1  0  0  0  0
 12 44  1  0  0  0  0
  3  4  1  0  0  0  0
  3  5  1  0  0  0  0
  3  6  1  0  0  0  0
 25 26  1  0  0  0  0
 25 27  1  0  0  0  0
 25 28  1  0  0  0  0
 53 56  1  0  0  0  0
 53 57  1  0  0  0  0
 53 58  1  0  0  0  0
 33 36  1  0  0  0  0
 33 37  1  0  0  0  0
 33 38  1  0  0  0  0
 60 62  1  0  0  0  0
 60 63  1  0  0  0  0
 60 64  1  0  0  0  0
 18 20  1  0  0  0  0
 18 21  1  0  0  0  0
 18 22  1  0  0  0  0
 11 15  1  0  0  0  0
 11 16  1  0  0  0  0
 43 47  1  0  0  0  0
 43 48  1  0  0  0  0
 50 55  1  0  0  0  0
  8 14  1  0  0  0  0
 30 35  1  0  0  0  0
 40 46  1  0  0  0  0
 59 61  1  0  0  0  0
 17 19  1  0  0  0  0
  7 13  1  0  0  0  0
 29 34  1  0  0  0  0
 49 54  1  0  0  0  0
 39 45  1  0  0  0  0
M  END
$$$$

  -OEChem-05262214473D

 64 63  0     1  0  0  0  0  0999 V2000
   -1.4781    9.7988   -0.8578 C   0  0  0  0  0  0  0  0  0  0  0  0
   -2.7029    9.7741   -0.8908 O   0  0  0  0  0  0  0  0  0  0  0  0
   -0.7429   10.8604   -1.6066 C   0  0  0  0  0  0  0  0  0  0  0  0
   -0.5003   10.5565   -2.6376 H   0  0  0  0  0  0  0  0  0  0  0  0
   -1.3299   11.7874   -1.7068 H   0  0  0  0  0  0  0  0  0  0  0  0
    0.2163   11.1717   -1.1630 H   0  0  0  0  0  0  0  0  0  0  0  0
   -0.6592    8.9169   -0.1739 N   0  0  0  0  0  0  0  0  0  0  0  0
   -1.1614    7.8195    0.6135 C   0  0  2  0  0  0  0  0  0  0  0  0
   -0.2493    7.6200    1.8222 C   0  0  0  0  0  0  0  0  0  0  0  0
    0.7987    8.2429    1.9803 O   0  0  0  0  0  0  0  0  0  0  0  0
   -1.3561    6.5481   -0.2164 C   0  0  0  0  0  0  0  0  0  0  0  0
    0.1898    5.8863   -0.9199 S   0  0  0  0  0  0  0  0  0  0  0  0
    0.3480    9.0502   -0.2301 H   0  0  0  0  0  0  0  0  0  0  0  0
   -2.1391    8.1481    0.9872 H   0  0  0  0  0  0  0  0  0  0  0  0
   -1.8039    5.7562    0.3929 H   0  0  0  0  0  0  0  0  0  0  0  0
   -2.0369    6.7478   -1.0509 H   0  0  0  0  0  0  0  0  0  0  0  0
   -0.7307    6.6487    2.6884 N   0  0  0  0  0  0  0  0  0  0  0  0
   -0.0318    6.2626    3.8919 C   0  0  0  0  0  0  0  0  0  0  0  0
   -1.6293    6.2135    2.5019 H   0  0  0  0  0  0  0  0  0  0  0  0
    0.6219    5.4043    3.6776 H   0  0  0  0  0  0  0  0  0  0  0  0
    0.5766    7.1065    4.2491 H   0  0  0  0  0  0  0  0  0  0  0  0
   -0.7617    5.9832    4.6659 H   0  0  0  0  0  0  0  0  0  0  0  0
   -6.7256    2.0330   -0.2766 C   0  0  0  0  0  0  0  0  0  0  0  0
   -7.1824    1.1039   -0.9322 O   0  0  0  0  0  0  0  0  0  0  0  0
   -7.5276    2.6077    0.8435 C   0  0  0  0  0  0  0  0  0  0  0  0
   -8.1775    3.4344    0.5145 H   0  0  0  0  0  0  0  0  0  0  0  0
   -8.2057    1.8676    1.2980 H   0  0  0  0  0  0  0  0  0  0  0  0
   -6.9411    3.0162    1.6819 H   0  0  0  0  0  0  0  0  0  0  0  0
   -5.4935    2.6382   -0.4627 N   0  0  0  0  0  0  0  0  0  0  0  0
   -4.5619    2.2388   -1.4845 C   0  0  2  0  0  0  0  0  0  0  0  0
   -3.1535    2.4674   -0.9521 C   0  0  0  0  0  0  0  0  0  0  0  0
   -2.8634    3.3945   -0.1987 O   0  0  0  0  0  0  0  0  0  0  0  0
   -4.7883    3.0138   -2.7732 C   0  0  0  0  0  0  0  0  0  0  0  0
   -5.2337    3.4049    0.1551 H   0  0  0  0  0  0  0  0  0  0  0  0
   -4.7192    1.1682   -1.6549 H   0  0  0  0  0  0  0  0  0  0  0  0
   -4.6352    4.0886   -2.6221 H   0  0  0  0  0  0  0  0  0  0  0  0
   -4.0976    2.6887   -3.5582 H   0  0  0  0  0  0  0  0  0  0  0  0
   -5.8111    2.8719   -3.1387 H   0  0  0  0  0  0  0  0  0  0  0  0
   -2.2466    1.5400   -1.4507 N   0  0  0  0  0  0  0  0  0  0  0  0
   -0.8424    1.5707   -1.1286 C   0  0  2  0  0  0  0  0  0  0  0  0
   -0.5400    0.4565   -0.1287 C   0  0  0  0  0  0  0  0  0  0  0  0
    0.1740    0.6187    0.8589 O   0  0  0  0  0  0  0  0  0  0  0  0
   -0.3833    2.9521   -0.6553 C   0  0  0  0  0  0  0  0  0  0  0  0
   -0.4990    4.2339   -1.9266 S   0  0  0  0  0  0  0  0  0  0  0  0
   -2.5850    0.7815   -2.0381 H   0  0  0  0  0  0  0  0  0  0  0  0
   -0.3205    1.3280   -2.0625 H   0  0  0  0  0  0  0  0  0  0  0  0
   -0.9815    3.2839    0.1996 H   0  0  0  0  0  0  0  0  0  0  0  0
    0.6616    2.9067   -0.3297 H   0  0  0  0  0  0  0  0  0  0  0  0
   -1.1400   -0.7436   -0.4827 N   0  0  0  0  0  0  0  0  0  0  0  0
   -0.9822   -1.9519    0.2925 C   0  0  2  0  0  0  0  0  0  0  0  0
   -1.0220   -3.1344   -0.6665 C   0  0  0  0  0  0  0  0  0  0  0  0
   -1.7175   -3.1530   -1.6799 O   0  0  0  0  0  0  0  0  0  0  0  0
   -2.0659   -2.0749    1.3523 C   0  0  0  0  0  0  0  0  0  0  0  0
   -1.7504   -0.7772   -1.2938 H   0  0  0  0  0  0  0  0  0  0  0  0
    0.0043   -1.8976    0.7655 H   0  0  0  0  0  0  0  0  0  0  0  0
   -3.0615   -2.1305    0.8973 H   0  0  0  0  0  0  0  0  0  0  0  0
   -1.9282   -2.9769    1.9577 H   0  0  0  0  0  0  0  0  0  0  0  0
   -2.0550   -1.2090    2.0232 H   0  0  0  0  0  0  0  0  0  0  0  0
   -0.2226   -4.1836   -0.2348 N   0  0  0  0  0  0  0  0  0  0  0  0
   -0.1244   -5.4344   -0.9502 C   0  0  0  0  0  0  0  0  0  0  0  0
    0.3507   -4.0661    0.5954 H   0  0  0  0  0  0  0  0  0  0  0  0
   -0.8622   -6.1453   -0.5498 H   0  0  0  0  0  0  0  0  0  0  0  0
   -0.3234   -5.2624   -2.0183 H   0  0  0  0  0  0  0  0  0  0  0  0
    0.8873   -5.8483   -0.8277 H   0  0  0  0  0  0  0  0  0  0  0  0
  1  3  1  0  0  0  0
  1  7  1  0  0  0  0
  1  2  2  0  0  0  0
 23 25  1  0  0  0  0
 23 29  1  0  0  0  0
 23 24  2  0  0  0  0
 50 51  1  0  0  0  0
 51 59  1  0  0  0  0
 51 52  2  0  0  0  0
  8  9  1  0  0  0  0
  9 17  1  0  0  0  0
  9 10  2  0  0  0  0
 30 31  1  0  0  0  0
 31 39  1  0  0  0  0
 31 32  2  0  0  0  0
 40 41  1  0  0  0  0
 41 49  1  0  0  0  0
 41 42  2  0  0  0  0
 50 53  1  0  0  0  0
 30 33  1  0  0  0  0
 59 60  1  0  0  0  0
 17 18  1  0  0  0  0
  8 11  1  0  0  0  0
 11 12  1  0  0  0  0
 40 43  1  0  0  0  0
 43 44  1  0  0  0  0
 49 50  1  0  0  0  0
  7  8  1  0  0  0  0
 29 30  1  0  0  0  0
 39 40  1  0  0  0  0
 12 44  1  0  0  0  0
  3  4  1  0  0  0  0
  3  5  1  0  0  0  0
  3  6  1  0  0  0  0
 25 26  1  0  0  0  0
 25 27  1  0  0  0  0
 25 28  1  0  0  0  0
 53 56  1  0  0  0  0
 53 57  1  0  0  0  0
 53 58  1  0  0  0  0
 33 36  1  0  0  0  0
 33 37  1  0  0  0  0
 33 38  1  0  0  0  0
 60 62  1  0  0  0  0
 60 63  1  0  0  0  0
 60 64  1  0  0  0  0
 18 20  1  0  0  0  0
 18 21  1  0  0  0  0
 18 22  1  0  0  0  0
 11 15  1  0  0  0  0
 11 16  1  0  0  0  0
 43 47  1  0  0  0  0
 43 48  1  0  0  0  0
 50 55  1  0  0  0  0
  8 14  1  0  0  0  0
 30 35  1  0  0  0  0
 40 46  1  0  0  0  0
 59 61  1  0  0  0  0
 17 19  1  0  0  0  0
  7 13  1  0  0  0  0
 29 34  1  0  0  0  0
 49 54  1  0  0  0  0
 39 45  1  0  0  0  0
M  END
$$$$

  -OEChem-05262214473D

 64 63  0     1  0  0  0  0  0999 V2000
   -1.4781    9.7988   -0.8578 C   0  0  0  0  0  0  0  0  0  0  0  0
   -2.7029    9.7741   -0.8908 O   0  0  0  0  0  0  0  0  0  0  0  0
   -0.7429   10.8604   -1.6066 C   0  0  0  0  0  0  0  0  0  0  0  0
   -0.5003   10.5565   -2.6376 H   0  0  0  0  0  0  0  0  0  0  0  0
   -1.3299   11.7874   -1.7068 H   0  0  0  0  0  0  0  0  0  0  0  0
    0.2163   11.1717   -1.1630 H   0  0  0  0  0  0  0  0  0  0  0  0
   -0.6592    8.9169   -0.1739 N   0  0  0  0  0  0  0  0  0  0  0  0
   -1.1614    7.8195    0.6135 C   0  0  2  0  0  0  0  0  0  0  0  0
   -0.2493    7.6200    1.8222 C   0  0  0  0  0  0  0  0  0  0  0  0
    0.7987    8.2429    1.9803 O   0  0  0  0  0  0  0  0  0  0  0  0
   -1.3561    6.5481   -0.2164 C   0  0  0  0  0  0  0  0  0  0  0  0
    0.1898    5.8863   -0.9199 S   0  0  0  0  0  0  0  0  0  0  0  0
    0.3480    9.0502   -0.2301 H   0  0  0  0  0  0  0  0  0  0  0  0
   -2.1391    8.1481    0.9872 H   0  0  0  0  0  0  0  0  0  0  0  0
   -1.8039    5.7562    0.3929 H   0  0  0  0  0  0  0  0  0  0  0  0
   -2.0369    6.7478   -1.0509 H   0  0  0  0  0  0  0  0  0  0  0  0
   -0.7307    6.6487    2.6884 N   0  0  0  0  0  0  0  0  0  0  0  0
   -0.0318    6.2626    3.8919 C   0  0  0  0  0  0  0  0  0  0  0  0
   -1.6293    6.2135    2.5019 H   0  0  0  0  0  0  0  0  0  0  0  0
    0.6219    5.4043    3.6776 H   0  0  0  0  0  0  0  0  0  0  0  0
    0.5766    7.1065    4.2491 H   0  0  0  0  0  0  0  0  0  0  0  0
   -0.7617    5.9832    4.6659 H   0  0  0  0  0  0  0  0  0  0  0  0
   -6.7256    2.0330   -0.2766 C   0  0  0  0  0  0  0  0  0  0  0  0
   -7.1824    1.1039   -0.9322 O   0  0  0  0  0  0  0  0  0  0  0  0
   -7.5276    2.6077    0.8435 C   0  0  0  0  0  0  0  0  0  0  0  0
   -8.1775    3.4344    0.5145 H   0  0  0  0  0  0  0  0  0  0  0  0
   -8.2057    1.8676    1.2980 H   0  0  0  0  0  0  0  0  0  0  0  0
   -6.9411    3.0162    1.6819 H   0  0  0  0  0  0  0  0  0  0  0  0
   -5.4935    2.6382   -0.4627 N   0  0  0  0  0  0  0  0  0  0  0  0
   -4.5619    2.2388   -1.4845 C   0  0  2  0  0  0  0  0  0  0  0  0
   -3.1535    2.4674   -0.9521 C   0  0  0  0  0  0  0  0  0  0  0  0
   -2.8634    3.3945   -0.1987 O   0  0  0  0  0  0  0  0  0  0  0  0
   -4.7883    3.0138   -2.7732 C   0  0  0  0  0  0  0  0  0  0  0  0
   -5.2337    3.4049    0.1551 H   0  0  0  0  0  0  0  0  0  0  0  0
   -4.7192    1.1682   -1.6549 H   0  0  0  0  0  0  0  0  0  0  0  0
   -4.6352    4.0886   -2.6221 H   0  0  0  0  0  0  0  0  0  0  0  0
   -4.0976    2.6887   -3.5582 H   0  0  0  0  0  0  0  0  0  0  0  0
   -5.8111    2.8719   -3.1387 H   0  0  0  0  0  0  0  0  0  0  0  0
   -2.2466    1.5400   -1.4507 N   0  0  0  0  0  0  0  0  0  0  0  0
   -0.8424    1.5707   -1.1286 C   0  0  2  0  0  0  0  0  0  0  0  0
   -0.5400    0.4565   -0.1287 C   0  0  0  0  0  0  0  0  0  0  0  0
   -0.0598    0.6669    0.9833 O   0  0  0  0  0  0  0  0  0  0  0  0
   -0.3833    2.9521   -0.6553 C   0  0  0  0  0  0  0  0  0  0  0  0
   -0.4990    4.2339   -1.9266 S   0  0  0  0  0  0  0  0  0  0  0  0
   -2.5850    0.7815   -2.0381 H   0  0  0  0  0  0  0  0  0  0  0  0
   -0.3205    1.3280   -2.0625 H   0  0  0  0  0  0  0  0  0  0  0  0
   -0.9815    3.2839    0.1996 H   0  0  0  0  0  0  0  0  0  0  0  0
    0.6616    2.9067   -0.3297 H   0  0  0  0  0  0  0  0  0  0  0  0
   -0.8459   -0.7992   -0.6337 N   0  0  0  0  0  0  0  0  0  0  0  0
   -0.6255   -2.0147    0.1146 C   0  0  2  0  0  0  0  0  0  0  0  0
   -0.2810   -3.1201   -0.8748 C   0  0  0  0  0  0  0  0  0  0  0  0
   -0.7636   -3.1845   -2.0035 O   0  0  0  0  0  0  0  0  0  0  0  0
   -1.8476   -2.3856    0.9401 C   0  0  0  0  0  0  0  0  0  0  0  0
   -1.2808   -0.8780   -1.5482 H   0  0  0  0  0  0  0  0  0  0  0  0
    0.2321   -1.8309    0.7709 H   0  0  0  0  0  0  0  0  0  0  0  0
   -2.7171   -2.5734    0.2996 H   0  0  0  0  0  0  0  0  0  0  0  0
   -1.6688   -3.2914    1.5287 H   0  0  0  0  0  0  0  0  0  0  0  0
   -2.1117   -1.5770    1.6303 H   0  0  0  0  0  0  0  0  0  0  0  0
    0.5956   -4.0502   -0.3337 N   0  0  0  0  0  0  0  0  0  0  0  0
    1.0406   -5.2166   -1.0600 C   0  0  0  0  0  0  0  0  0  0  0  0
    0.9766   -3.8964    0.5952 H   0  0  0  0  0  0  0  0  0  0  0  0
    0.3771   -6.0646   -0.8348 H   0  0  0  0  0  0  0  0  0  0  0  0
    1.0151   -5.0080   -2.1397 H   0  0  0  0  0  0  0  0  0  0  0  0
    2.0688   -5.4657   -0.7588 H   0  0  0  0  0  0  0  0  0  0  0  0
  1  3  1  0  0  0  0
  1  7  1  0  0  0  0
  1  2  2  0  0  0  0
 23 25  1  0  0  0  0
 23 29  1  0  0  0  0
 23 24  2  0  0  0  0
 50 51  1  0  0  0  0
 51 59  1  0  0  0  0
 51 52  2  0  0  0  0
  8  9  1  0  0  0  0
  9 17  1  0  0  0  0
  9 10  2  0  0  0  0
 30 31  1  0  0  0  0
 31 39  1  0  0  0  0
 31 32  2  0  0  0  0
 40 41  1  0  0  0  0
 41 49  1  0  0  0  0
 41 42  2  0  0  0  0
 50 53  1  0  0  0  0
 30 33  1  0  0  0  0
 59 60  1  0  0  0  0
 17 18  1  0  0  0  0
  8 11  1  0  0  0  0
 11 12  1  0  0  0  0
 40 43  1  0  0  0  0
 43 44  1  0  0  0  0
 49 50  1  0  0  0  0
  7  8  1  0  0  0  0
 29 30  1  0  0  0  0
 39 40  1  0  0  0  0
 12 44  1  0  0  0  0
  3  4  1  0  0  0  0
  3  5  1  0  0  0  0
  3  6  1  0  0  0  0
 25 26  1  0  0  0  0
 25 27  1  0  0  0  0
 25 28  1  0  0  0  0
 53 56  1  0  0  0  0
 53 57  1  0  0  0  0
 53 58  1  0  0  0  0
 33 36  1  0  0  0  0
 33 37  1  0  0  0  0
 33 38  1  0  0  0  0
 60 62  1  0  0  0  0
 60 63  1  0  0  0  0
 60 64  1  0  0  0  0
 18 20  1  0  0  0  0
 18 21  1  0  0  0  0
 18 22  1  0  0  0  0
 11 15  1  0  0  0  0
 11 16  1  0  0  0  0
 43 47  1  0  0  0  0
 43 48  1  0  0  0  0
 50 55  1  0  0  0  0
  8 14  1  0  0  0  0
 30 35  1  0  0  0  0
 40 46  1  0  0  0  0
 59 61  1  0  0  0  0
 17 19  1  0  0  0  0
  7 13  1  0  0  0  0
 29 34  1  0  0  0  0
 49 54  1  0  0  0  0
 39 45  1  0  0  0  0
M  END
$$$$

  -OEChem-05262214473D

 64 63  0     1  0  0  0  0  0999 V2000
   -1.4781    9.7988   -0.8578 C   0  0  0  0  0  0  0  0  0  0  0  0
   -2.7029    9.7741   -0.8908 O   0  0  0  0  0  0  0  0  0  0  0  0
   -0.7429   10.8604   -1.6066 C   0  0  0  0  0  0  0  0  0  0  0  0
   -0.5003   10.5565   -2.6376 H   0  0  0  0  0  0  0  0  0  0  0  0
   -1.3299   11.7874   -1.7068 H   0  0  0  0  0  0  0  0  0  0  0  0
    0.2163   11.1717   -1.1630 H   0  0  0  0  0  0  0  0  0  0  0  0
   -0.6592    8.9169   -0.1739 N   0  0  0  0  0  0  0  0  0  0  0  0
   -1.1614    7.8195    0.6135 C   0  0  2  0  0  0  0  0  0  0  0  0
   -0.2493    7.6200    1.8222 C   0  0  0  0  0  0  0  0  0  0  0  0
    0.7987    8.2429    1.9803 O   0  0  0  0  0  0  0  0  0  0  0  0
   -1.3561    6.5481   -0.2164 C   0  0  0  0  0  0  0  0  0  0  0  0
    0.1898    5.8863   -0.9199 S   0  0  0  0  0  0  0  0  0  0  0  0
    0.3480    9.0502   -0.2301 H   0  0  0  0  0  0  0  0  0  0  0  0
   -2.1391    8.1481    0.9872 H   0  0  0  0  0  0  0  0  0  0  0  0
   -1.8039    5.7562    0.3929 H   0  0  0  0  0  0  0  0  0  0  0  0
   -2.0369    6.7478   -1.0509 H   0  0  0  0  0  0  0  0  0  0  0  0
   -0.7307    6.6487    2.6884 N   0  0  0  0  0  0  0  0  0  0  0  0
   -0.0318    6.2626    3.8919 C   0  0  0  0  0  0  0  0  0  0  0  0
   -1.6293    6.2135    2.5019 H   0  0  0  0  0  0  0  0  0  0  0  0
    0.6219    5.4043    3.6776 H   0  0  0  0  0  0  0  0  0  0  0  0
    0.5766    7.1065    4.2491 H   0  0  0  0  0  0  0  0  0  0  0  0
   -0.7617    5.9832    4.6659 H   0  0  0  0  0  0  0  0  0  0  0  0
   -6.7256    2.0330   -0.2766 C   0  0  0  0  0  0  0  0  0  0  0  0
   -7.1824    1.1039   -0.9322 O   0  0  0  0  0  0  0  0  0  0  0  0
   -7.5276    2.6077    0.8435 C   0  0  0  0  0  0  0  0  0  0  0  0
   -8.1775    3.4344    0.5145 H   0  0  0  0  0  0  0  0  0  0  0  0
   -8.2057    1.8676    1.2980 H   0  0  0  0  0  0  0  0  0  0  0  0
   -6.9411    3.0162    1.6819 H   0  0  0  0  0  0  0  0  0  0  0  0
   -5.4935    2.6382   -0.4627 N   0  0  0  0  0  0  0  0  0  0  0  0
   -4.5619    2.2388   -1.4845 C   0  0  2  0  0  0  0  0  0  0  0  0
   -3.1535    2.4674   -0.9521 C   0  0  0  0  0  0  0  0  0  0  0  0
   -2.8634    3.3945   -0.1987 O   0  0  0  0  0  0  0  0  0  0  0  0
   -4.7883    3.0138   -2.7732 C   0  0  0  0  0  0  0  0  0  0  0  0
   -5.2337    3.4049    0.1551 H   0  0  0  0  0  0  0  0  0  0  0  0
   -4.7192    1.1682   -1.6549 H   0  0  0  0  0  0  0  0  0  0  0  0
   -4.6352    4.0886   -2.6221 H   0  0  0  0  0  0  0  0  0  0  0  0
   -4.0976    2.6887   -3.5582 H   0  0  0  0  0  0  0  0  0  0  0  0
   -5.8111    2.8719   -3.1387 H   0  0  0  0  0  0  0  0  0  0  0  0
   -2.2466    1.5400   -1.4507 N   0  0  0  0  0  0  0  0  0  0  0  0
   -0.8424    1.5707   -1.1286 C   0  0  2  0  0  0  0  0  0  0  0  0
   -0.5400    0.4565   -0.1287 C   0  0  0  0  0  0  0  0  0  0  0  0
   -0.3172    0.6675    1.0618 O   0  0  0  0  0  0  0  0  0  0  0  0
   -0.3833    2.9521   -0.6553 C   0  0  0  0  0  0  0  0  0  0  0  0
   -0.4990    4.2339   -1.9266 S   0  0  0  0  0  0  0  0  0  0  0  0
   -2.5850    0.7815   -2.0381 H   0  0  0  0  0  0  0  0  0  0  0  0
   -0.3205    1.3280   -2.0625 H   0  0  0  0  0  0  0  0  0  0  0  0
   -0.9815    3.2839    0.1996 H   0  0  0  0  0  0  0  0  0  0  0  0
    0.6616    2.9067   -0.3297 H   0  0  0  0  0  0  0  0  0  0  0  0
   -0.5238   -0.7955   -0.7269 N   0  0  0  0  0  0  0  0  0  0  0  0
   -0.2366   -2.0058    0.0069 C   0  0  2  0  0  0  0  0  0  0  0  0
    0.4718   -2.9701   -0.9353 C   0  0  0  0  0  0  0  0  0  0  0  0
    0.2243   -3.0366   -2.1376 O   0  0  0  0  0  0  0  0  0  0  0  0
   -1.5063   -2.6276    0.5672 C   0  0  0  0  0  0  0  0  0  0  0  0
   -0.7621   -0.8827   -1.7104 H   0  0  0  0  0  0  0  0  0  0  0  0
    0.4398   -1.7282    0.8226 H   0  0  0  0  0  0  0  0  0  0  0  0
   -2.1964   -2.9122   -0.2354 H   0  0  0  0  0  0  0  0  0  0  0  0
   -1.2840   -3.5293    1.1472 H   0  0  0  0  0  0  0  0  0  0  0  0
   -2.0300   -1.9220    1.2212 H   0  0  0  0  0  0  0  0  0  0  0  0
    1.3821   -3.7777   -0.2680 N   0  0  0  0  0  0  0  0  0  0  0  0
    2.1498   -4.8033   -0.9349 C   0  0  0  0  0  0  0  0  0  0  0  0
    1.5525   -3.6264    0.7219 H   0  0  0  0  0  0  0  0  0  0  0  0
    1.6144   -5.7621   -0.8719 H   0  0  0  0  0  0  0  0  0  0  0  0
    2.2879   -4.5292   -1.9912 H   0  0  0  0  0  0  0  0  0  0  0  0
    3.1323   -4.8996   -0.4496 H   0  0  0  0  0  0  0  0  0  0  0  0
  1  3  1  0  0  0  0
  1  7  1  0  0  0  0
  1  2  2  0  0  0  0
 23 25  1  0  0  0  0
 23 29  1  0  0  0  0
 23 24  2  0  0  0  0
 50 51  1  0  0  0  0
 51 59  1  0  0  0  0
 51 52  2  0  0  0  0
  8  9  1  0  0  0  0
  9 17  1  0  0  0  0
  9 10  2  0  0  0  0
 30 31  1  0  0  0  0
 31 39  1  0  0  0  0
 31 32  2  0  0  0  0
 40 41  1  0  0  0  0
 41 49  1  0  0  0  0
 41 42  2  0  0  0  0
 50 53  1  0  0  0  0
 30 33  1  0  0  0  0
 59 60  1  0  0  0  0
 17 18  1  0  0  0  0
  8 11  1  0  0  0  0
 11 12  1  0  0  0  0
 40 43  1  0  0  0  0
 43 44  1  0  0  0  0
 49 50  1  0  0  0  0
  7  8  1  0  0  0  0
 29 30  1  0  0  0  0
 39 40  1  0  0  0  0
 12 44  1  0  0  0  0
  3  4  1  0  0  0  0
  3  5  1  0  0  0  0
  3  6  1  0  0  0  0
 25 26  1  0  0  0  0
 25 27  1  0  0  0  0
 25 28  1  0  0  0  0
 53 56  1  0  0  0  0
 53 57  1  0  0  0  0
 53 58  1  0  0  0  0
 33 36  1  0  0  0  0
 33 37  1  0  0  0  0
 33 38  1  0  0  0  0
 60 62  1  0  0  0  0
 60 63  1  0  0  0  0
 60 64  1  0  0  0  0
 18 20  1  0  0  0  0
 18 21  1  0  0  0  0
 18 22  1  0  0  0  0
 11 15  1  0  0  0  0
 11 16  1  0  0  0  0
 43 47  1  0  0  0  0
 43 48  1  0  0  0  0
 50 55  1  0  0  0  0
  8 14  1  0  0  0  0
 30 35  1  0  0  0  0
 40 46  1  0  0  0  0
 59 61  1  0  0  0  0
 17 19  1  0  0  0  0
  7 13  1  0  0  0  0
 29 34  1  0  0  0  0
 49 54  1  0  0  0  0
 39 45  1  0  0  0  0
M  END
$$$$

  -OEChem-05262214473D

 64 63  0     1  0  0  0  0  0999 V2000
   -1.4781    9.7988   -0.8578 C   0  0  0  0  0  0  0  0  0  0  0  0
   -2.7029    9.7741   -0.8908 O   0  0  0  0  0  0  0  0  0  0  0  0
   -0.7429   10.8604   -1.6066 C   0  0  0  0  0  0  0  0  0  0  0  0
   -0.5003   10.5565   -2.6376 H   0  0  0  0  0  0  0  0  0  0  0  0
   -1.3299   11.7874   -1.7068 H   0  0  0  0  0  0  0  0  0  0  0  0
    0.2163   11.1717   -1.1630 H   0  0  0  0  0  0  0  0  0  0  0  0
   -0.6592    8.9169   -0.1739 N   0  0  0  0  0  0  0  0  0  0  0  0
   -1.1614    7.8195    0.6135 C   0  0  2  0  0  0  0  0  0  0  0  0
   -0.2493    7.6200    1.8222 C   0  0  0  0  0  0  0  0  0  0  0  0
    0.7987    8.2429    1.9803 O   0  0  0  0  0  0  0  0  0  0  0  0
   -1.3561    6.5481   -0.2164 C   0  0  0  0  0  0  0  0  0  0  0  0
    0.1898    5.8863   -0.9199 S   0  0  0  0  0  0  0  0  0  0  0  0
    0.3480    9.0502   -0.2301 H   0  0  0  0  0  0  0  0  0  0  0  0
   -2.1391    8.1481    0.9872 H   0  0  0  0  0  0  0  0  0  0  0  0
   -1.8039    5.7562    0.3929 H   0  0  0  0  0  0  0  0  0  0  0  0
   -2.0369    6.7478   -1.0509 H   0  0  0  0  0  0  0  0  0  0  0  0
   -0.7307    6.6487    2.6884 N   0  0  0  0  0  0  0  0  0  0  0  0
   -0.0318    6.2626    3.8919 C   0  0  0  0  0  0  0  0  0  0  0  0
   -1.6293    6.2135    2.5019 H   0  0  0  0  0  0  0  0  0  0  0  0
    0.6219    5.4043    3.6776 H   0  0  0  0  0  0  0  0  0  0  0  0
    0.5766    7.1065    4.2491 H   0  0  0  0  0  0  0  0  0  0  0  0
   -0.7617    5.9832    4.6659 H   0  0  0  0  0  0  0  0  0  0  0  0
   -6.7256    2.0330   -0.2766 C   0  0  0  0  0  0  0  0  0  0  0  0
   -7.1824    1.1039   -0.9322 O   0  0  0  0  0  0  0  0  0  0  0  0
   -7.5276    2.6077    0.8435 C   0  0  0  0  0  0  0  0  0  0  0  0
   -8.1775    3.4344    0.5145 H   0  0  0  0  0  0  0  0  0  0  0  0
   -8.2057    1.8676    1.2980 H   0  0  0  0  0  0  0  0  0  0  0  0
   -6.9411    3.0162    1.6819 H   0  0  0  0  0  0  0  0  0  0  0  0
   -5.4935    2.6382   -0.4627 N   0  0  0  0  0  0  0  0  0  0  0  0
   -4.5619    2.2388   -1.4845 C   0  0  2  0  0  0  0  0  0  0  0  0
   -3.1535    2.4674   -0.9521 C   0  0  0  0  0  0  0  0  0  0  0  0
   -2.8634    3.3945   -0.1987 O   0  0  0  0  0  0  0  0  0  0  0  0
   -4.7883    3.0138   -2.7732 C   0  0  0  0  0  0  0  0  0  0  0  0
   -5.2337    3.4049    0.1551 H   0  0  0  0  0  0  0  0  0  0  0  0
   -4.7192    1.1682   -1.6549 H   0  0  0  0  0  0  0  0  0  0  0  0
   -4.6352    4.0886   -2.6221 H   0  0  0  0  0  0  0  0  0  0  0  0
   -4.0976    2.6887   -3.5582 H   0  0  0  0  0  0  0  0  0  0  0  0
   -5.8111    2.8719   -3.1387 H   0  0  0  0  0  0  0  0  0  0  0  0
   -2.2466    1.5400   -1.4507 N   0  0  0  0  0  0  0  0  0  0  0  0
   -0.8424    1.5707   -1.1286 C   0  0  2  0  0  0  0  0  0  0  0  0
   -0.5400    0.4565   -0.1287 C   0  0  0  0  0  0  0  0  0  0  0  0
   -0.5808    0.6203    1.0891 O   0  0  0  0  0  0  0  0  0  0  0  0
   -0.3833    2.9521   -0.6553 C   0  0  0  0  0  0  0  0  0  0  0  0
   -0.4990    4.2339   -1.9266 S   0  0  0  0  0  0  0  0  0  0  0  0
   -2.5850    0.7815   -2.0381 H   0  0  0  0  0  0  0  0  0  0  0  0
   -0.3205    1.3280   -2.0625 H   0  0  0  0  0  0  0  0  0  0  0  0
   -0.9815    3.2839    0.1996 H   0  0  0  0  0  0  0  0  0  0  0  0
    0.6616    2.9067   -0.3297 H   0  0  0  0  0  0  0  0  0  0  0  0
   -0.1957   -0.7324   -0.7559 N   0  0  0  0  0  0  0  0  0  0  0  0
    0.1578   -1.9258   -0.0233 C   0  0  2  0  0  0  0  0  0  0  0  0
    1.1849   -2.6946   -0.8440 C   0  0  0  0  0  0  0  0  0  0  0  0
    1.1788   -2.7195   -2.0730 O   0  0  0  0  0  0  0  0  0  0  0  0
   -1.0652   -2.7844    0.2591 C   0  0  0  0  0  0  0  0  0  0  0  0
   -0.2296   -0.7911   -1.7694 H   0  0  0  0  0  0  0  0  0  0  0  0
    0.6133   -1.5964    0.9170 H   0  0  0  0  0  0  0  0  0  0  0  0
   -1.5351   -3.1239   -0.6712 H   0  0  0  0  0  0  0  0  0  0  0  0
   -0.7999   -3.6744    0.8392 H   0  0  0  0  0  0  0  0  0  0  0  0
   -1.8154   -2.2204    0.8238 H   0  0  0  0  0  0  0  0  0  0  0  0
    2.0831   -3.3846   -0.0420 N   0  0  0  0  0  0  0  0  0  0  0  0
    3.1275   -4.2225   -0.5834 C   0  0  0  0  0  0  0  0  0  0  0  0
    2.0391   -3.2745    0.9668 H   0  0  0  0  0  0  0  0  0  0  0  0
    2.7652   -5.2584   -0.6587 H   0  0  0  0  0  0  0  0  0  0  0  0
    3.4081   -3.8587   -1.5829 H   0  0  0  0  0  0  0  0  0  0  0  0
    4.0052   -4.1884    0.0788 H   0  0  0  0  0  0  0  0  0  0  0  0
  1  3  1  0  0  0  0
  1  7  1  0  0  0  0
  1  2  2  0  0  0  0
 23 25  1  0  0  0  0
 23 29  1  0  0  0  0
 23 24  2  0  0  0  0
 50 51  1  0  0  0  0
 51 59  1  0  0  0  0
 51 52  2  0  0  0  0
  8  9  1  0  0  0  0
  9 17  1  0  0  0  0
  9 10  2  0  0  0  0
 30 31  1  0  0  0  0
 31 39  1  0  0  0  0
 31 32  2  0  0  0  0
 40 41  1  0  0  0  0
 41 49  1  0  0  0  0
 41 42  2  0  0  0  0
 50 53  1  0  0  0  0
 30 33  1  0  0  0  0
 59 60  1  0  0  0  0
 17 18  1  0  0  0  0
  8 11  1  0  0  0  0
 11 12  1  0  0  0  0
 40 43  1  0  0  0  0
 43 44  1  0  0  0  0
 49 50  1  0  0  0  0
  7  8  1  0  0  0  0
 29 30  1  0  0  0  0
 39 40  1  0  0  0  0
 12 44  1  0  0  0  0
  3  4  1  0  0  0  0
  3  5  1  0  0  0  0
  3  6  1  0  0  0  0
 25 26  1  0  0  0  0
 25 27  1  0  0  0  0
 25 28  1  0  0  0  0
 53 56  1  0  0  0  0
 53 57  1  0  0  0  0
 53 58  1  0  0  0  0
 33 36  1  0  0  0  0
 33 37  1  0  0  0  0
 33 38  1  0  0  0  0
 60 62  1  0  0  0  0
 60 63  1  0  0  0  0
 60 64  1  0  0  0  0
 18 20  1  0  0  0  0
 18 21  1  0  0  0  0
 18 22  1  0  0  0  0
 11 15  1  0  0  0  0
 11 16  1  0  0  0  0
 43 47  1  0  0  0  0
 43 48  1  0  0  0  0
 50 55  1  0  0  0  0
  8 14  1  0  0  0  0
 30 35  1  0  0  0  0
 40 46  1  0  0  0  0
 59 61  1  0  0  0  0
 17 19  1  0  0  0  0
  7 13  1  0  0  0  0
 29 34  1  0  0  0  0
 49 54  1  0  0  0  0
 39 45  1  0  0  0  0
M  END
$$$$

  -OEChem-05262214473D

 64 63  0     1  0  0  0  0  0999 V2000
   -1.4781    9.7988   -0.8578 C   0  0  0  0  0  0  0  0  0  0  0  0
   -2.7029    9.7741   -0.8908 O   0  0  0  0  0  0  0  0  0  0  0  0
   -0.7429   10.8604   -1.6066 C   0  0  0  0  0  0  0  0  0  0  0  0
   -0.5003   10.5565   -2.6376 H   0  0  0  0  0  0  0  0  0  0  0  0
   -1.3299   11.7874   -1.7068 H   0  0  0  0  0  0  0  0  0  0  0  0
    0.2163   11.1717   -1.1630 H   0  0  0  0  0  0  0  0  0  0  0  0
   -0.6592    8.9169   -0.1739 N   0  0  0  0  0  0  0  0  0  0  0  0
   -1.1614    7.8195    0.6135 C   0  0  2  0  0  0  0  0  0  0  0  0
   -0.2493    7.6200    1.8222 C   0  0  0  0  0  0  0  0  0  0  0  0
    0.7987    8.2429    1.9803 O   0  0  0  0  0  0  0  0  0  0  0  0
   -1.3561    6.5481   -0.2164 C   0  0  0  0  0  0  0  0  0  0  0  0
    0.1898    5.8863   -0.9199 S   0  0  0  0  0  0  0  0  0  0  0  0
    0.3480    9.0502   -0.2301 H   0  0  0  0  0  0  0  0  0  0  0  0
   -2.1391    8.1481    0.9872 H   0  0  0  0  0  0  0  0  0  0  0  0
   -1.8039    5.7562    0.3929 H   0  0  0  0  0  0  0  0  0  0  0  0
   -2.0369    6.7478   -1.0509 H   0  0  0  0  0  0  0  0  0  0  0  0
   -0.7307    6.6487    2.6884 N   0  0  0  0  0  0  0  0  0  0  0  0
   -0.0318    6.2626    3.8919 C   0  0  0  0  0  0  0  0  0  0  0  0
   -1.6293    6.2135    2.5019 H   0  0  0  0  0  0  0  0  0  0  0  0
    0.6219    5.4043    3.6776 H   0  0  0  0  0  0  0  0  0  0  0  0
    0.5766    7.1065    4.2491 H   0  0  0  0  0  0  0  0  0  0  0  0
   -0.7617    5.9832    4.6659 H   0  0  0  0  0  0  0  0  0  0  0  0
   -6.7256    2.0330   -0.2766 C   0  0  0  0  0  0  0  0  0  0  0  0
   -7.1824    1.1039   -0.9322 O   0  0  0  0  0  0  0  0  0  0  0  0
   -7.5276    2.6077    0.8435 C   0  0  0  0  0  0  0  0  0  0  0  0
   -8.1775    3.4344    0.5145 H   0  0  0  0  0  0  0  0  0  0  0  0
   -8.2057    1.8676    1.2980 H   0  0  0  0  0  0  0  0  0  0  0  0
   -6.9411    3.0162    1.6819 H   0  0  0  0  0  0  0  0  0  0  0  0
   -5.4935    2.6382   -0.4627 N   0  0  0  0  0  0  0  0  0  0  0  0
   -4.5619    2.2388   -1.4845 C   0  0  2  0  0  0  0  0  0  0  0  0
   -3.1535    2.4674   -0.9521 C   0  0  0  0  0  0  0  0  0  0  0  0
   -2.8634    3.3945   -0.1987 O   0  0  0  0  0  0  0  0  0  0  0  0
   -4.7883    3.0138   -2.7732 C   0  0  0  0  0  0  0  0  0  0  0  0
   -5.2337    3.4049    0.1551 H   0  0  0  0  0  0  0  0  0  0  0  0
   -4.7192    1.1682   -1.6549 H   0  0  0  0  0  0  0  0  0  0  0  0
   -4.6352    4.0886   -2.6221 H   0  0  0  0  0  0  0  0  0  0  0  0
   -4.0976    2.6887   -3.5582 H   0  0  0  0  0  0  0  0  0  0  0  0
   -5.8111    2.8719   -3.1387 H   0  0  0  0  0  0  0  0  0  0  0  0
   -2.2466    1.5400   -1.4507 N   0  0  0  0  0  0  0  0  0  0  0  0
   -0.8424    1.5707   -1.1286 C   0  0  2  0  0  0  0  0  0  0  0  0
   -0.5400    0.4565   -0.1287 C   0  0  0  0  0  0  0  0  0  0  0  0
   -0.8326    0.5288    1.0632 O   0  0  0  0  0  0  0  0  0  0  0  0
   -0.3833    2.9521   -0.6553 C   0  0  0  0  0  0  0  0  0  0  0  0
   -0.4990    4.2339   -1.9266 S   0  0  0  0  0  0  0  0  0  0  0  0
   -2.5850    0.7815   -2.0381 H   0  0  0  0  0  0  0  0  0  0  0  0
   -0.3205    1.3280   -2.0625 H   0  0  0  0  0  0  0  0  0  0  0  0
   -0.9815    3.2839    0.1996 H   0  0  0  0  0  0  0  0  0  0  0  0
    0.6616    2.9067   -0.3297 H   0  0  0  0  0  0  0  0  0  0  0  0
    0.1160   -0.6145   -0.7188 N   0  0  0  0  0  0  0  0  0  0  0  0
    0.5309   -1.7801    0.0262 C   0  0  2  0  0  0  0  0  0  0  0  0
    1.8098   -2.3123   -0.6070 C   0  0  0  0  0  0  0  0  0  0  0  0
    2.0349   -2.2548   -1.8141 O   0  0  0  0  0  0  0  0  0  0  0  0
   -0.5544   -2.8453    0.0366 C   0  0  0  0  0  0  0  0  0  0  0  0
    0.2803   -0.6094   -1.7211 H   0  0  0  0  0  0  0  0  0  0  0  0
    0.7407   -1.4446    1.0476 H   0  0  0  0  0  0  0  0  0  0  0  0
   -0.7782   -3.1939   -0.9782 H   0  0  0  0  0  0  0  0  0  0  0  0
   -0.2496   -3.7166    0.6256 H   0  0  0  0  0  0  0  0  0  0  0  0
   -1.4825   -2.4519    0.4651 H   0  0  0  0  0  0  0  0  0  0  0  0
    2.6510   -2.8976    0.3288 N   0  0  0  0  0  0  0  0  0  0  0  0
    3.9072   -3.5138   -0.0296 C   0  0  0  0  0  0  0  0  0  0  0  0
    2.4032   -2.8647    1.3133 H   0  0  0  0  0  0  0  0  0  0  0  0
    3.7512   -4.5877   -0.2097 H   0  0  0  0  0  0  0  0  0  0  0  0
    4.2994   -3.0422   -0.9427 H   0  0  0  0  0  0  0  0  0  0  0  0
    4.6280   -3.3806    0.7906 H   0  0  0  0  0  0  0  0  0  0  0  0
  1  3  1  0  0  0  0
  1  7  1  0  0  0  0
  1  2  2  0  0  0  0
 23 25  1  0  0  0  0
 23 29  1  0  0  0  0
 23 24  2  0  0  0  0
 50 51  1  0  0  0  0
 51 59  1  0  0  0  0
 51 52  2  0  0  0  0
  8  9  1  0  0  0  0
  9 17  1  0  0  0  0
  9 10  2  0  0  0  0
 30 31  1  0  0  0  0
 31 39  1  0  0  0  0
 31 32  2  0  0  0  0
 40 41  1  0  0  0  0
 41 49  1  0  0  0  0
 41 42  2  0  0  0  0
 50 53  1  0  0  0  0
 30 33  1  0  0  0  0
 59 60  1  0  0  0  0
 17 18  1  0  0  0  0
  8 11  1  0  0  0  0
 11 12  1  0  0  0  0
 40 43  1  0  0  0  0
 43 44  1  0  0  0  0
 49 50  1  0  0  0  0
  7  8  1  0  0  0  0
 29 30  1  0  0  0  0
 39 40  1  0  0  0  0
 12 44  1  0  0  0  0
  3  4  1  0  0  0  0
  3  5  1  0  0  0  0
  3  6  1  0  0  0  0
 25 26  1  0  0  0  0
 25 27  1  0  0  0  0
 25 28  1  0  0  0  0
 53 56  1  0  0  0  0
 53 57  1  0  0  0  0
 53 58  1  0  0  0  0
 33 36  1  0  0  0  0
 33 37  1  0  0  0  0
 33 38  1  0  0  0  0
 60 62  1  0  0  0  0
 60 63  1  0  0  0  0
 60 64  1  0  0  0  0
 18 20  1  0  0  0  0
 18 21  1  0  0  0  0
 18 22  1  0  0  0  0
 11 15  1  0  0  0  0
 11 16  1  0  0  0  0
 43 47  1  0  0  0  0
 43 48  1  0  0  0  0
 50 55  1  0  0  0  0
  8 14  1  0  0  0  0
 30 35  1  0  0  0  0
 40 46  1  0  0  0  0
 59 61  1  0  0  0  0
 17 19  1  0  0  0  0
  7 13  1  0  0  0  0
 29 34  1  0  0  0  0
 49 54  1  0  0  0  0
 39 45  1  0  0  0  0
M  END
$$$$

  -OEChem-05262214473D

 64 63  0     1  0  0  0  0  0999 V2000
   -1.4781    9.7988   -0.8578 C   0  0  0  0  0  0  0  0  0  0  0  0
   -2.7029    9.7741   -0.8908 O   0  0  0  0  0  0  0  0  0  0  0  0
   -0.7429   10.8604   -1.6066 C   0  0  0  0  0  0  0  0  0  0  0  0
   -0.5003   10.5565   -2.6376 H   0  0  0  0  0  0  0  0  0  0  0  0
   -1.3299   11.7874   -1.7068 H   0  0  0  0  0  0  0  0  0  0  0  0
    0.2163   11.1717   -1.1630 H   0  0  0  0  0  0  0  0  0  0  0  0
   -0.6592    8.9169   -0.1739 N   0  0  0  0  0  0  0  0  0  0  0  0
   -1.1614    7.8195    0.6135 C   0  0  2  0  0  0  0  0  0  0  0  0
   -0.2493    7.6200    1.8222 C   0  0  0  0  0  0  0  0  0  0  0  0
    0.7987    8.2429    1.9803 O   0  0  0  0  0  0  0  0  0  0  0  0
   -1.3561    6.5481   -0.2164 C   0  0  0  0  0  0  0  0  0  0  0  0
    0.1898    5.8863   -0.9199 S   0  0  0  0  0  0  0  0  0  0  0  0
    0.3480    9.0502   -0.2301 H   0  0  0  0  0  0  0  0  0  0  0  0
   -2.1391    8.1481    0.9872 H   0  0  0  0  0  0  0  0  0  0  0  0
   -1.8039    5.7562    0.3929 H   0  0  0  0  0  0  0  0  0  0  0  0
   -2.0369    6.7478   -1.0509 H   0  0  0  0  0  0  0  0  0  0  0  0
   -0.7307    6.6487    2.6884 N   0  0  0  0  0  0  0  0  0  0  0  0
   -0.0318    6.2626    3.8919 C   0  0  0  0  0  0  0  0  0  0  0  0
   -1.6293    6.2135    2.5019 H   0  0  0  0  0  0  0  0  0  0  0  0
    0.6219    5.4043    3.6776 H   0  0  0  0  0  0  0  0  0  0  0  0
    0.5766    7.1065    4.2491 H   0  0  0  0  0  0  0  0  0  0  0  0
   -0.7617    5.9832    4.6659 H   0  0  0  0  0  0  0  0  0  0  0  0
   -6.7256    2.0330   -0.2766 C   0  0  0  0  0  0  0  0  0  0  0  0
   -7.1824    1.1039   -0.9322 O   0  0  0  0  0  0  0  0  0  0  0  0
   -7.5276    2.6077    0.8435 C   0  0  0  0  0  0  0  0  0  0  0  0
   -8.1775    3.4344    0.5145 H   0  0  0  0  0  0  0  0  0  0  0  0
   -8.2057    1.8676    1.2980 H   0  0  0  0  0  0  0  0  0  0  0  0
   -6.9411    3.0162    1.6819 H   0  0  0  0  0  0  0  0  0  0  0  0
   -5.4935    2.6382   -0.4627 N   0  0  0  0  0  0  0  0  0  0  0  0
   -4.5619    2.2388   -1.4845 C   0  0  2  0  0  0  0  0  0  0  0  0
   -3.1535    2.4674   -0.9521 C   0  0  0  0  0  0  0  0  0  0  0  0
   -2.8634    3.3945   -0.1987 O   0  0  0  0  0  0  0  0  0  0  0  0
   -4.7883    3.0138   -2.7732 C   0  0  0  0  0  0  0  0  0  0  0  0
   -5.2337    3.4049    0.1551 H   0  0  0  0  0  0  0  0  0  0  0  0
   -4.7192    1.1682   -1.6549 H   0  0  0  0  0  0  0  0  0  0  0  0
   -4.6352    4.0886   -2.6221 H   0  0  0  0  0  0  0  0  0  0  0  0
   -4.0976    2.6887   -3.5582 H   0  0  0  0  0  0  0  0  0  0  0  0
   -5.8111    2.8719   -3.1387 H   0  0  0  0  0  0  0  0  0  0  0  0
   -2.2466    1.5400   -1.4507 N   0  0  0  0  0  0  0  0  0  0  0  0
   -0.8424    1.5707   -1.1286 C   0  0  2  0  0  0  0  0  0  0  0  0
   -0.5400    0.4565   -0.1287 C   0  0  0  0  0  0  0  0  0  0  0  0
   -1.0554    0.3990    0.9860 O   0  0  0  0  0  0  0  0  0  0  0  0
   -0.3833    2.9521   -0.6553 C   0  0  0  0  0  0  0  0  0  0  0  0
   -0.4990    4.2339   -1.9266 S   0  0  0  0  0  0  0  0  0  0  0  0
   -2.5850    0.7815   -2.0381 H   0  0  0  0  0  0  0  0  0  0  0  0
   -0.3205    1.3280   -2.0625 H   0  0  0  0  0  0  0  0  0  0  0  0
   -0.9815    3.2839    0.1996 H   0  0  0  0  0  0  0  0  0  0  0  0
    0.6616    2.9067   -0.3297 H   0  0  0  0  0  0  0  0  0  0  0  0
    0.3901   -0.4496   -0.6180 N   0  0  0  0  0  0  0  0  0  0  0  0
    0.8573   -1.5788    0.1518 C   0  0  2  0  0  0  0  0  0  0  0  0
    2.3038   -1.8493   -0.2405 C   0  0  0  0  0  0  0  0  0  0  0  0
    2.7341   -1.6742   -1.3786 O   0  0  0  0  0  0  0  0  0  0  0  0
   -0.0087   -2.8062   -0.0849 C   0  0  0  0  0  0  0  0  0  0  0  0
    0.7329   -0.3499   -1.5689 H   0  0  0  0  0  0  0  0  0  0  0  0
    0.8133   -1.2830    1.2057 H   0  0  0  0  0  0  0  0  0  0  0  0
    0.0227   -3.1175   -1.1354 H   0  0  0  0  0  0  0  0  0  0  0  0
    0.3295   -3.6533    0.5211 H   0  0  0  0  0  0  0  0  0  0  0  0
   -1.0540   -2.6007    0.1697 H   0  0  0  0  0  0  0  0  0  0  0  0
    3.0471   -2.3501    0.8192 N   0  0  0  0  0  0  0  0  0  0  0  0
    4.4356   -2.7256    0.6889 C   0  0  0  0  0  0  0  0  0  0  0  0
    2.6200   -2.4249    1.7377 H   0  0  0  0  0  0  0  0  0  0  0  0
    4.5052   -3.7958    0.4446 H   0  0  0  0  0  0  0  0  0  0  0  0
    4.9011   -2.1353   -0.1142 H   0  0  0  0  0  0  0  0  0  0  0  0
    4.9584   -2.5312    1.6370 H   0  0  0  0  0  0  0  0  0  0  0  0
  1  3  1  0  0  0  0
  1  7  1  0  0  0  0
  1  2  2  0  0  0  0
 23 25  1  0  0  0  0
 23 29  1  0  0  0  0
 23 24  2  0  0  0  0
 50 51  1  0  0  0  0
 51 59  1  0  0  0  0
 51 52  2  0  0  0  0
  8  9  1  0  0  0  0
  9 17  1  0  0  0  0
  9 10  2  0  0  0  0
 30 31  1  0  0  0  0
 31 39  1  0  0  0  0
 31 32  2  0  0  0  0
 40 41  1  0  0  0  0
 41 49  1  0  0  0  0
 41 42  2  0  0  0  0
 50 53  1  0  0  0  0
 30 33  1  0  0  0  0
 59 60  1  0  0  0  0
 17 18  1  0  0  0  0
  8 11  1  0  0  0  0
 11 12  1  0  0  0  0
 40 43  1  0  0  0  0
 43 44  1  0  0  0  0
 49 50  1  0  0  0  0
  7  8  1  0  0  0  0
 29 30  1  0  0  0  0
 39 40  1  0  0  0  0
 12 44  1  0  0  0  0
  3  4  1  0  0  0  0
  3  5  1  0  0  0  0
  3  6  1  0  0  0  0
 25 26  1  0  0  0  0
 25 27  1  0  0  0  0
 25 28  1  0  0  0  0
 53 56  1  0  0  0  0
 53 57  1  0  0  0  0
 53 58  1  0  0  0  0
 33 36  1  0  0  0  0
 33 37  1  0  0  0  0
 33 38  1  0  0  0  0
 60 62  1  0  0  0  0
 60 63  1  0  0  0  0
 60 64  1  0  0  0  0
 18 20  1  0  0  0  0
 18 21  1  0  0  0  0
 18 22  1  0  0  0  0
 11 15  1  0  0  0  0
 11 16  1  0  0  0  0
 43 47  1  0  0  0  0
 43 48  1  0  0  0  0
 50 55  1  0  0  0  0
  8 14  1  0  0  0  0
 30 35  1  0  0  0  0
 40 46  1  0  0  0  0
 59 61  1  0  0  0  0
 17 19  1  0  0  0  0
  7 13  1  0  0  0  0
 29 34  1  0  0  0  0
 49 54  1  0  0  0  0
 39 45  1  0  0  0  0
M  END
$$$$

  -OEChem-05262214473D

 64 63  0     1  0  0  0  0  0999 V2000
   -1.4781    9.7988   -0.8578 C   0  0  0  0  0  0  0  0  0  0  0  0
   -2.7029    9.7741   -0.8908 O   0  0  0  0  0  0  0  0  0  0  0  0
   -0.7429   10.8604   -1.6066 C   0  0  0  0  0  0  0  0  0  0  0  0
   -0.5003   10.5565   -2.6376 H   0  0  0  0  0  0  0  0  0  0  0  0
   -1.3299   11.7874   -1.7068 H   0  0  0  0  0  0  0  0  0  0  0  0
    0.2163   11.1717   -1.1630 H   0  0  0  0  0  0  0  0  0  0  0  0
   -0.6592    8.9169   -0.1739 N   0  0  0  0  0  0  0  0  0  0  0  0
   -1.1614    7.8195    0.6135 C   0  0  2  0  0  0  0  0  0  0  0  0
   -0.2493    7.6200    1.8222 C   0  0  0  0  0  0  0  0  0  0  0  0
    0.7987    8.2429    1.9803 O   0  0  0  0  0  0  0  0  0  0  0  0
   -1.3561    6.5481   -0.2164 C   0  0  0  0  0  0  0  0  0  0  0  0
    0.1898    5.8863   -0.9199 S   0  0  0  0  0  0  0  0  0  0  0  0
    0.3480    9.0502   -0.2301 H   0  0  0  0  0  0  0  0  0  0  0  0
   -2.1391    8.1481    0.9872 H   0  0  0  0  0  0  0  0  0  0  0  0
   -1.8039    5.7562    0.3929 H   0  0  0  0  0  0  0  0  0  0  0  0
   -2.0369    6.7478   -1.0509 H   0  0  0  0  0  0  0  0  0  0  0  0
   -0.7307    6.6487    2.6884 N   0  0  0  0  0  0  0  0  0  0  0  0
   -0.0318    6.2626    3.8919 C   0  0  0  0  0  0  0  0  0  0  0  0
   -1.6293    6.2135    2.5019 H   0  0  0  0  0  0  0  0  0  0  0  0
    0.6219    5.4043    3.6776 H   0  0  0  0  0  0  0  0  0  0  0  0
    0.5766    7.1065    4.2491 H   0  0  0  0  0  0  0  0  0  0  0  0
   -0.7617    5.9832    4.6659 H   0  0  0  0  0  0  0  0  0  0  0  0
   -6.7256    2.0330   -0.2766 C   0  0  0  0  0  0  0  0  0  0  0  0
   -7.1824    1.1039   -0.9322 O   0  0  0  0  0  0  0  0  0  0  0  0
   -7.5276    2.6077    0.8435 C   0  0  0  0  0  0  0  0  0  0  0  0
   -8.1775    3.4344    0.5145 H   0  0  0  0  0  0  0  0  0  0  0  0
   -8.2057    1.8676    1.2980 H   0  0  0  0  0  0  0  0  0  0  0  0
   -6.9411    3.0162    1.6819 H   0  0  0  0  0  0  0  0  0  0  0  0
   -5.4935    2.6382   -0.4627 N   0  0  0  0  0  0  0  0  0  0  0  0
   -4.5619    2.2388   -1.4845 C   0  0  2  0  0  0  0  0  0  0  0  0
   -3.1535    2.4674   -0.9521 C   0  0  0  0  0  0  0  0  0  0  0  0
   -2.8634    3.3945   -0.1987 O   0  0  0  0  0  0  0  0  0  0  0  0
   -4.7883    3.0138   -2.7732 C   0  0  0  0  0  0  0  0  0  0  0  0
   -5.2337    3.4049    0.1551 H   0  0  0  0  0  0  0  0  0  0  0  0
   -4.7192    1.1682   -1.6549 H   0  0  0  0  0  0  0  0  0  0  0  0
   -4.6352    4.0886   -2.6221 H   0  0  0  0  0  0  0  0  0  0  0  0
   -4.0976    2.6887   -3.5582 H   0  0  0  0  0  0  0  0  0  0  0  0
   -5.8111    2.8719   -3.1387 H   0  0  0  0  0  0  0  0  0  0  0  0
   -2.2466    1.5400   -1.4507 N   0  0  0  0  0  0  0  0  0  0  0  0
   -0.8424    1.5707   -1.1286 C   0  0  2  0  0  0  0  0  0  0  0  0
   -0.5400    0.4565   -0.1287 C   0  0  0  0  0  0  0  0  0  0  0  0
   -1.2340    0.2398    0.8627 O   0  0  0  0  0  0  0  0  0  0  0  0
   -0.3833    2.9521   -0.6553 C   0  0  0  0  0  0  0  0  0  0  0  0
   -0.4990    4.2339   -1.9266 S   0  0  0  0  0  0  0  0  0  0  0  0
   -2.5850    0.7815   -2.0381 H   0  0  0  0  0  0  0  0  0  0  0  0
   -0.3205    1.3280   -2.0625 H   0  0  0  0  0  0  0  0  0  0  0  0
   -0.9815    3.2839    0.1996 H   0  0  0  0  0  0  0  0  0  0  0  0
    0.6616    2.9067   -0.3297 H   0  0  0  0  0  0  0  0  0  0  0  0
    0.6079   -0.2491   -0.4604 N   0  0  0  0  0  0  0  0  0  0  0  0
    1.1147   -1.3354    0.3452 C   0  0  2  0  0  0  0  0  0  0  0  0
    2.6334   -1.3371    0.2305 C   0  0  0  0  0  0  0  0  0  0  0  0
    3.2289   -1.0171   -0.7962 O   0  0  0  0  0  0  0  0  0  0  0  0
    0.5347   -2.6698   -0.0972 C   0  0  0  0  0  0  0  0  0  0  0  0
    1.0974   -0.0304   -1.3231 H   0  0  0  0  0  0  0  0  0  0  0  0
    0.8263   -1.1227    1.3803 H   0  0  0  0  0  0  0  0  0  0  0  0
    0.8131   -2.9000   -1.1321 H   0  0  0  0  0  0  0  0  0  0  0  0
    0.8978   -3.4886    0.5326 H   0  0  0  0  0  0  0  0  0  0  0  0
   -0.5592   -2.6567   -0.0424 H   0  0  0  0  0  0  0  0  0  0  0  0
    3.2442   -1.7792    1.3956 N   0  0  0  0  0  0  0  0  0  0  0  0
    4.6768   -1.9115    1.5231 C   0  0  0  0  0  0  0  0  0  0  0  0
    2.6749   -1.9851    2.2112 H   0  0  0  0  0  0  0  0  0  0  0  0
    4.9758   -2.9367    1.2596 H   0  0  0  0  0  0  0  0  0  0  0  0
    5.1722   -1.1998    0.8463 H   0  0  0  0  0  0  0  0  0  0  0  0
    4.9737   -1.6983    2.5606 H   0  0  0  0  0  0  0  0  0  0  0  0
  1  3  1  0  0  0  0
  1  7  1  0  0  0  0
  1  2  2  0  0  0  0
 23 25  1  0  0  0  0
 23 29  1  0  0  0  0
 23 24  2  0  0  0  0
 50 51  1  0  0  0  0
 51 59  1  0  0  0  0
 51 52  2  0  0  0  0
  8  9  1  0  0  0  0
  9 17  1  0  0  0  0
  9 10  2  0  0  0  0
 30 31  1  0  0  0  0
 31 39  1  0  0  0  0
 31 32  2  0  0  0  0
 40 41  1  0  0  0  0
 41 49  1  0  0  0  0
 41 42  2  0  0  0  0
 50 53  1  0  0  0  0
 30 33  1  0  0  0  0
 59 60  1  0  0  0  0
 17 18  1  0  0  0  0
  8 11  1  0  0  0  0
 11 12  1  0  0  0  0
 40 43  1  0  0  0  0
 43 44  1  0  0  0  0
 49 50  1  0  0  0  0
  7  8  1  0  0  0  0
 29 30  1  0  0  0  0
 39 40  1  0  0  0  0
 12 44  1  0  0  0  0
  3  4  1  0  0  0  0
  3  5  1  0  0  0  0
  3  6  1  0  0  0  0
 25 26  1  0  0  0  0
 25 27  1  0  0  0  0
 25 28  1  0  0  0  0
 53 56  1  0  0  0  0
 53 57  1  0  0  0  0
 53 58  1  0  0  0  0
 33 36  1  0  0  0  0
 33 37  1  0  0  0  0
 33 38  1  0  0  0  0
 60 62  1  0  0  0  0
 60 63  1  0  0  0  0
 60 64  1  0  0  0  0
 18 20  1  0  0  0  0
 18 21  1  0  0  0  0
 18 22  1  0  0  0  0
 11 15  1  0  0  0  0
 11 16  1  0  0  0  0
 43 47  1  0  0  0  0
 43 48  1  0  0  0  0
 50 55  1  0  0  0  0
  8 14  1  0  0  0  0
 30 35  1  0  0  0  0
 40 46  1  0  0  0  0
 59 61  1  0  0  0  0
 17 19  1  0  0  0  0
  7 13  1  0  0  0  0
 29 34  1  0  0  0  0
 49 54  1  0  0  0  0
 39 45  1  0  0  0  0
M  END
$$$$

  -OEChem-05262214473D

 64 63  0     1  0  0  0  0  0999 V2000
   -1.4781    9.7988   -0.8578 C   0  0  0  0  0  0  0  0  0  0  0  0
   -2.7029    9.7741   -0.8908 O   0  0  0  0  0  0  0  0  0  0  0  0
   -0.7429   10.8604   -1.6066 C   0  0  0  0  0  0  0  0  0  0  0  0
   -0.5003   10.5565   -2.6376 H   0  0  0  0  0  0  0  0  0  0  0  0
   -1.3299   11.7874   -1.7068 H   0  0  0  0  0  0  0  0  0  0  0  0
    0.2163   11.1717   -1.1630 H   0  0  0  0  0  0  0  0  0  0  0  0
   -0.6592    8.9169   -0.1739 N   0  0  0  0  0  0  0  0  0  0  0  0
   -1.1614    7.8195    0.6135 C   0  0  2  0  0  0  0  0  0  0  0  0
   -0.2493    7.6200    1.8222 C   0  0  0  0  0  0  0  0  0  0  0  0
    0.7987    8.2429    1.9803 O   0  0  0  0  0  0  0  0  0  0  0  0
   -1.3561    6.5481   -0.2164 C   0  0  0  0  0  0  0  0  0  0  0  0
    0.1898    5.8863   -0.9199 S   0  0  0  0  0  0  0  0  0  0  0  0
    0.3480    9.0502   -0.2301 H   0  0  0  0  0  0  0  0  0  0  0  0
   -2.1391    8.1481    0.9872 H   0  0  0  0  0  0  0  0  0  0  0  0
   -1.8039    5.7562    0.3929 H   0  0  0  0  0  0  0  0  0  0  0  0
   -2.0369    6.7478   -1.0509 H   0  0  0  0  0  0  0  0  0  0  0  0
   -0.7307    6.6487    2.6884 N   0  0  0  0  0  0  0  0  0  0  0  0
   -0.0318    6.2626    3.8919 C   0  0  0  0  0  0  0  0  0  0  0  0
   -1.6293    6.2135    2.5019 H   0  0  0  0  0  0  0  0  0  0  0  0
    0.6219    5.4043    3.6776 H   0  0  0  0  0  0  0  0  0  0  0  0
    0.5766    7.1065    4.2491 H   0  0  0  0  0  0  0  0  0  0  0  0
   -0.7617    5.9832    4.6659 H   0  0  0  0  0  0  0  0  0  0  0  0
   -6.7256    2.0330   -0.2766 C   0  0  0  0  0  0  0  0  0  0  0  0
   -7.1824    1.1039   -0.9322 O   0  0  0  0  0  0  0  0  0  0  0  0
   -7.5276    2.6077    0.8435 C   0  0  0  0  0  0  0  0  0  0  0  0
   -8.1775    3.4344    0.5145 H   0  0  0  0  0  0  0  0  0  0  0  0
   -8.2057    1.8676    1.2980 H   0  0  0  0  0  0  0  0  0  0  0  0
   -6.9411    3.0162    1.6819 H   0  0  0  0  0  0  0  0  0  0  0  0
   -5.4935    2.6382   -0.4627 N   0  0  0  0  0  0  0  0  0  0  0  0
   -4.5619    2.2388   -1.4845 C   0  0  2  0  0  0  0  0  0  0  0  0
   -3.1535    2.4674   -0.9521 C   0  0  0  0  0  0  0  0  0  0  0  0
   -2.8634    3.3945   -0.1987 O   0  0  0  0  0  0  0  0  0  0  0  0
   -4.7883    3.0138   -2.7732 C   0  0  0  0  0  0  0  0  0  0  0  0
   -5.2337    3.4049    0.1551 H   0  0  0  0  0  0  0  0  0  0  0  0
   -4.7192    1.1682   -1.6549 H   0  0  0  0  0  0  0  0  0  0  0  0
   -4.6352    4.0886   -2.6221 H   0  0  0  0  0  0  0  0  0  0  0  0
   -4.0976    2.6887   -3.5582 H   0  0  0  0  0  0  0  0  0  0  0  0
   -5.8111    2.8719   -3.1387 H   0  0  0  0  0  0  0  0  0  0  0  0
   -2.2466    1.5400   -1.4507 N   0  0  0  0  0  0  0  0  0  0  0  0
   -0.8424    1.5707   -1.1286 C   0  0  2  0  0  0  0  0  0  0  0  0
   -0.5400    0.4565   -0.1287 C   0  0  0  0  0  0  0  0  0  0  0  0
   -1.3563    0.0622    0.7017 O   0  0  0  0  0  0  0  0  0  0  0  0
   -0.3833    2.9521   -0.6553 C   0  0  0  0  0  0  0  0  0  0  0  0
   -0.4990    4.2339   -1.9266 S   0  0  0  0  0  0  0  0  0  0  0  0
   -2.5850    0.7815   -2.0381 H   0  0  0  0  0  0  0  0  0  0  0  0
   -0.3205    1.3280   -2.0625 H   0  0  0  0  0  0  0  0  0  0  0  0
   -0.9815    3.2839    0.1996 H   0  0  0  0  0  0  0  0  0  0  0  0
    0.6616    2.9067   -0.3297 H   0  0  0  0  0  0  0  0  0  0  0  0
    0.7545   -0.0266   -0.2569 N   0  0  0  0  0  0  0  0  0  0  0  0
    1.2856   -1.0666    0.5930 C   0  0  2  0  0  0  0  0  0  0  0  0
    2.7760   -0.8107    0.7740 C   0  0  0  0  0  0  0  0  0  0  0  0
    3.4856   -0.3285   -0.1065 O   0  0  0  0  0  0  0  0  0  0  0  0
    1.0389   -2.4453    0.0005 C   0  0  0  0  0  0  0  0  0  0  0  0
    1.3490    0.3274   -1.0005 H   0  0  0  0  0  0  0  0  0  0  0  0
    0.7787   -0.9747    1.5597 H   0  0  0  0  0  0  0  0  0  0  0  0
    1.5391   -2.5561   -0.9685 H   0  0  0  0  0  0  0  0  0  0  0  0
    1.4167   -3.2338    0.6596 H   0  0  0  0  0  0  0  0  0  0  0  0
   -0.0316   -2.6160   -0.1567 H   0  0  0  0  0  0  0  0  0  0  0  0
    3.2291   -1.2239    2.0190 N   0  0  0  0  0  0  0  0  0  0  0  0
    4.6144   -1.1270    2.4161 C   0  0  0  0  0  0  0  0  0  0  0  0
    2.5639   -1.5753    2.7014 H   0  0  0  0  0  0  0  0  0  0  0  0
    5.1309   -2.0689    2.1797 H   0  0  0  0  0  0  0  0  0  0  0  0
    5.0943   -0.2994    1.8731 H   0  0  0  0  0  0  0  0  0  0  0  0
    4.6731   -0.9384    3.4982 H   0  0  0  0  0  0  0  0  0  0  0  0
  1  3  1  0  0  0  0
  1  7  1  0  0  0  0
  1  2  2  0  0  0  0
 23 25  1  0  0  0  0
 23 29  1  0  0  0  0
 23 24  2  0  0  0  0
 50 51  1  0  0  0  0
 51 59  1  0  0  0  0
 51 52  2  0  0  0  0
  8  9  1  0  0  0  0
  9 17  1  0  0  0  0
  9 10  2  0  0  0  0
 30 31  1  0  0  0  0
 31 39  1  0  0  0  0
 31 32  2  0  0  0  0
 40 41  1  0  0  0  0
 41 49  1  0  0  0  0
 41 42  2  0  0  0  0
 50 53  1  0  0  0  0
 30 33  1  0  0  0  0
 59 60  1  0  0  0  0
 17 18  1  0  0  0  0
  8 11  1  0  0  0  0
 11 12  1  0  0  0  0
 40 43  1  0  0  0  0
 43 44  1  0  0  0  0
 49 50  1  0  0  0  0
  7  8  1  0  0  0  0
 29 30  1  0  0  0  0
 39 40  1  0  0  0  0
 12 44  1  0  0  0  0
  3  4  1  0  0  0  0
  3  5  1  0  0  0  0
  3  6  1  0  0  0  0
 25 26  1  0  0  0  0
 25 27  1  0  0  0  0
 25 28  1  0  0  0  0
 53 56  1  0  0  0  0
 53 57  1  0  0  0  0
 53 58  1  0  0  0  0
 33 36  1  0  0  0  0
 33 37  1  0  0  0  0
 33 38  1  0  0  0  0
 60 62  1  0  0  0  0
 60 63  1  0  0  0  0
 60 64  1  0  0  0  0
 18 20  1  0  0  0  0
 18 21  1  0  0  0  0
 18 22  1  0  0  0  0
 11 15  1  0  0  0  0
 11 16  1  0  0  0  0
 43 47  1  0  0  0  0
 43 48  1  0  0  0  0
 50 55  1  0  0  0  0
  8 14  1  0  0  0  0
 30 35  1  0  0  0  0
 40 46  1  0  0  0  0
 59 61  1  0  0  0  0
 17 19  1  0  0  0  0
  7 13  1  0  0  0  0
 29 34  1  0  0  0  0
 49 54  1  0  0  0  0
 39 45  1  0  0  0  0
M  END
$$$$

  -OEChem-05262214473D

 64 63  0     1  0  0  0  0  0999 V2000
   -1.4781    9.7988   -0.8578 C   0  0  0  0  0  0  0  0  0  0  0  0
   -2.7029    9.7741   -0.8908 O   0  0  0  0  0  0  0  0  0  0  0  0
   -0.7429   10.8604   -1.6066 C   0  0  0  0  0  0  0  0  0  0  0  0
   -0.5003   10.5565   -2.6376 H   0  0  0  0  0  0  0  0  0  0  0  0
   -1.3299   11.7874   -1.7068 H   0  0  0  0  0  0  0  0  0  0  0  0
    0.2163   11.1717   -1.1630 H   0  0  0  0  0  0  0  0  0  0  0  0
   -0.6592    8.9169   -0.1739 N   0  0  0  0  0  0  0  0  0  0  0  0
   -1.1614    7.8195    0.6135 C   0  0  2  0  0  0  0  0  0  0  0  0
   -0.2493    7.6200    1.8222 C   0  0  0  0  0  0  0  0  0  0  0  0
    0.7987    8.2429    1.9803 O   0  0  0  0  0  0  0  0  0  0  0  0
   -1.3561    6.5481   -0.2164 C   0  0  0  0  0  0  0  0  0  0  0  0
    0.1898    5.8863   -0.9199 S   0  0  0  0  0  0  0  0  0  0  0  0
    0.3480    9.0502   -0.2301 H   0  0  0  0  0  0  0  0  0  0  0  0
   -2.1391    8.1481    0.9872 H   0  0  0  0  0  0  0  0  0  0  0  0
   -1.8039    5.7562    0.3929 H   0  0  0  0  0  0  0  0  0  0  0  0
   -2.0369    6.7478   -1.0509 H   0  0  0  0  0  0  0  0  0  0  0  0
   -0.7307    6.6487    2.6884 N   0  0  0  0  0  0  0  0  0  0  0  0
   -0.0318    6.2626    3.8919 C   0  0  0  0  0  0  0  0  0  0  0  0
   -1.6293    6.2135    2.5019 H   0  0  0  0  0  0  0  0  0  0  0  0
    0.6219    5.4043    3.6776 H   0  0  0  0  0  0  0  0  0  0  0  0
    0.5766    7.1065    4.2491 H   0  0  0  0  0  0  0  0  0  0  0  0
   -0.7617    5.9832    4.6659 H   0  0  0  0  0  0  0  0  0  0  0  0
   -6.7256    2.0330   -0.2766 C   0  0  0  0  0  0  0  0  0  0  0  0
   -7.1824    1.1039   -0.9322 O   0  0  0  0  0  0  0  0  0  0  0  0
   -7.5276    2.6077    0.8435 C   0  0  0  0  0  0  0  0  0  0  0  0
   -8.1775    3.4344    0.5145 H   0  0  0  0  0  0  0  0  0  0  0  0
   -8.2057    1.8676    1.2980 H   0  0  0  0  0  0  0  0  0  0  0  0
   -6.9411    3.0162    1.6819 H   0  0  0  0  0  0  0  0  0  0  0  0
   -5.4935    2.6382   -0.4627 N   0  0  0  0  0  0  0  0  0  0  0  0
   -4.5619    2.2388   -1.4845 C   0  0  2  0  0  0  0  0  0  0  0  0
   -3.1535    2.4674   -0.9521 C   0  0  0  0  0  0  0  0  0  0  0  0
   -2.8634    3.3945   -0.1987 O   0  0  0  0  0  0  0  0  0  0  0  0
   -4.7883    3.0138   -2.7732 C   0  0  0  0  0  0  0  0  0  0  0  0
   -5.2337    3.4049    0.1551 H   0  0  0  0  0  0  0  0  0  0  0  0
   -4.7192    1.1682   -1.6549 H   0  0  0  0  0  0  0  0  0  0  0  0
   -4.6352    4.0886   -2.6221 H   0  0  0  0  0  0  0  0  0  0  0  0
   -4.0976    2.6887   -3.5582 H   0  0  0  0  0  0  0  0  0  0  0  0
   -5.8111    2.8719   -3.1387 H   0  0  0  0  0  0  0  0  0  0  0  0
   -2.2466    1.5400   -1.4507 N   0  0  0  0  0  0  0  0  0  0  0  0
   -0.8424    1.5707   -1.1286 C   0  0  2  0  0  0  0  0  0  0  0  0
   -0.5400    0.4565   -0.1287 C   0  0  0  0  0  0  0  0  0  0  0  0
   -1.4139   -0.1219    0.5140 O   0  0  0  0  0  0  0  0  0  0  0  0
   -0.3833    2.9521   -0.6553 C   0  0  0  0  0  0  0  0  0  0  0  0
   -0.4990    4.2339   -1.9266 S   0  0  0  0  0  0  0  0  0  0  0  0
   -2.5850    0.7815   -2.0381 H   0  0  0  0  0  0  0  0  0  0  0  0
   -0.3205    1.3280   -2.0625 H   0  0  0  0  0  0  0  0  0  0  0  0
   -0.9815    3.2839    0.1996 H   0  0  0  0  0  0  0  0  0  0  0  0
    0.6616    2.9067   -0.3297 H   0  0  0  0  0  0  0  0  0  0  0  0
    0.8200    0.2027   -0.0211 N   0  0  0  0  0  0  0  0  0  0  0  0
    1.3584   -0.7907    0.8784 C   0  0  2  0  0  0  0  0  0  0  0  0
    2.7220   -0.3059    1.3528 C   0  0  0  0  0  0  0  0  0  0  0  0
    3.4866    0.3448    0.6435 O   0  0  0  0  0  0  0  0  0  0  0  0
    1.4693   -2.1480    0.2015 C   0  0  0  0  0  0  0  0  0  0  0  0
    1.4704    0.6991   -0.6230 H   0  0  0  0  0  0  0  0  0  0  0  0
    0.6737   -0.8489    1.7316 H   0  0  0  0  0  0  0  0  0  0  0  0
    2.1512   -2.1093   -0.6558 H   0  0  0  0  0  0  0  0  0  0  0  0
    1.8508   -2.9063    0.8932 H   0  0  0  0  0  0  0  0  0  0  0  0
    0.4927   -2.4815   -0.1654 H   0  0  0  0  0  0  0  0  0  0  0  0
    3.0027   -0.7221    2.6467 N   0  0  0  0  0  0  0  0  0  0  0  0
    4.2525   -0.4256    3.3071 C   0  0  0  0  0  0  0  0  0  0  0  0
    2.2947   -1.2234    3.1750 H   0  0  0  0  0  0  0  0  0  0  0  0
    4.9600   -1.2516    3.1421 H   0  0  0  0  0  0  0  0  0  0  0  0
    4.6725    0.5044    2.8964 H   0  0  0  0  0  0  0  0  0  0  0  0
    4.0769   -0.3034    4.3861 H   0  0  0  0  0  0  0  0  0  0  0  0
  1  3  1  0  0  0  0
  1  7  1  0  0  0  0
  1  2  2  0  0  0  0
 23 25  1  0  0  0  0
 23 29  1  0  0  0  0
 23 24  2  0  0  0  0
 50 51  1  0  0  0  0
 51 59  1  0  0  0  0
 51 52  2  0  0  0  0
  8  9  1  0  0  0  0
  9 17  1  0  0  0  0
  9 10  2  0  0  0  0
 30 31  1  0  0  0  0
 31 39  1  0  0  0  0
 31 32  2  0  0  0  0
 40 41  1  0  0  0  0
 41 49  1  0  0  0  0
 41 42  2  0  0  0  0
 50 53  1  0  0  0  0
 30 33  1  0  0  0  0
 59 60  1  0  0  0  0
 17 18  1  0  0  0  0
  8 11  1  0  0  0  0
 11 12  1  0  0  0  0
 40 43  1  0  0  0  0
 43 44  1  0  0  0  0
 49 50  1  0  0  0  0
  7  8  1  0  0  0  0
 29 30  1  0  0  0  0
 39 40  1  0  0  0  0
 12 44  1  0  0  0  0
  3  4  1  0  0  0  0
  3  5  1  0  0  0  0
  3  6  1  0  0  0  0
 25 26  1  0  0  0  0
 25 27  1  0  0  0  0
 25 28  1  0  0  0  0
 53 56  1  0  0  0  0
 53 57  1  0  0  0  0
 53 58  1  0  0  0  0
 33 36  1  0  0  0  0
 33 37  1  0  0  0  0
 33 38  1  0  0  0  0
 60 62  1  0  0  0  0
 60 63  1  0  0  0  0
 60 64  1  0  0  0  0
 18 20  1  0  0  0  0
 18 21  1  0  0  0  0
 18 22  1  0  0  0  0
 11 15  1  0  0  0  0
 11 16  1  0  0  0  0
 43 47  1  0  0  0  0
 43 48  1  0  0  0  0
 50 55  1  0  0  0  0
  8 14  1  0  0  0  0
 30 35  1  0  0  0  0
 40 46  1  0  0  0  0
 59 61  1  0  0  0  0
 17 19  1  0  0  0  0
  7 13  1  0  0  0  0
 29 34  1  0  0  0  0
 49 54  1  0  0  0  0
 39 45  1  0  0  0  0
M  END
$$$$

  -OEChem-05262214473D

 64 63  0     1  0  0  0  0  0999 V2000
   -1.9438    9.4131    1.2088 C   0  0  0  0  0  0  0  0  0  0  0  0
   -3.1654    9.3258    1.1683 O   0  0  0  0  0  0  0  0  0  0  0  0
   -1.2802   10.6703    0.7535 C   0  0  0  0  0  0  0  0  0  0  0  0
   -1.0340   10.6508   -0.3203 H   0  0  0  0  0  0  0  0  0  0  0  0
   -1.9205   11.5567    0.8894 H   0  0  0  0  0  0  0  0  0  0  0  0
   -0.3346   10.9153    1.2632 H   0  0  0  0  0  0  0  0  0  0  0  0
   -1.0670    8.4368    1.6495 N   0  0  0  0  0  0  0  0  0  0  0  0
   -1.4954    7.1489    2.1335 C   0  0  2  0  0  0  0  0  0  0  0  0
   -0.5579    6.7050    3.2545 C   0  0  0  0  0  0  0  0  0  0  0  0
    0.4548    7.3282    3.5666 O   0  0  0  0  0  0  0  0  0  0  0  0
   -1.6278    6.1186    1.0093 C   0  0  0  0  0  0  0  0  0  0  0  0
   -0.0560    5.7472    0.1644 S   0  0  0  0  0  0  0  0  0  0  0  0
   -0.0698    8.6387    1.6307 H   0  0  0  0  0  0  0  0  0  0  0  0
   -2.4854    7.3149    2.5762 H   0  0  0  0  0  0  0  0  0  0  0  0
   -2.0217    5.1739    1.3981 H   0  0  0  0  0  0  0  0  0  0  0  0
   -2.3297    6.4820    0.2509 H   0  0  0  0  0  0  0  0  0  0  0  0
   -0.9717    5.5202    3.8466 N   0  0  0  0  0  0  0  0  0  0  0  0
   -0.2364    4.8849    4.9150 C   0  0  0  0  0  0  0  0  0  0  0  0
   -1.8463    5.0942    3.5546 H   0  0  0  0  0  0  0  0  0  0  0  0
    0.4625    4.1481    4.4923 H   0  0  0  0  0  0  0  0  0  0  0  0
    0.3274    5.6457    5.4748 H   0  0  0  0  0  0  0  0  0  0  0  0
   -0.9390    4.3771    5.5921 H   0  0  0  0  0  0  0  0  0  0  0  0
   -6.7256    2.0330   -0.2766 C   0  0  0  0  0  0  0  0  0  0  0  0
   -7.1824    1.1039   -0.9322 O   0  0  0  0  0  0  0  0  0  0  0  0
   -7.5276    2.6077    0.8435 C   0  0  0  0  0  0  0  0  0  0  0  0
   -8.1775    3.4344    0.5145 H   0  0  0  0  0  0  0  0  0  0  0  0
   -8.2057    1.8676    1.2980 H   0  0  0  0  0  0  0  0  0  0  0  0
   -6.9411    3.0162    1.6819 H   0  0  0  0  0  0  0  0  0  0  0  0
   -5.4935    2.6382   -0.4627 N   0  0  0  0  0  0  0  0  0  0  0  0
   -4.5619    2.2388   -1.4845 C   0  0  2  0  0  0  0  0  0  0  0  0
   -3.1535    2.4674   -0.9521 C   0  0  0  0  0  0  0  0  0  0  0  0
   -2.8634    3.3945   -0.1987 O   0  0  0  0  0  0  0  0  0  0  0  0
   -4.7883    3.0138   -2.7732 C   0  0  0  0  0  0  0  0  0  0  0  0
   -5.2337    3.4049    0.1551 H   0  0  0  0  0  0  0  0  0  0  0  0
   -4.7192    1.1682   -1.6549 H   0  0  0  0  0  0  0  0  0  0  0  0
   -4.6352    4.0886   -2.6221 H   0  0  0  0  0  0  0  0  0  0  0  0
   -4.0976    2.6887   -3.5582 H   0  0  0  0  0  0  0  0  0  0  0  0
   -5.8111    2.8719   -3.1387 H   0  0  0  0  0  0  0  0  0  0  0  0
   -2.2466    1.5400   -1.4507 N   0  0  0  0  0  0  0  0  0  0  0  0
   -0.8424    1.5707   -1.1286 C   0  0  2  0  0  0  0  0  0  0  0  0
   -0.4639    0.2602   -0.4416 C   0  0  0  0  0  0  0  0  0  0  0  0
   -1.2764   -0.6322   -0.2074 O   0  0  0  0  0  0  0  0  0  0  0  0
   -0.4569    2.8126   -0.3211 C   0  0  0  0  0  0  0  0  0  0  0  0
   -0.6621    4.3644   -1.2280 S   0  0  0  0  0  0  0  0  0  0  0  0
   -2.5850    0.7815   -2.0381 H   0  0  0  0  0  0  0  0  0  0  0  0
   -0.3196    1.6023   -2.0925 H   0  0  0  0  0  0  0  0  0  0  0  0
   -1.0620    2.8826    0.5887 H   0  0  0  0  0  0  0  0  0  0  0  0
    0.5930    2.7479   -0.0155 H   0  0  0  0  0  0  0  0  0  0  0  0
    0.8803    0.2159   -0.0998 N   0  0  0  0  0  0  0  0  0  0  0  0
    1.4740   -0.9103    0.5821 C   0  0  2  0  0  0  0  0  0  0  0  0
    2.5904   -0.3845    1.4746 C   0  0  0  0  0  0  0  0  0  0  0  0
    3.2927    0.5784    1.1735 O   0  0  0  0  0  0  0  0  0  0  0  0
    2.0058   -1.9374   -0.4054 C   0  0  0  0  0  0  0  0  0  0  0  0
    1.4905    0.9814   -0.3706 H   0  0  0  0  0  0  0  0  0  0  0  0
    0.6881   -1.3545    1.2026 H   0  0  0  0  0  0  0  0  0  0  0  0
    2.7942   -1.5105   -1.0360 H   0  0  0  0  0  0  0  0  0  0  0  0
    2.4299   -2.8037    0.1130 H   0  0  0  0  0  0  0  0  0  0  0  0
    1.2076   -2.2925   -1.0661 H   0  0  0  0  0  0  0  0  0  0  0  0
    2.7384   -1.1435    2.6271 N   0  0  0  0  0  0  0  0  0  0  0  0
    3.7578   -0.8722    3.6137 C   0  0  0  0  0  0  0  0  0  0  0  0
    2.0864   -1.8993    2.8148 H   0  0  0  0  0  0  0  0  0  0  0  0
    4.6535   -1.4702    3.3902 H   0  0  0  0  0  0  0  0  0  0  0  0
    4.0155    0.1969    3.5900 H   0  0  0  0  0  0  0  0  0  0  0  0
    3.3806   -1.1364    4.6126 H   0  0  0  0  0  0  0  0  0  0  0  0
  1  3  1  0  0  0  0
  1  7  1  0  0  0  0
  1  2  2  0  0  0  0
 23 25  1  0  0  0  0
 23 29  1  0  0  0  0
 23 24  2  0  0  0  0
 50 51  1  0  0  0  0
 51 59  1  0  0  0  0
 51 52  2  0  0  0  0
  8  9  1  0  0  0  0
  9 17  1  0  0  0  0
  9 10  2  0  0  0  0
 30 31  1  0  0  0  0
 31 39  1  0  0  0  0
 31 32  2  0  0  0  0
 40 41  1  0  0  0  0
 41 49  1  0  0  0  0
 41 42  2  0  0  0  0
 50 53  1  0  0  0  0
 30 33  1  0  0  0  0
 59 60  1  0  0  0  0
 17 18  1  0  0  0  0
  8 11  1  0  0  0  0
 11 12  1  0  0  0  0
 40 43  1  0  0  0  0
 43 44  1  0  0  0  0
 49 50  1  0  0  0  0
  7  8  1  0  0  0  0
 29 30  1  0  0  0  0
 39 40  1  0  0  0  0
 12 44  1  0  0  0  0
  3  4  1  0  0  0  0
  3  5  1  0  0  0  0
  3  6  1  0  0  0  0
 25 26  1  0  0  0  0
 25 27  1  0  0  0  0
 25 28  1  0  0  0  0
 53 56  1  0  0  0  0
 53 57  1  0  0  0  0
 53 58  1  0  0  0  0
 33 36  1  0  0  0  0
 33 37  1  0  0  0  0
 33 38  1  0  0  0  0
 60 62  1  0  0  0  0
 60 63  1  0  0  0  0
 60 64  1  0  0  0  0
 18 20  1  0  0  0  0
 18 21  1  0  0  0  0
 18 22  1  0  0  0  0
 11 15  1  0  0  0  0
 11 16  1  0  0  0  0
 43 47  1  0  0  0  0
 43 48  1  0  0  0  0
 50 55  1  0  0  0  0
  8 14  1  0  0  0  0
 30 35  1  0  0  0  0
 40 46  1  0  0  0  0
 59 61  1  0  0  0  0
 17 19  1  0  0  0  0
  7 13  1  0  0  0  0
 29 34  1  0  0  0  0
 49 54  1  0  0  0  0
 39 45  1  0  0  0  0
M  END
$$$$

  -OEChem-05262214473D

 64 63  0     1  0  0  0  0  0999 V2000
   -1.9438    9.4131    1.2088 C   0  0  0  0  0  0  0  0  0  0  0  0
   -3.1654    9.3258    1.1683 O   0  0  0  0  0  0  0  0  0  0  0  0
   -1.2802   10.6703    0.7535 C   0  0  0  0  0  0  0  0  0  0  0  0
   -1.0340   10.6508   -0.3203 H   0  0  0  0  0  0  0  0  0  0  0  0
   -1.9205   11.5567    0.8894 H   0  0  0  0  0  0  0  0  0  0  0  0
   -0.3346   10.9153    1.2632 H   0  0  0  0  0  0  0  0  0  0  0  0
   -1.0670    8.4368    1.6495 N   0  0  0  0  0  0  0  0  0  0  0  0
   -1.4954    7.1489    2.1335 C   0  0  2  0  0  0  0  0  0  0  0  0
   -0.5579    6.7050    3.2545 C   0  0  0  0  0  0  0  0  0  0  0  0
    0.4548    7.3282    3.5666 O   0  0  0  0  0  0  0  0  0  0  0  0
   -1.6278    6.1186    1.0093 C   0  0  0  0  0  0  0  0  0  0  0  0
   -0.0560    5.7472    0.1644 S   0  0  0  0  0  0  0  0  0  0  0  0
   -0.0698    8.6387    1.6307 H   0  0  0  0  0  0  0  0  0  0  0  0
   -2.4854    7.3149    2.5762 H   0  0  0  0  0  0  0  0  0  0  0  0
   -2.0217    5.1739    1.3981 H   0  0  0  0  0  0  0  0  0  0  0  0
   -2.3297    6.4820    0.2509 H   0  0  0  0  0  0  0  0  0  0  0  0
   -0.9717    5.5202    3.8466 N   0  0  0  0  0  0  0  0  0  0  0  0
   -0.2364    4.8849    4.9150 C   0  0  0  0  0  0  0  0  0  0  0  0
   -1.8463    5.0942    3.5546 H   0  0  0  0  0  0  0  0  0  0  0  0
    0.4625    4.1481    4.4923 H   0  0  0  0  0  0  0  0  0  0  0  0
    0.3274    5.6457    5.4748 H   0  0  0  0  0  0  0  0  0  0  0  0
   -0.9390    4.3771    5.5921 H   0  0  0  0  0  0  0  0  0  0  0  0
   -6.7256    2.0330   -0.2766 C   0  0  0  0  0  0  0  0  0  0  0  0
   -7.1824    1.1039   -0.9322 O   0  0  0  0  0  0  0  0  0  0  0  0
   -7.5276    2.6077    0.8435 C   0  0  0  0  0  0  0  0  0  0  0  0
   -8.1775    3.4344    0.5145 H   0  0  0  0  0  0  0  0  0  0  0  0
   -8.2057    1.8676    1.2980 H   0  0  0  0  0  0  0  0  0  0  0  0
   -6.9411    3.0162    1.6819 H   0  0  0  0  0  0  0  0  0  0  0  0
   -5.4935    2.6382   -0.4627 N   0  0  0  0  0  0  0  0  0  0  0  0
   -4.5619    2.2388   -1.4845 C   0  0  2  0  0  0  0  0  0  0  0  0
   -3.1535    2.4674   -0.9521 C   0  0  0  0  0  0  0  0  0  0  0  0
   -2.8634    3.3945   -0.1987 O   0  0  0  0  0  0  0  0  0  0  0  0
   -4.7883    3.0138   -2.7732 C   0  0  0  0  0  0  0  0  0  0  0  0
   -5.2337    3.4049    0.1551 H   0  0  0  0  0  0  0  0  0  0  0  0
   -4.7192    1.1682   -1.6549 H   0  0  0  0  0  0  0  0  0  0  0  0
   -4.6352    4.0886   -2.6221 H   0  0  0  0  0  0  0  0  0  0  0  0
   -4.0976    2.6887   -3.5582 H   0  0  0  0  0  0  0  0  0  0  0  0
   -5.8111    2.8719   -3.1387 H   0  0  0  0  0  0  0  0  0  0  0  0
   -2.2466    1.5400   -1.4507 N   0  0  0  0  0  0  0  0  0  0  0  0
   -0.8424    1.5707   -1.1286 C   0  0  2  0  0  0  0  0  0  0  0  0
   -0.4639    0.2602   -0.4416 C   0  0  0  0  0  0  0  0  0  0  0  0
   -1.1912   -0.7310   -0.4429 O   0  0  0  0  0  0  0  0  0  0  0  0
   -0.4569    2.8126   -0.3211 C   0  0  0  0  0  0  0  0  0  0  0  0
   -0.6621    4.3644   -1.2280 S   0  0  0  0  0  0  0  0  0  0  0  0
   -2.5850    0.7815   -2.0381 H   0  0  0  0  0  0  0  0  0  0  0  0
   -0.3196    1.6023   -2.0925 H   0  0  0  0  0  0  0  0  0  0  0  0
   -1.0620    2.8826    0.5887 H   0  0  0  0  0  0  0  0  0  0  0  0
    0.5930    2.7479   -0.0155 H   0  0  0  0  0  0  0  0  0  0  0  0
    0.7681    0.3366    0.1923 N   0  0  0  0  0  0  0  0  0  0  0  0
    1.3333   -0.7674    0.9323 C   0  0  2  0  0  0  0  0  0  0  0  0
    2.1541   -0.1934    2.0796 C   0  0  0  0  0  0  0  0  0  0  0  0
    2.7806    0.8608    1.9944 O   0  0  0  0  0  0  0  0  0  0  0  0
    2.1906   -1.6509    0.0394 C   0  0  0  0  0  0  0  0  0  0  0  0
    1.3233    1.1827    0.1057 H   0  0  0  0  0  0  0  0  0  0  0  0
    0.4920   -1.3414    1.3358 H   0  0  0  0  0  0  0  0  0  0  0  0
    3.0387   -1.0930   -0.3742 H   0  0  0  0  0  0  0  0  0  0  0  0
    2.5951   -2.5031    0.5953 H   0  0  0  0  0  0  0  0  0  0  0  0
    1.6061   -2.0388   -0.8018 H   0  0  0  0  0  0  0  0  0  0  0  0
    2.1397   -1.0185    3.1955 N   0  0  0  0  0  0  0  0  0  0  0  0
    2.8776   -0.7147    4.3993 C   0  0  0  0  0  0  0  0  0  0  0  0
    1.5610   -1.8533    3.1922 H   0  0  0  0  0  0  0  0  0  0  0  0
    3.8674   -1.1923    4.3537 H   0  0  0  0  0  0  0  0  0  0  0  0
    3.0000    0.3748    4.4890 H   0  0  0  0  0  0  0  0  0  0  0  0
    2.3270   -1.0949    5.2724 H   0  0  0  0  0  0  0  0  0  0  0  0
  1  3  1  0  0  0  0
  1  7  1  0  0  0  0
  1  2  2  0  0  0  0
 23 25  1  0  0  0  0
 23 29  1  0  0  0  0
 23 24  2  0  0  0  0
 50 51  1  0  0  0  0
 51 59  1  0  0  0  0
 51 52  2  0  0  0  0
  8  9  1  0  0  0  0
  9 17  1  0  0  0  0
  9 10  2  0  0  0  0
 30 31  1  0  0  0  0
 31 39  1  0  0  0  0
 31 32  2  0  0  0  0
 40 41  1  0  0  0  0
 41 49  1  0  0  0  0
 41 42  2  0  0  0  0
 50 53  1  0  0  0  0
 30 33  1  0  0  0  0
 59 60  1  0  0  0  0
 17 18  1  0  0  0  0
  8 11  1  0  0  0  0
 11 12  1  0  0  0  0
 40 43  1  0  0  0  0
 43 44  1  0  0  0  0
 49 50  1  0  0  0  0
  7  8  1  0  0  0  0
 29 30  1  0  0  0  0
 39 40  1  0  0  0  0
 12 44  1  0  0  0  0
  3  4  1  0  0  0  0
  3  5  1  0  0  0  0
  3  6  1  0  0  0  0
 25 26  1  0  0  0  0
 25 27  1  0  0  0  0
 25 28  1  0  0  0  0
 53 56  1  0  0  0  0
 53 57  1  0  0  0  0
 53 58  1  0  0  0  0
 33 36  1  0  0  0  0
 33 37  1  0  0  0  0
 33 38  1  0  0  0  0
 60 62  1  0  0  0  0
 60 63  1  0  0  0  0
 60 64  1  0  0  0  0
 18 20  1  0  0  0  0
 18 21  1  0  0  0  0
 18 22  1  0  0  0  0
 11 15  1  0  0  0  0
 11 16  1  0  0  0  0
 43 47  1  0  0  0  0
 43 48  1  0  0  0  0
 50 55  1  0  0  0  0
  8 14  1  0  0  0  0
 30 35  1  0  0  0  0
 40 46  1  0  0  0  0
 59 61  1  0  0  0  0
 17 19  1  0  0  0  0
  7 13  1  0  0  0  0
 29 34  1  0  0  0  0
 49 54  1  0  0  0  0
 39 45  1  0  0  0  0
M  END
$$$$

  -OEChem-05262214473D

 64 63  0     1  0  0  0  0  0999 V2000
   -1.9438    9.4131    1.2088 C   0  0  0  0  0  0  0  0  0  0  0  0
   -3.1654    9.3258    1.1683 O   0  0  0  0  0  0  0  0  0  0  0  0
   -1.2802   10.6703    0.7535 C   0  0  0  0  0  0  0  0  0  0  0  0
   -1.0340   10.6508   -0.3203 H   0  0  0  0  0  0  0  0  0  0  0  0
   -1.9205   11.5567    0.8894 H   0  0  0  0  0  0  0  0  0  0  0  0
   -0.3346   10.9153    1.2632 H   0  0  0  0  0  0  0  0  0  0  0  0
   -1.0670    8.4368    1.6495 N   0  0  0  0  0  0  0  0  0  0  0  0
   -1.4954    7.1489    2.1335 C   0  0  2  0  0  0  0  0  0  0  0  0
   -0.5579    6.7050    3.2545 C   0  0  0  0  0  0  0  0  0  0  0  0
    0.4548    7.3282    3.5666 O   0  0  0  0  0  0  0  0  0  0  0  0
   -1.6278    6.1186    1.0093 C   0  0  0  0  0  0  0  0  0  0  0  0
   -0.0560    5.7472    0.1644 S   0  0  0  0  0  0  0  0  0  0  0  0
   -0.0698    8.6387    1.6307 H   0  0  0  0  0  0  0  0  0  0  0  0
   -2.4854    7.3149    2.5762 H   0  0  0  0  0  0  0  0  0  0  0  0
   -2.0217    5.1739    1.3981 H   0  0  0  0  0  0  0  0  0  0  0  0
   -2.3297    6.4820    0.2509 H   0  0  0  0  0  0  0  0  0  0  0  0
   -0.9717    5.5202    3.8466 N   0  0  0  0  0  0  0  0  0  0  0  0
   -0.2364    4.8849    4.9150 C   0  0  0  0  0  0  0  0  0  0  0  0
   -1.8463    5.0942    3.5546 H   0  0  0  0  0  0  0  0  0  0  0  0
    0.4625    4.1481    4.4923 H   0  0  0  0  0  0  0  0  0  0  0  0
    0.3274    5.6457    5.4748 H   0  0  0  0  0  0  0  0  0  0  0  0
   -0.9390    4.3771    5.5921 H   0  0  0  0  0  0  0  0  0  0  0  0
   -6.7256    2.0330   -0.2766 C   0  0  0  0  0  0  0  0  0  0  0  0
   -7.1824    1.1039   -0.9322 O   0  0  0  0  0  0  0  0  0  0  0  0
   -7.5276    2.6077    0.8435 C   0  0  0  0  0  0  0  0  0  0  0  0
   -8.1775    3.4344    0.5145 H   0  0  0  0  0  0  0  0  0  0  0  0
   -8.2057    1.8676    1.2980 H   0  0  0  0  0  0  0  0  0  0  0  0
   -6.9411    3.0162    1.6819 H   0  0  0  0  0  0  0  0  0  0  0  0
   -5.4935    2.6382   -0.4627 N   0  0  0  0  0  0  0  0  0  0  0  0
   -4.5619    2.2388   -1.4845 C   0  0  2  0  0  0  0  0  0  0  0  0
   -3.1535    2.4674   -0.9521 C   0  0  0  0  0  0  0  0  0  0  0  0
   -2.8634    3.3945   -0.1987 O   0  0  0  0  0  0  0  0  0  0  0  0
   -4.7883    3.0138   -2.7732 C   0  0  0  0  0  0  0  0  0  0  0  0
   -5.2337    3.4049    0.1551 H   0  0  0  0  0  0  0  0  0  0  0  0
   -4.7192    1.1682   -1.6549 H   0  0  0  0  0  0  0  0  0  0  0  0
   -4.6352    4.0886   -2.6221 H   0  0  0  0  0  0  0  0  0  0  0  0
   -4.0976    2.6887   -3.5582 H   0  0  0  0  0  0  0  0  0  0  0  0
   -5.8111    2.8719   -3.1387 H   0  0  0  0  0  0  0  0  0  0  0  0
   -2.2466    1.5400   -1.4507 N   0  0  0  0  0  0  0  0  0  0  0  0
   -0.8424    1.5707   -1.1286 C   0  0  2  0  0  0  0  0  0  0  0  0
   -0.4639    0.2602   -0.4416 C   0  0  0  0  0  0  0  0  0  0  0  0
   -1.0452   -0.8014   -0.6577 O   0  0  0  0  0  0  0  0  0  0  0  0
   -0.4569    2.8126   -0.3211 C   0  0  0  0  0  0  0  0  0  0  0  0
   -0.6621    4.3644   -1.2280 S   0  0  0  0  0  0  0  0  0  0  0  0
   -2.5850    0.7815   -2.0381 H   0  0  0  0  0  0  0  0  0  0  0  0
   -0.3196    1.6023   -2.0925 H   0  0  0  0  0  0  0  0  0  0  0  0
   -1.0620    2.8826    0.5887 H   0  0  0  0  0  0  0  0  0  0  0  0
    0.5930    2.7479   -0.0155 H   0  0  0  0  0  0  0  0  0  0  0  0
    0.5809    0.4214    0.4573 N   0  0  0  0  0  0  0  0  0  0  0  0
    1.1030   -0.6682    1.2485 C   0  0  2  0  0  0  0  0  0  0  0  0
    1.5761   -0.0984    2.5793 C   0  0  0  0  0  0  0  0  0  0  0  0
    2.0709    1.0212    2.6917 O   0  0  0  0  0  0  0  0  0  0  0  0
    2.2370   -1.3811    0.5285 C   0  0  0  0  0  0  0  0  0  0  0  0
    1.0326    1.3272    0.5415 H   0  0  0  0  0  0  0  0  0  0  0  0
    0.2715   -1.3600    1.4217 H   0  0  0  0  0  0  0  0  0  0  0  0
    3.0793   -0.7038    0.3462 H   0  0  0  0  0  0  0  0  0  0  0  0
    2.6126   -2.2245    1.1172 H   0  0  0  0  0  0  0  0  0  0  0  0
    1.9028   -1.7644   -0.4417 H   0  0  0  0  0  0  0  0  0  0  0  0
    1.4206   -1.0040    3.6195 N   0  0  0  0  0  0  0  0  0  0  0  0
    1.8345   -0.7154    4.9728 C   0  0  0  0  0  0  0  0  0  0  0  0
    0.9643   -1.8941    3.4431 H   0  0  0  0  0  0  0  0  0  0  0  0
    2.8617   -1.0771    5.1277 H   0  0  0  0  0  0  0  0  0  0  0  0
    1.7988    0.3708    5.1433 H   0  0  0  0  0  0  0  0  0  0  0  0
    1.1580   -1.2197    5.6784 H   0  0  0  0  0  0  0  0  0  0  0  0
  1  3  1  0  0  0  0
  1  7  1  0  0  0  0
  1  2  2  0  0  0  0
 23 25  1  0  0  0  0
 23 29  1  0  0  0  0
 23 24  2  0  0  0  0
 50 51  1  0  0  0  0
 51 59  1  0  0  0  0
 51 52  2  0  0  0  0
  8  9  1  0  0  0  0
  9 17  1  0  0  0  0
  9 10  2  0  0  0  0
 30 31  1  0  0  0  0
 31 39  1  0  0  0  0
 31 32  2  0  0  0  0
 40 41  1  0  0  0  0
 41 49  1  0  0  0  0
 41 42  2  0  0  0  0
 50 53  1  0  0  0  0
 30 33  1  0  0  0  0
 59 60  1  0  0  0  0
 17 18  1  0  0  0  0
  8 11  1  0  0  0  0
 11 12  1  0  0  0  0
 40 43  1  0  0  0  0
 43 44  1  0  0  0  0
 49 50  1  0  0  0  0
  7  8  1  0  0  0  0
 29 30  1  0  0  0  0
 39 40  1  0  0  0  0
 12 44  1  0  0  0  0
  3  4  1  0  0  0  0
  3  5  1  0  0  0  0
  3  6  1  0  0  0  0
 25 26  1  0  0  0  0
 25 27  1  0  0  0  0
 25 28  1  0  0  0  0
 53 56  1  0  0  0  0
 53 57  1  0  0  0  0
 53 58  1  0  0  0  0
 33 36  1  0  0  0  0
 33 37  1  0  0  0  0
 33 38  1  0  0  0  0
 60 62  1  0  0  0  0
 60 63  1  0  0  0  0
 60 64  1  0  0  0  0
 18 20  1  0  0  0  0
 18 21  1  0  0  0  0
 18 22  1  0  0  0  0
 11 15  1  0  0  0  0
 11 16  1  0  0  0  0
 43 47  1  0  0  0  0
 43 48  1  0  0  0  0
 50 55  1  0  0  0  0
  8 14  1  0  0  0  0
 30 35  1  0  0  0  0
 40 46  1  0  0  0  0
 59 61  1  0  0  0  0
 17 19  1  0  0  0  0
  7 13  1  0  0  0  0
 29 34  1  0  0  0  0
 49 54  1  0  0  0  0
 39 45  1  0  0  0  0
M  END
$$$$

  -OEChem-05262214473D

 64 63  0     1  0  0  0  0  0999 V2000
   -1.9438    9.4131    1.2088 C   0  0  0  0  0  0  0  0  0  0  0  0
   -3.1654    9.3258    1.1683 O   0  0  0  0  0  0  0  0  0  0  0  0
   -1.2802   10.6703    0.7535 C   0  0  0  0  0  0  0  0  0  0  0  0
   -1.0340   10.6508   -0.3203 H   0  0  0  0  0  0  0  0  0  0  0  0
   -1.9205   11.5567    0.8894 H   0  0  0  0  0  0  0  0  0  0  0  0
   -0.3346   10.9153    1.2632 H   0  0  0  0  0  0  0  0  0  0  0  0
   -1.0670    8.4368    1.6495 N   0  0  0  0  0  0  0  0  0  0  0  0
   -1.4954    7.1489    2.1335 C   0  0  2  0  0  0  0  0  0  0  0  0
   -0.5579    6.7050    3.2545 C   0  0  0  0  0  0  0  0  0  0  0  0
    0.4548    7.3282    3.5666 O   0  0  0  0  0  0  0  0  0  0  0  0
   -1.6278    6.1186    1.0093 C   0  0  0  0  0  0  0  0  0  0  0  0
   -0.0560    5.7472    0.1644 S   0  0  0  0  0  0  0  0  0  0  0  0
   -0.0698    8.6387    1.6307 H   0  0  0  0  0  0  0  0  0  0  0  0
   -2.4854    7.3149    2.5762 H   0  0  0  0  0  0  0  0  0  0  0  0
   -2.0217    5.1739    1.3981 H   0  0  0  0  0  0  0  0  0  0  0  0
   -2.3297    6.4820    0.2509 H   0  0  0  0  0  0  0  0  0  0  0  0
   -0.9717    5.5202    3.8466 N   0  0  0  0  0  0  0  0  0  0  0  0
   -0.2364    4.8849    4.9150 C   0  0  0  0  0  0  0  0  0  0  0  0
   -1.8463    5.0942    3.5546 H   0  0  0  0  0  0  0  0  0  0  0  0
    0.4625    4.1481    4.4923 H   0  0  0  0  0  0  0  0  0  0  0  0
    0.3274    5.6457    5.4748 H   0  0  0  0  0  0  0  0  0  0  0  0
   -0.9390    4.3771    5.5921 H   0  0  0  0  0  0  0  0  0  0  0  0
   -6.7256    2.0330   -0.2766 C   0  0  0  0  0  0  0  0  0  0  0  0
   -7.1824    1.1039   -0.9322 O   0  0  0  0  0  0  0  0  0  0  0  0
   -7.5276    2.6077    0.8435 C   0  0  0  0  0  0  0  0  0  0  0  0
   -8.1775    3.4344    0.5145 H   0  0  0  0  0  0  0  0  0  0  0  0
   -8.2057    1.8676    1.2980 H   0  0  0  0  0  0  0  0  0  0  0  0
   -6.9411    3.0162    1.6819 H   0  0  0  0  0  0  0  0  0  0  0  0
   -5.4935    2.6382   -0.4627 N   0  0  0  0  0  0  0  0  0  0  0  0
   -4.5619    2.2388   -1.4845 C   0  0  2  0  0  0  0  0  0  0  0  0
   -3.1535    2.4674   -0.9521 C   0  0  0  0  0  0  0  0  0  0  0  0
   -2.8634    3.3945   -0.1987 O   0  0  0  0  0  0  0  0  0  0  0  0
   -4.7883    3.0138   -2.7732 C   0  0  0  0  0  0  0  0  0  0  0  0
   -5.2337    3.4049    0.1551 H   0  0  0  0  0  0  0  0  0  0  0  0
   -4.7192    1.1682   -1.6549 H   0  0  0  0  0  0  0  0  0  0  0  0
   -4.6352    4.0886   -2.6221 H   0  0  0  0  0  0  0  0  0  0  0  0
   -4.0976    2.6887   -3.5582 H   0  0  0  0  0  0  0  0  0  0  0  0
   -5.8111    2.8719   -3.1387 H   0  0  0  0  0  0  0  0  0  0  0  0
   -2.2466    1.5400   -1.4507 N   0  0  0  0  0  0  0  0  0  0  0  0
   -0.8424    1.5707   -1.1286 C   0  0  2  0  0  0  0  0  0  0  0  0
   -0.4639    0.2602   -0.4416 C   0  0  0  0  0  0  0  0  0  0  0  0
   -0.8482   -0.8386   -0.8372 O   0  0  0  0  0  0  0  0  0  0  0  0
   -0.4569    2.8126   -0.3211 C   0  0  0  0  0  0  0  0  0  0  0  0
   -0.6621    4.3644   -1.2280 S   0  0  0  0  0  0  0  0  0  0  0  0
   -2.5850    0.7815   -2.0381 H   0  0  0  0  0  0  0  0  0  0  0  0
   -0.3196    1.6023   -2.0925 H   0  0  0  0  0  0  0  0  0  0  0  0
   -1.0620    2.8826    0.5887 H   0  0  0  0  0  0  0  0  0  0  0  0
    0.5930    2.7479   -0.0155 H   0  0  0  0  0  0  0  0  0  0  0  0
    0.3313    0.4645    0.6770 N   0  0  0  0  0  0  0  0  0  0  0  0
    0.7987   -0.6195    1.5091 C   0  0  2  0  0  0  0  0  0  0  0  0
    0.8958   -0.1061    2.9397 C   0  0  0  0  0  0  0  0  0  0  0  0
    1.2117    1.0489    3.2179 O   0  0  0  0  0  0  0  0  0  0  0  0
    2.1418   -1.1465    1.0285 C   0  0  0  0  0  0  0  0  0  0  0  0
    0.6382    1.4050    0.9073 H   0  0  0  0  0  0  0  0  0  0  0  0
    0.0416   -1.4092    1.4545 H   0  0  0  0  0  0  0  0  0  0  0  0
    2.9132   -0.3692    1.0759 H   0  0  0  0  0  0  0  0  0  0  0  0
    2.4812   -1.9869    1.6430 H   0  0  0  0  0  0  0  0  0  0  0  0
    2.0774   -1.4878   -0.0103 H   0  0  0  0  0  0  0  0  0  0  0  0
    0.6302   -1.1008    3.8703 N   0  0  0  0  0  0  0  0  0  0  0  0
    0.6998   -0.8742    5.2950 C   0  0  0  0  0  0  0  0  0  0  0  0
    0.3371   -2.0192    3.5502 H   0  0  0  0  0  0  0  0  0  0  0  0
    1.7050   -1.1326    5.6593 H   0  0  0  0  0  0  0  0  0  0  0  0
    0.4936    0.1850    5.5082 H   0  0  0  0  0  0  0  0  0  0  0  0
   -0.0468   -1.5025    5.8030 H   0  0  0  0  0  0  0  0  0  0  0  0
  1  3  1  0  0  0  0
  1  7  1  0  0  0  0
  1  2  2  0  0  0  0
 23 25  1  0  0  0  0
 23 29  1  0  0  0  0
 23 24  2  0  0  0  0
 50 51  1  0  0  0  0
 51 59  1  0  0  0  0
 51 52  2  0  0  0  0
  8  9  1  0  0  0  0
  9 17  1  0  0  0  0
  9 10  2  0  0  0  0
 30 31  1  0  0  0  0
 31 39  1  0  0  0  0
 31 32  2  0  0  0  0
 40 41  1  0  0  0  0
 41 49  1  0  0  0  0
 41 42  2  0  0  0  0
 50 53  1  0  0  0  0
 30 33  1  0  0  0  0
 59 60  1  0  0  0  0
 17 18  1  0  0  0  0
  8 11  1  0  0  0  0
 11 12  1  0  0  0  0
 40 43  1  0  0  0  0
 43 44  1  0  0  0  0
 49 50  1  0  0  0  0
  7  8  1  0  0  0  0
 29 30  1  0  0  0  0
 39 40  1  0  0  0  0
 12 44  1  0  0  0  0
  3  4  1  0  0  0  0
  3  5  1  0  0  0  0
  3  6  1  0  0  0  0
 25 26  1  0  0  0  0
 25 27  1  0  0  0  0
 25 28  1  0  0  0  0
 53 56  1  0  0  0  0
 53 57  1  0  0  0  0
 53 58  1  0  0  0  0
 33 36  1  0  0  0  0
 33 37  1  0  0  0  0
 33 38  1  0  0  0  0
 60 62  1  0  0  0  0
 60 63  1  0  0  0  0
 60 64  1  0  0  0  0
 18 20  1  0  0  0  0
 18 21  1  0  0  0  0
 18 22  1  0  0  0  0
 11 15  1  0  0  0  0
 11 16  1  0  0  0  0
 43 47  1  0  0  0  0
 43 48  1  0  0  0  0
 50 55  1  0  0  0  0
  8 14  1  0  0  0  0
 30 35  1  0  0  0  0
 40 46  1  0  0  0  0
 59 61  1  0  0  0  0
 17 19  1  0  0  0  0
  7 13  1  0  0  0  0
 29 34  1  0  0  0  0
 49 54  1  0  0  0  0
 39 45  1  0  0  0  0
M  END
$$$$

  -OEChem-05262214473D

 64 63  0     1  0  0  0  0  0999 V2000
   -1.9438    9.4131    1.2088 C   0  0  0  0  0  0  0  0  0  0  0  0
   -3.1654    9.3258    1.1683 O   0  0  0  0  0  0  0  0  0  0  0  0
   -1.2802   10.6703    0.7535 C   0  0  0  0  0  0  0  0  0  0  0  0
   -1.0340   10.6508   -0.3203 H   0  0  0  0  0  0  0  0  0  0  0  0
   -1.9205   11.5567    0.8894 H   0  0  0  0  0  0  0  0  0  0  0  0
   -0.3346   10.9153    1.2632 H   0  0  0  0  0  0  0  0  0  0  0  0
   -1.0670    8.4368    1.6495 N   0  0  0  0  0  0  0  0  0  0  0  0
   -1.4954    7.1489    2.1335 C   0  0  2  0  0  0  0  0  0  0  0  0
   -0.5579    6.7050    3.2545 C   0  0  0  0  0  0  0  0  0  0  0  0
    0.4548    7.3282    3.5666 O   0  0  0  0  0  0  0  0  0  0  0  0
   -1.6278    6.1186    1.0093 C   0  0  0  0  0  0  0  0  0  0  0  0
   -0.0560    5.7472    0.1644 S   0  0  0  0  0  0  0  0  0  0  0  0
   -0.0698    8.6387    1.6307 H   0  0  0  0  0  0  0  0  0  0  0  0
   -2.4854    7.3149    2.5762 H   0  0  0  0  0  0  0  0  0  0  0  0
   -2.0217    5.1739    1.3981 H   0  0  0  0  0  0  0  0  0  0  0  0
   -2.3297    6.4820    0.2509 H   0  0  0  0  0  0  0  0  0  0  0  0
   -0.9717    5.5202    3.8466 N   0  0  0  0  0  0  0  0  0  0  0  0
   -0.2364    4.8849    4.9150 C   0  0  0  0  0  0  0  0  0  0  0  0
   -1.8463    5.0942    3.5546 H   0  0  0  0  0  0  0  0  0  0  0  0
    0.4625    4.1481    4.4923 H   0  0  0  0  0  0  0  0  0  0  0  0
    0.3274    5.6457    5.4748 H   0  0  0  0  0  0  0  0  0  0  0  0
   -0.9390    4.3771    5.5921 H   0  0  0  0  0  0  0  0  0  0  0  0
   -6.7256    2.0330   -0.2766 C   0  0  0  0  0  0  0  0  0  0  0  0
   -7.1824    1.1039   -0.9322 O   0  0  0  0  0  0  0  0  0  0  0  0
   -7.5276    2.6077    0.8435 C   0  0  0  0  0  0  0  0  0  0  0  0
   -8.1775    3.4344    0.5145 H   0  0  0  0  0  0  0  0  0  0  0  0
   -8.2057    1.8676    1.2980 H   0  0  0  0  0  0  0  0  0  0  0  0
   -6.9411    3.0162    1.6819 H   0  0  0  0  0  0  0  0  0  0  0  0
   -5.4935    2.6382   -0.4627 N   0  0  0  0  0  0  0  0  0  0  0  0
   -4.5619    2.2388   -1.4845 C   0  0  2  0  0  0  0  0  0  0  0  0
   -3.1535    2.4674   -0.9521 C   0  0  0  0  0  0  0  0  0  0  0  0
   -2.8634    3.3945   -0.1987 O   0  0  0  0  0  0  0  0  0  0  0  0
   -4.7883    3.0138   -2.7732 C   0  0  0  0  0  0  0  0  0  0  0  0
   -5.2337    3.4049    0.1551 H   0  0  0  0  0  0  0  0  0  0  0  0
   -4.7192    1.1682   -1.6549 H   0  0  0  0  0  0  0  0  0  0  0  0
   -4.6352    4.0886   -2.6221 H   0  0  0  0  0  0  0  0  0  0  0  0
   -4.0976    2.6887   -3.5582 H   0  0  0  0  0  0  0  0  0  0  0  0
   -5.8111    2.8719   -3.1387 H   0  0  0  0  0  0  0  0  0  0  0  0
   -2.2466    1.5400   -1.4507 N   0  0  0  0  0  0  0  0  0  0  0  0
   -0.8424    1.5707   -1.1286 C   0  0  2  0  0  0  0  0  0  0  0  0
   -0.4639    0.2602   -0.4416 C   0  0  0  0  0  0  0  0  0  0  0  0
   -0.6136   -0.8401   -0.9693 O   0  0  0  0  0  0  0  0  0  0  0  0
   -0.4569    2.8126   -0.3211 C   0  0  0  0  0  0  0  0  0  0  0  0
   -0.6621    4.3644   -1.2280 S   0  0  0  0  0  0  0  0  0  0  0  0
   -2.5850    0.7815   -2.0381 H   0  0  0  0  0  0  0  0  0  0  0  0
   -0.3196    1.6023   -2.0925 H   0  0  0  0  0  0  0  0  0  0  0  0
   -1.0620    2.8826    0.5887 H   0  0  0  0  0  0  0  0  0  0  0  0
    0.5930    2.7479   -0.0155 H   0  0  0  0  0  0  0  0  0  0  0  0
    0.0364    0.4630    0.8367 N   0  0  0  0  0  0  0  0  0  0  0  0
    0.4413   -0.6245    1.6965 C   0  0  2  0  0  0  0  0  0  0  0  0
    0.1595   -0.2157    3.1362 C   0  0  0  0  0  0  0  0  0  0  0  0
    0.2618    0.9418    3.5371 O   0  0  0  0  0  0  0  0  0  0  0  0
    1.9115   -0.9631    1.5054 C   0  0  0  0  0  0  0  0  0  0  0  0
    0.1669    1.4107    1.1779 H   0  0  0  0  0  0  0  0  0  0  0  0
   -0.1821   -1.4856    1.4320 H   0  0  0  0  0  0  0  0  0  0  0  0
    2.5518   -0.1122    1.7654 H   0  0  0  0  0  0  0  0  0  0  0  0
    2.2098   -1.8064    2.1370 H   0  0  0  0  0  0  0  0  0  0  0  0
    2.1181   -1.2281    0.4628 H   0  0  0  0  0  0  0  0  0  0  0  0
   -0.1778   -1.3025    3.9308 N   0  0  0  0  0  0  0  0  0  0  0  0
   -0.4494   -1.1805    5.3441 C   0  0  0  0  0  0  0  0  0  0  0  0
   -0.2781   -2.2198    3.5064 H   0  0  0  0  0  0  0  0  0  0  0  0
    0.4761   -1.3549    5.9123 H   0  0  0  0  0  0  0  0  0  0  0  0
   -0.8265   -0.1697    5.5589 H   0  0  0  0  0  0  0  0  0  0  0  0
   -1.2053   -1.9238    5.6375 H   0  0  0  0  0  0  0  0  0  0  0  0
  1  3  1  0  0  0  0
  1  7  1  0  0  0  0
  1  2  2  0  0  0  0
 23 25  1  0  0  0  0
 23 29  1  0  0  0  0
 23 24  2  0  0  0  0
 50 51  1  0  0  0  0
 51 59  1  0  0  0  0
 51 52  2  0  0  0  0
  8  9  1  0  0  0  0
  9 17  1  0  0  0  0
  9 10  2  0  0  0  0
 30 31  1  0  0  0  0
 31 39  1  0  0  0  0
 31 32  2  0  0  0  0
 40 41  1  0  0  0  0
 41 49  1  0  0  0  0
 41 42  2  0  0  0  0
 50 53  1  0  0  0  0
 30 33  1  0  0  0  0
 59 60  1  0  0  0  0
 17 18  1  0  0  0  0
  8 11  1  0  0  0  0
 11 12  1  0  0  0  0
 40 43  1  0  0  0  0
 43 44  1  0  0  0  0
 49 50  1  0  0  0  0
  7  8  1  0  0  0  0
 29 30  1  0  0  0  0
 39 40  1  0  0  0  0
 12 44  1  0  0  0  0
  3  4  1  0  0  0  0
  3  5  1  0  0  0  0
  3  6  1  0  0  0  0
 25 26  1  0  0  0  0
 25 27  1  0  0  0  0
 25 28  1  0  0  0  0
 53 56  1  0  0  0  0
 53 57  1  0  0  0  0
 53 58  1  0  0  0  0
 33 36  1  0  0  0  0
 33 37  1  0  0  0  0
 33 38  1  0  0  0  0
 60 62  1  0  0  0  0
 60 63  1  0  0  0  0
 60 64  1  0  0  0  0
 18 20  1  0  0  0  0
 18 21  1  0  0  0  0
 18 22  1  0  0  0  0
 11 15  1  0  0  0  0
 11 16  1  0  0  0  0
 43 47  1  0  0  0  0
 43 48  1  0  0  0  0
 50 55  1  0  0  0  0
  8 14  1  0  0  0  0
 30 35  1  0  0  0  0
 40 46  1  0  0  0  0
 59 61  1  0  0  0  0
 17 19  1  0  0  0  0
  7 13  1  0  0  0  0
 29 34  1  0  0  0  0
 49 54  1  0  0  0  0
 39 45  1  0  0  0  0
M  END
$$$$

  -OEChem-05262214473D

 64 63  0     1  0  0  0  0  0999 V2000
   -1.9438    9.4131    1.2088 C   0  0  0  0  0  0  0  0  0  0  0  0
   -3.1654    9.3258    1.1683 O   0  0  0  0  0  0  0  0  0  0  0  0
   -1.2802   10.6703    0.7535 C   0  0  0  0  0  0  0  0  0  0  0  0
   -1.0340   10.6508   -0.3203 H   0  0  0  0  0  0  0  0  0  0  0  0
   -1.9205   11.5567    0.8894 H   0  0  0  0  0  0  0  0  0  0  0  0
   -0.3346   10.9153    1.2632 H   0  0  0  0  0  0  0  0  0  0  0  0
   -1.0670    8.4368    1.6495 N   0  0  0  0  0  0  0  0  0  0  0  0
   -1.4954    7.1489    2.1335 C   0  0  2  0  0  0  0  0  0  0  0  0
   -0.5579    6.7050    3.2545 C   0  0  0  0  0  0  0  0  0  0  0  0
    0.4548    7.3282    3.5666 O   0  0  0  0  0  0  0  0  0  0  0  0
   -1.6278    6.1186    1.0093 C   0  0  0  0  0  0  0  0  0  0  0  0
   -0.0560    5.7472    0.1644 S   0  0  0  0  0  0  0  0  0  0  0  0
   -0.0698    8.6387    1.6307 H   0  0  0  0  0  0  0  0  0  0  0  0
   -2.4854    7.3149    2.5762 H   0  0  0  0  0  0  0  0  0  0  0  0
   -2.0217    5.1739    1.3981 H   0  0  0  0  0  0  0  0  0  0  0  0
   -2.3297    6.4820    0.2509 H   0  0  0  0  0  0  0  0  0  0  0  0
   -0.9717    5.5202    3.8466 N   0  0  0  0  0  0  0  0  0  0  0  0
   -0.2364    4.8849    4.9150 C   0  0  0  0  0  0  0  0  0  0  0  0
   -1.8463    5.0942    3.5546 H   0  0  0  0  0  0  0  0  0  0  0  0
    0.4625    4.1481    4.4923 H   0  0  0  0  0  0  0  0  0  0  0  0
    0.3274    5.6457    5.4748 H   0  0  0  0  0  0  0  0  0  0  0  0
   -0.9390    4.3771    5.5921 H   0  0  0  0  0  0  0  0  0  0  0  0
   -6.7256    2.0330   -0.2766 C   0  0  0  0  0  0  0  0  0  0  0  0
   -7.1824    1.1039   -0.9322 O   0  0  0  0  0  0  0  0  0  0  0  0
   -7.5276    2.6077    0.8435 C   0  0  0  0  0  0  0  0  0  0  0  0
   -8.1775    3.4344    0.5145 H   0  0  0  0  0  0  0  0  0  0  0  0
   -8.2057    1.8676    1.2980 H   0  0  0  0  0  0  0  0  0  0  0  0
   -6.9411    3.0162    1.6819 H   0  0  0  0  0  0  0  0  0  0  0  0
   -5.4935    2.6382   -0.4627 N   0  0  0  0  0  0  0  0  0  0  0  0
   -4.5619    2.2388   -1.4845 C   0  0  2  0  0  0  0  0  0  0  0  0
   -3.1535    2.4674   -0.9521 C   0  0  0  0  0  0  0  0  0  0  0  0
   -2.8634    3.3945   -0.1987 O   0  0  0  0  0  0  0  0  0  0  0  0
   -4.7883    3.0138   -2.7732 C   0  0  0  0  0  0  0  0  0  0  0  0
   -5.2337    3.4049    0.1551 H   0  0  0  0  0  0  0  0  0  0  0  0
   -4.7192    1.1682   -1.6549 H   0  0  0  0  0  0  0  0  0  0  0  0
   -4.6352    4.0886   -2.6221 H   0  0  0  0  0  0  0  0  0  0  0  0
   -4.0976    2.6887   -3.5582 H   0  0  0  0  0  0  0  0  0  0  0  0
   -5.8111    2.8719   -3.1387 H   0  0  0  0  0  0  0  0  0  0  0  0
   -2.2466    1.5400   -1.4507 N   0  0  0  0  0  0  0  0  0  0  0  0
   -0.8424    1.5707   -1.1286 C   0  0  2  0  0  0  0  0  0  0  0  0
   -0.4639    0.2602   -0.4416 C   0  0  0  0  0  0  0  0  0  0  0  0
   -0.3576   -0.8057   -1.0449 O   0  0  0  0  0  0  0  0  0  0  0  0
   -0.4569    2.8126   -0.3211 C   0  0  0  0  0  0  0  0  0  0  0  0
   -0.6621    4.3644   -1.2280 S   0  0  0  0  0  0  0  0  0  0  0  0
   -2.5850    0.7815   -2.0381 H   0  0  0  0  0  0  0  0  0  0  0  0
   -0.3196    1.6023   -2.0925 H   0  0  0  0  0  0  0  0  0  0  0  0
   -1.0620    2.8826    0.5887 H   0  0  0  0  0  0  0  0  0  0  0  0
    0.5930    2.7479   -0.0155 H   0  0  0  0  0  0  0  0  0  0  0  0
   -0.2837    0.4170    0.9253 N   0  0  0  0  0  0  0  0  0  0  0  0
    0.0550   -0.6830    1.7977 C   0  0  2  0  0  0  0  0  0  0  0  0
   -0.5826   -0.4200    3.1555 C   0  0  0  0  0  0  0  0  0  0  0  0
   -0.7142    0.7073    3.6277 O   0  0  0  0  0  0  0  0  0  0  0  0
    1.5618   -0.8433    1.9266 C   0  0  0  0  0  0  0  0  0  0  0  0
   -0.3490    1.3441    1.3351 H   0  0  0  0  0  0  0  0  0  0  0  0
   -0.3842   -1.5840    1.3557 H   0  0  0  0  0  0  0  0  0  0  0  0
    2.0196    0.0497    2.3676 H   0  0  0  0  0  0  0  0  0  0  0  0
    1.8170   -1.6953    2.5655 H   0  0  0  0  0  0  0  0  0  0  0  0
    2.0221   -1.0028    0.9456 H   0  0  0  0  0  0  0  0  0  0  0  0
   -0.9481   -1.5952    3.7969 N   0  0  0  0  0  0  0  0  0  0  0  0
   -1.5347   -1.6132    5.1166 C   0  0  0  0  0  0  0  0  0  0  0  0
   -0.8392   -2.4824    3.3146 H   0  0  0  0  0  0  0  0  0  0  0  0
   -0.7412   -1.7289    5.8696 H   0  0  0  0  0  0  0  0  0  0  0  0
   -2.0716   -0.6692    5.2920 H   0  0  0  0  0  0  0  0  0  0  0  0
   -2.2385   -2.4550    5.1934 H   0  0  0  0  0  0  0  0  0  0  0  0
  1  3  1  0  0  0  0
  1  7  1  0  0  0  0
  1  2  2  0  0  0  0
 23 25  1  0  0  0  0
 23 29  1  0  0  0  0
 23 24  2  0  0  0  0
 50 51  1  0  0  0  0
 51 59  1  0  0  0  0
 51 52  2  0  0  0  0
  8  9  1  0  0  0  0
  9 17  1  0  0  0  0
  9 10  2  0  0  0  0
 30 31  1  0  0  0  0
 31 39  1  0  0  0  0
 31 32  2  0  0  0  0
 40 41  1  0  0  0  0
 41 49  1  0  0  0  0
 41 42  2  0  0  0  0
 50 53  1  0  0  0  0
 30 33  1  0  0  0  0
 59 60  1  0  0  0  0
 17 18  1  0  0  0  0
  8 11  1  0  0  0  0
 11 12  1  0  0  0  0
 40 43  1  0  0  0  0
 43 44  1  0  0  0  0
 49 50  1  0  0  0  0
  7  8  1  0  0  0  0
 29 30  1  0  0  0  0
 39 40  1  0  0  0  0
 12 44  1  0  0  0  0
  3  4  1  0  0  0  0
  3  5  1  0  0  0  0
  3  6  1  0  0  0  0
 25 26  1  0  0  0  0
 25 27  1  0  0  0  0
 25 28  1  0  0  0  0
 53 56  1  0  0  0  0
 53 57  1  0  0  0  0
 53 58  1  0  0  0  0
 33 36  1  0  0  0  0
 33 37  1  0  0  0  0
 33 38  1  0  0  0  0
 60 62  1  0  0  0  0
 60 63  1  0  0  0  0
 60 64  1  0  0  0  0
 18 20  1  0  0  0  0
 18 21  1  0  0  0  0
 18 22  1  0  0  0  0
 11 15  1  0  0  0  0
 11 16  1  0  0  0  0
 43 47  1  0  0  0  0
 43 48  1  0  0  0  0
 50 55  1  0  0  0  0
  8 14  1  0  0  0  0
 30 35  1  0  0  0  0
 40 46  1  0  0  0  0
 59 61  1  0  0  0  0
 17 19  1  0  0  0  0
  7 13  1  0  0  0  0
 29 34  1  0  0  0  0
 49 54  1  0  0  0  0
 39 45  1  0  0  0  0
M  END
$$$$

  -OEChem-05262214473D

 64 63  0     1  0  0  0  0  0999 V2000
   -1.9438    9.4131    1.2088 C   0  0  0  0  0  0  0  0  0  0  0  0
   -3.1654    9.3258    1.1683 O   0  0  0  0  0  0  0  0  0  0  0  0
   -1.2802   10.6703    0.7535 C   0  0  0  0  0  0  0  0  0  0  0  0
   -1.0340   10.6508   -0.3203 H   0  0  0  0  0  0  0  0  0  0  0  0
   -1.9205   11.5567    0.8894 H   0  0  0  0  0  0  0  0  0  0  0  0
   -0.3346   10.9153    1.2632 H   0  0  0  0  0  0  0  0  0  0  0  0
   -1.0670    8.4368    1.6495 N   0  0  0  0  0  0  0  0  0  0  0  0
   -1.4954    7.1489    2.1335 C   0  0  2  0  0  0  0  0  0  0  0  0
   -0.5579    6.7050    3.2545 C   0  0  0  0  0  0  0  0  0  0  0  0
    0.4548    7.3282    3.5666 O   0  0  0  0  0  0  0  0  0  0  0  0
   -1.6278    6.1186    1.0093 C   0  0  0  0  0  0  0  0  0  0  0  0
   -0.0560    5.7472    0.1644 S   0  0  0  0  0  0  0  0  0  0  0  0
   -0.0698    8.6387    1.6307 H   0  0  0  0  0  0  0  0  0  0  0  0
   -2.4854    7.3149    2.5762 H   0  0  0  0  0  0  0  0  0  0  0  0
   -2.0217    5.1739    1.3981 H   0  0  0  0  0  0  0  0  0  0  0  0
   -2.3297    6.4820    0.2509 H   0  0  0  0  0  0  0  0  0  0  0  0
   -0.9717    5.5202    3.8466 N   0  0  0  0  0  0  0  0  0  0  0  0
   -0.2364    4.8849    4.9150 C   0  0  0  0  0  0  0  0  0  0  0  0
   -1.8463    5.0942    3.5546 H   0  0  0  0  0  0  0  0  0  0  0  0
    0.4625    4.1481    4.4923 H   0  0  0  0  0  0  0  0  0  0  0  0
    0.3274    5.6457    5.4748 H   0  0  0  0  0  0  0  0  0  0  0  0
   -0.9390    4.3771    5.5921 H   0  0  0  0  0  0  0  0  0  0  0  0
   -6.7256    2.0330   -0.2766 C   0  0  0  0  0  0  0  0  0  0  0  0
   -7.1824    1.1039   -0.9322 O   0  0  0  0  0  0  0  0  0  0  0  0
   -7.5276    2.6077    0.8435 C   0  0  0  0  0  0  0  0  0  0  0  0
   -8.1775    3.4344    0.5145 H   0  0  0  0  0  0  0  0  0  0  0  0
   -8.2057    1.8676    1.2980 H   0  0  0  0  0  0  0  0  0  0  0  0
   -6.9411    3.0162    1.6819 H   0  0  0  0  0  0  0  0  0  0  0  0
   -5.4935    2.6382   -0.4627 N   0  0  0  0  0  0  0  0  0  0  0  0
   -4.5619    2.2388   -1.4845 C   0  0  2  0  0  0  0  0  0  0  0  0
   -3.1535    2.4674   -0.9521 C   0  0  0  0  0  0  0  0  0  0  0  0
   -2.8634    3.3945   -0.1987 O   0  0  0  0  0  0  0  0  0  0  0  0
   -4.7883    3.0138   -2.7732 C   0  0  0  0  0  0  0  0  0  0  0  0
   -5.2337    3.4049    0.1551 H   0  0  0  0  0  0  0  0  0  0  0  0
   -4.7192    1.1682   -1.6549 H   0  0  0  0  0  0  0  0  0  0  0  0
   -4.6352    4.0886   -2.6221 H   0  0  0  0  0  0  0  0  0  0  0  0
   -4.0976    2.6887   -3.5582 H   0  0  0  0  0  0  0  0  0  0  0  0
   -5.8111    2.8719   -3.1387 H   0  0  0  0  0  0  0  0  0  0  0  0
   -2.2466    1.5400   -1.4507 N   0  0  0  0  0  0  0  0  0  0  0  0
   -0.8424    1.5707   -1.1286 C   0  0  2  0  0  0  0  0  0  0  0  0
   -0.4639    0.2602   -0.4416 C   0  0  0  0  0  0  0  0  0  0  0  0
   -0.0975   -0.7379   -1.0589 O   0  0  0  0  0  0  0  0  0  0  0  0
   -0.4569    2.8126   -0.3211 C   0  0  0  0  0  0  0  0  0  0  0  0
   -0.6621    4.3644   -1.2280 S   0  0  0  0  0  0  0  0  0  0  0  0
   -2.5850    0.7815   -2.0381 H   0  0  0  0  0  0  0  0  0  0  0  0
   -0.3196    1.6023   -2.0925 H   0  0  0  0  0  0  0  0  0  0  0  0
   -1.0620    2.8826    0.5887 H   0  0  0  0  0  0  0  0  0  0  0  0
    0.5930    2.7479   -0.0155 H   0  0  0  0  0  0  0  0  0  0  0  0
   -0.6072    0.3296    0.9368 N   0  0  0  0  0  0  0  0  0  0  0  0
   -0.3338   -0.7910    1.8059 C   0  0  2  0  0  0  0  0  0  0  0  0
   -1.2799   -0.7049    2.9962 C   0  0  0  0  0  0  0  0  0  0  0  0
   -1.6498    0.3614    3.4833 O   0  0  0  0  0  0  0  0  0  0  0  0
    1.1165   -0.7953    2.2635 C   0  0  0  0  0  0  0  0  0  0  0  0
   -0.8746    1.2095    1.3680 H   0  0  0  0  0  0  0  0  0  0  0  0
   -0.5511   -1.6977    1.2308 H   0  0  0  0  0  0  0  0  0  0  0  0
    1.3530    0.1055    2.8415 H   0  0  0  0  0  0  0  0  0  0  0  0
    1.3294   -1.6612    2.8992 H   0  0  0  0  0  0  0  0  0  0  0  0
    1.7960   -0.8273    1.4050 H   0  0  0  0  0  0  0  0  0  0  0  0
   -1.6285   -1.9590    3.4777 N   0  0  0  0  0  0  0  0  0  0  0  0
   -2.4821   -2.1429    4.6281 C   0  0  0  0  0  0  0  0  0  0  0  0
   -1.3080   -2.7891    2.9878 H   0  0  0  0  0  0  0  0  0  0  0  0
   -1.8640   -2.2292    5.5339 H   0  0  0  0  0  0  0  0  0  0  0  0
   -3.1568   -1.2796    4.7256 H   0  0  0  0  0  0  0  0  0  0  0  0
   -3.0761   -3.0600    4.5009 H   0  0  0  0  0  0  0  0  0  0  0  0
  1  3  1  0  0  0  0
  1  7  1  0  0  0  0
  1  2  2  0  0  0  0
 23 25  1  0  0  0  0
 23 29  1  0  0  0  0
 23 24  2  0  0  0  0
 50 51  1  0  0  0  0
 51 59  1  0  0  0  0
 51 52  2  0  0  0  0
  8  9  1  0  0  0  0
  9 17  1  0  0  0  0
  9 10  2  0  0  0  0
 30 31  1  0  0  0  0
 31 39  1  0  0  0  0
 31 32  2  0  0  0  0
 40 41  1  0  0  0  0
 41 49  1  0  0  0  0
 41 42  2  0  0  0  0
 50 53  1  0  0  0  0
 30 33  1  0  0  0  0
 59 60  1  0  0  0  0
 17 18  1  0  0  0  0
  8 11  1  0  0  0  0
 11 12  1  0  0  0  0
 40 43  1  0  0  0  0
 43 44  1  0  0  0  0
 49 50  1  0  0  0  0
  7  8  1  0  0  0  0
 29 30  1  0  0  0  0
 39 40  1  0  0  0  0
 12 44  1  0  0  0  0
  3  4  1  0  0  0  0
  3  5  1  0  0  0  0
  3  6  1  0  0  0  0
 25 26  1  0  0  0  0
 25 27  1  0  0  0  0
 25 28  1  0  0  0  0
 53 56  1  0  0  0  0
 53 57  1  0  0  0  0
 53 58  1  0  0  0  0
 33 36  1  0  0  0  0
 33 37  1  0  0  0  0
 33 38  1  0  0  0  0
 60 62  1  0  0  0  0
 60 63  1  0  0  0  0
 60 64  1  0  0  0  0
 18 20  1  0  0  0  0
 18 21  1  0  0  0  0
 18 22  1  0  0  0  0
 11 15  1  0  0  0  0
 11 16  1  0  0  0  0
 43 47  1  0  0  0  0
 43 48  1  0  0  0  0
 50 55  1  0  0  0  0
  8 14  1  0  0  0  0
 30 35  1  0  0  0  0
 40 46  1  0  0  0  0
 59 61  1  0  0  0  0
 17 19  1  0  0  0  0
  7 13  1  0  0  0  0
 29 34  1  0  0  0  0
 49 54  1  0  0  0  0
 39 45  1  0  0  0  0
M  END
$$$$

  -OEChem-05262214473D

 64 63  0     1  0  0  0  0  0999 V2000
   -1.9438    9.4131    1.2088 C   0  0  0  0  0  0  0  0  0  0  0  0
   -3.1654    9.3258    1.1683 O   0  0  0  0  0  0  0  0  0  0  0  0
   -1.2802   10.6703    0.7535 C   0  0  0  0  0  0  0  0  0  0  0  0
   -1.0340   10.6508   -0.3203 H   0  0  0  0  0  0  0  0  0  0  0  0
   -1.9205   11.5567    0.8894 H   0  0  0  0  0  0  0  0  0  0  0  0
   -0.3346   10.9153    1.2632 H   0  0  0  0  0  0  0  0  0  0  0  0
   -1.0670    8.4368    1.6495 N   0  0  0  0  0  0  0  0  0  0  0  0
   -1.4954    7.1489    2.1335 C   0  0  2  0  0  0  0  0  0  0  0  0
   -0.5579    6.7050    3.2545 C   0  0  0  0  0  0  0  0  0  0  0  0
    0.4548    7.3282    3.5666 O   0  0  0  0  0  0  0  0  0  0  0  0
   -1.6278    6.1186    1.0093 C   0  0  0  0  0  0  0  0  0  0  0  0
   -0.0560    5.7472    0.1644 S   0  0  0  0  0  0  0  0  0  0  0  0
   -0.0698    8.6387    1.6307 H   0  0  0  0  0  0  0  0  0  0  0  0
   -2.4854    7.3149    2.5762 H   0  0  0  0  0  0  0  0  0  0  0  0
   -2.0217    5.1739    1.3981 H   0  0  0  0  0  0  0  0  0  0  0  0
   -2.3297    6.4820    0.2509 H   0  0  0  0  0  0  0  0  0  0  0  0
   -0.9717    5.5202    3.8466 N   0  0  0  0  0  0  0  0  0  0  0  0
   -0.2364    4.8849    4.9150 C   0  0  0  0  0  0  0  0  0  0  0  0
   -1.8463    5.0942    3.5546 H   0  0  0  0  0  0  0  0  0  0  0  0
    0.4625    4.1481    4.4923 H   0  0  0  0  0  0  0  0  0  0  0  0
    0.3274    5.6457    5.4748 H   0  0  0  0  0  0  0  0  0  0  0  0
   -0.9390    4.3771    5.5921 H   0  0  0  0  0  0  0  0  0  0  0  0
   -6.7256    2.0330   -0.2766 C   0  0  0  0  0  0  0  0  0  0  0  0
   -7.1824    1.1039   -0.9322 O   0  0  0  0  0  0  0  0  0  0  0  0
   -7.5276    2.6077    0.8435 C   0  0  0  0  0  0  0  0  0  0  0  0
   -8.1775    3.4344    0.5145 H   0  0  0  0  0  0  0  0  0  0  0  0
   -8.2057    1.8676    1.2980 H   0  0  0  0  0  0  0  0  0  0  0  0
   -6.9411    3.0162    1.6819 H   0  0  0  0  0  0  0  0  0  0  0  0
   -5.4935    2.6382   -0.4627 N   0  0  0  0  0  0  0  0  0  0  0  0
   -4.5619    2.2388   -1.4845 C   0  0  2  0  0  0  0  0  0  0  0  0
   -3.1535    2.4674   -0.9521 C   0  0  0  0  0  0  0  0  0  0  0  0
   -2.8634    3.3945   -0.1987 O   0  0  0  0  0  0  0  0  0  0  0  0
   -4.7883    3.0138   -2.7732 C   0  0  0  0  0  0  0  0  0  0  0  0
   -5.2337    3.4049    0.1551 H   0  0  0  0  0  0  0  0  0  0  0  0
   -4.7192    1.1682   -1.6549 H   0  0  0  0  0  0  0  0  0  0  0  0
   -4.6352    4.0886   -2.6221 H   0  0  0  0  0  0  0  0  0  0  0  0
   -4.0976    2.6887   -3.5582 H   0  0  0  0  0  0  0  0  0  0  0  0
   -5.8111    2.8719   -3.1387 H   0  0  0  0  0  0  0  0  0  0  0  0
   -2.2466    1.5400   -1.4507 N   0  0  0  0  0  0  0  0  0  0  0  0
   -0.8424    1.5707   -1.1286 C   0  0  2  0  0  0  0  0  0  0  0  0
   -0.4639    0.2602   -0.4416 C   0  0  0  0  0  0  0  0  0  0  0  0
    0.1489   -0.6413   -1.0103 O   0  0  0  0  0  0  0  0  0  0  0  0
   -0.4569    2.8126   -0.3211 C   0  0  0  0  0  0  0  0  0  0  0  0
   -0.6621    4.3644   -1.2280 S   0  0  0  0  0  0  0  0  0  0  0  0
   -2.5850    0.7815   -2.0381 H   0  0  0  0  0  0  0  0  0  0  0  0
   -0.3196    1.6023   -2.0925 H   0  0  0  0  0  0  0  0  0  0  0  0
   -1.0620    2.8826    0.5887 H   0  0  0  0  0  0  0  0  0  0  0  0
    0.5930    2.7479   -0.0155 H   0  0  0  0  0  0  0  0  0  0  0  0
   -0.9121    0.2068    0.8705 N   0  0  0  0  0  0  0  0  0  0  0  0
   -0.6986   -0.9411    1.7206 C   0  0  2  0  0  0  0  0  0  0  0  0
   -1.8849   -1.0510    2.6692 C   0  0  0  0  0  0  0  0  0  0  0  0
   -2.4812   -0.0723    3.1139 O   0  0  0  0  0  0  0  0  0  0  0  0
    0.6060   -0.8225    2.4932 C   0  0  0  0  0  0  0  0  0  0  0  0
   -1.3739    1.0163    1.2745 H   0  0  0  0  0  0  0  0  0  0  0  0
   -0.6713   -1.8189    1.0658 H   0  0  0  0  0  0  0  0  0  0  0  0
    0.5973    0.0514    3.1548 H   0  0  0  0  0  0  0  0  0  0  0  0
    0.7804   -1.7064    3.1155 H   0  0  0  0  0  0  0  0  0  0  0  0
    1.4551   -0.7136    1.8098 H   0  0  0  0  0  0  0  0  0  0  0  0
   -2.1724   -2.3692    2.9949 N   0  0  0  0  0  0  0  0  0  0  0  0
   -3.2271   -2.7335    3.9119 C   0  0  0  0  0  0  0  0  0  0  0  0
   -1.6525   -3.1189    2.5484 H   0  0  0  0  0  0  0  0  0  0  0  0
   -2.8158   -2.8216    4.9283 H   0  0  0  0  0  0  0  0  0  0  0  0
   -4.0082   -1.9591    3.8983 H   0  0  0  0  0  0  0  0  0  0  0  0
   -3.6609   -3.6973    3.6072 H   0  0  0  0  0  0  0  0  0  0  0  0
  1  3  1  0  0  0  0
  1  7  1  0  0  0  0
  1  2  2  0  0  0  0
 23 25  1  0  0  0  0
 23 29  1  0  0  0  0
 23 24  2  0  0  0  0
 50 51  1  0  0  0  0
 51 59  1  0  0  0  0
 51 52  2  0  0  0  0
  8  9  1  0  0  0  0
  9 17  1  0  0  0  0
  9 10  2  0  0  0  0
 30 31  1  0  0  0  0
 31 39  1  0  0  0  0
 31 32  2  0  0  0  0
 40 41  1  0  0  0  0
 41 49  1  0  0  0  0
 41 42  2  0  0  0  0
 50 53  1  0  0  0  0
 30 33  1  0  0  0  0
 59 60  1  0  0  0  0
 17 18  1  0  0  0  0
  8 11  1  0  0  0  0
 11 12  1  0  0  0  0
 40 43  1  0  0  0  0
 43 44  1  0  0  0  0
 49 50  1  0  0  0  0
  7  8  1  0  0  0  0
 29 30  1  0  0  0  0
 39 40  1  0  0  0  0
 12 44  1  0  0  0  0
  3  4  1  0  0  0  0
  3  5  1  0  0  0  0
  3  6  1  0  0  0  0
 25 26  1  0  0  0  0
 25 27  1  0  0  0  0
 25 28  1  0  0  0  0
 53 56  1  0  0  0  0
 53 57  1  0  0  0  0
 53 58  1  0  0  0  0
 33 36  1  0  0  0  0
 33 37  1  0  0  0  0
 33 38  1  0  0  0  0
 60 62  1  0  0  0  0
 60 63  1  0  0  0  0
 60 64  1  0  0  0  0
 18 20  1  0  0  0  0
 18 21  1  0  0  0  0
 18 22  1  0  0  0  0
 11 15  1  0  0  0  0
 11 16  1  0  0  0  0
 43 47  1  0  0  0  0
 43 48  1  0  0  0  0
 50 55  1  0  0  0  0
  8 14  1  0  0  0  0
 30 35  1  0  0  0  0
 40 46  1  0  0  0  0
 59 61  1  0  0  0  0
 17 19  1  0  0  0  0
  7 13  1  0  0  0  0
 29 34  1  0  0  0  0
 49 54  1  0  0  0  0
 39 45  1  0  0  0  0
M  END
$$$$

  -OEChem-05262214473D

 64 63  0     1  0  0  0  0  0999 V2000
   -1.9438    9.4131    1.2088 C   0  0  0  0  0  0  0  0  0  0  0  0
   -3.1654    9.3258    1.1683 O   0  0  0  0  0  0  0  0  0  0  0  0
   -1.2802   10.6703    0.7535 C   0  0  0  0  0  0  0  0  0  0  0  0
   -1.0340   10.6508   -0.3203 H   0  0  0  0  0  0  0  0  0  0  0  0
   -1.9205   11.5567    0.8894 H   0  0  0  0  0  0  0  0  0  0  0  0
   -0.3346   10.9153    1.2632 H   0  0  0  0  0  0  0  0  0  0  0  0
   -1.0670    8.4368    1.6495 N   0  0  0  0  0  0  0  0  0  0  0  0
   -1.4954    7.1489    2.1335 C   0  0  2  0  0  0  0  0  0  0  0  0
   -0.5579    6.7050    3.2545 C   0  0  0  0  0  0  0  0  0  0  0  0
    0.4548    7.3282    3.5666 O   0  0  0  0  0  0  0  0  0  0  0  0
   -1.6278    6.1186    1.0093 C   0  0  0  0  0  0  0  0  0  0  0  0
   -0.0560    5.7472    0.1644 S   0  0  0  0  0  0  0  0  0  0  0  0
   -0.0698    8.6387    1.6307 H   0  0  0  0  0  0  0  0  0  0  0  0
   -2.4854    7.3149    2.5762 H   0  0  0  0  0  0  0  0  0  0  0  0
   -2.0217    5.1739    1.3981 H   0  0  0  0  0  0  0  0  0  0  0  0
   -2.3297    6.4820    0.2509 H   0  0  0  0  0  0  0  0  0  0  0  0
   -0.9717    5.5202    3.8466 N   0  0  0  0  0  0  0  0  0  0  0  0
   -0.2364    4.8849    4.9150 C   0  0  0  0  0  0  0  0  0  0  0  0
   -1.8463    5.0942    3.5546 H   0  0  0  0  0  0  0  0  0  0  0  0
    0.4625    4.1481    4.4923 H   0  0  0  0  0  0  0  0  0  0  0  0
    0.3274    5.6457    5.4748 H   0  0  0  0  0  0  0  0  0  0  0  0
   -0.9390    4.3771    5.5921 H   0  0  0  0  0  0  0  0  0  0  0  0
   -6.7256    2.0330   -0.2766 C   0  0  0  0  0  0  0  0  0  0  0  0
   -7.1824    1.1039   -0.9322 O   0  0  0  0  0  0  0  0  0  0  0  0
   -7.5276    2.6077    0.8435 C   0  0  0  0  0  0  0  0  0  0  0  0
   -8.1775    3.4344    0.5145 H   0  0  0  0  0  0  0  0  0  0  0  0
   -8.2057    1.8676    1.2980 H   0  0  0  0  0  0  0  0  0  0  0  0
   -6.9411    3.0162    1.6819 H   0  0  0  0  0  0  0  0  0  0  0  0
   -5.4935    2.6382   -0.4627 N   0  0  0  0  0  0  0  0  0  0  0  0
   -4.5619    2.2388   -1.4845 C   0  0  2  0  0  0  0  0  0  0  0  0
   -3.1535    2.4674   -0.9521 C   0  0  0  0  0  0  0  0  0  0  0  0
   -2.8634    3.3945   -0.1987 O   0  0  0  0  0  0  0  0  0  0  0  0
   -4.7883    3.0138   -2.7732 C   0  0  0  0  0  0  0  0  0  0  0  0
   -5.2337    3.4049    0.1551 H   0  0  0  0  0  0  0  0  0  0  0  0
   -4.7192    1.1682   -1.6549 H   0  0  0  0  0  0  0  0  0  0  0  0
   -4.6352    4.0886   -2.6221 H   0  0  0  0  0  0  0  0  0  0  0  0
   -4.0976    2.6887   -3.5582 H   0  0  0  0  0  0  0  0  0  0  0  0
   -5.8111    2.8719   -3.1387 H   0  0  0  0  0  0  0  0  0  0  0  0
   -2.2466    1.5400   -1.4507 N   0  0  0  0  0  0  0  0  0  0  0  0
   -0.8424    1.5707   -1.1286 C   0  0  2  0  0  0  0  0  0  0  0  0
   -0.4639    0.2602   -0.4416 C   0  0  0  0  0  0  0  0  0  0  0  0
    0.3649   -0.5223   -0.9024 O   0  0  0  0  0  0  0  0  0  0  0  0
   -0.4569    2.8126   -0.3211 C   0  0  0  0  0  0  0  0  0  0  0  0
   -0.6621    4.3644   -1.2280 S   0  0  0  0  0  0  0  0  0  0  0  0
   -2.5850    0.7815   -2.0381 H   0  0  0  0  0  0  0  0  0  0  0  0
   -0.3196    1.6023   -2.0925 H   0  0  0  0  0  0  0  0  0  0  0  0
   -1.0620    2.8826    0.5887 H   0  0  0  0  0  0  0  0  0  0  0  0
    0.5930    2.7479   -0.0155 H   0  0  0  0  0  0  0  0  0  0  0  0
   -1.1776    0.0569    0.7309 N   0  0  0  0  0  0  0  0  0  0  0  0
   -1.0145   -1.1231    1.5476 C   0  0  2  0  0  0  0  0  0  0  0  0
   -2.3564   -1.4348    2.1968 C   0  0  0  0  0  0  0  0  0  0  0  0
   -3.1517   -0.5644    2.5446 O   0  0  0  0  0  0  0  0  0  0  0  0
    0.0650   -0.9228    2.5998 C   0  0  0  0  0  0  0  0  0  0  0  0
   -1.8128    0.7775    1.0608 H   0  0  0  0  0  0  0  0  0  0  0  0
   -0.7366   -1.9394    0.8719 H   0  0  0  0  0  0  0  0  0  0  0  0
   -0.1959   -0.1088    3.2861 H   0  0  0  0  0  0  0  0  0  0  0  0
    0.2073   -1.8279    3.1995 H   0  0  0  0  0  0  0  0  0  0  0  0
    1.0226   -0.6694    2.1324 H   0  0  0  0  0  0  0  0  0  0  0  0
   -2.5428   -2.7977    2.3815 N   0  0  0  0  0  0  0  0  0  0  0  0
   -3.7189   -3.3447    3.0167 C   0  0  0  0  0  0  0  0  0  0  0  0
   -1.8494   -3.4495    2.0263 H   0  0  0  0  0  0  0  0  0  0  0  0
   -3.5318   -3.4657    4.0939 H   0  0  0  0  0  0  0  0  0  0  0  0
   -4.5678   -2.6616    2.8666 H   0  0  0  0  0  0  0  0  0  0  0  0
   -3.9531   -4.3237    2.5732 H   0  0  0  0  0  0  0  0  0  0  0  0
  1  3  1  0  0  0  0
  1  7  1  0  0  0  0
  1  2  2  0  0  0  0
 23 25  1  0  0  0  0
 23 29  1  0  0  0  0
 23 24  2  0  0  0  0
 50 51  1  0  0  0  0
 51 59  1  0  0  0  0
 51 52  2  0  0  0  0
  8  9  1  0  0  0  0
  9 17  1  0  0  0  0
  9 10  2  0  0  0  0
 30 31  1  0  0  0  0
 31 39  1  0  0  0  0
 31 32  2  0  0  0  0
 40 41  1  0  0  0  0
 41 49  1  0  0  0  0
 41 42  2  0  0  0  0
 50 53  1  0  0  0  0
 30 33  1  0  0  0  0
 59 60  1  0  0  0  0
 17 18  1  0  0  0  0
  8 11  1  0  0  0  0
 11 12  1  0  0  0  0
 40 43  1  0  0  0  0
 43 44  1  0  0  0  0
 49 50  1  0  0  0  0
  7  8  1  0  0  0  0
 29 30  1  0  0  0  0
 39 40  1  0  0  0  0
 12 44  1  0  0  0  0
  3  4  1  0  0  0  0
  3  5  1  0  0  0  0
  3  6  1  0  0  0  0
 25 26  1  0  0  0  0
 25 27  1  0  0  0  0
 25 28  1  0  0  0  0
 53 56  1  0  0  0  0
 53 57  1  0  0  0  0
 53 58  1  0  0  0  0
 33 36  1  0  0  0  0
 33 37  1  0  0  0  0
 33 38  1  0  0  0  0
 60 62  1  0  0  0  0
 60 63  1  0  0  0  0
 60 64  1  0  0  0  0
 18 20  1  0  0  0  0
 18 21  1  0  0  0  0
 18 22  1  0  0  0  0
 11 15  1  0  0  0  0
 11 16  1  0  0  0  0
 43 47  1  0  0  0  0
 43 48  1  0  0  0  0
 50 55  1  0  0  0  0
  8 14  1  0  0  0  0
 30 35  1  0  0  0  0
 40 46  1  0  0  0  0
 59 61  1  0  0  0  0
 17 19  1  0  0  0  0
  7 13  1  0  0  0  0
 29 34  1  0  0  0  0
 49 54  1  0  0  0  0
 39 45  1  0  0  0  0
M  END
$$$$

  -OEChem-05262214473D

 64 63  0     1  0  0  0  0  0999 V2000
   -1.9438    9.4131    1.2088 C   0  0  0  0  0  0  0  0  0  0  0  0
   -3.1654    9.3258    1.1683 O   0  0  0  0  0  0  0  0  0  0  0  0
   -1.2802   10.6703    0.7535 C   0  0  0  0  0  0  0  0  0  0  0  0
   -1.0340   10.6508   -0.3203 H   0  0  0  0  0  0  0  0  0  0  0  0
   -1.9205   11.5567    0.8894 H   0  0  0  0  0  0  0  0  0  0  0  0
   -0.3346   10.9153    1.2632 H   0  0  0  0  0  0  0  0  0  0  0  0
   -1.0670    8.4368    1.6495 N   0  0  0  0  0  0  0  0  0  0  0  0
   -1.4954    7.1489    2.1335 C   0  0  2  0  0  0  0  0  0  0  0  0
   -0.5579    6.7050    3.2545 C   0  0  0  0  0  0  0  0  0  0  0  0
    0.4548    7.3282    3.5666 O   0  0  0  0  0  0  0  0  0  0  0  0
   -1.6278    6.1186    1.0093 C   0  0  0  0  0  0  0  0  0  0  0  0
   -0.0560    5.7472    0.1644 S   0  0  0  0  0  0  0  0  0  0  0  0
   -0.0698    8.6387    1.6307 H   0  0  0  0  0  0  0  0  0  0  0  0
   -2.4854    7.3149    2.5762 H   0  0  0  0  0  0  0  0  0  0  0  0
   -2.0217    5.1739    1.3981 H   0  0  0  0  0  0  0  0  0  0  0  0
   -2.3297    6.4820    0.2509 H   0  0  0  0  0  0  0  0  0  0  0  0
   -0.9717    5.5202    3.8466 N   0  0  0  0  0  0  0  0  0  0  0  0
   -0.2364    4.8849    4.9150 C   0  0  0  0  0  0  0  0  0  0  0  0
   -1.8463    5.0942    3.5546 H   0  0  0  0  0  0  0  0  0  0  0  0
    0.4625    4.1481    4.4923 H   0  0  0  0  0  0  0  0  0  0  0  0
    0.3274    5.6457    5.4748 H   0  0  0  0  0  0  0  0  0  0  0  0
   -0.9390    4.3771    5.5921 H   0  0  0  0  0  0  0  0  0  0  0  0
   -6.7256    2.0330   -0.2766 C   0  0  0  0  0  0  0  0  0  0  0  0
   -7.1824    1.1039   -0.9322 O   0  0  0  0  0  0  0  0  0  0  0  0
   -7.5276    2.6077    0.8435 C   0  0  0  0  0  0  0  0  0  0  0  0
   -8.1775    3.4344    0.5145 H   0  0  0  0  0  0  0  0  0  0  0  0
   -8.2057    1.8676    1.2980 H   0  0  0  0  0  0  0  0  0  0  0  0
   -6.9411    3.0162    1.6819 H   0  0  0  0  0  0  0  0  0  0  0  0
   -5.4935    2.6382   -0.4627 N   0  0  0  0  0  0  0  0  0  0  0  0
   -4.5619    2.2388   -1.4845 C   0  0  2  0  0  0  0  0  0  0  0  0
   -3.1535    2.4674   -0.9521 C   0  0  0  0  0  0  0  0  0  0  0  0
   -2.8634    3.3945   -0.1987 O   0  0  0  0  0  0  0  0  0  0  0  0
   -4.7883    3.0138   -2.7732 C   0  0  0  0  0  0  0  0  0  0  0  0
   -5.2337    3.4049    0.1551 H   0  0  0  0  0  0  0  0  0  0  0  0
   -4.7192    1.1682   -1.6549 H   0  0  0  0  0  0  0  0  0  0  0  0
   -4.6352    4.0886   -2.6221 H   0  0  0  0  0  0  0  0  0  0  0  0
   -4.0976    2.6887   -3.5582 H   0  0  0  0  0  0  0  0  0  0  0  0
   -5.8111    2.8719   -3.1387 H   0  0  0  0  0  0  0  0  0  0  0  0
   -2.2466    1.5400   -1.4507 N   0  0  0  0  0  0  0  0  0  0  0  0
   -0.8424    1.5707   -1.1286 C   0  0  2  0  0  0  0  0  0  0  0  0
   -0.4639    0.2602   -0.4416 C   0  0  0  0  0  0  0  0  0  0  0  0
    0.5357   -0.3892   -0.7425 O   0  0  0  0  0  0  0  0  0  0  0  0
   -0.4569    2.8126   -0.3211 C   0  0  0  0  0  0  0  0  0  0  0  0
   -0.6621    4.3644   -1.2280 S   0  0  0  0  0  0  0  0  0  0  0  0
   -2.5850    0.7815   -2.0381 H   0  0  0  0  0  0  0  0  0  0  0  0
   -0.3196    1.6023   -2.0925 H   0  0  0  0  0  0  0  0  0  0  0  0
   -1.0620    2.8826    0.5887 H   0  0  0  0  0  0  0  0  0  0  0  0
    0.5930    2.7479   -0.0155 H   0  0  0  0  0  0  0  0  0  0  0  0
   -1.3856   -0.1098    0.5274 N   0  0  0  0  0  0  0  0  0  0  0  0
   -1.2601   -1.3245    1.2986 C   0  0  2  0  0  0  0  0  0  0  0  0
   -2.6623   -1.8301    1.6112 C   0  0  0  0  0  0  0  0  0  0  0  0
   -3.6156   -1.0812    1.8143 O   0  0  0  0  0  0  0  0  0  0  0  0
   -0.4696   -1.0895    2.5763 C   0  0  0  0  0  0  0  0  0  0  0  0
   -2.1616    0.5095    0.7417 H   0  0  0  0  0  0  0  0  0  0  0  0
   -0.7426   -2.0509    0.6625 H   0  0  0  0  0  0  0  0  0  0  0  0
   -0.9725   -0.3644    3.2265 H   0  0  0  0  0  0  0  0  0  0  0  0
   -0.3508   -2.0173    3.1457 H   0  0  0  0  0  0  0  0  0  0  0  0
    0.5282   -0.6977    2.3508 H   0  0  0  0  0  0  0  0  0  0  0  0
   -2.7144   -3.2153    1.6792 N   0  0  0  0  0  0  0  0  0  0  0  0
   -3.9239   -3.9350    2.0036 C   0  0  0  0  0  0  0  0  0  0  0  0
   -1.8851   -3.7581    1.4571 H   0  0  0  0  0  0  0  0  0  0  0  0
   -3.9630   -4.1177    3.0876 H   0  0  0  0  0  0  0  0  0  0  0  0
   -4.7974   -3.3390    1.7006 H   0  0  0  0  0  0  0  0  0  0  0  0
   -3.9328   -4.8965    1.4693 H   0  0  0  0  0  0  0  0  0  0  0  0
  1  3  1  0  0  0  0
  1  7  1  0  0  0  0
  1  2  2  0  0  0  0
 23 25  1  0  0  0  0
 23 29  1  0  0  0  0
 23 24  2  0  0  0  0
 50 51  1  0  0  0  0
 51 59  1  0  0  0  0
 51 52  2  0  0  0  0
  8  9  1  0  0  0  0
  9 17  1  0  0  0  0
  9 10  2  0  0  0  0
 30 31  1  0  0  0  0
 31 39  1  0  0  0  0
 31 32  2  0  0  0  0
 40 41  1  0  0  0  0
 41 49  1  0  0  0  0
 41 42  2  0  0  0  0
 50 53  1  0  0  0  0
 30 33  1  0  0  0  0
 59 60  1  0  0  0  0
 17 18  1  0  0  0  0
  8 11  1  0  0  0  0
 11 12  1  0  0  0  0
 40 43  1  0  0  0  0
 43 44  1  0  0  0  0
 49 50  1  0  0  0  0
  7  8  1  0  0  0  0
 29 30  1  0  0  0  0
 39 40  1  0  0  0  0
 12 44  1  0  0  0  0
  3  4  1  0  0  0  0
  3  5  1  0  0  0  0
  3  6  1  0  0  0  0
 25 26  1  0  0  0  0
 25 27  1  0  0  0  0
 25 28  1  0  0  0  0
 53 56  1  0  0  0  0
 53 57  1  0  0  0  0
 53 58  1  0  0  0  0
 33 36  1  0  0  0  0
 33 37  1  0  0  0  0
 33 38  1  0  0  0  0
 60 62  1  0  0  0  0
 60 63  1  0  0  0  0
 60 64  1  0  0  0  0
 18 20  1  0  0  0  0
 18 21  1  0  0  0  0
 18 22  1  0  0  0  0
 11 15  1  0  0  0  0
 11 16  1  0  0  0  0
 43 47  1  0  0  0  0
 43 48  1  0  0  0  0
 50 55  1  0  0  0  0
  8 14  1  0  0  0  0
 30 35  1  0  0  0  0
 40 46  1  0  0  0  0
 59 61  1  0  0  0  0
 17 19  1  0  0  0  0
  7 13  1  0  0  0  0
 29 34  1  0  0  0  0
 49 54  1  0  0  0  0
 39 45  1  0  0  0  0
M  END
$$$$

  -OEChem-05262214473D

 64 63  0     1  0  0  0  0  0999 V2000
   -1.9438    9.4131    1.2088 C   0  0  0  0  0  0  0  0  0  0  0  0
   -3.1654    9.3258    1.1683 O   0  0  0  0  0  0  0  0  0  0  0  0
   -1.2802   10.6703    0.7535 C   0  0  0  0  0  0  0  0  0  0  0  0
   -1.0340   10.6508   -0.3203 H   0  0  0  0  0  0  0  0  0  0  0  0
   -1.9205   11.5567    0.8894 H   0  0  0  0  0  0  0  0  0  0  0  0
   -0.3346   10.9153    1.2632 H   0  0  0  0  0  0  0  0  0  0  0  0
   -1.0670    8.4368    1.6495 N   0  0  0  0  0  0  0  0  0  0  0  0
   -1.4954    7.1489    2.1335 C   0  0  2  0  0  0  0  0  0  0  0  0
   -0.5579    6.7050    3.2545 C   0  0  0  0  0  0  0  0  0  0  0  0
    0.4548    7.3282    3.5666 O   0  0  0  0  0  0  0  0  0  0  0  0
   -1.6278    6.1186    1.0093 C   0  0  0  0  0  0  0  0  0  0  0  0
   -0.0560    5.7472    0.1644 S   0  0  0  0  0  0  0  0  0  0  0  0
   -0.0698    8.6387    1.6307 H   0  0  0  0  0  0  0  0  0  0  0  0
   -2.4854    7.3149    2.5762 H   0  0  0  0  0  0  0  0  0  0  0  0
   -2.0217    5.1739    1.3981 H   0  0  0  0  0  0  0  0  0  0  0  0
   -2.3297    6.4820    0.2509 H   0  0  0  0  0  0  0  0  0  0  0  0
   -0.9717    5.5202    3.8466 N   0  0  0  0  0  0  0  0  0  0  0  0
   -0.2364    4.8849    4.9150 C   0  0  0  0  0  0  0  0  0  0  0  0
   -1.8463    5.0942    3.5546 H   0  0  0  0  0  0  0  0  0  0  0  0
    0.4625    4.1481    4.4923 H   0  0  0  0  0  0  0  0  0  0  0  0
    0.3274    5.6457    5.4748 H   0  0  0  0  0  0  0  0  0  0  0  0
   -0.9390    4.3771    5.5921 H   0  0  0  0  0  0  0  0  0  0  0  0
   -6.7256    2.0330   -0.2766 C   0  0  0  0  0  0  0  0  0  0  0  0
   -7.1824    1.1039   -0.9322 O   0  0  0  0  0  0  0  0  0  0  0  0
   -7.5276    2.6077    0.8435 C   0  0  0  0  0  0  0  0  0  0  0  0
   -8.1775    3.4344    0.5145 H   0  0  0  0  0  0  0  0  0  0  0  0
   -8.2057    1.8676    1.2980 H   0  0  0  0  0  0  0  0  0  0  0  0
   -6.9411    3.0162    1.6819 H   0  0  0  0  0  0  0  0  0  0  0  0
   -5.4935    2.6382   -0.4627 N   0  0  0  0  0  0  0  0  0  0  0  0
   -4.5619    2.2388   -1.4845 C   0  0  2  0  0  0  0  0  0  0  0  0
   -3.1535    2.4674   -0.9521 C   0  0  0  0  0  0  0  0  0  0  0  0
   -2.8634    3.3945   -0.1987 O   0  0  0  0  0  0  0  0  0  0  0  0
   -4.7883    3.0138   -2.7732 C   0  0  0  0  0  0  0  0  0  0  0  0
   -5.2337    3.4049    0.1551 H   0  0  0  0  0  0  0  0  0  0  0  0
   -4.7192    1.1682   -1.6549 H   0  0  0  0  0  0  0  0  0  0  0  0
   -4.6352    4.0886   -2.6221 H   0  0  0  0  0  0  0  0  0  0  0  0
   -4.0976    2.6887   -3.5582 H   0  0  0  0  0  0  0  0  0  0  0  0
   -5.8111    2.8719   -3.1387 H   0  0  0  0  0  0  0  0  0  0  0  0
   -2.2466    1.5400   -1.4507 N   0  0  0  0  0  0  0  0  0  0  0  0
   -0.8424    1.5707   -1.1286 C   0  0  2  0  0  0  0  0  0  0  0  0
   -0.4639    0.2602   -0.4416 C   0  0  0  0  0  0  0  0  0  0  0  0
    0.6497   -0.2510   -0.5417 O   0  0  0  0  0  0  0  0  0  0  0  0
   -0.4569    2.8126   -0.3211 C   0  0  0  0  0  0  0  0  0  0  0  0
   -0.6621    4.3644   -1.2280 S   0  0  0  0  0  0  0  0  0  0  0  0
   -2.5850    0.7815   -2.0381 H   0  0  0  0  0  0  0  0  0  0  0  0
   -0.3196    1.6023   -2.0925 H   0  0  0  0  0  0  0  0  0  0  0  0
   -1.0620    2.8826    0.5887 H   0  0  0  0  0  0  0  0  0  0  0  0
    0.5930    2.7479   -0.0155 H   0  0  0  0  0  0  0  0  0  0  0  0
   -1.5219   -0.2820    0.2740 N   0  0  0  0  0  0  0  0  0  0  0  0
   -1.4185   -1.5317    0.9906 C   0  0  2  0  0  0  0  0  0  0  0  0
   -2.7816   -2.2100    0.9522 C   0  0  0  0  0  0  0  0  0  0  0  0
   -3.8414   -1.5876    0.9726 O   0  0  0  0  0  0  0  0  0  0  0  0
   -0.9613   -1.3113    2.4241 C   0  0  0  0  0  0  0  0  0  0  0  0
   -2.3965    0.2304    0.3387 H   0  0  0  0  0  0  0  0  0  0  0  0
   -0.6890   -2.1459    0.4516 H   0  0  0  0  0  0  0  0  0  0  0  0
   -1.6797   -0.6979    2.9800 H   0  0  0  0  0  0  0  0  0  0  0  0
   -0.8559   -2.2618    2.9576 H   0  0  0  0  0  0  0  0  0  0  0  0
    0.0053   -0.7967    2.4502 H   0  0  0  0  0  0  0  0  0  0  0  0
   -2.6757   -3.5937    0.9360 N   0  0  0  0  0  0  0  0  0  0  0  0
   -3.8283   -4.4640    0.9416 C   0  0  0  0  0  0  0  0  0  0  0  0
   -1.7572   -4.0239    0.8795 H   0  0  0  0  0  0  0  0  0  0  0  0
   -4.0801   -4.7331    1.9780 H   0  0  0  0  0  0  0  0  0  0  0  0
   -4.6814   -3.9453    0.4800 H   0  0  0  0  0  0  0  0  0  0  0  0
   -3.6014   -5.3765    0.3708 H   0  0  0  0  0  0  0  0  0  0  0  0
  1  3  1  0  0  0  0
  1  7  1  0  0  0  0
  1  2  2  0  0  0  0
 23 25  1  0  0  0  0
 23 29  1  0  0  0  0
 23 24  2  0  0  0  0
 50 51  1  0  0  0  0
 51 59  1  0  0  0  0
 51 52  2  0  0  0  0
  8  9  1  0  0  0  0
  9 17  1  0  0  0  0
  9 10  2  0  0  0  0
 30 31  1  0  0  0  0
 31 39  1  0  0  0  0
 31 32  2  0  0  0  0
 40 41  1  0  0  0  0
 41 49  1  0  0  0  0
 41 42  2  0  0  0  0
 50 53  1  0  0  0  0
 30 33  1  0  0  0  0
 59 60  1  0  0  0  0
 17 18  1  0  0  0  0
  8 11  1  0  0  0  0
 11 12  1  0  0  0  0
 40 43  1  0  0  0  0
 43 44  1  0  0  0  0
 49 50  1  0  0  0  0
  7  8  1  0  0  0  0
 29 30  1  0  0  0  0
 39 40  1  0  0  0  0
 12 44  1  0  0  0  0
  3  4  1  0  0  0  0
  3  5  1  0  0  0  0
  3  6  1  0  0  0  0
 25 26  1  0  0  0  0
 25 27  1  0  0  0  0
 25 28  1  0  0  0  0
 53 56  1  0  0  0  0
 53 57  1  0  0  0  0
 53 58  1  0  0  0  0
 33 36  1  0  0  0  0
 33 37  1  0  0  0  0
 33 38  1  0  0  0  0
 60 62  1  0  0  0  0
 60 63  1  0  0  0  0
 60 64  1  0  0  0  0
 18 20  1  0  0  0  0
 18 21  1  0  0  0  0
 18 22  1  0  0  0  0
 11 15  1  0  0  0  0
 11 16  1  0  0  0  0
 43 47  1  0  0  0  0
 43 48  1  0  0  0  0
 50 55  1  0  0  0  0
  8 14  1  0  0  0  0
 30 35  1  0  0  0  0
 40 46  1  0  0  0  0
 59 61  1  0  0  0  0
 17 19  1  0  0  0  0
  7 13  1  0  0  0  0
 29 34  1  0  0  0  0
 49 54  1  0  0  0  0
 39 45  1  0  0  0  0
M  END
$$$$

  -OEChem-05262214473D

 64 63  0     1  0  0  0  0  0999 V2000
   -1.9438    9.4131    1.2088 C   0  0  0  0  0  0  0  0  0  0  0  0
   -3.1654    9.3258    1.1683 O   0  0  0  0  0  0  0  0  0  0  0  0
   -1.2802   10.6703    0.7535 C   0  0  0  0  0  0  0  0  0  0  0  0
   -1.0340   10.6508   -0.3203 H   0  0  0  0  0  0  0  0  0  0  0  0
   -1.9205   11.5567    0.8894 H   0  0  0  0  0  0  0  0  0  0  0  0
   -0.3346   10.9153    1.2632 H   0  0  0  0  0  0  0  0  0  0  0  0
   -1.0670    8.4368    1.6495 N   0  0  0  0  0  0  0  0  0  0  0  0
   -1.4954    7.1489    2.1335 C   0  0  2  0  0  0  0  0  0  0  0  0
   -0.5579    6.7050    3.2545 C   0  0  0  0  0  0  0  0  0  0  0  0
    0.4548    7.3282    3.5666 O   0  0  0  0  0  0  0  0  0  0  0  0
   -1.6278    6.1186    1.0093 C   0  0  0  0  0  0  0  0  0  0  0  0
   -0.0560    5.7472    0.1644 S   0  0  0  0  0  0  0  0  0  0  0  0
   -0.0698    8.6387    1.6307 H   0  0  0  0  0  0  0  0  0  0  0  0
   -2.4854    7.3149    2.5762 H   0  0  0  0  0  0  0  0  0  0  0  0
   -2.0217    5.1739    1.3981 H   0  0  0  0  0  0  0  0  0  0  0  0
   -2.3297    6.4820    0.2509 H   0  0  0  0  0  0  0  0  0  0  0  0
   -0.9717    5.5202    3.8466 N   0  0  0  0  0  0  0  0  0  0  0  0
   -0.2364    4.8849    4.9150 C   0  0  0  0  0  0  0  0  0  0  0  0
   -1.8463    5.0942    3.5546 H   0  0  0  0  0  0  0  0  0  0  0  0
    0.4625    4.1481    4.4923 H   0  0  0  0  0  0  0  0  0  0  0  0
    0.3274    5.6457    5.4748 H   0  0  0  0  0  0  0  0  0  0  0  0
   -0.9390    4.3771    5.5921 H   0  0  0  0  0  0  0  0  0  0  0  0
   -6.7256    2.0330   -0.2766 C   0  0  0  0  0  0  0  0  0  0  0  0
   -7.1824    1.1039   -0.9322 O   0  0  0  0  0  0  0  0  0  0  0  0
   -7.5276    2.6077    0.8435 C   0  0  0  0  0  0  0  0  0  0  0  0
   -8.1775    3.4344    0.5145 H   0  0  0  0  0  0  0  0  0  0  0  0
   -8.2057    1.8676    1.2980 H   0  0  0  0  0  0  0  0  0  0  0  0
   -6.9411    3.0162    1.6819 H   0  0  0  0  0  0  0  0  0  0  0  0
   -5.4935    2.6382   -0.4627 N   0  0  0  0  0  0  0  0  0  0  0  0
   -4.5619    2.2388   -1.4845 C   0  0  2  0  0  0  0  0  0  0  0  0
   -3.1535    2.4674   -0.9521 C   0  0  0  0  0  0  0  0  0  0  0  0
   -2.8634    3.3945   -0.1987 O   0  0  0  0  0  0  0  0  0  0  0  0
   -4.7883    3.0138   -2.7732 C   0  0  0  0  0  0  0  0  0  0  0  0
   -5.2337    3.4049    0.1551 H   0  0  0  0  0  0  0  0  0  0  0  0
   -4.7192    1.1682   -1.6549 H   0  0  0  0  0  0  0  0  0  0  0  0
   -4.6352    4.0886   -2.6221 H   0  0  0  0  0  0  0  0  0  0  0  0
   -4.0976    2.6887   -3.5582 H   0  0  0  0  0  0  0  0  0  0  0  0
   -5.8111    2.8719   -3.1387 H   0  0  0  0  0  0  0  0  0  0  0  0
   -2.2466    1.5400   -1.4507 N   0  0  0  0  0  0  0  0  0  0  0  0
   -0.8424    1.5707   -1.1286 C   0  0  2  0  0  0  0  0  0  0  0  0
   -0.4639    0.2602   -0.4416 C   0  0  0  0  0  0  0  0  0  0  0  0
    0.6992   -0.1171   -0.3135 O   0  0  0  0  0  0  0  0  0  0  0  0
   -0.4569    2.8126   -0.3211 C   0  0  0  0  0  0  0  0  0  0  0  0
   -0.6621    4.3644   -1.2280 S   0  0  0  0  0  0  0  0  0  0  0  0
   -2.5850    0.7815   -2.0381 H   0  0  0  0  0  0  0  0  0  0  0  0
   -0.3196    1.6023   -2.0925 H   0  0  0  0  0  0  0  0  0  0  0  0
   -1.0620    2.8826    0.5887 H   0  0  0  0  0  0  0  0  0  0  0  0
    0.5930    2.7479   -0.0155 H   0  0  0  0  0  0  0  0  0  0  0  0
   -1.5772   -0.4480   -0.0121 N   0  0  0  0  0  0  0  0  0  0  0  0
   -1.4791   -1.7305    0.6446 C   0  0  2  0  0  0  0  0  0  0  0  0
   -2.7063   -2.5486    0.2648 C   0  0  0  0  0  0  0  0  0  0  0  0
   -3.8136   -2.0490    0.0770 O   0  0  0  0  0  0  0  0  0  0  0  0
   -1.3766   -1.5730    2.1538 C   0  0  0  0  0  0  0  0  0  0  0  0
   -2.5013   -0.0406   -0.1206 H   0  0  0  0  0  0  0  0  0  0  0  0
   -0.5792   -2.2179    0.2538 H   0  0  0  0  0  0  0  0  0  0  0  0
   -2.2693   -1.0865    2.5635 H   0  0  0  0  0  0  0  0  0  0  0  0
   -1.2735   -2.5447    2.6480 H   0  0  0  0  0  0  0  0  0  0  0  0
   -0.5103   -0.9595    2.4236 H   0  0  0  0  0  0  0  0  0  0  0  0
   -2.4291   -3.9070    0.2024 N   0  0  0  0  0  0  0  0  0  0  0  0
   -3.4385   -4.8957   -0.0969 C   0  0  0  0  0  0  0  0  0  0  0  0
   -1.4745   -4.2287    0.3330 H   0  0  0  0  0  0  0  0  0  0  0  0
   -3.8752   -5.2700    0.8407 H   0  0  0  0  0  0  0  0  0  0  0  0
   -4.2277   -4.4392   -0.7123 H   0  0  0  0  0  0  0  0  0  0  0  0
   -2.9814   -5.7311   -0.6475 H   0  0  0  0  0  0  0  0  0  0  0  0
  1  3  1  0  0  0  0
  1  7  1  0  0  0  0
  1  2  2  0  0  0  0
 23 25  1  0  0  0  0
 23 29  1  0  0  0  0
 23 24  2  0  0  0  0
 50 51  1  0  0  0  0
 51 59  1  0  0  0  0
 51 52  2  0  0  0  0
  8  9  1  0  0  0  0
  9 17  1  0  0  0  0
  9 10  2  0  0  0  0
 30 31  1  0  0  0  0
 31 39  1  0  0  0  0
 31 32  2  0  0  0  0
 40 41  1  0  0  0  0
 41 49  1  0  0  0  0
 41 42  2  0  0  0  0
 50 53  1  0  0  0  0
 30 33  1  0  0  0  0
 59 60  1  0  0  0  0
 17 18  1  0  0  0  0
  8 11  1  0  0  0  0
 11 12  1  0  0  0  0
 40 43  1  0  0  0  0
 43 44  1  0  0  0  0
 49 50  1  0  0  0  0
  7  8  1  0  0  0  0
 29 30  1  0  0  0  0
 39 40  1  0  0  0  0
 12 44  1  0  0  0  0
  3  4  1  0  0  0  0
  3  5  1  0  0  0  0
  3  6  1  0  0  0  0
 25 26  1  0  0  0  0
 25 27  1  0  0  0  0
 25 28  1  0  0  0  0
 53 56  1  0  0  0  0
 53 57  1  0  0  0  0
 53 58  1  0  0  0  0
 33 36  1  0  0  0  0
 33 37  1  0  0  0  0
 33 38  1  0  0  0  0
 60 62  1  0  0  0  0
 60 63  1  0  0  0  0
 60 64  1  0  0  0  0
 18 20  1  0  0  0  0
 18 21  1  0  0  0  0
 18 22  1  0  0  0  0
 11 15  1  0  0  0  0
 11 16  1  0  0  0  0
 43 47  1  0  0  0  0
 43 48  1  0  0  0  0
 50 55  1  0  0  0  0
  8 14  1  0  0  0  0
 30 35  1  0  0  0  0
 40 46  1  0  0  0  0
 59 61  1  0  0  0  0
 17 19  1  0  0  0  0
  7 13  1  0  0  0  0
 29 34  1  0  0  0  0
 49 54  1  0  0  0  0
 39 45  1  0  0  0  0
M  END
$$$$

  -OEChem-05262214473D

 64 63  0     1  0  0  0  0  0999 V2000
   -1.9438    9.4131    1.2088 C   0  0  0  0  0  0  0  0  0  0  0  0
   -3.1654    9.3258    1.1683 O   0  0  0  0  0  0  0  0  0  0  0  0
   -1.2802   10.6703    0.7535 C   0  0  0  0  0  0  0  0  0  0  0  0
   -1.0340   10.6508   -0.3203 H   0  0  0  0  0  0  0  0  0  0  0  0
   -1.9205   11.5567    0.8894 H   0  0  0  0  0  0  0  0  0  0  0  0
   -0.3346   10.9153    1.2632 H   0  0  0  0  0  0  0  0  0  0  0  0
   -1.0670    8.4368    1.6495 N   0  0  0  0  0  0  0  0  0  0  0  0
   -1.4954    7.1489    2.1335 C   0  0  2  0  0  0  0  0  0  0  0  0
   -0.5579    6.7050    3.2545 C   0  0  0  0  0  0  0  0  0  0  0  0
    0.4548    7.3282    3.5666 O   0  0  0  0  0  0  0  0  0  0  0  0
   -1.6278    6.1186    1.0093 C   0  0  0  0  0  0  0  0  0  0  0  0
   -0.0560    5.7472    0.1644 S   0  0  0  0  0  0  0  0  0  0  0  0
   -0.0698    8.6387    1.6307 H   0  0  0  0  0  0  0  0  0  0  0  0
   -2.4854    7.3149    2.5762 H   0  0  0  0  0  0  0  0  0  0  0  0
   -2.0217    5.1739    1.3981 H   0  0  0  0  0  0  0  0  0  0  0  0
   -2.3297    6.4820    0.2509 H   0  0  0  0  0  0  0  0  0  0  0  0
   -0.9717    5.5202    3.8466 N   0  0  0  0  0  0  0  0  0  0  0  0
   -0.2364    4.8849    4.9150 C   0  0  0  0  0  0  0  0  0  0  0  0
   -1.8463    5.0942    3.5546 H   0  0  0  0  0  0  0  0  0  0  0  0
    0.4625    4.1481    4.4923 H   0  0  0  0  0  0  0  0  0  0  0  0
    0.3274    5.6457    5.4748 H   0  0  0  0  0  0  0  0  0  0  0  0
   -0.9390    4.3771    5.5921 H   0  0  0  0  0  0  0  0  0  0  0  0
   -6.7256    2.0330   -0.2766 C   0  0  0  0  0  0  0  0  0  0  0  0
   -7.1824    1.1039   -0.9322 O   0  0  0  0  0  0  0  0  0  0  0  0
   -7.5276    2.6077    0.8435 C   0  0  0  0  0  0  0  0  0  0  0  0
   -8.1775    3.4344    0.5145 H   0  0  0  0  0  0  0  0  0  0  0  0
   -8.2057    1.8676    1.2980 H   0  0  0  0  0  0  0  0  0  0  0  0
   -6.9411    3.0162    1.6819 H   0  0  0  0  0  0  0  0  0  0  0  0
   -5.4935    2.6382   -0.4627 N   0  0  0  0  0  0  0  0  0  0  0  0
   -4.5619    2.2388   -1.4845 C   0  0  2  0  0  0  0  0  0  0  0  0
   -3.1535    2.4674   -0.9521 C   0  0  0  0  0  0  0  0  0  0  0  0
   -2.8634    3.3945   -0.1987 O   0  0  0  0  0  0  0  0  0  0  0  0
   -4.7883    3.0138   -2.7732 C   0  0  0  0  0  0  0  0  0  0  0  0
   -5.2337    3.4049    0.1551 H   0  0  0  0  0  0  0  0  0  0  0  0
   -4.7192    1.1682   -1.6549 H   0  0  0  0  0  0  0  0  0  0  0  0
   -4.6352    4.0886   -2.6221 H   0  0  0  0  0  0  0  0  0  0  0  0
   -4.0976    2.6887   -3.5582 H   0  0  0  0  0  0  0  0  0  0  0  0
   -5.8111    2.8719   -3.1387 H   0  0  0  0  0  0  0  0  0  0  0  0
   -2.2466    1.5400   -1.4507 N   0  0  0  0  0  0  0  0  0  0  0  0
   -0.8424    1.5707   -1.1286 C   0  0  2  0  0  0  0  0  0  0  0  0
   -0.4639    0.2602   -0.4416 C   0  0  0  0  0  0  0  0  0  0  0  0
    0.6806    0.0033   -0.0735 O   0  0  0  0  0  0  0  0  0  0  0  0
   -0.4569    2.8126   -0.3211 C   0  0  0  0  0  0  0  0  0  0  0  0
   -0.6621    4.3644   -1.2280 S   0  0  0  0  0  0  0  0  0  0  0  0
   -2.5850    0.7815   -2.0381 H   0  0  0  0  0  0  0  0  0  0  0  0
   -0.3196    1.6023   -2.0925 H   0  0  0  0  0  0  0  0  0  0  0  0
   -1.0620    2.8826    0.5887 H   0  0  0  0  0  0  0  0  0  0  0  0
    0.5930    2.7479   -0.0155 H   0  0  0  0  0  0  0  0  0  0  0  0
   -1.5478   -0.5964   -0.3114 N   0  0  0  0  0  0  0  0  0  0  0  0
   -1.4376   -1.9074    0.2843 C   0  0  2  0  0  0  0  0  0  0  0  0
   -2.4415   -2.8227   -0.4042 C   0  0  0  0  0  0  0  0  0  0  0  0
   -3.5342   -2.4340   -0.8115 O   0  0  0  0  0  0  0  0  0  0  0  0
   -1.6873   -1.8568    1.7835 C   0  0  0  0  0  0  0  0  0  0  0  0
   -2.4691   -0.2851   -0.6049 H   0  0  0  0  0  0  0  0  0  0  0  0
   -0.4209   -2.2620    0.0824 H   0  0  0  0  0  0  0  0  0  0  0  0
   -2.7010   -1.5038    2.0053 H   0  0  0  0  0  0  0  0  0  0  0  0
   -1.5752   -2.8467    2.2381 H   0  0  0  0  0  0  0  0  0  0  0  0
   -0.9834   -1.1751    2.2731 H   0  0  0  0  0  0  0  0  0  0  0  0
   -1.9915   -4.1339   -0.4716 N   0  0  0  0  0  0  0  0  0  0  0  0
   -2.7811   -5.2008   -1.0411 C   0  0  0  0  0  0  0  0  0  0  0  0
   -1.0562   -4.3586   -0.1453 H   0  0  0  0  0  0  0  0  0  0  0  0
   -3.3622   -5.6919   -0.2467 H   0  0  0  0  0  0  0  0  0  0  0  0
   -3.4672   -4.7869   -1.7947 H   0  0  0  0  0  0  0  0  0  0  0  0
   -2.1151   -5.9362   -1.5161 H   0  0  0  0  0  0  0  0  0  0  0  0
  1  3  1  0  0  0  0
  1  7  1  0  0  0  0
  1  2  2  0  0  0  0
 23 25  1  0  0  0  0
 23 29  1  0  0  0  0
 23 24  2  0  0  0  0
 50 51  1  0  0  0  0
 51 59  1  0  0  0  0
 51 52  2  0  0  0  0
  8  9  1  0  0  0  0
  9 17  1  0  0  0  0
  9 10  2  0  0  0  0
 30 31  1  0  0  0  0
 31 39  1  0  0  0  0
 31 32  2  0  0  0  0
 40 41  1  0  0  0  0
 41 49  1  0  0  0  0
 41 42  2  0  0  0  0
 50 53  1  0  0  0  0
 30 33  1  0  0  0  0
 59 60  1  0  0  0  0
 17 18  1  0  0  0  0
  8 11  1  0  0  0  0
 11 12  1  0  0  0  0
 40 43  1  0  0  0  0
 43 44  1  0  0  0  0
 49 50  1  0  0  0  0
  7  8  1  0  0  0  0
 29 30  1  0  0  0  0
 39 40  1  0  0  0  0
 12 44  1  0  0  0  0
  3  4  1  0  0  0  0
  3  5  1  0  0  0  0
  3  6  1  0  0  0  0
 25 26  1  0  0  0  0
 25 27  1  0  0  0  0
 25 28  1  0  0  0  0
 53 56  1  0  0  0  0
 53 57  1  0  0  0  0
 53 58  1  0  0  0  0
 33 36  1  0  0  0  0
 33 37  1  0  0  0  0
 33 38  1  0  0  0  0
 60 62  1  0  0  0  0
 60 63  1  0  0  0  0
 60 64  1  0  0  0  0
 18 20  1  0  0  0  0
 18 21  1  0  0  0  0
 18 22  1  0  0  0  0
 11 15  1  0  0  0  0
 11 16  1  0  0  0  0
 43 47  1  0  0  0  0
 43 48  1  0  0  0  0
 50 55  1  0  0  0  0
  8 14  1  0  0  0  0
 30 35  1  0  0  0  0
 40 46  1  0  0  0  0
 59 61  1  0  0  0  0
 17 19  1  0  0  0  0
  7 13  1  0  0  0  0
 29 34  1  0  0  0  0
 49 54  1  0  0  0  0
 39 45  1  0  0  0  0
M  END
$$$$

  -OEChem-05262214473D

 64 63  0     1  0  0  0  0  0999 V2000
   -1.9438    9.4131    1.2088 C   0  0  0  0  0  0  0  0  0  0  0  0
   -3.1654    9.3258    1.1683 O   0  0  0  0  0  0  0  0  0  0  0  0
   -1.2802   10.6703    0.7535 C   0  0  0  0  0  0  0  0  0  0  0  0
   -1.0340   10.6508   -0.3203 H   0  0  0  0  0  0  0  0  0  0  0  0
   -1.9205   11.5567    0.8894 H   0  0  0  0  0  0  0  0  0  0  0  0
   -0.3346   10.9153    1.2632 H   0  0  0  0  0  0  0  0  0  0  0  0
   -1.0670    8.4368    1.6495 N   0  0  0  0  0  0  0  0  0  0  0  0
   -1.4954    7.1489    2.1335 C   0  0  2  0  0  0  0  0  0  0  0  0
   -0.5579    6.7050    3.2545 C   0  0  0  0  0  0  0  0  0  0  0  0
    0.4548    7.3282    3.5666 O   0  0  0  0  0  0  0  0  0  0  0  0
   -1.6278    6.1186    1.0093 C   0  0  0  0  0  0  0  0  0  0  0  0
   -0.0560    5.7472    0.1644 S   0  0  0  0  0  0  0  0  0  0  0  0
   -0.0698    8.6387    1.6307 H   0  0  0  0  0  0  0  0  0  0  0  0
   -2.4854    7.3149    2.5762 H   0  0  0  0  0  0  0  0  0  0  0  0
   -2.0217    5.1739    1.3981 H   0  0  0  0  0  0  0  0  0  0  0  0
   -2.3297    6.4820    0.2509 H   0  0  0  0  0  0  0  0  0  0  0  0
   -0.9717    5.5202    3.8466 N   0  0  0  0  0  0  0  0  0  0  0  0
   -0.2364    4.8849    4.9150 C   0  0  0  0  0  0  0  0  0  0  0  0
   -1.8463    5.0942    3.5546 H   0  0  0  0  0  0  0  0  0  0  0  0
    0.4625    4.1481    4.4923 H   0  0  0  0  0  0  0  0  0  0  0  0
    0.3274    5.6457    5.4748 H   0  0  0  0  0  0  0  0  0  0  0  0
   -0.9390    4.3771    5.5921 H   0  0  0  0  0  0  0  0  0  0  0  0
   -6.7256    2.0330   -0.2766 C   0  0  0  0  0  0  0  0  0  0  0  0
   -7.1824    1.1039   -0.9322 O   0  0  0  0  0  0  0  0  0  0  0  0
   -7.5276    2.6077    0.8435 C   0  0  0  0  0  0  0  0  0  0  0  0
   -8.1775    3.4344    0.5145 H   0  0  0  0  0  0  0  0  0  0  0  0
   -8.2057    1.8676    1.2980 H   0  0  0  0  0  0  0  0  0  0  0  0
   -6.9411    3.0162    1.6819 H   0  0  0  0  0  0  0  0  0  0  0  0
   -5.4935    2.6382   -0.4627 N   0  0  0  0  0  0  0  0  0  0  0  0
   -4.5619    2.2388   -1.4845 C   0  0  2  0  0  0  0  0  0  0  0  0
   -3.1535    2.4674   -0.9521 C   0  0  0  0  0  0  0  0  0  0  0  0
   -2.8634    3.3945   -0.1987 O   0  0  0  0  0  0  0  0  0  0  0  0
   -4.7883    3.0138   -2.7732 C   0  0  0  0  0  0  0  0  0  0  0  0
   -5.2337    3.4049    0.1551 H   0  0  0  0  0  0  0  0  0  0  0  0
   -4.7192    1.1682   -1.6549 H   0  0  0  0  0  0  0  0  0  0  0  0
   -4.6352    4.0886   -2.6221 H   0  0  0  0  0  0  0  0  0  0  0  0
   -4.0976    2.6887   -3.5582 H   0  0  0  0  0  0  0  0  0  0  0  0
   -5.8111    2.8719   -3.1387 H   0  0  0  0  0  0  0  0  0  0  0  0
   -2.2466    1.5400   -1.4507 N   0  0  0  0  0  0  0  0  0  0  0  0
   -0.8424    1.5707   -1.1286 C   0  0  2  0  0  0  0  0  0  0  0  0
   -0.4639    0.2602   -0.4416 C   0  0  0  0  0  0  0  0  0  0  0  0
    0.5954    0.1021    0.1619 O   0  0  0  0  0  0  0  0  0  0  0  0
   -0.4569    2.8126   -0.3211 C   0  0  0  0  0  0  0  0  0  0  0  0
   -0.6621    4.3644   -1.2280 S   0  0  0  0  0  0  0  0  0  0  0  0
   -2.5850    0.7815   -2.0381 H   0  0  0  0  0  0  0  0  0  0  0  0
   -0.3196    1.6023   -2.0925 H   0  0  0  0  0  0  0  0  0  0  0  0
   -1.0620    2.8826    0.5887 H   0  0  0  0  0  0  0  0  0  0  0  0
    0.5930    2.7479   -0.0155 H   0  0  0  0  0  0  0  0  0  0  0  0
   -1.4357   -0.7171   -0.6034 N   0  0  0  0  0  0  0  0  0  0  0  0
   -1.2969   -2.0503   -0.0659 C   0  0  2  0  0  0  0  0  0  0  0  0
   -2.0052   -3.0138   -1.0091 C   0  0  0  0  0  0  0  0  0  0  0  0
   -3.0221   -2.7163   -1.6324 O   0  0  0  0  0  0  0  0  0  0  0  0
   -1.8721   -2.1433    1.3387 C   0  0  0  0  0  0  0  0  0  0  0  0
   -2.3019   -0.4865   -1.0812 H   0  0  0  0  0  0  0  0  0  0  0  0
   -0.2248   -2.2752   -0.0507 H   0  0  0  0  0  0  0  0  0  0  0  0
   -2.9455   -1.9213    1.3435 H   0  0  0  0  0  0  0  0  0  0  0  0
   -1.7405   -3.1472    1.7558 H   0  0  0  0  0  0  0  0  0  0  0  0
   -1.3819   -1.4288    2.0087 H   0  0  0  0  0  0  0  0  0  0  0  0
   -1.3928   -4.2588   -1.0399 N   0  0  0  0  0  0  0  0  0  0  0  0
   -1.9009   -5.3583   -1.8267 C   0  0  0  0  0  0  0  0  0  0  0  0
   -0.5309   -4.4047   -0.5227 H   0  0  0  0  0  0  0  0  0  0  0  0
   -2.5761   -5.9698   -1.2103 H   0  0  0  0  0  0  0  0  0  0  0  0
   -2.4517   -4.9648   -2.6938 H   0  0  0  0  0  0  0  0  0  0  0  0
   -1.0616   -5.9777   -2.1759 H   0  0  0  0  0  0  0  0  0  0  0  0
  1  3  1  0  0  0  0
  1  7  1  0  0  0  0
  1  2  2  0  0  0  0
 23 25  1  0  0  0  0
 23 29  1  0  0  0  0
 23 24  2  0  0  0  0
 50 51  1  0  0  0  0
 51 59  1  0  0  0  0
 51 52  2  0  0  0  0
  8  9  1  0  0  0  0
  9 17  1  0  0  0  0
  9 10  2  0  0  0  0
 30 31  1  0  0  0  0
 31 39  1  0  0  0  0
 31 32  2  0  0  0  0
 40 41  1  0  0  0  0
 41 49  1  0  0  0  0
 41 42  2  0  0  0  0
 50 53  1  0  0  0  0
 30 33  1  0  0  0  0
 59 60  1  0  0  0  0
 17 18  1  0  0  0  0
  8 11  1  0  0  0  0
 11 12  1  0  0  0  0
 40 43  1  0  0  0  0
 43 44  1  0  0  0  0
 49 50  1  0  0  0  0
  7  8  1  0  0  0  0
 29 30  1  0  0  0  0
 39 40  1  0  0  0  0
 12 44  1  0  0  0  0
  3  4  1  0  0  0  0
  3  5  1  0  0  0  0
  3  6  1  0  0  0  0
 25 26  1  0  0  0  0
 25 27  1  0  0  0  0
 25 28  1  0  0  0  0
 53 56  1  0  0  0  0
 53 57  1  0  0  0  0
 53 58  1  0  0  0  0
 33 36  1  0  0  0  0
 33 37  1  0  0  0  0
 33 38  1  0  0  0  0
 60 62  1  0  0  0  0
 60 63  1  0  0  0  0
 60 64  1  0  0  0  0
 18 20  1  0  0  0  0
 18 21  1  0  0  0  0
 18 22  1  0  0  0  0
 11 15  1  0  0  0  0
 11 16  1  0  0  0  0
 43 47  1  0  0  0  0
 43 48  1  0  0  0  0
 50 55  1  0  0  0  0
  8 14  1  0  0  0  0
 30 35  1  0  0  0  0
 40 46  1  0  0  0  0
 59 61  1  0  0  0  0
 17 19  1  0  0  0  0
  7 13  1  0  0  0  0
 29 34  1  0  0  0  0
 49 54  1  0  0  0  0
 39 45  1  0  0  0  0
M  END
$$$$

  -OEChem-05262214473D

 64 63  0     1  0  0  0  0  0999 V2000
   -1.9438    9.4131    1.2088 C   0  0  0  0  0  0  0  0  0  0  0  0
   -3.1654    9.3258    1.1683 O   0  0  0  0  0  0  0  0  0  0  0  0
   -1.2802   10.6703    0.7535 C   0  0  0  0  0  0  0  0  0  0  0  0
   -1.0340   10.6508   -0.3203 H   0  0  0  0  0  0  0  0  0  0  0  0
   -1.9205   11.5567    0.8894 H   0  0  0  0  0  0  0  0  0  0  0  0
   -0.3346   10.9153    1.2632 H   0  0  0  0  0  0  0  0  0  0  0  0
   -1.0670    8.4368    1.6495 N   0  0  0  0  0  0  0  0  0  0  0  0
   -1.4954    7.1489    2.1335 C   0  0  2  0  0  0  0  0  0  0  0  0
   -0.5579    6.7050    3.2545 C   0  0  0  0  0  0  0  0  0  0  0  0
    0.4548    7.3282    3.5666 O   0  0  0  0  0  0  0  0  0  0  0  0
   -1.6278    6.1186    1.0093 C   0  0  0  0  0  0  0  0  0  0  0  0
   -0.0560    5.7472    0.1644 S   0  0  0  0  0  0  0  0  0  0  0  0
   -0.0698    8.6387    1.6307 H   0  0  0  0  0  0  0  0  0  0  0  0
   -2.4854    7.3149    2.5762 H   0  0  0  0  0  0  0  0  0  0  0  0
   -2.0217    5.1739    1.3981 H   0  0  0  0  0  0  0  0  0  0  0  0
   -2.3297    6.4820    0.2509 H   0  0  0  0  0  0  0  0  0  0  0  0
   -0.9717    5.5202    3.8466 N   0  0  0  0  0  0  0  0  0  0  0  0
   -0.2364    4.8849    4.9150 C   0  0  0  0  0  0  0  0  0  0  0  0
   -1.8463    5.0942    3.5546 H   0  0  0  0  0  0  0  0  0  0  0  0
    0.4625    4.1481    4.4923 H   0  0  0  0  0  0  0  0  0  0  0  0
    0.3274    5.6457    5.4748 H   0  0  0  0  0  0  0  0  0  0  0  0
   -0.9390    4.3771    5.5921 H   0  0  0  0  0  0  0  0  0  0  0  0
   -6.7256    2.0330   -0.2766 C   0  0  0  0  0  0  0  0  0  0  0  0
   -7.1824    1.1039   -0.9322 O   0  0  0  0  0  0  0  0  0  0  0  0
   -7.5276    2.6077    0.8435 C   0  0  0  0  0  0  0  0  0  0  0  0
   -8.1775    3.4344    0.5145 H   0  0  0  0  0  0  0  0  0  0  0  0
   -8.2057    1.8676    1.2980 H   0  0  0  0  0  0  0  0  0  0  0  0
   -6.9411    3.0162    1.6819 H   0  0  0  0  0  0  0  0  0  0  0  0
   -5.4935    2.6382   -0.4627 N   0  0  0  0  0  0  0  0  0  0  0  0
   -4.5619    2.2388   -1.4845 C   0  0  2  0  0  0  0  0  0  0  0  0
   -3.1535    2.4674   -0.9521 C   0  0  0  0  0  0  0  0  0  0  0  0
   -2.8634    3.3945   -0.1987 O   0  0  0  0  0  0  0  0  0  0  0  0
   -4.7883    3.0138   -2.7732 C   0  0  0  0  0  0  0  0  0  0  0  0
   -5.2337    3.4049    0.1551 H   0  0  0  0  0  0  0  0  0  0  0  0
   -4.7192    1.1682   -1.6549 H   0  0  0  0  0  0  0  0  0  0  0  0
   -4.6352    4.0886   -2.6221 H   0  0  0  0  0  0  0  0  0  0  0  0
   -4.0976    2.6887   -3.5582 H   0  0  0  0  0  0  0  0  0  0  0  0
   -5.8111    2.8719   -3.1387 H   0  0  0  0  0  0  0  0  0  0  0  0
   -2.2466    1.5400   -1.4507 N   0  0  0  0  0  0  0  0  0  0  0  0
   -0.8424    1.5707   -1.1286 C   0  0  2  0  0  0  0  0  0  0  0  0
   -0.4639    0.2602   -0.4416 C   0  0  0  0  0  0  0  0  0  0  0  0
    0.4493    0.1725    0.3767 O   0  0  0  0  0  0  0  0  0  0  0  0
   -0.4569    2.8126   -0.3211 C   0  0  0  0  0  0  0  0  0  0  0  0
   -0.6621    4.3644   -1.2280 S   0  0  0  0  0  0  0  0  0  0  0  0
   -2.5850    0.7815   -2.0381 H   0  0  0  0  0  0  0  0  0  0  0  0
   -0.3196    1.6023   -2.0925 H   0  0  0  0  0  0  0  0  0  0  0  0
   -1.0620    2.8826    0.5887 H   0  0  0  0  0  0  0  0  0  0  0  0
    0.5930    2.7479   -0.0155 H   0  0  0  0  0  0  0  0  0  0  0  0
   -1.2485   -0.8019   -0.8684 N   0  0  0  0  0  0  0  0  0  0  0  0
   -1.0665   -2.1495   -0.3821 C   0  0  2  0  0  0  0  0  0  0  0  0
   -1.4272   -3.1087   -1.5088 C   0  0  0  0  0  0  0  0  0  0  0  0
   -2.3123   -2.8768   -2.3297 O   0  0  0  0  0  0  0  0  0  0  0  0
   -1.9185   -2.4131    0.8497 C   0  0  0  0  0  0  0  0  0  0  0  0
   -2.0112   -0.6310   -1.5170 H   0  0  0  0  0  0  0  0  0  0  0  0
   -0.0043   -2.2565   -0.1367 H   0  0  0  0  0  0  0  0  0  0  0  0
   -2.9861   -2.3105    0.6232 H   0  0  0  0  0  0  0  0  0  0  0  0
   -1.7580   -3.4258    1.2339 H   0  0  0  0  0  0  0  0  0  0  0  0
   -1.6786   -1.7032    1.6486 H   0  0  0  0  0  0  0  0  0  0  0  0
   -0.6737   -4.2734   -1.4639 N   0  0  0  0  0  0  0  0  0  0  0  0
   -0.8578   -5.3576   -2.4002 C   0  0  0  0  0  0  0  0  0  0  0  0
    0.0658   -4.3638   -0.7735 H   0  0  0  0  0  0  0  0  0  0  0  0
   -1.5704   -6.0850   -1.9842 H   0  0  0  0  0  0  0  0  0  0  0  0
   -1.2504   -4.9607   -3.3480 H   0  0  0  0  0  0  0  0  0  0  0  0
    0.1074   -5.8528   -2.5819 H   0  0  0  0  0  0  0  0  0  0  0  0
  1  3  1  0  0  0  0
  1  7  1  0  0  0  0
  1  2  2  0  0  0  0
 23 25  1  0  0  0  0
 23 29  1  0  0  0  0
 23 24  2  0  0  0  0
 50 51  1  0  0  0  0
 51 59  1  0  0  0  0
 51 52  2  0  0  0  0
  8  9  1  0  0  0  0
  9 17  1  0  0  0  0
  9 10  2  0  0  0  0
 30 31  1  0  0  0  0
 31 39  1  0  0  0  0
 31 32  2  0  0  0  0
 40 41  1  0  0  0  0
 41 49  1  0  0  0  0
 41 42  2  0  0  0  0
 50 53  1  0  0  0  0
 30 33  1  0  0  0  0
 59 60  1  0  0  0  0
 17 18  1  0  0  0  0
  8 11  1  0  0  0  0
 11 12  1  0  0  0  0
 40 43  1  0  0  0  0
 43 44  1  0  0  0  0
 49 50  1  0  0  0  0
  7  8  1  0  0  0  0
 29 30  1  0  0  0  0
 39 40  1  0  0  0  0
 12 44  1  0  0  0  0
  3  4  1  0  0  0  0
  3  5  1  0  0  0  0
  3  6  1  0  0  0  0
 25 26  1  0  0  0  0
 25 27  1  0  0  0  0
 25 28  1  0  0  0  0
 53 56  1  0  0  0  0
 53 57  1  0  0  0  0
 53 58  1  0  0  0  0
 33 36  1  0  0  0  0
 33 37  1  0  0  0  0
 33 38  1  0  0  0  0
 60 62  1  0  0  0  0
 60 63  1  0  0  0  0
 60 64  1  0  0  0  0
 18 20  1  0  0  0  0
 18 21  1  0  0  0  0
 18 22  1  0  0  0  0
 11 15  1  0  0  0  0
 11 16  1  0  0  0  0
 43 47  1  0  0  0  0
 43 48  1  0  0  0  0
 50 55  1  0  0  0  0
  8 14  1  0  0  0  0
 30 35  1  0  0  0  0
 40 46  1  0  0  0  0
 59 61  1  0  0  0  0
 17 19  1  0  0  0  0
  7 13  1  0  0  0  0
 29 34  1  0  0  0  0
 49 54  1  0  0  0  0
 39 45  1  0  0  0  0
M  END
$$$$

  -OEChem-05262214473D

 64 63  0     1  0  0  0  0  0999 V2000
   -1.9438    9.4131    1.2088 C   0  0  0  0  0  0  0  0  0  0  0  0
   -3.1654    9.3258    1.1683 O   0  0  0  0  0  0  0  0  0  0  0  0
   -1.2802   10.6703    0.7535 C   0  0  0  0  0  0  0  0  0  0  0  0
   -1.0340   10.6508   -0.3203 H   0  0  0  0  0  0  0  0  0  0  0  0
   -1.9205   11.5567    0.8894 H   0  0  0  0  0  0  0  0  0  0  0  0
   -0.3346   10.9153    1.2632 H   0  0  0  0  0  0  0  0  0  0  0  0
   -1.0670    8.4368    1.6495 N   0  0  0  0  0  0  0  0  0  0  0  0
   -1.4954    7.1489    2.1335 C   0  0  2  0  0  0  0  0  0  0  0  0
   -0.5579    6.7050    3.2545 C   0  0  0  0  0  0  0  0  0  0  0  0
    0.4548    7.3282    3.5666 O   0  0  0  0  0  0  0  0  0  0  0  0
   -1.6278    6.1186    1.0093 C   0  0  0  0  0  0  0  0  0  0  0  0
   -0.0560    5.7472    0.1644 S   0  0  0  0  0  0  0  0  0  0  0  0
   -0.0698    8.6387    1.6307 H   0  0  0  0  0  0  0  0  0  0  0  0
   -2.4854    7.3149    2.5762 H   0  0  0  0  0  0  0  0  0  0  0  0
   -2.0217    5.1739    1.3981 H   0  0  0  0  0  0  0  0  0  0  0  0
   -2.3297    6.4820    0.2509 H   0  0  0  0  0  0  0  0  0  0  0  0
   -0.9717    5.5202    3.8466 N   0  0  0  0  0  0  0  0  0  0  0  0
   -0.2364    4.8849    4.9150 C   0  0  0  0  0  0  0  0  0  0  0  0
   -1.8463    5.0942    3.5546 H   0  0  0  0  0  0  0  0  0  0  0  0
    0.4625    4.1481    4.4923 H   0  0  0  0  0  0  0  0  0  0  0  0
    0.3274    5.6457    5.4748 H   0  0  0  0  0  0  0  0  0  0  0  0
   -0.9390    4.3771    5.5921 H   0  0  0  0  0  0  0  0  0  0  0  0
   -6.7256    2.0330   -0.2766 C   0  0  0  0  0  0  0  0  0  0  0  0
   -7.1824    1.1039   -0.9322 O   0  0  0  0  0  0  0  0  0  0  0  0
   -7.5276    2.6077    0.8435 C   0  0  0  0  0  0  0  0  0  0  0  0
   -8.1775    3.4344    0.5145 H   0  0  0  0  0  0  0  0  0  0  0  0
   -8.2057    1.8676    1.2980 H   0  0  0  0  0  0  0  0  0  0  0  0
   -6.9411    3.0162    1.6819 H   0  0  0  0  0  0  0  0  0  0  0  0
   -5.4935    2.6382   -0.4627 N   0  0  0  0  0  0  0  0  0  0  0  0
   -4.5619    2.2388   -1.4845 C   0  0  2  0  0  0  0  0  0  0  0  0
   -3.1535    2.4674   -0.9521 C   0  0  0  0  0  0  0  0  0  0  0  0
   -2.8634    3.3945   -0.1987 O   0  0  0  0  0  0  0  0  0  0  0  0
   -4.7883    3.0138   -2.7732 C   0  0  0  0  0  0  0  0  0  0  0  0
   -5.2337    3.4049    0.1551 H   0  0  0  0  0  0  0  0  0  0  0  0
   -4.7192    1.1682   -1.6549 H   0  0  0  0  0  0  0  0  0  0  0  0
   -4.6352    4.0886   -2.6221 H   0  0  0  0  0  0  0  0  0  0  0  0
   -4.0976    2.6887   -3.5582 H   0  0  0  0  0  0  0  0  0  0  0  0
   -5.8111    2.8719   -3.1387 H   0  0  0  0  0  0  0  0  0  0  0  0
   -2.2466    1.5400   -1.4507 N   0  0  0  0  0  0  0  0  0  0  0  0
   -0.8424    1.5707   -1.1286 C   0  0  2  0  0  0  0  0  0  0  0  0
   -0.4639    0.2602   -0.4416 C   0  0  0  0  0  0  0  0  0  0  0  0
    0.2523    0.2097    0.5563 O   0  0  0  0  0  0  0  0  0  0  0  0
   -0.4569    2.8126   -0.3211 C   0  0  0  0  0  0  0  0  0  0  0  0
   -0.6621    4.3644   -1.2280 S   0  0  0  0  0  0  0  0  0  0  0  0
   -2.5850    0.7815   -2.0381 H   0  0  0  0  0  0  0  0  0  0  0  0
   -0.3196    1.6023   -2.0925 H   0  0  0  0  0  0  0  0  0  0  0  0
   -1.0620    2.8826    0.5887 H   0  0  0  0  0  0  0  0  0  0  0  0
    0.5930    2.7479   -0.0155 H   0  0  0  0  0  0  0  0  0  0  0  0
   -0.9989   -0.8450   -1.0882 N   0  0  0  0  0  0  0  0  0  0  0  0
   -0.7623   -2.1983   -0.6428 C   0  0  2  0  0  0  0  0  0  0  0  0
   -0.7469   -3.1011   -1.8692 C   0  0  0  0  0  0  0  0  0  0  0  0
   -1.4532   -2.9044   -2.8559 O   0  0  0  0  0  0  0  0  0  0  0  0
   -1.8233   -2.6477    0.3497 C   0  0  0  0  0  0  0  0  0  0  0  0
   -1.6168   -0.7087   -1.8828 H   0  0  0  0  0  0  0  0  0  0  0  0
    0.2256   -2.2073   -0.1695 H   0  0  0  0  0  0  0  0  0  0  0  0
   -2.8200   -2.6451   -0.1066 H   0  0  0  0  0  0  0  0  0  0  0  0
   -1.6266   -3.6635    0.7080 H   0  0  0  0  0  0  0  0  0  0  0  0
   -1.8533   -1.9797    1.2173 H   0  0  0  0  0  0  0  0  0  0  0  0
    0.1167   -4.1765   -1.7148 N   0  0  0  0  0  0  0  0  0  0  0  0
    0.2770   -5.1987   -2.7225 C   0  0  0  0  0  0  0  0  0  0  0  0
    0.6931   -4.2388   -0.8807 H   0  0  0  0  0  0  0  0  0  0  0  0
   -0.4137   -6.0295   -2.5158 H   0  0  0  0  0  0  0  0  0  0  0  0
    0.0547   -4.7750   -3.7130 H   0  0  0  0  0  0  0  0  0  0  0  0
    1.3123   -5.5701   -2.7065 H   0  0  0  0  0  0  0  0  0  0  0  0
  1  3  1  0  0  0  0
  1  7  1  0  0  0  0
  1  2  2  0  0  0  0
 23 25  1  0  0  0  0
 23 29  1  0  0  0  0
 23 24  2  0  0  0  0
 50 51  1  0  0  0  0
 51 59  1  0  0  0  0
 51 52  2  0  0  0  0
  8  9  1  0  0  0  0
  9 17  1  0  0  0  0
  9 10  2  0  0  0  0
 30 31  1  0  0  0  0
 31 39  1  0  0  0  0
 31 32  2  0  0  0  0
 40 41  1  0  0  0  0
 41 49  1  0  0  0  0
 41 42  2  0  0  0  0
 50 53  1  0  0  0  0
 30 33  1  0  0  0  0
 59 60  1  0  0  0  0
 17 18  1  0  0  0  0
  8 11  1  0  0  0  0
 11 12  1  0  0  0  0
 40 43  1  0  0  0  0
 43 44  1  0  0  0  0
 49 50  1  0  0  0  0
  7  8  1  0  0  0  0
 29 30  1  0  0  0  0
 39 40  1  0  0  0  0
 12 44  1  0  0  0  0
  3  4  1  0  0  0  0
  3  5  1  0  0  0  0
  3  6  1  0  0  0  0
 25 26  1  0  0  0  0
 25 27  1  0  0  0  0
 25 28  1  0  0  0  0
 53 56  1  0  0  0  0
 53 57  1  0  0  0  0
 53 58  1  0  0  0  0
 33 36  1  0  0  0  0
 33 37  1  0  0  0  0
 33 38  1  0  0  0  0
 60 62  1  0  0  0  0
 60 63  1  0  0  0  0
 60 64  1  0  0  0  0
 18 20  1  0  0  0  0
 18 21  1  0  0  0  0
 18 22  1  0  0  0  0
 11 15  1  0  0  0  0
 11 16  1  0  0  0  0
 43 47  1  0  0  0  0
 43 48  1  0  0  0  0
 50 55  1  0  0  0  0
  8 14  1  0  0  0  0
 30 35  1  0  0  0  0
 40 46  1  0  0  0  0
 59 61  1  0  0  0  0
 17 19  1  0  0  0  0
  7 13  1  0  0  0  0
 29 34  1  0  0  0  0
 49 54  1  0  0  0  0
 39 45  1  0  0  0  0
M  END
$$$$

  -OEChem-05262214473D

 64 63  0     1  0  0  0  0  0999 V2000
   -1.9438    9.4131    1.2088 C   0  0  0  0  0  0  0  0  0  0  0  0
   -3.1654    9.3258    1.1683 O   0  0  0  0  0  0  0  0  0  0  0  0
   -1.2802   10.6703    0.7535 C   0  0  0  0  0  0  0  0  0  0  0  0
   -1.0340   10.6508   -0.3203 H   0  0  0  0  0  0  0  0  0  0  0  0
   -1.9205   11.5567    0.8894 H   0  0  0  0  0  0  0  0  0  0  0  0
   -0.3346   10.9153    1.2632 H   0  0  0  0  0  0  0  0  0  0  0  0
   -1.0670    8.4368    1.6495 N   0  0  0  0  0  0  0  0  0  0  0  0
   -1.4954    7.1489    2.1335 C   0  0  2  0  0  0  0  0  0  0  0  0
   -0.5579    6.7050    3.2545 C   0  0  0  0  0  0  0  0  0  0  0  0
    0.4548    7.3282    3.5666 O   0  0  0  0  0  0  0  0  0  0  0  0
   -1.6278    6.1186    1.0093 C   0  0  0  0  0  0  0  0  0  0  0  0
   -0.0560    5.7472    0.1644 S   0  0  0  0  0  0  0  0  0  0  0  0
   -0.0698    8.6387    1.6307 H   0  0  0  0  0  0  0  0  0  0  0  0
   -2.4854    7.3149    2.5762 H   0  0  0  0  0  0  0  0  0  0  0  0
   -2.0217    5.1739    1.3981 H   0  0  0  0  0  0  0  0  0  0  0  0
   -2.3297    6.4820    0.2509 H   0  0  0  0  0  0  0  0  0  0  0  0
   -0.9717    5.5202    3.8466 N   0  0  0  0  0  0  0  0  0  0  0  0
   -0.2364    4.8849    4.9150 C   0  0  0  0  0  0  0  0  0  0  0  0
   -1.8463    5.0942    3.5546 H   0  0  0  0  0  0  0  0  0  0  0  0
    0.4625    4.1481    4.4923 H   0  0  0  0  0  0  0  0  0  0  0  0
    0.3274    5.6457    5.4748 H   0  0  0  0  0  0  0  0  0  0  0  0
   -0.9390    4.3771    5.5921 H   0  0  0  0  0  0  0  0  0  0  0  0
   -6.7256    2.0330   -0.2766 C   0  0  0  0  0  0  0  0  0  0  0  0
   -7.1824    1.1039   -0.9322 O   0  0  0  0  0  0  0  0  0  0  0  0
   -7.5276    2.6077    0.8435 C   0  0  0  0  0  0  0  0  0  0  0  0
   -8.1775    3.4344    0.5145 H   0  0  0  0  0  0  0  0  0  0  0  0
   -8.2057    1.8676    1.2980 H   0  0  0  0  0  0  0  0  0  0  0  0
   -6.9411    3.0162    1.6819 H   0  0  0  0  0  0  0  0  0  0  0  0
   -5.4935    2.6382   -0.4627 N   0  0  0  0  0  0  0  0  0  0  0  0
   -4.5619    2.2388   -1.4845 C   0  0  2  0  0  0  0  0  0  0  0  0
   -3.1535    2.4674   -0.9521 C   0  0  0  0  0  0  0  0  0  0  0  0
   -2.8634    3.3945   -0.1987 O   0  0  0  0  0  0  0  0  0  0  0  0
   -4.7883    3.0138   -2.7732 C   0  0  0  0  0  0  0  0  0  0  0  0
   -5.2337    3.4049    0.1551 H   0  0  0  0  0  0  0  0  0  0  0  0
   -4.7192    1.1682   -1.6549 H   0  0  0  0  0  0  0  0  0  0  0  0
   -4.6352    4.0886   -2.6221 H   0  0  0  0  0  0  0  0  0  0  0  0
   -4.0976    2.6887   -3.5582 H   0  0  0  0  0  0  0  0  0  0  0  0
   -5.8111    2.8719   -3.1387 H   0  0  0  0  0  0  0  0  0  0  0  0
   -2.2466    1.5400   -1.4507 N   0  0  0  0  0  0  0  0  0  0  0  0
   -0.8424    1.5707   -1.1286 C   0  0  2  0  0  0  0  0  0  0  0  0
   -0.4639    0.2602   -0.4416 C   0  0  0  0  0  0  0  0  0  0  0  0
    0.0178    0.2112    0.6884 O   0  0  0  0  0  0  0  0  0  0  0  0
   -0.4569    2.8126   -0.3211 C   0  0  0  0  0  0  0  0  0  0  0  0
   -0.6621    4.3644   -1.2280 S   0  0  0  0  0  0  0  0  0  0  0  0
   -2.5850    0.7815   -2.0381 H   0  0  0  0  0  0  0  0  0  0  0  0
   -0.3196    1.6023   -2.0925 H   0  0  0  0  0  0  0  0  0  0  0  0
   -1.0620    2.8826    0.5887 H   0  0  0  0  0  0  0  0  0  0  0  0
    0.5930    2.7479   -0.0155 H   0  0  0  0  0  0  0  0  0  0  0  0
   -0.7040   -0.8435   -1.2478 N   0  0  0  0  0  0  0  0  0  0  0  0
   -0.4048   -2.1932   -0.8301 C   0  0  2  0  0  0  0  0  0  0  0  0
   -0.0106   -2.9915   -2.0658 C   0  0  0  0  0  0  0  0  0  0  0  0
   -0.5033   -2.7974   -3.1751 O   0  0  0  0  0  0  0  0  0  0  0  0
   -1.5930   -2.8311   -0.1272 C   0  0  0  0  0  0  0  0  0  0  0  0
   -1.1455   -0.7145   -2.1534 H   0  0  0  0  0  0  0  0  0  0  0  0
    0.4493   -2.1309   -0.1470 H   0  0  0  0  0  0  0  0  0  0  0  0
   -2.4585   -2.9020   -0.7961 H   0  0  0  0  0  0  0  0  0  0  0  0
   -1.3552   -3.8440    0.2141 H   0  0  0  0  0  0  0  0  0  0  0  0
   -1.8940   -2.2395    0.7441 H   0  0  0  0  0  0  0  0  0  0  0  0
    0.9247   -3.9749   -1.7753 N   0  0  0  0  0  0  0  0  0  0  0  0
    1.4262   -4.8925   -2.7715 C   0  0  0  0  0  0  0  0  0  0  0  0
    1.3082   -4.0381   -0.8369 H   0  0  0  0  0  0  0  0  0  0  0  0
    0.8152   -5.8072   -2.7689 H   0  0  0  0  0  0  0  0  0  0  0  0
    1.3748   -4.4203   -3.7637 H   0  0  0  0  0  0  0  0  0  0  0  0
    2.4708   -5.1488   -2.5410 H   0  0  0  0  0  0  0  0  0  0  0  0
  1  3  1  0  0  0  0
  1  7  1  0  0  0  0
  1  2  2  0  0  0  0
 23 25  1  0  0  0  0
 23 29  1  0  0  0  0
 23 24  2  0  0  0  0
 50 51  1  0  0  0  0
 51 59  1  0  0  0  0
 51 52  2  0  0  0  0
  8  9  1  0  0  0  0
  9 17  1  0  0  0  0
  9 10  2  0  0  0  0
 30 31  1  0  0  0  0
 31 39  1  0  0  0  0
 31 32  2  0  0  0  0
 40 41  1  0  0  0  0
 41 49  1  0  0  0  0
 41 42  2  0  0  0  0
 50 53  1  0  0  0  0
 30 33  1  0  0  0  0
 59 60  1  0  0  0  0
 17 18  1  0  0  0  0
  8 11  1  0  0  0  0
 11 12  1  0  0  0  0
 40 43  1  0  0  0  0
 43 44  1  0  0  0  0
 49 50  1  0  0  0  0
  7  8  1  0  0  0  0
 29 30  1  0  0  0  0
 39 40  1  0  0  0  0
 12 44  1  0  0  0  0
  3  4  1  0  0  0  0
  3  5  1  0  0  0  0
  3  6  1  0  0  0  0
 25 26  1  0  0  0  0
 25 27  1  0  0  0  0
 25 28  1  0  0  0  0
 53 56  1  0  0  0  0
 53 57  1  0  0  0  0
 53 58  1  0  0  0  0
 33 36  1  0  0  0  0
 33 37  1  0  0  0  0
 33 38  1  0  0  0  0
 60 62  1  0  0  0  0
 60 63  1  0  0  0  0
 60 64  1  0  0  0  0
 18 20  1  0  0  0  0
 18 21  1  0  0  0  0
 18 22  1  0  0  0  0
 11 15  1  0  0  0  0
 11 16  1  0  0  0  0
 43 47  1  0  0  0  0
 43 48  1  0  0  0  0
 50 55  1  0  0  0  0
  8 14  1  0  0  0  0
 30 35  1  0  0  0  0
 40 46  1  0  0  0  0
 59 61  1  0  0  0  0
 17 19  1  0  0  0  0
  7 13  1  0  0  0  0
 29 34  1  0  0  0  0
 49 54  1  0  0  0  0
 39 45  1  0  0  0  0
M  END
$$$$

  -OEChem-05262214473D

 64 63  0     1  0  0  0  0  0999 V2000
   -1.9438    9.4131    1.2088 C   0  0  0  0  0  0  0  0  0  0  0  0
   -3.1654    9.3258    1.1683 O   0  0  0  0  0  0  0  0  0  0  0  0
   -1.2802   10.6703    0.7535 C   0  0  0  0  0  0  0  0  0  0  0  0
   -1.0340   10.6508   -0.3203 H   0  0  0  0  0  0  0  0  0  0  0  0
   -1.9205   11.5567    0.8894 H   0  0  0  0  0  0  0  0  0  0  0  0
   -0.3346   10.9153    1.2632 H   0  0  0  0  0  0  0  0  0  0  0  0
   -1.0670    8.4368    1.6495 N   0  0  0  0  0  0  0  0  0  0  0  0
   -1.4954    7.1489    2.1335 C   0  0  2  0  0  0  0  0  0  0  0  0
   -0.5579    6.7050    3.2545 C   0  0  0  0  0  0  0  0  0  0  0  0
    0.4548    7.3282    3.5666 O   0  0  0  0  0  0  0  0  0  0  0  0
   -1.6278    6.1186    1.0093 C   0  0  0  0  0  0  0  0  0  0  0  0
   -0.0560    5.7472    0.1644 S   0  0  0  0  0  0  0  0  0  0  0  0
   -0.0698    8.6387    1.6307 H   0  0  0  0  0  0  0  0  0  0  0  0
   -2.4854    7.3149    2.5762 H   0  0  0  0  0  0  0  0  0  0  0  0
   -2.0217    5.1739    1.3981 H   0  0  0  0  0  0  0  0  0  0  0  0
   -2.3297    6.4820    0.2509 H   0  0  0  0  0  0  0  0  0  0  0  0
   -0.9717    5.5202    3.8466 N   0  0  0  0  0  0  0  0  0  0  0  0
   -0.2364    4.8849    4.9150 C   0  0  0  0  0  0  0  0  0  0  0  0
   -1.8463    5.0942    3.5546 H   0  0  0  0  0  0  0  0  0  0  0  0
    0.4625    4.1481    4.4923 H   0  0  0  0  0  0  0  0  0  0  0  0
    0.3274    5.6457    5.4748 H   0  0  0  0  0  0  0  0  0  0  0  0
   -0.9390    4.3771    5.5921 H   0  0  0  0  0  0  0  0  0  0  0  0
   -6.7256    2.0330   -0.2766 C   0  0  0  0  0  0  0  0  0  0  0  0
   -7.1824    1.1039   -0.9322 O   0  0  0  0  0  0  0  0  0  0  0  0
   -7.5276    2.6077    0.8435 C   0  0  0  0  0  0  0  0  0  0  0  0
   -8.1775    3.4344    0.5145 H   0  0  0  0  0  0  0  0  0  0  0  0
   -8.2057    1.8676    1.2980 H   0  0  0  0  0  0  0  0  0  0  0  0
   -6.9411    3.0162    1.6819 H   0  0  0  0  0  0  0  0  0  0  0  0
   -5.4935    2.6382   -0.4627 N   0  0  0  0  0  0  0  0  0  0  0  0
   -4.5619    2.2388   -1.4845 C   0  0  2  0  0  0  0  0  0  0  0  0
   -3.1535    2.4674   -0.9521 C   0  0  0  0  0  0  0  0  0  0  0  0
   -2.8634    3.3945   -0.1987 O   0  0  0  0  0  0  0  0  0  0  0  0
   -4.7883    3.0138   -2.7732 C   0  0  0  0  0  0  0  0  0  0  0  0
   -5.2337    3.4049    0.1551 H   0  0  0  0  0  0  0  0  0  0  0  0
   -4.7192    1.1682   -1.6549 H   0  0  0  0  0  0  0  0  0  0  0  0
   -4.6352    4.0886   -2.6221 H   0  0  0  0  0  0  0  0  0  0  0  0
   -4.0976    2.6887   -3.5582 H   0  0  0  0  0  0  0  0  0  0  0  0
   -5.8111    2.8719   -3.1387 H   0  0  0  0  0  0  0  0  0  0  0  0
   -2.2466    1.5400   -1.4507 N   0  0  0  0  0  0  0  0  0  0  0  0
   -0.8424    1.5707   -1.1286 C   0  0  2  0  0  0  0  0  0  0  0  0
   -0.4639    0.2602   -0.4416 C   0  0  0  0  0  0  0  0  0  0  0  0
   -0.2382    0.1769    0.7640 O   0  0  0  0  0  0  0  0  0  0  0  0
   -0.4569    2.8126   -0.3211 C   0  0  0  0  0  0  0  0  0  0  0  0
   -0.6621    4.3644   -1.2280 S   0  0  0  0  0  0  0  0  0  0  0  0
   -2.5850    0.7815   -2.0381 H   0  0  0  0  0  0  0  0  0  0  0  0
   -0.3196    1.6023   -2.0925 H   0  0  0  0  0  0  0  0  0  0  0  0
   -1.0620    2.8826    0.5887 H   0  0  0  0  0  0  0  0  0  0  0  0
    0.5930    2.7479   -0.0155 H   0  0  0  0  0  0  0  0  0  0  0  0
   -0.3839   -0.7974   -1.3364 N   0  0  0  0  0  0  0  0  0  0  0  0
   -0.0186   -2.1347   -0.9313 C   0  0  2  0  0  0  0  0  0  0  0  0
    0.7315   -2.7872   -2.0851 C   0  0  0  0  0  0  0  0  0  0  0  0
    0.4728   -2.5629   -3.2656 O   0  0  0  0  0  0  0  0  0  0  0  0
   -1.2433   -2.9509   -0.5485 C   0  0  0  0  0  0  0  0  0  0  0  0
   -0.6295   -0.6478   -2.3106 H   0  0  0  0  0  0  0  0  0  0  0  0
    0.6514   -2.0325   -0.0707 H   0  0  0  0  0  0  0  0  0  0  0  0
   -1.9264   -3.0640   -1.3982 H   0  0  0  0  0  0  0  0  0  0  0  0
   -0.9623   -3.9551   -0.2144 H   0  0  0  0  0  0  0  0  0  0  0  0
   -1.7980   -2.4648    0.2614 H   0  0  0  0  0  0  0  0  0  0  0  0
    1.6950   -3.6822   -1.6414 N   0  0  0  0  0  0  0  0  0  0  0  0
    2.5114   -4.4598   -2.5441 C   0  0  0  0  0  0  0  0  0  0  0  0
    1.8693   -3.7755   -0.6450 H   0  0  0  0  0  0  0  0  0  0  0  0
    2.0325   -5.4332   -2.7262 H   0  0  0  0  0  0  0  0  0  0  0  0
    2.6199   -3.9207   -3.4968 H   0  0  0  0  0  0  0  0  0  0  0  0
    3.5040   -4.6175   -2.0969 H   0  0  0  0  0  0  0  0  0  0  0  0
  1  3  1  0  0  0  0
  1  7  1  0  0  0  0
  1  2  2  0  0  0  0
 23 25  1  0  0  0  0
 23 29  1  0  0  0  0
 23 24  2  0  0  0  0
 50 51  1  0  0  0  0
 51 59  1  0  0  0  0
 51 52  2  0  0  0  0
  8  9  1  0  0  0  0
  9 17  1  0  0  0  0
  9 10  2  0  0  0  0
 30 31  1  0  0  0  0
 31 39  1  0  0  0  0
 31 32  2  0  0  0  0
 40 41  1  0  0  0  0
 41 49  1  0  0  0  0
 41 42  2  0  0  0  0
 50 53  1  0  0  0  0
 30 33  1  0  0  0  0
 59 60  1  0  0  0  0
 17 18  1  0  0  0  0
  8 11  1  0  0  0  0
 11 12  1  0  0  0  0
 40 43  1  0  0  0  0
 43 44  1  0  0  0  0
 49 50  1  0  0  0  0
  7  8  1  0  0  0  0
 29 30  1  0  0  0  0
 39 40  1  0  0  0  0
 12 44  1  0  0  0  0
  3  4  1  0  0  0  0
  3  5  1  0  0  0  0
  3  6  1  0  0  0  0
 25 26  1  0  0  0  0
 25 27  1  0  0  0  0
 25 28  1  0  0  0  0
 53 56  1  0  0  0  0
 53 57  1  0  0  0  0
 53 58  1  0  0  0  0
 33 36  1  0  0  0  0
 33 37  1  0  0  0  0
 33 38  1  0  0  0  0
 60 62  1  0  0  0  0
 60 63  1  0  0  0  0
 60 64  1  0  0  0  0
 18 20  1  0  0  0  0
 18 21  1  0  0  0  0
 18 22  1  0  0  0  0
 11 15  1  0  0  0  0
 11 16  1  0  0  0  0
 43 47  1  0  0  0  0
 43 48  1  0  0  0  0
 50 55  1  0  0  0  0
  8 14  1  0  0  0  0
 30 35  1  0  0  0  0
 40 46  1  0  0  0  0
 59 61  1  0  0  0  0
 17 19  1  0  0  0  0
  7 13  1  0  0  0  0
 29 34  1  0  0  0  0
 49 54  1  0  0  0  0
 39 45  1  0  0  0  0
M  END
$$$$

  -OEChem-05262214473D

 64 63  0     1  0  0  0  0  0999 V2000
   -1.9438    9.4131    1.2088 C   0  0  0  0  0  0  0  0  0  0  0  0
   -3.1654    9.3258    1.1683 O   0  0  0  0  0  0  0  0  0  0  0  0
   -1.2802   10.6703    0.7535 C   0  0  0  0  0  0  0  0  0  0  0  0
   -1.0340   10.6508   -0.3203 H   0  0  0  0  0  0  0  0  0  0  0  0
   -1.9205   11.5567    0.8894 H   0  0  0  0  0  0  0  0  0  0  0  0
   -0.3346   10.9153    1.2632 H   0  0  0  0  0  0  0  0  0  0  0  0
   -1.0670    8.4368    1.6495 N   0  0  0  0  0  0  0  0  0  0  0  0
   -1.4954    7.1489    2.1335 C   0  0  2  0  0  0  0  0  0  0  0  0
   -0.5579    6.7050    3.2545 C   0  0  0  0  0  0  0  0  0  0  0  0
    0.4548    7.3282    3.5666 O   0  0  0  0  0  0  0  0  0  0  0  0
   -1.6278    6.1186    1.0093 C   0  0  0  0  0  0  0  0  0  0  0  0
   -0.0560    5.7472    0.1644 S   0  0  0  0  0  0  0  0  0  0  0  0
   -0.0698    8.6387    1.6307 H   0  0  0  0  0  0  0  0  0  0  0  0
   -2.4854    7.3149    2.5762 H   0  0  0  0  0  0  0  0  0  0  0  0
   -2.0217    5.1739    1.3981 H   0  0  0  0  0  0  0  0  0  0  0  0
   -2.3297    6.4820    0.2509 H   0  0  0  0  0  0  0  0  0  0  0  0
   -0.9717    5.5202    3.8466 N   0  0  0  0  0  0  0  0  0  0  0  0
   -0.2364    4.8849    4.9150 C   0  0  0  0  0  0  0  0  0  0  0  0
   -1.8463    5.0942    3.5546 H   0  0  0  0  0  0  0  0  0  0  0  0
    0.4625    4.1481    4.4923 H   0  0  0  0  0  0  0  0  0  0  0  0
    0.3274    5.6457    5.4748 H   0  0  0  0  0  0  0  0  0  0  0  0
   -0.9390    4.3771    5.5921 H   0  0  0  0  0  0  0  0  0  0  0  0
   -6.7256    2.0330   -0.2766 C   0  0  0  0  0  0  0  0  0  0  0  0
   -7.1824    1.1039   -0.9322 O   0  0  0  0  0  0  0  0  0  0  0  0
   -7.5276    2.6077    0.8435 C   0  0  0  0  0  0  0  0  0  0  0  0
   -8.1775    3.4344    0.5145 H   0  0  0  0  0  0  0  0  0  0  0  0
   -8.2057    1.8676    1.2980 H   0  0  0  0  0  0  0  0  0  0  0  0
   -6.9411    3.0162    1.6819 H   0  0  0  0  0  0  0  0  0  0  0  0
   -5.4935    2.6382   -0.4627 N   0  0  0  0  0  0  0  0  0  0  0  0
   -4.5619    2.2388   -1.4845 C   0  0  2  0  0  0  0  0  0  0  0  0
   -3.1535    2.4674   -0.9521 C   0  0  0  0  0  0  0  0  0  0  0  0
   -2.8634    3.3945   -0.1987 O   0  0  0  0  0  0  0  0  0  0  0  0
   -4.7883    3.0138   -2.7732 C   0  0  0  0  0  0  0  0  0  0  0  0
   -5.2337    3.4049    0.1551 H   0  0  0  0  0  0  0  0  0  0  0  0
   -4.7192    1.1682   -1.6549 H   0  0  0  0  0  0  0  0  0  0  0  0
   -4.6352    4.0886   -2.6221 H   0  0  0  0  0  0  0  0  0  0  0  0
   -4.0976    2.6887   -3.5582 H   0  0  0  0  0  0  0  0  0  0  0  0
   -5.8111    2.8719   -3.1387 H   0  0  0  0  0  0  0  0  0  0  0  0
   -2.2466    1.5400   -1.4507 N   0  0  0  0  0  0  0  0  0  0  0  0
   -0.8424    1.5707   -1.1286 C   0  0  2  0  0  0  0  0  0  0  0  0
   -0.4639    0.2602   -0.4416 C   0  0  0  0  0  0  0  0  0  0  0  0
   -0.4983    0.1091    0.7779 O   0  0  0  0  0  0  0  0  0  0  0  0
   -0.4569    2.8126   -0.3211 C   0  0  0  0  0  0  0  0  0  0  0  0
   -0.6621    4.3644   -1.2280 S   0  0  0  0  0  0  0  0  0  0  0  0
   -2.5850    0.7815   -2.0381 H   0  0  0  0  0  0  0  0  0  0  0  0
   -0.3196    1.6023   -2.0925 H   0  0  0  0  0  0  0  0  0  0  0  0
   -1.0620    2.8826    0.5887 H   0  0  0  0  0  0  0  0  0  0  0  0
    0.5930    2.7479   -0.0155 H   0  0  0  0  0  0  0  0  0  0  0  0
   -0.0603   -0.7100   -1.3480 N   0  0  0  0  0  0  0  0  0  0  0  0
    0.3702   -2.0267   -0.9396 C   0  0  2  0  0  0  0  0  0  0  0  0
    1.4288   -2.5023   -1.9258 C   0  0  0  0  0  0  0  0  0  0  0  0
    1.4083   -2.2170   -3.1213 O   0  0  0  0  0  0  0  0  0  0  0  0
   -0.7980   -2.9989   -0.8854 C   0  0  0  0  0  0  0  0  0  0  0  0
   -0.1040   -0.5133   -2.3435 H   0  0  0  0  0  0  0  0  0  0  0  0
    0.8182   -1.9188    0.0542 H   0  0  0  0  0  0  0  0  0  0  0  0
   -1.2597   -3.1198   -1.8721 H   0  0  0  0  0  0  0  0  0  0  0  0
   -0.4747   -3.9892   -0.5481 H   0  0  0  0  0  0  0  0  0  0  0  0
   -1.5718   -2.6403   -0.1981 H   0  0  0  0  0  0  0  0  0  0  0  0
    2.3754   -3.3183   -1.3222 N   0  0  0  0  0  0  0  0  0  0  0  0
    3.4588   -3.9301   -2.0555 C   0  0  0  0  0  0  0  0  0  0  0  0
    2.3381   -3.4688   -0.3183 H   0  0  0  0  0  0  0  0  0  0  0  0
    3.1554   -4.9329   -2.3905 H   0  0  0  0  0  0  0  0  0  0  0  0
    3.7052   -3.3104   -2.9304 H   0  0  0  0  0  0  0  0  0  0  0  0
    4.3416   -4.0126   -1.4044 H   0  0  0  0  0  0  0  0  0  0  0  0
  1  3  1  0  0  0  0
  1  7  1  0  0  0  0
  1  2  2  0  0  0  0
 23 25  1  0  0  0  0
 23 29  1  0  0  0  0
 23 24  2  0  0  0  0
 50 51  1  0  0  0  0
 51 59  1  0  0  0  0
 51 52  2  0  0  0  0
  8  9  1  0  0  0  0
  9 17  1  0  0  0  0
  9 10  2  0  0  0  0
 30 31  1  0  0  0  0
 31 39  1  0  0  0  0
 31 32  2  0  0  0  0
 40 41  1  0  0  0  0
 41 49  1  0  0  0  0
 41 42  2  0  0  0  0
 50 53  1  0  0  0  0
 30 33  1  0  0  0  0
 59 60  1  0  0  0  0
 17 18  1  0  0  0  0
  8 11  1  0  0  0  0
 11 12  1  0  0  0  0
 40 43  1  0  0  0  0
 43 44  1  0  0  0  0
 49 50  1  0  0  0  0
  7  8  1  0  0  0  0
 29 30  1  0  0  0  0
 39 40  1  0  0  0  0
 12 44  1  0  0  0  0
  3  4  1  0  0  0  0
  3  5  1  0  0  0  0
  3  6  1  0  0  0  0
 25 26  1  0  0  0  0
 25 27  1  0  0  0  0
 25 28  1  0  0  0  0
 53 56  1  0  0  0  0
 53 57  1  0  0  0  0
 53 58  1  0  0  0  0
 33 36  1  0  0  0  0
 33 37  1  0  0  0  0
 33 38  1  0  0  0  0
 60 62  1  0  0  0  0
 60 63  1  0  0  0  0
 60 64  1  0  0  0  0
 18 20  1  0  0  0  0
 18 21  1  0  0  0  0
 18 22  1  0  0  0  0
 11 15  1  0  0  0  0
 11 16  1  0  0  0  0
 43 47  1  0  0  0  0
 43 48  1  0  0  0  0
 50 55  1  0  0  0  0
  8 14  1  0  0  0  0
 30 35  1  0  0  0  0
 40 46  1  0  0  0  0
 59 61  1  0  0  0  0
 17 19  1  0  0  0  0
  7 13  1  0  0  0  0
 29 34  1  0  0  0  0
 49 54  1  0  0  0  0
 39 45  1  0  0  0  0
M  END
$$$$

  -OEChem-05262214473D

 64 63  0     1  0  0  0  0  0999 V2000
   -1.9438    9.4131    1.2088 C   0  0  0  0  0  0  0  0  0  0  0  0
   -3.1654    9.3258    1.1683 O   0  0  0  0  0  0  0  0  0  0  0  0
   -1.2802   10.6703    0.7535 C   0  0  0  0  0  0  0  0  0  0  0  0
   -1.0340   10.6508   -0.3203 H   0  0  0  0  0  0  0  0  0  0  0  0
   -1.9205   11.5567    0.8894 H   0  0  0  0  0  0  0  0  0  0  0  0
   -0.3346   10.9153    1.2632 H   0  0  0  0  0  0  0  0  0  0  0  0
   -1.0670    8.4368    1.6495 N   0  0  0  0  0  0  0  0  0  0  0  0
   -1.4954    7.1489    2.1335 C   0  0  2  0  0  0  0  0  0  0  0  0
   -0.5579    6.7050    3.2545 C   0  0  0  0  0  0  0  0  0  0  0  0
    0.4548    7.3282    3.5666 O   0  0  0  0  0  0  0  0  0  0  0  0
   -1.6278    6.1186    1.0093 C   0  0  0  0  0  0  0  0  0  0  0  0
   -0.0560    5.7472    0.1644 S   0  0  0  0  0  0  0  0  0  0  0  0
   -0.0698    8.6387    1.6307 H   0  0  0  0  0  0  0  0  0  0  0  0
   -2.4854    7.3149    2.5762 H   0  0  0  0  0  0  0  0  0  0  0  0
   -2.0217    5.1739    1.3981 H   0  0  0  0  0  0  0  0  0  0  0  0
   -2.3297    6.4820    0.2509 H   0  0  0  0  0  0  0  0  0  0  0  0
   -0.9717    5.5202    3.8466 N   0  0  0  0  0  0  0  0  0  0  0  0
   -0.2364    4.8849    4.9150 C   0  0  0  0  0  0  0  0  0  0  0  0
   -1.8463    5.0942    3.5546 H   0  0  0  0  0  0  0  0  0  0  0  0
    0.4625    4.1481    4.4923 H   0  0  0  0  0  0  0  0  0  0  0  0
    0.3274    5.6457    5.4748 H   0  0  0  0  0  0  0  0  0  0  0  0
   -0.9390    4.3771    5.5921 H   0  0  0  0  0  0  0  0  0  0  0  0
   -6.7256    2.0330   -0.2766 C   0  0  0  0  0  0  0  0  0  0  0  0
   -7.1824    1.1039   -0.9322 O   0  0  0  0  0  0  0  0  0  0  0  0
   -7.5276    2.6077    0.8435 C   0  0  0  0  0  0  0  0  0  0  0  0
   -8.1775    3.4344    0.5145 H   0  0  0  0  0  0  0  0  0  0  0  0
   -8.2057    1.8676    1.2980 H   0  0  0  0  0  0  0  0  0  0  0  0
   -6.9411    3.0162    1.6819 H   0  0  0  0  0  0  0  0  0  0  0  0
   -5.4935    2.6382   -0.4627 N   0  0  0  0  0  0  0  0  0  0  0  0
   -4.5619    2.2388   -1.4845 C   0  0  2  0  0  0  0  0  0  0  0  0
   -3.1535    2.4674   -0.9521 C   0  0  0  0  0  0  0  0  0  0  0  0
   -2.8634    3.3945   -0.1987 O   0  0  0  0  0  0  0  0  0  0  0  0
   -4.7883    3.0138   -2.7732 C   0  0  0  0  0  0  0  0  0  0  0  0
   -5.2337    3.4049    0.1551 H   0  0  0  0  0  0  0  0  0  0  0  0
   -4.7192    1.1682   -1.6549 H   0  0  0  0  0  0  0  0  0  0  0  0
   -4.6352    4.0886   -2.6221 H   0  0  0  0  0  0  0  0  0  0  0  0
   -4.0976    2.6887   -3.5582 H   0  0  0  0  0  0  0  0  0  0  0  0
   -5.8111    2.8719   -3.1387 H   0  0  0  0  0  0  0  0  0  0  0  0
   -2.2466    1.5400   -1.4507 N   0  0  0  0  0  0  0  0  0  0  0  0
   -0.8424    1.5707   -1.1286 C   0  0  2  0  0  0  0  0  0  0  0  0
   -0.4639    0.2602   -0.4416 C   0  0  0  0  0  0  0  0  0  0  0  0
   -0.7447    0.0124    0.7293 O   0  0  0  0  0  0  0  0  0  0  0  0
   -0.4569    2.8126   -0.3211 C   0  0  0  0  0  0  0  0  0  0  0  0
   -0.6621    4.3644   -1.2280 S   0  0  0  0  0  0  0  0  0  0  0  0
   -2.5850    0.7815   -2.0381 H   0  0  0  0  0  0  0  0  0  0  0  0
   -0.3196    1.6023   -2.0925 H   0  0  0  0  0  0  0  0  0  0  0  0
   -1.0620    2.8826    0.5887 H   0  0  0  0  0  0  0  0  0  0  0  0
    0.5930    2.7479   -0.0155 H   0  0  0  0  0  0  0  0  0  0  0  0
    0.2446   -0.5872   -1.2817 N   0  0  0  0  0  0  0  0  0  0  0  0
    0.7350   -1.8766   -0.8543 C   0  0  2  0  0  0  0  0  0  0  0  0
    2.0339   -2.1562   -1.5988 C   0  0  0  0  0  0  0  0  0  0  0  0
    2.2397   -1.7832   -2.7519 O   0  0  0  0  0  0  0  0  0  0  0  0
   -0.2875   -2.9717   -1.1150 C   0  0  0  0  0  0  0  0  0  0  0  0
    0.3953   -0.3200   -2.2500 H   0  0  0  0  0  0  0  0  0  0  0  0
    0.9384   -1.7976    0.2192 H   0  0  0  0  0  0  0  0  0  0  0  0
   -0.5041   -3.0657   -2.1854 H   0  0  0  0  0  0  0  0  0  0  0  0
    0.0743   -3.9440   -0.7644 H   0  0  0  0  0  0  0  0  0  0  0  0
   -1.2309   -2.7540   -0.6029 H   0  0  0  0  0  0  0  0  0  0  0  0
    2.9193   -2.9082   -0.8394 N   0  0  0  0  0  0  0  0  0  0  0  0
    4.2038   -3.3395   -1.3393 C   0  0  0  0  0  0  0  0  0  0  0  0
    2.6827   -3.1390    0.1211 H   0  0  0  0  0  0  0  0  0  0  0  0
    4.1072   -4.3405   -1.7849 H   0  0  0  0  0  0  0  0  0  0  0  0
    4.5566   -2.6308   -2.1031 H   0  0  0  0  0  0  0  0  0  0  0  0
    4.9264   -3.3753   -0.5107 H   0  0  0  0  0  0  0  0  0  0  0  0
  1  3  1  0  0  0  0
  1  7  1  0  0  0  0
  1  2  2  0  0  0  0
 23 25  1  0  0  0  0
 23 29  1  0  0  0  0
 23 24  2  0  0  0  0
 50 51  1  0  0  0  0
 51 59  1  0  0  0  0
 51 52  2  0  0  0  0
  8  9  1  0  0  0  0
  9 17  1  0  0  0  0
  9 10  2  0  0  0  0
 30 31  1  0  0  0  0
 31 39  1  0  0  0  0
 31 32  2  0  0  0  0
 40 41  1  0  0  0  0
 41 49  1  0  0  0  0
 41 42  2  0  0  0  0
 50 53  1  0  0  0  0
 30 33  1  0  0  0  0
 59 60  1  0  0  0  0
 17 18  1  0  0  0  0
  8 11  1  0  0  0  0
 11 12  1  0  0  0  0
 40 43  1  0  0  0  0
 43 44  1  0  0  0  0
 49 50  1  0  0  0  0
  7  8  1  0  0  0  0
 29 30  1  0  0  0  0
 39 40  1  0  0  0  0
 12 44  1  0  0  0  0
  3  4  1  0  0  0  0
  3  5  1  0  0  0  0
  3  6  1  0  0  0  0
 25 26  1  0  0  0  0
 25 27  1  0  0  0  0
 25 28  1  0  0  0  0
 53 56  1  0  0  0  0
 53 57  1  0  0  0  0
 53 58  1  0  0  0  0
 33 36  1  0  0  0  0
 33 37  1  0  0  0  0
 33 38  1  0  0  0  0
 60 62  1  0  0  0  0
 60 63  1  0  0  0  0
 60 64  1  0  0  0  0
 18 20  1  0  0  0  0
 18 21  1  0  0  0  0
 18 22  1  0  0  0  0
 11 15  1  0  0  0  0
 11 16  1  0  0  0  0
 43 47  1  0  0  0  0
 43 48  1  0  0  0  0
 50 55  1  0  0  0  0
  8 14  1  0  0  0  0
 30 35  1  0  0  0  0
 40 46  1  0  0  0  0
 59 61  1  0  0  0  0
 17 19  1  0  0  0  0
  7 13  1  0  0  0  0
 29 34  1  0  0  0  0
 49 54  1  0  0  0  0
 39 45  1  0  0  0  0
M  END
$$$$

  -OEChem-05262214473D

 64 63  0     1  0  0  0  0  0999 V2000
   -1.9438    9.4131    1.2088 C   0  0  0  0  0  0  0  0  0  0  0  0
   -3.1654    9.3258    1.1683 O   0  0  0  0  0  0  0  0  0  0  0  0
   -1.2802   10.6703    0.7535 C   0  0  0  0  0  0  0  0  0  0  0  0
   -1.0340   10.6508   -0.3203 H   0  0  0  0  0  0  0  0  0  0  0  0
   -1.9205   11.5567    0.8894 H   0  0  0  0  0  0  0  0  0  0  0  0
   -0.3346   10.9153    1.2632 H   0  0  0  0  0  0  0  0  0  0  0  0
   -1.0670    8.4368    1.6495 N   0  0  0  0  0  0  0  0  0  0  0  0
   -1.4954    7.1489    2.1335 C   0  0  2  0  0  0  0  0  0  0  0  0
   -0.5579    6.7050    3.2545 C   0  0  0  0  0  0  0  0  0  0  0  0
    0.4548    7.3282    3.5666 O   0  0  0  0  0  0  0  0  0  0  0  0
   -1.6278    6.1186    1.0093 C   0  0  0  0  0  0  0  0  0  0  0  0
   -0.0560    5.7472    0.1644 S   0  0  0  0  0  0  0  0  0  0  0  0
   -0.0698    8.6387    1.6307 H   0  0  0  0  0  0  0  0  0  0  0  0
   -2.4854    7.3149    2.5762 H   0  0  0  0  0  0  0  0  0  0  0  0
   -2.0217    5.1739    1.3981 H   0  0  0  0  0  0  0  0  0  0  0  0
   -2.3297    6.4820    0.2509 H   0  0  0  0  0  0  0  0  0  0  0  0
   -0.9717    5.5202    3.8466 N   0  0  0  0  0  0  0  0  0  0  0  0
   -0.2364    4.8849    4.9150 C   0  0  0  0  0  0  0  0  0  0  0  0
   -1.8463    5.0942    3.5546 H   0  0  0  0  0  0  0  0  0  0  0  0
    0.4625    4.1481    4.4923 H   0  0  0  0  0  0  0  0  0  0  0  0
    0.3274    5.6457    5.4748 H   0  0  0  0  0  0  0  0  0  0  0  0
   -0.9390    4.3771    5.5921 H   0  0  0  0  0  0  0  0  0  0  0  0
   -6.7256    2.0330   -0.2766 C   0  0  0  0  0  0  0  0  0  0  0  0
   -7.1824    1.1039   -0.9322 O   0  0  0  0  0  0  0  0  0  0  0  0
   -7.5276    2.6077    0.8435 C   0  0  0  0  0  0  0  0  0  0  0  0
   -8.1775    3.4344    0.5145 H   0  0  0  0  0  0  0  0  0  0  0  0
   -8.2057    1.8676    1.2980 H   0  0  0  0  0  0  0  0  0  0  0  0
   -6.9411    3.0162    1.6819 H   0  0  0  0  0  0  0  0  0  0  0  0
   -5.4935    2.6382   -0.4627 N   0  0  0  0  0  0  0  0  0  0  0  0
   -4.5619    2.2388   -1.4845 C   0  0  2  0  0  0  0  0  0  0  0  0
   -3.1535    2.4674   -0.9521 C   0  0  0  0  0  0  0  0  0  0  0  0
   -2.8634    3.3945   -0.1987 O   0  0  0  0  0  0  0  0  0  0  0  0
   -4.7883    3.0138   -2.7732 C   0  0  0  0  0  0  0  0  0  0  0  0
   -5.2337    3.4049    0.1551 H   0  0  0  0  0  0  0  0  0  0  0  0
   -4.7192    1.1682   -1.6549 H   0  0  0  0  0  0  0  0  0  0  0  0
   -4.6352    4.0886   -2.6221 H   0  0  0  0  0  0  0  0  0  0  0  0
   -4.0976    2.6887   -3.5582 H   0  0  0  0  0  0  0  0  0  0  0  0
   -5.8111    2.8719   -3.1387 H   0  0  0  0  0  0  0  0  0  0  0  0
   -2.2466    1.5400   -1.4507 N   0  0  0  0  0  0  0  0  0  0  0  0
   -0.8424    1.5707   -1.1286 C   0  0  2  0  0  0  0  0  0  0  0  0
   -0.4639    0.2602   -0.4416 C   0  0  0  0  0  0  0  0  0  0  0  0
   -0.9607   -0.1065    0.6214 O   0  0  0  0  0  0  0  0  0  0  0  0
   -0.4569    2.8126   -0.3211 C   0  0  0  0  0  0  0  0  0  0  0  0
   -0.6621    4.3644   -1.2280 S   0  0  0  0  0  0  0  0  0  0  0  0
   -2.5850    0.7815   -2.0381 H   0  0  0  0  0  0  0  0  0  0  0  0
   -0.3196    1.6023   -2.0925 H   0  0  0  0  0  0  0  0  0  0  0  0
   -1.0620    2.8826    0.5887 H   0  0  0  0  0  0  0  0  0  0  0  0
    0.5930    2.7479   -0.0155 H   0  0  0  0  0  0  0  0  0  0  0  0
    0.5101   -0.4373   -1.1420 N   0  0  0  0  0  0  0  0  0  0  0  0
    1.0509   -1.6947   -0.6812 C   0  0  2  0  0  0  0  0  0  0  0  0
    2.5054   -1.7723   -1.1264 C   0  0  0  0  0  0  0  0  0  0  0  0
    2.9102   -1.2912   -2.1826 O   0  0  0  0  0  0  0  0  0  0  0  0
    0.2535   -2.8714   -1.2217 C   0  0  0  0  0  0  0  0  0  0  0  0
    0.8343   -0.0812   -2.0363 H   0  0  0  0  0  0  0  0  0  0  0  0
    1.0038   -1.6772    0.4131 H   0  0  0  0  0  0  0  0  0  0  0  0
    0.2891   -2.9054   -2.3167 H   0  0  0  0  0  0  0  0  0  0  0  0
    0.6474   -3.8225   -0.8485 H   0  0  0  0  0  0  0  0  0  0  0  0
   -0.7985   -2.7982   -0.9255 H   0  0  0  0  0  0  0  0  0  0  0  0
    3.2897   -2.4797   -0.2260 N   0  0  0  0  0  0  0  0  0  0  0  0
    4.6956   -2.7282   -0.4441 C   0  0  0  0  0  0  0  0  0  0  0  0
    2.8795   -2.8085    0.6432 H   0  0  0  0  0  0  0  0  0  0  0  0
    4.8231   -3.6964   -0.9505 H   0  0  0  0  0  0  0  0  0  0  0  0
    5.1162   -1.9284   -1.0713 H   0  0  0  0  0  0  0  0  0  0  0  0
    5.2186   -2.7489    0.5234 H   0  0  0  0  0  0  0  0  0  0  0  0
  1  3  1  0  0  0  0
  1  7  1  0  0  0  0
  1  2  2  0  0  0  0
 23 25  1  0  0  0  0
 23 29  1  0  0  0  0
 23 24  2  0  0  0  0
 50 51  1  0  0  0  0
 51 59  1  0  0  0  0
 51 52  2  0  0  0  0
  8  9  1  0  0  0  0
  9 17  1  0  0  0  0
  9 10  2  0  0  0  0
 30 31  1  0  0  0  0
 31 39  1  0  0  0  0
 31 32  2  0  0  0  0
 40 41  1  0  0  0  0
 41 49  1  0  0  0  0
 41 42  2  0  0  0  0
 50 53  1  0  0  0  0
 30 33  1  0  0  0  0
 59 60  1  0  0  0  0
 17 18  1  0  0  0  0
  8 11  1  0  0  0  0
 11 12  1  0  0  0  0
 40 43  1  0  0  0  0
 43 44  1  0  0  0  0
 49 50  1  0  0  0  0
  7  8  1  0  0  0  0
 29 30  1  0  0  0  0
 39 40  1  0  0  0  0
 12 44  1  0  0  0  0
  3  4  1  0  0  0  0
  3  5  1  0  0  0  0
  3  6  1  0  0  0  0
 25 26  1  0  0  0  0
 25 27  1  0  0  0  0
 25 28  1  0  0  0  0
 53 56  1  0  0  0  0
 53 57  1  0  0  0  0
 53 58  1  0  0  0  0
 33 36  1  0  0  0  0
 33 37  1  0  0  0  0
 33 38  1  0  0  0  0
 60 62  1  0  0  0  0
 60 63  1  0  0  0  0
 60 64  1  0  0  0  0
 18 20  1  0  0  0  0
 18 21  1  0  0  0  0
 18 22  1  0  0  0  0
 11 15  1  0  0  0  0
 11 16  1  0  0  0  0
 43 47  1  0  0  0  0
 43 48  1  0  0  0  0
 50 55  1  0  0  0  0
  8 14  1  0  0  0  0
 30 35  1  0  0  0  0
 40 46  1  0  0  0  0
 59 61  1  0  0  0  0
 17 19  1  0  0  0  0
  7 13  1  0  0  0  0
 29 34  1  0  0  0  0
 49 54  1  0  0  0  0
 39 45  1  0  0  0  0
M  END
$$$$

  -OEChem-05262214473D

 64 63  0     1  0  0  0  0  0999 V2000
   -1.9438    9.4131    1.2088 C   0  0  0  0  0  0  0  0  0  0  0  0
   -3.1654    9.3258    1.1683 O   0  0  0  0  0  0  0  0  0  0  0  0
   -1.2802   10.6703    0.7535 C   0  0  0  0  0  0  0  0  0  0  0  0
   -1.0340   10.6508   -0.3203 H   0  0  0  0  0  0  0  0  0  0  0  0
   -1.9205   11.5567    0.8894 H   0  0  0  0  0  0  0  0  0  0  0  0
   -0.3346   10.9153    1.2632 H   0  0  0  0  0  0  0  0  0  0  0  0
   -1.0670    8.4368    1.6495 N   0  0  0  0  0  0  0  0  0  0  0  0
   -1.4954    7.1489    2.1335 C   0  0  2  0  0  0  0  0  0  0  0  0
   -0.5579    6.7050    3.2545 C   0  0  0  0  0  0  0  0  0  0  0  0
    0.4548    7.3282    3.5666 O   0  0  0  0  0  0  0  0  0  0  0  0
   -1.6278    6.1186    1.0093 C   0  0  0  0  0  0  0  0  0  0  0  0
   -0.0560    5.7472    0.1644 S   0  0  0  0  0  0  0  0  0  0  0  0
   -0.0698    8.6387    1.6307 H   0  0  0  0  0  0  0  0  0  0  0  0
   -2.4854    7.3149    2.5762 H   0  0  0  0  0  0  0  0  0  0  0  0
   -2.0217    5.1739    1.3981 H   0  0  0  0  0  0  0  0  0  0  0  0
   -2.3297    6.4820    0.2509 H   0  0  0  0  0  0  0  0  0  0  0  0
   -0.9717    5.5202    3.8466 N   0  0  0  0  0  0  0  0  0  0  0  0
   -0.2364    4.8849    4.9150 C   0  0  0  0  0  0  0  0  0  0  0  0
   -1.8463    5.0942    3.5546 H   0  0  0  0  0  0  0  0  0  0  0  0
    0.4625    4.1481    4.4923 H   0  0  0  0  0  0  0  0  0  0  0  0
    0.3274    5.6457    5.4748 H   0  0  0  0  0  0  0  0  0  0  0  0
   -0.9390    4.3771    5.5921 H   0  0  0  0  0  0  0  0  0  0  0  0
   -6.7256    2.0330   -0.2766 C   0  0  0  0  0  0  0  0  0  0  0  0
   -7.1824    1.1039   -0.9322 O   0  0  0  0  0  0  0  0  0  0  0  0
   -7.5276    2.6077    0.8435 C   0  0  0  0  0  0  0  0  0  0  0  0
   -8.1775    3.4344    0.5145 H   0  0  0  0  0  0  0  0  0  0  0  0
   -8.2057    1.8676    1.2980 H   0  0  0  0  0  0  0  0  0  0  0  0
   -6.9411    3.0162    1.6819 H   0  0  0  0  0  0  0  0  0  0  0  0
   -5.4935    2.6382   -0.4627 N   0  0  0  0  0  0  0  0  0  0  0  0
   -4.5619    2.2388   -1.4845 C   0  0  2  0  0  0  0  0  0  0  0  0
   -3.1535    2.4674   -0.9521 C   0  0  0  0  0  0  0  0  0  0  0  0
   -2.8634    3.3945   -0.1987 O   0  0  0  0  0  0  0  0  0  0  0  0
   -4.7883    3.0138   -2.7732 C   0  0  0  0  0  0  0  0  0  0  0  0
   -5.2337    3.4049    0.1551 H   0  0  0  0  0  0  0  0  0  0  0  0
   -4.7192    1.1682   -1.6549 H   0  0  0  0  0  0  0  0  0  0  0  0
   -4.6352    4.0886   -2.6221 H   0  0  0  0  0  0  0  0  0  0  0  0
   -4.0976    2.6887   -3.5582 H   0  0  0  0  0  0  0  0  0  0  0  0
   -5.8111    2.8719   -3.1387 H   0  0  0  0  0  0  0  0  0  0  0  0
   -2.2466    1.5400   -1.4507 N   0  0  0  0  0  0  0  0  0  0  0  0
   -0.8424    1.5707   -1.1286 C   0  0  2  0  0  0  0  0  0  0  0  0
   -0.4639    0.2602   -0.4416 C   0  0  0  0  0  0  0  0  0  0  0  0
   -1.1315   -0.2396    0.4616 O   0  0  0  0  0  0  0  0  0  0  0  0
   -0.4569    2.8126   -0.3211 C   0  0  0  0  0  0  0  0  0  0  0  0
   -0.6621    4.3644   -1.2280 S   0  0  0  0  0  0  0  0  0  0  0  0
   -2.5850    0.7815   -2.0381 H   0  0  0  0  0  0  0  0  0  0  0  0
   -0.3196    1.6023   -2.0925 H   0  0  0  0  0  0  0  0  0  0  0  0
   -1.0620    2.8826    0.5887 H   0  0  0  0  0  0  0  0  0  0  0  0
    0.5930    2.7479   -0.0155 H   0  0  0  0  0  0  0  0  0  0  0  0
    0.7180   -0.2706   -0.9386 N   0  0  0  0  0  0  0  0  0  0  0  0
    1.2965   -1.4932   -0.4322 C   0  0  2  0  0  0  0  0  0  0  0  0
    2.8112   -1.3770   -0.5407 C   0  0  0  0  0  0  0  0  0  0  0  0
    3.3741   -0.7743   -1.4523 O   0  0  0  0  0  0  0  0  0  0  0  0
    0.7881   -2.7046   -1.1981 C   0  0  0  0  0  0  0  0  0  0  0  0
    1.1831    0.1868   -1.7172 H   0  0  0  0  0  0  0  0  0  0  0  0
    1.0098   -1.5656    0.6226 H   0  0  0  0  0  0  0  0  0  0  0  0
    1.0657   -2.6499   -2.2571 H   0  0  0  0  0  0  0  0  0  0  0  0
    1.2055   -3.6331   -0.7946 H   0  0  0  0  0  0  0  0  0  0  0  0
   -0.3040   -2.7698   -1.1439 H   0  0  0  0  0  0  0  0  0  0  0  0
    3.4613   -2.0620    0.4763 N   0  0  0  0  0  0  0  0  0  0  0  0
    4.9006   -2.1380    0.5690 C   0  0  0  0  0  0  0  0  0  0  0  0
    2.9152   -2.4998    1.2124 H   0  0  0  0  0  0  0  0  0  0  0  0
    5.2543   -3.0444    0.0558 H   0  0  0  0  0  0  0  0  0  0  0  0
    5.3458   -1.2509    0.0946 H   0  0  0  0  0  0  0  0  0  0  0  0
    5.1983   -2.1761    1.6273 H   0  0  0  0  0  0  0  0  0  0  0  0
  1  3  1  0  0  0  0
  1  7  1  0  0  0  0
  1  2  2  0  0  0  0
 23 25  1  0  0  0  0
 23 29  1  0  0  0  0
 23 24  2  0  0  0  0
 50 51  1  0  0  0  0
 51 59  1  0  0  0  0
 51 52  2  0  0  0  0
  8  9  1  0  0  0  0
  9 17  1  0  0  0  0
  9 10  2  0  0  0  0
 30 31  1  0  0  0  0
 31 39  1  0  0  0  0
 31 32  2  0  0  0  0
 40 41  1  0  0  0  0
 41 49  1  0  0  0  0
 41 42  2  0  0  0  0
 50 53  1  0  0  0  0
 30 33  1  0  0  0  0
 59 60  1  0  0  0  0
 17 18  1  0  0  0  0
  8 11  1  0  0  0  0
 11 12  1  0  0  0  0
 40 43  1  0  0  0  0
 43 44  1  0  0  0  0
 49 50  1  0  0  0  0
  7  8  1  0  0  0  0
 29 30  1  0  0  0  0
 39 40  1  0  0  0  0
 12 44  1  0  0  0  0
  3  4  1  0  0  0  0
  3  5  1  0  0  0  0
  3  6  1  0  0  0  0
 25 26  1  0  0  0  0
 25 27  1  0  0  0  0
 25 28  1  0  0  0  0
 53 56  1  0  0  0  0
 53 57  1  0  0  0  0
 53 58  1  0  0  0  0
 33 36  1  0  0  0  0
 33 37  1  0  0  0  0
 33 38  1  0  0  0  0
 60 62  1  0  0  0  0
 60 63  1  0  0  0  0
 60 64  1  0  0  0  0
 18 20  1  0  0  0  0
 18 21  1  0  0  0  0
 18 22  1  0  0  0  0
 11 15  1  0  0  0  0
 11 16  1  0  0  0  0
 43 47  1  0  0  0  0
 43 48  1  0  0  0  0
 50 55  1  0  0  0  0
  8 14  1  0  0  0  0
 30 35  1  0  0  0  0
 40 46  1  0  0  0  0
 59 61  1  0  0  0  0
 17 19  1  0  0  0  0
  7 13  1  0  0  0  0
 29 34  1  0  0  0  0
 49 54  1  0  0  0  0
 39 45  1  0  0  0  0
M  END
$$$$

  -OEChem-05262214473D

 64 63  0     1  0  0  0  0  0999 V2000
   -1.9438    9.4131    1.2088 C   0  0  0  0  0  0  0  0  0  0  0  0
   -3.1654    9.3258    1.1683 O   0  0  0  0  0  0  0  0  0  0  0  0
   -1.2802   10.6703    0.7535 C   0  0  0  0  0  0  0  0  0  0  0  0
   -1.0340   10.6508   -0.3203 H   0  0  0  0  0  0  0  0  0  0  0  0
   -1.9205   11.5567    0.8894 H   0  0  0  0  0  0  0  0  0  0  0  0
   -0.3346   10.9153    1.2632 H   0  0  0  0  0  0  0  0  0  0  0  0
   -1.0670    8.4368    1.6495 N   0  0  0  0  0  0  0  0  0  0  0  0
   -1.4954    7.1489    2.1335 C   0  0  2  0  0  0  0  0  0  0  0  0
   -0.5579    6.7050    3.2545 C   0  0  0  0  0  0  0  0  0  0  0  0
    0.4548    7.3282    3.5666 O   0  0  0  0  0  0  0  0  0  0  0  0
   -1.6278    6.1186    1.0093 C   0  0  0  0  0  0  0  0  0  0  0  0
   -0.0560    5.7472    0.1644 S   0  0  0  0  0  0  0  0  0  0  0  0
   -0.0698    8.6387    1.6307 H   0  0  0  0  0  0  0  0  0  0  0  0
   -2.4854    7.3149    2.5762 H   0  0  0  0  0  0  0  0  0  0  0  0
   -2.0217    5.1739    1.3981 H   0  0  0  0  0  0  0  0  0  0  0  0
   -2.3297    6.4820    0.2509 H   0  0  0  0  0  0  0  0  0  0  0  0
   -0.9717    5.5202    3.8466 N   0  0  0  0  0  0  0  0  0  0  0  0
   -0.2364    4.8849    4.9150 C   0  0  0  0  0  0  0  0  0  0  0  0
   -1.8463    5.0942    3.5546 H   0  0  0  0  0  0  0  0  0  0  0  0
    0.4625    4.1481    4.4923 H   0  0  0  0  0  0  0  0  0  0  0  0
    0.3274    5.6457    5.4748 H   0  0  0  0  0  0  0  0  0  0  0  0
   -0.9390    4.3771    5.5921 H   0  0  0  0  0  0  0  0  0  0  0  0
   -6.7256    2.0330   -0.2766 C   0  0  0  0  0  0  0  0  0  0  0  0
   -7.1824    1.1039   -0.9322 O   0  0  0  0  0  0  0  0  0  0  0  0
   -7.5276    2.6077    0.8435 C   0  0  0  0  0  0  0  0  0  0  0  0
   -8.1775    3.4344    0.5145 H   0  0  0  0  0  0  0  0  0  0  0  0
   -8.2057    1.8676    1.2980 H   0  0  0  0  0  0  0  0  0  0  0  0
   -6.9411    3.0162    1.6819 H   0  0  0  0  0  0  0  0  0  0  0  0
   -5.4935    2.6382   -0.4627 N   0  0  0  0  0  0  0  0  0  0  0  0
   -4.5619    2.2388   -1.4845 C   0  0  2  0  0  0  0  0  0  0  0  0
   -3.1535    2.4674   -0.9521 C   0  0  0  0  0  0  0  0  0  0  0  0
   -2.8634    3.3945   -0.1987 O   0  0  0  0  0  0  0  0  0  0  0  0
   -4.7883    3.0138   -2.7732 C   0  0  0  0  0  0  0  0  0  0  0  0
   -5.2337    3.4049    0.1551 H   0  0  0  0  0  0  0  0  0  0  0  0
   -4.7192    1.1682   -1.6549 H   0  0  0  0  0  0  0  0  0  0  0  0
   -4.6352    4.0886   -2.6221 H   0  0  0  0  0  0  0  0  0  0  0  0
   -4.0976    2.6887   -3.5582 H   0  0  0  0  0  0  0  0  0  0  0  0
   -5.8111    2.8719   -3.1387 H   0  0  0  0  0  0  0  0  0  0  0  0
   -2.2466    1.5400   -1.4507 N   0  0  0  0  0  0  0  0  0  0  0  0
   -0.8424    1.5707   -1.1286 C   0  0  2  0  0  0  0  0  0  0  0  0
   -0.4639    0.2602   -0.4416 C   0  0  0  0  0  0  0  0  0  0  0  0
   -1.2455   -0.3779    0.2607 O   0  0  0  0  0  0  0  0  0  0  0  0
   -0.4569    2.8126   -0.3211 C   0  0  0  0  0  0  0  0  0  0  0  0
   -0.6621    4.3644   -1.2280 S   0  0  0  0  0  0  0  0  0  0  0  0
   -2.5850    0.7815   -2.0381 H   0  0  0  0  0  0  0  0  0  0  0  0
   -0.3196    1.6023   -2.0925 H   0  0  0  0  0  0  0  0  0  0  0  0
   -1.0620    2.8826    0.5887 H   0  0  0  0  0  0  0  0  0  0  0  0
    0.5930    2.7479   -0.0155 H   0  0  0  0  0  0  0  0  0  0  0  0
    0.8543   -0.0984   -0.6852 N   0  0  0  0  0  0  0  0  0  0  0  0
    1.4550   -1.2860   -0.1243 C   0  0  2  0  0  0  0  0  0  0  0  0
    2.9305   -0.9972    0.1183 C   0  0  0  0  0  0  0  0  0  0  0  0
    3.5999   -0.2680   -0.6106 O   0  0  0  0  0  0  0  0  0  0  0  0
    1.2798   -2.4829   -1.0460 C   0  0  0  0  0  0  0  0  0  0  0  0
    1.4179    0.4658   -1.3142 H   0  0  0  0  0  0  0  0  0  0  0  0
    0.9561   -1.4706    0.8334 H   0  0  0  0  0  0  0  0  0  0  0  0
    1.7729   -2.3164   -2.0106 H   0  0  0  0  0  0  0  0  0  0  0  0
    1.7106   -3.3886   -0.6065 H   0  0  0  0  0  0  0  0  0  0  0  0
    0.2188   -2.6709   -1.2432 H   0  0  0  0  0  0  0  0  0  0  0  0
    3.4226   -1.6836    1.2196 N   0  0  0  0  0  0  0  0  0  0  0  0
    4.8050   -1.6090    1.6310 C   0  0  0  0  0  0  0  0  0  0  0  0
    2.7874   -2.2340    1.7900 H   0  0  0  0  0  0  0  0  0  0  0  0
    5.3714   -2.4290    1.1654 H   0  0  0  0  0  0  0  0  0  0  0  0
    5.2298   -0.6446    1.3153 H   0  0  0  0  0  0  0  0  0  0  0  0
    4.8669   -1.6961    2.7258 H   0  0  0  0  0  0  0  0  0  0  0  0
  1  3  1  0  0  0  0
  1  7  1  0  0  0  0
  1  2  2  0  0  0  0
 23 25  1  0  0  0  0
 23 29  1  0  0  0  0
 23 24  2  0  0  0  0
 50 51  1  0  0  0  0
 51 59  1  0  0  0  0
 51 52  2  0  0  0  0
  8  9  1  0  0  0  0
  9 17  1  0  0  0  0
  9 10  2  0  0  0  0
 30 31  1  0  0  0  0
 31 39  1  0  0  0  0
 31 32  2  0  0  0  0
 40 41  1  0  0  0  0
 41 49  1  0  0  0  0
 41 42  2  0  0  0  0
 50 53  1  0  0  0  0
 30 33  1  0  0  0  0
 59 60  1  0  0  0  0
 17 18  1  0  0  0  0
  8 11  1  0  0  0  0
 11 12  1  0  0  0  0
 40 43  1  0  0  0  0
 43 44  1  0  0  0  0
 49 50  1  0  0  0  0
  7  8  1  0  0  0  0
 29 30  1  0  0  0  0
 39 40  1  0  0  0  0
 12 44  1  0  0  0  0
  3  4  1  0  0  0  0
  3  5  1  0  0  0  0
  3  6  1  0  0  0  0
 25 26  1  0  0  0  0
 25 27  1  0  0  0  0
 25 28  1  0  0  0  0
 53 56  1  0  0  0  0
 53 57  1  0  0  0  0
 53 58  1  0  0  0  0
 33 36  1  0  0  0  0
 33 37  1  0  0  0  0
 33 38  1  0  0  0  0
 60 62  1  0  0  0  0
 60 63  1  0  0  0  0
 60 64  1  0  0  0  0
 18 20  1  0  0  0  0
 18 21  1  0  0  0  0
 18 22  1  0  0  0  0
 11 15  1  0  0  0  0
 11 16  1  0  0  0  0
 43 47  1  0  0  0  0
 43 48  1  0  0  0  0
 50 55  1  0  0  0  0
  8 14  1  0  0  0  0
 30 35  1  0  0  0  0
 40 46  1  0  0  0  0
 59 61  1  0  0  0  0
 17 19  1  0  0  0  0
  7 13  1  0  0  0  0
 29 34  1  0  0  0  0
 49 54  1  0  0  0  0
 39 45  1  0  0  0  0
M  END
$$$$

  -OEChem-05262214473D

 64 63  0     1  0  0  0  0  0999 V2000
   -1.9438    9.4131    1.2088 C   0  0  0  0  0  0  0  0  0  0  0  0
   -3.1654    9.3258    1.1683 O   0  0  0  0  0  0  0  0  0  0  0  0
   -1.2802   10.6703    0.7535 C   0  0  0  0  0  0  0  0  0  0  0  0
   -1.0340   10.6508   -0.3203 H   0  0  0  0  0  0  0  0  0  0  0  0
   -1.9205   11.5567    0.8894 H   0  0  0  0  0  0  0  0  0  0  0  0
   -0.3346   10.9153    1.2632 H   0  0  0  0  0  0  0  0  0  0  0  0
   -1.0670    8.4368    1.6495 N   0  0  0  0  0  0  0  0  0  0  0  0
   -1.4954    7.1489    2.1335 C   0  0  2  0  0  0  0  0  0  0  0  0
   -0.5579    6.7050    3.2545 C   0  0  0  0  0  0  0  0  0  0  0  0
    0.4548    7.3282    3.5666 O   0  0  0  0  0  0  0  0  0  0  0  0
   -1.6278    6.1186    1.0093 C   0  0  0  0  0  0  0  0  0  0  0  0
   -0.0560    5.7472    0.1644 S   0  0  0  0  0  0  0  0  0  0  0  0
   -0.0698    8.6387    1.6307 H   0  0  0  0  0  0  0  0  0  0  0  0
   -2.4854    7.3149    2.5762 H   0  0  0  0  0  0  0  0  0  0  0  0
   -2.0217    5.1739    1.3981 H   0  0  0  0  0  0  0  0  0  0  0  0
   -2.3297    6.4820    0.2509 H   0  0  0  0  0  0  0  0  0  0  0  0
   -0.9717    5.5202    3.8466 N   0  0  0  0  0  0  0  0  0  0  0  0
   -0.2364    4.8849    4.9150 C   0  0  0  0  0  0  0  0  0  0  0  0
   -1.8463    5.0942    3.5546 H   0  0  0  0  0  0  0  0  0  0  0  0
    0.4625    4.1481    4.4923 H   0  0  0  0  0  0  0  0  0  0  0  0
    0.3274    5.6457    5.4748 H   0  0  0  0  0  0  0  0  0  0  0  0
   -0.9390    4.3771    5.5921 H   0  0  0  0  0  0  0  0  0  0  0  0
   -6.7256    2.0330   -0.2766 C   0  0  0  0  0  0  0  0  0  0  0  0
   -7.1824    1.1039   -0.9322 O   0  0  0  0  0  0  0  0  0  0  0  0
   -7.5276    2.6077    0.8435 C   0  0  0  0  0  0  0  0  0  0  0  0
   -8.1775    3.4344    0.5145 H   0  0  0  0  0  0  0  0  0  0  0  0
   -8.2057    1.8676    1.2980 H   0  0  0  0  0  0  0  0  0  0  0  0
   -6.9411    3.0162    1.6819 H   0  0  0  0  0  0  0  0  0  0  0  0
   -5.4935    2.6382   -0.4627 N   0  0  0  0  0  0  0  0  0  0  0  0
   -4.5619    2.2388   -1.4845 C   0  0  2  0  0  0  0  0  0  0  0  0
   -3.1535    2.4674   -0.9521 C   0  0  0  0  0  0  0  0  0  0  0  0
   -2.8634    3.3945   -0.1987 O   0  0  0  0  0  0  0  0  0  0  0  0
   -4.7883    3.0138   -2.7732 C   0  0  0  0  0  0  0  0  0  0  0  0
   -5.2337    3.4049    0.1551 H   0  0  0  0  0  0  0  0  0  0  0  0
   -4.7192    1.1682   -1.6549 H   0  0  0  0  0  0  0  0  0  0  0  0
   -4.6352    4.0886   -2.6221 H   0  0  0  0  0  0  0  0  0  0  0  0
   -4.0976    2.6887   -3.5582 H   0  0  0  0  0  0  0  0  0  0  0  0
   -5.8111    2.8719   -3.1387 H   0  0  0  0  0  0  0  0  0  0  0  0
   -2.2466    1.5400   -1.4507 N   0  0  0  0  0  0  0  0  0  0  0  0
   -0.8424    1.5707   -1.1286 C   0  0  2  0  0  0  0  0  0  0  0  0
   -0.4639    0.2602   -0.4416 C   0  0  0  0  0  0  0  0  0  0  0  0
   -1.2950   -0.5117    0.0325 O   0  0  0  0  0  0  0  0  0  0  0  0
   -0.4569    2.8126   -0.3211 C   0  0  0  0  0  0  0  0  0  0  0  0
   -0.6621    4.3644   -1.2280 S   0  0  0  0  0  0  0  0  0  0  0  0
   -2.5850    0.7815   -2.0381 H   0  0  0  0  0  0  0  0  0  0  0  0
   -0.3196    1.6023   -2.0925 H   0  0  0  0  0  0  0  0  0  0  0  0
   -1.0620    2.8826    0.5887 H   0  0  0  0  0  0  0  0  0  0  0  0
    0.5930    2.7479   -0.0155 H   0  0  0  0  0  0  0  0  0  0  0  0
    0.9097    0.0675   -0.3991 N   0  0  0  0  0  0  0  0  0  0  0  0
    1.5155   -1.0872    0.2217 C   0  0  2  0  0  0  0  0  0  0  0  0
    2.8552   -0.6586    0.8057 C   0  0  0  0  0  0  0  0  0  0  0  0
    3.5721    0.1934    0.2850 O   0  0  0  0  0  0  0  0  0  0  0  0
    1.6951   -2.2212   -0.7756 C   0  0  0  0  0  0  0  0  0  0  0  0
    1.5228    0.7368   -0.8549 H   0  0  0  0  0  0  0  0  0  0  0  0
    0.8464   -1.3986    1.0313 H   0  0  0  0  0  0  0  0  0  0  0  0
    2.3625   -1.9278   -1.5941 H   0  0  0  0  0  0  0  0  0  0  0  0
    2.1282   -3.1057   -0.2969 H   0  0  0  0  0  0  0  0  0  0  0  0
    0.7344   -2.5081   -1.2167 H   0  0  0  0  0  0  0  0  0  0  0  0
    3.1760   -1.3703    1.9532 N   0  0  0  0  0  0  0  0  0  0  0  0
    4.4152   -1.1772    2.6695 C   0  0  0  0  0  0  0  0  0  0  0  0
    2.5047   -2.0292    2.3365 H   0  0  0  0  0  0  0  0  0  0  0  0
    5.1665   -1.8921    2.3027 H   0  0  0  0  0  0  0  0  0  0  0  0
    4.7761   -0.1508    2.5075 H   0  0  0  0  0  0  0  0  0  0  0  0
    4.2469   -1.3414    3.7440 H   0  0  0  0  0  0  0  0  0  0  0  0
  1  3  1  0  0  0  0
  1  7  1  0  0  0  0
  1  2  2  0  0  0  0
 23 25  1  0  0  0  0
 23 29  1  0  0  0  0
 23 24  2  0  0  0  0
 50 51  1  0  0  0  0
 51 59  1  0  0  0  0
 51 52  2  0  0  0  0
  8  9  1  0  0  0  0
  9 17  1  0  0  0  0
  9 10  2  0  0  0  0
 30 31  1  0  0  0  0
 31 39  1  0  0  0  0
 31 32  2  0  0  0  0
 40 41  1  0  0  0  0
 41 49  1  0  0  0  0
 41 42  2  0  0  0  0
 50 53  1  0  0  0  0
 30 33  1  0  0  0  0
 59 60  1  0  0  0  0
 17 18  1  0  0  0  0
  8 11  1  0  0  0  0
 11 12  1  0  0  0  0
 40 43  1  0  0  0  0
 43 44  1  0  0  0  0
 49 50  1  0  0  0  0
  7  8  1  0  0  0  0
 29 30  1  0  0  0  0
 39 40  1  0  0  0  0
 12 44  1  0  0  0  0
  3  4  1  0  0  0  0
  3  5  1  0  0  0  0
  3  6  1  0  0  0  0
 25 26  1  0  0  0  0
 25 27  1  0  0  0  0
 25 28  1  0  0  0  0
 53 56  1  0  0  0  0
 53 57  1  0  0  0  0
 53 58  1  0  0  0  0
 33 36  1  0  0  0  0
 33 37  1  0  0  0  0
 33 38  1  0  0  0  0
 60 62  1  0  0  0  0
 60 63  1  0  0  0  0
 60 64  1  0  0  0  0
 18 20  1  0  0  0  0
 18 21  1  0  0  0  0
 18 22  1  0  0  0  0
 11 15  1  0  0  0  0
 11 16  1  0  0  0  0
 43 47  1  0  0  0  0
 43 48  1  0  0  0  0
 50 55  1  0  0  0  0
  8 14  1  0  0  0  0
 30 35  1  0  0  0  0
 40 46  1  0  0  0  0
 59 61  1  0  0  0  0
 17 19  1  0  0  0  0
  7 13  1  0  0  0  0
 29 34  1  0  0  0  0
 49 54  1  0  0  0  0
 39 45  1  0  0  0  0
M  END
$$$$

  -OEChem-05262214473D

 64 63  0     1  0  0  0  0  0999 V2000
   -2.3598    8.4923    3.1102 C   0  0  0  0  0  0  0  0  0  0  0  0
   -3.5749    8.3468    3.0467 O   0  0  0  0  0  0  0  0  0  0  0  0
   -1.7751    9.8604    2.9882 C   0  0  0  0  0  0  0  0  0  0  0  0
   -1.5421   10.1266    1.9447 H   0  0  0  0  0  0  0  0  0  0  0  0
   -2.4632   10.6448    3.3422 H   0  0  0  0  0  0  0  0  0  0  0  0
   -0.8386   10.0240    3.5450 H   0  0  0  0  0  0  0  0  0  0  0  0
   -1.4231    7.4896    3.2919 N   0  0  0  0  0  0  0  0  0  0  0  0
   -1.7709    6.0985    3.4344 C   0  0  2  0  0  0  0  0  0  0  0  0
   -0.7951    5.4421    4.4089 C   0  0  0  0  0  0  0  0  0  0  0  0
    0.1843    6.0247    4.8702 O   0  0  0  0  0  0  0  0  0  0  0  0
   -1.8587    5.3788    2.0863 C   0  0  0  0  0  0  0  0  0  0  0  0
   -0.2793    5.3251    1.1781 S   0  0  0  0  0  0  0  0  0  0  0  0
   -0.4394    7.7478    3.3266 H   0  0  0  0  0  0  0  0  0  0  0  0
   -2.7630    6.0893    3.9028 H   0  0  0  0  0  0  0  0  0  0  0  0
   -2.1929    4.3453    2.2234 H   0  0  0  0  0  0  0  0  0  0  0  0
   -2.5900    5.8799    1.4428 H   0  0  0  0  0  0  0  0  0  0  0  0
   -1.1328    4.1241    4.6820 N   0  0  0  0  0  0  0  0  0  0  0  0
   -0.3487    3.2842    5.5569 C   0  0  0  0  0  0  0  0  0  0  0  0
   -1.9854    3.7351    4.2903 H   0  0  0  0  0  0  0  0  0  0  0  0
    0.3857    2.7200    4.9633 H   0  0  0  0  0  0  0  0  0  0  0  0
    0.1779    3.9110    6.2917 H   0  0  0  0  0  0  0  0  0  0  0  0
   -1.0123    2.5820    6.0826 H   0  0  0  0  0  0  0  0  0  0  0  0
   -6.7256    2.0330   -0.2766 C   0  0  0  0  0  0  0  0  0  0  0  0
   -7.1824    1.1039   -0.9322 O   0  0  0  0  0  0  0  0  0  0  0  0
   -7.5276    2.6077    0.8435 C   0  0  0  0  0  0  0  0  0  0  0  0
   -8.1775    3.4344    0.5145 H   0  0  0  0  0  0  0  0  0  0  0  0
   -8.2057    1.8676    1.2980 H   0  0  0  0  0  0  0  0  0  0  0  0
   -6.9411    3.0162    1.6819 H   0  0  0  0  0  0  0  0  0  0  0  0
   -5.4935    2.6382   -0.4627 N   0  0  0  0  0  0  0  0  0  0  0  0
   -4.5619    2.2388   -1.4845 C   0  0  2  0  0  0  0  0  0  0  0  0
   -3.1535    2.4674   -0.9521 C   0  0  0  0  0  0  0  0  0  0  0  0
   -2.8634    3.3945   -0.1987 O   0  0  0  0  0  0  0  0  0  0  0  0
   -4.7883    3.0138   -2.7732 C   0  0  0  0  0  0  0  0  0  0  0  0
   -5.2337    3.4049    0.1551 H   0  0  0  0  0  0  0  0  0  0  0  0
   -4.7192    1.1682   -1.6549 H   0  0  0  0  0  0  0  0  0  0  0  0
   -4.6352    4.0886   -2.6221 H   0  0  0  0  0  0  0  0  0  0  0  0
   -4.0976    2.6887   -3.5582 H   0  0  0  0  0  0  0  0  0  0  0  0
   -5.8111    2.8719   -3.1387 H   0  0  0  0  0  0  0  0  0  0  0  0
   -2.2466    1.5400   -1.4507 N   0  0  0  0  0  0  0  0  0  0  0  0
   -0.8424    1.5707   -1.1286 C   0  0  2  0  0  0  0  0  0  0  0  0
   -0.3807    0.1538   -0.7939 C   0  0  0  0  0  0  0  0  0  0  0  0
   -1.1379   -0.8147   -0.7940 O   0  0  0  0  0  0  0  0  0  0  0  0
   -0.5181    2.5894   -0.0331 C   0  0  0  0  0  0  0  0  0  0  0  0
   -0.8233    4.3049   -0.5194 S   0  0  0  0  0  0  0  0  0  0  0  0
   -2.5850    0.7815   -2.0381 H   0  0  0  0  0  0  0  0  0  0  0  0
   -0.3348    1.8748   -2.0524 H   0  0  0  0  0  0  0  0  0  0  0  0
   -1.1144    2.3923    0.8638 H   0  0  0  0  0  0  0  0  0  0  0  0
    0.5376    2.5113    0.2483 H   0  0  0  0  0  0  0  0  0  0  0  0
    0.9681    0.1036   -0.4717 N   0  0  0  0  0  0  0  0  0  0  0  0
    1.6340   -1.1213   -0.0950 C   0  0  2  0  0  0  0  0  0  0  0  0
    2.7299   -0.7730    0.9035 C   0  0  0  0  0  0  0  0  0  0  0  0
    3.3721    0.2742    0.8565 O   0  0  0  0  0  0  0  0  0  0  0  0
    2.2107   -1.8334   -1.3087 C   0  0  0  0  0  0  0  0  0  0  0  0
    1.5300    0.9470   -0.5395 H   0  0  0  0  0  0  0  0  0  0  0  0
    0.8828   -1.7528    0.3918 H   0  0  0  0  0  0  0  0  0  0  0  0
    2.9653   -1.2160   -1.8096 H   0  0  0  0  0  0  0  0  0  0  0  0
    2.6903   -2.7760   -1.0249 H   0  0  0  0  0  0  0  0  0  0  0  0
    1.4256   -2.0566   -2.0392 H   0  0  0  0  0  0  0  0  0  0  0  0
    2.9360   -1.7879    1.8274 N   0  0  0  0  0  0  0  0  0  0  0  0
    3.9508   -1.7149    2.8524 C   0  0  0  0  0  0  0  0  0  0  0  0
    2.3307   -2.6035    1.8170 H   0  0  0  0  0  0  0  0  0  0  0  0
    4.8763   -2.1837    2.4869 H   0  0  0  0  0  0  0  0  0  0  0  0
    4.1467   -0.6611    3.0998 H   0  0  0  0  0  0  0  0  0  0  0  0
    3.6023   -2.2439    3.7517 H   0  0  0  0  0  0  0  0  0  0  0  0
  1  3  1  0  0  0  0
  1  7  1  0  0  0  0
  1  2  2  0  0  0  0
 23 25  1  0  0  0  0
 23 29  1  0  0  0  0
 23 24  2  0  0  0  0
 50 51  1  0  0  0  0
 51 59  1  0  0  0  0
 51 52  2  0  0  0  0
  8  9  1  0  0  0  0
  9 17  1  0  0  0  0
  9 10  2  0  0  0  0
 30 31  1  0  0  0  0
 31 39  1  0  0  0  0
 31 32  2  0  0  0  0
 40 41  1  0  0  0  0
 41 49  1  0  0  0  0
 41 42  2  0  0  0  0
 50 53  1  0  0  0  0
 30 33  1  0  0  0  0
 59 60  1  0  0  0  0
 17 18  1  0  0  0  0
  8 11  1  0  0  0  0
 11 12  1  0  0  0  0
 40 43  1  0  0  0  0
 43 44  1  0  0  0  0
 49 50  1  0  0  0  0
  7  8  1  0  0  0  0
 29 30  1  0  0  0  0
 39 40  1  0  0  0  0
 12 44  1  0  0  0  0
  3  4  1  0  0  0  0
  3  5  1  0  0  0  0
  3  6  1  0  0  0  0
 25 26  1  0  0  0  0
 25 27  1  0  0  0  0
 25 28  1  0  0  0  0
 53 56  1  0  0  0  0
 53 57  1  0  0  0  0
 53 58  1  0  0  0  0
 33 36  1  0  0  0  0
 33 37  1  0  0  0  0
 33 38  1  0  0  0  0
 60 62  1  0  0  0  0
 60 63  1  0  0  0  0
 60 64  1  0  0  0  0
 18 20  1  0  0  0  0
 18 21  1  0  0  0  0
 18 22  1  0  0  0  0
 11 15  1  0  0  0  0
 11 16  1  0  0  0  0
 43 47  1  0  0  0  0
 43 48  1  0  0  0  0
 50 55  1  0  0  0  0
  8 14  1  0  0  0  0
 30 35  1  0  0  0  0
 40 46  1  0  0  0  0
 59 61  1  0  0  0  0
 17 19  1  0  0  0  0
  7 13  1  0  0  0  0
 29 34  1  0  0  0  0
 49 54  1  0  0  0  0
 39 45  1  0  0  0  0
M  END
$$$$

  -OEChem-05262214473D

 64 63  0     1  0  0  0  0  0999 V2000
   -2.3598    8.4923    3.1102 C   0  0  0  0  0  0  0  0  0  0  0  0
   -3.5749    8.3468    3.0467 O   0  0  0  0  0  0  0  0  0  0  0  0
   -1.7751    9.8604    2.9882 C   0  0  0  0  0  0  0  0  0  0  0  0
   -1.5421   10.1266    1.9447 H   0  0  0  0  0  0  0  0  0  0  0  0
   -2.4632   10.6448    3.3422 H   0  0  0  0  0  0  0  0  0  0  0  0
   -0.8386   10.0240    3.5450 H   0  0  0  0  0  0  0  0  0  0  0  0
   -1.4231    7.4896    3.2919 N   0  0  0  0  0  0  0  0  0  0  0  0
   -1.7709    6.0985    3.4344 C   0  0  2  0  0  0  0  0  0  0  0  0
   -0.7951    5.4421    4.4089 C   0  0  0  0  0  0  0  0  0  0  0  0
    0.1843    6.0247    4.8702 O   0  0  0  0  0  0  0  0  0  0  0  0
   -1.8587    5.3788    2.0863 C   0  0  0  0  0  0  0  0  0  0  0  0
   -0.2793    5.3251    1.1781 S   0  0  0  0  0  0  0  0  0  0  0  0
   -0.4394    7.7478    3.3266 H   0  0  0  0  0  0  0  0  0  0  0  0
   -2.7630    6.0893    3.9028 H   0  0  0  0  0  0  0  0  0  0  0  0
   -2.1929    4.3453    2.2234 H   0  0  0  0  0  0  0  0  0  0  0  0
   -2.5900    5.8799    1.4428 H   0  0  0  0  0  0  0  0  0  0  0  0
   -1.1328    4.1241    4.6820 N   0  0  0  0  0  0  0  0  0  0  0  0
   -0.3487    3.2842    5.5569 C   0  0  0  0  0  0  0  0  0  0  0  0
   -1.9854    3.7351    4.2903 H   0  0  0  0  0  0  0  0  0  0  0  0
    0.3857    2.7200    4.9633 H   0  0  0  0  0  0  0  0  0  0  0  0
    0.1779    3.9110    6.2917 H   0  0  0  0  0  0  0  0  0  0  0  0
   -1.0123    2.5820    6.0826 H   0  0  0  0  0  0  0  0  0  0  0  0
   -6.7256    2.0330   -0.2766 C   0  0  0  0  0  0  0  0  0  0  0  0
   -7.1824    1.1039   -0.9322 O   0  0  0  0  0  0  0  0  0  0  0  0
   -7.5276    2.6077    0.8435 C   0  0  0  0  0  0  0  0  0  0  0  0
   -8.1775    3.4344    0.5145 H   0  0  0  0  0  0  0  0  0  0  0  0
   -8.2057    1.8676    1.2980 H   0  0  0  0  0  0  0  0  0  0  0  0
   -6.9411    3.0162    1.6819 H   0  0  0  0  0  0  0  0  0  0  0  0
   -5.4935    2.6382   -0.4627 N   0  0  0  0  0  0  0  0  0  0  0  0
   -4.5619    2.2388   -1.4845 C   0  0  2  0  0  0  0  0  0  0  0  0
   -3.1535    2.4674   -0.9521 C   0  0  0  0  0  0  0  0  0  0  0  0
   -2.8634    3.3945   -0.1987 O   0  0  0  0  0  0  0  0  0  0  0  0
   -4.7883    3.0138   -2.7732 C   0  0  0  0  0  0  0  0  0  0  0  0
   -5.2337    3.4049    0.1551 H   0  0  0  0  0  0  0  0  0  0  0  0
   -4.7192    1.1682   -1.6549 H   0  0  0  0  0  0  0  0  0  0  0  0
   -4.6352    4.0886   -2.6221 H   0  0  0  0  0  0  0  0  0  0  0  0
   -4.0976    2.6887   -3.5582 H   0  0  0  0  0  0  0  0  0  0  0  0
   -5.8111    2.8719   -3.1387 H   0  0  0  0  0  0  0  0  0  0  0  0
   -2.2466    1.5400   -1.4507 N   0  0  0  0  0  0  0  0  0  0  0  0
   -0.8424    1.5707   -1.1286 C   0  0  2  0  0  0  0  0  0  0  0  0
   -0.3807    0.1538   -0.7939 C   0  0  0  0  0  0  0  0  0  0  0  0
   -1.0502   -0.8458   -1.0466 O   0  0  0  0  0  0  0  0  0  0  0  0
   -0.5181    2.5894   -0.0331 C   0  0  0  0  0  0  0  0  0  0  0  0
   -0.8233    4.3049   -0.5194 S   0  0  0  0  0  0  0  0  0  0  0  0
   -2.5850    0.7815   -2.0381 H   0  0  0  0  0  0  0  0  0  0  0  0
   -0.3348    1.8748   -2.0524 H   0  0  0  0  0  0  0  0  0  0  0  0
   -1.1144    2.3923    0.8638 H   0  0  0  0  0  0  0  0  0  0  0  0
    0.5376    2.5113    0.2483 H   0  0  0  0  0  0  0  0  0  0  0  0
    0.8530    0.1400   -0.1588 N   0  0  0  0  0  0  0  0  0  0  0  0
    1.4899   -1.0798    0.2797 C   0  0  2  0  0  0  0  0  0  0  0  0
    2.2913   -0.7664    1.5362 C   0  0  0  0  0  0  0  0  0  0  0  0
    2.8554    0.3100    1.7211 O   0  0  0  0  0  0  0  0  0  0  0  0
    2.3846   -1.6579   -0.8056 C   0  0  0  0  0  0  0  0  0  0  0  0
    1.3577    1.0117   -0.0281 H   0  0  0  0  0  0  0  0  0  0  0  0
    0.6880   -1.7852    0.5236 H   0  0  0  0  0  0  0  0  0  0  0  0
    3.1940   -0.9652   -1.0634 H   0  0  0  0  0  0  0  0  0  0  0  0
    2.8443   -2.5976   -0.4821 H   0  0  0  0  0  0  0  0  0  0  0  0
    1.8124   -1.8548   -1.7186 H   0  0  0  0  0  0  0  0  0  0  0  0
    2.3385   -1.8455    2.4077 N   0  0  0  0  0  0  0  0  0  0  0  0
    3.0733   -1.8123    3.6507 C   0  0  0  0  0  0  0  0  0  0  0  0
    1.8084   -2.6849    2.1928 H   0  0  0  0  0  0  0  0  0  0  0  0
    4.0882   -2.2041    3.4879 H   0  0  0  0  0  0  0  0  0  0  0  0
    3.1345   -0.7753    4.0127 H   0  0  0  0  0  0  0  0  0  0  0  0
    2.5567   -2.4318    4.3986 H   0  0  0  0  0  0  0  0  0  0  0  0
  1  3  1  0  0  0  0
  1  7  1  0  0  0  0
  1  2  2  0  0  0  0
 23 25  1  0  0  0  0
 23 29  1  0  0  0  0
 23 24  2  0  0  0  0
 50 51  1  0  0  0  0
 51 59  1  0  0  0  0
 51 52  2  0  0  0  0
  8  9  1  0  0  0  0
  9 17  1  0  0  0  0
  9 10  2  0  0  0  0
 30 31  1  0  0  0  0
 31 39  1  0  0  0  0
 31 32  2  0  0  0  0
 40 41  1  0  0  0  0
 41 49  1  0  0  0  0
 41 42  2  0  0  0  0
 50 53  1  0  0  0  0
 30 33  1  0  0  0  0
 59 60  1  0  0  0  0
 17 18  1  0  0  0  0
  8 11  1  0  0  0  0
 11 12  1  0  0  0  0
 40 43  1  0  0  0  0
 43 44  1  0  0  0  0
 49 50  1  0  0  0  0
  7  8  1  0  0  0  0
 29 30  1  0  0  0  0
 39 40  1  0  0  0  0
 12 44  1  0  0  0  0
  3  4  1  0  0  0  0
  3  5  1  0  0  0  0
  3  6  1  0  0  0  0
 25 26  1  0  0  0  0
 25 27  1  0  0  0  0
 25 28  1  0  0  0  0
 53 56  1  0  0  0  0
 53 57  1  0  0  0  0
 53 58  1  0  0  0  0
 33 36  1  0  0  0  0
 33 37  1  0  0  0  0
 33 38  1  0  0  0  0
 60 62  1  0  0  0  0
 60 63  1  0  0  0  0
 60 64  1  0  0  0  0
 18 20  1  0  0  0  0
 18 21  1  0  0  0  0
 18 22  1  0  0  0  0
 11 15  1  0  0  0  0
 11 16  1  0  0  0  0
 43 47  1  0  0  0  0
 43 48  1  0  0  0  0
 50 55  1  0  0  0  0
  8 14  1  0  0  0  0
 30 35  1  0  0  0  0
 40 46  1  0  0  0  0
 59 61  1  0  0  0  0
 17 19  1  0  0  0  0
  7 13  1  0  0  0  0
 29 34  1  0  0  0  0
 49 54  1  0  0  0  0
 39 45  1  0  0  0  0
M  END
$$$$

  -OEChem-05262214473D

 64 63  0     1  0  0  0  0  0999 V2000
   -2.3598    8.4923    3.1102 C   0  0  0  0  0  0  0  0  0  0  0  0
   -3.5749    8.3468    3.0467 O   0  0  0  0  0  0  0  0  0  0  0  0
   -1.7751    9.8604    2.9882 C   0  0  0  0  0  0  0  0  0  0  0  0
   -1.5421   10.1266    1.9447 H   0  0  0  0  0  0  0  0  0  0  0  0
   -2.4632   10.6448    3.3422 H   0  0  0  0  0  0  0  0  0  0  0  0
   -0.8386   10.0240    3.5450 H   0  0  0  0  0  0  0  0  0  0  0  0
   -1.4231    7.4896    3.2919 N   0  0  0  0  0  0  0  0  0  0  0  0
   -1.7709    6.0985    3.4344 C   0  0  2  0  0  0  0  0  0  0  0  0
   -0.7951    5.4421    4.4089 C   0  0  0  0  0  0  0  0  0  0  0  0
    0.1843    6.0247    4.8702 O   0  0  0  0  0  0  0  0  0  0  0  0
   -1.8587    5.3788    2.0863 C   0  0  0  0  0  0  0  0  0  0  0  0
   -0.2793    5.3251    1.1781 S   0  0  0  0  0  0  0  0  0  0  0  0
   -0.4394    7.7478    3.3266 H   0  0  0  0  0  0  0  0  0  0  0  0
   -2.7630    6.0893    3.9028 H   0  0  0  0  0  0  0  0  0  0  0  0
   -2.1929    4.3453    2.2234 H   0  0  0  0  0  0  0  0  0  0  0  0
   -2.5900    5.8799    1.4428 H   0  0  0  0  0  0  0  0  0  0  0  0
   -1.1328    4.1241    4.6820 N   0  0  0  0  0  0  0  0  0  0  0  0
   -0.3487    3.2842    5.5569 C   0  0  0  0  0  0  0  0  0  0  0  0
   -1.9854    3.7351    4.2903 H   0  0  0  0  0  0  0  0  0  0  0  0
    0.3857    2.7200    4.9633 H   0  0  0  0  0  0  0  0  0  0  0  0
    0.1779    3.9110    6.2917 H   0  0  0  0  0  0  0  0  0  0  0  0
   -1.0123    2.5820    6.0826 H   0  0  0  0  0  0  0  0  0  0  0  0
   -6.7256    2.0330   -0.2766 C   0  0  0  0  0  0  0  0  0  0  0  0
   -7.1824    1.1039   -0.9322 O   0  0  0  0  0  0  0  0  0  0  0  0
   -7.5276    2.6077    0.8435 C   0  0  0  0  0  0  0  0  0  0  0  0
   -8.1775    3.4344    0.5145 H   0  0  0  0  0  0  0  0  0  0  0  0
   -8.2057    1.8676    1.2980 H   0  0  0  0  0  0  0  0  0  0  0  0
   -6.9411    3.0162    1.6819 H   0  0  0  0  0  0  0  0  0  0  0  0
   -5.4935    2.6382   -0.4627 N   0  0  0  0  0  0  0  0  0  0  0  0
   -4.5619    2.2388   -1.4845 C   0  0  2  0  0  0  0  0  0  0  0  0
   -3.1535    2.4674   -0.9521 C   0  0  0  0  0  0  0  0  0  0  0  0
   -2.8634    3.3945   -0.1987 O   0  0  0  0  0  0  0  0  0  0  0  0
   -4.7883    3.0138   -2.7732 C   0  0  0  0  0  0  0  0  0  0  0  0
   -5.2337    3.4049    0.1551 H   0  0  0  0  0  0  0  0  0  0  0  0
   -4.7192    1.1682   -1.6549 H   0  0  0  0  0  0  0  0  0  0  0  0
   -4.6352    4.0886   -2.6221 H   0  0  0  0  0  0  0  0  0  0  0  0
   -4.0976    2.6887   -3.5582 H   0  0  0  0  0  0  0  0  0  0  0  0
   -5.8111    2.8719   -3.1387 H   0  0  0  0  0  0  0  0  0  0  0  0
   -2.2466    1.5400   -1.4507 N   0  0  0  0  0  0  0  0  0  0  0  0
   -0.8424    1.5707   -1.1286 C   0  0  2  0  0  0  0  0  0  0  0  0
   -0.3807    0.1538   -0.7939 C   0  0  0  0  0  0  0  0  0  0  0  0
   -0.9032   -0.8511   -1.2719 O   0  0  0  0  0  0  0  0  0  0  0  0
   -0.5181    2.5894   -0.0331 C   0  0  0  0  0  0  0  0  0  0  0  0
   -0.8233    4.3049   -0.5194 S   0  0  0  0  0  0  0  0  0  0  0  0
   -2.5850    0.7815   -2.0381 H   0  0  0  0  0  0  0  0  0  0  0  0
   -0.3348    1.8748   -2.0524 H   0  0  0  0  0  0  0  0  0  0  0  0
   -1.1144    2.3923    0.8638 H   0  0  0  0  0  0  0  0  0  0  0  0
    0.5376    2.5113    0.2483 H   0  0  0  0  0  0  0  0  0  0  0  0
    0.6647    0.1442    0.1186 N   0  0  0  0  0  0  0  0  0  0  0  0
    1.2583   -1.0771    0.6102 C   0  0  2  0  0  0  0  0  0  0  0  0
    1.7153   -0.8345    2.0426 C   0  0  0  0  0  0  0  0  0  0  0  0
    2.1467    0.2477    2.4349 O   0  0  0  0  0  0  0  0  0  0  0  0
    2.4219   -1.5179   -0.2642 C   0  0  0  0  0  0  0  0  0  0  0  0
    1.0649    1.0244    0.4296 H   0  0  0  0  0  0  0  0  0  0  0  0
    0.4701   -1.8378    0.6016 H   0  0  0  0  0  0  0  0  0  0  0  0
    3.2216   -0.7683   -0.2681 H   0  0  0  0  0  0  0  0  0  0  0  0
    2.8526   -2.4590    0.0933 H   0  0  0  0  0  0  0  0  0  0  0  0
    2.0975   -1.6631   -1.3003 H   0  0  0  0  0  0  0  0  0  0  0  0
    1.6253   -1.9805    2.8203 N   0  0  0  0  0  0  0  0  0  0  0  0
    2.0395   -2.0186    4.2034 C   0  0  0  0  0  0  0  0  0  0  0  0
    1.2184   -2.8226    2.4241 H   0  0  0  0  0  0  0  0  0  0  0  0
    3.0876   -2.3469    4.2640 H   0  0  0  0  0  0  0  0  0  0  0  0
    1.9440   -1.0145    4.6425 H   0  0  0  0  0  0  0  0  0  0  0  0
    1.4021   -2.7232    4.7577 H   0  0  0  0  0  0  0  0  0  0  0  0
  1  3  1  0  0  0  0
  1  7  1  0  0  0  0
  1  2  2  0  0  0  0
 23 25  1  0  0  0  0
 23 29  1  0  0  0  0
 23 24  2  0  0  0  0
 50 51  1  0  0  0  0
 51 59  1  0  0  0  0
 51 52  2  0  0  0  0
  8  9  1  0  0  0  0
  9 17  1  0  0  0  0
  9 10  2  0  0  0  0
 30 31  1  0  0  0  0
 31 39  1  0  0  0  0
 31 32  2  0  0  0  0
 40 41  1  0  0  0  0
 41 49  1  0  0  0  0
 41 42  2  0  0  0  0
 50 53  1  0  0  0  0
 30 33  1  0  0  0  0
 59 60  1  0  0  0  0
 17 18  1  0  0  0  0
  8 11  1  0  0  0  0
 11 12  1  0  0  0  0
 40 43  1  0  0  0  0
 43 44  1  0  0  0  0
 49 50  1  0  0  0  0
  7  8  1  0  0  0  0
 29 30  1  0  0  0  0
 39 40  1  0  0  0  0
 12 44  1  0  0  0  0
  3  4  1  0  0  0  0
  3  5  1  0  0  0  0
  3  6  1  0  0  0  0
 25 26  1  0  0  0  0
 25 27  1  0  0  0  0
 25 28  1  0  0  0  0
 53 56  1  0  0  0  0
 53 57  1  0  0  0  0
 53 58  1  0  0  0  0
 33 36  1  0  0  0  0
 33 37  1  0  0  0  0
 33 38  1  0  0  0  0
 60 62  1  0  0  0  0
 60 63  1  0  0  0  0
 60 64  1  0  0  0  0
 18 20  1  0  0  0  0
 18 21  1  0  0  0  0
 18 22  1  0  0  0  0
 11 15  1  0  0  0  0
 11 16  1  0  0  0  0
 43 47  1  0  0  0  0
 43 48  1  0  0  0  0
 50 55  1  0  0  0  0
  8 14  1  0  0  0  0
 30 35  1  0  0  0  0
 40 46  1  0  0  0  0
 59 61  1  0  0  0  0
 17 19  1  0  0  0  0
  7 13  1  0  0  0  0
 29 34  1  0  0  0  0
 49 54  1  0  0  0  0
 39 45  1  0  0  0  0
M  END
$$$$

  -OEChem-05262214473D

 64 63  0     1  0  0  0  0  0999 V2000
   -2.3598    8.4923    3.1102 C   0  0  0  0  0  0  0  0  0  0  0  0
   -3.5749    8.3468    3.0467 O   0  0  0  0  0  0  0  0  0  0  0  0
   -1.7751    9.8604    2.9882 C   0  0  0  0  0  0  0  0  0  0  0  0
   -1.5421   10.1266    1.9447 H   0  0  0  0  0  0  0  0  0  0  0  0
   -2.4632   10.6448    3.3422 H   0  0  0  0  0  0  0  0  0  0  0  0
   -0.8386   10.0240    3.5450 H   0  0  0  0  0  0  0  0  0  0  0  0
   -1.4231    7.4896    3.2919 N   0  0  0  0  0  0  0  0  0  0  0  0
   -1.7709    6.0985    3.4344 C   0  0  2  0  0  0  0  0  0  0  0  0
   -0.7951    5.4421    4.4089 C   0  0  0  0  0  0  0  0  0  0  0  0
    0.1843    6.0247    4.8702 O   0  0  0  0  0  0  0  0  0  0  0  0
   -1.8587    5.3788    2.0863 C   0  0  0  0  0  0  0  0  0  0  0  0
   -0.2793    5.3251    1.1781 S   0  0  0  0  0  0  0  0  0  0  0  0
   -0.4394    7.7478    3.3266 H   0  0  0  0  0  0  0  0  0  0  0  0
   -2.7630    6.0893    3.9028 H   0  0  0  0  0  0  0  0  0  0  0  0
   -2.1929    4.3453    2.2234 H   0  0  0  0  0  0  0  0  0  0  0  0
   -2.5900    5.8799    1.4428 H   0  0  0  0  0  0  0  0  0  0  0  0
   -1.1328    4.1241    4.6820 N   0  0  0  0  0  0  0  0  0  0  0  0
   -0.3487    3.2842    5.5569 C   0  0  0  0  0  0  0  0  0  0  0  0
   -1.9854    3.7351    4.2903 H   0  0  0  0  0  0  0  0  0  0  0  0
    0.3857    2.7200    4.9633 H   0  0  0  0  0  0  0  0  0  0  0  0
    0.1779    3.9110    6.2917 H   0  0  0  0  0  0  0  0  0  0  0  0
   -1.0123    2.5820    6.0826 H   0  0  0  0  0  0  0  0  0  0  0  0
   -6.7256    2.0330   -0.2766 C   0  0  0  0  0  0  0  0  0  0  0  0
   -7.1824    1.1039   -0.9322 O   0  0  0  0  0  0  0  0  0  0  0  0
   -7.5276    2.6077    0.8435 C   0  0  0  0  0  0  0  0  0  0  0  0
   -8.1775    3.4344    0.5145 H   0  0  0  0  0  0  0  0  0  0  0  0
   -8.2057    1.8676    1.2980 H   0  0  0  0  0  0  0  0  0  0  0  0
   -6.9411    3.0162    1.6819 H   0  0  0  0  0  0  0  0  0  0  0  0
   -5.4935    2.6382   -0.4627 N   0  0  0  0  0  0  0  0  0  0  0  0
   -4.5619    2.2388   -1.4845 C   0  0  2  0  0  0  0  0  0  0  0  0
   -3.1535    2.4674   -0.9521 C   0  0  0  0  0  0  0  0  0  0  0  0
   -2.8634    3.3945   -0.1987 O   0  0  0  0  0  0  0  0  0  0  0  0
   -4.7883    3.0138   -2.7732 C   0  0  0  0  0  0  0  0  0  0  0  0
   -5.2337    3.4049    0.1551 H   0  0  0  0  0  0  0  0  0  0  0  0
   -4.7192    1.1682   -1.6549 H   0  0  0  0  0  0  0  0  0  0  0  0
   -4.6352    4.0886   -2.6221 H   0  0  0  0  0  0  0  0  0  0  0  0
   -4.0976    2.6887   -3.5582 H   0  0  0  0  0  0  0  0  0  0  0  0
   -5.8111    2.8719   -3.1387 H   0  0  0  0  0  0  0  0  0  0  0  0
   -2.2466    1.5400   -1.4507 N   0  0  0  0  0  0  0  0  0  0  0  0
   -0.8424    1.5707   -1.1286 C   0  0  2  0  0  0  0  0  0  0  0  0
   -0.3807    0.1538   -0.7939 C   0  0  0  0  0  0  0  0  0  0  0  0
   -0.7067   -0.8303   -1.4547 O   0  0  0  0  0  0  0  0  0  0  0  0
   -0.5181    2.5894   -0.0331 C   0  0  0  0  0  0  0  0  0  0  0  0
   -0.8233    4.3049   -0.5194 S   0  0  0  0  0  0  0  0  0  0  0  0
   -2.5850    0.7815   -2.0381 H   0  0  0  0  0  0  0  0  0  0  0  0
   -0.3348    1.8748   -2.0524 H   0  0  0  0  0  0  0  0  0  0  0  0
   -1.1144    2.3923    0.8638 H   0  0  0  0  0  0  0  0  0  0  0  0
    0.5376    2.5113    0.2483 H   0  0  0  0  0  0  0  0  0  0  0  0
    0.4159    0.1158    0.3417 N   0  0  0  0  0  0  0  0  0  0  0  0
    0.9552   -1.1136    0.8741 C   0  0  2  0  0  0  0  0  0  0  0  0
    1.0413   -0.9725    2.3881 C   0  0  0  0  0  0  0  0  0  0  0  0
    1.2942    0.0914    2.9494 O   0  0  0  0  0  0  0  0  0  0  0  0
    2.3199   -1.4229    0.2786 C   0  0  0  0  0  0  0  0  0  0  0  0
    0.6715    0.9842    0.8024 H   0  0  0  0  0  0  0  0  0  0  0  0
    0.2438   -1.9070    0.6205 H   0  0  0  0  0  0  0  0  0  0  0  0
    3.0461   -0.6388    0.5222 H   0  0  0  0  0  0  0  0  0  0  0  0
    2.7147   -2.3696    0.6618 H   0  0  0  0  0  0  0  0  0  0  0  0
    2.2617   -1.4945   -0.8129 H   0  0  0  0  0  0  0  0  0  0  0  0
    0.8450   -2.1835    3.0371 N   0  0  0  0  0  0  0  0  0  0  0  0
    0.9199   -2.3197    4.4730 C   0  0  0  0  0  0  0  0  0  0  0  0
    0.6007   -3.0071    2.4950 H   0  0  0  0  0  0  0  0  0  0  0  0
    1.9430   -2.6022    4.7622 H   0  0  0  0  0  0  0  0  0  0  0  0
    0.6564   -1.3623    4.9462 H   0  0  0  0  0  0  0  0  0  0  0  0
    0.2171   -3.0983    4.8045 H   0  0  0  0  0  0  0  0  0  0  0  0
  1  3  1  0  0  0  0
  1  7  1  0  0  0  0
  1  2  2  0  0  0  0
 23 25  1  0  0  0  0
 23 29  1  0  0  0  0
 23 24  2  0  0  0  0
 50 51  1  0  0  0  0
 51 59  1  0  0  0  0
 51 52  2  0  0  0  0
  8  9  1  0  0  0  0
  9 17  1  0  0  0  0
  9 10  2  0  0  0  0
 30 31  1  0  0  0  0
 31 39  1  0  0  0  0
 31 32  2  0  0  0  0
 40 41  1  0  0  0  0
 41 49  1  0  0  0  0
 41 42  2  0  0  0  0
 50 53  1  0  0  0  0
 30 33  1  0  0  0  0
 59 60  1  0  0  0  0
 17 18  1  0  0  0  0
  8 11  1  0  0  0  0
 11 12  1  0  0  0  0
 40 43  1  0  0  0  0
 43 44  1  0  0  0  0
 49 50  1  0  0  0  0
  7  8  1  0  0  0  0
 29 30  1  0  0  0  0
 39 40  1  0  0  0  0
 12 44  1  0  0  0  0
  3  4  1  0  0  0  0
  3  5  1  0  0  0  0
  3  6  1  0  0  0  0
 25 26  1  0  0  0  0
 25 27  1  0  0  0  0
 25 28  1  0  0  0  0
 53 56  1  0  0  0  0
 53 57  1  0  0  0  0
 53 58  1  0  0  0  0
 33 36  1  0  0  0  0
 33 37  1  0  0  0  0
 33 38  1  0  0  0  0
 60 62  1  0  0  0  0
 60 63  1  0  0  0  0
 60 64  1  0  0  0  0
 18 20  1  0  0  0  0
 18 21  1  0  0  0  0
 18 22  1  0  0  0  0
 11 15  1  0  0  0  0
 11 16  1  0  0  0  0
 43 47  1  0  0  0  0
 43 48  1  0  0  0  0
 50 55  1  0  0  0  0
  8 14  1  0  0  0  0
 30 35  1  0  0  0  0
 40 46  1  0  0  0  0
 59 61  1  0  0  0  0
 17 19  1  0  0  0  0
  7 13  1  0  0  0  0
 29 34  1  0  0  0  0
 49 54  1  0  0  0  0
 39 45  1  0  0  0  0
M  END
$$$$

  -OEChem-05262214473D

 64 63  0     1  0  0  0  0  0999 V2000
   -2.3598    8.4923    3.1102 C   0  0  0  0  0  0  0  0  0  0  0  0
   -3.5749    8.3468    3.0467 O   0  0  0  0  0  0  0  0  0  0  0  0
   -1.7751    9.8604    2.9882 C   0  0  0  0  0  0  0  0  0  0  0  0
   -1.5421   10.1266    1.9447 H   0  0  0  0  0  0  0  0  0  0  0  0
   -2.4632   10.6448    3.3422 H   0  0  0  0  0  0  0  0  0  0  0  0
   -0.8386   10.0240    3.5450 H   0  0  0  0  0  0  0  0  0  0  0  0
   -1.4231    7.4896    3.2919 N   0  0  0  0  0  0  0  0  0  0  0  0
   -1.7709    6.0985    3.4344 C   0  0  2  0  0  0  0  0  0  0  0  0
   -0.7951    5.4421    4.4089 C   0  0  0  0  0  0  0  0  0  0  0  0
    0.1843    6.0247    4.8702 O   0  0  0  0  0  0  0  0  0  0  0  0
   -1.8587    5.3788    2.0863 C   0  0  0  0  0  0  0  0  0  0  0  0
   -0.2793    5.3251    1.1781 S   0  0  0  0  0  0  0  0  0  0  0  0
   -0.4394    7.7478    3.3266 H   0  0  0  0  0  0  0  0  0  0  0  0
   -2.7630    6.0893    3.9028 H   0  0  0  0  0  0  0  0  0  0  0  0
   -2.1929    4.3453    2.2234 H   0  0  0  0  0  0  0  0  0  0  0  0
   -2.5900    5.8799    1.4428 H   0  0  0  0  0  0  0  0  0  0  0  0
   -1.1328    4.1241    4.6820 N   0  0  0  0  0  0  0  0  0  0  0  0
   -0.3487    3.2842    5.5569 C   0  0  0  0  0  0  0  0  0  0  0  0
   -1.9854    3.7351    4.2903 H   0  0  0  0  0  0  0  0  0  0  0  0
    0.3857    2.7200    4.9633 H   0  0  0  0  0  0  0  0  0  0  0  0
    0.1779    3.9110    6.2917 H   0  0  0  0  0  0  0  0  0  0  0  0
   -1.0123    2.5820    6.0826 H   0  0  0  0  0  0  0  0  0  0  0  0
   -6.7256    2.0330   -0.2766 C   0  0  0  0  0  0  0  0  0  0  0  0
   -7.1824    1.1039   -0.9322 O   0  0  0  0  0  0  0  0  0  0  0  0
   -7.5276    2.6077    0.8435 C   0  0  0  0  0  0  0  0  0  0  0  0
   -8.1775    3.4344    0.5145 H   0  0  0  0  0  0  0  0  0  0  0  0
   -8.2057    1.8676    1.2980 H   0  0  0  0  0  0  0  0  0  0  0  0
   -6.9411    3.0162    1.6819 H   0  0  0  0  0  0  0  0  0  0  0  0
   -5.4935    2.6382   -0.4627 N   0  0  0  0  0  0  0  0  0  0  0  0
   -4.5619    2.2388   -1.4845 C   0  0  2  0  0  0  0  0  0  0  0  0
   -3.1535    2.4674   -0.9521 C   0  0  0  0  0  0  0  0  0  0  0  0
   -2.8634    3.3945   -0.1987 O   0  0  0  0  0  0  0  0  0  0  0  0
   -4.7883    3.0138   -2.7732 C   0  0  0  0  0  0  0  0  0  0  0  0
   -5.2337    3.4049    0.1551 H   0  0  0  0  0  0  0  0  0  0  0  0
   -4.7192    1.1682   -1.6549 H   0  0  0  0  0  0  0  0  0  0  0  0
   -4.6352    4.0886   -2.6221 H   0  0  0  0  0  0  0  0  0  0  0  0
   -4.0976    2.6887   -3.5582 H   0  0  0  0  0  0  0  0  0  0  0  0
   -5.8111    2.8719   -3.1387 H   0  0  0  0  0  0  0  0  0  0  0  0
   -2.2466    1.5400   -1.4507 N   0  0  0  0  0  0  0  0  0  0  0  0
   -0.8424    1.5707   -1.1286 C   0  0  2  0  0  0  0  0  0  0  0  0
   -0.3807    0.1538   -0.7939 C   0  0  0  0  0  0  0  0  0  0  0  0
   -0.4742   -0.7847   -1.5825 O   0  0  0  0  0  0  0  0  0  0  0  0
   -0.5181    2.5894   -0.0331 C   0  0  0  0  0  0  0  0  0  0  0  0
   -0.8233    4.3049   -0.5194 S   0  0  0  0  0  0  0  0  0  0  0  0
   -2.5850    0.7815   -2.0381 H   0  0  0  0  0  0  0  0  0  0  0  0
   -0.3348    1.8748   -2.0524 H   0  0  0  0  0  0  0  0  0  0  0  0
   -1.1144    2.3923    0.8638 H   0  0  0  0  0  0  0  0  0  0  0  0
    0.5376    2.5113    0.2483 H   0  0  0  0  0  0  0  0  0  0  0  0
    0.1237    0.0569    0.4952 N   0  0  0  0  0  0  0  0  0  0  0  0
    0.6011   -1.1866    1.0534 C   0  0  2  0  0  0  0  0  0  0  0  0
    0.3150   -1.1711    2.5492 C   0  0  0  0  0  0  0  0  0  0  0  0
    0.3562   -0.1481    3.2295 O   0  0  0  0  0  0  0  0  0  0  0  0
    2.0857   -1.3794    0.7859 C   0  0  0  0  0  0  0  0  0  0  0  0
    0.2042    0.8940    1.0648 H   0  0  0  0  0  0  0  0  0  0  0  0
    0.0246   -1.9882    0.5791 H   0  0  0  0  0  0  0  0  0  0  0  0
    2.6795   -0.5856    1.2535 H   0  0  0  0  0  0  0  0  0  0  0  0
    2.4398   -2.3357    1.1848 H   0  0  0  0  0  0  0  0  0  0  0  0
    2.2936   -1.3605   -0.2894 H   0  0  0  0  0  0  0  0  0  0  0  0
    0.0508   -2.4409    3.0432 N   0  0  0  0  0  0  0  0  0  0  0  0
   -0.2091   -2.6952    4.4410 C   0  0  0  0  0  0  0  0  0  0  0  0
   -0.0025   -3.2259    2.4008 H   0  0  0  0  0  0  0  0  0  0  0  0
    0.7321   -2.9527    4.9486 H   0  0  0  0  0  0  0  0  0  0  0  0
   -0.6405   -1.7950    4.9033 H   0  0  0  0  0  0  0  0  0  0  0  0
   -0.9174   -3.5314    4.5359 H   0  0  0  0  0  0  0  0  0  0  0  0
  1  3  1  0  0  0  0
  1  7  1  0  0  0  0
  1  2  2  0  0  0  0
 23 25  1  0  0  0  0
 23 29  1  0  0  0  0
 23 24  2  0  0  0  0
 50 51  1  0  0  0  0
 51 59  1  0  0  0  0
 51 52  2  0  0  0  0
  8  9  1  0  0  0  0
  9 17  1  0  0  0  0
  9 10  2  0  0  0  0
 30 31  1  0  0  0  0
 31 39  1  0  0  0  0
 31 32  2  0  0  0  0
 40 41  1  0  0  0  0
 41 49  1  0  0  0  0
 41 42  2  0  0  0  0
 50 53  1  0  0  0  0
 30 33  1  0  0  0  0
 59 60  1  0  0  0  0
 17 18  1  0  0  0  0
  8 11  1  0  0  0  0
 11 12  1  0  0  0  0
 40 43  1  0  0  0  0
 43 44  1  0  0  0  0
 49 50  1  0  0  0  0
  7  8  1  0  0  0  0
 29 30  1  0  0  0  0
 39 40  1  0  0  0  0
 12 44  1  0  0  0  0
  3  4  1  0  0  0  0
  3  5  1  0  0  0  0
  3  6  1  0  0  0  0
 25 26  1  0  0  0  0
 25 27  1  0  0  0  0
 25 28  1  0  0  0  0
 53 56  1  0  0  0  0
 53 57  1  0  0  0  0
 53 58  1  0  0  0  0
 33 36  1  0  0  0  0
 33 37  1  0  0  0  0
 33 38  1  0  0  0  0
 60 62  1  0  0  0  0
 60 63  1  0  0  0  0
 60 64  1  0  0  0  0
 18 20  1  0  0  0  0
 18 21  1  0  0  0  0
 18 22  1  0  0  0  0
 11 15  1  0  0  0  0
 11 16  1  0  0  0  0
 43 47  1  0  0  0  0
 43 48  1  0  0  0  0
 50 55  1  0  0  0  0
  8 14  1  0  0  0  0
 30 35  1  0  0  0  0
 40 46  1  0  0  0  0
 59 61  1  0  0  0  0
 17 19  1  0  0  0  0
  7 13  1  0  0  0  0
 29 34  1  0  0  0  0
 49 54  1  0  0  0  0
 39 45  1  0  0  0  0
M  END
$$$$

  -OEChem-05262214473D

 64 63  0     1  0  0  0  0  0999 V2000
   -2.3598    8.4923    3.1102 C   0  0  0  0  0  0  0  0  0  0  0  0
   -3.5749    8.3468    3.0467 O   0  0  0  0  0  0  0  0  0  0  0  0
   -1.7751    9.8604    2.9882 C   0  0  0  0  0  0  0  0  0  0  0  0
   -1.5421   10.1266    1.9447 H   0  0  0  0  0  0  0  0  0  0  0  0
   -2.4632   10.6448    3.3422 H   0  0  0  0  0  0  0  0  0  0  0  0
   -0.8386   10.0240    3.5450 H   0  0  0  0  0  0  0  0  0  0  0  0
   -1.4231    7.4896    3.2919 N   0  0  0  0  0  0  0  0  0  0  0  0
   -1.7709    6.0985    3.4344 C   0  0  2  0  0  0  0  0  0  0  0  0
   -0.7951    5.4421    4.4089 C   0  0  0  0  0  0  0  0  0  0  0  0
    0.1843    6.0247    4.8702 O   0  0  0  0  0  0  0  0  0  0  0  0
   -1.8587    5.3788    2.0863 C   0  0  0  0  0  0  0  0  0  0  0  0
   -0.2793    5.3251    1.1781 S   0  0  0  0  0  0  0  0  0  0  0  0
   -0.4394    7.7478    3.3266 H   0  0  0  0  0  0  0  0  0  0  0  0
   -2.7630    6.0893    3.9028 H   0  0  0  0  0  0  0  0  0  0  0  0
   -2.1929    4.3453    2.2234 H   0  0  0  0  0  0  0  0  0  0  0  0
   -2.5900    5.8799    1.4428 H   0  0  0  0  0  0  0  0  0  0  0  0
   -1.1328    4.1241    4.6820 N   0  0  0  0  0  0  0  0  0  0  0  0
   -0.3487    3.2842    5.5569 C   0  0  0  0  0  0  0  0  0  0  0  0
   -1.9854    3.7351    4.2903 H   0  0  0  0  0  0  0  0  0  0  0  0
    0.3857    2.7200    4.9633 H   0  0  0  0  0  0  0  0  0  0  0  0
    0.1779    3.9110    6.2917 H   0  0  0  0  0  0  0  0  0  0  0  0
   -1.0123    2.5820    6.0826 H   0  0  0  0  0  0  0  0  0  0  0  0
   -6.7256    2.0330   -0.2766 C   0  0  0  0  0  0  0  0  0  0  0  0
   -7.1824    1.1039   -0.9322 O   0  0  0  0  0  0  0  0  0  0  0  0
   -7.5276    2.6077    0.8435 C   0  0  0  0  0  0  0  0  0  0  0  0
   -8.1775    3.4344    0.5145 H   0  0  0  0  0  0  0  0  0  0  0  0
   -8.2057    1.8676    1.2980 H   0  0  0  0  0  0  0  0  0  0  0  0
   -6.9411    3.0162    1.6819 H   0  0  0  0  0  0  0  0  0  0  0  0
   -5.4935    2.6382   -0.4627 N   0  0  0  0  0  0  0  0  0  0  0  0
   -4.5619    2.2388   -1.4845 C   0  0  2  0  0  0  0  0  0  0  0  0
   -3.1535    2.4674   -0.9521 C   0  0  0  0  0  0  0  0  0  0  0  0
   -2.8634    3.3945   -0.1987 O   0  0  0  0  0  0  0  0  0  0  0  0
   -4.7883    3.0138   -2.7732 C   0  0  0  0  0  0  0  0  0  0  0  0
   -5.2337    3.4049    0.1551 H   0  0  0  0  0  0  0  0  0  0  0  0
   -4.7192    1.1682   -1.6549 H   0  0  0  0  0  0  0  0  0  0  0  0
   -4.6352    4.0886   -2.6221 H   0  0  0  0  0  0  0  0  0  0  0  0
   -4.0976    2.6887   -3.5582 H   0  0  0  0  0  0  0  0  0  0  0  0
   -5.8111    2.8719   -3.1387 H   0  0  0  0  0  0  0  0  0  0  0  0
   -2.2466    1.5400   -1.4507 N   0  0  0  0  0  0  0  0  0  0  0  0
   -0.8424    1.5707   -1.1286 C   0  0  2  0  0  0  0  0  0  0  0  0
   -0.3807    0.1538   -0.7939 C   0  0  0  0  0  0  0  0  0  0  0  0
   -0.2216   -0.7175   -1.6465 O   0  0  0  0  0  0  0  0  0  0  0  0
   -0.5181    2.5894   -0.0331 C   0  0  0  0  0  0  0  0  0  0  0  0
   -0.8233    4.3049   -0.5194 S   0  0  0  0  0  0  0  0  0  0  0  0
   -2.5850    0.7815   -2.0381 H   0  0  0  0  0  0  0  0  0  0  0  0
   -0.3348    1.8748   -2.0524 H   0  0  0  0  0  0  0  0  0  0  0  0
   -1.1144    2.3923    0.8638 H   0  0  0  0  0  0  0  0  0  0  0  0
    0.5376    2.5113    0.2483 H   0  0  0  0  0  0  0  0  0  0  0  0
   -0.1921   -0.0287    0.5687 N   0  0  0  0  0  0  0  0  0  0  0  0
    0.2201   -1.2913    1.1359 C   0  0  2  0  0  0  0  0  0  0  0  0
   -0.4139   -1.4167    2.5149 C   0  0  0  0  0  0  0  0  0  0  0  0
   -0.6036   -0.4545    3.2561 O   0  0  0  0  0  0  0  0  0  0  0  0
    1.7352   -1.3903    1.2231 C   0  0  0  0  0  0  0  0  0  0  0  0
   -0.3051    0.7597    1.1991 H   0  0  0  0  0  0  0  0  0  0  0  0
   -0.1726   -2.0759    0.4800 H   0  0  0  0  0  0  0  0  0  0  0  0
    2.1468   -0.6121    1.8760 H   0  0  0  0  0  0  0  0  0  0  0  0
    2.0468   -2.3593    1.6267 H   0  0  0  0  0  0  0  0  0  0  0  0
    2.1911   -1.2701    0.2344 H   0  0  0  0  0  0  0  0  0  0  0  0
   -0.7033   -2.7350    2.8383 N   0  0  0  0  0  0  0  0  0  0  0  0
   -1.2708   -3.1194    4.1096 C   0  0  0  0  0  0  0  0  0  0  0  0
   -0.5501   -3.4641    2.1478 H   0  0  0  0  0  0  0  0  0  0  0  0
   -0.4623   -3.3745    4.8105 H   0  0  0  0  0  0  0  0  0  0  0  0
   -1.8584   -2.2832    4.5165 H   0  0  0  0  0  0  0  0  0  0  0  0
   -1.9243   -3.9931    3.9701 H   0  0  0  0  0  0  0  0  0  0  0  0
  1  3  1  0  0  0  0
  1  7  1  0  0  0  0
  1  2  2  0  0  0  0
 23 25  1  0  0  0  0
 23 29  1  0  0  0  0
 23 24  2  0  0  0  0
 50 51  1  0  0  0  0
 51 59  1  0  0  0  0
 51 52  2  0  0  0  0
  8  9  1  0  0  0  0
  9 17  1  0  0  0  0
  9 10  2  0  0  0  0
 30 31  1  0  0  0  0
 31 39  1  0  0  0  0
 31 32  2  0  0  0  0
 40 41  1  0  0  0  0
 41 49  1  0  0  0  0
 41 42  2  0  0  0  0
 50 53  1  0  0  0  0
 30 33  1  0  0  0  0
 59 60  1  0  0  0  0
 17 18  1  0  0  0  0
  8 11  1  0  0  0  0
 11 12  1  0  0  0  0
 40 43  1  0  0  0  0
 43 44  1  0  0  0  0
 49 50  1  0  0  0  0
  7  8  1  0  0  0  0
 29 30  1  0  0  0  0
 39 40  1  0  0  0  0
 12 44  1  0  0  0  0
  3  4  1  0  0  0  0
  3  5  1  0  0  0  0
  3  6  1  0  0  0  0
 25 26  1  0  0  0  0
 25 27  1  0  0  0  0
 25 28  1  0  0  0  0
 53 56  1  0  0  0  0
 53 57  1  0  0  0  0
 53 58  1  0  0  0  0
 33 36  1  0  0  0  0
 33 37  1  0  0  0  0
 33 38  1  0  0  0  0
 60 62  1  0  0  0  0
 60 63  1  0  0  0  0
 60 64  1  0  0  0  0
 18 20  1  0  0  0  0
 18 21  1  0  0  0  0
 18 22  1  0  0  0  0
 11 15  1  0  0  0  0
 11 16  1  0  0  0  0
 43 47  1  0  0  0  0
 43 48  1  0  0  0  0
 50 55  1  0  0  0  0
  8 14  1  0  0  0  0
 30 35  1  0  0  0  0
 40 46  1  0  0  0  0
 59 61  1  0  0  0  0
 17 19  1  0  0  0  0
  7 13  1  0  0  0  0
 29 34  1  0  0  0  0
 49 54  1  0  0  0  0
 39 45  1  0  0  0  0
M  END
$$$$

  -OEChem-05262214473D

 64 63  0     1  0  0  0  0  0999 V2000
   -2.3598    8.4923    3.1102 C   0  0  0  0  0  0  0  0  0  0  0  0
   -3.5749    8.3468    3.0467 O   0  0  0  0  0  0  0  0  0  0  0  0
   -1.7751    9.8604    2.9882 C   0  0  0  0  0  0  0  0  0  0  0  0
   -1.5421   10.1266    1.9447 H   0  0  0  0  0  0  0  0  0  0  0  0
   -2.4632   10.6448    3.3422 H   0  0  0  0  0  0  0  0  0  0  0  0
   -0.8386   10.0240    3.5450 H   0  0  0  0  0  0  0  0  0  0  0  0
   -1.4231    7.4896    3.2919 N   0  0  0  0  0  0  0  0  0  0  0  0
   -1.7709    6.0985    3.4344 C   0  0  2  0  0  0  0  0  0  0  0  0
   -0.7951    5.4421    4.4089 C   0  0  0  0  0  0  0  0  0  0  0  0
    0.1843    6.0247    4.8702 O   0  0  0  0  0  0  0  0  0  0  0  0
   -1.8587    5.3788    2.0863 C   0  0  0  0  0  0  0  0  0  0  0  0
   -0.2793    5.3251    1.1781 S   0  0  0  0  0  0  0  0  0  0  0  0
   -0.4394    7.7478    3.3266 H   0  0  0  0  0  0  0  0  0  0  0  0
   -2.7630    6.0893    3.9028 H   0  0  0  0  0  0  0  0  0  0  0  0
   -2.1929    4.3453    2.2234 H   0  0  0  0  0  0  0  0  0  0  0  0
   -2.5900    5.8799    1.4428 H   0  0  0  0  0  0  0  0  0  0  0  0
   -1.1328    4.1241    4.6820 N   0  0  0  0  0  0  0  0  0  0  0  0
   -0.3487    3.2842    5.5569 C   0  0  0  0  0  0  0  0  0  0  0  0
   -1.9854    3.7351    4.2903 H   0  0  0  0  0  0  0  0  0  0  0  0
    0.3857    2.7200    4.9633 H   0  0  0  0  0  0  0  0  0  0  0  0
    0.1779    3.9110    6.2917 H   0  0  0  0  0  0  0  0  0  0  0  0
   -1.0123    2.5820    6.0826 H   0  0  0  0  0  0  0  0  0  0  0  0
   -6.7256    2.0330   -0.2766 C   0  0  0  0  0  0  0  0  0  0  0  0
   -7.1824    1.1039   -0.9322 O   0  0  0  0  0  0  0  0  0  0  0  0
   -7.5276    2.6077    0.8435 C   0  0  0  0  0  0  0  0  0  0  0  0
   -8.1775    3.4344    0.5145 H   0  0  0  0  0  0  0  0  0  0  0  0
   -8.2057    1.8676    1.2980 H   0  0  0  0  0  0  0  0  0  0  0  0
   -6.9411    3.0162    1.6819 H   0  0  0  0  0  0  0  0  0  0  0  0
   -5.4935    2.6382   -0.4627 N   0  0  0  0  0  0  0  0  0  0  0  0
   -4.5619    2.2388   -1.4845 C   0  0  2  0  0  0  0  0  0  0  0  0
   -3.1535    2.4674   -0.9521 C   0  0  0  0  0  0  0  0  0  0  0  0
   -2.8634    3.3945   -0.1987 O   0  0  0  0  0  0  0  0  0  0  0  0
   -4.7883    3.0138   -2.7732 C   0  0  0  0  0  0  0  0  0  0  0  0
   -5.2337    3.4049    0.1551 H   0  0  0  0  0  0  0  0  0  0  0  0
   -4.7192    1.1682   -1.6549 H   0  0  0  0  0  0  0  0  0  0  0  0
   -4.6352    4.0886   -2.6221 H   0  0  0  0  0  0  0  0  0  0  0  0
   -4.0976    2.6887   -3.5582 H   0  0  0  0  0  0  0  0  0  0  0  0
   -5.8111    2.8719   -3.1387 H   0  0  0  0  0  0  0  0  0  0  0  0
   -2.2466    1.5400   -1.4507 N   0  0  0  0  0  0  0  0  0  0  0  0
   -0.8424    1.5707   -1.1286 C   0  0  2  0  0  0  0  0  0  0  0  0
   -0.3807    0.1538   -0.7939 C   0  0  0  0  0  0  0  0  0  0  0  0
    0.0340   -0.6332   -1.6424 O   0  0  0  0  0  0  0  0  0  0  0  0
   -0.5181    2.5894   -0.0331 C   0  0  0  0  0  0  0  0  0  0  0  0
   -0.8233    4.3049   -0.5194 S   0  0  0  0  0  0  0  0  0  0  0  0
   -2.5850    0.7815   -2.0381 H   0  0  0  0  0  0  0  0  0  0  0  0
   -0.3348    1.8748   -2.0524 H   0  0  0  0  0  0  0  0  0  0  0  0
   -1.1144    2.3923    0.8638 H   0  0  0  0  0  0  0  0  0  0  0  0
    0.5376    2.5113    0.2483 H   0  0  0  0  0  0  0  0  0  0  0  0
   -0.5100   -0.1349    0.5572 N   0  0  0  0  0  0  0  0  0  0  0  0
   -0.1617   -1.4204    1.1159 C   0  0  2  0  0  0  0  0  0  0  0  0
   -1.0958   -1.6926    2.2876 C   0  0  0  0  0  0  0  0  0  0  0  0
   -1.5196   -0.8071    3.0273 O   0  0  0  0  0  0  0  0  0  0  0  0
    1.2922   -1.4550    1.5604 C   0  0  0  0  0  0  0  0  0  0  0  0
   -0.8216    0.5907    1.1960 H   0  0  0  0  0  0  0  0  0  0  0  0
   -0.3343   -2.1640    0.3301 H   0  0  0  0  0  0  0  0  0  0  0  0
    1.4843   -0.7167    2.3474 H   0  0  0  0  0  0  0  0  0  0  0  0
    1.5625   -2.4391    1.9573 H   0  0  0  0  0  0  0  0  0  0  0  0
    1.9613   -1.2297    0.7229 H   0  0  0  0  0  0  0  0  0  0  0  0
   -1.3658   -3.0458    2.4363 N   0  0  0  0  0  0  0  0  0  0  0  0
   -2.1926   -3.5634    3.5014 C   0  0  0  0  0  0  0  0  0  0  0  0
   -1.0048   -3.7054    1.7534 H   0  0  0  0  0  0  0  0  0  0  0  0
   -1.5589   -3.8389    4.3573 H   0  0  0  0  0  0  0  0  0  0  0  0
   -2.9142   -2.7936    3.8123 H   0  0  0  0  0  0  0  0  0  0  0  0
   -2.7348   -4.4520    3.1458 H   0  0  0  0  0  0  0  0  0  0  0  0
  1  3  1  0  0  0  0
  1  7  1  0  0  0  0
  1  2  2  0  0  0  0
 23 25  1  0  0  0  0
 23 29  1  0  0  0  0
 23 24  2  0  0  0  0
 50 51  1  0  0  0  0
 51 59  1  0  0  0  0
 51 52  2  0  0  0  0
  8  9  1  0  0  0  0
  9 17  1  0  0  0  0
  9 10  2  0  0  0  0
 30 31  1  0  0  0  0
 31 39  1  0  0  0  0
 31 32  2  0  0  0  0
 40 41  1  0  0  0  0
 41 49  1  0  0  0  0
 41 42  2  0  0  0  0
 50 53  1  0  0  0  0
 30 33  1  0  0  0  0
 59 60  1  0  0  0  0
 17 18  1  0  0  0  0
  8 11  1  0  0  0  0
 11 12  1  0  0  0  0
 40 43  1  0  0  0  0
 43 44  1  0  0  0  0
 49 50  1  0  0  0  0
  7  8  1  0  0  0  0
 29 30  1  0  0  0  0
 39 40  1  0  0  0  0
 12 44  1  0  0  0  0
  3  4  1  0  0  0  0
  3  5  1  0  0  0  0
  3  6  1  0  0  0  0
 25 26  1  0  0  0  0
 25 27  1  0  0  0  0
 25 28  1  0  0  0  0
 53 56  1  0  0  0  0
 53 57  1  0  0  0  0
 53 58  1  0  0  0  0
 33 36  1  0  0  0  0
 33 37  1  0  0  0  0
 33 38  1  0  0  0  0
 60 62  1  0  0  0  0
 60 63  1  0  0  0  0
 60 64  1  0  0  0  0
 18 20  1  0  0  0  0
 18 21  1  0  0  0  0
 18 22  1  0  0  0  0
 11 15  1  0  0  0  0
 11 16  1  0  0  0  0
 43 47  1  0  0  0  0
 43 48  1  0  0  0  0
 50 55  1  0  0  0  0
  8 14  1  0  0  0  0
 30 35  1  0  0  0  0
 40 46  1  0  0  0  0
 59 61  1  0  0  0  0
 17 19  1  0  0  0  0
  7 13  1  0  0  0  0
 29 34  1  0  0  0  0
 49 54  1  0  0  0  0
 39 45  1  0  0  0  0
M  END
$$$$

  -OEChem-05262214473D

 64 63  0     1  0  0  0  0  0999 V2000
   -2.3598    8.4923    3.1102 C   0  0  0  0  0  0  0  0  0  0  0  0
   -3.5749    8.3468    3.0467 O   0  0  0  0  0  0  0  0  0  0  0  0
   -1.7751    9.8604    2.9882 C   0  0  0  0  0  0  0  0  0  0  0  0
   -1.5421   10.1266    1.9447 H   0  0  0  0  0  0  0  0  0  0  0  0
   -2.4632   10.6448    3.3422 H   0  0  0  0  0  0  0  0  0  0  0  0
   -0.8386   10.0240    3.5450 H   0  0  0  0  0  0  0  0  0  0  0  0
   -1.4231    7.4896    3.2919 N   0  0  0  0  0  0  0  0  0  0  0  0
   -1.7709    6.0985    3.4344 C   0  0  2  0  0  0  0  0  0  0  0  0
   -0.7951    5.4421    4.4089 C   0  0  0  0  0  0  0  0  0  0  0  0
    0.1843    6.0247    4.8702 O   0  0  0  0  0  0  0  0  0  0  0  0
   -1.8587    5.3788    2.0863 C   0  0  0  0  0  0  0  0  0  0  0  0
   -0.2793    5.3251    1.1781 S   0  0  0  0  0  0  0  0  0  0  0  0
   -0.4394    7.7478    3.3266 H   0  0  0  0  0  0  0  0  0  0  0  0
   -2.7630    6.0893    3.9028 H   0  0  0  0  0  0  0  0  0  0  0  0
   -2.1929    4.3453    2.2234 H   0  0  0  0  0  0  0  0  0  0  0  0
   -2.5900    5.8799    1.4428 H   0  0  0  0  0  0  0  0  0  0  0  0
   -1.1328    4.1241    4.6820 N   0  0  0  0  0  0  0  0  0  0  0  0
   -0.3487    3.2842    5.5569 C   0  0  0  0  0  0  0  0  0  0  0  0
   -1.9854    3.7351    4.2903 H   0  0  0  0  0  0  0  0  0  0  0  0
    0.3857    2.7200    4.9633 H   0  0  0  0  0  0  0  0  0  0  0  0
    0.1779    3.9110    6.2917 H   0  0  0  0  0  0  0  0  0  0  0  0
   -1.0123    2.5820    6.0826 H   0  0  0  0  0  0  0  0  0  0  0  0
   -6.7256    2.0330   -0.2766 C   0  0  0  0  0  0  0  0  0  0  0  0
   -7.1824    1.1039   -0.9322 O   0  0  0  0  0  0  0  0  0  0  0  0
   -7.5276    2.6077    0.8435 C   0  0  0  0  0  0  0  0  0  0  0  0
   -8.1775    3.4344    0.5145 H   0  0  0  0  0  0  0  0  0  0  0  0
   -8.2057    1.8676    1.2980 H   0  0  0  0  0  0  0  0  0  0  0  0
   -6.9411    3.0162    1.6819 H   0  0  0  0  0  0  0  0  0  0  0  0
   -5.4935    2.6382   -0.4627 N   0  0  0  0  0  0  0  0  0  0  0  0
   -4.5619    2.2388   -1.4845 C   0  0  2  0  0  0  0  0  0  0  0  0
   -3.1535    2.4674   -0.9521 C   0  0  0  0  0  0  0  0  0  0  0  0
   -2.8634    3.3945   -0.1987 O   0  0  0  0  0  0  0  0  0  0  0  0
   -4.7883    3.0138   -2.7732 C   0  0  0  0  0  0  0  0  0  0  0  0
   -5.2337    3.4049    0.1551 H   0  0  0  0  0  0  0  0  0  0  0  0
   -4.7192    1.1682   -1.6549 H   0  0  0  0  0  0  0  0  0  0  0  0
   -4.6352    4.0886   -2.6221 H   0  0  0  0  0  0  0  0  0  0  0  0
   -4.0976    2.6887   -3.5582 H   0  0  0  0  0  0  0  0  0  0  0  0
   -5.8111    2.8719   -3.1387 H   0  0  0  0  0  0  0  0  0  0  0  0
   -2.2466    1.5400   -1.4507 N   0  0  0  0  0  0  0  0  0  0  0  0
   -0.8424    1.5707   -1.1286 C   0  0  2  0  0  0  0  0  0  0  0  0
   -0.3807    0.1538   -0.7939 C   0  0  0  0  0  0  0  0  0  0  0  0
    0.2751   -0.5377   -1.5704 O   0  0  0  0  0  0  0  0  0  0  0  0
   -0.5181    2.5894   -0.0331 C   0  0  0  0  0  0  0  0  0  0  0  0
   -0.8233    4.3049   -0.5194 S   0  0  0  0  0  0  0  0  0  0  0  0
   -2.5850    0.7815   -2.0381 H   0  0  0  0  0  0  0  0  0  0  0  0
   -0.3348    1.8748   -2.0524 H   0  0  0  0  0  0  0  0  0  0  0  0
   -1.1144    2.3923    0.8638 H   0  0  0  0  0  0  0  0  0  0  0  0
    0.5376    2.5113    0.2483 H   0  0  0  0  0  0  0  0  0  0  0  0
   -0.8082   -0.2547    0.4615 N   0  0  0  0  0  0  0  0  0  0  0  0
   -0.5184   -1.5653    0.9947 C   0  0  2  0  0  0  0  0  0  0  0  0
   -1.6842   -1.9800    1.8827 C   0  0  0  0  0  0  0  0  0  0  0  0
   -2.3296   -1.1816    2.5588 O   0  0  0  0  0  0  0  0  0  0  0  0
    0.7871   -1.5690    1.7747 C   0  0  0  0  0  0  0  0  0  0  0  0
   -1.3102    0.3984    1.0557 H   0  0  0  0  0  0  0  0  0  0  0  0
   -0.4494   -2.2465    0.1396 H   0  0  0  0  0  0  0  0  0  0  0  0
    0.7371   -0.8921    2.6354 H   0  0  0  0  0  0  0  0  0  0  0  0
    1.0198   -2.5694    2.1541 H   0  0  0  0  0  0  0  0  0  0  0  0
    1.6197   -1.2418    1.1426 H   0  0  0  0  0  0  0  0  0  0  0  0
   -1.8916   -3.3522    1.8646 N   0  0  0  0  0  0  0  0  0  0  0  0
   -2.9118   -3.9970    2.6579 C   0  0  0  0  0  0  0  0  0  0  0  0
   -1.3356   -3.9334    1.2443 H   0  0  0  0  0  0  0  0  0  0  0  0
   -2.4831   -4.3142    3.6200 H   0  0  0  0  0  0  0  0  0  0  0  0
   -3.7360   -3.2913    2.8387 H   0  0  0  0  0  0  0  0  0  0  0  0
   -3.2938   -4.8766    2.1190 H   0  0  0  0  0  0  0  0  0  0  0  0
  1  3  1  0  0  0  0
  1  7  1  0  0  0  0
  1  2  2  0  0  0  0
 23 25  1  0  0  0  0
 23 29  1  0  0  0  0
 23 24  2  0  0  0  0
 50 51  1  0  0  0  0
 51 59  1  0  0  0  0
 51 52  2  0  0  0  0
  8  9  1  0  0  0  0
  9 17  1  0  0  0  0
  9 10  2  0  0  0  0
 30 31  1  0  0  0  0
 31 39  1  0  0  0  0
 31 32  2  0  0  0  0
 40 41  1  0  0  0  0
 41 49  1  0  0  0  0
 41 42  2  0  0  0  0
 50 53  1  0  0  0  0
 30 33  1  0  0  0  0
 59 60  1  0  0  0  0
 17 18  1  0  0  0  0
  8 11  1  0  0  0  0
 11 12  1  0  0  0  0
 40 43  1  0  0  0  0
 43 44  1  0  0  0  0
 49 50  1  0  0  0  0
  7  8  1  0  0  0  0
 29 30  1  0  0  0  0
 39 40  1  0  0  0  0
 12 44  1  0  0  0  0
  3  4  1  0  0  0  0
  3  5  1  0  0  0  0
  3  6  1  0  0  0  0
 25 26  1  0  0  0  0
 25 27  1  0  0  0  0
 25 28  1  0  0  0  0
 53 56  1  0  0  0  0
 53 57  1  0  0  0  0
 53 58  1  0  0  0  0
 33 36  1  0  0  0  0
 33 37  1  0  0  0  0
 33 38  1  0  0  0  0
 60 62  1  0  0  0  0
 60 63  1  0  0  0  0
 60 64  1  0  0  0  0
 18 20  1  0  0  0  0
 18 21  1  0  0  0  0
 18 22  1  0  0  0  0
 11 15  1  0  0  0  0
 11 16  1  0  0  0  0
 43 47  1  0  0  0  0
 43 48  1  0  0  0  0
 50 55  1  0  0  0  0
  8 14  1  0  0  0  0
 30 35  1  0  0  0  0
 40 46  1  0  0  0  0
 59 61  1  0  0  0  0
 17 19  1  0  0  0  0
  7 13  1  0  0  0  0
 29 34  1  0  0  0  0
 49 54  1  0  0  0  0
 39 45  1  0  0  0  0
M  END
$$$$

  -OEChem-05262214473D

 64 63  0     1  0  0  0  0  0999 V2000
   -2.3598    8.4923    3.1102 C   0  0  0  0  0  0  0  0  0  0  0  0
   -3.5749    8.3468    3.0467 O   0  0  0  0  0  0  0  0  0  0  0  0
   -1.7751    9.8604    2.9882 C   0  0  0  0  0  0  0  0  0  0  0  0
   -1.5421   10.1266    1.9447 H   0  0  0  0  0  0  0  0  0  0  0  0
   -2.4632   10.6448    3.3422 H   0  0  0  0  0  0  0  0  0  0  0  0
   -0.8386   10.0240    3.5450 H   0  0  0  0  0  0  0  0  0  0  0  0
   -1.4231    7.4896    3.2919 N   0  0  0  0  0  0  0  0  0  0  0  0
   -1.7709    6.0985    3.4344 C   0  0  2  0  0  0  0  0  0  0  0  0
   -0.7951    5.4421    4.4089 C   0  0  0  0  0  0  0  0  0  0  0  0
    0.1843    6.0247    4.8702 O   0  0  0  0  0  0  0  0  0  0  0  0
   -1.8587    5.3788    2.0863 C   0  0  0  0  0  0  0  0  0  0  0  0
   -0.2793    5.3251    1.1781 S   0  0  0  0  0  0  0  0  0  0  0  0
   -0.4394    7.7478    3.3266 H   0  0  0  0  0  0  0  0  0  0  0  0
   -2.7630    6.0893    3.9028 H   0  0  0  0  0  0  0  0  0  0  0  0
   -2.1929    4.3453    2.2234 H   0  0  0  0  0  0  0  0  0  0  0  0
   -2.5900    5.8799    1.4428 H   0  0  0  0  0  0  0  0  0  0  0  0
   -1.1328    4.1241    4.6820 N   0  0  0  0  0  0  0  0  0  0  0  0
   -0.3487    3.2842    5.5569 C   0  0  0  0  0  0  0  0  0  0  0  0
   -1.9854    3.7351    4.2903 H   0  0  0  0  0  0  0  0  0  0  0  0
    0.3857    2.7200    4.9633 H   0  0  0  0  0  0  0  0  0  0  0  0
    0.1779    3.9110    6.2917 H   0  0  0  0  0  0  0  0  0  0  0  0
   -1.0123    2.5820    6.0826 H   0  0  0  0  0  0  0  0  0  0  0  0
   -6.7256    2.0330   -0.2766 C   0  0  0  0  0  0  0  0  0  0  0  0
   -7.1824    1.1039   -0.9322 O   0  0  0  0  0  0  0  0  0  0  0  0
   -7.5276    2.6077    0.8435 C   0  0  0  0  0  0  0  0  0  0  0  0
   -8.1775    3.4344    0.5145 H   0  0  0  0  0  0  0  0  0  0  0  0
   -8.2057    1.8676    1.2980 H   0  0  0  0  0  0  0  0  0  0  0  0
   -6.9411    3.0162    1.6819 H   0  0  0  0  0  0  0  0  0  0  0  0
   -5.4935    2.6382   -0.4627 N   0  0  0  0  0  0  0  0  0  0  0  0
   -4.5619    2.2388   -1.4845 C   0  0  2  0  0  0  0  0  0  0  0  0
   -3.1535    2.4674   -0.9521 C   0  0  0  0  0  0  0  0  0  0  0  0
   -2.8634    3.3945   -0.1987 O   0  0  0  0  0  0  0  0  0  0  0  0
   -4.7883    3.0138   -2.7732 C   0  0  0  0  0  0  0  0  0  0  0  0
   -5.2337    3.4049    0.1551 H   0  0  0  0  0  0  0  0  0  0  0  0
   -4.7192    1.1682   -1.6549 H   0  0  0  0  0  0  0  0  0  0  0  0
   -4.6352    4.0886   -2.6221 H   0  0  0  0  0  0  0  0  0  0  0  0
   -4.0976    2.6887   -3.5582 H   0  0  0  0  0  0  0  0  0  0  0  0
   -5.8111    2.8719   -3.1387 H   0  0  0  0  0  0  0  0  0  0  0  0
   -2.2466    1.5400   -1.4507 N   0  0  0  0  0  0  0  0  0  0  0  0
   -0.8424    1.5707   -1.1286 C   0  0  2  0  0  0  0  0  0  0  0  0
   -0.3807    0.1538   -0.7939 C   0  0  0  0  0  0  0  0  0  0  0  0
    0.4854   -0.4373   -1.4356 O   0  0  0  0  0  0  0  0  0  0  0  0
   -0.5181    2.5894   -0.0331 C   0  0  0  0  0  0  0  0  0  0  0  0
   -0.8233    4.3049   -0.5194 S   0  0  0  0  0  0  0  0  0  0  0  0
   -2.5850    0.7815   -2.0381 H   0  0  0  0  0  0  0  0  0  0  0  0
   -0.3348    1.8748   -2.0524 H   0  0  0  0  0  0  0  0  0  0  0  0
   -1.1144    2.3923    0.8638 H   0  0  0  0  0  0  0  0  0  0  0  0
    0.5376    2.5113    0.2483 H   0  0  0  0  0  0  0  0  0  0  0  0
   -1.0665   -0.3799    0.2880 N   0  0  0  0  0  0  0  0  0  0  0  0
   -0.8256   -1.7159    0.7808 C   0  0  2  0  0  0  0  0  0  0  0  0
   -2.1390   -2.2593    1.3278 C   0  0  0  0  0  0  0  0  0  0  0  0
   -2.9782   -1.5527    1.8825 O   0  0  0  0  0  0  0  0  0  0  0  0
    0.2542   -1.7245    1.8516 C   0  0  0  0  0  0  0  0  0  0  0  0
   -1.7375    0.1959    0.7879 H   0  0  0  0  0  0  0  0  0  0  0  0
   -0.5103   -2.3178   -0.0785 H   0  0  0  0  0  0  0  0  0  0  0  0
   -0.0439   -1.1265    2.7205 H   0  0  0  0  0  0  0  0  0  0  0  0
    0.4557   -2.7415    2.2037 H   0  0  0  0  0  0  0  0  0  0  0  0
    1.1896   -1.3058    1.4651 H   0  0  0  0  0  0  0  0  0  0  0  0
   -2.2448   -3.6332    1.1622 N   0  0  0  0  0  0  0  0  0  0  0  0
   -3.3794   -4.3906    1.6365 C   0  0  0  0  0  0  0  0  0  0  0  0
   -1.5199   -4.1326    0.6553 H   0  0  0  0  0  0  0  0  0  0  0  0
   -3.1717   -4.7680    2.6486 H   0  0  0  0  0  0  0  0  0  0  0  0
   -4.2679   -3.7426    1.6620 H   0  0  0  0  0  0  0  0  0  0  0  0
   -3.5630   -5.2382    0.9598 H   0  0  0  0  0  0  0  0  0  0  0  0
  1  3  1  0  0  0  0
  1  7  1  0  0  0  0
  1  2  2  0  0  0  0
 23 25  1  0  0  0  0
 23 29  1  0  0  0  0
 23 24  2  0  0  0  0
 50 51  1  0  0  0  0
 51 59  1  0  0  0  0
 51 52  2  0  0  0  0
  8  9  1  0  0  0  0
  9 17  1  0  0  0  0
  9 10  2  0  0  0  0
 30 31  1  0  0  0  0
 31 39  1  0  0  0  0
 31 32  2  0  0  0  0
 40 41  1  0  0  0  0
 41 49  1  0  0  0  0
 41 42  2  0  0  0  0
 50 53  1  0  0  0  0
 30 33  1  0  0  0  0
 59 60  1  0  0  0  0
 17 18  1  0  0  0  0
  8 11  1  0  0  0  0
 11 12  1  0  0  0  0
 40 43  1  0  0  0  0
 43 44  1  0  0  0  0
 49 50  1  0  0  0  0
  7  8  1  0  0  0  0
 29 30  1  0  0  0  0
 39 40  1  0  0  0  0
 12 44  1  0  0  0  0
  3  4  1  0  0  0  0
  3  5  1  0  0  0  0
  3  6  1  0  0  0  0
 25 26  1  0  0  0  0
 25 27  1  0  0  0  0
 25 28  1  0  0  0  0
 53 56  1  0  0  0  0
 53 57  1  0  0  0  0
 53 58  1  0  0  0  0
 33 36  1  0  0  0  0
 33 37  1  0  0  0  0
 33 38  1  0  0  0  0
 60 62  1  0  0  0  0
 60 63  1  0  0  0  0
 60 64  1  0  0  0  0
 18 20  1  0  0  0  0
 18 21  1  0  0  0  0
 18 22  1  0  0  0  0
 11 15  1  0  0  0  0
 11 16  1  0  0  0  0
 43 47  1  0  0  0  0
 43 48  1  0  0  0  0
 50 55  1  0  0  0  0
  8 14  1  0  0  0  0
 30 35  1  0  0  0  0
 40 46  1  0  0  0  0
 59 61  1  0  0  0  0
 17 19  1  0  0  0  0
  7 13  1  0  0  0  0
 29 34  1  0  0  0  0
 49 54  1  0  0  0  0
 39 45  1  0  0  0  0
M  END
$$$$

  -OEChem-05262214473D

 64 63  0     1  0  0  0  0  0999 V2000
   -2.3598    8.4923    3.1102 C   0  0  0  0  0  0  0  0  0  0  0  0
   -3.5749    8.3468    3.0467 O   0  0  0  0  0  0  0  0  0  0  0  0
   -1.7751    9.8604    2.9882 C   0  0  0  0  0  0  0  0  0  0  0  0
   -1.5421   10.1266    1.9447 H   0  0  0  0  0  0  0  0  0  0  0  0
   -2.4632   10.6448    3.3422 H   0  0  0  0  0  0  0  0  0  0  0  0
   -0.8386   10.0240    3.5450 H   0  0  0  0  0  0  0  0  0  0  0  0
   -1.4231    7.4896    3.2919 N   0  0  0  0  0  0  0  0  0  0  0  0
   -1.7709    6.0985    3.4344 C   0  0  2  0  0  0  0  0  0  0  0  0
   -0.7951    5.4421    4.4089 C   0  0  0  0  0  0  0  0  0  0  0  0
    0.1843    6.0247    4.8702 O   0  0  0  0  0  0  0  0  0  0  0  0
   -1.8587    5.3788    2.0863 C   0  0  0  0  0  0  0  0  0  0  0  0
   -0.2793    5.3251    1.1781 S   0  0  0  0  0  0  0  0  0  0  0  0
   -0.4394    7.7478    3.3266 H   0  0  0  0  0  0  0  0  0  0  0  0
   -2.7630    6.0893    3.9028 H   0  0  0  0  0  0  0  0  0  0  0  0
   -2.1929    4.3453    2.2234 H   0  0  0  0  0  0  0  0  0  0  0  0
   -2.5900    5.8799    1.4428 H   0  0  0  0  0  0  0  0  0  0  0  0
   -1.1328    4.1241    4.6820 N   0  0  0  0  0  0  0  0  0  0  0  0
   -0.3487    3.2842    5.5569 C   0  0  0  0  0  0  0  0  0  0  0  0
   -1.9854    3.7351    4.2903 H   0  0  0  0  0  0  0  0  0  0  0  0
    0.3857    2.7200    4.9633 H   0  0  0  0  0  0  0  0  0  0  0  0
    0.1779    3.9110    6.2917 H   0  0  0  0  0  0  0  0  0  0  0  0
   -1.0123    2.5820    6.0826 H   0  0  0  0  0  0  0  0  0  0  0  0
   -6.7256    2.0330   -0.2766 C   0  0  0  0  0  0  0  0  0  0  0  0
   -7.1824    1.1039   -0.9322 O   0  0  0  0  0  0  0  0  0  0  0  0
   -7.5276    2.6077    0.8435 C   0  0  0  0  0  0  0  0  0  0  0  0
   -8.1775    3.4344    0.5145 H   0  0  0  0  0  0  0  0  0  0  0  0
   -8.2057    1.8676    1.2980 H   0  0  0  0  0  0  0  0  0  0  0  0
   -6.9411    3.0162    1.6819 H   0  0  0  0  0  0  0  0  0  0  0  0
   -5.4935    2.6382   -0.4627 N   0  0  0  0  0  0  0  0  0  0  0  0
   -4.5619    2.2388   -1.4845 C   0  0  2  0  0  0  0  0  0  0  0  0
   -3.1535    2.4674   -0.9521 C   0  0  0  0  0  0  0  0  0  0  0  0
   -2.8634    3.3945   -0.1987 O   0  0  0  0  0  0  0  0  0  0  0  0
   -4.7883    3.0138   -2.7732 C   0  0  0  0  0  0  0  0  0  0  0  0
   -5.2337    3.4049    0.1551 H   0  0  0  0  0  0  0  0  0  0  0  0
   -4.7192    1.1682   -1.6549 H   0  0  0  0  0  0  0  0  0  0  0  0
   -4.6352    4.0886   -2.6221 H   0  0  0  0  0  0  0  0  0  0  0  0
   -4.0976    2.6887   -3.5582 H   0  0  0  0  0  0  0  0  0  0  0  0
   -5.8111    2.8719   -3.1387 H   0  0  0  0  0  0  0  0  0  0  0  0
   -2.2466    1.5400   -1.4507 N   0  0  0  0  0  0  0  0  0  0  0  0
   -0.8424    1.5707   -1.1286 C   0  0  2  0  0  0  0  0  0  0  0  0
   -0.3807    0.1538   -0.7939 C   0  0  0  0  0  0  0  0  0  0  0  0
    0.6503   -0.3390   -1.2470 O   0  0  0  0  0  0  0  0  0  0  0  0
   -0.5181    2.5894   -0.0331 C   0  0  0  0  0  0  0  0  0  0  0  0
   -0.8233    4.3049   -0.5194 S   0  0  0  0  0  0  0  0  0  0  0  0
   -2.5850    0.7815   -2.0381 H   0  0  0  0  0  0  0  0  0  0  0  0
   -0.3348    1.8748   -2.0524 H   0  0  0  0  0  0  0  0  0  0  0  0
   -1.1144    2.3923    0.8638 H   0  0  0  0  0  0  0  0  0  0  0  0
    0.5376    2.5113    0.2483 H   0  0  0  0  0  0  0  0  0  0  0  0
   -1.2672   -0.5018    0.0487 N   0  0  0  0  0  0  0  0  0  0  0  0
   -1.0625   -1.8621    0.4885 C   0  0  2  0  0  0  0  0  0  0  0  0
   -2.4293   -2.5114    0.6607 C   0  0  0  0  0  0  0  0  0  0  0  0
   -3.4212   -1.8950    1.0444 O   0  0  0  0  0  0  0  0  0  0  0  0
   -0.2702   -1.9109    1.7857 C   0  0  0  0  0  0  0  0  0  0  0  0
   -2.0745   -0.0030    0.4108 H   0  0  0  0  0  0  0  0  0  0  0  0
   -0.5127   -2.3731   -0.3093 H   0  0  0  0  0  0  0  0  0  0  0  0
   -0.8054   -1.4038    2.5969 H   0  0  0  0  0  0  0  0  0  0  0  0
   -0.0913   -2.9436    2.1027 H   0  0  0  0  0  0  0  0  0  0  0  0
    0.7005   -1.4172    1.6683 H   0  0  0  0  0  0  0  0  0  0  0  0
   -2.4014   -3.8697    0.3769 N   0  0  0  0  0  0  0  0  0  0  0  0
   -3.5635   -4.7174    0.5068 C   0  0  0  0  0  0  0  0  0  0  0  0
   -1.5453   -4.2894    0.0265 H   0  0  0  0  0  0  0  0  0  0  0  0
   -3.5780   -5.1694    1.5096 H   0  0  0  0  0  0  0  0  0  0  0  0
   -4.4735   -4.1165    0.3624 H   0  0  0  0  0  0  0  0  0  0  0  0
   -3.5243   -5.5120   -0.2529 H   0  0  0  0  0  0  0  0  0  0  0  0
  1  3  1  0  0  0  0
  1  7  1  0  0  0  0
  1  2  2  0  0  0  0
 23 25  1  0  0  0  0
 23 29  1  0  0  0  0
 23 24  2  0  0  0  0
 50 51  1  0  0  0  0
 51 59  1  0  0  0  0
 51 52  2  0  0  0  0
  8  9  1  0  0  0  0
  9 17  1  0  0  0  0
  9 10  2  0  0  0  0
 30 31  1  0  0  0  0
 31 39  1  0  0  0  0
 31 32  2  0  0  0  0
 40 41  1  0  0  0  0
 41 49  1  0  0  0  0
 41 42  2  0  0  0  0
 50 53  1  0  0  0  0
 30 33  1  0  0  0  0
 59 60  1  0  0  0  0
 17 18  1  0  0  0  0
  8 11  1  0  0  0  0
 11 12  1  0  0  0  0
 40 43  1  0  0  0  0
 43 44  1  0  0  0  0
 49 50  1  0  0  0  0
  7  8  1  0  0  0  0
 29 30  1  0  0  0  0
 39 40  1  0  0  0  0
 12 44  1  0  0  0  0
  3  4  1  0  0  0  0
  3  5  1  0  0  0  0
  3  6  1  0  0  0  0
 25 26  1  0  0  0  0
 25 27  1  0  0  0  0
 25 28  1  0  0  0  0
 53 56  1  0  0  0  0
 53 57  1  0  0  0  0
 53 58  1  0  0  0  0
 33 36  1  0  0  0  0
 33 37  1  0  0  0  0
 33 38  1  0  0  0  0
 60 62  1  0  0  0  0
 60 63  1  0  0  0  0
 60 64  1  0  0  0  0
 18 20  1  0  0  0  0
 18 21  1  0  0  0  0
 18 22  1  0  0  0  0
 11 15  1  0  0  0  0
 11 16  1  0  0  0  0
 43 47  1  0  0  0  0
 43 48  1  0  0  0  0
 50 55  1  0  0  0  0
  8 14  1  0  0  0  0
 30 35  1  0  0  0  0
 40 46  1  0  0  0  0
 59 61  1  0  0  0  0
 17 19  1  0  0  0  0
  7 13  1  0  0  0  0
 29 34  1  0  0  0  0
 49 54  1  0  0  0  0
 39 45  1  0  0  0  0
M  END
$$$$

  -OEChem-05262214473D

 64 63  0     1  0  0  0  0  0999 V2000
   -2.3598    8.4923    3.1102 C   0  0  0  0  0  0  0  0  0  0  0  0
   -3.5749    8.3468    3.0467 O   0  0  0  0  0  0  0  0  0  0  0  0
   -1.7751    9.8604    2.9882 C   0  0  0  0  0  0  0  0  0  0  0  0
   -1.5421   10.1266    1.9447 H   0  0  0  0  0  0  0  0  0  0  0  0
   -2.4632   10.6448    3.3422 H   0  0  0  0  0  0  0  0  0  0  0  0
   -0.8386   10.0240    3.5450 H   0  0  0  0  0  0  0  0  0  0  0  0
   -1.4231    7.4896    3.2919 N   0  0  0  0  0  0  0  0  0  0  0  0
   -1.7709    6.0985    3.4344 C   0  0  2  0  0  0  0  0  0  0  0  0
   -0.7951    5.4421    4.4089 C   0  0  0  0  0  0  0  0  0  0  0  0
    0.1843    6.0247    4.8702 O   0  0  0  0  0  0  0  0  0  0  0  0
   -1.8587    5.3788    2.0863 C   0  0  0  0  0  0  0  0  0  0  0  0
   -0.2793    5.3251    1.1781 S   0  0  0  0  0  0  0  0  0  0  0  0
   -0.4394    7.7478    3.3266 H   0  0  0  0  0  0  0  0  0  0  0  0
   -2.7630    6.0893    3.9028 H   0  0  0  0  0  0  0  0  0  0  0  0
   -2.1929    4.3453    2.2234 H   0  0  0  0  0  0  0  0  0  0  0  0
   -2.5900    5.8799    1.4428 H   0  0  0  0  0  0  0  0  0  0  0  0
   -1.1328    4.1241    4.6820 N   0  0  0  0  0  0  0  0  0  0  0  0
   -0.3487    3.2842    5.5569 C   0  0  0  0  0  0  0  0  0  0  0  0
   -1.9854    3.7351    4.2903 H   0  0  0  0  0  0  0  0  0  0  0  0
    0.3857    2.7200    4.9633 H   0  0  0  0  0  0  0  0  0  0  0  0
    0.1779    3.9110    6.2917 H   0  0  0  0  0  0  0  0  0  0  0  0
   -1.0123    2.5820    6.0826 H   0  0  0  0  0  0  0  0  0  0  0  0
   -6.7256    2.0330   -0.2766 C   0  0  0  0  0  0  0  0  0  0  0  0
   -7.1824    1.1039   -0.9322 O   0  0  0  0  0  0  0  0  0  0  0  0
   -7.5276    2.6077    0.8435 C   0  0  0  0  0  0  0  0  0  0  0  0
   -8.1775    3.4344    0.5145 H   0  0  0  0  0  0  0  0  0  0  0  0
   -8.2057    1.8676    1.2980 H   0  0  0  0  0  0  0  0  0  0  0  0
   -6.9411    3.0162    1.6819 H   0  0  0  0  0  0  0  0  0  0  0  0
   -5.4935    2.6382   -0.4627 N   0  0  0  0  0  0  0  0  0  0  0  0
   -4.5619    2.2388   -1.4845 C   0  0  2  0  0  0  0  0  0  0  0  0
   -3.1535    2.4674   -0.9521 C   0  0  0  0  0  0  0  0  0  0  0  0
   -2.8634    3.3945   -0.1987 O   0  0  0  0  0  0  0  0  0  0  0  0
   -4.7883    3.0138   -2.7732 C   0  0  0  0  0  0  0  0  0  0  0  0
   -5.2337    3.4049    0.1551 H   0  0  0  0  0  0  0  0  0  0  0  0
   -4.7192    1.1682   -1.6549 H   0  0  0  0  0  0  0  0  0  0  0  0
   -4.6352    4.0886   -2.6221 H   0  0  0  0  0  0  0  0  0  0  0  0
   -4.0976    2.6887   -3.5582 H   0  0  0  0  0  0  0  0  0  0  0  0
   -5.8111    2.8719   -3.1387 H   0  0  0  0  0  0  0  0  0  0  0  0
   -2.2466    1.5400   -1.4507 N   0  0  0  0  0  0  0  0  0  0  0  0
   -0.8424    1.5707   -1.1286 C   0  0  2  0  0  0  0  0  0  0  0  0
   -0.3807    0.1538   -0.7939 C   0  0  0  0  0  0  0  0  0  0  0  0
    0.7589   -0.2495   -1.0176 O   0  0  0  0  0  0  0  0  0  0  0  0
   -0.5181    2.5894   -0.0331 C   0  0  0  0  0  0  0  0  0  0  0  0
   -0.8233    4.3049   -0.5194 S   0  0  0  0  0  0  0  0  0  0  0  0
   -2.5850    0.7815   -2.0381 H   0  0  0  0  0  0  0  0  0  0  0  0
   -0.3348    1.8748   -2.0524 H   0  0  0  0  0  0  0  0  0  0  0  0
   -1.1144    2.3923    0.8638 H   0  0  0  0  0  0  0  0  0  0  0  0
    0.5376    2.5113    0.2483 H   0  0  0  0  0  0  0  0  0  0  0  0
   -1.3967   -0.6122   -0.2403 N   0  0  0  0  0  0  0  0  0  0  0  0
   -1.2128   -1.9939    0.1379 C   0  0  2  0  0  0  0  0  0  0  0  0
   -2.5353   -2.7193   -0.0730 C   0  0  0  0  0  0  0  0  0  0  0  0
   -3.6286   -2.1852    0.1018 O   0  0  0  0  0  0  0  0  0  0  0  0
   -0.7504   -2.1156    1.5816 C   0  0  0  0  0  0  0  0  0  0  0  0
   -2.2982   -0.1848   -0.0500 H   0  0  0  0  0  0  0  0  0  0  0  0
   -0.4564   -2.4086   -0.5372 H   0  0  0  0  0  0  0  0  0  0  0  0
   -1.4955   -1.7052    2.2729 H   0  0  0  0  0  0  0  0  0  0  0  0
   -0.5840   -3.1619    1.8580 H   0  0  0  0  0  0  0  0  0  0  0  0
    0.1855   -1.5684    1.7385 H   0  0  0  0  0  0  0  0  0  0  0  0
   -2.3506   -4.0456   -0.4377 N   0  0  0  0  0  0  0  0  0  0  0  0
   -3.4515   -4.9551   -0.6541 C   0  0  0  0  0  0  0  0  0  0  0  0
   -1.4100   -4.3931   -0.5992 H   0  0  0  0  0  0  0  0  0  0  0  0
   -3.6741   -5.4911    0.2804 H   0  0  0  0  0  0  0  0  0  0  0  0
   -4.3388   -4.3877   -0.9715 H   0  0  0  0  0  0  0  0  0  0  0  0
   -3.1802   -5.6794   -1.4363 H   0  0  0  0  0  0  0  0  0  0  0  0
  1  3  1  0  0  0  0
  1  7  1  0  0  0  0
  1  2  2  0  0  0  0
 23 25  1  0  0  0  0
 23 29  1  0  0  0  0
 23 24  2  0  0  0  0
 50 51  1  0  0  0  0
 51 59  1  0  0  0  0
 51 52  2  0  0  0  0
  8  9  1  0  0  0  0
  9 17  1  0  0  0  0
  9 10  2  0  0  0  0
 30 31  1  0  0  0  0
 31 39  1  0  0  0  0
 31 32  2  0  0  0  0
 40 41  1  0  0  0  0
 41 49  1  0  0  0  0
 41 42  2  0  0  0  0
 50 53  1  0  0  0  0
 30 33  1  0  0  0  0
 59 60  1  0  0  0  0
 17 18  1  0  0  0  0
  8 11  1  0  0  0  0
 11 12  1  0  0  0  0
 40 43  1  0  0  0  0
 43 44  1  0  0  0  0
 49 50  1  0  0  0  0
  7  8  1  0  0  0  0
 29 30  1  0  0  0  0
 39 40  1  0  0  0  0
 12 44  1  0  0  0  0
  3  4  1  0  0  0  0
  3  5  1  0  0  0  0
  3  6  1  0  0  0  0
 25 26  1  0  0  0  0
 25 27  1  0  0  0  0
 25 28  1  0  0  0  0
 53 56  1  0  0  0  0
 53 57  1  0  0  0  0
 53 58  1  0  0  0  0
 33 36  1  0  0  0  0
 33 37  1  0  0  0  0
 33 38  1  0  0  0  0
 60 62  1  0  0  0  0
 60 63  1  0  0  0  0
 60 64  1  0  0  0  0
 18 20  1  0  0  0  0
 18 21  1  0  0  0  0
 18 22  1  0  0  0  0
 11 15  1  0  0  0  0
 11 16  1  0  0  0  0
 43 47  1  0  0  0  0
 43 48  1  0  0  0  0
 50 55  1  0  0  0  0
  8 14  1  0  0  0  0
 30 35  1  0  0  0  0
 40 46  1  0  0  0  0
 59 61  1  0  0  0  0
 17 19  1  0  0  0  0
  7 13  1  0  0  0  0
 29 34  1  0  0  0  0
 49 54  1  0  0  0  0
 39 45  1  0  0  0  0
M  END
$$$$

  -OEChem-05262214473D

 64 63  0     1  0  0  0  0  0999 V2000
   -2.3598    8.4923    3.1102 C   0  0  0  0  0  0  0  0  0  0  0  0
   -3.5749    8.3468    3.0467 O   0  0  0  0  0  0  0  0  0  0  0  0
   -1.7751    9.8604    2.9882 C   0  0  0  0  0  0  0  0  0  0  0  0
   -1.5421   10.1266    1.9447 H   0  0  0  0  0  0  0  0  0  0  0  0
   -2.4632   10.6448    3.3422 H   0  0  0  0  0  0  0  0  0  0  0  0
   -0.8386   10.0240    3.5450 H   0  0  0  0  0  0  0  0  0  0  0  0
   -1.4231    7.4896    3.2919 N   0  0  0  0  0  0  0  0  0  0  0  0
   -1.7709    6.0985    3.4344 C   0  0  2  0  0  0  0  0  0  0  0  0
   -0.7951    5.4421    4.4089 C   0  0  0  0  0  0  0  0  0  0  0  0
    0.1843    6.0247    4.8702 O   0  0  0  0  0  0  0  0  0  0  0  0
   -1.8587    5.3788    2.0863 C   0  0  0  0  0  0  0  0  0  0  0  0
   -0.2793    5.3251    1.1781 S   0  0  0  0  0  0  0  0  0  0  0  0
   -0.4394    7.7478    3.3266 H   0  0  0  0  0  0  0  0  0  0  0  0
   -2.7630    6.0893    3.9028 H   0  0  0  0  0  0  0  0  0  0  0  0
   -2.1929    4.3453    2.2234 H   0  0  0  0  0  0  0  0  0  0  0  0
   -2.5900    5.8799    1.4428 H   0  0  0  0  0  0  0  0  0  0  0  0
   -1.1328    4.1241    4.6820 N   0  0  0  0  0  0  0  0  0  0  0  0
   -0.3487    3.2842    5.5569 C   0  0  0  0  0  0  0  0  0  0  0  0
   -1.9854    3.7351    4.2903 H   0  0  0  0  0  0  0  0  0  0  0  0
    0.3857    2.7200    4.9633 H   0  0  0  0  0  0  0  0  0  0  0  0
    0.1779    3.9110    6.2917 H   0  0  0  0  0  0  0  0  0  0  0  0
   -1.0123    2.5820    6.0826 H   0  0  0  0  0  0  0  0  0  0  0  0
   -6.7256    2.0330   -0.2766 C   0  0  0  0  0  0  0  0  0  0  0  0
   -7.1824    1.1039   -0.9322 O   0  0  0  0  0  0  0  0  0  0  0  0
   -7.5276    2.6077    0.8435 C   0  0  0  0  0  0  0  0  0  0  0  0
   -8.1775    3.4344    0.5145 H   0  0  0  0  0  0  0  0  0  0  0  0
   -8.2057    1.8676    1.2980 H   0  0  0  0  0  0  0  0  0  0  0  0
   -6.9411    3.0162    1.6819 H   0  0  0  0  0  0  0  0  0  0  0  0
   -5.4935    2.6382   -0.4627 N   0  0  0  0  0  0  0  0  0  0  0  0
   -4.5619    2.2388   -1.4845 C   0  0  2  0  0  0  0  0  0  0  0  0
   -3.1535    2.4674   -0.9521 C   0  0  0  0  0  0  0  0  0  0  0  0
   -2.8634    3.3945   -0.1987 O   0  0  0  0  0  0  0  0  0  0  0  0
   -4.7883    3.0138   -2.7732 C   0  0  0  0  0  0  0  0  0  0  0  0
   -5.2337    3.4049    0.1551 H   0  0  0  0  0  0  0  0  0  0  0  0
   -4.7192    1.1682   -1.6549 H   0  0  0  0  0  0  0  0  0  0  0  0
   -4.6352    4.0886   -2.6221 H   0  0  0  0  0  0  0  0  0  0  0  0
   -4.0976    2.6887   -3.5582 H   0  0  0  0  0  0  0  0  0  0  0  0
   -5.8111    2.8719   -3.1387 H   0  0  0  0  0  0  0  0  0  0  0  0
   -2.2466    1.5400   -1.4507 N   0  0  0  0  0  0  0  0  0  0  0  0
   -0.8424    1.5707   -1.1286 C   0  0  2  0  0  0  0  0  0  0  0  0
   -0.3807    0.1538   -0.7939 C   0  0  0  0  0  0  0  0  0  0  0  0
    0.8035   -0.1748   -0.7629 O   0  0  0  0  0  0  0  0  0  0  0  0
   -0.5181    2.5894   -0.0331 C   0  0  0  0  0  0  0  0  0  0  0  0
   -0.8233    4.3049   -0.5194 S   0  0  0  0  0  0  0  0  0  0  0  0
   -2.5850    0.7815   -2.0381 H   0  0  0  0  0  0  0  0  0  0  0  0
   -0.3348    1.8748   -2.0524 H   0  0  0  0  0  0  0  0  0  0  0  0
   -1.1144    2.3923    0.8638 H   0  0  0  0  0  0  0  0  0  0  0  0
    0.5376    2.5113    0.2483 H   0  0  0  0  0  0  0  0  0  0  0  0
   -1.4462   -0.7037   -0.5591 N   0  0  0  0  0  0  0  0  0  0  0  0
   -1.2664   -2.1023   -0.2471 C   0  0  2  0  0  0  0  0  0  0  0  0
   -2.4496   -2.8686   -0.8235 C   0  0  0  0  0  0  0  0  0  0  0  0
   -3.5861   -2.4036   -0.8812 O   0  0  0  0  0  0  0  0  0  0  0  0
   -1.1536   -2.3245    1.2531 C   0  0  0  0  0  0  0  0  0  0  0  0
   -2.3934   -0.3369   -0.5630 H   0  0  0  0  0  0  0  0  0  0  0  0
   -0.3453   -2.4219   -0.7466 H   0  0  0  0  0  0  0  0  0  0  0  0
   -2.0672   -2.0101    1.7707 H   0  0  0  0  0  0  0  0  0  0  0  0
   -0.9887   -3.3816    1.4863 H   0  0  0  0  0  0  0  0  0  0  0  0
   -0.3203   -1.7492    1.6707 H   0  0  0  0  0  0  0  0  0  0  0  0
   -2.0961   -4.1488   -1.2262 N   0  0  0  0  0  0  0  0  0  0  0  0
   -3.0511   -5.0876   -1.7672 C   0  0  0  0  0  0  0  0  0  0  0  0
   -1.1231   -4.4366   -1.1792 H   0  0  0  0  0  0  0  0  0  0  0  0
   -3.4536   -5.7110   -0.9552 H   0  0  0  0  0  0  0  0  0  0  0  0
   -3.8730   -4.5377   -2.2489 H   0  0  0  0  0  0  0  0  0  0  0  0
   -2.5542   -5.7290   -2.5099 H   0  0  0  0  0  0  0  0  0  0  0  0
  1  3  1  0  0  0  0
  1  7  1  0  0  0  0
  1  2  2  0  0  0  0
 23 25  1  0  0  0  0
 23 29  1  0  0  0  0
 23 24  2  0  0  0  0
 50 51  1  0  0  0  0
 51 59  1  0  0  0  0
 51 52  2  0  0  0  0
  8  9  1  0  0  0  0
  9 17  1  0  0  0  0
  9 10  2  0  0  0  0
 30 31  1  0  0  0  0
 31 39  1  0  0  0  0
 31 32  2  0  0  0  0
 40 41  1  0  0  0  0
 41 49  1  0  0  0  0
 41 42  2  0  0  0  0
 50 53  1  0  0  0  0
 30 33  1  0  0  0  0
 59 60  1  0  0  0  0
 17 18  1  0  0  0  0
  8 11  1  0  0  0  0
 11 12  1  0  0  0  0
 40 43  1  0  0  0  0
 43 44  1  0  0  0  0
 49 50  1  0  0  0  0
  7  8  1  0  0  0  0
 29 30  1  0  0  0  0
 39 40  1  0  0  0  0
 12 44  1  0  0  0  0
  3  4  1  0  0  0  0
  3  5  1  0  0  0  0
  3  6  1  0  0  0  0
 25 26  1  0  0  0  0
 25 27  1  0  0  0  0
 25 28  1  0  0  0  0
 53 56  1  0  0  0  0
 53 57  1  0  0  0  0
 53 58  1  0  0  0  0
 33 36  1  0  0  0  0
 33 37  1  0  0  0  0
 33 38  1  0  0  0  0
 60 62  1  0  0  0  0
 60 63  1  0  0  0  0
 60 64  1  0  0  0  0
 18 20  1  0  0  0  0
 18 21  1  0  0  0  0
 18 22  1  0  0  0  0
 11 15  1  0  0  0  0
 11 16  1  0  0  0  0
 43 47  1  0  0  0  0
 43 48  1  0  0  0  0
 50 55  1  0  0  0  0
  8 14  1  0  0  0  0
 30 35  1  0  0  0  0
 40 46  1  0  0  0  0
 59 61  1  0  0  0  0
 17 19  1  0  0  0  0
  7 13  1  0  0  0  0
 29 34  1  0  0  0  0
 49 54  1  0  0  0  0
 39 45  1  0  0  0  0
M  END
$$$$

  -OEChem-05262214473D

 64 63  0     1  0  0  0  0  0999 V2000
   -2.3598    8.4923    3.1102 C   0  0  0  0  0  0  0  0  0  0  0  0
   -3.5749    8.3468    3.0467 O   0  0  0  0  0  0  0  0  0  0  0  0
   -1.7751    9.8604    2.9882 C   0  0  0  0  0  0  0  0  0  0  0  0
   -1.5421   10.1266    1.9447 H   0  0  0  0  0  0  0  0  0  0  0  0
   -2.4632   10.6448    3.3422 H   0  0  0  0  0  0  0  0  0  0  0  0
   -0.8386   10.0240    3.5450 H   0  0  0  0  0  0  0  0  0  0  0  0
   -1.4231    7.4896    3.2919 N   0  0  0  0  0  0  0  0  0  0  0  0
   -1.7709    6.0985    3.4344 C   0  0  2  0  0  0  0  0  0  0  0  0
   -0.7951    5.4421    4.4089 C   0  0  0  0  0  0  0  0  0  0  0  0
    0.1843    6.0247    4.8702 O   0  0  0  0  0  0  0  0  0  0  0  0
   -1.8587    5.3788    2.0863 C   0  0  0  0  0  0  0  0  0  0  0  0
   -0.2793    5.3251    1.1781 S   0  0  0  0  0  0  0  0  0  0  0  0
   -0.4394    7.7478    3.3266 H   0  0  0  0  0  0  0  0  0  0  0  0
   -2.7630    6.0893    3.9028 H   0  0  0  0  0  0  0  0  0  0  0  0
   -2.1929    4.3453    2.2234 H   0  0  0  0  0  0  0  0  0  0  0  0
   -2.5900    5.8799    1.4428 H   0  0  0  0  0  0  0  0  0  0  0  0
   -1.1328    4.1241    4.6820 N   0  0  0  0  0  0  0  0  0  0  0  0
   -0.3487    3.2842    5.5569 C   0  0  0  0  0  0  0  0  0  0  0  0
   -1.9854    3.7351    4.2903 H   0  0  0  0  0  0  0  0  0  0  0  0
    0.3857    2.7200    4.9633 H   0  0  0  0  0  0  0  0  0  0  0  0
    0.1779    3.9110    6.2917 H   0  0  0  0  0  0  0  0  0  0  0  0
   -1.0123    2.5820    6.0826 H   0  0  0  0  0  0  0  0  0  0  0  0
   -6.7256    2.0330   -0.2766 C   0  0  0  0  0  0  0  0  0  0  0  0
   -7.1824    1.1039   -0.9322 O   0  0  0  0  0  0  0  0  0  0  0  0
   -7.5276    2.6077    0.8435 C   0  0  0  0  0  0  0  0  0  0  0  0
   -8.1775    3.4344    0.5145 H   0  0  0  0  0  0  0  0  0  0  0  0
   -8.2057    1.8676    1.2980 H   0  0  0  0  0  0  0  0  0  0  0  0
   -6.9411    3.0162    1.6819 H   0  0  0  0  0  0  0  0  0  0  0  0
   -5.4935    2.6382   -0.4627 N   0  0  0  0  0  0  0  0  0  0  0  0
   -4.5619    2.2388   -1.4845 C   0  0  2  0  0  0  0  0  0  0  0  0
   -3.1535    2.4674   -0.9521 C   0  0  0  0  0  0  0  0  0  0  0  0
   -2.8634    3.3945   -0.1987 O   0  0  0  0  0  0  0  0  0  0  0  0
   -4.7883    3.0138   -2.7732 C   0  0  0  0  0  0  0  0  0  0  0  0
   -5.2337    3.4049    0.1551 H   0  0  0  0  0  0  0  0  0  0  0  0
   -4.7192    1.1682   -1.6549 H   0  0  0  0  0  0  0  0  0  0  0  0
   -4.6352    4.0886   -2.6221 H   0  0  0  0  0  0  0  0  0  0  0  0
   -4.0976    2.6887   -3.5582 H   0  0  0  0  0  0  0  0  0  0  0  0
   -5.8111    2.8719   -3.1387 H   0  0  0  0  0  0  0  0  0  0  0  0
   -2.2466    1.5400   -1.4507 N   0  0  0  0  0  0  0  0  0  0  0  0
   -0.8424    1.5707   -1.1286 C   0  0  2  0  0  0  0  0  0  0  0  0
   -0.3807    0.1538   -0.7939 C   0  0  0  0  0  0  0  0  0  0  0  0
    0.7812   -0.1200   -0.5003 O   0  0  0  0  0  0  0  0  0  0  0  0
   -0.5181    2.5894   -0.0331 C   0  0  0  0  0  0  0  0  0  0  0  0
   -0.8233    4.3049   -0.5194 S   0  0  0  0  0  0  0  0  0  0  0  0
   -2.5850    0.7815   -2.0381 H   0  0  0  0  0  0  0  0  0  0  0  0
   -0.3348    1.8748   -2.0524 H   0  0  0  0  0  0  0  0  0  0  0  0
   -1.1144    2.3923    0.8638 H   0  0  0  0  0  0  0  0  0  0  0  0
    0.5376    2.5113    0.2483 H   0  0  0  0  0  0  0  0  0  0  0  0
   -1.4122   -0.7698   -0.8861 N   0  0  0  0  0  0  0  0  0  0  0  0
   -1.2195   -2.1799   -0.6404 C   0  0  2  0  0  0  0  0  0  0  0  0
   -2.1783   -2.9493   -1.5394 C   0  0  0  0  0  0  0  0  0  0  0  0
   -3.2966   -2.5351   -1.8376 O   0  0  0  0  0  0  0  0  0  0  0  0
   -1.4523   -2.5235    0.8227 C   0  0  0  0  0  0  0  0  0  0  0  0
   -2.3534   -0.4492   -1.0933 H   0  0  0  0  0  0  0  0  0  0  0  0
   -0.1870   -2.4120   -0.9232 H   0  0  0  0  0  0  0  0  0  0  0  0
   -2.4816   -2.2978    1.1244 H   0  0  0  0  0  0  0  0  0  0  0  0
   -1.2780   -3.5877    1.0129 H   0  0  0  0  0  0  0  0  0  0  0  0
   -0.7822   -1.9472    1.4697 H   0  0  0  0  0  0  0  0  0  0  0  0
   -1.6551   -4.1725   -1.9347 N   0  0  0  0  0  0  0  0  0  0  0  0
   -2.3896   -5.1057   -2.7566 C   0  0  0  0  0  0  0  0  0  0  0  0
   -0.7043   -4.4170   -1.6739 H   0  0  0  0  0  0  0  0  0  0  0  0
   -2.9314   -5.8143   -2.1129 H   0  0  0  0  0  0  0  0  0  0  0  0
   -3.1080   -4.5561   -3.3827 H   0  0  0  0  0  0  0  0  0  0  0  0
   -1.6889   -5.6574   -3.4005 H   0  0  0  0  0  0  0  0  0  0  0  0
  1  3  1  0  0  0  0
  1  7  1  0  0  0  0
  1  2  2  0  0  0  0
 23 25  1  0  0  0  0
 23 29  1  0  0  0  0
 23 24  2  0  0  0  0
 50 51  1  0  0  0  0
 51 59  1  0  0  0  0
 51 52  2  0  0  0  0
  8  9  1  0  0  0  0
  9 17  1  0  0  0  0
  9 10  2  0  0  0  0
 30 31  1  0  0  0  0
 31 39  1  0  0  0  0
 31 32  2  0  0  0  0
 40 41  1  0  0  0  0
 41 49  1  0  0  0  0
 41 42  2  0  0  0  0
 50 53  1  0  0  0  0
 30 33  1  0  0  0  0
 59 60  1  0  0  0  0
 17 18  1  0  0  0  0
  8 11  1  0  0  0  0
 11 12  1  0  0  0  0
 40 43  1  0  0  0  0
 43 44  1  0  0  0  0
 49 50  1  0  0  0  0
  7  8  1  0  0  0  0
 29 30  1  0  0  0  0
 39 40  1  0  0  0  0
 12 44  1  0  0  0  0
  3  4  1  0  0  0  0
  3  5  1  0  0  0  0
  3  6  1  0  0  0  0
 25 26  1  0  0  0  0
 25 27  1  0  0  0  0
 25 28  1  0  0  0  0
 53 56  1  0  0  0  0
 53 57  1  0  0  0  0
 53 58  1  0  0  0  0
 33 36  1  0  0  0  0
 33 37  1  0  0  0  0
 33 38  1  0  0  0  0
 60 62  1  0  0  0  0
 60 63  1  0  0  0  0
 60 64  1  0  0  0  0
 18 20  1  0  0  0  0
 18 21  1  0  0  0  0
 18 22  1  0  0  0  0
 11 15  1  0  0  0  0
 11 16  1  0  0  0  0
 43 47  1  0  0  0  0
 43 48  1  0  0  0  0
 50 55  1  0  0  0  0
  8 14  1  0  0  0  0
 30 35  1  0  0  0  0
 40 46  1  0  0  0  0
 59 61  1  0  0  0  0
 17 19  1  0  0  0  0
  7 13  1  0  0  0  0
 29 34  1  0  0  0  0
 49 54  1  0  0  0  0
 39 45  1  0  0  0  0
M  END
$$$$

  -OEChem-05262214473D

 64 63  0     1  0  0  0  0  0999 V2000
   -2.3598    8.4923    3.1102 C   0  0  0  0  0  0  0  0  0  0  0  0
   -3.5749    8.3468    3.0467 O   0  0  0  0  0  0  0  0  0  0  0  0
   -1.7751    9.8604    2.9882 C   0  0  0  0  0  0  0  0  0  0  0  0
   -1.5421   10.1266    1.9447 H   0  0  0  0  0  0  0  0  0  0  0  0
   -2.4632   10.6448    3.3422 H   0  0  0  0  0  0  0  0  0  0  0  0
   -0.8386   10.0240    3.5450 H   0  0  0  0  0  0  0  0  0  0  0  0
   -1.4231    7.4896    3.2919 N   0  0  0  0  0  0  0  0  0  0  0  0
   -1.7709    6.0985    3.4344 C   0  0  2  0  0  0  0  0  0  0  0  0
   -0.7951    5.4421    4.4089 C   0  0  0  0  0  0  0  0  0  0  0  0
    0.1843    6.0247    4.8702 O   0  0  0  0  0  0  0  0  0  0  0  0
   -1.8587    5.3788    2.0863 C   0  0  0  0  0  0  0  0  0  0  0  0
   -0.2793    5.3251    1.1781 S   0  0  0  0  0  0  0  0  0  0  0  0
   -0.4394    7.7478    3.3266 H   0  0  0  0  0  0  0  0  0  0  0  0
   -2.7630    6.0893    3.9028 H   0  0  0  0  0  0  0  0  0  0  0  0
   -2.1929    4.3453    2.2234 H   0  0  0  0  0  0  0  0  0  0  0  0
   -2.5900    5.8799    1.4428 H   0  0  0  0  0  0  0  0  0  0  0  0
   -1.1328    4.1241    4.6820 N   0  0  0  0  0  0  0  0  0  0  0  0
   -0.3487    3.2842    5.5569 C   0  0  0  0  0  0  0  0  0  0  0  0
   -1.9854    3.7351    4.2903 H   0  0  0  0  0  0  0  0  0  0  0  0
    0.3857    2.7200    4.9633 H   0  0  0  0  0  0  0  0  0  0  0  0
    0.1779    3.9110    6.2917 H   0  0  0  0  0  0  0  0  0  0  0  0
   -1.0123    2.5820    6.0826 H   0  0  0  0  0  0  0  0  0  0  0  0
   -6.7256    2.0330   -0.2766 C   0  0  0  0  0  0  0  0  0  0  0  0
   -7.1824    1.1039   -0.9322 O   0  0  0  0  0  0  0  0  0  0  0  0
   -7.5276    2.6077    0.8435 C   0  0  0  0  0  0  0  0  0  0  0  0
   -8.1775    3.4344    0.5145 H   0  0  0  0  0  0  0  0  0  0  0  0
   -8.2057    1.8676    1.2980 H   0  0  0  0  0  0  0  0  0  0  0  0
   -6.9411    3.0162    1.6819 H   0  0  0  0  0  0  0  0  0  0  0  0
   -5.4935    2.6382   -0.4627 N   0  0  0  0  0  0  0  0  0  0  0  0
   -4.5619    2.2388   -1.4845 C   0  0  2  0  0  0  0  0  0  0  0  0
   -3.1535    2.4674   -0.9521 C   0  0  0  0  0  0  0  0  0  0  0  0
   -2.8634    3.3945   -0.1987 O   0  0  0  0  0  0  0  0  0  0  0  0
   -4.7883    3.0138   -2.7732 C   0  0  0  0  0  0  0  0  0  0  0  0
   -5.2337    3.4049    0.1551 H   0  0  0  0  0  0  0  0  0  0  0  0
   -4.7192    1.1682   -1.6549 H   0  0  0  0  0  0  0  0  0  0  0  0
   -4.6352    4.0886   -2.6221 H   0  0  0  0  0  0  0  0  0  0  0  0
   -4.0976    2.6887   -3.5582 H   0  0  0  0  0  0  0  0  0  0  0  0
   -5.8111    2.8719   -3.1387 H   0  0  0  0  0  0  0  0  0  0  0  0
   -2.2466    1.5400   -1.4507 N   0  0  0  0  0  0  0  0  0  0  0  0
   -0.8424    1.5707   -1.1286 C   0  0  2  0  0  0  0  0  0  0  0  0
   -0.3807    0.1538   -0.7939 C   0  0  0  0  0  0  0  0  0  0  0  0
    0.6936   -0.0889   -0.2477 O   0  0  0  0  0  0  0  0  0  0  0  0
   -0.5181    2.5894   -0.0331 C   0  0  0  0  0  0  0  0  0  0  0  0
   -0.8233    4.3049   -0.5194 S   0  0  0  0  0  0  0  0  0  0  0  0
   -2.5850    0.7815   -2.0381 H   0  0  0  0  0  0  0  0  0  0  0  0
   -0.3348    1.8748   -2.0524 H   0  0  0  0  0  0  0  0  0  0  0  0
   -1.1144    2.3923    0.8638 H   0  0  0  0  0  0  0  0  0  0  0  0
    0.5376    2.5113    0.2483 H   0  0  0  0  0  0  0  0  0  0  0  0
   -1.2971   -0.8062   -1.1989 N   0  0  0  0  0  0  0  0  0  0  0  0
   -1.0754   -2.2215   -1.0151 C   0  0  2  0  0  0  0  0  0  0  0  0
   -1.7396   -2.9558   -2.1722 C   0  0  0  0  0  0  0  0  0  0  0  0
   -2.7799   -2.5710   -2.7022 O   0  0  0  0  0  0  0  0  0  0  0  0
   -1.6262   -2.6990    0.3196 C   0  0  0  0  0  0  0  0  0  0  0  0
   -2.1812   -0.5138   -1.6047 H   0  0  0  0  0  0  0  0  0  0  0  0
    0.0078   -2.3797   -1.0550 H   0  0  0  0  0  0  0  0  0  0  0  0
   -2.7103   -2.5486    0.3782 H   0  0  0  0  0  0  0  0  0  0  0  0
   -1.4320   -3.7661    0.4700 H   0  0  0  0  0  0  0  0  0  0  0  0
   -1.1690   -2.1489    1.1492 H   0  0  0  0  0  0  0  0  0  0  0  0
   -1.0576   -4.1149   -2.5150 N   0  0  0  0  0  0  0  0  0  0  0  0
   -1.5121   -5.0083   -3.5548 C   0  0  0  0  0  0  0  0  0  0  0  0
   -0.1821   -4.3356   -2.0498 H   0  0  0  0  0  0  0  0  0  0  0  0
   -2.1432   -5.7939   -3.1139 H   0  0  0  0  0  0  0  0  0  0  0  0
   -2.0957   -4.4419   -4.2955 H   0  0  0  0  0  0  0  0  0  0  0  0
   -0.6433   -5.4695   -4.0474 H   0  0  0  0  0  0  0  0  0  0  0  0
  1  3  1  0  0  0  0
  1  7  1  0  0  0  0
  1  2  2  0  0  0  0
 23 25  1  0  0  0  0
 23 29  1  0  0  0  0
 23 24  2  0  0  0  0
 50 51  1  0  0  0  0
 51 59  1  0  0  0  0
 51 52  2  0  0  0  0
  8  9  1  0  0  0  0
  9 17  1  0  0  0  0
  9 10  2  0  0  0  0
 30 31  1  0  0  0  0
 31 39  1  0  0  0  0
 31 32  2  0  0  0  0
 40 41  1  0  0  0  0
 41 49  1  0  0  0  0
 41 42  2  0  0  0  0
 50 53  1  0  0  0  0
 30 33  1  0  0  0  0
 59 60  1  0  0  0  0
 17 18  1  0  0  0  0
  8 11  1  0  0  0  0
 11 12  1  0  0  0  0
 40 43  1  0  0  0  0
 43 44  1  0  0  0  0
 49 50  1  0  0  0  0
  7  8  1  0  0  0  0
 29 30  1  0  0  0  0
 39 40  1  0  0  0  0
 12 44  1  0  0  0  0
  3  4  1  0  0  0  0
  3  5  1  0  0  0  0
  3  6  1  0  0  0  0
 25 26  1  0  0  0  0
 25 27  1  0  0  0  0
 25 28  1  0  0  0  0
 53 56  1  0  0  0  0
 53 57  1  0  0  0  0
 53 58  1  0  0  0  0
 33 36  1  0  0  0  0
 33 37  1  0  0  0  0
 33 38  1  0  0  0  0
 60 62  1  0  0  0  0
 60 63  1  0  0  0  0
 60 64  1  0  0  0  0
 18 20  1  0  0  0  0
 18 21  1  0  0  0  0
 18 22  1  0  0  0  0
 11 15  1  0  0  0  0
 11 16  1  0  0  0  0
 43 47  1  0  0  0  0
 43 48  1  0  0  0  0
 50 55  1  0  0  0  0
  8 14  1  0  0  0  0
 30 35  1  0  0  0  0
 40 46  1  0  0  0  0
 59 61  1  0  0  0  0
 17 19  1  0  0  0  0
  7 13  1  0  0  0  0
 29 34  1  0  0  0  0
 49 54  1  0  0  0  0
 39 45  1  0  0  0  0
M  END
$$$$

  -OEChem-05262214473D

 64 63  0     1  0  0  0  0  0999 V2000
   -2.3598    8.4923    3.1102 C   0  0  0  0  0  0  0  0  0  0  0  0
   -3.5749    8.3468    3.0467 O   0  0  0  0  0  0  0  0  0  0  0  0
   -1.7751    9.8604    2.9882 C   0  0  0  0  0  0  0  0  0  0  0  0
   -1.5421   10.1266    1.9447 H   0  0  0  0  0  0  0  0  0  0  0  0
   -2.4632   10.6448    3.3422 H   0  0  0  0  0  0  0  0  0  0  0  0
   -0.8386   10.0240    3.5450 H   0  0  0  0  0  0  0  0  0  0  0  0
   -1.4231    7.4896    3.2919 N   0  0  0  0  0  0  0  0  0  0  0  0
   -1.7709    6.0985    3.4344 C   0  0  2  0  0  0  0  0  0  0  0  0
   -0.7951    5.4421    4.4089 C   0  0  0  0  0  0  0  0  0  0  0  0
    0.1843    6.0247    4.8702 O   0  0  0  0  0  0  0  0  0  0  0  0
   -1.8587    5.3788    2.0863 C   0  0  0  0  0  0  0  0  0  0  0  0
   -0.2793    5.3251    1.1781 S   0  0  0  0  0  0  0  0  0  0  0  0
   -0.4394    7.7478    3.3266 H   0  0  0  0  0  0  0  0  0  0  0  0
   -2.7630    6.0893    3.9028 H   0  0  0  0  0  0  0  0  0  0  0  0
   -2.1929    4.3453    2.2234 H   0  0  0  0  0  0  0  0  0  0  0  0
   -2.5900    5.8799    1.4428 H   0  0  0  0  0  0  0  0  0  0  0  0
   -1.1328    4.1241    4.6820 N   0  0  0  0  0  0  0  0  0  0  0  0
   -0.3487    3.2842    5.5569 C   0  0  0  0  0  0  0  0  0  0  0  0
   -1.9854    3.7351    4.2903 H   0  0  0  0  0  0  0  0  0  0  0  0
    0.3857    2.7200    4.9633 H   0  0  0  0  0  0  0  0  0  0  0  0
    0.1779    3.9110    6.2917 H   0  0  0  0  0  0  0  0  0  0  0  0
   -1.0123    2.5820    6.0826 H   0  0  0  0  0  0  0  0  0  0  0  0
   -6.7256    2.0330   -0.2766 C   0  0  0  0  0  0  0  0  0  0  0  0
   -7.1824    1.1039   -0.9322 O   0  0  0  0  0  0  0  0  0  0  0  0
   -7.5276    2.6077    0.8435 C   0  0  0  0  0  0  0  0  0  0  0  0
   -8.1775    3.4344    0.5145 H   0  0  0  0  0  0  0  0  0  0  0  0
   -8.2057    1.8676    1.2980 H   0  0  0  0  0  0  0  0  0  0  0  0
   -6.9411    3.0162    1.6819 H   0  0  0  0  0  0  0  0  0  0  0  0
   -5.4935    2.6382   -0.4627 N   0  0  0  0  0  0  0  0  0  0  0  0
   -4.5619    2.2388   -1.4845 C   0  0  2  0  0  0  0  0  0  0  0  0
   -3.1535    2.4674   -0.9521 C   0  0  0  0  0  0  0  0  0  0  0  0
   -2.8634    3.3945   -0.1987 O   0  0  0  0  0  0  0  0  0  0  0  0
   -4.7883    3.0138   -2.7732 C   0  0  0  0  0  0  0  0  0  0  0  0
   -5.2337    3.4049    0.1551 H   0  0  0  0  0  0  0  0  0  0  0  0
   -4.7192    1.1682   -1.6549 H   0  0  0  0  0  0  0  0  0  0  0  0
   -4.6352    4.0886   -2.6221 H   0  0  0  0  0  0  0  0  0  0  0  0
   -4.0976    2.6887   -3.5582 H   0  0  0  0  0  0  0  0  0  0  0  0
   -5.8111    2.8719   -3.1387 H   0  0  0  0  0  0  0  0  0  0  0  0
   -2.2466    1.5400   -1.4507 N   0  0  0  0  0  0  0  0  0  0  0  0
   -0.8424    1.5707   -1.1286 C   0  0  2  0  0  0  0  0  0  0  0  0
   -0.3807    0.1538   -0.7939 C   0  0  0  0  0  0  0  0  0  0  0  0
    0.5465   -0.0836   -0.0224 O   0  0  0  0  0  0  0  0  0  0  0  0
   -0.5181    2.5894   -0.0331 C   0  0  0  0  0  0  0  0  0  0  0  0
   -0.8233    4.3049   -0.5194 S   0  0  0  0  0  0  0  0  0  0  0  0
   -2.5850    0.7815   -2.0381 H   0  0  0  0  0  0  0  0  0  0  0  0
   -0.3348    1.8748   -2.0524 H   0  0  0  0  0  0  0  0  0  0  0  0
   -1.1144    2.3923    0.8638 H   0  0  0  0  0  0  0  0  0  0  0  0
    0.5376    2.5113    0.2483 H   0  0  0  0  0  0  0  0  0  0  0  0
   -1.1088   -0.8104   -1.4764 N   0  0  0  0  0  0  0  0  0  0  0  0
   -0.8439   -2.2241   -1.3456 C   0  0  2  0  0  0  0  0  0  0  0  0
   -1.1637   -2.8878   -2.6786 C   0  0  0  0  0  0  0  0  0  0  0  0
   -2.0712   -2.5086   -3.4160 O   0  0  0  0  0  0  0  0  0  0  0  0
   -1.6634   -2.8390   -0.2218 C   0  0  0  0  0  0  0  0  0  0  0  0
   -1.8884   -0.5265   -2.0623 H   0  0  0  0  0  0  0  0  0  0  0  0
    0.2258   -2.3271   -1.1330 H   0  0  0  0  0  0  0  0  0  0  0  0
   -2.7379   -2.7454   -0.4171 H   0  0  0  0  0  0  0  0  0  0  0  0
   -1.4403   -3.9047   -0.1053 H   0  0  0  0  0  0  0  0  0  0  0  0
   -1.4541   -2.3407    0.7309 H   0  0  0  0  0  0  0  0  0  0  0  0
   -0.3444   -3.9799   -2.9277 N   0  0  0  0  0  0  0  0  0  0  0  0
   -0.4783   -4.8020   -4.1076 C   0  0  0  0  0  0  0  0  0  0  0  0
    0.4080   -4.1980   -2.2810 H   0  0  0  0  0  0  0  0  0  0  0  0
   -1.1427   -5.6512   -3.8900 H   0  0  0  0  0  0  0  0  0  0  0  0
   -0.9052   -4.2027   -4.9253 H   0  0  0  0  0  0  0  0  0  0  0  0
    0.5113   -5.1781   -4.4066 H   0  0  0  0  0  0  0  0  0  0  0  0
  1  3  1  0  0  0  0
  1  7  1  0  0  0  0
  1  2  2  0  0  0  0
 23 25  1  0  0  0  0
 23 29  1  0  0  0  0
 23 24  2  0  0  0  0
 50 51  1  0  0  0  0
 51 59  1  0  0  0  0
 51 52  2  0  0  0  0
  8  9  1  0  0  0  0
  9 17  1  0  0  0  0
  9 10  2  0  0  0  0
 30 31  1  0  0  0  0
 31 39  1  0  0  0  0
 31 32  2  0  0  0  0
 40 41  1  0  0  0  0
 41 49  1  0  0  0  0
 41 42  2  0  0  0  0
 50 53  1  0  0  0  0
 30 33  1  0  0  0  0
 59 60  1  0  0  0  0
 17 18  1  0  0  0  0
  8 11  1  0  0  0  0
 11 12  1  0  0  0  0
 40 43  1  0  0  0  0
 43 44  1  0  0  0  0
 49 50  1  0  0  0  0
  7  8  1  0  0  0  0
 29 30  1  0  0  0  0
 39 40  1  0  0  0  0
 12 44  1  0  0  0  0
  3  4  1  0  0  0  0
  3  5  1  0  0  0  0
  3  6  1  0  0  0  0
 25 26  1  0  0  0  0
 25 27  1  0  0  0  0
 25 28  1  0  0  0  0
 53 56  1  0  0  0  0
 53 57  1  0  0  0  0
 53 58  1  0  0  0  0
 33 36  1  0  0  0  0
 33 37  1  0  0  0  0
 33 38  1  0  0  0  0
 60 62  1  0  0  0  0
 60 63  1  0  0  0  0
 60 64  1  0  0  0  0
 18 20  1  0  0  0  0
 18 21  1  0  0  0  0
 18 22  1  0  0  0  0
 11 15  1  0  0  0  0
 11 16  1  0  0  0  0
 43 47  1  0  0  0  0
 43 48  1  0  0  0  0
 50 55  1  0  0  0  0
  8 14  1  0  0  0  0
 30 35  1  0  0  0  0
 40 46  1  0  0  0  0
 59 61  1  0  0  0  0
 17 19  1  0  0  0  0
  7 13  1  0  0  0  0
 29 34  1  0  0  0  0
 49 54  1  0  0  0  0
 39 45  1  0  0  0  0
M  END
$$$$

  -OEChem-05262214473D

 64 63  0     1  0  0  0  0  0999 V2000
   -2.3598    8.4923    3.1102 C   0  0  0  0  0  0  0  0  0  0  0  0
   -3.5749    8.3468    3.0467 O   0  0  0  0  0  0  0  0  0  0  0  0
   -1.7751    9.8604    2.9882 C   0  0  0  0  0  0  0  0  0  0  0  0
   -1.5421   10.1266    1.9447 H   0  0  0  0  0  0  0  0  0  0  0  0
   -2.4632   10.6448    3.3422 H   0  0  0  0  0  0  0  0  0  0  0  0
   -0.8386   10.0240    3.5450 H   0  0  0  0  0  0  0  0  0  0  0  0
   -1.4231    7.4896    3.2919 N   0  0  0  0  0  0  0  0  0  0  0  0
   -1.7709    6.0985    3.4344 C   0  0  2  0  0  0  0  0  0  0  0  0
   -0.7951    5.4421    4.4089 C   0  0  0  0  0  0  0  0  0  0  0  0
    0.1843    6.0247    4.8702 O   0  0  0  0  0  0  0  0  0  0  0  0
   -1.8587    5.3788    2.0863 C   0  0  0  0  0  0  0  0  0  0  0  0
   -0.2793    5.3251    1.1781 S   0  0  0  0  0  0  0  0  0  0  0  0
   -0.4394    7.7478    3.3266 H   0  0  0  0  0  0  0  0  0  0  0  0
   -2.7630    6.0893    3.9028 H   0  0  0  0  0  0  0  0  0  0  0  0
   -2.1929    4.3453    2.2234 H   0  0  0  0  0  0  0  0  0  0  0  0
   -2.5900    5.8799    1.4428 H   0  0  0  0  0  0  0  0  0  0  0  0
   -1.1328    4.1241    4.6820 N   0  0  0  0  0  0  0  0  0  0  0  0
   -0.3487    3.2842    5.5569 C   0  0  0  0  0  0  0  0  0  0  0  0
   -1.9854    3.7351    4.2903 H   0  0  0  0  0  0  0  0  0  0  0  0
    0.3857    2.7200    4.9633 H   0  0  0  0  0  0  0  0  0  0  0  0
    0.1779    3.9110    6.2917 H   0  0  0  0  0  0  0  0  0  0  0  0
   -1.0123    2.5820    6.0826 H   0  0  0  0  0  0  0  0  0  0  0  0
   -6.7256    2.0330   -0.2766 C   0  0  0  0  0  0  0  0  0  0  0  0
   -7.1824    1.1039   -0.9322 O   0  0  0  0  0  0  0  0  0  0  0  0
   -7.5276    2.6077    0.8435 C   0  0  0  0  0  0  0  0  0  0  0  0
   -8.1775    3.4344    0.5145 H   0  0  0  0  0  0  0  0  0  0  0  0
   -8.2057    1.8676    1.2980 H   0  0  0  0  0  0  0  0  0  0  0  0
   -6.9411    3.0162    1.6819 H   0  0  0  0  0  0  0  0  0  0  0  0
   -5.4935    2.6382   -0.4627 N   0  0  0  0  0  0  0  0  0  0  0  0
   -4.5619    2.2388   -1.4845 C   0  0  2  0  0  0  0  0  0  0  0  0
   -3.1535    2.4674   -0.9521 C   0  0  0  0  0  0  0  0  0  0  0  0
   -2.8634    3.3945   -0.1987 O   0  0  0  0  0  0  0  0  0  0  0  0
   -4.7883    3.0138   -2.7732 C   0  0  0  0  0  0  0  0  0  0  0  0
   -5.2337    3.4049    0.1551 H   0  0  0  0  0  0  0  0  0  0  0  0
   -4.7192    1.1682   -1.6549 H   0  0  0  0  0  0  0  0  0  0  0  0
   -4.6352    4.0886   -2.6221 H   0  0  0  0  0  0  0  0  0  0  0  0
   -4.0976    2.6887   -3.5582 H   0  0  0  0  0  0  0  0  0  0  0  0
   -5.8111    2.8719   -3.1387 H   0  0  0  0  0  0  0  0  0  0  0  0
   -2.2466    1.5400   -1.4507 N   0  0  0  0  0  0  0  0  0  0  0  0
   -0.8424    1.5707   -1.1286 C   0  0  2  0  0  0  0  0  0  0  0  0
   -0.3807    0.1538   -0.7939 C   0  0  0  0  0  0  0  0  0  0  0  0
    0.3500   -0.1045    0.1604 O   0  0  0  0  0  0  0  0  0  0  0  0
   -0.5181    2.5894   -0.0331 C   0  0  0  0  0  0  0  0  0  0  0  0
   -0.8233    4.3049   -0.5194 S   0  0  0  0  0  0  0  0  0  0  0  0
   -2.5850    0.7815   -2.0381 H   0  0  0  0  0  0  0  0  0  0  0  0
   -0.3348    1.8748   -2.0524 H   0  0  0  0  0  0  0  0  0  0  0  0
   -1.1144    2.3923    0.8638 H   0  0  0  0  0  0  0  0  0  0  0  0
    0.5376    2.5113    0.2483 H   0  0  0  0  0  0  0  0  0  0  0  0
   -0.8601   -0.7820   -1.6994 N   0  0  0  0  0  0  0  0  0  0  0  0
   -0.5407   -2.1877   -1.6095 C   0  0  2  0  0  0  0  0  0  0  0  0
   -0.4896   -2.7497   -3.0241 C   0  0  0  0  0  0  0  0  0  0  0  0
   -1.2187   -2.3524   -3.9305 O   0  0  0  0  0  0  0  0  0  0  0  0
   -1.5614   -2.9340   -0.7647 C   0  0  0  0  0  0  0  0  0  0  0  0
   -1.4949   -0.4864   -2.4351 H   0  0  0  0  0  0  0  0  0  0  0  0
    0.4521   -2.2578   -1.1520 H   0  0  0  0  0  0  0  0  0  0  0  0
   -2.5624   -2.8749   -1.2074 H   0  0  0  0  0  0  0  0  0  0  0  0
   -1.3023   -3.9940   -0.6739 H   0  0  0  0  0  0  0  0  0  0  0  0
   -1.6183   -2.5093    0.2434 H   0  0  0  0  0  0  0  0  0  0  0  0
    0.4359   -3.7769   -3.1444 N   0  0  0  0  0  0  0  0  0  0  0  0
    0.6413   -4.5009   -4.3771 C   0  0  0  0  0  0  0  0  0  0  0  0
    1.0257   -4.0135   -2.3519 H   0  0  0  0  0  0  0  0  0  0  0  0
    0.0020   -5.3959   -4.3882 H   0  0  0  0  0  0  0  0  0  0  0  0
    0.3824   -3.8549   -5.2291 H   0  0  0  0  0  0  0  0  0  0  0  0
    1.6962   -4.8030   -4.4534 H   0  0  0  0  0  0  0  0  0  0  0  0
  1  3  1  0  0  0  0
  1  7  1  0  0  0  0
  1  2  2  0  0  0  0
 23 25  1  0  0  0  0
 23 29  1  0  0  0  0
 23 24  2  0  0  0  0
 50 51  1  0  0  0  0
 51 59  1  0  0  0  0
 51 52  2  0  0  0  0
  8  9  1  0  0  0  0
  9 17  1  0  0  0  0
  9 10  2  0  0  0  0
 30 31  1  0  0  0  0
 31 39  1  0  0  0  0
 31 32  2  0  0  0  0
 40 41  1  0  0  0  0
 41 49  1  0  0  0  0
 41 42  2  0  0  0  0
 50 53  1  0  0  0  0
 30 33  1  0  0  0  0
 59 60  1  0  0  0  0
 17 18  1  0  0  0  0
  8 11  1  0  0  0  0
 11 12  1  0  0  0  0
 40 43  1  0  0  0  0
 43 44  1  0  0  0  0
 49 50  1  0  0  0  0
  7  8  1  0  0  0  0
 29 30  1  0  0  0  0
 39 40  1  0  0  0  0
 12 44  1  0  0  0  0
  3  4  1  0  0  0  0
  3  5  1  0  0  0  0
  3  6  1  0  0  0  0
 25 26  1  0  0  0  0
 25 27  1  0  0  0  0
 25 28  1  0  0  0  0
 53 56  1  0  0  0  0
 53 57  1  0  0  0  0
 53 58  1  0  0  0  0
 33 36  1  0  0  0  0
 33 37  1  0  0  0  0
 33 38  1  0  0  0  0
 60 62  1  0  0  0  0
 60 63  1  0  0  0  0
 60 64  1  0  0  0  0
 18 20  1  0  0  0  0
 18 21  1  0  0  0  0
 18 22  1  0  0  0  0
 11 15  1  0  0  0  0
 11 16  1  0  0  0  0
 43 47  1  0  0  0  0
 43 48  1  0  0  0  0
 50 55  1  0  0  0  0
  8 14  1  0  0  0  0
 30 35  1  0  0  0  0
 40 46  1  0  0  0  0
 59 61  1  0  0  0  0
 17 19  1  0  0  0  0
  7 13  1  0  0  0  0
 29 34  1  0  0  0  0
 49 54  1  0  0  0  0
 39 45  1  0  0  0  0
M  END
$$$$

  -OEChem-05262214473D

 64 63  0     1  0  0  0  0  0999 V2000
   -2.3598    8.4923    3.1102 C   0  0  0  0  0  0  0  0  0  0  0  0
   -3.5749    8.3468    3.0467 O   0  0  0  0  0  0  0  0  0  0  0  0
   -1.7751    9.8604    2.9882 C   0  0  0  0  0  0  0  0  0  0  0  0
   -1.5421   10.1266    1.9447 H   0  0  0  0  0  0  0  0  0  0  0  0
   -2.4632   10.6448    3.3422 H   0  0  0  0  0  0  0  0  0  0  0  0
   -0.8386   10.0240    3.5450 H   0  0  0  0  0  0  0  0  0  0  0  0
   -1.4231    7.4896    3.2919 N   0  0  0  0  0  0  0  0  0  0  0  0
   -1.7709    6.0985    3.4344 C   0  0  2  0  0  0  0  0  0  0  0  0
   -0.7951    5.4421    4.4089 C   0  0  0  0  0  0  0  0  0  0  0  0
    0.1843    6.0247    4.8702 O   0  0  0  0  0  0  0  0  0  0  0  0
   -1.8587    5.3788    2.0863 C   0  0  0  0  0  0  0  0  0  0  0  0
   -0.2793    5.3251    1.1781 S   0  0  0  0  0  0  0  0  0  0  0  0
   -0.4394    7.7478    3.3266 H   0  0  0  0  0  0  0  0  0  0  0  0
   -2.7630    6.0893    3.9028 H   0  0  0  0  0  0  0  0  0  0  0  0
   -2.1929    4.3453    2.2234 H   0  0  0  0  0  0  0  0  0  0  0  0
   -2.5900    5.8799    1.4428 H   0  0  0  0  0  0  0  0  0  0  0  0
   -1.1328    4.1241    4.6820 N   0  0  0  0  0  0  0  0  0  0  0  0
   -0.3487    3.2842    5.5569 C   0  0  0  0  0  0  0  0  0  0  0  0
   -1.9854    3.7351    4.2903 H   0  0  0  0  0  0  0  0  0  0  0  0
    0.3857    2.7200    4.9633 H   0  0  0  0  0  0  0  0  0  0  0  0
    0.1779    3.9110    6.2917 H   0  0  0  0  0  0  0  0  0  0  0  0
   -1.0123    2.5820    6.0826 H   0  0  0  0  0  0  0  0  0  0  0  0
   -6.7256    2.0330   -0.2766 C   0  0  0  0  0  0  0  0  0  0  0  0
   -7.1824    1.1039   -0.9322 O   0  0  0  0  0  0  0  0  0  0  0  0
   -7.5276    2.6077    0.8435 C   0  0  0  0  0  0  0  0  0  0  0  0
   -8.1775    3.4344    0.5145 H   0  0  0  0  0  0  0  0  0  0  0  0
   -8.2057    1.8676    1.2980 H   0  0  0  0  0  0  0  0  0  0  0  0
   -6.9411    3.0162    1.6819 H   0  0  0  0  0  0  0  0  0  0  0  0
   -5.4935    2.6382   -0.4627 N   0  0  0  0  0  0  0  0  0  0  0  0
   -4.5619    2.2388   -1.4845 C   0  0  2  0  0  0  0  0  0  0  0  0
   -3.1535    2.4674   -0.9521 C   0  0  0  0  0  0  0  0  0  0  0  0
   -2.8634    3.3945   -0.1987 O   0  0  0  0  0  0  0  0  0  0  0  0
   -4.7883    3.0138   -2.7732 C   0  0  0  0  0  0  0  0  0  0  0  0
   -5.2337    3.4049    0.1551 H   0  0  0  0  0  0  0  0  0  0  0  0
   -4.7192    1.1682   -1.6549 H   0  0  0  0  0  0  0  0  0  0  0  0
   -4.6352    4.0886   -2.6221 H   0  0  0  0  0  0  0  0  0  0  0  0
   -4.0976    2.6887   -3.5582 H   0  0  0  0  0  0  0  0  0  0  0  0
   -5.8111    2.8719   -3.1387 H   0  0  0  0  0  0  0  0  0  0  0  0
   -2.2466    1.5400   -1.4507 N   0  0  0  0  0  0  0  0  0  0  0  0
   -0.8424    1.5707   -1.1286 C   0  0  2  0  0  0  0  0  0  0  0  0
   -0.3807    0.1538   -0.7939 C   0  0  0  0  0  0  0  0  0  0  0  0
    0.1176   -0.1501    0.2881 O   0  0  0  0  0  0  0  0  0  0  0  0
   -0.5181    2.5894   -0.0331 C   0  0  0  0  0  0  0  0  0  0  0  0
   -0.8233    4.3049   -0.5194 S   0  0  0  0  0  0  0  0  0  0  0  0
   -2.5850    0.7815   -2.0381 H   0  0  0  0  0  0  0  0  0  0  0  0
   -0.3348    1.8748   -2.0524 H   0  0  0  0  0  0  0  0  0  0  0  0
   -1.1144    2.3923    0.8638 H   0  0  0  0  0  0  0  0  0  0  0  0
    0.5376    2.5113    0.2483 H   0  0  0  0  0  0  0  0  0  0  0  0
   -0.5678   -0.7231   -1.8530 N   0  0  0  0  0  0  0  0  0  0  0  0
   -0.1866   -2.1146   -1.7888 C   0  0  2  0  0  0  0  0  0  0  0  0
    0.2366   -2.5511   -3.1852 C   0  0  0  0  0  0  0  0  0  0  0  0
   -0.2807   -2.1129   -4.2106 O   0  0  0  0  0  0  0  0  0  0  0  0
   -1.3272   -2.9775   -1.2720 C   0  0  0  0  0  0  0  0  0  0  0  0
   -1.0276   -0.3961   -2.6976 H   0  0  0  0  0  0  0  0  0  0  0  0
    0.6713   -2.1766   -1.1105 H   0  0  0  0  0  0  0  0  0  0  0  0
   -2.1958   -2.9282   -1.9387 H   0  0  0  0  0  0  0  0  0  0  0  0
   -1.0275   -4.0280   -1.1969 H   0  0  0  0  0  0  0  0  0  0  0  0
   -1.6502   -2.6433   -0.2801 H   0  0  0  0  0  0  0  0  0  0  0  0
    1.2302   -3.5195   -3.1505 N   0  0  0  0  0  0  0  0  0  0  0  0
    1.7704   -4.1254   -4.3451 C   0  0  0  0  0  0  0  0  0  0  0  0
    1.6288   -3.7947   -2.2577 H   0  0  0  0  0  0  0  0  0  0  0  0
    1.2128   -5.0454   -4.5746 H   0  0  0  0  0  0  0  0  0  0  0  0
    1.6793   -3.4222   -5.1861 H   0  0  0  0  0  0  0  0  0  0  0  0
    2.8308   -4.3699   -4.1848 H   0  0  0  0  0  0  0  0  0  0  0  0
  1  3  1  0  0  0  0
  1  7  1  0  0  0  0
  1  2  2  0  0  0  0
 23 25  1  0  0  0  0
 23 29  1  0  0  0  0
 23 24  2  0  0  0  0
 50 51  1  0  0  0  0
 51 59  1  0  0  0  0
 51 52  2  0  0  0  0
  8  9  1  0  0  0  0
  9 17  1  0  0  0  0
  9 10  2  0  0  0  0
 30 31  1  0  0  0  0
 31 39  1  0  0  0  0
 31 32  2  0  0  0  0
 40 41  1  0  0  0  0
 41 49  1  0  0  0  0
 41 42  2  0  0  0  0
 50 53  1  0  0  0  0
 30 33  1  0  0  0  0
 59 60  1  0  0  0  0
 17 18  1  0  0  0  0
  8 11  1  0  0  0  0
 11 12  1  0  0  0  0
 40 43  1  0  0  0  0
 43 44  1  0  0  0  0
 49 50  1  0  0  0  0
  7  8  1  0  0  0  0
 29 30  1  0  0  0  0
 39 40  1  0  0  0  0
 12 44  1  0  0  0  0
  3  4  1  0  0  0  0
  3  5  1  0  0  0  0
  3  6  1  0  0  0  0
 25 26  1  0  0  0  0
 25 27  1  0  0  0  0
 25 28  1  0  0  0  0
 53 56  1  0  0  0  0
 53 57  1  0  0  0  0
 53 58  1  0  0  0  0
 33 36  1  0  0  0  0
 33 37  1  0  0  0  0
 33 38  1  0  0  0  0
 60 62  1  0  0  0  0
 60 63  1  0  0  0  0
 60 64  1  0  0  0  0
 18 20  1  0  0  0  0
 18 21  1  0  0  0  0
 18 22  1  0  0  0  0
 11 15  1  0  0  0  0
 11 16  1  0  0  0  0
 43 47  1  0  0  0  0
 43 48  1  0  0  0  0
 50 55  1  0  0  0  0
  8 14  1  0  0  0  0
 30 35  1  0  0  0  0
 40 46  1  0  0  0  0
 59 61  1  0  0  0  0
 17 19  1  0  0  0  0
  7 13  1  0  0  0  0
 29 34  1  0  0  0  0
 49 54  1  0  0  0  0
 39 45  1  0  0  0  0
M  END
$$$$

  -OEChem-05262214473D

 64 63  0     1  0  0  0  0  0999 V2000
   -2.3598    8.4923    3.1102 C   0  0  0  0  0  0  0  0  0  0  0  0
   -3.5749    8.3468    3.0467 O   0  0  0  0  0  0  0  0  0  0  0  0
   -1.7751    9.8604    2.9882 C   0  0  0  0  0  0  0  0  0  0  0  0
   -1.5421   10.1266    1.9447 H   0  0  0  0  0  0  0  0  0  0  0  0
   -2.4632   10.6448    3.3422 H   0  0  0  0  0  0  0  0  0  0  0  0
   -0.8386   10.0240    3.5450 H   0  0  0  0  0  0  0  0  0  0  0  0
   -1.4231    7.4896    3.2919 N   0  0  0  0  0  0  0  0  0  0  0  0
   -1.7709    6.0985    3.4344 C   0  0  2  0  0  0  0  0  0  0  0  0
   -0.7951    5.4421    4.4089 C   0  0  0  0  0  0  0  0  0  0  0  0
    0.1843    6.0247    4.8702 O   0  0  0  0  0  0  0  0  0  0  0  0
   -1.8587    5.3788    2.0863 C   0  0  0  0  0  0  0  0  0  0  0  0
   -0.2793    5.3251    1.1781 S   0  0  0  0  0  0  0  0  0  0  0  0
   -0.4394    7.7478    3.3266 H   0  0  0  0  0  0  0  0  0  0  0  0
   -2.7630    6.0893    3.9028 H   0  0  0  0  0  0  0  0  0  0  0  0
   -2.1929    4.3453    2.2234 H   0  0  0  0  0  0  0  0  0  0  0  0
   -2.5900    5.8799    1.4428 H   0  0  0  0  0  0  0  0  0  0  0  0
   -1.1328    4.1241    4.6820 N   0  0  0  0  0  0  0  0  0  0  0  0
   -0.3487    3.2842    5.5569 C   0  0  0  0  0  0  0  0  0  0  0  0
   -1.9854    3.7351    4.2903 H   0  0  0  0  0  0  0  0  0  0  0  0
    0.3857    2.7200    4.9633 H   0  0  0  0  0  0  0  0  0  0  0  0
    0.1779    3.9110    6.2917 H   0  0  0  0  0  0  0  0  0  0  0  0
   -1.0123    2.5820    6.0826 H   0  0  0  0  0  0  0  0  0  0  0  0
   -6.7256    2.0330   -0.2766 C   0  0  0  0  0  0  0  0  0  0  0  0
   -7.1824    1.1039   -0.9322 O   0  0  0  0  0  0  0  0  0  0  0  0
   -7.5276    2.6077    0.8435 C   0  0  0  0  0  0  0  0  0  0  0  0
   -8.1775    3.4344    0.5145 H   0  0  0  0  0  0  0  0  0  0  0  0
   -8.2057    1.8676    1.2980 H   0  0  0  0  0  0  0  0  0  0  0  0
   -6.9411    3.0162    1.6819 H   0  0  0  0  0  0  0  0  0  0  0  0
   -5.4935    2.6382   -0.4627 N   0  0  0  0  0  0  0  0  0  0  0  0
   -4.5619    2.2388   -1.4845 C   0  0  2  0  0  0  0  0  0  0  0  0
   -3.1535    2.4674   -0.9521 C   0  0  0  0  0  0  0  0  0  0  0  0
   -2.8634    3.3945   -0.1987 O   0  0  0  0  0  0  0  0  0  0  0  0
   -4.7883    3.0138   -2.7732 C   0  0  0  0  0  0  0  0  0  0  0  0
   -5.2337    3.4049    0.1551 H   0  0  0  0  0  0  0  0  0  0  0  0
   -4.7192    1.1682   -1.6549 H   0  0  0  0  0  0  0  0  0  0  0  0
   -4.6352    4.0886   -2.6221 H   0  0  0  0  0  0  0  0  0  0  0  0
   -4.0976    2.6887   -3.5582 H   0  0  0  0  0  0  0  0  0  0  0  0
   -5.8111    2.8719   -3.1387 H   0  0  0  0  0  0  0  0  0  0  0  0
   -2.2466    1.5400   -1.4507 N   0  0  0  0  0  0  0  0  0  0  0  0
   -0.8424    1.5707   -1.1286 C   0  0  2  0  0  0  0  0  0  0  0  0
   -0.3807    0.1538   -0.7939 C   0  0  0  0  0  0  0  0  0  0  0  0
   -0.1351   -0.2173    0.3521 O   0  0  0  0  0  0  0  0  0  0  0  0
   -0.5181    2.5894   -0.0331 C   0  0  0  0  0  0  0  0  0  0  0  0
   -0.8233    4.3049   -0.5194 S   0  0  0  0  0  0  0  0  0  0  0  0
   -2.5850    0.7815   -2.0381 H   0  0  0  0  0  0  0  0  0  0  0  0
   -0.3348    1.8748   -2.0524 H   0  0  0  0  0  0  0  0  0  0  0  0
   -1.1144    2.3923    0.8638 H   0  0  0  0  0  0  0  0  0  0  0  0
    0.5376    2.5113    0.2483 H   0  0  0  0  0  0  0  0  0  0  0  0
   -0.2520   -0.6375   -1.9265 N   0  0  0  0  0  0  0  0  0  0  0  0
    0.1943   -2.0100   -1.8713 C   0  0  2  0  0  0  0  0  0  0  0  0
    0.9655   -2.3055   -3.1509 C   0  0  0  0  0  0  0  0  0  0  0  0
    0.6791   -1.8064   -4.2372 O   0  0  0  0  0  0  0  0  0  0  0  0
   -0.9767   -2.9666   -1.7091 C   0  0  0  0  0  0  0  0  0  0  0  0
   -0.5184   -0.2619   -2.8318 H   0  0  0  0  0  0  0  0  0  0  0  0
    0.8684   -2.0889   -1.0114 H   0  0  0  0  0  0  0  0  0  0  0  0
   -1.6631   -2.9016   -2.5612 H   0  0  0  0  0  0  0  0  0  0  0  0
   -0.6345   -4.0043   -1.6388 H   0  0  0  0  0  0  0  0  0  0  0  0
   -1.5477   -2.7337   -0.8039 H   0  0  0  0  0  0  0  0  0  0  0  0
    1.9843   -3.2254   -2.9456 N   0  0  0  0  0  0  0  0  0  0  0  0
    2.8320   -3.7012   -4.0137 C   0  0  0  0  0  0  0  0  0  0  0  0
    2.1764   -3.5565   -2.0048 H   0  0  0  0  0  0  0  0  0  0  0  0
    2.4072   -4.6236   -4.4365 H   0  0  0  0  0  0  0  0  0  0  0  0
    2.8972   -2.9340   -4.7994 H   0  0  0  0  0  0  0  0  0  0  0  0
    3.8377   -3.9082   -3.6190 H   0  0  0  0  0  0  0  0  0  0  0  0
  1  3  1  0  0  0  0
  1  7  1  0  0  0  0
  1  2  2  0  0  0  0
 23 25  1  0  0  0  0
 23 29  1  0  0  0  0
 23 24  2  0  0  0  0
 50 51  1  0  0  0  0
 51 59  1  0  0  0  0
 51 52  2  0  0  0  0
  8  9  1  0  0  0  0
  9 17  1  0  0  0  0
  9 10  2  0  0  0  0
 30 31  1  0  0  0  0
 31 39  1  0  0  0  0
 31 32  2  0  0  0  0
 40 41  1  0  0  0  0
 41 49  1  0  0  0  0
 41 42  2  0  0  0  0
 50 53  1  0  0  0  0
 30 33  1  0  0  0  0
 59 60  1  0  0  0  0
 17 18  1  0  0  0  0
  8 11  1  0  0  0  0
 11 12  1  0  0  0  0
 40 43  1  0  0  0  0
 43 44  1  0  0  0  0
 49 50  1  0  0  0  0
  7  8  1  0  0  0  0
 29 30  1  0  0  0  0
 39 40  1  0  0  0  0
 12 44  1  0  0  0  0
  3  4  1  0  0  0  0
  3  5  1  0  0  0  0
  3  6  1  0  0  0  0
 25 26  1  0  0  0  0
 25 27  1  0  0  0  0
 25 28  1  0  0  0  0
 53 56  1  0  0  0  0
 53 57  1  0  0  0  0
 53 58  1  0  0  0  0
 33 36  1  0  0  0  0
 33 37  1  0  0  0  0
 33 38  1  0  0  0  0
 60 62  1  0  0  0  0
 60 63  1  0  0  0  0
 60 64  1  0  0  0  0
 18 20  1  0  0  0  0
 18 21  1  0  0  0  0
 18 22  1  0  0  0  0
 11 15  1  0  0  0  0
 11 16  1  0  0  0  0
 43 47  1  0  0  0  0
 43 48  1  0  0  0  0
 50 55  1  0  0  0  0
  8 14  1  0  0  0  0
 30 35  1  0  0  0  0
 40 46  1  0  0  0  0
 59 61  1  0  0  0  0
 17 19  1  0  0  0  0
  7 13  1  0  0  0  0
 29 34  1  0  0  0  0
 49 54  1  0  0  0  0
 39 45  1  0  0  0  0
M  END
$$$$

  -OEChem-05262214473D

 64 63  0     1  0  0  0  0  0999 V2000
   -2.3598    8.4923    3.1102 C   0  0  0  0  0  0  0  0  0  0  0  0
   -3.5749    8.3468    3.0467 O   0  0  0  0  0  0  0  0  0  0  0  0
   -1.7751    9.8604    2.9882 C   0  0  0  0  0  0  0  0  0  0  0  0
   -1.5421   10.1266    1.9447 H   0  0  0  0  0  0  0  0  0  0  0  0
   -2.4632   10.6448    3.3422 H   0  0  0  0  0  0  0  0  0  0  0  0
   -0.8386   10.0240    3.5450 H   0  0  0  0  0  0  0  0  0  0  0  0
   -1.4231    7.4896    3.2919 N   0  0  0  0  0  0  0  0  0  0  0  0
   -1.7709    6.0985    3.4344 C   0  0  2  0  0  0  0  0  0  0  0  0
   -0.7951    5.4421    4.4089 C   0  0  0  0  0  0  0  0  0  0  0  0
    0.1843    6.0247    4.8702 O   0  0  0  0  0  0  0  0  0  0  0  0
   -1.8587    5.3788    2.0863 C   0  0  0  0  0  0  0  0  0  0  0  0
   -0.2793    5.3251    1.1781 S   0  0  0  0  0  0  0  0  0  0  0  0
   -0.4394    7.7478    3.3266 H   0  0  0  0  0  0  0  0  0  0  0  0
   -2.7630    6.0893    3.9028 H   0  0  0  0  0  0  0  0  0  0  0  0
   -2.1929    4.3453    2.2234 H   0  0  0  0  0  0  0  0  0  0  0  0
   -2.5900    5.8799    1.4428 H   0  0  0  0  0  0  0  0  0  0  0  0
   -1.1328    4.1241    4.6820 N   0  0  0  0  0  0  0  0  0  0  0  0
   -0.3487    3.2842    5.5569 C   0  0  0  0  0  0  0  0  0  0  0  0
   -1.9854    3.7351    4.2903 H   0  0  0  0  0  0  0  0  0  0  0  0
    0.3857    2.7200    4.9633 H   0  0  0  0  0  0  0  0  0  0  0  0
    0.1779    3.9110    6.2917 H   0  0  0  0  0  0  0  0  0  0  0  0
   -1.0123    2.5820    6.0826 H   0  0  0  0  0  0  0  0  0  0  0  0
   -6.7256    2.0330   -0.2766 C   0  0  0  0  0  0  0  0  0  0  0  0
   -7.1824    1.1039   -0.9322 O   0  0  0  0  0  0  0  0  0  0  0  0
   -7.5276    2.6077    0.8435 C   0  0  0  0  0  0  0  0  0  0  0  0
   -8.1775    3.4344    0.5145 H   0  0  0  0  0  0  0  0  0  0  0  0
   -8.2057    1.8676    1.2980 H   0  0  0  0  0  0  0  0  0  0  0  0
   -6.9411    3.0162    1.6819 H   0  0  0  0  0  0  0  0  0  0  0  0
   -5.4935    2.6382   -0.4627 N   0  0  0  0  0  0  0  0  0  0  0  0
   -4.5619    2.2388   -1.4845 C   0  0  2  0  0  0  0  0  0  0  0  0
   -3.1535    2.4674   -0.9521 C   0  0  0  0  0  0  0  0  0  0  0  0
   -2.8634    3.3945   -0.1987 O   0  0  0  0  0  0  0  0  0  0  0  0
   -4.7883    3.0138   -2.7732 C   0  0  0  0  0  0  0  0  0  0  0  0
   -5.2337    3.4049    0.1551 H   0  0  0  0  0  0  0  0  0  0  0  0
   -4.7192    1.1682   -1.6549 H   0  0  0  0  0  0  0  0  0  0  0  0
   -4.6352    4.0886   -2.6221 H   0  0  0  0  0  0  0  0  0  0  0  0
   -4.0976    2.6887   -3.5582 H   0  0  0  0  0  0  0  0  0  0  0  0
   -5.8111    2.8719   -3.1387 H   0  0  0  0  0  0  0  0  0  0  0  0
   -2.2466    1.5400   -1.4507 N   0  0  0  0  0  0  0  0  0  0  0  0
   -0.8424    1.5707   -1.1286 C   0  0  2  0  0  0  0  0  0  0  0  0
   -0.3807    0.1538   -0.7939 C   0  0  0  0  0  0  0  0  0  0  0  0
   -0.3907   -0.3015    0.3480 O   0  0  0  0  0  0  0  0  0  0  0  0
   -0.5181    2.5894   -0.0331 C   0  0  0  0  0  0  0  0  0  0  0  0
   -0.8233    4.3049   -0.5194 S   0  0  0  0  0  0  0  0  0  0  0  0
   -2.5850    0.7815   -2.0381 H   0  0  0  0  0  0  0  0  0  0  0  0
   -0.3348    1.8748   -2.0524 H   0  0  0  0  0  0  0  0  0  0  0  0
   -1.1144    2.3923    0.8638 H   0  0  0  0  0  0  0  0  0  0  0  0
    0.5376    2.5113    0.2483 H   0  0  0  0  0  0  0  0  0  0  0  0
    0.0658   -0.5313   -1.9150 N   0  0  0  0  0  0  0  0  0  0  0  0
    0.5762   -1.8808   -1.8513 C   0  0  2  0  0  0  0  0  0  0  0  0
    1.6474   -2.0296   -2.9235 C   0  0  0  0  0  0  0  0  0  0  0  0
    1.5951   -1.4539   -4.0084 O   0  0  0  0  0  0  0  0  0  0  0  0
   -0.5338   -2.9019   -2.0464 C   0  0  0  0  0  0  0  0  0  0  0  0
   -0.0019   -0.0928   -2.8287 H   0  0  0  0  0  0  0  0  0  0  0  0
    1.0301   -2.0009   -0.8615 H   0  0  0  0  0  0  0  0  0  0  0  0
   -1.0006   -2.7971   -3.0326 H   0  0  0  0  0  0  0  0  0  0  0  0
   -0.1501   -3.9246   -1.9694 H   0  0  0  0  0  0  0  0  0  0  0  0
   -1.3179   -2.7741   -1.2923 H   0  0  0  0  0  0  0  0  0  0  0  0
    2.6467   -2.9146   -2.5436 N   0  0  0  0  0  0  0  0  0  0  0  0
    3.7538   -3.2572   -3.4056 C   0  0  0  0  0  0  0  0  0  0  0  0
    2.6311   -3.3151   -1.6103 H   0  0  0  0  0  0  0  0  0  0  0  0
    3.5039   -4.1592   -3.9834 H   0  0  0  0  0  0  0  0  0  0  0  0
    3.9530   -2.4237   -4.0952 H   0  0  0  0  0  0  0  0  0  0  0  0
    4.6482   -3.4493   -2.7947 H   0  0  0  0  0  0  0  0  0  0  0  0
  1  3  1  0  0  0  0
  1  7  1  0  0  0  0
  1  2  2  0  0  0  0
 23 25  1  0  0  0  0
 23 29  1  0  0  0  0
 23 24  2  0  0  0  0
 50 51  1  0  0  0  0
 51 59  1  0  0  0  0
 51 52  2  0  0  0  0
  8  9  1  0  0  0  0
  9 17  1  0  0  0  0
  9 10  2  0  0  0  0
 30 31  1  0  0  0  0
 31 39  1  0  0  0  0
 31 32  2  0  0  0  0
 40 41  1  0  0  0  0
 41 49  1  0  0  0  0
 41 42  2  0  0  0  0
 50 53  1  0  0  0  0
 30 33  1  0  0  0  0
 59 60  1  0  0  0  0
 17 18  1  0  0  0  0
  8 11  1  0  0  0  0
 11 12  1  0  0  0  0
 40 43  1  0  0  0  0
 43 44  1  0  0  0  0
 49 50  1  0  0  0  0
  7  8  1  0  0  0  0
 29 30  1  0  0  0  0
 39 40  1  0  0  0  0
 12 44  1  0  0  0  0
  3  4  1  0  0  0  0
  3  5  1  0  0  0  0
  3  6  1  0  0  0  0
 25 26  1  0  0  0  0
 25 27  1  0  0  0  0
 25 28  1  0  0  0  0
 53 56  1  0  0  0  0
 53 57  1  0  0  0  0
 53 58  1  0  0  0  0
 33 36  1  0  0  0  0
 33 37  1  0  0  0  0
 33 38  1  0  0  0  0
 60 62  1  0  0  0  0
 60 63  1  0  0  0  0
 60 64  1  0  0  0  0
 18 20  1  0  0  0  0
 18 21  1  0  0  0  0
 18 22  1  0  0  0  0
 11 15  1  0  0  0  0
 11 16  1  0  0  0  0
 43 47  1  0  0  0  0
 43 48  1  0  0  0  0
 50 55  1  0  0  0  0
  8 14  1  0  0  0  0
 30 35  1  0  0  0  0
 40 46  1  0  0  0  0
 59 61  1  0  0  0  0
 17 19  1  0  0  0  0
  7 13  1  0  0  0  0
 29 34  1  0  0  0  0
 49 54  1  0  0  0  0
 39 45  1  0  0  0  0
M  END
$$$$

  -OEChem-05262214473D

 64 63  0     1  0  0  0  0  0999 V2000
   -2.3598    8.4923    3.1102 C   0  0  0  0  0  0  0  0  0  0  0  0
   -3.5749    8.3468    3.0467 O   0  0  0  0  0  0  0  0  0  0  0  0
   -1.7751    9.8604    2.9882 C   0  0  0  0  0  0  0  0  0  0  0  0
   -1.5421   10.1266    1.9447 H   0  0  0  0  0  0  0  0  0  0  0  0
   -2.4632   10.6448    3.3422 H   0  0  0  0  0  0  0  0  0  0  0  0
   -0.8386   10.0240    3.5450 H   0  0  0  0  0  0  0  0  0  0  0  0
   -1.4231    7.4896    3.2919 N   0  0  0  0  0  0  0  0  0  0  0  0
   -1.7709    6.0985    3.4344 C   0  0  2  0  0  0  0  0  0  0  0  0
   -0.7951    5.4421    4.4089 C   0  0  0  0  0  0  0  0  0  0  0  0
    0.1843    6.0247    4.8702 O   0  0  0  0  0  0  0  0  0  0  0  0
   -1.8587    5.3788    2.0863 C   0  0  0  0  0  0  0  0  0  0  0  0
   -0.2793    5.3251    1.1781 S   0  0  0  0  0  0  0  0  0  0  0  0
   -0.4394    7.7478    3.3266 H   0  0  0  0  0  0  0  0  0  0  0  0
   -2.7630    6.0893    3.9028 H   0  0  0  0  0  0  0  0  0  0  0  0
   -2.1929    4.3453    2.2234 H   0  0  0  0  0  0  0  0  0  0  0  0
   -2.5900    5.8799    1.4428 H   0  0  0  0  0  0  0  0  0  0  0  0
   -1.1328    4.1241    4.6820 N   0  0  0  0  0  0  0  0  0  0  0  0
   -0.3487    3.2842    5.5569 C   0  0  0  0  0  0  0  0  0  0  0  0
   -1.9854    3.7351    4.2903 H   0  0  0  0  0  0  0  0  0  0  0  0
    0.3857    2.7200    4.9633 H   0  0  0  0  0  0  0  0  0  0  0  0
    0.1779    3.9110    6.2917 H   0  0  0  0  0  0  0  0  0  0  0  0
   -1.0123    2.5820    6.0826 H   0  0  0  0  0  0  0  0  0  0  0  0
   -6.7256    2.0330   -0.2766 C   0  0  0  0  0  0  0  0  0  0  0  0
   -7.1824    1.1039   -0.9322 O   0  0  0  0  0  0  0  0  0  0  0  0
   -7.5276    2.6077    0.8435 C   0  0  0  0  0  0  0  0  0  0  0  0
   -8.1775    3.4344    0.5145 H   0  0  0  0  0  0  0  0  0  0  0  0
   -8.2057    1.8676    1.2980 H   0  0  0  0  0  0  0  0  0  0  0  0
   -6.9411    3.0162    1.6819 H   0  0  0  0  0  0  0  0  0  0  0  0
   -5.4935    2.6382   -0.4627 N   0  0  0  0  0  0  0  0  0  0  0  0
   -4.5619    2.2388   -1.4845 C   0  0  2  0  0  0  0  0  0  0  0  0
   -3.1535    2.4674   -0.9521 C   0  0  0  0  0  0  0  0  0  0  0  0
   -2.8634    3.3945   -0.1987 O   0  0  0  0  0  0  0  0  0  0  0  0
   -4.7883    3.0138   -2.7732 C   0  0  0  0  0  0  0  0  0  0  0  0
   -5.2337    3.4049    0.1551 H   0  0  0  0  0  0  0  0  0  0  0  0
   -4.7192    1.1682   -1.6549 H   0  0  0  0  0  0  0  0  0  0  0  0
   -4.6352    4.0886   -2.6221 H   0  0  0  0  0  0  0  0  0  0  0  0
   -4.0976    2.6887   -3.5582 H   0  0  0  0  0  0  0  0  0  0  0  0
   -5.8111    2.8719   -3.1387 H   0  0  0  0  0  0  0  0  0  0  0  0
   -2.2466    1.5400   -1.4507 N   0  0  0  0  0  0  0  0  0  0  0  0
   -0.8424    1.5707   -1.1286 C   0  0  2  0  0  0  0  0  0  0  0  0
   -0.3807    0.1538   -0.7939 C   0  0  0  0  0  0  0  0  0  0  0  0
   -0.6318   -0.3971    0.2761 O   0  0  0  0  0  0  0  0  0  0  0  0
   -0.5181    2.5894   -0.0331 C   0  0  0  0  0  0  0  0  0  0  0  0
   -0.8233    4.3049   -0.5194 S   0  0  0  0  0  0  0  0  0  0  0  0
   -2.5850    0.7815   -2.0381 H   0  0  0  0  0  0  0  0  0  0  0  0
   -0.3348    1.8748   -2.0524 H   0  0  0  0  0  0  0  0  0  0  0  0
   -1.1144    2.3923    0.8638 H   0  0  0  0  0  0  0  0  0  0  0  0
    0.5376    2.5113    0.2483 H   0  0  0  0  0  0  0  0  0  0  0  0
    0.3640   -0.4115   -1.8192 N   0  0  0  0  0  0  0  0  0  0  0  0
    0.9329   -1.7360   -1.7301 C   0  0  2  0  0  0  0  0  0  0  0  0
    2.2358   -1.7423   -2.5186 C   0  0  0  0  0  0  0  0  0  0  0  0
    2.4051   -1.0793   -3.5399 O   0  0  0  0  0  0  0  0  0  0  0  0
   -0.0286   -2.7879   -2.2608 C   0  0  0  0  0  0  0  0  0  0  0  0
    0.4867    0.0995   -2.6885 H   0  0  0  0  0  0  0  0  0  0  0  0
    1.1453   -1.9183   -0.6711 H   0  0  0  0  0  0  0  0  0  0  0  0
   -0.2534   -2.6216   -3.3206 H   0  0  0  0  0  0  0  0  0  0  0  0
    0.3926   -3.7942   -2.1662 H   0  0  0  0  0  0  0  0  0  0  0  0
   -0.9763   -2.7620   -1.7121 H   0  0  0  0  0  0  0  0  0  0  0  0
    3.1725   -2.6082   -1.9719 N   0  0  0  0  0  0  0  0  0  0  0  0
    4.4730   -2.8236   -2.5620 C   0  0  0  0  0  0  0  0  0  0  0  0
    2.9619   -3.0871   -1.1012 H   0  0  0  0  0  0  0  0  0  0  0  0
    4.4280   -3.6839   -3.2460 H   0  0  0  0  0  0  0  0  0  0  0  0
    4.7748   -1.9259   -3.1216 H   0  0  0  0  0  0  0  0  0  0  0  0
    5.2071   -3.0247   -1.7679 H   0  0  0  0  0  0  0  0  0  0  0  0
  1  3  1  0  0  0  0
  1  7  1  0  0  0  0
  1  2  2  0  0  0  0
 23 25  1  0  0  0  0
 23 29  1  0  0  0  0
 23 24  2  0  0  0  0
 50 51  1  0  0  0  0
 51 59  1  0  0  0  0
 51 52  2  0  0  0  0
  8  9  1  0  0  0  0
  9 17  1  0  0  0  0
  9 10  2  0  0  0  0
 30 31  1  0  0  0  0
 31 39  1  0  0  0  0
 31 32  2  0  0  0  0
 40 41  1  0  0  0  0
 41 49  1  0  0  0  0
 41 42  2  0  0  0  0
 50 53  1  0  0  0  0
 30 33  1  0  0  0  0
 59 60  1  0  0  0  0
 17 18  1  0  0  0  0
  8 11  1  0  0  0  0
 11 12  1  0  0  0  0
 40 43  1  0  0  0  0
 43 44  1  0  0  0  0
 49 50  1  0  0  0  0
  7  8  1  0  0  0  0
 29 30  1  0  0  0  0
 39 40  1  0  0  0  0
 12 44  1  0  0  0  0
  3  4  1  0  0  0  0
  3  5  1  0  0  0  0
  3  6  1  0  0  0  0
 25 26  1  0  0  0  0
 25 27  1  0  0  0  0
 25 28  1  0  0  0  0
 53 56  1  0  0  0  0
 53 57  1  0  0  0  0
 53 58  1  0  0  0  0
 33 36  1  0  0  0  0
 33 37  1  0  0  0  0
 33 38  1  0  0  0  0
 60 62  1  0  0  0  0
 60 63  1  0  0  0  0
 60 64  1  0  0  0  0
 18 20  1  0  0  0  0
 18 21  1  0  0  0  0
 18 22  1  0  0  0  0
 11 15  1  0  0  0  0
 11 16  1  0  0  0  0
 43 47  1  0  0  0  0
 43 48  1  0  0  0  0
 50 55  1  0  0  0  0
  8 14  1  0  0  0  0
 30 35  1  0  0  0  0
 40 46  1  0  0  0  0
 59 61  1  0  0  0  0
 17 19  1  0  0  0  0
  7 13  1  0  0  0  0
 29 34  1  0  0  0  0
 49 54  1  0  0  0  0
 39 45  1  0  0  0  0
M  END
$$$$

  -OEChem-05262214473D

 64 63  0     1  0  0  0  0  0999 V2000
   -2.3598    8.4923    3.1102 C   0  0  0  0  0  0  0  0  0  0  0  0
   -3.5749    8.3468    3.0467 O   0  0  0  0  0  0  0  0  0  0  0  0
   -1.7751    9.8604    2.9882 C   0  0  0  0  0  0  0  0  0  0  0  0
   -1.5421   10.1266    1.9447 H   0  0  0  0  0  0  0  0  0  0  0  0
   -2.4632   10.6448    3.3422 H   0  0  0  0  0  0  0  0  0  0  0  0
   -0.8386   10.0240    3.5450 H   0  0  0  0  0  0  0  0  0  0  0  0
   -1.4231    7.4896    3.2919 N   0  0  0  0  0  0  0  0  0  0  0  0
   -1.7709    6.0985    3.4344 C   0  0  2  0  0  0  0  0  0  0  0  0
   -0.7951    5.4421    4.4089 C   0  0  0  0  0  0  0  0  0  0  0  0
    0.1843    6.0247    4.8702 O   0  0  0  0  0  0  0  0  0  0  0  0
   -1.8587    5.3788    2.0863 C   0  0  0  0  0  0  0  0  0  0  0  0
   -0.2793    5.3251    1.1781 S   0  0  0  0  0  0  0  0  0  0  0  0
   -0.4394    7.7478    3.3266 H   0  0  0  0  0  0  0  0  0  0  0  0
   -2.7630    6.0893    3.9028 H   0  0  0  0  0  0  0  0  0  0  0  0
   -2.1929    4.3453    2.2234 H   0  0  0  0  0  0  0  0  0  0  0  0
   -2.5900    5.8799    1.4428 H   0  0  0  0  0  0  0  0  0  0  0  0
   -1.1328    4.1241    4.6820 N   0  0  0  0  0  0  0  0  0  0  0  0
   -0.3487    3.2842    5.5569 C   0  0  0  0  0  0  0  0  0  0  0  0
   -1.9854    3.7351    4.2903 H   0  0  0  0  0  0  0  0  0  0  0  0
    0.3857    2.7200    4.9633 H   0  0  0  0  0  0  0  0  0  0  0  0
    0.1779    3.9110    6.2917 H   0  0  0  0  0  0  0  0  0  0  0  0
   -1.0123    2.5820    6.0826 H   0  0  0  0  0  0  0  0  0  0  0  0
   -6.7256    2.0330   -0.2766 C   0  0  0  0  0  0  0  0  0  0  0  0
   -7.1824    1.1039   -0.9322 O   0  0  0  0  0  0  0  0  0  0  0  0
   -7.5276    2.6077    0.8435 C   0  0  0  0  0  0  0  0  0  0  0  0
   -8.1775    3.4344    0.5145 H   0  0  0  0  0  0  0  0  0  0  0  0
   -8.2057    1.8676    1.2980 H   0  0  0  0  0  0  0  0  0  0  0  0
   -6.9411    3.0162    1.6819 H   0  0  0  0  0  0  0  0  0  0  0  0
   -5.4935    2.6382   -0.4627 N   0  0  0  0  0  0  0  0  0  0  0  0
   -4.5619    2.2388   -1.4845 C   0  0  2  0  0  0  0  0  0  0  0  0
   -3.1535    2.4674   -0.9521 C   0  0  0  0  0  0  0  0  0  0  0  0
   -2.8634    3.3945   -0.1987 O   0  0  0  0  0  0  0  0  0  0  0  0
   -4.7883    3.0138   -2.7732 C   0  0  0  0  0  0  0  0  0  0  0  0
   -5.2337    3.4049    0.1551 H   0  0  0  0  0  0  0  0  0  0  0  0
   -4.7192    1.1682   -1.6549 H   0  0  0  0  0  0  0  0  0  0  0  0
   -4.6352    4.0886   -2.6221 H   0  0  0  0  0  0  0  0  0  0  0  0
   -4.0976    2.6887   -3.5582 H   0  0  0  0  0  0  0  0  0  0  0  0
   -5.8111    2.8719   -3.1387 H   0  0  0  0  0  0  0  0  0  0  0  0
   -2.2466    1.5400   -1.4507 N   0  0  0  0  0  0  0  0  0  0  0  0
   -0.8424    1.5707   -1.1286 C   0  0  2  0  0  0  0  0  0  0  0  0
   -0.3807    0.1538   -0.7939 C   0  0  0  0  0  0  0  0  0  0  0  0
   -0.8420   -0.4974    0.1412 O   0  0  0  0  0  0  0  0  0  0  0  0
   -0.5181    2.5894   -0.0331 C   0  0  0  0  0  0  0  0  0  0  0  0
   -0.8233    4.3049   -0.5194 S   0  0  0  0  0  0  0  0  0  0  0  0
   -2.5850    0.7815   -2.0381 H   0  0  0  0  0  0  0  0  0  0  0  0
   -0.3348    1.8748   -2.0524 H   0  0  0  0  0  0  0  0  0  0  0  0
   -1.1144    2.3923    0.8638 H   0  0  0  0  0  0  0  0  0  0  0  0
    0.5376    2.5113    0.2483 H   0  0  0  0  0  0  0  0  0  0  0  0
    0.6223   -0.2863   -1.6458 N   0  0  0  0  0  0  0  0  0  0  0  0
    1.2401   -1.5853   -1.5162 C   0  0  2  0  0  0  0  0  0  0  0  0
    2.6907   -1.4630   -1.9637 C   0  0  0  0  0  0  0  0  0  0  0  0
    3.0537   -0.7083   -2.8636 O   0  0  0  0  0  0  0  0  0  0  0  0
    0.5043   -2.6324   -2.3376 C   0  0  0  0  0  0  0  0  0  0  0  0
    0.9141    0.3020   -2.4206 H   0  0  0  0  0  0  0  0  0  0  0  0
    1.2062   -1.8470   -0.4530 H   0  0  0  0  0  0  0  0  0  0  0  0
    0.5276   -2.3873   -3.4057 H   0  0  0  0  0  0  0  0  0  0  0  0
    0.9567   -3.6222   -2.2158 H   0  0  0  0  0  0  0  0  0  0  0  0
   -0.5463   -2.6980   -2.0345 H   0  0  0  0  0  0  0  0  0  0  0  0
    3.5257   -2.3272   -1.2695 N   0  0  0  0  0  0  0  0  0  0  0  0
    4.9406   -2.4300   -1.5406 C   0  0  0  0  0  0  0  0  0  0  0  0
    3.1463   -2.8879   -0.5122 H   0  0  0  0  0  0  0  0  0  0  0  0
    5.1167   -3.2301   -2.2747 H   0  0  0  0  0  0  0  0  0  0  0  0
    5.3067   -1.4747   -1.9449 H   0  0  0  0  0  0  0  0  0  0  0  0
    5.4764   -2.6631   -0.6087 H   0  0  0  0  0  0  0  0  0  0  0  0
  1  3  1  0  0  0  0
  1  7  1  0  0  0  0
  1  2  2  0  0  0  0
 23 25  1  0  0  0  0
 23 29  1  0  0  0  0
 23 24  2  0  0  0  0
 50 51  1  0  0  0  0
 51 59  1  0  0  0  0
 51 52  2  0  0  0  0
  8  9  1  0  0  0  0
  9 17  1  0  0  0  0
  9 10  2  0  0  0  0
 30 31  1  0  0  0  0
 31 39  1  0  0  0  0
 31 32  2  0  0  0  0
 40 41  1  0  0  0  0
 41 49  1  0  0  0  0
 41 42  2  0  0  0  0
 50 53  1  0  0  0  0
 30 33  1  0  0  0  0
 59 60  1  0  0  0  0
 17 18  1  0  0  0  0
  8 11  1  0  0  0  0
 11 12  1  0  0  0  0
 40 43  1  0  0  0  0
 43 44  1  0  0  0  0
 49 50  1  0  0  0  0
  7  8  1  0  0  0  0
 29 30  1  0  0  0  0
 39 40  1  0  0  0  0
 12 44  1  0  0  0  0
  3  4  1  0  0  0  0
  3  5  1  0  0  0  0
  3  6  1  0  0  0  0
 25 26  1  0  0  0  0
 25 27  1  0  0  0  0
 25 28  1  0  0  0  0
 53 56  1  0  0  0  0
 53 57  1  0  0  0  0
 53 58  1  0  0  0  0
 33 36  1  0  0  0  0
 33 37  1  0  0  0  0
 33 38  1  0  0  0  0
 60 62  1  0  0  0  0
 60 63  1  0  0  0  0
 60 64  1  0  0  0  0
 18 20  1  0  0  0  0
 18 21  1  0  0  0  0
 18 22  1  0  0  0  0
 11 15  1  0  0  0  0
 11 16  1  0  0  0  0
 43 47  1  0  0  0  0
 43 48  1  0  0  0  0
 50 55  1  0  0  0  0
  8 14  1  0  0  0  0
 30 35  1  0  0  0  0
 40 46  1  0  0  0  0
 59 61  1  0  0  0  0
 17 19  1  0  0  0  0
  7 13  1  0  0  0  0
 29 34  1  0  0  0  0
 49 54  1  0  0  0  0
 39 45  1  0  0  0  0
M  END
$$$$

  -OEChem-05262214473D

 64 63  0     1  0  0  0  0  0999 V2000
   -2.3598    8.4923    3.1102 C   0  0  0  0  0  0  0  0  0  0  0  0
   -3.5749    8.3468    3.0467 O   0  0  0  0  0  0  0  0  0  0  0  0
   -1.7751    9.8604    2.9882 C   0  0  0  0  0  0  0  0  0  0  0  0
   -1.5421   10.1266    1.9447 H   0  0  0  0  0  0  0  0  0  0  0  0
   -2.4632   10.6448    3.3422 H   0  0  0  0  0  0  0  0  0  0  0  0
   -0.8386   10.0240    3.5450 H   0  0  0  0  0  0  0  0  0  0  0  0
   -1.4231    7.4896    3.2919 N   0  0  0  0  0  0  0  0  0  0  0  0
   -1.7709    6.0985    3.4344 C   0  0  2  0  0  0  0  0  0  0  0  0
   -0.7951    5.4421    4.4089 C   0  0  0  0  0  0  0  0  0  0  0  0
    0.1843    6.0247    4.8702 O   0  0  0  0  0  0  0  0  0  0  0  0
   -1.8587    5.3788    2.0863 C   0  0  0  0  0  0  0  0  0  0  0  0
   -0.2793    5.3251    1.1781 S   0  0  0  0  0  0  0  0  0  0  0  0
   -0.4394    7.7478    3.3266 H   0  0  0  0  0  0  0  0  0  0  0  0
   -2.7630    6.0893    3.9028 H   0  0  0  0  0  0  0  0  0  0  0  0
   -2.1929    4.3453    2.2234 H   0  0  0  0  0  0  0  0  0  0  0  0
   -2.5900    5.8799    1.4428 H   0  0  0  0  0  0  0  0  0  0  0  0
   -1.1328    4.1241    4.6820 N   0  0  0  0  0  0  0  0  0  0  0  0
   -0.3487    3.2842    5.5569 C   0  0  0  0  0  0  0  0  0  0  0  0
   -1.9854    3.7351    4.2903 H   0  0  0  0  0  0  0  0  0  0  0  0
    0.3857    2.7200    4.9633 H   0  0  0  0  0  0  0  0  0  0  0  0
    0.1779    3.9110    6.2917 H   0  0  0  0  0  0  0  0  0  0  0  0
   -1.0123    2.5820    6.0826 H   0  0  0  0  0  0  0  0  0  0  0  0
   -6.7256    2.0330   -0.2766 C   0  0  0  0  0  0  0  0  0  0  0  0
   -7.1824    1.1039   -0.9322 O   0  0  0  0  0  0  0  0  0  0  0  0
   -7.5276    2.6077    0.8435 C   0  0  0  0  0  0  0  0  0  0  0  0
   -8.1775    3.4344    0.5145 H   0  0  0  0  0  0  0  0  0  0  0  0
   -8.2057    1.8676    1.2980 H   0  0  0  0  0  0  0  0  0  0  0  0
   -6.9411    3.0162    1.6819 H   0  0  0  0  0  0  0  0  0  0  0  0
   -5.4935    2.6382   -0.4627 N   0  0  0  0  0  0  0  0  0  0  0  0
   -4.5619    2.2388   -1.4845 C   0  0  2  0  0  0  0  0  0  0  0  0
   -3.1535    2.4674   -0.9521 C   0  0  0  0  0  0  0  0  0  0  0  0
   -2.8634    3.3945   -0.1987 O   0  0  0  0  0  0  0  0  0  0  0  0
   -4.7883    3.0138   -2.7732 C   0  0  0  0  0  0  0  0  0  0  0  0
   -5.2337    3.4049    0.1551 H   0  0  0  0  0  0  0  0  0  0  0  0
   -4.7192    1.1682   -1.6549 H   0  0  0  0  0  0  0  0  0  0  0  0
   -4.6352    4.0886   -2.6221 H   0  0  0  0  0  0  0  0  0  0  0  0
   -4.0976    2.6887   -3.5582 H   0  0  0  0  0  0  0  0  0  0  0  0
   -5.8111    2.8719   -3.1387 H   0  0  0  0  0  0  0  0  0  0  0  0
   -2.2466    1.5400   -1.4507 N   0  0  0  0  0  0  0  0  0  0  0  0
   -0.8424    1.5707   -1.1286 C   0  0  2  0  0  0  0  0  0  0  0  0
   -0.3807    0.1538   -0.7939 C   0  0  0  0  0  0  0  0  0  0  0  0
   -1.0070   -0.5957   -0.0473 O   0  0  0  0  0  0  0  0  0  0  0  0
   -0.5181    2.5894   -0.0331 C   0  0  0  0  0  0  0  0  0  0  0  0
   -0.8233    4.3049   -0.5194 S   0  0  0  0  0  0  0  0  0  0  0  0
   -2.5850    0.7815   -2.0381 H   0  0  0  0  0  0  0  0  0  0  0  0
   -0.3348    1.8748   -2.0524 H   0  0  0  0  0  0  0  0  0  0  0  0
   -1.1144    2.3923    0.8638 H   0  0  0  0  0  0  0  0  0  0  0  0
    0.5376    2.5113    0.2483 H   0  0  0  0  0  0  0  0  0  0  0  0
    0.8230   -0.1644   -1.4064 N   0  0  0  0  0  0  0  0  0  0  0  0
    1.4770   -1.4391   -1.2239 C   0  0  2  0  0  0  0  0  0  0  0  0
    2.9810   -1.2108   -1.2967 C   0  0  0  0  0  0  0  0  0  0  0  0
    3.4967   -0.3659   -2.0256 O   0  0  0  0  0  0  0  0  0  0  0  0
    1.0287   -2.4460   -2.2718 C   0  0  0  0  0  0  0  0  0  0  0  0
    1.2511    0.5009   -2.0435 H   0  0  0  0  0  0  0  0  0  0  0  0
    1.2085   -1.7917   -0.2221 H   0  0  0  0  0  0  0  0  0  0  0  0
    1.2891   -2.1099   -3.2821 H   0  0  0  0  0  0  0  0  0  0  0  0
    1.5037   -3.4201   -2.1148 H   0  0  0  0  0  0  0  0  0  0  0  0
   -0.0571   -2.5866   -2.2378 H   0  0  0  0  0  0  0  0  0  0  0  0
    3.6823   -2.0907   -0.4842 N   0  0  0  0  0  0  0  0  0  0  0  0
    5.1247   -2.1032   -0.4110 C   0  0  0  0  0  0  0  0  0  0  0  0
    3.1717   -2.7311    0.1165 H   0  0  0  0  0  0  0  0  0  0  0  0
    5.5229   -2.8287   -1.1356 H   0  0  0  0  0  0  0  0  0  0  0  0
    5.5122   -1.1007   -0.6453 H   0  0  0  0  0  0  0  0  0  0  0  0
    5.4377   -2.3893    0.6040 H   0  0  0  0  0  0  0  0  0  0  0  0
  1  3  1  0  0  0  0
  1  7  1  0  0  0  0
  1  2  2  0  0  0  0
 23 25  1  0  0  0  0
 23 29  1  0  0  0  0
 23 24  2  0  0  0  0
 50 51  1  0  0  0  0
 51 59  1  0  0  0  0
 51 52  2  0  0  0  0
  8  9  1  0  0  0  0
  9 17  1  0  0  0  0
  9 10  2  0  0  0  0
 30 31  1  0  0  0  0
 31 39  1  0  0  0  0
 31 32  2  0  0  0  0
 40 41  1  0  0  0  0
 41 49  1  0  0  0  0
 41 42  2  0  0  0  0
 50 53  1  0  0  0  0
 30 33  1  0  0  0  0
 59 60  1  0  0  0  0
 17 18  1  0  0  0  0
  8 11  1  0  0  0  0
 11 12  1  0  0  0  0
 40 43  1  0  0  0  0
 43 44  1  0  0  0  0
 49 50  1  0  0  0  0
  7  8  1  0  0  0  0
 29 30  1  0  0  0  0
 39 40  1  0  0  0  0
 12 44  1  0  0  0  0
  3  4  1  0  0  0  0
  3  5  1  0  0  0  0
  3  6  1  0  0  0  0
 25 26  1  0  0  0  0
 25 27  1  0  0  0  0
 25 28  1  0  0  0  0
 53 56  1  0  0  0  0
 53 57  1  0  0  0  0
 53 58  1  0  0  0  0
 33 36  1  0  0  0  0
 33 37  1  0  0  0  0
 33 38  1  0  0  0  0
 60 62  1  0  0  0  0
 60 63  1  0  0  0  0
 60 64  1  0  0  0  0
 18 20  1  0  0  0  0
 18 21  1  0  0  0  0
 18 22  1  0  0  0  0
 11 15  1  0  0  0  0
 11 16  1  0  0  0  0
 43 47  1  0  0  0  0
 43 48  1  0  0  0  0
 50 55  1  0  0  0  0
  8 14  1  0  0  0  0
 30 35  1  0  0  0  0
 40 46  1  0  0  0  0
 59 61  1  0  0  0  0
 17 19  1  0  0  0  0
  7 13  1  0  0  0  0
 29 34  1  0  0  0  0
 49 54  1  0  0  0  0
 39 45  1  0  0  0  0
M  END
$$$$

  -OEChem-05262214473D

 64 63  0     1  0  0  0  0  0999 V2000
   -2.3598    8.4923    3.1102 C   0  0  0  0  0  0  0  0  0  0  0  0
   -3.5749    8.3468    3.0467 O   0  0  0  0  0  0  0  0  0  0  0  0
   -1.7751    9.8604    2.9882 C   0  0  0  0  0  0  0  0  0  0  0  0
   -1.5421   10.1266    1.9447 H   0  0  0  0  0  0  0  0  0  0  0  0
   -2.4632   10.6448    3.3422 H   0  0  0  0  0  0  0  0  0  0  0  0
   -0.8386   10.0240    3.5450 H   0  0  0  0  0  0  0  0  0  0  0  0
   -1.4231    7.4896    3.2919 N   0  0  0  0  0  0  0  0  0  0  0  0
   -1.7709    6.0985    3.4344 C   0  0  2  0  0  0  0  0  0  0  0  0
   -0.7951    5.4421    4.4089 C   0  0  0  0  0  0  0  0  0  0  0  0
    0.1843    6.0247    4.8702 O   0  0  0  0  0  0  0  0  0  0  0  0
   -1.8587    5.3788    2.0863 C   0  0  0  0  0  0  0  0  0  0  0  0
   -0.2793    5.3251    1.1781 S   0  0  0  0  0  0  0  0  0  0  0  0
   -0.4394    7.7478    3.3266 H   0  0  0  0  0  0  0  0  0  0  0  0
   -2.7630    6.0893    3.9028 H   0  0  0  0  0  0  0  0  0  0  0  0
   -2.1929    4.3453    2.2234 H   0  0  0  0  0  0  0  0  0  0  0  0
   -2.5900    5.8799    1.4428 H   0  0  0  0  0  0  0  0  0  0  0  0
   -1.1328    4.1241    4.6820 N   0  0  0  0  0  0  0  0  0  0  0  0
   -0.3487    3.2842    5.5569 C   0  0  0  0  0  0  0  0  0  0  0  0
   -1.9854    3.7351    4.2903 H   0  0  0  0  0  0  0  0  0  0  0  0
    0.3857    2.7200    4.9633 H   0  0  0  0  0  0  0  0  0  0  0  0
    0.1779    3.9110    6.2917 H   0  0  0  0  0  0  0  0  0  0  0  0
   -1.0123    2.5820    6.0826 H   0  0  0  0  0  0  0  0  0  0  0  0
   -6.7256    2.0330   -0.2766 C   0  0  0  0  0  0  0  0  0  0  0  0
   -7.1824    1.1039   -0.9322 O   0  0  0  0  0  0  0  0  0  0  0  0
   -7.5276    2.6077    0.8435 C   0  0  0  0  0  0  0  0  0  0  0  0
   -8.1775    3.4344    0.5145 H   0  0  0  0  0  0  0  0  0  0  0  0
   -8.2057    1.8676    1.2980 H   0  0  0  0  0  0  0  0  0  0  0  0
   -6.9411    3.0162    1.6819 H   0  0  0  0  0  0  0  0  0  0  0  0
   -5.4935    2.6382   -0.4627 N   0  0  0  0  0  0  0  0  0  0  0  0
   -4.5619    2.2388   -1.4845 C   0  0  2  0  0  0  0  0  0  0  0  0
   -3.1535    2.4674   -0.9521 C   0  0  0  0  0  0  0  0  0  0  0  0
   -2.8634    3.3945   -0.1987 O   0  0  0  0  0  0  0  0  0  0  0  0
   -4.7883    3.0138   -2.7732 C   0  0  0  0  0  0  0  0  0  0  0  0
   -5.2337    3.4049    0.1551 H   0  0  0  0  0  0  0  0  0  0  0  0
   -4.7192    1.1682   -1.6549 H   0  0  0  0  0  0  0  0  0  0  0  0
   -4.6352    4.0886   -2.6221 H   0  0  0  0  0  0  0  0  0  0  0  0
   -4.0976    2.6887   -3.5582 H   0  0  0  0  0  0  0  0  0  0  0  0
   -5.8111    2.8719   -3.1387 H   0  0  0  0  0  0  0  0  0  0  0  0
   -2.2466    1.5400   -1.4507 N   0  0  0  0  0  0  0  0  0  0  0  0
   -0.8424    1.5707   -1.1286 C   0  0  2  0  0  0  0  0  0  0  0  0
   -0.3807    0.1538   -0.7939 C   0  0  0  0  0  0  0  0  0  0  0  0
   -1.1155   -0.6853   -0.2768 O   0  0  0  0  0  0  0  0  0  0  0  0
   -0.5181    2.5894   -0.0331 C   0  0  0  0  0  0  0  0  0  0  0  0
   -0.8233    4.3049   -0.5194 S   0  0  0  0  0  0  0  0  0  0  0  0
   -2.5850    0.7815   -2.0381 H   0  0  0  0  0  0  0  0  0  0  0  0
   -0.3348    1.8748   -2.0524 H   0  0  0  0  0  0  0  0  0  0  0  0
   -1.1144    2.3923    0.8638 H   0  0  0  0  0  0  0  0  0  0  0  0
    0.5376    2.5113    0.2483 H   0  0  0  0  0  0  0  0  0  0  0  0
    0.9526   -0.0540   -1.1175 N   0  0  0  0  0  0  0  0  0  0  0  0
    1.6273   -1.3073   -0.8733 C   0  0  2  0  0  0  0  0  0  0  0  0
    3.0869   -1.0030   -0.5629 C   0  0  0  0  0  0  0  0  0  0  0  0
    3.7041   -0.0757   -1.0829 O   0  0  0  0  0  0  0  0  0  0  0  0
    1.5088   -2.2413   -2.0676 C   0  0  0  0  0  0  0  0  0  0  0  0
    1.4748    0.6826   -1.5827 H   0  0  0  0  0  0  0  0  0  0  0  0
    1.1522   -1.7562    0.0058 H   0  0  0  0  0  0  0  0  0  0  0  0
    1.9792   -1.8085   -2.9581 H   0  0  0  0  0  0  0  0  0  0  0  0
    1.9963   -3.2017   -1.8701 H   0  0  0  0  0  0  0  0  0  0  0  0
    0.4579   -2.4354   -2.3079 H   0  0  0  0  0  0  0  0  0  0  0  0
    3.6316   -1.9148    0.3304 N   0  0  0  0  0  0  0  0  0  0  0  0
    5.0127   -1.8655    0.7500 C   0  0  0  0  0  0  0  0  0  0  0  0
    3.0363   -2.6274    0.7423 H   0  0  0  0  0  0  0  0  0  0  0  0
    5.6190   -2.5070    0.0936 H   0  0  0  0  0  0  0  0  0  0  0  0
    5.3776   -0.8295    0.6887 H   0  0  0  0  0  0  0  0  0  0  0  0
    5.0936   -2.2219    1.7874 H   0  0  0  0  0  0  0  0  0  0  0  0
  1  3  1  0  0  0  0
  1  7  1  0  0  0  0
  1  2  2  0  0  0  0
 23 25  1  0  0  0  0
 23 29  1  0  0  0  0
 23 24  2  0  0  0  0
 50 51  1  0  0  0  0
 51 59  1  0  0  0  0
 51 52  2  0  0  0  0
  8  9  1  0  0  0  0
  9 17  1  0  0  0  0
  9 10  2  0  0  0  0
 30 31  1  0  0  0  0
 31 39  1  0  0  0  0
 31 32  2  0  0  0  0
 40 41  1  0  0  0  0
 41 49  1  0  0  0  0
 41 42  2  0  0  0  0
 50 53  1  0  0  0  0
 30 33  1  0  0  0  0
 59 60  1  0  0  0  0
 17 18  1  0  0  0  0
  8 11  1  0  0  0  0
 11 12  1  0  0  0  0
 40 43  1  0  0  0  0
 43 44  1  0  0  0  0
 49 50  1  0  0  0  0
  7  8  1  0  0  0  0
 29 30  1  0  0  0  0
 39 40  1  0  0  0  0
 12 44  1  0  0  0  0
  3  4  1  0  0  0  0
  3  5  1  0  0  0  0
  3  6  1  0  0  0  0
 25 26  1  0  0  0  0
 25 27  1  0  0  0  0
 25 28  1  0  0  0  0
 53 56  1  0  0  0  0
 53 57  1  0  0  0  0
 53 58  1  0  0  0  0
 33 36  1  0  0  0  0
 33 37  1  0  0  0  0
 33 38  1  0  0  0  0
 60 62  1  0  0  0  0
 60 63  1  0  0  0  0
 60 64  1  0  0  0  0
 18 20  1  0  0  0  0
 18 21  1  0  0  0  0
 18 22  1  0  0  0  0
 11 15  1  0  0  0  0
 11 16  1  0  0  0  0
 43 47  1  0  0  0  0
 43 48  1  0  0  0  0
 50 55  1  0  0  0  0
  8 14  1  0  0  0  0
 30 35  1  0  0  0  0
 40 46  1  0  0  0  0
 59 61  1  0  0  0  0
 17 19  1  0  0  0  0
  7 13  1  0  0  0  0
 29 34  1  0  0  0  0
 49 54  1  0  0  0  0
 39 45  1  0  0  0  0
M  END
$$$$

  -OEChem-05262214473D

 64 63  0     1  0  0  0  0  0999 V2000
   -2.3598    8.4923    3.1102 C   0  0  0  0  0  0  0  0  0  0  0  0
   -3.5749    8.3468    3.0467 O   0  0  0  0  0  0  0  0  0  0  0  0
   -1.7751    9.8604    2.9882 C   0  0  0  0  0  0  0  0  0  0  0  0
   -1.5421   10.1266    1.9447 H   0  0  0  0  0  0  0  0  0  0  0  0
   -2.4632   10.6448    3.3422 H   0  0  0  0  0  0  0  0  0  0  0  0
   -0.8386   10.0240    3.5450 H   0  0  0  0  0  0  0  0  0  0  0  0
   -1.4231    7.4896    3.2919 N   0  0  0  0  0  0  0  0  0  0  0  0
   -1.7709    6.0985    3.4344 C   0  0  2  0  0  0  0  0  0  0  0  0
   -0.7951    5.4421    4.4089 C   0  0  0  0  0  0  0  0  0  0  0  0
    0.1843    6.0247    4.8702 O   0  0  0  0  0  0  0  0  0  0  0  0
   -1.8587    5.3788    2.0863 C   0  0  0  0  0  0  0  0  0  0  0  0
   -0.2793    5.3251    1.1781 S   0  0  0  0  0  0  0  0  0  0  0  0
   -0.4394    7.7478    3.3266 H   0  0  0  0  0  0  0  0  0  0  0  0
   -2.7630    6.0893    3.9028 H   0  0  0  0  0  0  0  0  0  0  0  0
   -2.1929    4.3453    2.2234 H   0  0  0  0  0  0  0  0  0  0  0  0
   -2.5900    5.8799    1.4428 H   0  0  0  0  0  0  0  0  0  0  0  0
   -1.1328    4.1241    4.6820 N   0  0  0  0  0  0  0  0  0  0  0  0
   -0.3487    3.2842    5.5569 C   0  0  0  0  0  0  0  0  0  0  0  0
   -1.9854    3.7351    4.2903 H   0  0  0  0  0  0  0  0  0  0  0  0
    0.3857    2.7200    4.9633 H   0  0  0  0  0  0  0  0  0  0  0  0
    0.1779    3.9110    6.2917 H   0  0  0  0  0  0  0  0  0  0  0  0
   -1.0123    2.5820    6.0826 H   0  0  0  0  0  0  0  0  0  0  0  0
   -6.7256    2.0330   -0.2766 C   0  0  0  0  0  0  0  0  0  0  0  0
   -7.1824    1.1039   -0.9322 O   0  0  0  0  0  0  0  0  0  0  0  0
   -7.5276    2.6077    0.8435 C   0  0  0  0  0  0  0  0  0  0  0  0
   -8.1775    3.4344    0.5145 H   0  0  0  0  0  0  0  0  0  0  0  0
   -8.2057    1.8676    1.2980 H   0  0  0  0  0  0  0  0  0  0  0  0
   -6.9411    3.0162    1.6819 H   0  0  0  0  0  0  0  0  0  0  0  0
   -5.4935    2.6382   -0.4627 N   0  0  0  0  0  0  0  0  0  0  0  0
   -4.5619    2.2388   -1.4845 C   0  0  2  0  0  0  0  0  0  0  0  0
   -3.1535    2.4674   -0.9521 C   0  0  0  0  0  0  0  0  0  0  0  0
   -2.8634    3.3945   -0.1987 O   0  0  0  0  0  0  0  0  0  0  0  0
   -4.7883    3.0138   -2.7732 C   0  0  0  0  0  0  0  0  0  0  0  0
   -5.2337    3.4049    0.1551 H   0  0  0  0  0  0  0  0  0  0  0  0
   -4.7192    1.1682   -1.6549 H   0  0  0  0  0  0  0  0  0  0  0  0
   -4.6352    4.0886   -2.6221 H   0  0  0  0  0  0  0  0  0  0  0  0
   -4.0976    2.6887   -3.5582 H   0  0  0  0  0  0  0  0  0  0  0  0
   -5.8111    2.8719   -3.1387 H   0  0  0  0  0  0  0  0  0  0  0  0
   -2.2466    1.5400   -1.4507 N   0  0  0  0  0  0  0  0  0  0  0  0
   -0.8424    1.5707   -1.1286 C   0  0  2  0  0  0  0  0  0  0  0  0
   -0.3807    0.1538   -0.7939 C   0  0  0  0  0  0  0  0  0  0  0  0
   -1.1602   -0.7600   -0.5315 O   0  0  0  0  0  0  0  0  0  0  0  0
   -0.5181    2.5894   -0.0331 C   0  0  0  0  0  0  0  0  0  0  0  0
   -0.8233    4.3049   -0.5194 S   0  0  0  0  0  0  0  0  0  0  0  0
   -2.5850    0.7815   -2.0381 H   0  0  0  0  0  0  0  0  0  0  0  0
   -0.3348    1.8748   -2.0524 H   0  0  0  0  0  0  0  0  0  0  0  0
   -1.1144    2.3923    0.8638 H   0  0  0  0  0  0  0  0  0  0  0  0
    0.5376    2.5113    0.2483 H   0  0  0  0  0  0  0  0  0  0  0  0
    1.0020    0.0375   -0.7987 N   0  0  0  0  0  0  0  0  0  0  0  0
    1.6808   -1.1989   -0.4883 C   0  0  2  0  0  0  0  0  0  0  0  0
    3.0013   -0.8537    0.1875 C   0  0  0  0  0  0  0  0  0  0  0  0
    3.6616    0.1426   -0.0999 O   0  0  0  0  0  0  0  0  0  0  0  0
    1.9120   -2.0324   -1.7391 C   0  0  0  0  0  0  0  0  0  0  0  0
    1.5699    0.8348   -1.0697 H   0  0  0  0  0  0  0  0  0  0  0  0
    1.0412   -1.7429    0.2152 H   0  0  0  0  0  0  0  0  0  0  0  0
    2.5509   -1.5036   -2.4559 H   0  0  0  0  0  0  0  0  0  0  0  0
    2.4011   -2.9820   -1.4984 H   0  0  0  0  0  0  0  0  0  0  0  0
    0.9637   -2.2546   -2.2402 H   0  0  0  0  0  0  0  0  0  0  0  0
    3.3770   -1.8116    1.1188 N   0  0  0  0  0  0  0  0  0  0  0  0
    4.6123   -1.7330    1.8630 C   0  0  0  0  0  0  0  0  0  0  0  0
    2.7495   -2.5839    1.3223 H   0  0  0  0  0  0  0  0  0  0  0  0
    5.3985   -2.2870    1.3292 H   0  0  0  0  0  0  0  0  0  0  0  0
    4.9118   -0.6796    1.9661 H   0  0  0  0  0  0  0  0  0  0  0  0
    4.4676   -2.1723    2.8611 H   0  0  0  0  0  0  0  0  0  0  0  0
  1  3  1  0  0  0  0
  1  7  1  0  0  0  0
  1  2  2  0  0  0  0
 23 25  1  0  0  0  0
 23 29  1  0  0  0  0
 23 24  2  0  0  0  0
 50 51  1  0  0  0  0
 51 59  1  0  0  0  0
 51 52  2  0  0  0  0
  8  9  1  0  0  0  0
  9 17  1  0  0  0  0
  9 10  2  0  0  0  0
 30 31  1  0  0  0  0
 31 39  1  0  0  0  0
 31 32  2  0  0  0  0
 40 41  1  0  0  0  0
 41 49  1  0  0  0  0
 41 42  2  0  0  0  0
 50 53  1  0  0  0  0
 30 33  1  0  0  0  0
 59 60  1  0  0  0  0
 17 18  1  0  0  0  0
  8 11  1  0  0  0  0
 11 12  1  0  0  0  0
 40 43  1  0  0  0  0
 43 44  1  0  0  0  0
 49 50  1  0  0  0  0
  7  8  1  0  0  0  0
 29 30  1  0  0  0  0
 39 40  1  0  0  0  0
 12 44  1  0  0  0  0
  3  4  1  0  0  0  0
  3  5  1  0  0  0  0
  3  6  1  0  0  0  0
 25 26  1  0  0  0  0
 25 27  1  0  0  0  0
 25 28  1  0  0  0  0
 53 56  1  0  0  0  0
 53 57  1  0  0  0  0
 53 58  1  0  0  0  0
 33 36  1  0  0  0  0
 33 37  1  0  0  0  0
 33 38  1  0  0  0  0
 60 62  1  0  0  0  0
 60 63  1  0  0  0  0
 60 64  1  0  0  0  0
 18 20  1  0  0  0  0
 18 21  1  0  0  0  0
 18 22  1  0  0  0  0
 11 15  1  0  0  0  0
 11 16  1  0  0  0  0
 43 47  1  0  0  0  0
 43 48  1  0  0  0  0
 50 55  1  0  0  0  0
  8 14  1  0  0  0  0
 30 35  1  0  0  0  0
 40 46  1  0  0  0  0
 59 61  1  0  0  0  0
 17 19  1  0  0  0  0
  7 13  1  0  0  0  0
 29 34  1  0  0  0  0
 49 54  1  0  0  0  0
 39 45  1  0  0  0  0
M  END
$$$$

  -OEChem-05262214473D

 64 63  0     1  0  0  0  0  0999 V2000
   -2.6980    7.0994    4.7169 C   0  0  0  0  0  0  0  0  0  0  0  0
   -3.9035    6.9036    4.6164 O   0  0  0  0  0  0  0  0  0  0  0  0
   -2.1940    8.4858    4.9453 C   0  0  0  0  0  0  0  0  0  0  0  0
   -1.9901    9.0196    4.0032 H   0  0  0  0  0  0  0  0  0  0  0  0
   -2.9212    9.1140    5.4844 H   0  0  0  0  0  0  0  0  0  0  0  0
   -1.2612    8.5583    5.5271 H   0  0  0  0  0  0  0  0  0  0  0  0
   -1.7032    6.1398    4.6415 N   0  0  0  0  0  0  0  0  0  0  0  0
   -1.9690    4.7398    4.4276 C   0  0  2  0  0  0  0  0  0  0  0  0
   -0.9448    3.9173    5.2067 C   0  0  0  0  0  0  0  0  0  0  0  0
    0.0056    4.4212    5.8020 O   0  0  0  0  0  0  0  0  0  0  0  0
   -2.0330    4.3793    2.9414 C   0  0  0  0  0  0  0  0  0  0  0  0
   -0.4650    4.6488    2.0520 S   0  0  0  0  0  0  0  0  0  0  0  0
   -0.7355    6.4381    4.7421 H   0  0  0  0  0  0  0  0  0  0  0  0
   -2.9528    4.5548    4.8766 H   0  0  0  0  0  0  0  0  0  0  0  0
   -2.3058    3.3268    2.8126 H   0  0  0  0  0  0  0  0  0  0  0  0
   -2.8000    4.9827    2.4438 H   0  0  0  0  0  0  0  0  0  0  0  0
   -1.2031    2.5556    5.1378 N   0  0  0  0  0  0  0  0  0  0  0  0
   -0.3610    1.5697    5.7739 C   0  0  0  0  0  0  0  0  0  0  0  0
   -2.0370    2.2286    4.6590 H   0  0  0  0  0  0  0  0  0  0  0  0
    0.3967    1.2174    5.0585 H   0  0  0  0  0  0  0  0  0  0  0  0
    0.1384    2.0208    6.6441 H   0  0  0  0  0  0  0  0  0  0  0  0
   -0.9765    0.7200    6.1041 H   0  0  0  0  0  0  0  0  0  0  0  0
   -6.7256    2.0330   -0.2766 C   0  0  0  0  0  0  0  0  0  0  0  0
   -7.1824    1.1039   -0.9322 O   0  0  0  0  0  0  0  0  0  0  0  0
   -7.5276    2.6077    0.8435 C   0  0  0  0  0  0  0  0  0  0  0  0
   -8.1775    3.4344    0.5145 H   0  0  0  0  0  0  0  0  0  0  0  0
   -8.2057    1.8676    1.2980 H   0  0  0  0  0  0  0  0  0  0  0  0
   -6.9411    3.0162    1.6819 H   0  0  0  0  0  0  0  0  0  0  0  0
   -5.4935    2.6382   -0.4627 N   0  0  0  0  0  0  0  0  0  0  0  0
   -4.5619    2.2388   -1.4845 C   0  0  2  0  0  0  0  0  0  0  0  0
   -3.1535    2.4674   -0.9521 C   0  0  0  0  0  0  0  0  0  0  0  0
   -2.8634    3.3945   -0.1987 O   0  0  0  0  0  0  0  0  0  0  0  0
   -4.7883    3.0138   -2.7732 C   0  0  0  0  0  0  0  0  0  0  0  0
   -5.2337    3.4049    0.1551 H   0  0  0  0  0  0  0  0  0  0  0  0
   -4.7192    1.1682   -1.6549 H   0  0  0  0  0  0  0  0  0  0  0  0
   -4.6352    4.0886   -2.6221 H   0  0  0  0  0  0  0  0  0  0  0  0
   -4.0976    2.6887   -3.5582 H   0  0  0  0  0  0  0  0  0  0  0  0
   -5.8111    2.8719   -3.1387 H   0  0  0  0  0  0  0  0  0  0  0  0
   -2.2466    1.5400   -1.4507 N   0  0  0  0  0  0  0  0  0  0  0  0
   -0.8424    1.5707   -1.1286 C   0  0  2  0  0  0  0  0  0  0  0  0
   -0.2962    0.1448   -1.1614 C   0  0  0  0  0  0  0  0  0  0  0  0
   -0.9967   -0.8351   -1.4074 O   0  0  0  0  0  0  0  0  0  0  0  0
   -0.5627    2.2976    0.1892 C   0  0  0  0  0  0  0  0  0  0  0  0
   -0.9717    4.0594    0.1509 S   0  0  0  0  0  0  0  0  0  0  0  0
   -2.5850    0.7815   -2.0381 H   0  0  0  0  0  0  0  0  0  0  0  0
   -0.3650    2.1270   -1.9448 H   0  0  0  0  0  0  0  0  0  0  0  0
   -1.1351    1.8462    1.0061 H   0  0  0  0  0  0  0  0  0  0  0  0
    0.4993    2.2131    0.4438 H   0  0  0  0  0  0  0  0  0  0  0  0
    1.0573    0.0941   -0.8598 N   0  0  0  0  0  0  0  0  0  0  0  0
    1.7969   -1.1451   -0.8031 C   0  0  2  0  0  0  0  0  0  0  0  0
    2.8840   -0.9961    0.2531 C   0  0  0  0  0  0  0  0  0  0  0  0
    3.4646    0.0648    0.4730 O   0  0  0  0  0  0  0  0  0  0  0  0
    2.3977   -1.4932   -2.1561 C   0  0  0  0  0  0  0  0  0  0  0  0
    1.5692    0.9587   -0.7114 H   0  0  0  0  0  0  0  0  0  0  0  0
    1.0895   -1.9218   -0.4929 H   0  0  0  0  0  0  0  0  0  0  0  0
    3.1092   -0.7264   -2.4836 H   0  0  0  0  0  0  0  0  0  0  0  0
    2.9340   -2.4472   -2.1185 H   0  0  0  0  0  0  0  0  0  0  0  0
    1.6173   -1.5707   -2.9208 H   0  0  0  0  0  0  0  0  0  0  0  0
    3.1597   -2.1973    0.8913 N   0  0  0  0  0  0  0  0  0  0  0  0
    4.1819   -2.3256    1.9035 C   0  0  0  0  0  0  0  0  0  0  0  0
    2.6019   -3.0180    0.6743 H   0  0  0  0  0  0  0  0  0  0  0  0
    5.1279   -2.6322    1.4333 H   0  0  0  0  0  0  0  0  0  0  0  0
    4.3204   -1.3586    2.4092 H   0  0  0  0  0  0  0  0  0  0  0  0
    3.8758   -3.0837    2.6395 H   0  0  0  0  0  0  0  0  0  0  0  0
  1  3  1  0  0  0  0
  1  7  1  0  0  0  0
  1  2  2  0  0  0  0
 23 25  1  0  0  0  0
 23 29  1  0  0  0  0
 23 24  2  0  0  0  0
 50 51  1  0  0  0  0
 51 59  1  0  0  0  0
 51 52  2  0  0  0  0
  8  9  1  0  0  0  0
  9 17  1  0  0  0  0
  9 10  2  0  0  0  0
 30 31  1  0  0  0  0
 31 39  1  0  0  0  0
 31 32  2  0  0  0  0
 40 41  1  0  0  0  0
 41 49  1  0  0  0  0
 41 42  2  0  0  0  0
 50 53  1  0  0  0  0
 30 33  1  0  0  0  0
 59 60  1  0  0  0  0
 17 18  1  0  0  0  0
  8 11  1  0  0  0  0
 11 12  1  0  0  0  0
 40 43  1  0  0  0  0
 43 44  1  0  0  0  0
 49 50  1  0  0  0  0
  7  8  1  0  0  0  0
 29 30  1  0  0  0  0
 39 40  1  0  0  0  0
 12 44  1  0  0  0  0
  3  4  1  0  0  0  0
  3  5  1  0  0  0  0
  3  6  1  0  0  0  0
 25 26  1  0  0  0  0
 25 27  1  0  0  0  0
 25 28  1  0  0  0  0
 53 56  1  0  0  0  0
 53 57  1  0  0  0  0
 53 58  1  0  0  0  0
 33 36  1  0  0  0  0
 33 37  1  0  0  0  0
 33 38  1  0  0  0  0
 60 62  1  0  0  0  0
 60 63  1  0  0  0  0
 60 64  1  0  0  0  0
 18 20  1  0  0  0  0
 18 21  1  0  0  0  0
 18 22  1  0  0  0  0
 11 15  1  0  0  0  0
 11 16  1  0  0  0  0
 43 47  1  0  0  0  0
 43 48  1  0  0  0  0
 50 55  1  0  0  0  0
  8 14  1  0  0  0  0
 30 35  1  0  0  0  0
 40 46  1  0  0  0  0
 59 61  1  0  0  0  0
 17 19  1  0  0  0  0
  7 13  1  0  0  0  0
 29 34  1  0  0  0  0
 49 54  1  0  0  0  0
 39 45  1  0  0  0  0
M  END
$$$$

  -OEChem-05262214473D

 64 63  0     1  0  0  0  0  0999 V2000
   -2.6980    7.0994    4.7169 C   0  0  0  0  0  0  0  0  0  0  0  0
   -3.9035    6.9036    4.6164 O   0  0  0  0  0  0  0  0  0  0  0  0
   -2.1940    8.4858    4.9453 C   0  0  0  0  0  0  0  0  0  0  0  0
   -1.9901    9.0196    4.0032 H   0  0  0  0  0  0  0  0  0  0  0  0
   -2.9212    9.1140    5.4844 H   0  0  0  0  0  0  0  0  0  0  0  0
   -1.2612    8.5583    5.5271 H   0  0  0  0  0  0  0  0  0  0  0  0
   -1.7032    6.1398    4.6415 N   0  0  0  0  0  0  0  0  0  0  0  0
   -1.9690    4.7398    4.4276 C   0  0  2  0  0  0  0  0  0  0  0  0
   -0.9448    3.9173    5.2067 C   0  0  0  0  0  0  0  0  0  0  0  0
    0.0056    4.4212    5.8020 O   0  0  0  0  0  0  0  0  0  0  0  0
   -2.0330    4.3793    2.9414 C   0  0  0  0  0  0  0  0  0  0  0  0
   -0.4650    4.6488    2.0520 S   0  0  0  0  0  0  0  0  0  0  0  0
   -0.7355    6.4381    4.7421 H   0  0  0  0  0  0  0  0  0  0  0  0
   -2.9528    4.5548    4.8766 H   0  0  0  0  0  0  0  0  0  0  0  0
   -2.3058    3.3268    2.8126 H   0  0  0  0  0  0  0  0  0  0  0  0
   -2.8000    4.9827    2.4438 H   0  0  0  0  0  0  0  0  0  0  0  0
   -1.2031    2.5556    5.1378 N   0  0  0  0  0  0  0  0  0  0  0  0
   -0.3610    1.5697    5.7739 C   0  0  0  0  0  0  0  0  0  0  0  0
   -2.0370    2.2286    4.6590 H   0  0  0  0  0  0  0  0  0  0  0  0
    0.3967    1.2174    5.0585 H   0  0  0  0  0  0  0  0  0  0  0  0
    0.1384    2.0208    6.6441 H   0  0  0  0  0  0  0  0  0  0  0  0
   -0.9765    0.7200    6.1041 H   0  0  0  0  0  0  0  0  0  0  0  0
   -6.7256    2.0330   -0.2766 C   0  0  0  0  0  0  0  0  0  0  0  0
   -7.1824    1.1039   -0.9322 O   0  0  0  0  0  0  0  0  0  0  0  0
   -7.5276    2.6077    0.8435 C   0  0  0  0  0  0  0  0  0  0  0  0
   -8.1775    3.4344    0.5145 H   0  0  0  0  0  0  0  0  0  0  0  0
   -8.2057    1.8676    1.2980 H   0  0  0  0  0  0  0  0  0  0  0  0
   -6.9411    3.0162    1.6819 H   0  0  0  0  0  0  0  0  0  0  0  0
   -5.4935    2.6382   -0.4627 N   0  0  0  0  0  0  0  0  0  0  0  0
   -4.5619    2.2388   -1.4845 C   0  0  2  0  0  0  0  0  0  0  0  0
   -3.1535    2.4674   -0.9521 C   0  0  0  0  0  0  0  0  0  0  0  0
   -2.8634    3.3945   -0.1987 O   0  0  0  0  0  0  0  0  0  0  0  0
   -4.7883    3.0138   -2.7732 C   0  0  0  0  0  0  0  0  0  0  0  0
   -5.2337    3.4049    0.1551 H   0  0  0  0  0  0  0  0  0  0  0  0
   -4.7192    1.1682   -1.6549 H   0  0  0  0  0  0  0  0  0  0  0  0
   -4.6352    4.0886   -2.6221 H   0  0  0  0  0  0  0  0  0  0  0  0
   -4.0976    2.6887   -3.5582 H   0  0  0  0  0  0  0  0  0  0  0  0
   -5.8111    2.8719   -3.1387 H   0  0  0  0  0  0  0  0  0  0  0  0
   -2.2466    1.5400   -1.4507 N   0  0  0  0  0  0  0  0  0  0  0  0
   -0.8424    1.5707   -1.1286 C   0  0  2  0  0  0  0  0  0  0  0  0
   -0.2962    0.1448   -1.1614 C   0  0  0  0  0  0  0  0  0  0  0  0
   -0.9107   -0.7963   -1.6595 O   0  0  0  0  0  0  0  0  0  0  0  0
   -0.5627    2.2976    0.1892 C   0  0  0  0  0  0  0  0  0  0  0  0
   -0.9717    4.0594    0.1509 S   0  0  0  0  0  0  0  0  0  0  0  0
   -2.5850    0.7815   -2.0381 H   0  0  0  0  0  0  0  0  0  0  0  0
   -0.3650    2.1270   -1.9448 H   0  0  0  0  0  0  0  0  0  0  0  0
   -1.1351    1.8462    1.0061 H   0  0  0  0  0  0  0  0  0  0  0  0
    0.4993    2.2131    0.4438 H   0  0  0  0  0  0  0  0  0  0  0  0
    0.9444    0.0436   -0.5481 N   0  0  0  0  0  0  0  0  0  0  0  0
    1.6555   -1.2078   -0.4304 C   0  0  2  0  0  0  0  0  0  0  0  0
    2.4540   -1.1750    0.8661 C   0  0  0  0  0  0  0  0  0  0  0  0
    2.9579   -0.1487    1.3177 O   0  0  0  0  0  0  0  0  0  0  0  0
    2.5678   -1.4403   -1.6247 C   0  0  0  0  0  0  0  0  0  0  0  0
    1.4001    0.8822   -0.2006 H   0  0  0  0  0  0  0  0  0  0  0  0
    0.8986   -1.9977   -0.3739 H   0  0  0  0  0  0  0  0  0  0  0  0
    3.3329   -0.6588   -1.6978 H   0  0  0  0  0  0  0  0  0  0  0  0
    3.0846   -2.4026   -1.5479 H   0  0  0  0  0  0  0  0  0  0  0  0
    1.9959   -1.4340   -2.5590 H   0  0  0  0  0  0  0  0  0  0  0  0
    2.5740   -2.4342    1.4372 N   0  0  0  0  0  0  0  0  0  0  0  0
    3.3217   -2.6723    2.6497 C   0  0  0  0  0  0  0  0  0  0  0  0
    2.0901   -3.2219    1.0164 H   0  0  0  0  0  0  0  0  0  0  0  0
    4.3551   -2.9504    2.3952 H   0  0  0  0  0  0  0  0  0  0  0  0
    3.3282   -1.7584    3.2618 H   0  0  0  0  0  0  0  0  0  0  0  0
    2.8511   -3.4895    3.2160 H   0  0  0  0  0  0  0  0  0  0  0  0
  1  3  1  0  0  0  0
  1  7  1  0  0  0  0
  1  2  2  0  0  0  0
 23 25  1  0  0  0  0
 23 29  1  0  0  0  0
 23 24  2  0  0  0  0
 50 51  1  0  0  0  0
 51 59  1  0  0  0  0
 51 52  2  0  0  0  0
  8  9  1  0  0  0  0
  9 17  1  0  0  0  0
  9 10  2  0  0  0  0
 30 31  1  0  0  0  0
 31 39  1  0  0  0  0
 31 32  2  0  0  0  0
 40 41  1  0  0  0  0
 41 49  1  0  0  0  0
 41 42  2  0  0  0  0
 50 53  1  0  0  0  0
 30 33  1  0  0  0  0
 59 60  1  0  0  0  0
 17 18  1  0  0  0  0
  8 11  1  0  0  0  0
 11 12  1  0  0  0  0
 40 43  1  0  0  0  0
 43 44  1  0  0  0  0
 49 50  1  0  0  0  0
  7  8  1  0  0  0  0
 29 30  1  0  0  0  0
 39 40  1  0  0  0  0
 12 44  1  0  0  0  0
  3  4  1  0  0  0  0
  3  5  1  0  0  0  0
  3  6  1  0  0  0  0
 25 26  1  0  0  0  0
 25 27  1  0  0  0  0
 25 28  1  0  0  0  0
 53 56  1  0  0  0  0
 53 57  1  0  0  0  0
 53 58  1  0  0  0  0
 33 36  1  0  0  0  0
 33 37  1  0  0  0  0
 33 38  1  0  0  0  0
 60 62  1  0  0  0  0
 60 63  1  0  0  0  0
 60 64  1  0  0  0  0
 18 20  1  0  0  0  0
 18 21  1  0  0  0  0
 18 22  1  0  0  0  0
 11 15  1  0  0  0  0
 11 16  1  0  0  0  0
 43 47  1  0  0  0  0
 43 48  1  0  0  0  0
 50 55  1  0  0  0  0
  8 14  1  0  0  0  0
 30 35  1  0  0  0  0
 40 46  1  0  0  0  0
 59 61  1  0  0  0  0
 17 19  1  0  0  0  0
  7 13  1  0  0  0  0
 29 34  1  0  0  0  0
 49 54  1  0  0  0  0
 39 45  1  0  0  0  0
M  END
$$$$

  -OEChem-05262214473D

 64 63  0     1  0  0  0  0  0999 V2000
   -2.6980    7.0994    4.7169 C   0  0  0  0  0  0  0  0  0  0  0  0
   -3.9035    6.9036    4.6164 O   0  0  0  0  0  0  0  0  0  0  0  0
   -2.1940    8.4858    4.9453 C   0  0  0  0  0  0  0  0  0  0  0  0
   -1.9901    9.0196    4.0032 H   0  0  0  0  0  0  0  0  0  0  0  0
   -2.9212    9.1140    5.4844 H   0  0  0  0  0  0  0  0  0  0  0  0
   -1.2612    8.5583    5.5271 H   0  0  0  0  0  0  0  0  0  0  0  0
   -1.7032    6.1398    4.6415 N   0  0  0  0  0  0  0  0  0  0  0  0
   -1.9690    4.7398    4.4276 C   0  0  2  0  0  0  0  0  0  0  0  0
   -0.9448    3.9173    5.2067 C   0  0  0  0  0  0  0  0  0  0  0  0
    0.0056    4.4212    5.8020 O   0  0  0  0  0  0  0  0  0  0  0  0
   -2.0330    4.3793    2.9414 C   0  0  0  0  0  0  0  0  0  0  0  0
   -0.4650    4.6488    2.0520 S   0  0  0  0  0  0  0  0  0  0  0  0
   -0.7355    6.4381    4.7421 H   0  0  0  0  0  0  0  0  0  0  0  0
   -2.9528    4.5548    4.8766 H   0  0  0  0  0  0  0  0  0  0  0  0
   -2.3058    3.3268    2.8126 H   0  0  0  0  0  0  0  0  0  0  0  0
   -2.8000    4.9827    2.4438 H   0  0  0  0  0  0  0  0  0  0  0  0
   -1.2031    2.5556    5.1378 N   0  0  0  0  0  0  0  0  0  0  0  0
   -0.3610    1.5697    5.7739 C   0  0  0  0  0  0  0  0  0  0  0  0
   -2.0370    2.2286    4.6590 H   0  0  0  0  0  0  0  0  0  0  0  0
    0.3967    1.2174    5.0585 H   0  0  0  0  0  0  0  0  0  0  0  0
    0.1384    2.0208    6.6441 H   0  0  0  0  0  0  0  0  0  0  0  0
   -0.9765    0.7200    6.1041 H   0  0  0  0  0  0  0  0  0  0  0  0
   -6.7256    2.0330   -0.2766 C   0  0  0  0  0  0  0  0  0  0  0  0
   -7.1824    1.1039   -0.9322 O   0  0  0  0  0  0  0  0  0  0  0  0
   -7.5276    2.6077    0.8435 C   0  0  0  0  0  0  0  0  0  0  0  0
   -8.1775    3.4344    0.5145 H   0  0  0  0  0  0  0  0  0  0  0  0
   -8.2057    1.8676    1.2980 H   0  0  0  0  0  0  0  0  0  0  0  0
   -6.9411    3.0162    1.6819 H   0  0  0  0  0  0  0  0  0  0  0  0
   -5.4935    2.6382   -0.4627 N   0  0  0  0  0  0  0  0  0  0  0  0
   -4.5619    2.2388   -1.4845 C   0  0  2  0  0  0  0  0  0  0  0  0
   -3.1535    2.4674   -0.9521 C   0  0  0  0  0  0  0  0  0  0  0  0
   -2.8634    3.3945   -0.1987 O   0  0  0  0  0  0  0  0  0  0  0  0
   -4.7883    3.0138   -2.7732 C   0  0  0  0  0  0  0  0  0  0  0  0
   -5.2337    3.4049    0.1551 H   0  0  0  0  0  0  0  0  0  0  0  0
   -4.7192    1.1682   -1.6549 H   0  0  0  0  0  0  0  0  0  0  0  0
   -4.6352    4.0886   -2.6221 H   0  0  0  0  0  0  0  0  0  0  0  0
   -4.0976    2.6887   -3.5582 H   0  0  0  0  0  0  0  0  0  0  0  0
   -5.8111    2.8719   -3.1387 H   0  0  0  0  0  0  0  0  0  0  0  0
   -2.2466    1.5400   -1.4507 N   0  0  0  0  0  0  0  0  0  0  0  0
   -0.8424    1.5707   -1.1286 C   0  0  2  0  0  0  0  0  0  0  0  0
   -0.2962    0.1448   -1.1614 C   0  0  0  0  0  0  0  0  0  0  0  0
   -0.7665   -0.7361   -1.8786 O   0  0  0  0  0  0  0  0  0  0  0  0
   -0.5627    2.2976    0.1892 C   0  0  0  0  0  0  0  0  0  0  0  0
   -0.9717    4.0594    0.1509 S   0  0  0  0  0  0  0  0  0  0  0  0
   -2.5850    0.7815   -2.0381 H   0  0  0  0  0  0  0  0  0  0  0  0
   -0.3650    2.1270   -1.9448 H   0  0  0  0  0  0  0  0  0  0  0  0
   -1.1351    1.8462    1.0061 H   0  0  0  0  0  0  0  0  0  0  0  0
    0.4993    2.2131    0.4438 H   0  0  0  0  0  0  0  0  0  0  0  0
    0.7597   -0.0333   -0.2789 N   0  0  0  0  0  0  0  0  0  0  0  0
    1.4286   -1.3022   -0.1103 C   0  0  2  0  0  0  0  0  0  0  0  0
    1.8894   -1.4021    1.3378 C   0  0  0  0  0  0  0  0  0  0  0  0
    2.2632   -0.4304    1.9914 O   0  0  0  0  0  0  0  0  0  0  0  0
    2.6039   -1.4394   -1.0655 C   0  0  0  0  0  0  0  0  0  0  0  0
    1.1130    0.7620    0.2449 H   0  0  0  0  0  0  0  0  0  0  0  0
    0.6850   -2.0809   -0.3121 H   0  0  0  0  0  0  0  0  0  0  0  0
    3.3594   -0.6675   -0.8785 H   0  0  0  0  0  0  0  0  0  0  0  0
    3.0924   -2.4133   -0.9562 H   0  0  0  0  0  0  0  0  0  0  0  0
    2.2751   -1.3375   -2.1053 H   0  0  0  0  0  0  0  0  0  0  0  0
    1.8751   -2.7103    1.8010 N   0  0  0  0  0  0  0  0  0  0  0  0
    2.3087   -3.0715    3.1305 C   0  0  0  0  0  0  0  0  0  0  0  0
    1.5119   -3.4477    1.2043 H   0  0  0  0  0  0  0  0  0  0  0  0
    3.3745   -3.3424    3.1082 H   0  0  0  0  0  0  0  0  0  0  0  0
    2.1616   -2.2178    3.8085 H   0  0  0  0  0  0  0  0  0  0  0  0
    1.7198   -3.9291    3.4877 H   0  0  0  0  0  0  0  0  0  0  0  0
  1  3  1  0  0  0  0
  1  7  1  0  0  0  0
  1  2  2  0  0  0  0
 23 25  1  0  0  0  0
 23 29  1  0  0  0  0
 23 24  2  0  0  0  0
 50 51  1  0  0  0  0
 51 59  1  0  0  0  0
 51 52  2  0  0  0  0
  8  9  1  0  0  0  0
  9 17  1  0  0  0  0
  9 10  2  0  0  0  0
 30 31  1  0  0  0  0
 31 39  1  0  0  0  0
 31 32  2  0  0  0  0
 40 41  1  0  0  0  0
 41 49  1  0  0  0  0
 41 42  2  0  0  0  0
 50 53  1  0  0  0  0
 30 33  1  0  0  0  0
 59 60  1  0  0  0  0
 17 18  1  0  0  0  0
  8 11  1  0  0  0  0
 11 12  1  0  0  0  0
 40 43  1  0  0  0  0
 43 44  1  0  0  0  0
 49 50  1  0  0  0  0
  7  8  1  0  0  0  0
 29 30  1  0  0  0  0
 39 40  1  0  0  0  0
 12 44  1  0  0  0  0
  3  4  1  0  0  0  0
  3  5  1  0  0  0  0
  3  6  1  0  0  0  0
 25 26  1  0  0  0  0
 25 27  1  0  0  0  0
 25 28  1  0  0  0  0
 53 56  1  0  0  0  0
 53 57  1  0  0  0  0
 53 58  1  0  0  0  0
 33 36  1  0  0  0  0
 33 37  1  0  0  0  0
 33 38  1  0  0  0  0
 60 62  1  0  0  0  0
 60 63  1  0  0  0  0
 60 64  1  0  0  0  0
 18 20  1  0  0  0  0
 18 21  1  0  0  0  0
 18 22  1  0  0  0  0
 11 15  1  0  0  0  0
 11 16  1  0  0  0  0
 43 47  1  0  0  0  0
 43 48  1  0  0  0  0
 50 55  1  0  0  0  0
  8 14  1  0  0  0  0
 30 35  1  0  0  0  0
 40 46  1  0  0  0  0
 59 61  1  0  0  0  0
 17 19  1  0  0  0  0
  7 13  1  0  0  0  0
 29 34  1  0  0  0  0
 49 54  1  0  0  0  0
 39 45  1  0  0  0  0
M  END
$$$$

  -OEChem-05262214473D

 64 63  0     1  0  0  0  0  0999 V2000
   -2.6980    7.0994    4.7169 C   0  0  0  0  0  0  0  0  0  0  0  0
   -3.9035    6.9036    4.6164 O   0  0  0  0  0  0  0  0  0  0  0  0
   -2.1940    8.4858    4.9453 C   0  0  0  0  0  0  0  0  0  0  0  0
   -1.9901    9.0196    4.0032 H   0  0  0  0  0  0  0  0  0  0  0  0
   -2.9212    9.1140    5.4844 H   0  0  0  0  0  0  0  0  0  0  0  0
   -1.2612    8.5583    5.5271 H   0  0  0  0  0  0  0  0  0  0  0  0
   -1.7032    6.1398    4.6415 N   0  0  0  0  0  0  0  0  0  0  0  0
   -1.9690    4.7398    4.4276 C   0  0  2  0  0  0  0  0  0  0  0  0
   -0.9448    3.9173    5.2067 C   0  0  0  0  0  0  0  0  0  0  0  0
    0.0056    4.4212    5.8020 O   0  0  0  0  0  0  0  0  0  0  0  0
   -2.0330    4.3793    2.9414 C   0  0  0  0  0  0  0  0  0  0  0  0
   -0.4650    4.6488    2.0520 S   0  0  0  0  0  0  0  0  0  0  0  0
   -0.7355    6.4381    4.7421 H   0  0  0  0  0  0  0  0  0  0  0  0
   -2.9528    4.5548    4.8766 H   0  0  0  0  0  0  0  0  0  0  0  0
   -2.3058    3.3268    2.8126 H   0  0  0  0  0  0  0  0  0  0  0  0
   -2.8000    4.9827    2.4438 H   0  0  0  0  0  0  0  0  0  0  0  0
   -1.2031    2.5556    5.1378 N   0  0  0  0  0  0  0  0  0  0  0  0
   -0.3610    1.5697    5.7739 C   0  0  0  0  0  0  0  0  0  0  0  0
   -2.0370    2.2286    4.6590 H   0  0  0  0  0  0  0  0  0  0  0  0
    0.3967    1.2174    5.0585 H   0  0  0  0  0  0  0  0  0  0  0  0
    0.1384    2.0208    6.6441 H   0  0  0  0  0  0  0  0  0  0  0  0
   -0.9765    0.7200    6.1041 H   0  0  0  0  0  0  0  0  0  0  0  0
   -6.7256    2.0330   -0.2766 C   0  0  0  0  0  0  0  0  0  0  0  0
   -7.1824    1.1039   -0.9322 O   0  0  0  0  0  0  0  0  0  0  0  0
   -7.5276    2.6077    0.8435 C   0  0  0  0  0  0  0  0  0  0  0  0
   -8.1775    3.4344    0.5145 H   0  0  0  0  0  0  0  0  0  0  0  0
   -8.2057    1.8676    1.2980 H   0  0  0  0  0  0  0  0  0  0  0  0
   -6.9411    3.0162    1.6819 H   0  0  0  0  0  0  0  0  0  0  0  0
   -5.4935    2.6382   -0.4627 N   0  0  0  0  0  0  0  0  0  0  0  0
   -4.5619    2.2388   -1.4845 C   0  0  2  0  0  0  0  0  0  0  0  0
   -3.1535    2.4674   -0.9521 C   0  0  0  0  0  0  0  0  0  0  0  0
   -2.8634    3.3945   -0.1987 O   0  0  0  0  0  0  0  0  0  0  0  0
   -4.7883    3.0138   -2.7732 C   0  0  0  0  0  0  0  0  0  0  0  0
   -5.2337    3.4049    0.1551 H   0  0  0  0  0  0  0  0  0  0  0  0
   -4.7192    1.1682   -1.6549 H   0  0  0  0  0  0  0  0  0  0  0  0
   -4.6352    4.0886   -2.6221 H   0  0  0  0  0  0  0  0  0  0  0  0
   -4.0976    2.6887   -3.5582 H   0  0  0  0  0  0  0  0  0  0  0  0
   -5.8111    2.8719   -3.1387 H   0  0  0  0  0  0  0  0  0  0  0  0
   -2.2466    1.5400   -1.4507 N   0  0  0  0  0  0  0  0  0  0  0  0
   -0.8424    1.5707   -1.1286 C   0  0  2  0  0  0  0  0  0  0  0  0
   -0.2962    0.1448   -1.1614 C   0  0  0  0  0  0  0  0  0  0  0  0
   -0.5739   -0.6583   -2.0498 O   0  0  0  0  0  0  0  0  0  0  0  0
   -0.5627    2.2976    0.1892 C   0  0  0  0  0  0  0  0  0  0  0  0
   -0.9717    4.0594    0.1509 S   0  0  0  0  0  0  0  0  0  0  0  0
   -2.5850    0.7815   -2.0381 H   0  0  0  0  0  0  0  0  0  0  0  0
   -0.3650    2.1270   -1.9448 H   0  0  0  0  0  0  0  0  0  0  0  0
   -1.1351    1.8462    1.0061 H   0  0  0  0  0  0  0  0  0  0  0  0
    0.4993    2.2131    0.4438 H   0  0  0  0  0  0  0  0  0  0  0  0
    0.5159   -0.1315   -0.0707 N   0  0  0  0  0  0  0  0  0  0  0  0
    1.1314   -1.4216    0.1353 C   0  0  2  0  0  0  0  0  0  0  0  0
    1.2289   -1.6620    1.6361 C   0  0  0  0  0  0  0  0  0  0  0  0
    1.4279   -0.7609    2.4482 O   0  0  0  0  0  0  0  0  0  0  0  0
    2.5037   -1.4904   -0.5164 C   0  0  0  0  0  0  0  0  0  0  0  0
    0.7274    0.6062    0.5947 H   0  0  0  0  0  0  0  0  0  0  0  0
    0.4633   -2.1658   -0.3117 H   0  0  0  0  0  0  0  0  0  0  0  0
    3.1871   -0.7519   -0.0815 H   0  0  0  0  0  0  0  0  0  0  0  0
    2.9569   -2.4784   -0.3838 H   0  0  0  0  0  0  0  0  0  0  0  0
    2.4356   -1.2879   -1.5907 H   0  0  0  0  0  0  0  0  0  0  0  0
    1.1105   -3.0068    1.9580 N   0  0  0  0  0  0  0  0  0  0  0  0
    1.2117   -3.4958    3.3132 C   0  0  0  0  0  0  0  0  0  0  0  0
    0.9067   -3.6800    1.2252 H   0  0  0  0  0  0  0  0  0  0  0  0
    2.2529   -3.7817    3.5237 H   0  0  0  0  0  0  0  0  0  0  0  0
    0.9000   -2.7058    4.0122 H   0  0  0  0  0  0  0  0  0  0  0  0
    0.5589   -4.3726    3.4362 H   0  0  0  0  0  0  0  0  0  0  0  0
  1  3  1  0  0  0  0
  1  7  1  0  0  0  0
  1  2  2  0  0  0  0
 23 25  1  0  0  0  0
 23 29  1  0  0  0  0
 23 24  2  0  0  0  0
 50 51  1  0  0  0  0
 51 59  1  0  0  0  0
 51 52  2  0  0  0  0
  8  9  1  0  0  0  0
  9 17  1  0  0  0  0
  9 10  2  0  0  0  0
 30 31  1  0  0  0  0
 31 39  1  0  0  0  0
 31 32  2  0  0  0  0
 40 41  1  0  0  0  0
 41 49  1  0  0  0  0
 41 42  2  0  0  0  0
 50 53  1  0  0  0  0
 30 33  1  0  0  0  0
 59 60  1  0  0  0  0
 17 18  1  0  0  0  0
  8 11  1  0  0  0  0
 11 12  1  0  0  0  0
 40 43  1  0  0  0  0
 43 44  1  0  0  0  0
 49 50  1  0  0  0  0
  7  8  1  0  0  0  0
 29 30  1  0  0  0  0
 39 40  1  0  0  0  0
 12 44  1  0  0  0  0
  3  4  1  0  0  0  0
  3  5  1  0  0  0  0
  3  6  1  0  0  0  0
 25 26  1  0  0  0  0
 25 27  1  0  0  0  0
 25 28  1  0  0  0  0
 53 56  1  0  0  0  0
 53 57  1  0  0  0  0
 53 58  1  0  0  0  0
 33 36  1  0  0  0  0
 33 37  1  0  0  0  0
 33 38  1  0  0  0  0
 60 62  1  0  0  0  0
 60 63  1  0  0  0  0
 60 64  1  0  0  0  0
 18 20  1  0  0  0  0
 18 21  1  0  0  0  0
 18 22  1  0  0  0  0
 11 15  1  0  0  0  0
 11 16  1  0  0  0  0
 43 47  1  0  0  0  0
 43 48  1  0  0  0  0
 50 55  1  0  0  0  0
  8 14  1  0  0  0  0
 30 35  1  0  0  0  0
 40 46  1  0  0  0  0
 59 61  1  0  0  0  0
 17 19  1  0  0  0  0
  7 13  1  0  0  0  0
 29 34  1  0  0  0  0
 49 54  1  0  0  0  0
 39 45  1  0  0  0  0
M  END
$$$$

  -OEChem-05262214473D

 64 63  0     1  0  0  0  0  0999 V2000
   -2.6980    7.0994    4.7169 C   0  0  0  0  0  0  0  0  0  0  0  0
   -3.9035    6.9036    4.6164 O   0  0  0  0  0  0  0  0  0  0  0  0
   -2.1940    8.4858    4.9453 C   0  0  0  0  0  0  0  0  0  0  0  0
   -1.9901    9.0196    4.0032 H   0  0  0  0  0  0  0  0  0  0  0  0
   -2.9212    9.1140    5.4844 H   0  0  0  0  0  0  0  0  0  0  0  0
   -1.2612    8.5583    5.5271 H   0  0  0  0  0  0  0  0  0  0  0  0
   -1.7032    6.1398    4.6415 N   0  0  0  0  0  0  0  0  0  0  0  0
   -1.9690    4.7398    4.4276 C   0  0  2  0  0  0  0  0  0  0  0  0
   -0.9448    3.9173    5.2067 C   0  0  0  0  0  0  0  0  0  0  0  0
    0.0056    4.4212    5.8020 O   0  0  0  0  0  0  0  0  0  0  0  0
   -2.0330    4.3793    2.9414 C   0  0  0  0  0  0  0  0  0  0  0  0
   -0.4650    4.6488    2.0520 S   0  0  0  0  0  0  0  0  0  0  0  0
   -0.7355    6.4381    4.7421 H   0  0  0  0  0  0  0  0  0  0  0  0
   -2.9528    4.5548    4.8766 H   0  0  0  0  0  0  0  0  0  0  0  0
   -2.3058    3.3268    2.8126 H   0  0  0  0  0  0  0  0  0  0  0  0
   -2.8000    4.9827    2.4438 H   0  0  0  0  0  0  0  0  0  0  0  0
   -1.2031    2.5556    5.1378 N   0  0  0  0  0  0  0  0  0  0  0  0
   -0.3610    1.5697    5.7739 C   0  0  0  0  0  0  0  0  0  0  0  0
   -2.0370    2.2286    4.6590 H   0  0  0  0  0  0  0  0  0  0  0  0
    0.3967    1.2174    5.0585 H   0  0  0  0  0  0  0  0  0  0  0  0
    0.1384    2.0208    6.6441 H   0  0  0  0  0  0  0  0  0  0  0  0
   -0.9765    0.7200    6.1041 H   0  0  0  0  0  0  0  0  0  0  0  0
   -6.7256    2.0330   -0.2766 C   0  0  0  0  0  0  0  0  0  0  0  0
   -7.1824    1.1039   -0.9322 O   0  0  0  0  0  0  0  0  0  0  0  0
   -7.5276    2.6077    0.8435 C   0  0  0  0  0  0  0  0  0  0  0  0
   -8.1775    3.4344    0.5145 H   0  0  0  0  0  0  0  0  0  0  0  0
   -8.2057    1.8676    1.2980 H   0  0  0  0  0  0  0  0  0  0  0  0
   -6.9411    3.0162    1.6819 H   0  0  0  0  0  0  0  0  0  0  0  0
   -5.4935    2.6382   -0.4627 N   0  0  0  0  0  0  0  0  0  0  0  0
   -4.5619    2.2388   -1.4845 C   0  0  2  0  0  0  0  0  0  0  0  0
   -3.1535    2.4674   -0.9521 C   0  0  0  0  0  0  0  0  0  0  0  0
   -2.8634    3.3945   -0.1987 O   0  0  0  0  0  0  0  0  0  0  0  0
   -4.7883    3.0138   -2.7732 C   0  0  0  0  0  0  0  0  0  0  0  0
   -5.2337    3.4049    0.1551 H   0  0  0  0  0  0  0  0  0  0  0  0
   -4.7192    1.1682   -1.6549 H   0  0  0  0  0  0  0  0  0  0  0  0
   -4.6352    4.0886   -2.6221 H   0  0  0  0  0  0  0  0  0  0  0  0
   -4.0976    2.6887   -3.5582 H   0  0  0  0  0  0  0  0  0  0  0  0
   -5.8111    2.8719   -3.1387 H   0  0  0  0  0  0  0  0  0  0  0  0
   -2.2466    1.5400   -1.4507 N   0  0  0  0  0  0  0  0  0  0  0  0
   -0.8424    1.5707   -1.1286 C   0  0  2  0  0  0  0  0  0  0  0  0
   -0.2962    0.1448   -1.1614 C   0  0  0  0  0  0  0  0  0  0  0  0
   -0.3461   -0.5685   -2.1615 O   0  0  0  0  0  0  0  0  0  0  0  0
   -0.5627    2.2976    0.1892 C   0  0  0  0  0  0  0  0  0  0  0  0
   -0.9717    4.0594    0.1509 S   0  0  0  0  0  0  0  0  0  0  0  0
   -2.5850    0.7815   -2.0381 H   0  0  0  0  0  0  0  0  0  0  0  0
   -0.3650    2.1270   -1.9448 H   0  0  0  0  0  0  0  0  0  0  0  0
   -1.1351    1.8462    1.0061 H   0  0  0  0  0  0  0  0  0  0  0  0
    0.4993    2.2131    0.4438 H   0  0  0  0  0  0  0  0  0  0  0  0
    0.2295   -0.2443    0.0624 N   0  0  0  0  0  0  0  0  0  0  0  0
    0.7844   -1.5581    0.2897 C   0  0  2  0  0  0  0  0  0  0  0  0
    0.5173   -1.9369    1.7404 C   0  0  0  0  0  0  0  0  0  0  0  0
    0.5087   -1.1178    2.6569 O   0  0  0  0  0  0  0  0  0  0  0  0
    2.2740   -1.5900   -0.0150 C   0  0  0  0  0  0  0  0  0  0  0  0
    0.2694    0.4255    0.8250 H   0  0  0  0  0  0  0  0  0  0  0  0
    0.2486   -2.2467   -0.3727 H   0  0  0  0  0  0  0  0  0  0  0  0
    2.8275   -0.9062    0.6389 H   0  0  0  0  0  0  0  0  0  0  0  0
    2.6874   -2.5935    0.1304 H   0  0  0  0  0  0  0  0  0  0  0  0
    2.4666   -1.2885   -1.0503 H   0  0  0  0  0  0  0  0  0  0  0  0
    0.3324   -3.3034    1.8975 N   0  0  0  0  0  0  0  0  0  0  0  0
    0.1056   -3.9166    3.1853 C   0  0  0  0  0  0  0  0  0  0  0  0
    0.3159   -3.9029    1.0776 H   0  0  0  0  0  0  0  0  0  0  0  0
    1.0666   -4.2381    3.6133 H   0  0  0  0  0  0  0  0  0  0  0  0
   -0.3705   -3.1889    3.8590 H   0  0  0  0  0  0  0  0  0  0  0  0
   -0.5524   -4.7898    3.0648 H   0  0  0  0  0  0  0  0  0  0  0  0
  1  3  1  0  0  0  0
  1  7  1  0  0  0  0
  1  2  2  0  0  0  0
 23 25  1  0  0  0  0
 23 29  1  0  0  0  0
 23 24  2  0  0  0  0
 50 51  1  0  0  0  0
 51 59  1  0  0  0  0
 51 52  2  0  0  0  0
  8  9  1  0  0  0  0
  9 17  1  0  0  0  0
  9 10  2  0  0  0  0
 30 31  1  0  0  0  0
 31 39  1  0  0  0  0
 31 32  2  0  0  0  0
 40 41  1  0  0  0  0
 41 49  1  0  0  0  0
 41 42  2  0  0  0  0
 50 53  1  0  0  0  0
 30 33  1  0  0  0  0
 59 60  1  0  0  0  0
 17 18  1  0  0  0  0
  8 11  1  0  0  0  0
 11 12  1  0  0  0  0
 40 43  1  0  0  0  0
 43 44  1  0  0  0  0
 49 50  1  0  0  0  0
  7  8  1  0  0  0  0
 29 30  1  0  0  0  0
 39 40  1  0  0  0  0
 12 44  1  0  0  0  0
  3  4  1  0  0  0  0
  3  5  1  0  0  0  0
  3  6  1  0  0  0  0
 25 26  1  0  0  0  0
 25 27  1  0  0  0  0
 25 28  1  0  0  0  0
 53 56  1  0  0  0  0
 53 57  1  0  0  0  0
 53 58  1  0  0  0  0
 33 36  1  0  0  0  0
 33 37  1  0  0  0  0
 33 38  1  0  0  0  0
 60 62  1  0  0  0  0
 60 63  1  0  0  0  0
 60 64  1  0  0  0  0
 18 20  1  0  0  0  0
 18 21  1  0  0  0  0
 18 22  1  0  0  0  0
 11 15  1  0  0  0  0
 11 16  1  0  0  0  0
 43 47  1  0  0  0  0
 43 48  1  0  0  0  0
 50 55  1  0  0  0  0
  8 14  1  0  0  0  0
 30 35  1  0  0  0  0
 40 46  1  0  0  0  0
 59 61  1  0  0  0  0
 17 19  1  0  0  0  0
  7 13  1  0  0  0  0
 29 34  1  0  0  0  0
 49 54  1  0  0  0  0
 39 45  1  0  0  0  0
M  END
$$$$

  -OEChem-05262214473D

 64 63  0     1  0  0  0  0  0999 V2000
   -2.6980    7.0994    4.7169 C   0  0  0  0  0  0  0  0  0  0  0  0
   -3.9035    6.9036    4.6164 O   0  0  0  0  0  0  0  0  0  0  0  0
   -2.1940    8.4858    4.9453 C   0  0  0  0  0  0  0  0  0  0  0  0
   -1.9901    9.0196    4.0032 H   0  0  0  0  0  0  0  0  0  0  0  0
   -2.9212    9.1140    5.4844 H   0  0  0  0  0  0  0  0  0  0  0  0
   -1.2612    8.5583    5.5271 H   0  0  0  0  0  0  0  0  0  0  0  0
   -1.7032    6.1398    4.6415 N   0  0  0  0  0  0  0  0  0  0  0  0
   -1.9690    4.7398    4.4276 C   0  0  2  0  0  0  0  0  0  0  0  0
   -0.9448    3.9173    5.2067 C   0  0  0  0  0  0  0  0  0  0  0  0
    0.0056    4.4212    5.8020 O   0  0  0  0  0  0  0  0  0  0  0  0
   -2.0330    4.3793    2.9414 C   0  0  0  0  0  0  0  0  0  0  0  0
   -0.4650    4.6488    2.0520 S   0  0  0  0  0  0  0  0  0  0  0  0
   -0.7355    6.4381    4.7421 H   0  0  0  0  0  0  0  0  0  0  0  0
   -2.9528    4.5548    4.8766 H   0  0  0  0  0  0  0  0  0  0  0  0
   -2.3058    3.3268    2.8126 H   0  0  0  0  0  0  0  0  0  0  0  0
   -2.8000    4.9827    2.4438 H   0  0  0  0  0  0  0  0  0  0  0  0
   -1.2031    2.5556    5.1378 N   0  0  0  0  0  0  0  0  0  0  0  0
   -0.3610    1.5697    5.7739 C   0  0  0  0  0  0  0  0  0  0  0  0
   -2.0370    2.2286    4.6590 H   0  0  0  0  0  0  0  0  0  0  0  0
    0.3967    1.2174    5.0585 H   0  0  0  0  0  0  0  0  0  0  0  0
    0.1384    2.0208    6.6441 H   0  0  0  0  0  0  0  0  0  0  0  0
   -0.9765    0.7200    6.1041 H   0  0  0  0  0  0  0  0  0  0  0  0
   -6.7256    2.0330   -0.2766 C   0  0  0  0  0  0  0  0  0  0  0  0
   -7.1824    1.1039   -0.9322 O   0  0  0  0  0  0  0  0  0  0  0  0
   -7.5276    2.6077    0.8435 C   0  0  0  0  0  0  0  0  0  0  0  0
   -8.1775    3.4344    0.5145 H   0  0  0  0  0  0  0  0  0  0  0  0
   -8.2057    1.8676    1.2980 H   0  0  0  0  0  0  0  0  0  0  0  0
   -6.9411    3.0162    1.6819 H   0  0  0  0  0  0  0  0  0  0  0  0
   -5.4935    2.6382   -0.4627 N   0  0  0  0  0  0  0  0  0  0  0  0
   -4.5619    2.2388   -1.4845 C   0  0  2  0  0  0  0  0  0  0  0  0
   -3.1535    2.4674   -0.9521 C   0  0  0  0  0  0  0  0  0  0  0  0
   -2.8634    3.3945   -0.1987 O   0  0  0  0  0  0  0  0  0  0  0  0
   -4.7883    3.0138   -2.7732 C   0  0  0  0  0  0  0  0  0  0  0  0
   -5.2337    3.4049    0.1551 H   0  0  0  0  0  0  0  0  0  0  0  0
   -4.7192    1.1682   -1.6549 H   0  0  0  0  0  0  0  0  0  0  0  0
   -4.6352    4.0886   -2.6221 H   0  0  0  0  0  0  0  0  0  0  0  0
   -4.0976    2.6887   -3.5582 H   0  0  0  0  0  0  0  0  0  0  0  0
   -5.8111    2.8719   -3.1387 H   0  0  0  0  0  0  0  0  0  0  0  0
   -2.2466    1.5400   -1.4507 N   0  0  0  0  0  0  0  0  0  0  0  0
   -0.8424    1.5707   -1.1286 C   0  0  2  0  0  0  0  0  0  0  0  0
   -0.2962    0.1448   -1.1614 C   0  0  0  0  0  0  0  0  0  0  0  0
   -0.0986   -0.4727   -2.2060 O   0  0  0  0  0  0  0  0  0  0  0  0
   -0.5627    2.2976    0.1892 C   0  0  0  0  0  0  0  0  0  0  0  0
   -0.9717    4.0594    0.1509 S   0  0  0  0  0  0  0  0  0  0  0  0
   -2.5850    0.7815   -2.0381 H   0  0  0  0  0  0  0  0  0  0  0  0
   -0.3650    2.1270   -1.9448 H   0  0  0  0  0  0  0  0  0  0  0  0
   -1.1351    1.8462    1.0061 H   0  0  0  0  0  0  0  0  0  0  0  0
    0.4993    2.2131    0.4438 H   0  0  0  0  0  0  0  0  0  0  0  0
   -0.0799   -0.3639    0.1114 N   0  0  0  0  0  0  0  0  0  0  0  0
    0.4112   -1.7023    0.3423 C   0  0  2  0  0  0  0  0  0  0  0  0
   -0.1967   -2.2082    1.6439 C   0  0  0  0  0  0  0  0  0  0  0  0
   -0.4315   -1.4767    2.6035 O   0  0  0  0  0  0  0  0  0  0  0  0
    1.9304   -1.7313    0.4046 C   0  0  0  0  0  0  0  0  0  0  0  0
   -0.2295    0.2321    0.9201 H   0  0  0  0  0  0  0  0  0  0  0  0
    0.0555   -2.3179   -0.4911 H   0  0  0  0  0  0  0  0  0  0  0  0
    2.3053   -1.1200    1.2336 H   0  0  0  0  0  0  0  0  0  0  0  0
    2.3021   -2.7507    0.5512 H   0  0  0  0  0  0  0  0  0  0  0  0
    2.3659   -1.3393   -0.5208 H   0  0  0  0  0  0  0  0  0  0  0  0
   -0.4062   -3.5800    1.6235 N   0  0  0  0  0  0  0  0  0  0  0  0
   -0.9342   -4.3050    2.7556 C   0  0  0  0  0  0  0  0  0  0  0  0
   -0.2204   -4.1013    0.7717 H   0  0  0  0  0  0  0  0  0  0  0  0
   -0.1035   -4.6807    3.3709 H   0  0  0  0  0  0  0  0  0  0  0  0
   -1.5634   -3.6343    3.3592 H   0  0  0  0  0  0  0  0  0  0  0  0
   -1.5385   -5.1521    2.3989 H   0  0  0  0  0  0  0  0  0  0  0  0
  1  3  1  0  0  0  0
  1  7  1  0  0  0  0
  1  2  2  0  0  0  0
 23 25  1  0  0  0  0
 23 29  1  0  0  0  0
 23 24  2  0  0  0  0
 50 51  1  0  0  0  0
 51 59  1  0  0  0  0
 51 52  2  0  0  0  0
  8  9  1  0  0  0  0
  9 17  1  0  0  0  0
  9 10  2  0  0  0  0
 30 31  1  0  0  0  0
 31 39  1  0  0  0  0
 31 32  2  0  0  0  0
 40 41  1  0  0  0  0
 41 49  1  0  0  0  0
 41 42  2  0  0  0  0
 50 53  1  0  0  0  0
 30 33  1  0  0  0  0
 59 60  1  0  0  0  0
 17 18  1  0  0  0  0
  8 11  1  0  0  0  0
 11 12  1  0  0  0  0
 40 43  1  0  0  0  0
 43 44  1  0  0  0  0
 49 50  1  0  0  0  0
  7  8  1  0  0  0  0
 29 30  1  0  0  0  0
 39 40  1  0  0  0  0
 12 44  1  0  0  0  0
  3  4  1  0  0  0  0
  3  5  1  0  0  0  0
  3  6  1  0  0  0  0
 25 26  1  0  0  0  0
 25 27  1  0  0  0  0
 25 28  1  0  0  0  0
 53 56  1  0  0  0  0
 53 57  1  0  0  0  0
 53 58  1  0  0  0  0
 33 36  1  0  0  0  0
 33 37  1  0  0  0  0
 33 38  1  0  0  0  0
 60 62  1  0  0  0  0
 60 63  1  0  0  0  0
 60 64  1  0  0  0  0
 18 20  1  0  0  0  0
 18 21  1  0  0  0  0
 18 22  1  0  0  0  0
 11 15  1  0  0  0  0
 11 16  1  0  0  0  0
 43 47  1  0  0  0  0
 43 48  1  0  0  0  0
 50 55  1  0  0  0  0
  8 14  1  0  0  0  0
 30 35  1  0  0  0  0
 40 46  1  0  0  0  0
 59 61  1  0  0  0  0
 17 19  1  0  0  0  0
  7 13  1  0  0  0  0
 29 34  1  0  0  0  0
 49 54  1  0  0  0  0
 39 45  1  0  0  0  0
M  END
$$$$

  -OEChem-05262214473D

 64 63  0     1  0  0  0  0  0999 V2000
   -2.6980    7.0994    4.7169 C   0  0  0  0  0  0  0  0  0  0  0  0
   -3.9035    6.9036    4.6164 O   0  0  0  0  0  0  0  0  0  0  0  0
   -2.1940    8.4858    4.9453 C   0  0  0  0  0  0  0  0  0  0  0  0
   -1.9901    9.0196    4.0032 H   0  0  0  0  0  0  0  0  0  0  0  0
   -2.9212    9.1140    5.4844 H   0  0  0  0  0  0  0  0  0  0  0  0
   -1.2612    8.5583    5.5271 H   0  0  0  0  0  0  0  0  0  0  0  0
   -1.7032    6.1398    4.6415 N   0  0  0  0  0  0  0  0  0  0  0  0
   -1.9690    4.7398    4.4276 C   0  0  2  0  0  0  0  0  0  0  0  0
   -0.9448    3.9173    5.2067 C   0  0  0  0  0  0  0  0  0  0  0  0
    0.0056    4.4212    5.8020 O   0  0  0  0  0  0  0  0  0  0  0  0
   -2.0330    4.3793    2.9414 C   0  0  0  0  0  0  0  0  0  0  0  0
   -0.4650    4.6488    2.0520 S   0  0  0  0  0  0  0  0  0  0  0  0
   -0.7355    6.4381    4.7421 H   0  0  0  0  0  0  0  0  0  0  0  0
   -2.9528    4.5548    4.8766 H   0  0  0  0  0  0  0  0  0  0  0  0
   -2.3058    3.3268    2.8126 H   0  0  0  0  0  0  0  0  0  0  0  0
   -2.8000    4.9827    2.4438 H   0  0  0  0  0  0  0  0  0  0  0  0
   -1.2031    2.5556    5.1378 N   0  0  0  0  0  0  0  0  0  0  0  0
   -0.3610    1.5697    5.7739 C   0  0  0  0  0  0  0  0  0  0  0  0
   -2.0370    2.2286    4.6590 H   0  0  0  0  0  0  0  0  0  0  0  0
    0.3967    1.2174    5.0585 H   0  0  0  0  0  0  0  0  0  0  0  0
    0.1384    2.0208    6.6441 H   0  0  0  0  0  0  0  0  0  0  0  0
   -0.9765    0.7200    6.1041 H   0  0  0  0  0  0  0  0  0  0  0  0
   -6.7256    2.0330   -0.2766 C   0  0  0  0  0  0  0  0  0  0  0  0
   -7.1824    1.1039   -0.9322 O   0  0  0  0  0  0  0  0  0  0  0  0
   -7.5276    2.6077    0.8435 C   0  0  0  0  0  0  0  0  0  0  0  0
   -8.1775    3.4344    0.5145 H   0  0  0  0  0  0  0  0  0  0  0  0
   -8.2057    1.8676    1.2980 H   0  0  0  0  0  0  0  0  0  0  0  0
   -6.9411    3.0162    1.6819 H   0  0  0  0  0  0  0  0  0  0  0  0
   -5.4935    2.6382   -0.4627 N   0  0  0  0  0  0  0  0  0  0  0  0
   -4.5619    2.2388   -1.4845 C   0  0  2  0  0  0  0  0  0  0  0  0
   -3.1535    2.4674   -0.9521 C   0  0  0  0  0  0  0  0  0  0  0  0
   -2.8634    3.3945   -0.1987 O   0  0  0  0  0  0  0  0  0  0  0  0
   -4.7883    3.0138   -2.7732 C   0  0  0  0  0  0  0  0  0  0  0  0
   -5.2337    3.4049    0.1551 H   0  0  0  0  0  0  0  0  0  0  0  0
   -4.7192    1.1682   -1.6549 H   0  0  0  0  0  0  0  0  0  0  0  0
   -4.6352    4.0886   -2.6221 H   0  0  0  0  0  0  0  0  0  0  0  0
   -4.0976    2.6887   -3.5582 H   0  0  0  0  0  0  0  0  0  0  0  0
   -5.8111    2.8719   -3.1387 H   0  0  0  0  0  0  0  0  0  0  0  0
   -2.2466    1.5400   -1.4507 N   0  0  0  0  0  0  0  0  0  0  0  0
   -0.8424    1.5707   -1.1286 C   0  0  2  0  0  0  0  0  0  0  0  0
   -0.2962    0.1448   -1.1614 C   0  0  0  0  0  0  0  0  0  0  0  0
    0.1518   -0.3773   -2.1803 O   0  0  0  0  0  0  0  0  0  0  0  0
   -0.5627    2.2976    0.1892 C   0  0  0  0  0  0  0  0  0  0  0  0
   -0.9717    4.0594    0.1509 S   0  0  0  0  0  0  0  0  0  0  0  0
   -2.5850    0.7815   -2.0381 H   0  0  0  0  0  0  0  0  0  0  0  0
   -0.3650    2.1270   -1.9448 H   0  0  0  0  0  0  0  0  0  0  0  0
   -1.1351    1.8462    1.0061 H   0  0  0  0  0  0  0  0  0  0  0  0
    0.4993    2.2131    0.4438 H   0  0  0  0  0  0  0  0  0  0  0  0
   -0.3913   -0.4823    0.0728 N   0  0  0  0  0  0  0  0  0  0  0  0
    0.0371   -1.8444    0.2896 C   0  0  2  0  0  0  0  0  0  0  0  0
   -0.8646   -2.4574    1.3529 C   0  0  0  0  0  0  0  0  0  0  0  0
   -1.3288   -1.8132    2.2914 O   0  0  0  0  0  0  0  0  0  0  0  0
    1.4963   -1.9047    0.7138 C   0  0  0  0  0  0  0  0  0  0  0  0
   -0.7355    0.0394    0.8734 H   0  0  0  0  0  0  0  0  0  0  0  0
   -0.1028   -2.3747   -0.6586 H   0  0  0  0  0  0  0  0  0  0  0  0
    1.6560   -1.3786    1.6621 H   0  0  0  0  0  0  0  0  0  0  0  0
    1.8274   -2.9395    0.8501 H   0  0  0  0  0  0  0  0  0  0  0  0
    2.1405   -1.4367   -0.0385 H   0  0  0  0  0  0  0  0  0  0  0  0
   -1.0549   -3.8177    1.1548 N   0  0  0  0  0  0  0  0  0  0  0  0
   -1.8370   -4.6346    2.0533 C   0  0  0  0  0  0  0  0  0  0  0  0
   -0.6657   -4.2616    0.3282 H   0  0  0  0  0  0  0  0  0  0  0  0
   -1.1776   -5.0793    2.8132 H   0  0  0  0  0  0  0  0  0  0  0  0
   -2.5973   -4.0116    2.5470 H   0  0  0  0  0  0  0  0  0  0  0  0
   -2.3321   -5.4350    1.4839 H   0  0  0  0  0  0  0  0  0  0  0  0
  1  3  1  0  0  0  0
  1  7  1  0  0  0  0
  1  2  2  0  0  0  0
 23 25  1  0  0  0  0
 23 29  1  0  0  0  0
 23 24  2  0  0  0  0
 50 51  1  0  0  0  0
 51 59  1  0  0  0  0
 51 52  2  0  0  0  0
  8  9  1  0  0  0  0
  9 17  1  0  0  0  0
  9 10  2  0  0  0  0
 30 31  1  0  0  0  0
 31 39  1  0  0  0  0
 31 32  2  0  0  0  0
 40 41  1  0  0  0  0
 41 49  1  0  0  0  0
 41 42  2  0  0  0  0
 50 53  1  0  0  0  0
 30 33  1  0  0  0  0
 59 60  1  0  0  0  0
 17 18  1  0  0  0  0
  8 11  1  0  0  0  0
 11 12  1  0  0  0  0
 40 43  1  0  0  0  0
 43 44  1  0  0  0  0
 49 50  1  0  0  0  0
  7  8  1  0  0  0  0
 29 30  1  0  0  0  0
 39 40  1  0  0  0  0
 12 44  1  0  0  0  0
  3  4  1  0  0  0  0
  3  5  1  0  0  0  0
  3  6  1  0  0  0  0
 25 26  1  0  0  0  0
 25 27  1  0  0  0  0
 25 28  1  0  0  0  0
 53 56  1  0  0  0  0
 53 57  1  0  0  0  0
 53 58  1  0  0  0  0
 33 36  1  0  0  0  0
 33 37  1  0  0  0  0
 33 38  1  0  0  0  0
 60 62  1  0  0  0  0
 60 63  1  0  0  0  0
 60 64  1  0  0  0  0
 18 20  1  0  0  0  0
 18 21  1  0  0  0  0
 18 22  1  0  0  0  0
 11 15  1  0  0  0  0
 11 16  1  0  0  0  0
 43 47  1  0  0  0  0
 43 48  1  0  0  0  0
 50 55  1  0  0  0  0
  8 14  1  0  0  0  0
 30 35  1  0  0  0  0
 40 46  1  0  0  0  0
 59 61  1  0  0  0  0
 17 19  1  0  0  0  0
  7 13  1  0  0  0  0
 29 34  1  0  0  0  0
 49 54  1  0  0  0  0
 39 45  1  0  0  0  0
M  END
$$$$

  -OEChem-05262214473D

 64 63  0     1  0  0  0  0  0999 V2000
   -2.6980    7.0994    4.7169 C   0  0  0  0  0  0  0  0  0  0  0  0
   -3.9035    6.9036    4.6164 O   0  0  0  0  0  0  0  0  0  0  0  0
   -2.1940    8.4858    4.9453 C   0  0  0  0  0  0  0  0  0  0  0  0
   -1.9901    9.0196    4.0032 H   0  0  0  0  0  0  0  0  0  0  0  0
   -2.9212    9.1140    5.4844 H   0  0  0  0  0  0  0  0  0  0  0  0
   -1.2612    8.5583    5.5271 H   0  0  0  0  0  0  0  0  0  0  0  0
   -1.7032    6.1398    4.6415 N   0  0  0  0  0  0  0  0  0  0  0  0
   -1.9690    4.7398    4.4276 C   0  0  2  0  0  0  0  0  0  0  0  0
   -0.9448    3.9173    5.2067 C   0  0  0  0  0  0  0  0  0  0  0  0
    0.0056    4.4212    5.8020 O   0  0  0  0  0  0  0  0  0  0  0  0
   -2.0330    4.3793    2.9414 C   0  0  0  0  0  0  0  0  0  0  0  0
   -0.4650    4.6488    2.0520 S   0  0  0  0  0  0  0  0  0  0  0  0
   -0.7355    6.4381    4.7421 H   0  0  0  0  0  0  0  0  0  0  0  0
   -2.9528    4.5548    4.8766 H   0  0  0  0  0  0  0  0  0  0  0  0
   -2.3058    3.3268    2.8126 H   0  0  0  0  0  0  0  0  0  0  0  0
   -2.8000    4.9827    2.4438 H   0  0  0  0  0  0  0  0  0  0  0  0
   -1.2031    2.5556    5.1378 N   0  0  0  0  0  0  0  0  0  0  0  0
   -0.3610    1.5697    5.7739 C   0  0  0  0  0  0  0  0  0  0  0  0
   -2.0370    2.2286    4.6590 H   0  0  0  0  0  0  0  0  0  0  0  0
    0.3967    1.2174    5.0585 H   0  0  0  0  0  0  0  0  0  0  0  0
    0.1384    2.0208    6.6441 H   0  0  0  0  0  0  0  0  0  0  0  0
   -0.9765    0.7200    6.1041 H   0  0  0  0  0  0  0  0  0  0  0  0
   -6.7256    2.0330   -0.2766 C   0  0  0  0  0  0  0  0  0  0  0  0
   -7.1824    1.1039   -0.9322 O   0  0  0  0  0  0  0  0  0  0  0  0
   -7.5276    2.6077    0.8435 C   0  0  0  0  0  0  0  0  0  0  0  0
   -8.1775    3.4344    0.5145 H   0  0  0  0  0  0  0  0  0  0  0  0
   -8.2057    1.8676    1.2980 H   0  0  0  0  0  0  0  0  0  0  0  0
   -6.9411    3.0162    1.6819 H   0  0  0  0  0  0  0  0  0  0  0  0
   -5.4935    2.6382   -0.4627 N   0  0  0  0  0  0  0  0  0  0  0  0
   -4.5619    2.2388   -1.4845 C   0  0  2  0  0  0  0  0  0  0  0  0
   -3.1535    2.4674   -0.9521 C   0  0  0  0  0  0  0  0  0  0  0  0
   -2.8634    3.3945   -0.1987 O   0  0  0  0  0  0  0  0  0  0  0  0
   -4.7883    3.0138   -2.7732 C   0  0  0  0  0  0  0  0  0  0  0  0
   -5.2337    3.4049    0.1551 H   0  0  0  0  0  0  0  0  0  0  0  0
   -4.7192    1.1682   -1.6549 H   0  0  0  0  0  0  0  0  0  0  0  0
   -4.6352    4.0886   -2.6221 H   0  0  0  0  0  0  0  0  0  0  0  0
   -4.0976    2.6887   -3.5582 H   0  0  0  0  0  0  0  0  0  0  0  0
   -5.8111    2.8719   -3.1387 H   0  0  0  0  0  0  0  0  0  0  0  0
   -2.2466    1.5400   -1.4507 N   0  0  0  0  0  0  0  0  0  0  0  0
   -0.8424    1.5707   -1.1286 C   0  0  2  0  0  0  0  0  0  0  0  0
   -0.2962    0.1448   -1.1614 C   0  0  0  0  0  0  0  0  0  0  0  0
    0.3880   -0.2891   -2.0861 O   0  0  0  0  0  0  0  0  0  0  0  0
   -0.5627    2.2976    0.1892 C   0  0  0  0  0  0  0  0  0  0  0  0
   -0.9717    4.0594    0.1509 S   0  0  0  0  0  0  0  0  0  0  0  0
   -2.5850    0.7815   -2.0381 H   0  0  0  0  0  0  0  0  0  0  0  0
   -0.3650    2.1270   -1.9448 H   0  0  0  0  0  0  0  0  0  0  0  0
   -1.1351    1.8462    1.0061 H   0  0  0  0  0  0  0  0  0  0  0  0
    0.4993    2.2131    0.4438 H   0  0  0  0  0  0  0  0  0  0  0  0
   -0.6834   -0.5913   -0.0506 N   0  0  0  0  0  0  0  0  0  0  0  0
   -0.3123   -1.9746    0.1352 C   0  0  2  0  0  0  0  0  0  0  0  0
   -1.4409   -2.6673    0.8875 C   0  0  0  0  0  0  0  0  0  0  0  0
   -2.1220   -2.1044    1.7420 O   0  0  0  0  0  0  0  0  0  0  0  0
    1.0013   -2.0984    0.8915 C   0  0  0  0  0  0  0  0  0  0  0  0
   -1.2141   -0.1396    0.6883 H   0  0  0  0  0  0  0  0  0  0  0  0
   -0.2156   -2.4131   -0.8640 H   0  0  0  0  0  0  0  0  0  0  0  0
    0.9238   -1.6644    1.8951 H   0  0  0  0  0  0  0  0  0  0  0  0
    1.2956   -3.1468    1.0066 H   0  0  0  0  0  0  0  0  0  0  0  0
    1.8056   -1.5743    0.3640 H   0  0  0  0  0  0  0  0  0  0  0  0
   -1.5697   -4.0004    0.5233 N   0  0  0  0  0  0  0  0  0  0  0  0
   -2.5411   -4.8829    1.1262 C   0  0  0  0  0  0  0  0  0  0  0  0
   -0.9895   -4.3729   -0.2225 H   0  0  0  0  0  0  0  0  0  0  0  0
   -2.0825   -5.4067    1.9779 H   0  0  0  0  0  0  0  0  0  0  0  0
   -3.4019   -4.2952    1.4777 H   0  0  0  0  0  0  0  0  0  0  0  0
   -2.8791   -5.6191    0.3821 H   0  0  0  0  0  0  0  0  0  0  0  0
  1  3  1  0  0  0  0
  1  7  1  0  0  0  0
  1  2  2  0  0  0  0
 23 25  1  0  0  0  0
 23 29  1  0  0  0  0
 23 24  2  0  0  0  0
 50 51  1  0  0  0  0
 51 59  1  0  0  0  0
 51 52  2  0  0  0  0
  8  9  1  0  0  0  0
  9 17  1  0  0  0  0
  9 10  2  0  0  0  0
 30 31  1  0  0  0  0
 31 39  1  0  0  0  0
 31 32  2  0  0  0  0
 40 41  1  0  0  0  0
 41 49  1  0  0  0  0
 41 42  2  0  0  0  0
 50 53  1  0  0  0  0
 30 33  1  0  0  0  0
 59 60  1  0  0  0  0
 17 18  1  0  0  0  0
  8 11  1  0  0  0  0
 11 12  1  0  0  0  0
 40 43  1  0  0  0  0
 43 44  1  0  0  0  0
 49 50  1  0  0  0  0
  7  8  1  0  0  0  0
 29 30  1  0  0  0  0
 39 40  1  0  0  0  0
 12 44  1  0  0  0  0
  3  4  1  0  0  0  0
  3  5  1  0  0  0  0
  3  6  1  0  0  0  0
 25 26  1  0  0  0  0
 25 27  1  0  0  0  0
 25 28  1  0  0  0  0
 53 56  1  0  0  0  0
 53 57  1  0  0  0  0
 53 58  1  0  0  0  0
 33 36  1  0  0  0  0
 33 37  1  0  0  0  0
 33 38  1  0  0  0  0
 60 62  1  0  0  0  0
 60 63  1  0  0  0  0
 60 64  1  0  0  0  0
 18 20  1  0  0  0  0
 18 21  1  0  0  0  0
 18 22  1  0  0  0  0
 11 15  1  0  0  0  0
 11 16  1  0  0  0  0
 43 47  1  0  0  0  0
 43 48  1  0  0  0  0
 50 55  1  0  0  0  0
  8 14  1  0  0  0  0
 30 35  1  0  0  0  0
 40 46  1  0  0  0  0
 59 61  1  0  0  0  0
 17 19  1  0  0  0  0
  7 13  1  0  0  0  0
 29 34  1  0  0  0  0
 49 54  1  0  0  0  0
 39 45  1  0  0  0  0
M  END
$$$$

  -OEChem-05262214473D

 64 63  0     1  0  0  0  0  0999 V2000
   -2.6980    7.0994    4.7169 C   0  0  0  0  0  0  0  0  0  0  0  0
   -3.9035    6.9036    4.6164 O   0  0  0  0  0  0  0  0  0  0  0  0
   -2.1940    8.4858    4.9453 C   0  0  0  0  0  0  0  0  0  0  0  0
   -1.9901    9.0196    4.0032 H   0  0  0  0  0  0  0  0  0  0  0  0
   -2.9212    9.1140    5.4844 H   0  0  0  0  0  0  0  0  0  0  0  0
   -1.2612    8.5583    5.5271 H   0  0  0  0  0  0  0  0  0  0  0  0
   -1.7032    6.1398    4.6415 N   0  0  0  0  0  0  0  0  0  0  0  0
   -1.9690    4.7398    4.4276 C   0  0  2  0  0  0  0  0  0  0  0  0
   -0.9448    3.9173    5.2067 C   0  0  0  0  0  0  0  0  0  0  0  0
    0.0056    4.4212    5.8020 O   0  0  0  0  0  0  0  0  0  0  0  0
   -2.0330    4.3793    2.9414 C   0  0  0  0  0  0  0  0  0  0  0  0
   -0.4650    4.6488    2.0520 S   0  0  0  0  0  0  0  0  0  0  0  0
   -0.7355    6.4381    4.7421 H   0  0  0  0  0  0  0  0  0  0  0  0
   -2.9528    4.5548    4.8766 H   0  0  0  0  0  0  0  0  0  0  0  0
   -2.3058    3.3268    2.8126 H   0  0  0  0  0  0  0  0  0  0  0  0
   -2.8000    4.9827    2.4438 H   0  0  0  0  0  0  0  0  0  0  0  0
   -1.2031    2.5556    5.1378 N   0  0  0  0  0  0  0  0  0  0  0  0
   -0.3610    1.5697    5.7739 C   0  0  0  0  0  0  0  0  0  0  0  0
   -2.0370    2.2286    4.6590 H   0  0  0  0  0  0  0  0  0  0  0  0
    0.3967    1.2174    5.0585 H   0  0  0  0  0  0  0  0  0  0  0  0
    0.1384    2.0208    6.6441 H   0  0  0  0  0  0  0  0  0  0  0  0
   -0.9765    0.7200    6.1041 H   0  0  0  0  0  0  0  0  0  0  0  0
   -6.7256    2.0330   -0.2766 C   0  0  0  0  0  0  0  0  0  0  0  0
   -7.1824    1.1039   -0.9322 O   0  0  0  0  0  0  0  0  0  0  0  0
   -7.5276    2.6077    0.8435 C   0  0  0  0  0  0  0  0  0  0  0  0
   -8.1775    3.4344    0.5145 H   0  0  0  0  0  0  0  0  0  0  0  0
   -8.2057    1.8676    1.2980 H   0  0  0  0  0  0  0  0  0  0  0  0
   -6.9411    3.0162    1.6819 H   0  0  0  0  0  0  0  0  0  0  0  0
   -5.4935    2.6382   -0.4627 N   0  0  0  0  0  0  0  0  0  0  0  0
   -4.5619    2.2388   -1.4845 C   0  0  2  0  0  0  0  0  0  0  0  0
   -3.1535    2.4674   -0.9521 C   0  0  0  0  0  0  0  0  0  0  0  0
   -2.8634    3.3945   -0.1987 O   0  0  0  0  0  0  0  0  0  0  0  0
   -4.7883    3.0138   -2.7732 C   0  0  0  0  0  0  0  0  0  0  0  0
   -5.2337    3.4049    0.1551 H   0  0  0  0  0  0  0  0  0  0  0  0
   -4.7192    1.1682   -1.6549 H   0  0  0  0  0  0  0  0  0  0  0  0
   -4.6352    4.0886   -2.6221 H   0  0  0  0  0  0  0  0  0  0  0  0
   -4.0976    2.6887   -3.5582 H   0  0  0  0  0  0  0  0  0  0  0  0
   -5.8111    2.8719   -3.1387 H   0  0  0  0  0  0  0  0  0  0  0  0
   -2.2466    1.5400   -1.4507 N   0  0  0  0  0  0  0  0  0  0  0  0
   -0.8424    1.5707   -1.1286 C   0  0  2  0  0  0  0  0  0  0  0  0
   -0.2962    0.1448   -1.1614 C   0  0  0  0  0  0  0  0  0  0  0  0
    0.5939   -0.2138   -1.9299 O   0  0  0  0  0  0  0  0  0  0  0  0
   -0.5627    2.2976    0.1892 C   0  0  0  0  0  0  0  0  0  0  0  0
   -0.9717    4.0594    0.1509 S   0  0  0  0  0  0  0  0  0  0  0  0
   -2.5850    0.7815   -2.0381 H   0  0  0  0  0  0  0  0  0  0  0  0
   -0.3650    2.1270   -1.9448 H   0  0  0  0  0  0  0  0  0  0  0  0
   -1.1351    1.8462    1.0061 H   0  0  0  0  0  0  0  0  0  0  0  0
    0.4993    2.2131    0.4438 H   0  0  0  0  0  0  0  0  0  0  0  0
   -0.9363   -0.6836   -0.2505 N   0  0  0  0  0  0  0  0  0  0  0  0
   -0.6131   -2.0842   -0.1105 C   0  0  2  0  0  0  0  0  0  0  0  0
   -1.8861   -2.8239    0.2792 C   0  0  0  0  0  0  0  0  0  0  0  0
   -2.7570   -2.3303    0.9927 O   0  0  0  0  0  0  0  0  0  0  0  0
    0.4792   -2.2992    0.9256 C   0  0  0  0  0  0  0  0  0  0  0  0
   -1.6326   -0.2928    0.3772 H   0  0  0  0  0  0  0  0  0  0  0  0
   -0.2751   -2.4306   -1.0932 H   0  0  0  0  0  0  0  0  0  0  0  0
    0.1587   -1.9580    1.9168 H   0  0  0  0  0  0  0  0  0  0  0  0
    0.7430   -3.3585    1.0101 H   0  0  0  0  0  0  0  0  0  0  0  0
    1.3841   -1.7425    0.6591 H   0  0  0  0  0  0  0  0  0  0  0  0
   -1.9153   -4.1154   -0.2280 N   0  0  0  0  0  0  0  0  0  0  0  0
   -2.9986   -5.0331    0.0377 C   0  0  0  0  0  0  0  0  0  0  0  0
   -1.1697   -4.4277   -0.8431 H   0  0  0  0  0  0  0  0  0  0  0  0
   -2.7566   -5.6405    0.9222 H   0  0  0  0  0  0  0  0  0  0  0  0
   -3.9222   -4.4656    0.2242 H   0  0  0  0  0  0  0  0  0  0  0  0
   -3.1422   -5.6919   -0.8314 H   0  0  0  0  0  0  0  0  0  0  0  0
  1  3  1  0  0  0  0
  1  7  1  0  0  0  0
  1  2  2  0  0  0  0
 23 25  1  0  0  0  0
 23 29  1  0  0  0  0
 23 24  2  0  0  0  0
 50 51  1  0  0  0  0
 51 59  1  0  0  0  0
 51 52  2  0  0  0  0
  8  9  1  0  0  0  0
  9 17  1  0  0  0  0
  9 10  2  0  0  0  0
 30 31  1  0  0  0  0
 31 39  1  0  0  0  0
 31 32  2  0  0  0  0
 40 41  1  0  0  0  0
 41 49  1  0  0  0  0
 41 42  2  0  0  0  0
 50 53  1  0  0  0  0
 30 33  1  0  0  0  0
 59 60  1  0  0  0  0
 17 18  1  0  0  0  0
  8 11  1  0  0  0  0
 11 12  1  0  0  0  0
 40 43  1  0  0  0  0
 43 44  1  0  0  0  0
 49 50  1  0  0  0  0
  7  8  1  0  0  0  0
 29 30  1  0  0  0  0
 39 40  1  0  0  0  0
 12 44  1  0  0  0  0
  3  4  1  0  0  0  0
  3  5  1  0  0  0  0
  3  6  1  0  0  0  0
 25 26  1  0  0  0  0
 25 27  1  0  0  0  0
 25 28  1  0  0  0  0
 53 56  1  0  0  0  0
 53 57  1  0  0  0  0
 53 58  1  0  0  0  0
 33 36  1  0  0  0  0
 33 37  1  0  0  0  0
 33 38  1  0  0  0  0
 60 62  1  0  0  0  0
 60 63  1  0  0  0  0
 60 64  1  0  0  0  0
 18 20  1  0  0  0  0
 18 21  1  0  0  0  0
 18 22  1  0  0  0  0
 11 15  1  0  0  0  0
 11 16  1  0  0  0  0
 43 47  1  0  0  0  0
 43 48  1  0  0  0  0
 50 55  1  0  0  0  0
  8 14  1  0  0  0  0
 30 35  1  0  0  0  0
 40 46  1  0  0  0  0
 59 61  1  0  0  0  0
 17 19  1  0  0  0  0
  7 13  1  0  0  0  0
 29 34  1  0  0  0  0
 49 54  1  0  0  0  0
 39 45  1  0  0  0  0
M  END
$$$$

  -OEChem-05262214473D

 64 63  0     1  0  0  0  0  0999 V2000
   -2.6980    7.0994    4.7169 C   0  0  0  0  0  0  0  0  0  0  0  0
   -3.9035    6.9036    4.6164 O   0  0  0  0  0  0  0  0  0  0  0  0
   -2.1940    8.4858    4.9453 C   0  0  0  0  0  0  0  0  0  0  0  0
   -1.9901    9.0196    4.0032 H   0  0  0  0  0  0  0  0  0  0  0  0
   -2.9212    9.1140    5.4844 H   0  0  0  0  0  0  0  0  0  0  0  0
   -1.2612    8.5583    5.5271 H   0  0  0  0  0  0  0  0  0  0  0  0
   -1.7032    6.1398    4.6415 N   0  0  0  0  0  0  0  0  0  0  0  0
   -1.9690    4.7398    4.4276 C   0  0  2  0  0  0  0  0  0  0  0  0
   -0.9448    3.9173    5.2067 C   0  0  0  0  0  0  0  0  0  0  0  0
    0.0056    4.4212    5.8020 O   0  0  0  0  0  0  0  0  0  0  0  0
   -2.0330    4.3793    2.9414 C   0  0  0  0  0  0  0  0  0  0  0  0
   -0.4650    4.6488    2.0520 S   0  0  0  0  0  0  0  0  0  0  0  0
   -0.7355    6.4381    4.7421 H   0  0  0  0  0  0  0  0  0  0  0  0
   -2.9528    4.5548    4.8766 H   0  0  0  0  0  0  0  0  0  0  0  0
   -2.3058    3.3268    2.8126 H   0  0  0  0  0  0  0  0  0  0  0  0
   -2.8000    4.9827    2.4438 H   0  0  0  0  0  0  0  0  0  0  0  0
   -1.2031    2.5556    5.1378 N   0  0  0  0  0  0  0  0  0  0  0  0
   -0.3610    1.5697    5.7739 C   0  0  0  0  0  0  0  0  0  0  0  0
   -2.0370    2.2286    4.6590 H   0  0  0  0  0  0  0  0  0  0  0  0
    0.3967    1.2174    5.0585 H   0  0  0  0  0  0  0  0  0  0  0  0
    0.1384    2.0208    6.6441 H   0  0  0  0  0  0  0  0  0  0  0  0
   -0.9765    0.7200    6.1041 H   0  0  0  0  0  0  0  0  0  0  0  0
   -6.7256    2.0330   -0.2766 C   0  0  0  0  0  0  0  0  0  0  0  0
   -7.1824    1.1039   -0.9322 O   0  0  0  0  0  0  0  0  0  0  0  0
   -7.5276    2.6077    0.8435 C   0  0  0  0  0  0  0  0  0  0  0  0
   -8.1775    3.4344    0.5145 H   0  0  0  0  0  0  0  0  0  0  0  0
   -8.2057    1.8676    1.2980 H   0  0  0  0  0  0  0  0  0  0  0  0
   -6.9411    3.0162    1.6819 H   0  0  0  0  0  0  0  0  0  0  0  0
   -5.4935    2.6382   -0.4627 N   0  0  0  0  0  0  0  0  0  0  0  0
   -4.5619    2.2388   -1.4845 C   0  0  2  0  0  0  0  0  0  0  0  0
   -3.1535    2.4674   -0.9521 C   0  0  0  0  0  0  0  0  0  0  0  0
   -2.8634    3.3945   -0.1987 O   0  0  0  0  0  0  0  0  0  0  0  0
   -4.7883    3.0138   -2.7732 C   0  0  0  0  0  0  0  0  0  0  0  0
   -5.2337    3.4049    0.1551 H   0  0  0  0  0  0  0  0  0  0  0  0
   -4.7192    1.1682   -1.6549 H   0  0  0  0  0  0  0  0  0  0  0  0
   -4.6352    4.0886   -2.6221 H   0  0  0  0  0  0  0  0  0  0  0  0
   -4.0976    2.6887   -3.5582 H   0  0  0  0  0  0  0  0  0  0  0  0
   -5.8111    2.8719   -3.1387 H   0  0  0  0  0  0  0  0  0  0  0  0
   -2.2466    1.5400   -1.4507 N   0  0  0  0  0  0  0  0  0  0  0  0
   -0.8424    1.5707   -1.1286 C   0  0  2  0  0  0  0  0  0  0  0  0
   -0.2962    0.1448   -1.1614 C   0  0  0  0  0  0  0  0  0  0  0  0
    0.7554   -0.1567   -1.7223 O   0  0  0  0  0  0  0  0  0  0  0  0
   -0.5627    2.2976    0.1892 C   0  0  0  0  0  0  0  0  0  0  0  0
   -0.9717    4.0594    0.1509 S   0  0  0  0  0  0  0  0  0  0  0  0
   -2.5850    0.7815   -2.0381 H   0  0  0  0  0  0  0  0  0  0  0  0
   -0.3650    2.1270   -1.9448 H   0  0  0  0  0  0  0  0  0  0  0  0
   -1.1351    1.8462    1.0061 H   0  0  0  0  0  0  0  0  0  0  0  0
    0.4993    2.2131    0.4438 H   0  0  0  0  0  0  0  0  0  0  0  0
   -1.1328   -0.7528   -0.5133 N   0  0  0  0  0  0  0  0  0  0  0  0
   -0.8450   -2.1657   -0.4306 C   0  0  2  0  0  0  0  0  0  0  0  0
   -2.1702   -2.9163   -0.4304 C   0  0  0  0  0  0  0  0  0  0  0  0
   -3.1906   -2.4757    0.0945 O   0  0  0  0  0  0  0  0  0  0  0  0
   -0.0346   -2.4933    0.8138 C   0  0  0  0  0  0  0  0  0  0  0  0
   -1.9626   -0.4096   -0.0386 H   0  0  0  0  0  0  0  0  0  0  0  0
   -0.2772   -2.4260   -1.3305 H   0  0  0  0  0  0  0  0  0  0  0  0
   -0.5872   -2.2393    1.7257 H   0  0  0  0  0  0  0  0  0  0  0  0
    0.2072   -3.5603    0.8603 H   0  0  0  0  0  0  0  0  0  0  0  0
    0.9047   -1.9300    0.8267 H   0  0  0  0  0  0  0  0  0  0  0  0
   -2.0683   -4.1551   -1.0478 N   0  0  0  0  0  0  0  0  0  0  0  0
   -3.1783   -5.0748   -1.1382 C   0  0  0  0  0  0  0  0  0  0  0  0
   -1.1943   -4.4221   -1.4911 H   0  0  0  0  0  0  0  0  0  0  0  0
   -3.1540   -5.7650   -0.2821 H   0  0  0  0  0  0  0  0  0  0  0  0
   -4.1229   -4.5113   -1.1281 H   0  0  0  0  0  0  0  0  0  0  0  0
   -3.1036   -5.6485   -2.0738 H   0  0  0  0  0  0  0  0  0  0  0  0
  1  3  1  0  0  0  0
  1  7  1  0  0  0  0
  1  2  2  0  0  0  0
 23 25  1  0  0  0  0
 23 29  1  0  0  0  0
 23 24  2  0  0  0  0
 50 51  1  0  0  0  0
 51 59  1  0  0  0  0
 51 52  2  0  0  0  0
  8  9  1  0  0  0  0
  9 17  1  0  0  0  0
  9 10  2  0  0  0  0
 30 31  1  0  0  0  0
 31 39  1  0  0  0  0
 31 32  2  0  0  0  0
 40 41  1  0  0  0  0
 41 49  1  0  0  0  0
 41 42  2  0  0  0  0
 50 53  1  0  0  0  0
 30 33  1  0  0  0  0
 59 60  1  0  0  0  0
 17 18  1  0  0  0  0
  8 11  1  0  0  0  0
 11 12  1  0  0  0  0
 40 43  1  0  0  0  0
 43 44  1  0  0  0  0
 49 50  1  0  0  0  0
  7  8  1  0  0  0  0
 29 30  1  0  0  0  0
 39 40  1  0  0  0  0
 12 44  1  0  0  0  0
  3  4  1  0  0  0  0
  3  5  1  0  0  0  0
  3  6  1  0  0  0  0
 25 26  1  0  0  0  0
 25 27  1  0  0  0  0
 25 28  1  0  0  0  0
 53 56  1  0  0  0  0
 53 57  1  0  0  0  0
 53 58  1  0  0  0  0
 33 36  1  0  0  0  0
 33 37  1  0  0  0  0
 33 38  1  0  0  0  0
 60 62  1  0  0  0  0
 60 63  1  0  0  0  0
 60 64  1  0  0  0  0
 18 20  1  0  0  0  0
 18 21  1  0  0  0  0
 18 22  1  0  0  0  0
 11 15  1  0  0  0  0
 11 16  1  0  0  0  0
 43 47  1  0  0  0  0
 43 48  1  0  0  0  0
 50 55  1  0  0  0  0
  8 14  1  0  0  0  0
 30 35  1  0  0  0  0
 40 46  1  0  0  0  0
 59 61  1  0  0  0  0
 17 19  1  0  0  0  0
  7 13  1  0  0  0  0
 29 34  1  0  0  0  0
 49 54  1  0  0  0  0
 39 45  1  0  0  0  0
M  END
$$$$

  -OEChem-05262214473D

 64 63  0     1  0  0  0  0  0999 V2000
   -2.6980    7.0994    4.7169 C   0  0  0  0  0  0  0  0  0  0  0  0
   -3.9035    6.9036    4.6164 O   0  0  0  0  0  0  0  0  0  0  0  0
   -2.1940    8.4858    4.9453 C   0  0  0  0  0  0  0  0  0  0  0  0
   -1.9901    9.0196    4.0032 H   0  0  0  0  0  0  0  0  0  0  0  0
   -2.9212    9.1140    5.4844 H   0  0  0  0  0  0  0  0  0  0  0  0
   -1.2612    8.5583    5.5271 H   0  0  0  0  0  0  0  0  0  0  0  0
   -1.7032    6.1398    4.6415 N   0  0  0  0  0  0  0  0  0  0  0  0
   -1.9690    4.7398    4.4276 C   0  0  2  0  0  0  0  0  0  0  0  0
   -0.9448    3.9173    5.2067 C   0  0  0  0  0  0  0  0  0  0  0  0
    0.0056    4.4212    5.8020 O   0  0  0  0  0  0  0  0  0  0  0  0
   -2.0330    4.3793    2.9414 C   0  0  0  0  0  0  0  0  0  0  0  0
   -0.4650    4.6488    2.0520 S   0  0  0  0  0  0  0  0  0  0  0  0
   -0.7355    6.4381    4.7421 H   0  0  0  0  0  0  0  0  0  0  0  0
   -2.9528    4.5548    4.8766 H   0  0  0  0  0  0  0  0  0  0  0  0
   -2.3058    3.3268    2.8126 H   0  0  0  0  0  0  0  0  0  0  0  0
   -2.8000    4.9827    2.4438 H   0  0  0  0  0  0  0  0  0  0  0  0
   -1.2031    2.5556    5.1378 N   0  0  0  0  0  0  0  0  0  0  0  0
   -0.3610    1.5697    5.7739 C   0  0  0  0  0  0  0  0  0  0  0  0
   -2.0370    2.2286    4.6590 H   0  0  0  0  0  0  0  0  0  0  0  0
    0.3967    1.2174    5.0585 H   0  0  0  0  0  0  0  0  0  0  0  0
    0.1384    2.0208    6.6441 H   0  0  0  0  0  0  0  0  0  0  0  0
   -0.9765    0.7200    6.1041 H   0  0  0  0  0  0  0  0  0  0  0  0
   -6.7256    2.0330   -0.2766 C   0  0  0  0  0  0  0  0  0  0  0  0
   -7.1824    1.1039   -0.9322 O   0  0  0  0  0  0  0  0  0  0  0  0
   -7.5276    2.6077    0.8435 C   0  0  0  0  0  0  0  0  0  0  0  0
   -8.1775    3.4344    0.5145 H   0  0  0  0  0  0  0  0  0  0  0  0
   -8.2057    1.8676    1.2980 H   0  0  0  0  0  0  0  0  0  0  0  0
   -6.9411    3.0162    1.6819 H   0  0  0  0  0  0  0  0  0  0  0  0
   -5.4935    2.6382   -0.4627 N   0  0  0  0  0  0  0  0  0  0  0  0
   -4.5619    2.2388   -1.4845 C   0  0  2  0  0  0  0  0  0  0  0  0
   -3.1535    2.4674   -0.9521 C   0  0  0  0  0  0  0  0  0  0  0  0
   -2.8634    3.3945   -0.1987 O   0  0  0  0  0  0  0  0  0  0  0  0
   -4.7883    3.0138   -2.7732 C   0  0  0  0  0  0  0  0  0  0  0  0
   -5.2337    3.4049    0.1551 H   0  0  0  0  0  0  0  0  0  0  0  0
   -4.7192    1.1682   -1.6549 H   0  0  0  0  0  0  0  0  0  0  0  0
   -4.6352    4.0886   -2.6221 H   0  0  0  0  0  0  0  0  0  0  0  0
   -4.0976    2.6887   -3.5582 H   0  0  0  0  0  0  0  0  0  0  0  0
   -5.8111    2.8719   -3.1387 H   0  0  0  0  0  0  0  0  0  0  0  0
   -2.2466    1.5400   -1.4507 N   0  0  0  0  0  0  0  0  0  0  0  0
   -0.8424    1.5707   -1.1286 C   0  0  2  0  0  0  0  0  0  0  0  0
   -0.2962    0.1448   -1.1614 C   0  0  0  0  0  0  0  0  0  0  0  0
    0.8616   -0.1217   -1.4775 O   0  0  0  0  0  0  0  0  0  0  0  0
   -0.5627    2.2976    0.1892 C   0  0  0  0  0  0  0  0  0  0  0  0
   -0.9717    4.0594    0.1509 S   0  0  0  0  0  0  0  0  0  0  0  0
   -2.5850    0.7815   -2.0381 H   0  0  0  0  0  0  0  0  0  0  0  0
   -0.3650    2.1270   -1.9448 H   0  0  0  0  0  0  0  0  0  0  0  0
   -1.1351    1.8462    1.0061 H   0  0  0  0  0  0  0  0  0  0  0  0
    0.4993    2.2131    0.4438 H   0  0  0  0  0  0  0  0  0  0  0  0
   -1.2595   -0.7943   -0.8210 N   0  0  0  0  0  0  0  0  0  0  0  0
   -0.9921   -2.2134   -0.8034 C   0  0  2  0  0  0  0  0  0  0  0  0
   -2.2735   -2.9383   -1.1931 C   0  0  0  0  0  0  0  0  0  0  0  0
   -3.3932   -2.5306   -0.8912 O   0  0  0  0  0  0  0  0  0  0  0  0
   -0.5048   -2.6677    0.5637 C   0  0  0  0  0  0  0  0  0  0  0  0
   -2.1814   -0.4821   -0.5307 H   0  0  0  0  0  0  0  0  0  0  0  0
   -0.2220   -2.3995   -1.5599 H   0  0  0  0  0  0  0  0  0  0  0  0
   -1.2631   -2.4892    1.3348 H   0  0  0  0  0  0  0  0  0  0  0  0
   -0.2753   -3.7384    0.5675 H   0  0  0  0  0  0  0  0  0  0  0  0
    0.4002   -2.1239    0.8554 H   0  0  0  0  0  0  0  0  0  0  0  0
   -2.0181   -4.1167   -1.8803 N   0  0  0  0  0  0  0  0  0  0  0  0
   -3.0679   -5.0052   -2.3214 C   0  0  0  0  0  0  0  0  0  0  0  0
   -1.0613   -4.3566   -2.1225 H   0  0  0  0  0  0  0  0  0  0  0  0
   -3.2474   -5.7715   -1.5528 H   0  0  0  0  0  0  0  0  0  0  0  0
   -3.9902   -4.4291   -2.4870 H   0  0  0  0  0  0  0  0  0  0  0  0
   -2.7659   -5.4918   -3.2605 H   0  0  0  0  0  0  0  0  0  0  0  0
  1  3  1  0  0  0  0
  1  7  1  0  0  0  0
  1  2  2  0  0  0  0
 23 25  1  0  0  0  0
 23 29  1  0  0  0  0
 23 24  2  0  0  0  0
 50 51  1  0  0  0  0
 51 59  1  0  0  0  0
 51 52  2  0  0  0  0
  8  9  1  0  0  0  0
  9 17  1  0  0  0  0
  9 10  2  0  0  0  0
 30 31  1  0  0  0  0
 31 39  1  0  0  0  0
 31 32  2  0  0  0  0
 40 41  1  0  0  0  0
 41 49  1  0  0  0  0
 41 42  2  0  0  0  0
 50 53  1  0  0  0  0
 30 33  1  0  0  0  0
 59 60  1  0  0  0  0
 17 18  1  0  0  0  0
  8 11  1  0  0  0  0
 11 12  1  0  0  0  0
 40 43  1  0  0  0  0
 43 44  1  0  0  0  0
 49 50  1  0  0  0  0
  7  8  1  0  0  0  0
 29 30  1  0  0  0  0
 39 40  1  0  0  0  0
 12 44  1  0  0  0  0
  3  4  1  0  0  0  0
  3  5  1  0  0  0  0
  3  6  1  0  0  0  0
 25 26  1  0  0  0  0
 25 27  1  0  0  0  0
 25 28  1  0  0  0  0
 53 56  1  0  0  0  0
 53 57  1  0  0  0  0
 53 58  1  0  0  0  0
 33 36  1  0  0  0  0
 33 37  1  0  0  0  0
 33 38  1  0  0  0  0
 60 62  1  0  0  0  0
 60 63  1  0  0  0  0
 60 64  1  0  0  0  0
 18 20  1  0  0  0  0
 18 21  1  0  0  0  0
 18 22  1  0  0  0  0
 11 15  1  0  0  0  0
 11 16  1  0  0  0  0
 43 47  1  0  0  0  0
 43 48  1  0  0  0  0
 50 55  1  0  0  0  0
  8 14  1  0  0  0  0
 30 35  1  0  0  0  0
 40 46  1  0  0  0  0
 59 61  1  0  0  0  0
 17 19  1  0  0  0  0
  7 13  1  0  0  0  0
 29 34  1  0  0  0  0
 49 54  1  0  0  0  0
 39 45  1  0  0  0  0
M  END
$$$$

  -OEChem-05262214473D

 64 63  0     1  0  0  0  0  0999 V2000
   -2.6980    7.0994    4.7169 C   0  0  0  0  0  0  0  0  0  0  0  0
   -3.9035    6.9036    4.6164 O   0  0  0  0  0  0  0  0  0  0  0  0
   -2.1940    8.4858    4.9453 C   0  0  0  0  0  0  0  0  0  0  0  0
   -1.9901    9.0196    4.0032 H   0  0  0  0  0  0  0  0  0  0  0  0
   -2.9212    9.1140    5.4844 H   0  0  0  0  0  0  0  0  0  0  0  0
   -1.2612    8.5583    5.5271 H   0  0  0  0  0  0  0  0  0  0  0  0
   -1.7032    6.1398    4.6415 N   0  0  0  0  0  0  0  0  0  0  0  0
   -1.9690    4.7398    4.4276 C   0  0  2  0  0  0  0  0  0  0  0  0
   -0.9448    3.9173    5.2067 C   0  0  0  0  0  0  0  0  0  0  0  0
    0.0056    4.4212    5.8020 O   0  0  0  0  0  0  0  0  0  0  0  0
   -2.0330    4.3793    2.9414 C   0  0  0  0  0  0  0  0  0  0  0  0
   -0.4650    4.6488    2.0520 S   0  0  0  0  0  0  0  0  0  0  0  0
   -0.7355    6.4381    4.7421 H   0  0  0  0  0  0  0  0  0  0  0  0
   -2.9528    4.5548    4.8766 H   0  0  0  0  0  0  0  0  0  0  0  0
   -2.3058    3.3268    2.8126 H   0  0  0  0  0  0  0  0  0  0  0  0
   -2.8000    4.9827    2.4438 H   0  0  0  0  0  0  0  0  0  0  0  0
   -1.2031    2.5556    5.1378 N   0  0  0  0  0  0  0  0  0  0  0  0
   -0.3610    1.5697    5.7739 C   0  0  0  0  0  0  0  0  0  0  0  0
   -2.0370    2.2286    4.6590 H   0  0  0  0  0  0  0  0  0  0  0  0
    0.3967    1.2174    5.0585 H   0  0  0  0  0  0  0  0  0  0  0  0
    0.1384    2.0208    6.6441 H   0  0  0  0  0  0  0  0  0  0  0  0
   -0.9765    0.7200    6.1041 H   0  0  0  0  0  0  0  0  0  0  0  0
   -6.7256    2.0330   -0.2766 C   0  0  0  0  0  0  0  0  0  0  0  0
   -7.1824    1.1039   -0.9322 O   0  0  0  0  0  0  0  0  0  0  0  0
   -7.5276    2.6077    0.8435 C   0  0  0  0  0  0  0  0  0  0  0  0
   -8.1775    3.4344    0.5145 H   0  0  0  0  0  0  0  0  0  0  0  0
   -8.2057    1.8676    1.2980 H   0  0  0  0  0  0  0  0  0  0  0  0
   -6.9411    3.0162    1.6819 H   0  0  0  0  0  0  0  0  0  0  0  0
   -5.4935    2.6382   -0.4627 N   0  0  0  0  0  0  0  0  0  0  0  0
   -4.5619    2.2388   -1.4845 C   0  0  2  0  0  0  0  0  0  0  0  0
   -3.1535    2.4674   -0.9521 C   0  0  0  0  0  0  0  0  0  0  0  0
   -2.8634    3.3945   -0.1987 O   0  0  0  0  0  0  0  0  0  0  0  0
   -4.7883    3.0138   -2.7732 C   0  0  0  0  0  0  0  0  0  0  0  0
   -5.2337    3.4049    0.1551 H   0  0  0  0  0  0  0  0  0  0  0  0
   -4.7192    1.1682   -1.6549 H   0  0  0  0  0  0  0  0  0  0  0  0
   -4.6352    4.0886   -2.6221 H   0  0  0  0  0  0  0  0  0  0  0  0
   -4.0976    2.6887   -3.5582 H   0  0  0  0  0  0  0  0  0  0  0  0
   -5.8111    2.8719   -3.1387 H   0  0  0  0  0  0  0  0  0  0  0  0
   -2.2466    1.5400   -1.4507 N   0  0  0  0  0  0  0  0  0  0  0  0
   -0.8424    1.5707   -1.1286 C   0  0  2  0  0  0  0  0  0  0  0  0
   -0.2962    0.1448   -1.1614 C   0  0  0  0  0  0  0  0  0  0  0  0
    0.9052   -0.1111   -1.2121 O   0  0  0  0  0  0  0  0  0  0  0  0
   -0.5627    2.2976    0.1892 C   0  0  0  0  0  0  0  0  0  0  0  0
   -0.9717    4.0594    0.1509 S   0  0  0  0  0  0  0  0  0  0  0  0
   -2.5850    0.7815   -2.0381 H   0  0  0  0  0  0  0  0  0  0  0  0
   -0.3650    2.1270   -1.9448 H   0  0  0  0  0  0  0  0  0  0  0  0
   -1.1351    1.8462    1.0061 H   0  0  0  0  0  0  0  0  0  0  0  0
    0.4993    2.2131    0.4438 H   0  0  0  0  0  0  0  0  0  0  0  0
   -1.3078   -0.8051   -1.1527 N   0  0  0  0  0  0  0  0  0  0  0  0
   -1.0443   -2.2242   -1.2034 C   0  0  2  0  0  0  0  0  0  0  0  0
   -2.1892   -2.8884   -1.9568 C   0  0  0  0  0  0  0  0  0  0  0  0
   -3.3510   -2.4912   -1.8974 O   0  0  0  0  0  0  0  0  0  0  0  0
   -0.8996   -2.8104    0.1924 C   0  0  0  0  0  0  0  0  0  0  0  0
   -2.2744   -0.5053   -1.0657 H   0  0  0  0  0  0  0  0  0  0  0  0
   -0.1130   -2.3531   -1.7656 H   0  0  0  0  0  0  0  0  0  0  0  0
   -1.8230   -2.6906    0.7708 H   0  0  0  0  0  0  0  0  0  0  0  0
   -0.6716   -3.8806    0.1516 H   0  0  0  0  0  0  0  0  0  0  0  0
   -0.0952   -2.3111    0.7433 H   0  0  0  0  0  0  0  0  0  0  0  0
   -1.7683   -4.0029   -2.6688 N   0  0  0  0  0  0  0  0  0  0  0  0
   -2.6751   -4.8292   -3.4311 C   0  0  0  0  0  0  0  0  0  0  0  0
   -0.7800   -4.2357   -2.6941 H   0  0  0  0  0  0  0  0  0  0  0  0
   -3.0307   -5.6596   -2.8035 H   0  0  0  0  0  0  0  0  0  0  0  0
   -3.5332   -4.2247   -3.7600 H   0  0  0  0  0  0  0  0  0  0  0  0
   -2.1520   -5.2324   -4.3107 H   0  0  0  0  0  0  0  0  0  0  0  0
  1  3  1  0  0  0  0
  1  7  1  0  0  0  0
  1  2  2  0  0  0  0
 23 25  1  0  0  0  0
 23 29  1  0  0  0  0
 23 24  2  0  0  0  0
 50 51  1  0  0  0  0
 51 59  1  0  0  0  0
 51 52  2  0  0  0  0
  8  9  1  0  0  0  0
  9 17  1  0  0  0  0
  9 10  2  0  0  0  0
 30 31  1  0  0  0  0
 31 39  1  0  0  0  0
 31 32  2  0  0  0  0
 40 41  1  0  0  0  0
 41 49  1  0  0  0  0
 41 42  2  0  0  0  0
 50 53  1  0  0  0  0
 30 33  1  0  0  0  0
 59 60  1  0  0  0  0
 17 18  1  0  0  0  0
  8 11  1  0  0  0  0
 11 12  1  0  0  0  0
 40 43  1  0  0  0  0
 43 44  1  0  0  0  0
 49 50  1  0  0  0  0
  7  8  1  0  0  0  0
 29 30  1  0  0  0  0
 39 40  1  0  0  0  0
 12 44  1  0  0  0  0
  3  4  1  0  0  0  0
  3  5  1  0  0  0  0
  3  6  1  0  0  0  0
 25 26  1  0  0  0  0
 25 27  1  0  0  0  0
 25 28  1  0  0  0  0
 53 56  1  0  0  0  0
 53 57  1  0  0  0  0
 53 58  1  0  0  0  0
 33 36  1  0  0  0  0
 33 37  1  0  0  0  0
 33 38  1  0  0  0  0
 60 62  1  0  0  0  0
 60 63  1  0  0  0  0
 60 64  1  0  0  0  0
 18 20  1  0  0  0  0
 18 21  1  0  0  0  0
 18 22  1  0  0  0  0
 11 15  1  0  0  0  0
 11 16  1  0  0  0  0
 43 47  1  0  0  0  0
 43 48  1  0  0  0  0
 50 55  1  0  0  0  0
  8 14  1  0  0  0  0
 30 35  1  0  0  0  0
 40 46  1  0  0  0  0
 59 61  1  0  0  0  0
 17 19  1  0  0  0  0
  7 13  1  0  0  0  0
 29 34  1  0  0  0  0
 49 54  1  0  0  0  0
 39 45  1  0  0  0  0
M  END
$$$$

  -OEChem-05262214473D

 64 63  0     1  0  0  0  0  0999 V2000
   -2.6980    7.0994    4.7169 C   0  0  0  0  0  0  0  0  0  0  0  0
   -3.9035    6.9036    4.6164 O   0  0  0  0  0  0  0  0  0  0  0  0
   -2.1940    8.4858    4.9453 C   0  0  0  0  0  0  0  0  0  0  0  0
   -1.9901    9.0196    4.0032 H   0  0  0  0  0  0  0  0  0  0  0  0
   -2.9212    9.1140    5.4844 H   0  0  0  0  0  0  0  0  0  0  0  0
   -1.2612    8.5583    5.5271 H   0  0  0  0  0  0  0  0  0  0  0  0
   -1.7032    6.1398    4.6415 N   0  0  0  0  0  0  0  0  0  0  0  0
   -1.9690    4.7398    4.4276 C   0  0  2  0  0  0  0  0  0  0  0  0
   -0.9448    3.9173    5.2067 C   0  0  0  0  0  0  0  0  0  0  0  0
    0.0056    4.4212    5.8020 O   0  0  0  0  0  0  0  0  0  0  0  0
   -2.0330    4.3793    2.9414 C   0  0  0  0  0  0  0  0  0  0  0  0
   -0.4650    4.6488    2.0520 S   0  0  0  0  0  0  0  0  0  0  0  0
   -0.7355    6.4381    4.7421 H   0  0  0  0  0  0  0  0  0  0  0  0
   -2.9528    4.5548    4.8766 H   0  0  0  0  0  0  0  0  0  0  0  0
   -2.3058    3.3268    2.8126 H   0  0  0  0  0  0  0  0  0  0  0  0
   -2.8000    4.9827    2.4438 H   0  0  0  0  0  0  0  0  0  0  0  0
   -1.2031    2.5556    5.1378 N   0  0  0  0  0  0  0  0  0  0  0  0
   -0.3610    1.5697    5.7739 C   0  0  0  0  0  0  0  0  0  0  0  0
   -2.0370    2.2286    4.6590 H   0  0  0  0  0  0  0  0  0  0  0  0
    0.3967    1.2174    5.0585 H   0  0  0  0  0  0  0  0  0  0  0  0
    0.1384    2.0208    6.6441 H   0  0  0  0  0  0  0  0  0  0  0  0
   -0.9765    0.7200    6.1041 H   0  0  0  0  0  0  0  0  0  0  0  0
   -6.7256    2.0330   -0.2766 C   0  0  0  0  0  0  0  0  0  0  0  0
   -7.1824    1.1039   -0.9322 O   0  0  0  0  0  0  0  0  0  0  0  0
   -7.5276    2.6077    0.8435 C   0  0  0  0  0  0  0  0  0  0  0  0
   -8.1775    3.4344    0.5145 H   0  0  0  0  0  0  0  0  0  0  0  0
   -8.2057    1.8676    1.2980 H   0  0  0  0  0  0  0  0  0  0  0  0
   -6.9411    3.0162    1.6819 H   0  0  0  0  0  0  0  0  0  0  0  0
   -5.4935    2.6382   -0.4627 N   0  0  0  0  0  0  0  0  0  0  0  0
   -4.5619    2.2388   -1.4845 C   0  0  2  0  0  0  0  0  0  0  0  0
   -3.1535    2.4674   -0.9521 C   0  0  0  0  0  0  0  0  0  0  0  0
   -2.8634    3.3945   -0.1987 O   0  0  0  0  0  0  0  0  0  0  0  0
   -4.7883    3.0138   -2.7732 C   0  0  0  0  0  0  0  0  0  0  0  0
   -5.2337    3.4049    0.1551 H   0  0  0  0  0  0  0  0  0  0  0  0
   -4.7192    1.1682   -1.6549 H   0  0  0  0  0  0  0  0  0  0  0  0
   -4.6352    4.0886   -2.6221 H   0  0  0  0  0  0  0  0  0  0  0  0
   -4.0976    2.6887   -3.5582 H   0  0  0  0  0  0  0  0  0  0  0  0
   -5.8111    2.8719   -3.1387 H   0  0  0  0  0  0  0  0  0  0  0  0
   -2.2466    1.5400   -1.4507 N   0  0  0  0  0  0  0  0  0  0  0  0
   -0.8424    1.5707   -1.1286 C   0  0  2  0  0  0  0  0  0  0  0  0
   -0.2962    0.1448   -1.1614 C   0  0  0  0  0  0  0  0  0  0  0  0
    0.8832   -0.1257   -0.9442 O   0  0  0  0  0  0  0  0  0  0  0  0
   -0.5627    2.2976    0.1892 C   0  0  0  0  0  0  0  0  0  0  0  0
   -0.9717    4.0594    0.1509 S   0  0  0  0  0  0  0  0  0  0  0  0
   -2.5850    0.7815   -2.0381 H   0  0  0  0  0  0  0  0  0  0  0  0
   -0.3650    2.1270   -1.9448 H   0  0  0  0  0  0  0  0  0  0  0  0
   -1.1351    1.8462    1.0061 H   0  0  0  0  0  0  0  0  0  0  0  0
    0.4993    2.2131    0.4438 H   0  0  0  0  0  0  0  0  0  0  0  0
   -1.2743   -0.7846   -1.4857 N   0  0  0  0  0  0  0  0  0  0  0  0
   -0.9982   -2.1973   -1.6034 C   0  0  2  0  0  0  0  0  0  0  0  0
   -1.9230   -2.7700   -2.6694 C   0  0  0  0  0  0  0  0  0  0  0  0
   -3.0669   -2.3603   -2.8555 O   0  0  0  0  0  0  0  0  0  0  0  0
   -1.1920   -2.9116   -0.2749 C   0  0  0  0  0  0  0  0  0  0  0  0
   -2.2350   -0.4778   -1.6071 H   0  0  0  0  0  0  0  0  0  0  0  0
    0.0422   -2.2897   -1.9337 H   0  0  0  0  0  0  0  0  0  0  0  0
   -2.2285   -2.8299    0.0721 H   0  0  0  0  0  0  0  0  0  0  0  0
   -0.9547   -3.9773   -0.3591 H   0  0  0  0  0  0  0  0  0  0  0  0
   -0.5477   -2.4788    0.4979 H   0  0  0  0  0  0  0  0  0  0  0  0
   -1.3359   -3.8213   -3.3596 N   0  0  0  0  0  0  0  0  0  0  0  0
   -2.0265   -4.5586   -4.3918 C   0  0  0  0  0  0  0  0  0  0  0  0
   -0.3694   -4.0675   -3.1671 H   0  0  0  0  0  0  0  0  0  0  0  0
   -2.5185   -5.4370   -3.9488 H   0  0  0  0  0  0  0  0  0  0  0  0
   -2.7831   -3.9120   -4.8603 H   0  0  0  0  0  0  0  0  0  0  0  0
   -1.3038   -4.8881   -5.1528 H   0  0  0  0  0  0  0  0  0  0  0  0
  1  3  1  0  0  0  0
  1  7  1  0  0  0  0
  1  2  2  0  0  0  0
 23 25  1  0  0  0  0
 23 29  1  0  0  0  0
 23 24  2  0  0  0  0
 50 51  1  0  0  0  0
 51 59  1  0  0  0  0
 51 52  2  0  0  0  0
  8  9  1  0  0  0  0
  9 17  1  0  0  0  0
  9 10  2  0  0  0  0
 30 31  1  0  0  0  0
 31 39  1  0  0  0  0
 31 32  2  0  0  0  0
 40 41  1  0  0  0  0
 41 49  1  0  0  0  0
 41 42  2  0  0  0  0
 50 53  1  0  0  0  0
 30 33  1  0  0  0  0
 59 60  1  0  0  0  0
 17 18  1  0  0  0  0
  8 11  1  0  0  0  0
 11 12  1  0  0  0  0
 40 43  1  0  0  0  0
 43 44  1  0  0  0  0
 49 50  1  0  0  0  0
  7  8  1  0  0  0  0
 29 30  1  0  0  0  0
 39 40  1  0  0  0  0
 12 44  1  0  0  0  0
  3  4  1  0  0  0  0
  3  5  1  0  0  0  0
  3  6  1  0  0  0  0
 25 26  1  0  0  0  0
 25 27  1  0  0  0  0
 25 28  1  0  0  0  0
 53 56  1  0  0  0  0
 53 57  1  0  0  0  0
 53 58  1  0  0  0  0
 33 36  1  0  0  0  0
 33 37  1  0  0  0  0
 33 38  1  0  0  0  0
 60 62  1  0  0  0  0
 60 63  1  0  0  0  0
 60 64  1  0  0  0  0
 18 20  1  0  0  0  0
 18 21  1  0  0  0  0
 18 22  1  0  0  0  0
 11 15  1  0  0  0  0
 11 16  1  0  0  0  0
 43 47  1  0  0  0  0
 43 48  1  0  0  0  0
 50 55  1  0  0  0  0
  8 14  1  0  0  0  0
 30 35  1  0  0  0  0
 40 46  1  0  0  0  0
 59 61  1  0  0  0  0
 17 19  1  0  0  0  0
  7 13  1  0  0  0  0
 29 34  1  0  0  0  0
 49 54  1  0  0  0  0
 39 45  1  0  0  0  0
M  END
$$$$

  -OEChem-05262214473D

 64 63  0     1  0  0  0  0  0999 V2000
   -2.6980    7.0994    4.7169 C   0  0  0  0  0  0  0  0  0  0  0  0
   -3.9035    6.9036    4.6164 O   0  0  0  0  0  0  0  0  0  0  0  0
   -2.1940    8.4858    4.9453 C   0  0  0  0  0  0  0  0  0  0  0  0
   -1.9901    9.0196    4.0032 H   0  0  0  0  0  0  0  0  0  0  0  0
   -2.9212    9.1140    5.4844 H   0  0  0  0  0  0  0  0  0  0  0  0
   -1.2612    8.5583    5.5271 H   0  0  0  0  0  0  0  0  0  0  0  0
   -1.7032    6.1398    4.6415 N   0  0  0  0  0  0  0  0  0  0  0  0
   -1.9690    4.7398    4.4276 C   0  0  2  0  0  0  0  0  0  0  0  0
   -0.9448    3.9173    5.2067 C   0  0  0  0  0  0  0  0  0  0  0  0
    0.0056    4.4212    5.8020 O   0  0  0  0  0  0  0  0  0  0  0  0
   -2.0330    4.3793    2.9414 C   0  0  0  0  0  0  0  0  0  0  0  0
   -0.4650    4.6488    2.0520 S   0  0  0  0  0  0  0  0  0  0  0  0
   -0.7355    6.4381    4.7421 H   0  0  0  0  0  0  0  0  0  0  0  0
   -2.9528    4.5548    4.8766 H   0  0  0  0  0  0  0  0  0  0  0  0
   -2.3058    3.3268    2.8126 H   0  0  0  0  0  0  0  0  0  0  0  0
   -2.8000    4.9827    2.4438 H   0  0  0  0  0  0  0  0  0  0  0  0
   -1.2031    2.5556    5.1378 N   0  0  0  0  0  0  0  0  0  0  0  0
   -0.3610    1.5697    5.7739 C   0  0  0  0  0  0  0  0  0  0  0  0
   -2.0370    2.2286    4.6590 H   0  0  0  0  0  0  0  0  0  0  0  0
    0.3967    1.2174    5.0585 H   0  0  0  0  0  0  0  0  0  0  0  0
    0.1384    2.0208    6.6441 H   0  0  0  0  0  0  0  0  0  0  0  0
   -0.9765    0.7200    6.1041 H   0  0  0  0  0  0  0  0  0  0  0  0
   -6.7256    2.0330   -0.2766 C   0  0  0  0  0  0  0  0  0  0  0  0
   -7.1824    1.1039   -0.9322 O   0  0  0  0  0  0  0  0  0  0  0  0
   -7.5276    2.6077    0.8435 C   0  0  0  0  0  0  0  0  0  0  0  0
   -8.1775    3.4344    0.5145 H   0  0  0  0  0  0  0  0  0  0  0  0
   -8.2057    1.8676    1.2980 H   0  0  0  0  0  0  0  0  0  0  0  0
   -6.9411    3.0162    1.6819 H   0  0  0  0  0  0  0  0  0  0  0  0
   -5.4935    2.6382   -0.4627 N   0  0  0  0  0  0  0  0  0  0  0  0
   -4.5619    2.2388   -1.4845 C   0  0  2  0  0  0  0  0  0  0  0  0
   -3.1535    2.4674   -0.9521 C   0  0  0  0  0  0  0  0  0  0  0  0
   -2.8634    3.3945   -0.1987 O   0  0  0  0  0  0  0  0  0  0  0  0
   -4.7883    3.0138   -2.7732 C   0  0  0  0  0  0  0  0  0  0  0  0
   -5.2337    3.4049    0.1551 H   0  0  0  0  0  0  0  0  0  0  0  0
   -4.7192    1.1682   -1.6549 H   0  0  0  0  0  0  0  0  0  0  0  0
   -4.6352    4.0886   -2.6221 H   0  0  0  0  0  0  0  0  0  0  0  0
   -4.0976    2.6887   -3.5582 H   0  0  0  0  0  0  0  0  0  0  0  0
   -5.8111    2.8719   -3.1387 H   0  0  0  0  0  0  0  0  0  0  0  0
   -2.2466    1.5400   -1.4507 N   0  0  0  0  0  0  0  0  0  0  0  0
   -0.8424    1.5707   -1.1286 C   0  0  2  0  0  0  0  0  0  0  0  0
   -0.2962    0.1448   -1.1614 C   0  0  0  0  0  0  0  0  0  0  0  0
    0.7972   -0.1644   -0.6922 O   0  0  0  0  0  0  0  0  0  0  0  0
   -0.5627    2.2976    0.1892 C   0  0  0  0  0  0  0  0  0  0  0  0
   -0.9717    4.0594    0.1509 S   0  0  0  0  0  0  0  0  0  0  0  0
   -2.5850    0.7815   -2.0381 H   0  0  0  0  0  0  0  0  0  0  0  0
   -0.3650    2.1270   -1.9448 H   0  0  0  0  0  0  0  0  0  0  0  0
   -1.1351    1.8462    1.0061 H   0  0  0  0  0  0  0  0  0  0  0  0
    0.4993    2.2131    0.4438 H   0  0  0  0  0  0  0  0  0  0  0  0
   -1.1614   -0.7342   -1.7974 N   0  0  0  0  0  0  0  0  0  0  0  0
   -0.8568   -2.1345   -1.9762 C   0  0  2  0  0  0  0  0  0  0  0  0
   -1.4929   -2.5912   -3.2825 C   0  0  0  0  0  0  0  0  0  0  0  0
   -2.5602   -2.1468   -3.7002 O   0  0  0  0  0  0  0  0  0  0  0  0
   -1.3621   -2.9645   -0.8063 C   0  0  0  0  0  0  0  0  0  0  0  0
   -2.0659   -0.4012   -2.1179 H   0  0  0  0  0  0  0  0  0  0  0  0
    0.2331   -2.2139   -2.0527 H   0  0  0  0  0  0  0  0  0  0  0  0
   -2.4522   -2.8974   -0.7137 H   0  0  0  0  0  0  0  0  0  0  0  0
   -1.1053   -4.0218   -0.9297 H   0  0  0  0  0  0  0  0  0  0  0  0
   -0.9264   -2.6155    0.1361 H   0  0  0  0  0  0  0  0  0  0  0  0
   -0.7502   -3.5844   -3.9054 N   0  0  0  0  0  0  0  0  0  0  0  0
   -1.1663   -4.2119   -5.1379 C   0  0  0  0  0  0  0  0  0  0  0  0
    0.1424   -3.8636   -3.5093 H   0  0  0  0  0  0  0  0  0  0  0  0
   -1.7458   -5.1189   -4.9108 H   0  0  0  0  0  0  0  0  0  0  0  0
   -1.7909   -3.5123   -5.7128 H   0  0  0  0  0  0  0  0  0  0  0  0
   -0.2791   -4.4823   -5.7293 H   0  0  0  0  0  0  0  0  0  0  0  0
  1  3  1  0  0  0  0
  1  7  1  0  0  0  0
  1  2  2  0  0  0  0
 23 25  1  0  0  0  0
 23 29  1  0  0  0  0
 23 24  2  0  0  0  0
 50 51  1  0  0  0  0
 51 59  1  0  0  0  0
 51 52  2  0  0  0  0
  8  9  1  0  0  0  0
  9 17  1  0  0  0  0
  9 10  2  0  0  0  0
 30 31  1  0  0  0  0
 31 39  1  0  0  0  0
 31 32  2  0  0  0  0
 40 41  1  0  0  0  0
 41 49  1  0  0  0  0
 41 42  2  0  0  0  0
 50 53  1  0  0  0  0
 30 33  1  0  0  0  0
 59 60  1  0  0  0  0
 17 18  1  0  0  0  0
  8 11  1  0  0  0  0
 11 12  1  0  0  0  0
 40 43  1  0  0  0  0
 43 44  1  0  0  0  0
 49 50  1  0  0  0  0
  7  8  1  0  0  0  0
 29 30  1  0  0  0  0
 39 40  1  0  0  0  0
 12 44  1  0  0  0  0
  3  4  1  0  0  0  0
  3  5  1  0  0  0  0
  3  6  1  0  0  0  0
 25 26  1  0  0  0  0
 25 27  1  0  0  0  0
 25 28  1  0  0  0  0
 53 56  1  0  0  0  0
 53 57  1  0  0  0  0
 53 58  1  0  0  0  0
 33 36  1  0  0  0  0
 33 37  1  0  0  0  0
 33 38  1  0  0  0  0
 60 62  1  0  0  0  0
 60 63  1  0  0  0  0
 60 64  1  0  0  0  0
 18 20  1  0  0  0  0
 18 21  1  0  0  0  0
 18 22  1  0  0  0  0
 11 15  1  0  0  0  0
 11 16  1  0  0  0  0
 43 47  1  0  0  0  0
 43 48  1  0  0  0  0
 50 55  1  0  0  0  0
  8 14  1  0  0  0  0
 30 35  1  0  0  0  0
 40 46  1  0  0  0  0
 59 61  1  0  0  0  0
 17 19  1  0  0  0  0
  7 13  1  0  0  0  0
 29 34  1  0  0  0  0
 49 54  1  0  0  0  0
 39 45  1  0  0  0  0
M  END
$$$$

  -OEChem-05262214473D

 64 63  0     1  0  0  0  0  0999 V2000
   -2.6980    7.0994    4.7169 C   0  0  0  0  0  0  0  0  0  0  0  0
   -3.9035    6.9036    4.6164 O   0  0  0  0  0  0  0  0  0  0  0  0
   -2.1940    8.4858    4.9453 C   0  0  0  0  0  0  0  0  0  0  0  0
   -1.9901    9.0196    4.0032 H   0  0  0  0  0  0  0  0  0  0  0  0
   -2.9212    9.1140    5.4844 H   0  0  0  0  0  0  0  0  0  0  0  0
   -1.2612    8.5583    5.5271 H   0  0  0  0  0  0  0  0  0  0  0  0
   -1.7032    6.1398    4.6415 N   0  0  0  0  0  0  0  0  0  0  0  0
   -1.9690    4.7398    4.4276 C   0  0  2  0  0  0  0  0  0  0  0  0
   -0.9448    3.9173    5.2067 C   0  0  0  0  0  0  0  0  0  0  0  0
    0.0056    4.4212    5.8020 O   0  0  0  0  0  0  0  0  0  0  0  0
   -2.0330    4.3793    2.9414 C   0  0  0  0  0  0  0  0  0  0  0  0
   -0.4650    4.6488    2.0520 S   0  0  0  0  0  0  0  0  0  0  0  0
   -0.7355    6.4381    4.7421 H   0  0  0  0  0  0  0  0  0  0  0  0
   -2.9528    4.5548    4.8766 H   0  0  0  0  0  0  0  0  0  0  0  0
   -2.3058    3.3268    2.8126 H   0  0  0  0  0  0  0  0  0  0  0  0
   -2.8000    4.9827    2.4438 H   0  0  0  0  0  0  0  0  0  0  0  0
   -1.2031    2.5556    5.1378 N   0  0  0  0  0  0  0  0  0  0  0  0
   -0.3610    1.5697    5.7739 C   0  0  0  0  0  0  0  0  0  0  0  0
   -2.0370    2.2286    4.6590 H   0  0  0  0  0  0  0  0  0  0  0  0
    0.3967    1.2174    5.0585 H   0  0  0  0  0  0  0  0  0  0  0  0
    0.1384    2.0208    6.6441 H   0  0  0  0  0  0  0  0  0  0  0  0
   -0.9765    0.7200    6.1041 H   0  0  0  0  0  0  0  0  0  0  0  0
   -6.7256    2.0330   -0.2766 C   0  0  0  0  0  0  0  0  0  0  0  0
   -7.1824    1.1039   -0.9322 O   0  0  0  0  0  0  0  0  0  0  0  0
   -7.5276    2.6077    0.8435 C   0  0  0  0  0  0  0  0  0  0  0  0
   -8.1775    3.4344    0.5145 H   0  0  0  0  0  0  0  0  0  0  0  0
   -8.2057    1.8676    1.2980 H   0  0  0  0  0  0  0  0  0  0  0  0
   -6.9411    3.0162    1.6819 H   0  0  0  0  0  0  0  0  0  0  0  0
   -5.4935    2.6382   -0.4627 N   0  0  0  0  0  0  0  0  0  0  0  0
   -4.5619    2.2388   -1.4845 C   0  0  2  0  0  0  0  0  0  0  0  0
   -3.1535    2.4674   -0.9521 C   0  0  0  0  0  0  0  0  0  0  0  0
   -2.8634    3.3945   -0.1987 O   0  0  0  0  0  0  0  0  0  0  0  0
   -4.7883    3.0138   -2.7732 C   0  0  0  0  0  0  0  0  0  0  0  0
   -5.2337    3.4049    0.1551 H   0  0  0  0  0  0  0  0  0  0  0  0
   -4.7192    1.1682   -1.6549 H   0  0  0  0  0  0  0  0  0  0  0  0
   -4.6352    4.0886   -2.6221 H   0  0  0  0  0  0  0  0  0  0  0  0
   -4.0976    2.6887   -3.5582 H   0  0  0  0  0  0  0  0  0  0  0  0
   -5.8111    2.8719   -3.1387 H   0  0  0  0  0  0  0  0  0  0  0  0
   -2.2466    1.5400   -1.4507 N   0  0  0  0  0  0  0  0  0  0  0  0
   -0.8424    1.5707   -1.1286 C   0  0  2  0  0  0  0  0  0  0  0  0
   -0.2962    0.1448   -1.1614 C   0  0  0  0  0  0  0  0  0  0  0  0
    0.6530   -0.2247   -0.4731 O   0  0  0  0  0  0  0  0  0  0  0  0
   -0.5627    2.2976    0.1892 C   0  0  0  0  0  0  0  0  0  0  0  0
   -0.9717    4.0594    0.1509 S   0  0  0  0  0  0  0  0  0  0  0  0
   -2.5850    0.7815   -2.0381 H   0  0  0  0  0  0  0  0  0  0  0  0
   -0.3650    2.1270   -1.9448 H   0  0  0  0  0  0  0  0  0  0  0  0
   -1.1351    1.8462    1.0061 H   0  0  0  0  0  0  0  0  0  0  0  0
    0.4993    2.2131    0.4438 H   0  0  0  0  0  0  0  0  0  0  0  0
   -0.9768   -0.6572   -2.0665 N   0  0  0  0  0  0  0  0  0  0  0  0
   -0.6298   -2.0402   -2.2963 C   0  0  2  0  0  0  0  0  0  0  0  0
   -0.9284   -2.3640   -3.7542 C   0  0  0  0  0  0  0  0  0  0  0  0
   -1.8655   -1.8651   -4.3738 O   0  0  0  0  0  0  0  0  0  0  0  0
   -1.3982   -2.9655   -1.3656 C   0  0  0  0  0  0  0  0  0  0  0  0
   -1.7788   -0.2810   -2.5634 H   0  0  0  0  0  0  0  0  0  0  0  0
    0.4467   -2.1306   -2.1146 H   0  0  0  0  0  0  0  0  0  0  0  0
   -2.4788   -2.8887   -1.5330 H   0  0  0  0  0  0  0  0  0  0  0  0
   -1.1131   -4.0111   -1.5214 H   0  0  0  0  0  0  0  0  0  0  0  0
   -1.2055   -2.7119   -0.3176 H   0  0  0  0  0  0  0  0  0  0  0  0
   -0.0513   -3.3083   -4.2693 N   0  0  0  0  0  0  0  0  0  0  0  0
   -0.1532   -3.8128   -5.6187 C   0  0  0  0  0  0  0  0  0  0  0  0
    0.7206   -3.6378   -3.6972 H   0  0  0  0  0  0  0  0  0  0  0  0
   -0.7652   -4.7268   -5.6238 H   0  0  0  0  0  0  0  0  0  0  0  0
   -0.6242   -3.0528   -6.2596 H   0  0  0  0  0  0  0  0  0  0  0  0
    0.8522   -4.0427   -6.0011 H   0  0  0  0  0  0  0  0  0  0  0  0
  1  3  1  0  0  0  0
  1  7  1  0  0  0  0
  1  2  2  0  0  0  0
 23 25  1  0  0  0  0
 23 29  1  0  0  0  0
 23 24  2  0  0  0  0
 50 51  1  0  0  0  0
 51 59  1  0  0  0  0
 51 52  2  0  0  0  0
  8  9  1  0  0  0  0
  9 17  1  0  0  0  0
  9 10  2  0  0  0  0
 30 31  1  0  0  0  0
 31 39  1  0  0  0  0
 31 32  2  0  0  0  0
 40 41  1  0  0  0  0
 41 49  1  0  0  0  0
 41 42  2  0  0  0  0
 50 53  1  0  0  0  0
 30 33  1  0  0  0  0
 59 60  1  0  0  0  0
 17 18  1  0  0  0  0
  8 11  1  0  0  0  0
 11 12  1  0  0  0  0
 40 43  1  0  0  0  0
 43 44  1  0  0  0  0
 49 50  1  0  0  0  0
  7  8  1  0  0  0  0
 29 30  1  0  0  0  0
 39 40  1  0  0  0  0
 12 44  1  0  0  0  0
  3  4  1  0  0  0  0
  3  5  1  0  0  0  0
  3  6  1  0  0  0  0
 25 26  1  0  0  0  0
 25 27  1  0  0  0  0
 25 28  1  0  0  0  0
 53 56  1  0  0  0  0
 53 57  1  0  0  0  0
 53 58  1  0  0  0  0
 33 36  1  0  0  0  0
 33 37  1  0  0  0  0
 33 38  1  0  0  0  0
 60 62  1  0  0  0  0
 60 63  1  0  0  0  0
 60 64  1  0  0  0  0
 18 20  1  0  0  0  0
 18 21  1  0  0  0  0
 18 22  1  0  0  0  0
 11 15  1  0  0  0  0
 11 16  1  0  0  0  0
 43 47  1  0  0  0  0
 43 48  1  0  0  0  0
 50 55  1  0  0  0  0
  8 14  1  0  0  0  0
 30 35  1  0  0  0  0
 40 46  1  0  0  0  0
 59 61  1  0  0  0  0
 17 19  1  0  0  0  0
  7 13  1  0  0  0  0
 29 34  1  0  0  0  0
 49 54  1  0  0  0  0
 39 45  1  0  0  0  0
M  END
$$$$

  -OEChem-05262214473D

 64 63  0     1  0  0  0  0  0999 V2000
   -2.6980    7.0994    4.7169 C   0  0  0  0  0  0  0  0  0  0  0  0
   -3.9035    6.9036    4.6164 O   0  0  0  0  0  0  0  0  0  0  0  0
   -2.1940    8.4858    4.9453 C   0  0  0  0  0  0  0  0  0  0  0  0
   -1.9901    9.0196    4.0032 H   0  0  0  0  0  0  0  0  0  0  0  0
   -2.9212    9.1140    5.4844 H   0  0  0  0  0  0  0  0  0  0  0  0
   -1.2612    8.5583    5.5271 H   0  0  0  0  0  0  0  0  0  0  0  0
   -1.7032    6.1398    4.6415 N   0  0  0  0  0  0  0  0  0  0  0  0
   -1.9690    4.7398    4.4276 C   0  0  2  0  0  0  0  0  0  0  0  0
   -0.9448    3.9173    5.2067 C   0  0  0  0  0  0  0  0  0  0  0  0
    0.0056    4.4212    5.8020 O   0  0  0  0  0  0  0  0  0  0  0  0
   -2.0330    4.3793    2.9414 C   0  0  0  0  0  0  0  0  0  0  0  0
   -0.4650    4.6488    2.0520 S   0  0  0  0  0  0  0  0  0  0  0  0
   -0.7355    6.4381    4.7421 H   0  0  0  0  0  0  0  0  0  0  0  0
   -2.9528    4.5548    4.8766 H   0  0  0  0  0  0  0  0  0  0  0  0
   -2.3058    3.3268    2.8126 H   0  0  0  0  0  0  0  0  0  0  0  0
   -2.8000    4.9827    2.4438 H   0  0  0  0  0  0  0  0  0  0  0  0
   -1.2031    2.5556    5.1378 N   0  0  0  0  0  0  0  0  0  0  0  0
   -0.3610    1.5697    5.7739 C   0  0  0  0  0  0  0  0  0  0  0  0
   -2.0370    2.2286    4.6590 H   0  0  0  0  0  0  0  0  0  0  0  0
    0.3967    1.2174    5.0585 H   0  0  0  0  0  0  0  0  0  0  0  0
    0.1384    2.0208    6.6441 H   0  0  0  0  0  0  0  0  0  0  0  0
   -0.9765    0.7200    6.1041 H   0  0  0  0  0  0  0  0  0  0  0  0
   -6.7256    2.0330   -0.2766 C   0  0  0  0  0  0  0  0  0  0  0  0
   -7.1824    1.1039   -0.9322 O   0  0  0  0  0  0  0  0  0  0  0  0
   -7.5276    2.6077    0.8435 C   0  0  0  0  0  0  0  0  0  0  0  0
   -8.1775    3.4344    0.5145 H   0  0  0  0  0  0  0  0  0  0  0  0
   -8.2057    1.8676    1.2980 H   0  0  0  0  0  0  0  0  0  0  0  0
   -6.9411    3.0162    1.6819 H   0  0  0  0  0  0  0  0  0  0  0  0
   -5.4935    2.6382   -0.4627 N   0  0  0  0  0  0  0  0  0  0  0  0
   -4.5619    2.2388   -1.4845 C   0  0  2  0  0  0  0  0  0  0  0  0
   -3.1535    2.4674   -0.9521 C   0  0  0  0  0  0  0  0  0  0  0  0
   -2.8634    3.3945   -0.1987 O   0  0  0  0  0  0  0  0  0  0  0  0
   -4.7883    3.0138   -2.7732 C   0  0  0  0  0  0  0  0  0  0  0  0
   -5.2337    3.4049    0.1551 H   0  0  0  0  0  0  0  0  0  0  0  0
   -4.7192    1.1682   -1.6549 H   0  0  0  0  0  0  0  0  0  0  0  0
   -4.6352    4.0886   -2.6221 H   0  0  0  0  0  0  0  0  0  0  0  0
   -4.0976    2.6887   -3.5582 H   0  0  0  0  0  0  0  0  0  0  0  0
   -5.8111    2.8719   -3.1387 H   0  0  0  0  0  0  0  0  0  0  0  0
   -2.2466    1.5400   -1.4507 N   0  0  0  0  0  0  0  0  0  0  0  0
   -0.8424    1.5707   -1.1286 C   0  0  2  0  0  0  0  0  0  0  0  0
   -0.2962    0.1448   -1.1614 C   0  0  0  0  0  0  0  0  0  0  0  0
    0.4604   -0.3025   -0.3018 O   0  0  0  0  0  0  0  0  0  0  0  0
   -0.5627    2.2976    0.1892 C   0  0  0  0  0  0  0  0  0  0  0  0
   -0.9717    4.0594    0.1509 S   0  0  0  0  0  0  0  0  0  0  0  0
   -2.5850    0.7815   -2.0381 H   0  0  0  0  0  0  0  0  0  0  0  0
   -0.3650    2.1270   -1.9448 H   0  0  0  0  0  0  0  0  0  0  0  0
   -1.1351    1.8462    1.0061 H   0  0  0  0  0  0  0  0  0  0  0  0
    0.4993    2.2131    0.4438 H   0  0  0  0  0  0  0  0  0  0  0  0
   -0.7330   -0.5590   -2.2748 N   0  0  0  0  0  0  0  0  0  0  0  0
   -0.3327   -1.9208   -2.5419 C   0  0  2  0  0  0  0  0  0  0  0  0
   -0.2678   -2.1041   -4.0524 C   0  0  0  0  0  0  0  0  0  0  0  0
   -1.0301   -1.5346   -4.8306 O   0  0  0  0  0  0  0  0  0  0  0  0
   -1.2980   -2.9144   -1.9147 C   0  0  0  0  0  0  0  0  0  0  0  0
   -1.3931   -0.1252   -2.9132 H   0  0  0  0  0  0  0  0  0  0  0  0
    0.6684   -2.0457   -2.1149 H   0  0  0  0  0  0  0  0  0  0  0  0
   -2.3064   -2.8043   -2.3300 H   0  0  0  0  0  0  0  0  0  0  0  0
   -0.9776   -3.9460   -2.0938 H   0  0  0  0  0  0  0  0  0  0  0  0
   -1.3660   -2.7616   -0.8322 H   0  0  0  0  0  0  0  0  0  0  0  0
    0.7133   -3.0118   -4.4263 N   0  0  0  0  0  0  0  0  0  0  0  0
    0.9437   -3.3884   -5.8014 C   0  0  0  0  0  0  0  0  0  0  0  0
    1.3258   -3.4055   -3.7181 H   0  0  0  0  0  0  0  0  0  0  0  0
    0.3565   -4.2876   -6.0392 H   0  0  0  0  0  0  0  0  0  0  0  0
    0.6373   -2.5649   -6.4633 H   0  0  0  0  0  0  0  0  0  0  0  0
    2.0131   -3.5992   -5.9495 H   0  0  0  0  0  0  0  0  0  0  0  0
  1  3  1  0  0  0  0
  1  7  1  0  0  0  0
  1  2  2  0  0  0  0
 23 25  1  0  0  0  0
 23 29  1  0  0  0  0
 23 24  2  0  0  0  0
 50 51  1  0  0  0  0
 51 59  1  0  0  0  0
 51 52  2  0  0  0  0
  8  9  1  0  0  0  0
  9 17  1  0  0  0  0
  9 10  2  0  0  0  0
 30 31  1  0  0  0  0
 31 39  1  0  0  0  0
 31 32  2  0  0  0  0
 40 41  1  0  0  0  0
 41 49  1  0  0  0  0
 41 42  2  0  0  0  0
 50 53  1  0  0  0  0
 30 33  1  0  0  0  0
 59 60  1  0  0  0  0
 17 18  1  0  0  0  0
  8 11  1  0  0  0  0
 11 12  1  0  0  0  0
 40 43  1  0  0  0  0
 43 44  1  0  0  0  0
 49 50  1  0  0  0  0
  7  8  1  0  0  0  0
 29 30  1  0  0  0  0
 39 40  1  0  0  0  0
 12 44  1  0  0  0  0
  3  4  1  0  0  0  0
  3  5  1  0  0  0  0
  3  6  1  0  0  0  0
 25 26  1  0  0  0  0
 25 27  1  0  0  0  0
 25 28  1  0  0  0  0
 53 56  1  0  0  0  0
 53 57  1  0  0  0  0
 53 58  1  0  0  0  0
 33 36  1  0  0  0  0
 33 37  1  0  0  0  0
 33 38  1  0  0  0  0
 60 62  1  0  0  0  0
 60 63  1  0  0  0  0
 60 64  1  0  0  0  0
 18 20  1  0  0  0  0
 18 21  1  0  0  0  0
 18 22  1  0  0  0  0
 11 15  1  0  0  0  0
 11 16  1  0  0  0  0
 43 47  1  0  0  0  0
 43 48  1  0  0  0  0
 50 55  1  0  0  0  0
  8 14  1  0  0  0  0
 30 35  1  0  0  0  0
 40 46  1  0  0  0  0
 59 61  1  0  0  0  0
 17 19  1  0  0  0  0
  7 13  1  0  0  0  0
 29 34  1  0  0  0  0
 49 54  1  0  0  0  0
 39 45  1  0  0  0  0
M  END
$$$$

  -OEChem-05262214473D

 64 63  0     1  0  0  0  0  0999 V2000
   -2.6980    7.0994    4.7169 C   0  0  0  0  0  0  0  0  0  0  0  0
   -3.9035    6.9036    4.6164 O   0  0  0  0  0  0  0  0  0  0  0  0
   -2.1940    8.4858    4.9453 C   0  0  0  0  0  0  0  0  0  0  0  0
   -1.9901    9.0196    4.0032 H   0  0  0  0  0  0  0  0  0  0  0  0
   -2.9212    9.1140    5.4844 H   0  0  0  0  0  0  0  0  0  0  0  0
   -1.2612    8.5583    5.5271 H   0  0  0  0  0  0  0  0  0  0  0  0
   -1.7032    6.1398    4.6415 N   0  0  0  0  0  0  0  0  0  0  0  0
   -1.9690    4.7398    4.4276 C   0  0  2  0  0  0  0  0  0  0  0  0
   -0.9448    3.9173    5.2067 C   0  0  0  0  0  0  0  0  0  0  0  0
    0.0056    4.4212    5.8020 O   0  0  0  0  0  0  0  0  0  0  0  0
   -2.0330    4.3793    2.9414 C   0  0  0  0  0  0  0  0  0  0  0  0
   -0.4650    4.6488    2.0520 S   0  0  0  0  0  0  0  0  0  0  0  0
   -0.7355    6.4381    4.7421 H   0  0  0  0  0  0  0  0  0  0  0  0
   -2.9528    4.5548    4.8766 H   0  0  0  0  0  0  0  0  0  0  0  0
   -2.3058    3.3268    2.8126 H   0  0  0  0  0  0  0  0  0  0  0  0
   -2.8000    4.9827    2.4438 H   0  0  0  0  0  0  0  0  0  0  0  0
   -1.2031    2.5556    5.1378 N   0  0  0  0  0  0  0  0  0  0  0  0
   -0.3610    1.5697    5.7739 C   0  0  0  0  0  0  0  0  0  0  0  0
   -2.0370    2.2286    4.6590 H   0  0  0  0  0  0  0  0  0  0  0  0
    0.3967    1.2174    5.0585 H   0  0  0  0  0  0  0  0  0  0  0  0
    0.1384    2.0208    6.6441 H   0  0  0  0  0  0  0  0  0  0  0  0
   -0.9765    0.7200    6.1041 H   0  0  0  0  0  0  0  0  0  0  0  0
   -6.7256    2.0330   -0.2766 C   0  0  0  0  0  0  0  0  0  0  0  0
   -7.1824    1.1039   -0.9322 O   0  0  0  0  0  0  0  0  0  0  0  0
   -7.5276    2.6077    0.8435 C   0  0  0  0  0  0  0  0  0  0  0  0
   -8.1775    3.4344    0.5145 H   0  0  0  0  0  0  0  0  0  0  0  0
   -8.2057    1.8676    1.2980 H   0  0  0  0  0  0  0  0  0  0  0  0
   -6.9411    3.0162    1.6819 H   0  0  0  0  0  0  0  0  0  0  0  0
   -5.4935    2.6382   -0.4627 N   0  0  0  0  0  0  0  0  0  0  0  0
   -4.5619    2.2388   -1.4845 C   0  0  2  0  0  0  0  0  0  0  0  0
   -3.1535    2.4674   -0.9521 C   0  0  0  0  0  0  0  0  0  0  0  0
   -2.8634    3.3945   -0.1987 O   0  0  0  0  0  0  0  0  0  0  0  0
   -4.7883    3.0138   -2.7732 C   0  0  0  0  0  0  0  0  0  0  0  0
   -5.2337    3.4049    0.1551 H   0  0  0  0  0  0  0  0  0  0  0  0
   -4.7192    1.1682   -1.6549 H   0  0  0  0  0  0  0  0  0  0  0  0
   -4.6352    4.0886   -2.6221 H   0  0  0  0  0  0  0  0  0  0  0  0
   -4.0976    2.6887   -3.5582 H   0  0  0  0  0  0  0  0  0  0  0  0
   -5.8111    2.8719   -3.1387 H   0  0  0  0  0  0  0  0  0  0  0  0
   -2.2466    1.5400   -1.4507 N   0  0  0  0  0  0  0  0  0  0  0  0
   -0.8424    1.5707   -1.1286 C   0  0  2  0  0  0  0  0  0  0  0  0
   -0.2962    0.1448   -1.1614 C   0  0  0  0  0  0  0  0  0  0  0  0
    0.2326   -0.3923   -0.1902 O   0  0  0  0  0  0  0  0  0  0  0  0
   -0.5627    2.2976    0.1892 C   0  0  0  0  0  0  0  0  0  0  0  0
   -0.9717    4.0594    0.1509 S   0  0  0  0  0  0  0  0  0  0  0  0
   -2.5850    0.7815   -2.0381 H   0  0  0  0  0  0  0  0  0  0  0  0
   -0.3650    2.1270   -1.9448 H   0  0  0  0  0  0  0  0  0  0  0  0
   -1.1351    1.8462    1.0061 H   0  0  0  0  0  0  0  0  0  0  0  0
    0.4993    2.2131    0.4438 H   0  0  0  0  0  0  0  0  0  0  0  0
   -0.4466   -0.4463   -2.4079 N   0  0  0  0  0  0  0  0  0  0  0  0
    0.0143   -1.7843   -2.6963 C   0  0  2  0  0  0  0  0  0  0  0  0
    0.4437   -1.8292   -4.1568 C   0  0  0  0  0  0  0  0  0  0  0  0
   -0.1110   -1.1777   -5.0394 O   0  0  0  0  0  0  0  0  0  0  0  0
   -1.0683   -2.8149   -2.4161 C   0  0  0  0  0  0  0  0  0  0  0  0
   -0.9352    0.0555   -3.1435 H   0  0  0  0  0  0  0  0  0  0  0  0
    0.8831   -1.9649   -2.0539 H   0  0  0  0  0  0  0  0  0  0  0  0
   -1.9469   -2.6500   -3.0504 H   0  0  0  0  0  0  0  0  0  0  0  0
   -0.7081   -3.8309   -2.6080 H   0  0  0  0  0  0  0  0  0  0  0  0
   -1.3970   -2.7610   -1.3726 H   0  0  0  0  0  0  0  0  0  0  0  0
    1.4914   -2.7151   -4.3657 N   0  0  0  0  0  0  0  0  0  0  0  0
    2.0498   -2.9676   -5.6736 C   0  0  0  0  0  0  0  0  0  0  0  0
    1.9166   -3.1826   -3.5705 H   0  0  0  0  0  0  0  0  0  0  0  0
    1.5428   -3.8311   -6.1288 H   0  0  0  0  0  0  0  0  0  0  0  0
    1.9078   -2.0818   -6.3100 H   0  0  0  0  0  0  0  0  0  0  0  0
    3.1245   -3.1821   -5.5781 H   0  0  0  0  0  0  0  0  0  0  0  0
  1  3  1  0  0  0  0
  1  7  1  0  0  0  0
  1  2  2  0  0  0  0
 23 25  1  0  0  0  0
 23 29  1  0  0  0  0
 23 24  2  0  0  0  0
 50 51  1  0  0  0  0
 51 59  1  0  0  0  0
 51 52  2  0  0  0  0
  8  9  1  0  0  0  0
  9 17  1  0  0  0  0
  9 10  2  0  0  0  0
 30 31  1  0  0  0  0
 31 39  1  0  0  0  0
 31 32  2  0  0  0  0
 40 41  1  0  0  0  0
 41 49  1  0  0  0  0
 41 42  2  0  0  0  0
 50 53  1  0  0  0  0
 30 33  1  0  0  0  0
 59 60  1  0  0  0  0
 17 18  1  0  0  0  0
  8 11  1  0  0  0  0
 11 12  1  0  0  0  0
 40 43  1  0  0  0  0
 43 44  1  0  0  0  0
 49 50  1  0  0  0  0
  7  8  1  0  0  0  0
 29 30  1  0  0  0  0
 39 40  1  0  0  0  0
 12 44  1  0  0  0  0
  3  4  1  0  0  0  0
  3  5  1  0  0  0  0
  3  6  1  0  0  0  0
 25 26  1  0  0  0  0
 25 27  1  0  0  0  0
 25 28  1  0  0  0  0
 53 56  1  0  0  0  0
 53 57  1  0  0  0  0
 53 58  1  0  0  0  0
 33 36  1  0  0  0  0
 33 37  1  0  0  0  0
 33 38  1  0  0  0  0
 60 62  1  0  0  0  0
 60 63  1  0  0  0  0
 60 64  1  0  0  0  0
 18 20  1  0  0  0  0
 18 21  1  0  0  0  0
 18 22  1  0  0  0  0
 11 15  1  0  0  0  0
 11 16  1  0  0  0  0
 43 47  1  0  0  0  0
 43 48  1  0  0  0  0
 50 55  1  0  0  0  0
  8 14  1  0  0  0  0
 30 35  1  0  0  0  0
 40 46  1  0  0  0  0
 59 61  1  0  0  0  0
 17 19  1  0  0  0  0
  7 13  1  0  0  0  0
 29 34  1  0  0  0  0
 49 54  1  0  0  0  0
 39 45  1  0  0  0  0
M  END
$$$$

  -OEChem-05262214473D

 64 63  0     1  0  0  0  0  0999 V2000
   -2.6980    7.0994    4.7169 C   0  0  0  0  0  0  0  0  0  0  0  0
   -3.9035    6.9036    4.6164 O   0  0  0  0  0  0  0  0  0  0  0  0
   -2.1940    8.4858    4.9453 C   0  0  0  0  0  0  0  0  0  0  0  0
   -1.9901    9.0196    4.0032 H   0  0  0  0  0  0  0  0  0  0  0  0
   -2.9212    9.1140    5.4844 H   0  0  0  0  0  0  0  0  0  0  0  0
   -1.2612    8.5583    5.5271 H   0  0  0  0  0  0  0  0  0  0  0  0
   -1.7032    6.1398    4.6415 N   0  0  0  0  0  0  0  0  0  0  0  0
   -1.9690    4.7398    4.4276 C   0  0  2  0  0  0  0  0  0  0  0  0
   -0.9448    3.9173    5.2067 C   0  0  0  0  0  0  0  0  0  0  0  0
    0.0056    4.4212    5.8020 O   0  0  0  0  0  0  0  0  0  0  0  0
   -2.0330    4.3793    2.9414 C   0  0  0  0  0  0  0  0  0  0  0  0
   -0.4650    4.6488    2.0520 S   0  0  0  0  0  0  0  0  0  0  0  0
   -0.7355    6.4381    4.7421 H   0  0  0  0  0  0  0  0  0  0  0  0
   -2.9528    4.5548    4.8766 H   0  0  0  0  0  0  0  0  0  0  0  0
   -2.3058    3.3268    2.8126 H   0  0  0  0  0  0  0  0  0  0  0  0
   -2.8000    4.9827    2.4438 H   0  0  0  0  0  0  0  0  0  0  0  0
   -1.2031    2.5556    5.1378 N   0  0  0  0  0  0  0  0  0  0  0  0
   -0.3610    1.5697    5.7739 C   0  0  0  0  0  0  0  0  0  0  0  0
   -2.0370    2.2286    4.6590 H   0  0  0  0  0  0  0  0  0  0  0  0
    0.3967    1.2174    5.0585 H   0  0  0  0  0  0  0  0  0  0  0  0
    0.1384    2.0208    6.6441 H   0  0  0  0  0  0  0  0  0  0  0  0
   -0.9765    0.7200    6.1041 H   0  0  0  0  0  0  0  0  0  0  0  0
   -6.7256    2.0330   -0.2766 C   0  0  0  0  0  0  0  0  0  0  0  0
   -7.1824    1.1039   -0.9322 O   0  0  0  0  0  0  0  0  0  0  0  0
   -7.5276    2.6077    0.8435 C   0  0  0  0  0  0  0  0  0  0  0  0
   -8.1775    3.4344    0.5145 H   0  0  0  0  0  0  0  0  0  0  0  0
   -8.2057    1.8676    1.2980 H   0  0  0  0  0  0  0  0  0  0  0  0
   -6.9411    3.0162    1.6819 H   0  0  0  0  0  0  0  0  0  0  0  0
   -5.4935    2.6382   -0.4627 N   0  0  0  0  0  0  0  0  0  0  0  0
   -4.5619    2.2388   -1.4845 C   0  0  2  0  0  0  0  0  0  0  0  0
   -3.1535    2.4674   -0.9521 C   0  0  0  0  0  0  0  0  0  0  0  0
   -2.8634    3.3945   -0.1987 O   0  0  0  0  0  0  0  0  0  0  0  0
   -4.7883    3.0138   -2.7732 C   0  0  0  0  0  0  0  0  0  0  0  0
   -5.2337    3.4049    0.1551 H   0  0  0  0  0  0  0  0  0  0  0  0
   -4.7192    1.1682   -1.6549 H   0  0  0  0  0  0  0  0  0  0  0  0
   -4.6352    4.0886   -2.6221 H   0  0  0  0  0  0  0  0  0  0  0  0
   -4.0976    2.6887   -3.5582 H   0  0  0  0  0  0  0  0  0  0  0  0
   -5.8111    2.8719   -3.1387 H   0  0  0  0  0  0  0  0  0  0  0  0
   -2.2466    1.5400   -1.4507 N   0  0  0  0  0  0  0  0  0  0  0  0
   -0.8424    1.5707   -1.1286 C   0  0  2  0  0  0  0  0  0  0  0  0
   -0.2962    0.1448   -1.1614 C   0  0  0  0  0  0  0  0  0  0  0  0
   -0.0150   -0.4881   -0.1457 O   0  0  0  0  0  0  0  0  0  0  0  0
   -0.5627    2.2976    0.1892 C   0  0  0  0  0  0  0  0  0  0  0  0
   -0.9717    4.0594    0.1509 S   0  0  0  0  0  0  0  0  0  0  0  0
   -2.5850    0.7815   -2.0381 H   0  0  0  0  0  0  0  0  0  0  0  0
   -0.3650    2.1270   -1.9448 H   0  0  0  0  0  0  0  0  0  0  0  0
   -1.1351    1.8462    1.0061 H   0  0  0  0  0  0  0  0  0  0  0  0
    0.4993    2.2131    0.4438 H   0  0  0  0  0  0  0  0  0  0  0  0
   -0.1372   -0.3266   -2.4568 N   0  0  0  0  0  0  0  0  0  0  0  0
    0.3876   -1.6401   -2.7489 C   0  0  2  0  0  0  0  0  0  0  0  0
    1.1578   -1.5579   -4.0602 C   0  0  0  0  0  0  0  0  0  0  0  0
    0.8293   -0.8188   -4.9859 O   0  0  0  0  0  0  0  0  0  0  0  0
   -0.7247   -2.6736   -2.8357 C   0  0  0  0  0  0  0  0  0  0  0  0
   -0.4363    0.2488   -3.2385 H   0  0  0  0  0  0  0  0  0  0  0  0
    1.0762   -1.8936   -1.9355 H   0  0  0  0  0  0  0  0  0  0  0  0
   -1.4246   -2.4363   -3.6451 H   0  0  0  0  0  0  0  0  0  0  0  0
   -0.3228   -3.6737   -3.0288 H   0  0  0  0  0  0  0  0  0  0  0  0
   -1.2963   -2.7102   -1.9020 H   0  0  0  0  0  0  0  0  0  0  0  0
    2.2300   -2.4385   -4.0918 N   0  0  0  0  0  0  0  0  0  0  0  0
    3.0896   -2.5793   -5.2438 C   0  0  0  0  0  0  0  0  0  0  0  0
    2.4529   -2.9842   -3.2646 H   0  0  0  0  0  0  0  0  0  0  0  0
    2.7128   -3.3885   -5.8865 H   0  0  0  0  0  0  0  0  0  0  0  0
    3.1007   -1.6364   -5.8103 H   0  0  0  0  0  0  0  0  0  0  0  0
    4.1105   -2.8198   -4.9122 H   0  0  0  0  0  0  0  0  0  0  0  0
  1  3  1  0  0  0  0
  1  7  1  0  0  0  0
  1  2  2  0  0  0  0
 23 25  1  0  0  0  0
 23 29  1  0  0  0  0
 23 24  2  0  0  0  0
 50 51  1  0  0  0  0
 51 59  1  0  0  0  0
 51 52  2  0  0  0  0
  8  9  1  0  0  0  0
  9 17  1  0  0  0  0
  9 10  2  0  0  0  0
 30 31  1  0  0  0  0
 31 39  1  0  0  0  0
 31 32  2  0  0  0  0
 40 41  1  0  0  0  0
 41 49  1  0  0  0  0
 41 42  2  0  0  0  0
 50 53  1  0  0  0  0
 30 33  1  0  0  0  0
 59 60  1  0  0  0  0
 17 18  1  0  0  0  0
  8 11  1  0  0  0  0
 11 12  1  0  0  0  0
 40 43  1  0  0  0  0
 43 44  1  0  0  0  0
 49 50  1  0  0  0  0
  7  8  1  0  0  0  0
 29 30  1  0  0  0  0
 39 40  1  0  0  0  0
 12 44  1  0  0  0  0
  3  4  1  0  0  0  0
  3  5  1  0  0  0  0
  3  6  1  0  0  0  0
 25 26  1  0  0  0  0
 25 27  1  0  0  0  0
 25 28  1  0  0  0  0
 53 56  1  0  0  0  0
 53 57  1  0  0  0  0
 53 58  1  0  0  0  0
 33 36  1  0  0  0  0
 33 37  1  0  0  0  0
 33 38  1  0  0  0  0
 60 62  1  0  0  0  0
 60 63  1  0  0  0  0
 60 64  1  0  0  0  0
 18 20  1  0  0  0  0
 18 21  1  0  0  0  0
 18 22  1  0  0  0  0
 11 15  1  0  0  0  0
 11 16  1  0  0  0  0
 43 47  1  0  0  0  0
 43 48  1  0  0  0  0
 50 55  1  0  0  0  0
  8 14  1  0  0  0  0
 30 35  1  0  0  0  0
 40 46  1  0  0  0  0
 59 61  1  0  0  0  0
 17 19  1  0  0  0  0
  7 13  1  0  0  0  0
 29 34  1  0  0  0  0
 49 54  1  0  0  0  0
 39 45  1  0  0  0  0
M  END
$$$$

  -OEChem-05262214473D

 64 63  0     1  0  0  0  0  0999 V2000
   -2.6980    7.0994    4.7169 C   0  0  0  0  0  0  0  0  0  0  0  0
   -3.9035    6.9036    4.6164 O   0  0  0  0  0  0  0  0  0  0  0  0
   -2.1940    8.4858    4.9453 C   0  0  0  0  0  0  0  0  0  0  0  0
   -1.9901    9.0196    4.0032 H   0  0  0  0  0  0  0  0  0  0  0  0
   -2.9212    9.1140    5.4844 H   0  0  0  0  0  0  0  0  0  0  0  0
   -1.2612    8.5583    5.5271 H   0  0  0  0  0  0  0  0  0  0  0  0
   -1.7032    6.1398    4.6415 N   0  0  0  0  0  0  0  0  0  0  0  0
   -1.9690    4.7398    4.4276 C   0  0  2  0  0  0  0  0  0  0  0  0
   -0.9448    3.9173    5.2067 C   0  0  0  0  0  0  0  0  0  0  0  0
    0.0056    4.4212    5.8020 O   0  0  0  0  0  0  0  0  0  0  0  0
   -2.0330    4.3793    2.9414 C   0  0  0  0  0  0  0  0  0  0  0  0
   -0.4650    4.6488    2.0520 S   0  0  0  0  0  0  0  0  0  0  0  0
   -0.7355    6.4381    4.7421 H   0  0  0  0  0  0  0  0  0  0  0  0
   -2.9528    4.5548    4.8766 H   0  0  0  0  0  0  0  0  0  0  0  0
   -2.3058    3.3268    2.8126 H   0  0  0  0  0  0  0  0  0  0  0  0
   -2.8000    4.9827    2.4438 H   0  0  0  0  0  0  0  0  0  0  0  0
   -1.2031    2.5556    5.1378 N   0  0  0  0  0  0  0  0  0  0  0  0
   -0.3610    1.5697    5.7739 C   0  0  0  0  0  0  0  0  0  0  0  0
   -2.0370    2.2286    4.6590 H   0  0  0  0  0  0  0  0  0  0  0  0
    0.3967    1.2174    5.0585 H   0  0  0  0  0  0  0  0  0  0  0  0
    0.1384    2.0208    6.6441 H   0  0  0  0  0  0  0  0  0  0  0  0
   -0.9765    0.7200    6.1041 H   0  0  0  0  0  0  0  0  0  0  0  0
   -6.7256    2.0330   -0.2766 C   0  0  0  0  0  0  0  0  0  0  0  0
   -7.1824    1.1039   -0.9322 O   0  0  0  0  0  0  0  0  0  0  0  0
   -7.5276    2.6077    0.8435 C   0  0  0  0  0  0  0  0  0  0  0  0
   -8.1775    3.4344    0.5145 H   0  0  0  0  0  0  0  0  0  0  0  0
   -8.2057    1.8676    1.2980 H   0  0  0  0  0  0  0  0  0  0  0  0
   -6.9411    3.0162    1.6819 H   0  0  0  0  0  0  0  0  0  0  0  0
   -5.4935    2.6382   -0.4627 N   0  0  0  0  0  0  0  0  0  0  0  0
   -4.5619    2.2388   -1.4845 C   0  0  2  0  0  0  0  0  0  0  0  0
   -3.1535    2.4674   -0.9521 C   0  0  0  0  0  0  0  0  0  0  0  0
   -2.8634    3.3945   -0.1987 O   0  0  0  0  0  0  0  0  0  0  0  0
   -4.7883    3.0138   -2.7732 C   0  0  0  0  0  0  0  0  0  0  0  0
   -5.2337    3.4049    0.1551 H   0  0  0  0  0  0  0  0  0  0  0  0
   -4.7192    1.1682   -1.6549 H   0  0  0  0  0  0  0  0  0  0  0  0
   -4.6352    4.0886   -2.6221 H   0  0  0  0  0  0  0  0  0  0  0  0
   -4.0976    2.6887   -3.5582 H   0  0  0  0  0  0  0  0  0  0  0  0
   -5.8111    2.8719   -3.1387 H   0  0  0  0  0  0  0  0  0  0  0  0
   -2.2466    1.5400   -1.4507 N   0  0  0  0  0  0  0  0  0  0  0  0
   -0.8424    1.5707   -1.1286 C   0  0  2  0  0  0  0  0  0  0  0  0
   -0.2962    0.1448   -1.1614 C   0  0  0  0  0  0  0  0  0  0  0  0
   -0.2654   -0.5835   -0.1714 O   0  0  0  0  0  0  0  0  0  0  0  0
   -0.5627    2.2976    0.1892 C   0  0  0  0  0  0  0  0  0  0  0  0
   -0.9717    4.0594    0.1509 S   0  0  0  0  0  0  0  0  0  0  0  0
   -2.5850    0.7815   -2.0381 H   0  0  0  0  0  0  0  0  0  0  0  0
   -0.3650    2.1270   -1.9448 H   0  0  0  0  0  0  0  0  0  0  0  0
   -1.1351    1.8462    1.0061 H   0  0  0  0  0  0  0  0  0  0  0  0
    0.4993    2.2131    0.4438 H   0  0  0  0  0  0  0  0  0  0  0  0
    0.1742   -0.2083   -2.4183 N   0  0  0  0  0  0  0  0  0  0  0  0
    0.7616   -1.4980   -2.6962 C   0  0  2  0  0  0  0  0  0  0  0  0
    1.8257   -1.3088   -3.7693 C   0  0  0  0  0  0  0  0  0  0  0  0
    1.7266   -0.4823   -4.6738 O   0  0  0  0  0  0  0  0  0  0  0  0
   -0.2906   -2.5002   -3.1449 C   0  0  0  0  0  0  0  0  0  0  0  0
    0.0698    0.4416   -3.1919 H   0  0  0  0  0  0  0  0  0  0  0  0
    1.2345   -1.8369   -1.7680 H   0  0  0  0  0  0  0  0  0  0  0  0
   -0.7753   -2.1777   -4.0736 H   0  0  0  0  0  0  0  0  0  0  0  0
    0.1519   -3.4850   -3.3277 H   0  0  0  0  0  0  0  0  0  0  0  0
   -1.0709   -2.6127   -2.3844 H   0  0  0  0  0  0  0  0  0  0  0  0
    2.8788   -2.2008   -3.6231 N   0  0  0  0  0  0  0  0  0  0  0  0
    3.9924   -2.2497   -4.5415 C   0  0  0  0  0  0  0  0  0  0  0  0
    2.8982   -2.8239   -2.8211 H   0  0  0  0  0  0  0  0  0  0  0  0
    3.7869   -2.9900   -5.3287 H   0  0  0  0  0  0  0  0  0  0  0  0
    4.1347   -1.2590   -4.9981 H   0  0  0  0  0  0  0  0  0  0  0  0
    4.9041   -2.5369   -3.9972 H   0  0  0  0  0  0  0  0  0  0  0  0
  1  3  1  0  0  0  0
  1  7  1  0  0  0  0
  1  2  2  0  0  0  0
 23 25  1  0  0  0  0
 23 29  1  0  0  0  0
 23 24  2  0  0  0  0
 50 51  1  0  0  0  0
 51 59  1  0  0  0  0
 51 52  2  0  0  0  0
  8  9  1  0  0  0  0
  9 17  1  0  0  0  0
  9 10  2  0  0  0  0
 30 31  1  0  0  0  0
 31 39  1  0  0  0  0
 31 32  2  0  0  0  0
 40 41  1  0  0  0  0
 41 49  1  0  0  0  0
 41 42  2  0  0  0  0
 50 53  1  0  0  0  0
 30 33  1  0  0  0  0
 59 60  1  0  0  0  0
 17 18  1  0  0  0  0
  8 11  1  0  0  0  0
 11 12  1  0  0  0  0
 40 43  1  0  0  0  0
 43 44  1  0  0  0  0
 49 50  1  0  0  0  0
  7  8  1  0  0  0  0
 29 30  1  0  0  0  0
 39 40  1  0  0  0  0
 12 44  1  0  0  0  0
  3  4  1  0  0  0  0
  3  5  1  0  0  0  0
  3  6  1  0  0  0  0
 25 26  1  0  0  0  0
 25 27  1  0  0  0  0
 25 28  1  0  0  0  0
 53 56  1  0  0  0  0
 53 57  1  0  0  0  0
 53 58  1  0  0  0  0
 33 36  1  0  0  0  0
 33 37  1  0  0  0  0
 33 38  1  0  0  0  0
 60 62  1  0  0  0  0
 60 63  1  0  0  0  0
 60 64  1  0  0  0  0
 18 20  1  0  0  0  0
 18 21  1  0  0  0  0
 18 22  1  0  0  0  0
 11 15  1  0  0  0  0
 11 16  1  0  0  0  0
 43 47  1  0  0  0  0
 43 48  1  0  0  0  0
 50 55  1  0  0  0  0
  8 14  1  0  0  0  0
 30 35  1  0  0  0  0
 40 46  1  0  0  0  0
 59 61  1  0  0  0  0
 17 19  1  0  0  0  0
  7 13  1  0  0  0  0
 29 34  1  0  0  0  0
 49 54  1  0  0  0  0
 39 45  1  0  0  0  0
M  END
$$$$

  -OEChem-05262214473D

 64 63  0     1  0  0  0  0  0999 V2000
   -2.6980    7.0994    4.7169 C   0  0  0  0  0  0  0  0  0  0  0  0
   -3.9035    6.9036    4.6164 O   0  0  0  0  0  0  0  0  0  0  0  0
   -2.1940    8.4858    4.9453 C   0  0  0  0  0  0  0  0  0  0  0  0
   -1.9901    9.0196    4.0032 H   0  0  0  0  0  0  0  0  0  0  0  0
   -2.9212    9.1140    5.4844 H   0  0  0  0  0  0  0  0  0  0  0  0
   -1.2612    8.5583    5.5271 H   0  0  0  0  0  0  0  0  0  0  0  0
   -1.7032    6.1398    4.6415 N   0  0  0  0  0  0  0  0  0  0  0  0
   -1.9690    4.7398    4.4276 C   0  0  2  0  0  0  0  0  0  0  0  0
   -0.9448    3.9173    5.2067 C   0  0  0  0  0  0  0  0  0  0  0  0
    0.0056    4.4212    5.8020 O   0  0  0  0  0  0  0  0  0  0  0  0
   -2.0330    4.3793    2.9414 C   0  0  0  0  0  0  0  0  0  0  0  0
   -0.4650    4.6488    2.0520 S   0  0  0  0  0  0  0  0  0  0  0  0
   -0.7355    6.4381    4.7421 H   0  0  0  0  0  0  0  0  0  0  0  0
   -2.9528    4.5548    4.8766 H   0  0  0  0  0  0  0  0  0  0  0  0
   -2.3058    3.3268    2.8126 H   0  0  0  0  0  0  0  0  0  0  0  0
   -2.8000    4.9827    2.4438 H   0  0  0  0  0  0  0  0  0  0  0  0
   -1.2031    2.5556    5.1378 N   0  0  0  0  0  0  0  0  0  0  0  0
   -0.3610    1.5697    5.7739 C   0  0  0  0  0  0  0  0  0  0  0  0
   -2.0370    2.2286    4.6590 H   0  0  0  0  0  0  0  0  0  0  0  0
    0.3967    1.2174    5.0585 H   0  0  0  0  0  0  0  0  0  0  0  0
    0.1384    2.0208    6.6441 H   0  0  0  0  0  0  0  0  0  0  0  0
   -0.9765    0.7200    6.1041 H   0  0  0  0  0  0  0  0  0  0  0  0
   -6.7256    2.0330   -0.2766 C   0  0  0  0  0  0  0  0  0  0  0  0
   -7.1824    1.1039   -0.9322 O   0  0  0  0  0  0  0  0  0  0  0  0
   -7.5276    2.6077    0.8435 C   0  0  0  0  0  0  0  0  0  0  0  0
   -8.1775    3.4344    0.5145 H   0  0  0  0  0  0  0  0  0  0  0  0
   -8.2057    1.8676    1.2980 H   0  0  0  0  0  0  0  0  0  0  0  0
   -6.9411    3.0162    1.6819 H   0  0  0  0  0  0  0  0  0  0  0  0
   -5.4935    2.6382   -0.4627 N   0  0  0  0  0  0  0  0  0  0  0  0
   -4.5619    2.2388   -1.4845 C   0  0  2  0  0  0  0  0  0  0  0  0
   -3.1535    2.4674   -0.9521 C   0  0  0  0  0  0  0  0  0  0  0  0
   -2.8634    3.3945   -0.1987 O   0  0  0  0  0  0  0  0  0  0  0  0
   -4.7883    3.0138   -2.7732 C   0  0  0  0  0  0  0  0  0  0  0  0
   -5.2337    3.4049    0.1551 H   0  0  0  0  0  0  0  0  0  0  0  0
   -4.7192    1.1682   -1.6549 H   0  0  0  0  0  0  0  0  0  0  0  0
   -4.6352    4.0886   -2.6221 H   0  0  0  0  0  0  0  0  0  0  0  0
   -4.0976    2.6887   -3.5582 H   0  0  0  0  0  0  0  0  0  0  0  0
   -5.8111    2.8719   -3.1387 H   0  0  0  0  0  0  0  0  0  0  0  0
   -2.2466    1.5400   -1.4507 N   0  0  0  0  0  0  0  0  0  0  0  0
   -0.8424    1.5707   -1.1286 C   0  0  2  0  0  0  0  0  0  0  0  0
   -0.2962    0.1448   -1.1614 C   0  0  0  0  0  0  0  0  0  0  0  0
   -0.5015   -0.6717   -0.2656 O   0  0  0  0  0  0  0  0  0  0  0  0
   -0.5627    2.2976    0.1892 C   0  0  0  0  0  0  0  0  0  0  0  0
   -0.9717    4.0594    0.1509 S   0  0  0  0  0  0  0  0  0  0  0  0
   -2.5850    0.7815   -2.0381 H   0  0  0  0  0  0  0  0  0  0  0  0
   -0.3650    2.1270   -1.9448 H   0  0  0  0  0  0  0  0  0  0  0  0
   -1.1351    1.8462    1.0061 H   0  0  0  0  0  0  0  0  0  0  0  0
    0.4993    2.2131    0.4438 H   0  0  0  0  0  0  0  0  0  0  0  0
    0.4663   -0.0992   -2.2948 N   0  0  0  0  0  0  0  0  0  0  0  0
    1.1110   -1.3678   -2.5418 C   0  0  2  0  0  0  0  0  0  0  0  0
    2.4019   -1.0988   -3.3038 C   0  0  0  0  0  0  0  0  0  0  0  0
    2.5197   -0.1911   -4.1244 O   0  0  0  0  0  0  0  0  0  0  0  0
    0.2044   -2.3065   -3.3226 C   0  0  0  0  0  0  0  0  0  0  0  0
    0.5483    0.6206   -3.0067 H   0  0  0  0  0  0  0  0  0  0  0  0
    1.3472   -1.7984   -1.5626 H   0  0  0  0  0  0  0  0  0  0  0  0
   -0.0431   -1.8918   -4.3066 H   0  0  0  0  0  0  0  0  0  0  0  0
    0.6837   -3.2777   -3.4842 H   0  0  0  0  0  0  0  0  0  0  0  0
   -0.7360   -2.4752   -2.7869 H   0  0  0  0  0  0  0  0  0  0  0  0
    3.3935   -2.0182   -2.9916 N   0  0  0  0  0  0  0  0  0  0  0  0
    4.6965   -2.0013   -3.6145 C   0  0  0  0  0  0  0  0  0  0  0  0
    3.2220   -2.7126   -2.2704 H   0  0  0  0  0  0  0  0  0  0  0  0
    4.6919   -2.6626   -4.4935 H   0  0  0  0  0  0  0  0  0  0  0  0
    4.9392   -0.9755   -3.9288 H   0  0  0  0  0  0  0  0  0  0  0  0
    5.4511   -2.3527   -2.8954 H   0  0  0  0  0  0  0  0  0  0  0  0
  1  3  1  0  0  0  0
  1  7  1  0  0  0  0
  1  2  2  0  0  0  0
 23 25  1  0  0  0  0
 23 29  1  0  0  0  0
 23 24  2  0  0  0  0
 50 51  1  0  0  0  0
 51 59  1  0  0  0  0
 51 52  2  0  0  0  0
  8  9  1  0  0  0  0
  9 17  1  0  0  0  0
  9 10  2  0  0  0  0
 30 31  1  0  0  0  0
 31 39  1  0  0  0  0
 31 32  2  0  0  0  0
 40 41  1  0  0  0  0
 41 49  1  0  0  0  0
 41 42  2  0  0  0  0
 50 53  1  0  0  0  0
 30 33  1  0  0  0  0
 59 60  1  0  0  0  0
 17 18  1  0  0  0  0
  8 11  1  0  0  0  0
 11 12  1  0  0  0  0
 40 43  1  0  0  0  0
 43 44  1  0  0  0  0
 49 50  1  0  0  0  0
  7  8  1  0  0  0  0
 29 30  1  0  0  0  0
 39 40  1  0  0  0  0
 12 44  1  0  0  0  0
  3  4  1  0  0  0  0
  3  5  1  0  0  0  0
  3  6  1  0  0  0  0
 25 26  1  0  0  0  0
 25 27  1  0  0  0  0
 25 28  1  0  0  0  0
 53 56  1  0  0  0  0
 53 57  1  0  0  0  0
 53 58  1  0  0  0  0
 33 36  1  0  0  0  0
 33 37  1  0  0  0  0
 33 38  1  0  0  0  0
 60 62  1  0  0  0  0
 60 63  1  0  0  0  0
 60 64  1  0  0  0  0
 18 20  1  0  0  0  0
 18 21  1  0  0  0  0
 18 22  1  0  0  0  0
 11 15  1  0  0  0  0
 11 16  1  0  0  0  0
 43 47  1  0  0  0  0
 43 48  1  0  0  0  0
 50 55  1  0  0  0  0
  8 14  1  0  0  0  0
 30 35  1  0  0  0  0
 40 46  1  0  0  0  0
 59 61  1  0  0  0  0
 17 19  1  0  0  0  0
  7 13  1  0  0  0  0
 29 34  1  0  0  0  0
 49 54  1  0  0  0  0
 39 45  1  0  0  0  0
M  END
$$$$

  -OEChem-05262214473D

 64 63  0     1  0  0  0  0  0999 V2000
   -2.6980    7.0994    4.7169 C   0  0  0  0  0  0  0  0  0  0  0  0
   -3.9035    6.9036    4.6164 O   0  0  0  0  0  0  0  0  0  0  0  0
   -2.1940    8.4858    4.9453 C   0  0  0  0  0  0  0  0  0  0  0  0
   -1.9901    9.0196    4.0032 H   0  0  0  0  0  0  0  0  0  0  0  0
   -2.9212    9.1140    5.4844 H   0  0  0  0  0  0  0  0  0  0  0  0
   -1.2612    8.5583    5.5271 H   0  0  0  0  0  0  0  0  0  0  0  0
   -1.7032    6.1398    4.6415 N   0  0  0  0  0  0  0  0  0  0  0  0
   -1.9690    4.7398    4.4276 C   0  0  2  0  0  0  0  0  0  0  0  0
   -0.9448    3.9173    5.2067 C   0  0  0  0  0  0  0  0  0  0  0  0
    0.0056    4.4212    5.8020 O   0  0  0  0  0  0  0  0  0  0  0  0
   -2.0330    4.3793    2.9414 C   0  0  0  0  0  0  0  0  0  0  0  0
   -0.4650    4.6488    2.0520 S   0  0  0  0  0  0  0  0  0  0  0  0
   -0.7355    6.4381    4.7421 H   0  0  0  0  0  0  0  0  0  0  0  0
   -2.9528    4.5548    4.8766 H   0  0  0  0  0  0  0  0  0  0  0  0
   -2.3058    3.3268    2.8126 H   0  0  0  0  0  0  0  0  0  0  0  0
   -2.8000    4.9827    2.4438 H   0  0  0  0  0  0  0  0  0  0  0  0
   -1.2031    2.5556    5.1378 N   0  0  0  0  0  0  0  0  0  0  0  0
   -0.3610    1.5697    5.7739 C   0  0  0  0  0  0  0  0  0  0  0  0
   -2.0370    2.2286    4.6590 H   0  0  0  0  0  0  0  0  0  0  0  0
    0.3967    1.2174    5.0585 H   0  0  0  0  0  0  0  0  0  0  0  0
    0.1384    2.0208    6.6441 H   0  0  0  0  0  0  0  0  0  0  0  0
   -0.9765    0.7200    6.1041 H   0  0  0  0  0  0  0  0  0  0  0  0
   -6.7256    2.0330   -0.2766 C   0  0  0  0  0  0  0  0  0  0  0  0
   -7.1824    1.1039   -0.9322 O   0  0  0  0  0  0  0  0  0  0  0  0
   -7.5276    2.6077    0.8435 C   0  0  0  0  0  0  0  0  0  0  0  0
   -8.1775    3.4344    0.5145 H   0  0  0  0  0  0  0  0  0  0  0  0
   -8.2057    1.8676    1.2980 H   0  0  0  0  0  0  0  0  0  0  0  0
   -6.9411    3.0162    1.6819 H   0  0  0  0  0  0  0  0  0  0  0  0
   -5.4935    2.6382   -0.4627 N   0  0  0  0  0  0  0  0  0  0  0  0
   -4.5619    2.2388   -1.4845 C   0  0  2  0  0  0  0  0  0  0  0  0
   -3.1535    2.4674   -0.9521 C   0  0  0  0  0  0  0  0  0  0  0  0
   -2.8634    3.3945   -0.1987 O   0  0  0  0  0  0  0  0  0  0  0  0
   -4.7883    3.0138   -2.7732 C   0  0  0  0  0  0  0  0  0  0  0  0
   -5.2337    3.4049    0.1551 H   0  0  0  0  0  0  0  0  0  0  0  0
   -4.7192    1.1682   -1.6549 H   0  0  0  0  0  0  0  0  0  0  0  0
   -4.6352    4.0886   -2.6221 H   0  0  0  0  0  0  0  0  0  0  0  0
   -4.0976    2.6887   -3.5582 H   0  0  0  0  0  0  0  0  0  0  0  0
   -5.8111    2.8719   -3.1387 H   0  0  0  0  0  0  0  0  0  0  0  0
   -2.2466    1.5400   -1.4507 N   0  0  0  0  0  0  0  0  0  0  0  0
   -0.8424    1.5707   -1.1286 C   0  0  2  0  0  0  0  0  0  0  0  0
   -0.2962    0.1448   -1.1614 C   0  0  0  0  0  0  0  0  0  0  0  0
   -0.7074   -0.7470   -0.4218 O   0  0  0  0  0  0  0  0  0  0  0  0
   -0.5627    2.2976    0.1892 C   0  0  0  0  0  0  0  0  0  0  0  0
   -0.9717    4.0594    0.1509 S   0  0  0  0  0  0  0  0  0  0  0  0
   -2.5850    0.7815   -2.0381 H   0  0  0  0  0  0  0  0  0  0  0  0
   -0.3650    2.1270   -1.9448 H   0  0  0  0  0  0  0  0  0  0  0  0
   -1.1351    1.8462    1.0061 H   0  0  0  0  0  0  0  0  0  0  0  0
    0.4993    2.2131    0.4438 H   0  0  0  0  0  0  0  0  0  0  0  0
    0.7192   -0.0069   -2.0949 N   0  0  0  0  0  0  0  0  0  0  0  0
    1.4119   -1.2582   -2.2961 C   0  0  2  0  0  0  0  0  0  0  0  0
    2.8472   -0.9422   -2.6956 C   0  0  0  0  0  0  0  0  0  0  0  0
    3.1548    0.0348   -3.3751 O   0  0  0  0  0  0  0  0  0  0  0  0
    0.7265   -2.1057   -3.3567 C   0  0  0  0  0  0  0  0  0  0  0  0
    0.9668    0.7738   -2.6956 H   0  0  0  0  0  0  0  0  0  0  0  0
    1.4067   -1.7809   -1.3335 H   0  0  0  0  0  0  0  0  0  0  0  0
    0.7220   -1.5983   -4.3283 H   0  0  0  0  0  0  0  0  0  0  0  0
    1.2363   -3.0659   -3.4877 H   0  0  0  0  0  0  0  0  0  0  0  0
   -0.3145   -2.3069   -3.0820 H   0  0  0  0  0  0  0  0  0  0  0  0
    3.7392   -1.9031   -2.2403 N   0  0  0  0  0  0  0  0  0  0  0  0
    5.1540   -1.8512   -2.5259 C   0  0  0  0  0  0  0  0  0  0  0  0
    3.4022   -2.6578   -1.6498 H   0  0  0  0  0  0  0  0  0  0  0  0
    5.3660   -2.4287   -3.4378 H   0  0  0  0  0  0  0  0  0  0  0  0
    5.4596   -0.8051   -2.6753 H   0  0  0  0  0  0  0  0  0  0  0  0
    5.7143   -2.2799   -1.6820 H   0  0  0  0  0  0  0  0  0  0  0  0
  1  3  1  0  0  0  0
  1  7  1  0  0  0  0
  1  2  2  0  0  0  0
 23 25  1  0  0  0  0
 23 29  1  0  0  0  0
 23 24  2  0  0  0  0
 50 51  1  0  0  0  0
 51 59  1  0  0  0  0
 51 52  2  0  0  0  0
  8  9  1  0  0  0  0
  9 17  1  0  0  0  0
  9 10  2  0  0  0  0
 30 31  1  0  0  0  0
 31 39  1  0  0  0  0
 31 32  2  0  0  0  0
 40 41  1  0  0  0  0
 41 49  1  0  0  0  0
 41 42  2  0  0  0  0
 50 53  1  0  0  0  0
 30 33  1  0  0  0  0
 59 60  1  0  0  0  0
 17 18  1  0  0  0  0
  8 11  1  0  0  0  0
 11 12  1  0  0  0  0
 40 43  1  0  0  0  0
 43 44  1  0  0  0  0
 49 50  1  0  0  0  0
  7  8  1  0  0  0  0
 29 30  1  0  0  0  0
 39 40  1  0  0  0  0
 12 44  1  0  0  0  0
  3  4  1  0  0  0  0
  3  5  1  0  0  0  0
  3  6  1  0  0  0  0
 25 26  1  0  0  0  0
 25 27  1  0  0  0  0
 25 28  1  0  0  0  0
 53 56  1  0  0  0  0
 53 57  1  0  0  0  0
 53 58  1  0  0  0  0
 33 36  1  0  0  0  0
 33 37  1  0  0  0  0
 33 38  1  0  0  0  0
 60 62  1  0  0  0  0
 60 63  1  0  0  0  0
 60 64  1  0  0  0  0
 18 20  1  0  0  0  0
 18 21  1  0  0  0  0
 18 22  1  0  0  0  0
 11 15  1  0  0  0  0
 11 16  1  0  0  0  0
 43 47  1  0  0  0  0
 43 48  1  0  0  0  0
 50 55  1  0  0  0  0
  8 14  1  0  0  0  0
 30 35  1  0  0  0  0
 40 46  1  0  0  0  0
 59 61  1  0  0  0  0
 17 19  1  0  0  0  0
  7 13  1  0  0  0  0
 29 34  1  0  0  0  0
 49 54  1  0  0  0  0
 39 45  1  0  0  0  0
M  END
$$$$

  -OEChem-05262214473D

 64 63  0     1  0  0  0  0  0999 V2000
   -2.6980    7.0994    4.7169 C   0  0  0  0  0  0  0  0  0  0  0  0
   -3.9035    6.9036    4.6164 O   0  0  0  0  0  0  0  0  0  0  0  0
   -2.1940    8.4858    4.9453 C   0  0  0  0  0  0  0  0  0  0  0  0
   -1.9901    9.0196    4.0032 H   0  0  0  0  0  0  0  0  0  0  0  0
   -2.9212    9.1140    5.4844 H   0  0  0  0  0  0  0  0  0  0  0  0
   -1.2612    8.5583    5.5271 H   0  0  0  0  0  0  0  0  0  0  0  0
   -1.7032    6.1398    4.6415 N   0  0  0  0  0  0  0  0  0  0  0  0
   -1.9690    4.7398    4.4276 C   0  0  2  0  0  0  0  0  0  0  0  0
   -0.9448    3.9173    5.2067 C   0  0  0  0  0  0  0  0  0  0  0  0
    0.0056    4.4212    5.8020 O   0  0  0  0  0  0  0  0  0  0  0  0
   -2.0330    4.3793    2.9414 C   0  0  0  0  0  0  0  0  0  0  0  0
   -0.4650    4.6488    2.0520 S   0  0  0  0  0  0  0  0  0  0  0  0
   -0.7355    6.4381    4.7421 H   0  0  0  0  0  0  0  0  0  0  0  0
   -2.9528    4.5548    4.8766 H   0  0  0  0  0  0  0  0  0  0  0  0
   -2.3058    3.3268    2.8126 H   0  0  0  0  0  0  0  0  0  0  0  0
   -2.8000    4.9827    2.4438 H   0  0  0  0  0  0  0  0  0  0  0  0
   -1.2031    2.5556    5.1378 N   0  0  0  0  0  0  0  0  0  0  0  0
   -0.3610    1.5697    5.7739 C   0  0  0  0  0  0  0  0  0  0  0  0
   -2.0370    2.2286    4.6590 H   0  0  0  0  0  0  0  0  0  0  0  0
    0.3967    1.2174    5.0585 H   0  0  0  0  0  0  0  0  0  0  0  0
    0.1384    2.0208    6.6441 H   0  0  0  0  0  0  0  0  0  0  0  0
   -0.9765    0.7200    6.1041 H   0  0  0  0  0  0  0  0  0  0  0  0
   -6.7256    2.0330   -0.2766 C   0  0  0  0  0  0  0  0  0  0  0  0
   -7.1824    1.1039   -0.9322 O   0  0  0  0  0  0  0  0  0  0  0  0
   -7.5276    2.6077    0.8435 C   0  0  0  0  0  0  0  0  0  0  0  0
   -8.1775    3.4344    0.5145 H   0  0  0  0  0  0  0  0  0  0  0  0
   -8.2057    1.8676    1.2980 H   0  0  0  0  0  0  0  0  0  0  0  0
   -6.9411    3.0162    1.6819 H   0  0  0  0  0  0  0  0  0  0  0  0
   -5.4935    2.6382   -0.4627 N   0  0  0  0  0  0  0  0  0  0  0  0
   -4.5619    2.2388   -1.4845 C   0  0  2  0  0  0  0  0  0  0  0  0
   -3.1535    2.4674   -0.9521 C   0  0  0  0  0  0  0  0  0  0  0  0
   -2.8634    3.3945   -0.1987 O   0  0  0  0  0  0  0  0  0  0  0  0
   -4.7883    3.0138   -2.7732 C   0  0  0  0  0  0  0  0  0  0  0  0
   -5.2337    3.4049    0.1551 H   0  0  0  0  0  0  0  0  0  0  0  0
   -4.7192    1.1682   -1.6549 H   0  0  0  0  0  0  0  0  0  0  0  0
   -4.6352    4.0886   -2.6221 H   0  0  0  0  0  0  0  0  0  0  0  0
   -4.0976    2.6887   -3.5582 H   0  0  0  0  0  0  0  0  0  0  0  0
   -5.8111    2.8719   -3.1387 H   0  0  0  0  0  0  0  0  0  0  0  0
   -2.2466    1.5400   -1.4507 N   0  0  0  0  0  0  0  0  0  0  0  0
   -0.8424    1.5707   -1.1286 C   0  0  2  0  0  0  0  0  0  0  0  0
   -0.2962    0.1448   -1.1614 C   0  0  0  0  0  0  0  0  0  0  0  0
   -0.8689   -0.8041   -0.6294 O   0  0  0  0  0  0  0  0  0  0  0  0
   -0.5627    2.2976    0.1892 C   0  0  0  0  0  0  0  0  0  0  0  0
   -0.9717    4.0594    0.1509 S   0  0  0  0  0  0  0  0  0  0  0  0
   -2.5850    0.7815   -2.0381 H   0  0  0  0  0  0  0  0  0  0  0  0
   -0.3650    2.1270   -1.9448 H   0  0  0  0  0  0  0  0  0  0  0  0
   -1.1351    1.8462    1.0061 H   0  0  0  0  0  0  0  0  0  0  0  0
    0.4993    2.2131    0.4438 H   0  0  0  0  0  0  0  0  0  0  0  0
    0.9158    0.0623   -1.8322 N   0  0  0  0  0  0  0  0  0  0  0  0
    1.6437   -1.1767   -1.9760 C   0  0  2  0  0  0  0  0  0  0  0  0
    3.1312   -0.8498   -1.9859 C   0  0  0  0  0  0  0  0  0  0  0  0
    3.5883    0.1802   -2.4770 O   0  0  0  0  0  0  0  0  0  0  0  0
    1.2402   -1.9115   -3.2449 C   0  0  0  0  0  0  0  0  0  0  0  0
    1.2968    0.8906   -2.2799 H   0  0  0  0  0  0  0  0  0  0  0  0
    1.4089   -1.7855   -1.0961 H   0  0  0  0  0  0  0  0  0  0  0  0
    1.4679   -1.3169   -4.1372 H   0  0  0  0  0  0  0  0  0  0  0  0
    1.7721   -2.8641   -3.3379 H   0  0  0  0  0  0  0  0  0  0  0  0
    0.1648   -2.1195   -3.2496 H   0  0  0  0  0  0  0  0  0  0  0  0
    3.8921   -1.8634   -1.4205 N   0  0  0  0  0  0  0  0  0  0  0  0
    5.3337   -1.8095   -1.3500 C   0  0  0  0  0  0  0  0  0  0  0  0
    3.4268   -2.6634   -1.0018 H   0  0  0  0  0  0  0  0  0  0  0  0
    5.7633   -2.3043   -2.2335 H   0  0  0  0  0  0  0  0  0  0  0  0
    5.6603   -0.7594   -1.3230 H   0  0  0  0  0  0  0  0  0  0  0  0
    5.6756   -2.3233   -0.4395 H   0  0  0  0  0  0  0  0  0  0  0  0
  1  3  1  0  0  0  0
  1  7  1  0  0  0  0
  1  2  2  0  0  0  0
 23 25  1  0  0  0  0
 23 29  1  0  0  0  0
 23 24  2  0  0  0  0
 50 51  1  0  0  0  0
 51 59  1  0  0  0  0
 51 52  2  0  0  0  0
  8  9  1  0  0  0  0
  9 17  1  0  0  0  0
  9 10  2  0  0  0  0
 30 31  1  0  0  0  0
 31 39  1  0  0  0  0
 31 32  2  0  0  0  0
 40 41  1  0  0  0  0
 41 49  1  0  0  0  0
 41 42  2  0  0  0  0
 50 53  1  0  0  0  0
 30 33  1  0  0  0  0
 59 60  1  0  0  0  0
 17 18  1  0  0  0  0
  8 11  1  0  0  0  0
 11 12  1  0  0  0  0
 40 43  1  0  0  0  0
 43 44  1  0  0  0  0
 49 50  1  0  0  0  0
  7  8  1  0  0  0  0
 29 30  1  0  0  0  0
 39 40  1  0  0  0  0
 12 44  1  0  0  0  0
  3  4  1  0  0  0  0
  3  5  1  0  0  0  0
  3  6  1  0  0  0  0
 25 26  1  0  0  0  0
 25 27  1  0  0  0  0
 25 28  1  0  0  0  0
 53 56  1  0  0  0  0
 53 57  1  0  0  0  0
 53 58  1  0  0  0  0
 33 36  1  0  0  0  0
 33 37  1  0  0  0  0
 33 38  1  0  0  0  0
 60 62  1  0  0  0  0
 60 63  1  0  0  0  0
 60 64  1  0  0  0  0
 18 20  1  0  0  0  0
 18 21  1  0  0  0  0
 18 22  1  0  0  0  0
 11 15  1  0  0  0  0
 11 16  1  0  0  0  0
 43 47  1  0  0  0  0
 43 48  1  0  0  0  0
 50 55  1  0  0  0  0
  8 14  1  0  0  0  0
 30 35  1  0  0  0  0
 40 46  1  0  0  0  0
 59 61  1  0  0  0  0
 17 19  1  0  0  0  0
  7 13  1  0  0  0  0
 29 34  1  0  0  0  0
 49 54  1  0  0  0  0
 39 45  1  0  0  0  0
M  END
$$$$

  -OEChem-05262214473D

 64 63  0     1  0  0  0  0  0999 V2000
   -2.6980    7.0994    4.7169 C   0  0  0  0  0  0  0  0  0  0  0  0
   -3.9035    6.9036    4.6164 O   0  0  0  0  0  0  0  0  0  0  0  0
   -2.1940    8.4858    4.9453 C   0  0  0  0  0  0  0  0  0  0  0  0
   -1.9901    9.0196    4.0032 H   0  0  0  0  0  0  0  0  0  0  0  0
   -2.9212    9.1140    5.4844 H   0  0  0  0  0  0  0  0  0  0  0  0
   -1.2612    8.5583    5.5271 H   0  0  0  0  0  0  0  0  0  0  0  0
   -1.7032    6.1398    4.6415 N   0  0  0  0  0  0  0  0  0  0  0  0
   -1.9690    4.7398    4.4276 C   0  0  2  0  0  0  0  0  0  0  0  0
   -0.9448    3.9173    5.2067 C   0  0  0  0  0  0  0  0  0  0  0  0
    0.0056    4.4212    5.8020 O   0  0  0  0  0  0  0  0  0  0  0  0
   -2.0330    4.3793    2.9414 C   0  0  0  0  0  0  0  0  0  0  0  0
   -0.4650    4.6488    2.0520 S   0  0  0  0  0  0  0  0  0  0  0  0
   -0.7355    6.4381    4.7421 H   0  0  0  0  0  0  0  0  0  0  0  0
   -2.9528    4.5548    4.8766 H   0  0  0  0  0  0  0  0  0  0  0  0
   -2.3058    3.3268    2.8126 H   0  0  0  0  0  0  0  0  0  0  0  0
   -2.8000    4.9827    2.4438 H   0  0  0  0  0  0  0  0  0  0  0  0
   -1.2031    2.5556    5.1378 N   0  0  0  0  0  0  0  0  0  0  0  0
   -0.3610    1.5697    5.7739 C   0  0  0  0  0  0  0  0  0  0  0  0
   -2.0370    2.2286    4.6590 H   0  0  0  0  0  0  0  0  0  0  0  0
    0.3967    1.2174    5.0585 H   0  0  0  0  0  0  0  0  0  0  0  0
    0.1384    2.0208    6.6441 H   0  0  0  0  0  0  0  0  0  0  0  0
   -0.9765    0.7200    6.1041 H   0  0  0  0  0  0  0  0  0  0  0  0
   -6.7256    2.0330   -0.2766 C   0  0  0  0  0  0  0  0  0  0  0  0
   -7.1824    1.1039   -0.9322 O   0  0  0  0  0  0  0  0  0  0  0  0
   -7.5276    2.6077    0.8435 C   0  0  0  0  0  0  0  0  0  0  0  0
   -8.1775    3.4344    0.5145 H   0  0  0  0  0  0  0  0  0  0  0  0
   -8.2057    1.8676    1.2980 H   0  0  0  0  0  0  0  0  0  0  0  0
   -6.9411    3.0162    1.6819 H   0  0  0  0  0  0  0  0  0  0  0  0
   -5.4935    2.6382   -0.4627 N   0  0  0  0  0  0  0  0  0  0  0  0
   -4.5619    2.2388   -1.4845 C   0  0  2  0  0  0  0  0  0  0  0  0
   -3.1535    2.4674   -0.9521 C   0  0  0  0  0  0  0  0  0  0  0  0
   -2.8634    3.3945   -0.1987 O   0  0  0  0  0  0  0  0  0  0  0  0
   -4.7883    3.0138   -2.7732 C   0  0  0  0  0  0  0  0  0  0  0  0
   -5.2337    3.4049    0.1551 H   0  0  0  0  0  0  0  0  0  0  0  0
   -4.7192    1.1682   -1.6549 H   0  0  0  0  0  0  0  0  0  0  0  0
   -4.6352    4.0886   -2.6221 H   0  0  0  0  0  0  0  0  0  0  0  0
   -4.0976    2.6887   -3.5582 H   0  0  0  0  0  0  0  0  0  0  0  0
   -5.8111    2.8719   -3.1387 H   0  0  0  0  0  0  0  0  0  0  0  0
   -2.2466    1.5400   -1.4507 N   0  0  0  0  0  0  0  0  0  0  0  0
   -0.8424    1.5707   -1.1286 C   0  0  2  0  0  0  0  0  0  0  0  0
   -0.2962    0.1448   -1.1614 C   0  0  0  0  0  0  0  0  0  0  0  0
   -0.9751   -0.8391   -0.8742 O   0  0  0  0  0  0  0  0  0  0  0  0
   -0.5627    2.2976    0.1892 C   0  0  0  0  0  0  0  0  0  0  0  0
   -0.9717    4.0594    0.1509 S   0  0  0  0  0  0  0  0  0  0  0  0
   -2.5850    0.7815   -2.0381 H   0  0  0  0  0  0  0  0  0  0  0  0
   -0.3650    2.1270   -1.9448 H   0  0  0  0  0  0  0  0  0  0  0  0
   -1.1351    1.8462    1.0061 H   0  0  0  0  0  0  0  0  0  0  0  0
    0.4993    2.2131    0.4438 H   0  0  0  0  0  0  0  0  0  0  0  0
    1.0425    0.1037   -1.5245 N   0  0  0  0  0  0  0  0  0  0  0  0
    1.7908   -1.1290   -1.6032 C   0  0  2  0  0  0  0  0  0  0  0  0
    3.2346   -0.8278   -1.2233 C   0  0  0  0  0  0  0  0  0  0  0  0
    3.7909    0.2351   -1.4912 O   0  0  0  0  0  0  0  0  0  0  0  0
    1.7105   -1.7371   -2.9948 C   0  0  0  0  0  0  0  0  0  0  0  0
    1.5157    0.9631   -1.7877 H   0  0  0  0  0  0  0  0  0  0  0  0
    1.3536   -1.8120   -0.8667 H   0  0  0  0  0  0  0  0  0  0  0  0
    2.1438   -1.0671   -3.7463 H   0  0  0  0  0  0  0  0  0  0  0  0
    2.2546   -2.6860   -3.0451 H   0  0  0  0  0  0  0  0  0  0  0  0
    0.6694   -1.9255   -3.2783 H   0  0  0  0  0  0  0  0  0  0  0  0
    3.8420   -1.9018   -0.5879 N   0  0  0  0  0  0  0  0  0  0  0  0
    5.2233   -1.8790   -0.1669 C   0  0  0  0  0  0  0  0  0  0  0  0
    3.2938   -2.7288   -0.3704 H   0  0  0  0  0  0  0  0  0  0  0  0
    5.8568   -2.2978   -0.9627 H   0  0  0  0  0  0  0  0  0  0  0  0
    5.5276   -0.8415    0.0360 H   0  0  0  0  0  0  0  0  0  0  0  0
    5.3379   -2.4801    0.7472 H   0  0  0  0  0  0  0  0  0  0  0  0
  1  3  1  0  0  0  0
  1  7  1  0  0  0  0
  1  2  2  0  0  0  0
 23 25  1  0  0  0  0
 23 29  1  0  0  0  0
 23 24  2  0  0  0  0
 50 51  1  0  0  0  0
 51 59  1  0  0  0  0
 51 52  2  0  0  0  0
  8  9  1  0  0  0  0
  9 17  1  0  0  0  0
  9 10  2  0  0  0  0
 30 31  1  0  0  0  0
 31 39  1  0  0  0  0
 31 32  2  0  0  0  0
 40 41  1  0  0  0  0
 41 49  1  0  0  0  0
 41 42  2  0  0  0  0
 50 53  1  0  0  0  0
 30 33  1  0  0  0  0
 59 60  1  0  0  0  0
 17 18  1  0  0  0  0
  8 11  1  0  0  0  0
 11 12  1  0  0  0  0
 40 43  1  0  0  0  0
 43 44  1  0  0  0  0
 49 50  1  0  0  0  0
  7  8  1  0  0  0  0
 29 30  1  0  0  0  0
 39 40  1  0  0  0  0
 12 44  1  0  0  0  0
  3  4  1  0  0  0  0
  3  5  1  0  0  0  0
  3  6  1  0  0  0  0
 25 26  1  0  0  0  0
 25 27  1  0  0  0  0
 25 28  1  0  0  0  0
 53 56  1  0  0  0  0
 53 57  1  0  0  0  0
 53 58  1  0  0  0  0
 33 36  1  0  0  0  0
 33 37  1  0  0  0  0
 33 38  1  0  0  0  0
 60 62  1  0  0  0  0
 60 63  1  0  0  0  0
 60 64  1  0  0  0  0
 18 20  1  0  0  0  0
 18 21  1  0  0  0  0
 18 22  1  0  0  0  0
 11 15  1  0  0  0  0
 11 16  1  0  0  0  0
 43 47  1  0  0  0  0
 43 48  1  0  0  0  0
 50 55  1  0  0  0  0
  8 14  1  0  0  0  0
 30 35  1  0  0  0  0
 40 46  1  0  0  0  0
 59 61  1  0  0  0  0
 17 19  1  0  0  0  0
  7 13  1  0  0  0  0
 29 34  1  0  0  0  0
 49 54  1  0  0  0  0
 39 45  1  0  0  0  0
M  END
$$$$

  -OEChem-05262214473D

 64 63  0     1  0  0  0  0  0999 V2000
   -2.6980    7.0994    4.7169 C   0  0  0  0  0  0  0  0  0  0  0  0
   -3.9035    6.9036    4.6164 O   0  0  0  0  0  0  0  0  0  0  0  0
   -2.1940    8.4858    4.9453 C   0  0  0  0  0  0  0  0  0  0  0  0
   -1.9901    9.0196    4.0032 H   0  0  0  0  0  0  0  0  0  0  0  0
   -2.9212    9.1140    5.4844 H   0  0  0  0  0  0  0  0  0  0  0  0
   -1.2612    8.5583    5.5271 H   0  0  0  0  0  0  0  0  0  0  0  0
   -1.7032    6.1398    4.6415 N   0  0  0  0  0  0  0  0  0  0  0  0
   -1.9690    4.7398    4.4276 C   0  0  2  0  0  0  0  0  0  0  0  0
   -0.9448    3.9173    5.2067 C   0  0  0  0  0  0  0  0  0  0  0  0
    0.0056    4.4212    5.8020 O   0  0  0  0  0  0  0  0  0  0  0  0
   -2.0330    4.3793    2.9414 C   0  0  0  0  0  0  0  0  0  0  0  0
   -0.4650    4.6488    2.0520 S   0  0  0  0  0  0  0  0  0  0  0  0
   -0.7355    6.4381    4.7421 H   0  0  0  0  0  0  0  0  0  0  0  0
   -2.9528    4.5548    4.8766 H   0  0  0  0  0  0  0  0  0  0  0  0
   -2.3058    3.3268    2.8126 H   0  0  0  0  0  0  0  0  0  0  0  0
   -2.8000    4.9827    2.4438 H   0  0  0  0  0  0  0  0  0  0  0  0
   -1.2031    2.5556    5.1378 N   0  0  0  0  0  0  0  0  0  0  0  0
   -0.3610    1.5697    5.7739 C   0  0  0  0  0  0  0  0  0  0  0  0
   -2.0370    2.2286    4.6590 H   0  0  0  0  0  0  0  0  0  0  0  0
    0.3967    1.2174    5.0585 H   0  0  0  0  0  0  0  0  0  0  0  0
    0.1384    2.0208    6.6441 H   0  0  0  0  0  0  0  0  0  0  0  0
   -0.9765    0.7200    6.1041 H   0  0  0  0  0  0  0  0  0  0  0  0
   -6.7256    2.0330   -0.2766 C   0  0  0  0  0  0  0  0  0  0  0  0
   -7.1824    1.1039   -0.9322 O   0  0  0  0  0  0  0  0  0  0  0  0
   -7.5276    2.6077    0.8435 C   0  0  0  0  0  0  0  0  0  0  0  0
   -8.1775    3.4344    0.5145 H   0  0  0  0  0  0  0  0  0  0  0  0
   -8.2057    1.8676    1.2980 H   0  0  0  0  0  0  0  0  0  0  0  0
   -6.9411    3.0162    1.6819 H   0  0  0  0  0  0  0  0  0  0  0  0
   -5.4935    2.6382   -0.4627 N   0  0  0  0  0  0  0  0  0  0  0  0
   -4.5619    2.2388   -1.4845 C   0  0  2  0  0  0  0  0  0  0  0  0
   -3.1535    2.4674   -0.9521 C   0  0  0  0  0  0  0  0  0  0  0  0
   -2.8634    3.3945   -0.1987 O   0  0  0  0  0  0  0  0  0  0  0  0
   -4.7883    3.0138   -2.7732 C   0  0  0  0  0  0  0  0  0  0  0  0
   -5.2337    3.4049    0.1551 H   0  0  0  0  0  0  0  0  0  0  0  0
   -4.7192    1.1682   -1.6549 H   0  0  0  0  0  0  0  0  0  0  0  0
   -4.6352    4.0886   -2.6221 H   0  0  0  0  0  0  0  0  0  0  0  0
   -4.0976    2.6887   -3.5582 H   0  0  0  0  0  0  0  0  0  0  0  0
   -5.8111    2.8719   -3.1387 H   0  0  0  0  0  0  0  0  0  0  0  0
   -2.2466    1.5400   -1.4507 N   0  0  0  0  0  0  0  0  0  0  0  0
   -0.8424    1.5707   -1.1286 C   0  0  2  0  0  0  0  0  0  0  0  0
   -0.2962    0.1448   -1.1614 C   0  0  0  0  0  0  0  0  0  0  0  0
   -1.0187   -0.8497   -1.1396 O   0  0  0  0  0  0  0  0  0  0  0  0
   -0.5627    2.2976    0.1892 C   0  0  0  0  0  0  0  0  0  0  0  0
   -0.9717    4.0594    0.1509 S   0  0  0  0  0  0  0  0  0  0  0  0
   -2.5850    0.7815   -2.0381 H   0  0  0  0  0  0  0  0  0  0  0  0
   -0.3650    2.1270   -1.9448 H   0  0  0  0  0  0  0  0  0  0  0  0
   -1.1351    1.8462    1.0061 H   0  0  0  0  0  0  0  0  0  0  0  0
    0.4993    2.2131    0.4438 H   0  0  0  0  0  0  0  0  0  0  0  0
    1.0907    0.1146   -1.1928 N   0  0  0  0  0  0  0  0  0  0  0  0
    1.8431   -1.1182   -1.2032 C   0  0  2  0  0  0  0  0  0  0  0  0
    3.1503   -0.8777   -0.4596 C   0  0  0  0  0  0  0  0  0  0  0  0
    3.7487    0.1957   -0.4850 O   0  0  0  0  0  0  0  0  0  0  0  0
    2.1053   -1.5945   -2.6234 C   0  0  0  0  0  0  0  0  0  0  0  0
    1.6086    0.9863   -1.2527 H   0  0  0  0  0  0  0  0  0  0  0  0
    1.2447   -1.8585   -0.6610 H   0  0  0  0  0  0  0  0  0  0  0  0
    2.7036   -0.8656   -3.1823 H   0  0  0  0  0  0  0  0  0  0  0  0
    2.6509   -2.5438   -2.6292 H   0  0  0  0  0  0  0  0  0  0  0  0
    1.1648   -1.7383   -3.1662 H   0  0  0  0  0  0  0  0  0  0  0  0
    3.5922   -2.0157    0.2006 N   0  0  0  0  0  0  0  0  0  0  0  0
    4.8305   -2.0551    0.9428 C   0  0  0  0  0  0  0  0  0  0  0  0
    3.0125   -2.8498    0.2013 H   0  0  0  0  0  0  0  0  0  0  0  0
    5.6400   -2.4096    0.2880 H   0  0  0  0  0  0  0  0  0  0  0  0
    5.0706   -1.0459    1.3090 H   0  0  0  0  0  0  0  0  0  0  0  0
    4.7240   -2.7394    1.7974 H   0  0  0  0  0  0  0  0  0  0  0  0
  1  3  1  0  0  0  0
  1  7  1  0  0  0  0
  1  2  2  0  0  0  0
 23 25  1  0  0  0  0
 23 29  1  0  0  0  0
 23 24  2  0  0  0  0
 50 51  1  0  0  0  0
 51 59  1  0  0  0  0
 51 52  2  0  0  0  0
  8  9  1  0  0  0  0
  9 17  1  0  0  0  0
  9 10  2  0  0  0  0
 30 31  1  0  0  0  0
 31 39  1  0  0  0  0
 31 32  2  0  0  0  0
 40 41  1  0  0  0  0
 41 49  1  0  0  0  0
 41 42  2  0  0  0  0
 50 53  1  0  0  0  0
 30 33  1  0  0  0  0
 59 60  1  0  0  0  0
 17 18  1  0  0  0  0
  8 11  1  0  0  0  0
 11 12  1  0  0  0  0
 40 43  1  0  0  0  0
 43 44  1  0  0  0  0
 49 50  1  0  0  0  0
  7  8  1  0  0  0  0
 29 30  1  0  0  0  0
 39 40  1  0  0  0  0
 12 44  1  0  0  0  0
  3  4  1  0  0  0  0
  3  5  1  0  0  0  0
  3  6  1  0  0  0  0
 25 26  1  0  0  0  0
 25 27  1  0  0  0  0
 25 28  1  0  0  0  0
 53 56  1  0  0  0  0
 53 57  1  0  0  0  0
 53 58  1  0  0  0  0
 33 36  1  0  0  0  0
 33 37  1  0  0  0  0
 33 38  1  0  0  0  0
 60 62  1  0  0  0  0
 60 63  1  0  0  0  0
 60 64  1  0  0  0  0
 18 20  1  0  0  0  0
 18 21  1  0  0  0  0
 18 22  1  0  0  0  0
 11 15  1  0  0  0  0
 11 16  1  0  0  0  0
 43 47  1  0  0  0  0
 43 48  1  0  0  0  0
 50 55  1  0  0  0  0
  8 14  1  0  0  0  0
 30 35  1  0  0  0  0
 40 46  1  0  0  0  0
 59 61  1  0  0  0  0
 17 19  1  0  0  0  0
  7 13  1  0  0  0  0
 29 34  1  0  0  0  0
 49 54  1  0  0  0  0
 39 45  1  0  0  0  0
M  END
$$$$

  -OEChem-05262214473D

 64 63  0     1  0  0  0  0  0999 V2000
   -2.9351    5.3291    5.9194 C   0  0  0  0  0  0  0  0  0  0  0  0
   -4.1287    5.0947    5.7704 O   0  0  0  0  0  0  0  0  0  0  0  0
   -2.5083    6.6402    6.4912 C   0  0  0  0  0  0  0  0  0  0  0  0
   -2.3475    7.4053    5.7147 H   0  0  0  0  0  0  0  0  0  0  0  0
   -3.2632    7.0686    7.1701 H   0  0  0  0  0  0  0  0  0  0  0  0
   -1.5738    6.6183    7.0743 H   0  0  0  0  0  0  0  0  0  0  0  0
   -1.8882    4.4795    5.6062 N   0  0  0  0  0  0  0  0  0  0  0  0
   -2.0763    3.1655    5.0454 C   0  0  2  0  0  0  0  0  0  0  0  0
   -0.9967    2.2346    5.5937 C   0  0  0  0  0  0  0  0  0  0  0  0
   -0.0691    2.6269    6.2986 O   0  0  0  0  0  0  0  0  0  0  0  0
   -2.1389    3.1881    3.5162 C   0  0  0  0  0  0  0  0  0  0  0  0
   -0.6004    3.7644    2.7266 S   0  0  0  0  0  0  0  0  0  0  0  0
   -0.9379    4.7989    5.7806 H   0  0  0  0  0  0  0  0  0  0  0  0
   -3.0420    2.8159    5.4313 H   0  0  0  0  0  0  0  0  0  0  0  0
   -2.3527    2.1879    3.1254 H   0  0  0  0  0  0  0  0  0  0  0  0
   -2.9454    3.8514    3.1855 H   0  0  0  0  0  0  0  0  0  0  0  0
   -1.1777    0.9216    5.1828 N   0  0  0  0  0  0  0  0  0  0  0  0
   -0.2724   -0.1418    5.5511 C   0  0  0  0  0  0  0  0  0  0  0  0
   -1.9977    0.6775    4.6354 H   0  0  0  0  0  0  0  0  0  0  0  0
    0.4948   -0.2574    4.7714 H   0  0  0  0  0  0  0  0  0  0  0  0
    0.2115    0.1038    6.5079 H   0  0  0  0  0  0  0  0  0  0  0  0
   -0.8341   -1.0818    5.6550 H   0  0  0  0  0  0  0  0  0  0  0  0
   -6.7256    2.0330   -0.2766 C   0  0  0  0  0  0  0  0  0  0  0  0
   -7.1824    1.1039   -0.9322 O   0  0  0  0  0  0  0  0  0  0  0  0
   -7.5276    2.6077    0.8435 C   0  0  0  0  0  0  0  0  0  0  0  0
   -8.1775    3.4344    0.5145 H   0  0  0  0  0  0  0  0  0  0  0  0
   -8.2057    1.8676    1.2980 H   0  0  0  0  0  0  0  0  0  0  0  0
   -6.9411    3.0162    1.6819 H   0  0  0  0  0  0  0  0  0  0  0  0
   -5.4935    2.6382   -0.4627 N   0  0  0  0  0  0  0  0  0  0  0  0
   -4.5619    2.2388   -1.4845 C   0  0  2  0  0  0  0  0  0  0  0  0
   -3.1535    2.4674   -0.9521 C   0  0  0  0  0  0  0  0  0  0  0  0
   -2.8634    3.3945   -0.1987 O   0  0  0  0  0  0  0  0  0  0  0  0
   -4.7883    3.0138   -2.7732 C   0  0  0  0  0  0  0  0  0  0  0  0
   -5.2337    3.4049    0.1551 H   0  0  0  0  0  0  0  0  0  0  0  0
   -4.7192    1.1682   -1.6549 H   0  0  0  0  0  0  0  0  0  0  0  0
   -4.6352    4.0886   -2.6221 H   0  0  0  0  0  0  0  0  0  0  0  0
   -4.0976    2.6887   -3.5582 H   0  0  0  0  0  0  0  0  0  0  0  0
   -5.8111    2.8719   -3.1387 H   0  0  0  0  0  0  0  0  0  0  0  0
   -2.2466    1.5400   -1.4507 N   0  0  0  0  0  0  0  0  0  0  0  0
   -0.8424    1.5707   -1.1286 C   0  0  2  0  0  0  0  0  0  0  0  0
   -0.2161    0.2336   -1.5192 C   0  0  0  0  0  0  0  0  0  0  0  0
   -0.8626   -0.6919   -2.0059 O   0  0  0  0  0  0  0  0  0  0  0  0
   -0.5877    1.9571    0.3305 C   0  0  0  0  0  0  0  0  0  0  0  0
   -1.0972    3.6445    0.7373 S   0  0  0  0  0  0  0  0  0  0  0  0
   -2.5850    0.7815   -2.0381 H   0  0  0  0  0  0  0  0  0  0  0  0
   -0.4081    2.3417   -1.7770 H   0  0  0  0  0  0  0  0  0  0  0  0
   -1.1227    1.2816    1.0060 H   0  0  0  0  0  0  0  0  0  0  0  0
    0.4806    1.8735    0.5575 H   0  0  0  0  0  0  0  0  0  0  0  0
    1.1419    0.1879   -1.2375 N   0  0  0  0  0  0  0  0  0  0  0  0
    1.9518   -0.9800   -1.4940 C   0  0  2  0  0  0  0  0  0  0  0  0
    3.0422   -1.0387   -0.4323 C   0  0  0  0  0  0  0  0  0  0  0  0
    3.5640   -0.0353    0.0494 O   0  0  0  0  0  0  0  0  0  0  0  0
    2.5539   -0.9401   -2.8899 C   0  0  0  0  0  0  0  0  0  0  0  0
    1.6054    1.0157   -0.8747 H   0  0  0  0  0  0  0  0  0  0  0  0
    1.2940   -1.8499   -1.3912 H   0  0  0  0  0  0  0  0  0  0  0  0
    3.2161   -0.0752   -3.0119 H   0  0  0  0  0  0  0  0  0  0  0  0
    3.1443   -1.8396   -3.0933 H   0  0  0  0  0  0  0  0  0  0  0  0
    1.7694   -0.8679   -3.6509 H   0  0  0  0  0  0  0  0  0  0  0  0
    3.3943   -2.3437   -0.1174 N   0  0  0  0  0  0  0  0  0  0  0  0
    4.4351   -2.6629    0.8316 C   0  0  0  0  0  0  0  0  0  0  0  0
    2.8815   -3.1144   -0.5356 H   0  0  0  0  0  0  0  0  0  0  0  0
    5.3909   -2.7851    0.3011 H   0  0  0  0  0  0  0  0  0  0  0  0
    4.5247   -1.8482    1.5653 H   0  0  0  0  0  0  0  0  0  0  0  0
    4.1824   -3.5986    1.3518 H   0  0  0  0  0  0  0  0  0  0  0  0
  1  3  1  0  0  0  0
  1  7  1  0  0  0  0
  1  2  2  0  0  0  0
 23 25  1  0  0  0  0
 23 29  1  0  0  0  0
 23 24  2  0  0  0  0
 50 51  1  0  0  0  0
 51 59  1  0  0  0  0
 51 52  2  0  0  0  0
  8  9  1  0  0  0  0
  9 17  1  0  0  0  0
  9 10  2  0  0  0  0
 30 31  1  0  0  0  0
 31 39  1  0  0  0  0
 31 32  2  0  0  0  0
 40 41  1  0  0  0  0
 41 49  1  0  0  0  0
 41 42  2  0  0  0  0
 50 53  1  0  0  0  0
 30 33  1  0  0  0  0
 59 60  1  0  0  0  0
 17 18  1  0  0  0  0
  8 11  1  0  0  0  0
 11 12  1  0  0  0  0
 40 43  1  0  0  0  0
 43 44  1  0  0  0  0
 49 50  1  0  0  0  0
  7  8  1  0  0  0  0
 29 30  1  0  0  0  0
 39 40  1  0  0  0  0
 12 44  1  0  0  0  0
  3  4  1  0  0  0  0
  3  5  1  0  0  0  0
  3  6  1  0  0  0  0
 25 26  1  0  0  0  0
 25 27  1  0  0  0  0
 25 28  1  0  0  0  0
 53 56  1  0  0  0  0
 53 57  1  0  0  0  0
 53 58  1  0  0  0  0
 33 36  1  0  0  0  0
 33 37  1  0  0  0  0
 33 38  1  0  0  0  0
 60 62  1  0  0  0  0
 60 63  1  0  0  0  0
 60 64  1  0  0  0  0
 18 20  1  0  0  0  0
 18 21  1  0  0  0  0
 18 22  1  0  0  0  0
 11 15  1  0  0  0  0
 11 16  1  0  0  0  0
 43 47  1  0  0  0  0
 43 48  1  0  0  0  0
 50 55  1  0  0  0  0
  8 14  1  0  0  0  0
 30 35  1  0  0  0  0
 40 46  1  0  0  0  0
 59 61  1  0  0  0  0
 17 19  1  0  0  0  0
  7 13  1  0  0  0  0
 29 34  1  0  0  0  0
 49 54  1  0  0  0  0
 39 45  1  0  0  0  0
M  END
$$$$

  -OEChem-05262214473D

 64 63  0     1  0  0  0  0  0999 V2000
   -2.9351    5.3291    5.9194 C   0  0  0  0  0  0  0  0  0  0  0  0
   -4.1287    5.0947    5.7704 O   0  0  0  0  0  0  0  0  0  0  0  0
   -2.5083    6.6402    6.4912 C   0  0  0  0  0  0  0  0  0  0  0  0
   -2.3475    7.4053    5.7147 H   0  0  0  0  0  0  0  0  0  0  0  0
   -3.2632    7.0686    7.1701 H   0  0  0  0  0  0  0  0  0  0  0  0
   -1.5738    6.6183    7.0743 H   0  0  0  0  0  0  0  0  0  0  0  0
   -1.8882    4.4795    5.6062 N   0  0  0  0  0  0  0  0  0  0  0  0
   -2.0763    3.1655    5.0454 C   0  0  2  0  0  0  0  0  0  0  0  0
   -0.9967    2.2346    5.5937 C   0  0  0  0  0  0  0  0  0  0  0  0
   -0.0691    2.6269    6.2986 O   0  0  0  0  0  0  0  0  0  0  0  0
   -2.1389    3.1881    3.5162 C   0  0  0  0  0  0  0  0  0  0  0  0
   -0.6004    3.7644    2.7266 S   0  0  0  0  0  0  0  0  0  0  0  0
   -0.9379    4.7989    5.7806 H   0  0  0  0  0  0  0  0  0  0  0  0
   -3.0420    2.8159    5.4313 H   0  0  0  0  0  0  0  0  0  0  0  0
   -2.3527    2.1879    3.1254 H   0  0  0  0  0  0  0  0  0  0  0  0
   -2.9454    3.8514    3.1855 H   0  0  0  0  0  0  0  0  0  0  0  0
   -1.1777    0.9216    5.1828 N   0  0  0  0  0  0  0  0  0  0  0  0
   -0.2724   -0.1418    5.5511 C   0  0  0  0  0  0  0  0  0  0  0  0
   -1.9977    0.6775    4.6354 H   0  0  0  0  0  0  0  0  0  0  0  0
    0.4948   -0.2574    4.7714 H   0  0  0  0  0  0  0  0  0  0  0  0
    0.2115    0.1038    6.5079 H   0  0  0  0  0  0  0  0  0  0  0  0
   -0.8341   -1.0818    5.6550 H   0  0  0  0  0  0  0  0  0  0  0  0
   -6.7256    2.0330   -0.2766 C   0  0  0  0  0  0  0  0  0  0  0  0
   -7.1824    1.1039   -0.9322 O   0  0  0  0  0  0  0  0  0  0  0  0
   -7.5276    2.6077    0.8435 C   0  0  0  0  0  0  0  0  0  0  0  0
   -8.1775    3.4344    0.5145 H   0  0  0  0  0  0  0  0  0  0  0  0
   -8.2057    1.8676    1.2980 H   0  0  0  0  0  0  0  0  0  0  0  0
   -6.9411    3.0162    1.6819 H   0  0  0  0  0  0  0  0  0  0  0  0
   -5.4935    2.6382   -0.4627 N   0  0  0  0  0  0  0  0  0  0  0  0
   -4.5619    2.2388   -1.4845 C   0  0  2  0  0  0  0  0  0  0  0  0
   -3.1535    2.4674   -0.9521 C   0  0  0  0  0  0  0  0  0  0  0  0
   -2.8634    3.3945   -0.1987 O   0  0  0  0  0  0  0  0  0  0  0  0
   -4.7883    3.0138   -2.7732 C   0  0  0  0  0  0  0  0  0  0  0  0
   -5.2337    3.4049    0.1551 H   0  0  0  0  0  0  0  0  0  0  0  0
   -4.7192    1.1682   -1.6549 H   0  0  0  0  0  0  0  0  0  0  0  0
   -4.6352    4.0886   -2.6221 H   0  0  0  0  0  0  0  0  0  0  0  0
   -4.0976    2.6887   -3.5582 H   0  0  0  0  0  0  0  0  0  0  0  0
   -5.8111    2.8719   -3.1387 H   0  0  0  0  0  0  0  0  0  0  0  0
   -2.2466    1.5400   -1.4507 N   0  0  0  0  0  0  0  0  0  0  0  0
   -0.8424    1.5707   -1.1286 C   0  0  2  0  0  0  0  0  0  0  0  0
   -0.2161    0.2336   -1.5192 C   0  0  0  0  0  0  0  0  0  0  0  0
   -0.7822   -0.5859   -2.2398 O   0  0  0  0  0  0  0  0  0  0  0  0
   -0.5877    1.9571    0.3305 C   0  0  0  0  0  0  0  0  0  0  0  0
   -1.0972    3.6445    0.7373 S   0  0  0  0  0  0  0  0  0  0  0  0
   -2.5850    0.7815   -2.0381 H   0  0  0  0  0  0  0  0  0  0  0  0
   -0.4081    2.3417   -1.7770 H   0  0  0  0  0  0  0  0  0  0  0  0
   -1.1227    1.2816    1.0060 H   0  0  0  0  0  0  0  0  0  0  0  0
    0.4806    1.8735    0.5575 H   0  0  0  0  0  0  0  0  0  0  0  0
    1.0361    0.0540   -0.9488 N   0  0  0  0  0  0  0  0  0  0  0  0
    1.8191   -1.1429   -1.1494 C   0  0  2  0  0  0  0  0  0  0  0  0
    2.6310   -1.3912    0.1149 C   0  0  0  0  0  0  0  0  0  0  0  0
    3.0813   -0.4842    0.8118 O   0  0  0  0  0  0  0  0  0  0  0  0
    2.7276   -1.0130   -2.3621 C   0  0  0  0  0  0  0  0  0  0  0  0
    1.4476    0.8031   -0.4001 H   0  0  0  0  0  0  0  0  0  0  0  0
    1.1093   -1.9644   -1.2955 H   0  0  0  0  0  0  0  0  0  0  0  0
    3.4457   -0.1949   -2.2341 H   0  0  0  0  0  0  0  0  0  0  0  0
    3.2995   -1.9316   -2.5296 H   0  0  0  0  0  0  0  0  0  0  0  0
    2.1443   -0.8049   -3.2655 H   0  0  0  0  0  0  0  0  0  0  0  0
    2.8302   -2.7444    0.3499 N   0  0  0  0  0  0  0  0  0  0  0  0
    3.6059   -3.2362    1.4645 C   0  0  0  0  0  0  0  0  0  0  0  0
    2.3867   -3.4275   -0.2570 H   0  0  0  0  0  0  0  0  0  0  0  0
    4.6502   -3.3802    1.1501 H   0  0  0  0  0  0  0  0  0  0  0  0
    3.5681   -2.5073    2.2875 H   0  0  0  0  0  0  0  0  0  0  0  0
    3.1902   -4.1959    1.8054 H   0  0  0  0  0  0  0  0  0  0  0  0
  1  3  1  0  0  0  0
  1  7  1  0  0  0  0
  1  2  2  0  0  0  0
 23 25  1  0  0  0  0
 23 29  1  0  0  0  0
 23 24  2  0  0  0  0
 50 51  1  0  0  0  0
 51 59  1  0  0  0  0
 51 52  2  0  0  0  0
  8  9  1  0  0  0  0
  9 17  1  0  0  0  0
  9 10  2  0  0  0  0
 30 31  1  0  0  0  0
 31 39  1  0  0  0  0
 31 32  2  0  0  0  0
 40 41  1  0  0  0  0
 41 49  1  0  0  0  0
 41 42  2  0  0  0  0
 50 53  1  0  0  0  0
 30 33  1  0  0  0  0
 59 60  1  0  0  0  0
 17 18  1  0  0  0  0
  8 11  1  0  0  0  0
 11 12  1  0  0  0  0
 40 43  1  0  0  0  0
 43 44  1  0  0  0  0
 49 50  1  0  0  0  0
  7  8  1  0  0  0  0
 29 30  1  0  0  0  0
 39 40  1  0  0  0  0
 12 44  1  0  0  0  0
  3  4  1  0  0  0  0
  3  5  1  0  0  0  0
  3  6  1  0  0  0  0
 25 26  1  0  0  0  0
 25 27  1  0  0  0  0
 25 28  1  0  0  0  0
 53 56  1  0  0  0  0
 53 57  1  0  0  0  0
 53 58  1  0  0  0  0
 33 36  1  0  0  0  0
 33 37  1  0  0  0  0
 33 38  1  0  0  0  0
 60 62  1  0  0  0  0
 60 63  1  0  0  0  0
 60 64  1  0  0  0  0
 18 20  1  0  0  0  0
 18 21  1  0  0  0  0
 18 22  1  0  0  0  0
 11 15  1  0  0  0  0
 11 16  1  0  0  0  0
 43 47  1  0  0  0  0
 43 48  1  0  0  0  0
 50 55  1  0  0  0  0
  8 14  1  0  0  0  0
 30 35  1  0  0  0  0
 40 46  1  0  0  0  0
 59 61  1  0  0  0  0
 17 19  1  0  0  0  0
  7 13  1  0  0  0  0
 29 34  1  0  0  0  0
 49 54  1  0  0  0  0
 39 45  1  0  0  0  0
M  END
$$$$

  -OEChem-05262214473D

 64 63  0     1  0  0  0  0  0999 V2000
   -2.9351    5.3291    5.9194 C   0  0  0  0  0  0  0  0  0  0  0  0
   -4.1287    5.0947    5.7704 O   0  0  0  0  0  0  0  0  0  0  0  0
   -2.5083    6.6402    6.4912 C   0  0  0  0  0  0  0  0  0  0  0  0
   -2.3475    7.4053    5.7147 H   0  0  0  0  0  0  0  0  0  0  0  0
   -3.2632    7.0686    7.1701 H   0  0  0  0  0  0  0  0  0  0  0  0
   -1.5738    6.6183    7.0743 H   0  0  0  0  0  0  0  0  0  0  0  0
   -1.8882    4.4795    5.6062 N   0  0  0  0  0  0  0  0  0  0  0  0
   -2.0763    3.1655    5.0454 C   0  0  2  0  0  0  0  0  0  0  0  0
   -0.9967    2.2346    5.5937 C   0  0  0  0  0  0  0  0  0  0  0  0
   -0.0691    2.6269    6.2986 O   0  0  0  0  0  0  0  0  0  0  0  0
   -2.1389    3.1881    3.5162 C   0  0  0  0  0  0  0  0  0  0  0  0
   -0.6004    3.7644    2.7266 S   0  0  0  0  0  0  0  0  0  0  0  0
   -0.9379    4.7989    5.7806 H   0  0  0  0  0  0  0  0  0  0  0  0
   -3.0420    2.8159    5.4313 H   0  0  0  0  0  0  0  0  0  0  0  0
   -2.3527    2.1879    3.1254 H   0  0  0  0  0  0  0  0  0  0  0  0
   -2.9454    3.8514    3.1855 H   0  0  0  0  0  0  0  0  0  0  0  0
   -1.1777    0.9216    5.1828 N   0  0  0  0  0  0  0  0  0  0  0  0
   -0.2724   -0.1418    5.5511 C   0  0  0  0  0  0  0  0  0  0  0  0
   -1.9977    0.6775    4.6354 H   0  0  0  0  0  0  0  0  0  0  0  0
    0.4948   -0.2574    4.7714 H   0  0  0  0  0  0  0  0  0  0  0  0
    0.2115    0.1038    6.5079 H   0  0  0  0  0  0  0  0  0  0  0  0
   -0.8341   -1.0818    5.6550 H   0  0  0  0  0  0  0  0  0  0  0  0
   -6.7256    2.0330   -0.2766 C   0  0  0  0  0  0  0  0  0  0  0  0
   -7.1824    1.1039   -0.9322 O   0  0  0  0  0  0  0  0  0  0  0  0
   -7.5276    2.6077    0.8435 C   0  0  0  0  0  0  0  0  0  0  0  0
   -8.1775    3.4344    0.5145 H   0  0  0  0  0  0  0  0  0  0  0  0
   -8.2057    1.8676    1.2980 H   0  0  0  0  0  0  0  0  0  0  0  0
   -6.9411    3.0162    1.6819 H   0  0  0  0  0  0  0  0  0  0  0  0
   -5.4935    2.6382   -0.4627 N   0  0  0  0  0  0  0  0  0  0  0  0
   -4.5619    2.2388   -1.4845 C   0  0  2  0  0  0  0  0  0  0  0  0
   -3.1535    2.4674   -0.9521 C   0  0  0  0  0  0  0  0  0  0  0  0
   -2.8634    3.3945   -0.1987 O   0  0  0  0  0  0  0  0  0  0  0  0
   -4.7883    3.0138   -2.7732 C   0  0  0  0  0  0  0  0  0  0  0  0
   -5.2337    3.4049    0.1551 H   0  0  0  0  0  0  0  0  0  0  0  0
   -4.7192    1.1682   -1.6549 H   0  0  0  0  0  0  0  0  0  0  0  0
   -4.6352    4.0886   -2.6221 H   0  0  0  0  0  0  0  0  0  0  0  0
   -4.0976    2.6887   -3.5582 H   0  0  0  0  0  0  0  0  0  0  0  0
   -5.8111    2.8719   -3.1387 H   0  0  0  0  0  0  0  0  0  0  0  0
   -2.2466    1.5400   -1.4507 N   0  0  0  0  0  0  0  0  0  0  0  0
   -0.8424    1.5707   -1.1286 C   0  0  2  0  0  0  0  0  0  0  0  0
   -0.2161    0.2336   -1.5192 C   0  0  0  0  0  0  0  0  0  0  0  0
   -0.6445   -0.4640   -2.4364 O   0  0  0  0  0  0  0  0  0  0  0  0
   -0.5877    1.9571    0.3305 C   0  0  0  0  0  0  0  0  0  0  0  0
   -1.0972    3.6445    0.7373 S   0  0  0  0  0  0  0  0  0  0  0  0
   -2.5850    0.7815   -2.0381 H   0  0  0  0  0  0  0  0  0  0  0  0
   -0.4081    2.3417   -1.7770 H   0  0  0  0  0  0  0  0  0  0  0  0
   -1.1227    1.2816    1.0060 H   0  0  0  0  0  0  0  0  0  0  0  0
    0.4806    1.8735    0.5575 H   0  0  0  0  0  0  0  0  0  0  0  0
    0.8596   -0.0990   -0.7082 N   0  0  0  0  0  0  0  0  0  0  0  0
    1.6020   -1.3280   -0.8640 C   0  0  2  0  0  0  0  0  0  0  0  0
    2.0865   -1.7625    0.5130 C   0  0  0  0  0  0  0  0  0  0  0  0
    2.4126   -0.9667    1.3913 O   0  0  0  0  0  0  0  0  0  0  0  0
    2.7709   -1.1509   -1.8206 C   0  0  0  0  0  0  0  0  0  0  0  0
    1.1736    0.5578    0.0001 H   0  0  0  0  0  0  0  0  0  0  0  0
    0.9016   -2.0729   -1.2571 H   0  0  0  0  0  0  0  0  0  0  0  0
    3.4834   -0.4082   -1.4434 H   0  0  0  0  0  0  0  0  0  0  0  0
    3.3155   -2.0906   -1.9597 H   0  0  0  0  0  0  0  0  0  0  0  0
    2.4233   -0.8097   -2.8017 H   0  0  0  0  0  0  0  0  0  0  0  0
    2.1530   -3.1437    0.6310 N   0  0  0  0  0  0  0  0  0  0  0  0
    2.6236   -3.8023    1.8271 C   0  0  0  0  0  0  0  0  0  0  0  0
    1.8248   -3.7269   -0.1332 H   0  0  0  0  0  0  0  0  0  0  0  0
    3.7029   -3.9960    1.7392 H   0  0  0  0  0  0  0  0  0  0  0  0
    2.4368   -3.1572    2.6983 H   0  0  0  0  0  0  0  0  0  0  0  0
    2.0894   -4.7553    1.9552 H   0  0  0  0  0  0  0  0  0  0  0  0
  1  3  1  0  0  0  0
  1  7  1  0  0  0  0
  1  2  2  0  0  0  0
 23 25  1  0  0  0  0
 23 29  1  0  0  0  0
 23 24  2  0  0  0  0
 50 51  1  0  0  0  0
 51 59  1  0  0  0  0
 51 52  2  0  0  0  0
  8  9  1  0  0  0  0
  9 17  1  0  0  0  0
  9 10  2  0  0  0  0
 30 31  1  0  0  0  0
 31 39  1  0  0  0  0
 31 32  2  0  0  0  0
 40 41  1  0  0  0  0
 41 49  1  0  0  0  0
 41 42  2  0  0  0  0
 50 53  1  0  0  0  0
 30 33  1  0  0  0  0
 59 60  1  0  0  0  0
 17 18  1  0  0  0  0
  8 11  1  0  0  0  0
 11 12  1  0  0  0  0
 40 43  1  0  0  0  0
 43 44  1  0  0  0  0
 49 50  1  0  0  0  0
  7  8  1  0  0  0  0
 29 30  1  0  0  0  0
 39 40  1  0  0  0  0
 12 44  1  0  0  0  0
  3  4  1  0  0  0  0
  3  5  1  0  0  0  0
  3  6  1  0  0  0  0
 25 26  1  0  0  0  0
 25 27  1  0  0  0  0
 25 28  1  0  0  0  0
 53 56  1  0  0  0  0
 53 57  1  0  0  0  0
 53 58  1  0  0  0  0
 33 36  1  0  0  0  0
 33 37  1  0  0  0  0
 33 38  1  0  0  0  0
 60 62  1  0  0  0  0
 60 63  1  0  0  0  0
 60 64  1  0  0  0  0
 18 20  1  0  0  0  0
 18 21  1  0  0  0  0
 18 22  1  0  0  0  0
 11 15  1  0  0  0  0
 11 16  1  0  0  0  0
 43 47  1  0  0  0  0
 43 48  1  0  0  0  0
 50 55  1  0  0  0  0
  8 14  1  0  0  0  0
 30 35  1  0  0  0  0
 40 46  1  0  0  0  0
 59 61  1  0  0  0  0
 17 19  1  0  0  0  0
  7 13  1  0  0  0  0
 29 34  1  0  0  0  0
 49 54  1  0  0  0  0
 39 45  1  0  0  0  0
M  END
$$$$

  -OEChem-05262214473D

 64 63  0     1  0  0  0  0  0999 V2000
   -2.9351    5.3291    5.9194 C   0  0  0  0  0  0  0  0  0  0  0  0
   -4.1287    5.0947    5.7704 O   0  0  0  0  0  0  0  0  0  0  0  0
   -2.5083    6.6402    6.4912 C   0  0  0  0  0  0  0  0  0  0  0  0
   -2.3475    7.4053    5.7147 H   0  0  0  0  0  0  0  0  0  0  0  0
   -3.2632    7.0686    7.1701 H   0  0  0  0  0  0  0  0  0  0  0  0
   -1.5738    6.6183    7.0743 H   0  0  0  0  0  0  0  0  0  0  0  0
   -1.8882    4.4795    5.6062 N   0  0  0  0  0  0  0  0  0  0  0  0
   -2.0763    3.1655    5.0454 C   0  0  2  0  0  0  0  0  0  0  0  0
   -0.9967    2.2346    5.5937 C   0  0  0  0  0  0  0  0  0  0  0  0
   -0.0691    2.6269    6.2986 O   0  0  0  0  0  0  0  0  0  0  0  0
   -2.1389    3.1881    3.5162 C   0  0  0  0  0  0  0  0  0  0  0  0
   -0.6004    3.7644    2.7266 S   0  0  0  0  0  0  0  0  0  0  0  0
   -0.9379    4.7989    5.7806 H   0  0  0  0  0  0  0  0  0  0  0  0
   -3.0420    2.8159    5.4313 H   0  0  0  0  0  0  0  0  0  0  0  0
   -2.3527    2.1879    3.1254 H   0  0  0  0  0  0  0  0  0  0  0  0
   -2.9454    3.8514    3.1855 H   0  0  0  0  0  0  0  0  0  0  0  0
   -1.1777    0.9216    5.1828 N   0  0  0  0  0  0  0  0  0  0  0  0
   -0.2724   -0.1418    5.5511 C   0  0  0  0  0  0  0  0  0  0  0  0
   -1.9977    0.6775    4.6354 H   0  0  0  0  0  0  0  0  0  0  0  0
    0.4948   -0.2574    4.7714 H   0  0  0  0  0  0  0  0  0  0  0  0
    0.2115    0.1038    6.5079 H   0  0  0  0  0  0  0  0  0  0  0  0
   -0.8341   -1.0818    5.6550 H   0  0  0  0  0  0  0  0  0  0  0  0
   -6.7256    2.0330   -0.2766 C   0  0  0  0  0  0  0  0  0  0  0  0
   -7.1824    1.1039   -0.9322 O   0  0  0  0  0  0  0  0  0  0  0  0
   -7.5276    2.6077    0.8435 C   0  0  0  0  0  0  0  0  0  0  0  0
   -8.1775    3.4344    0.5145 H   0  0  0  0  0  0  0  0  0  0  0  0
   -8.2057    1.8676    1.2980 H   0  0  0  0  0  0  0  0  0  0  0  0
   -6.9411    3.0162    1.6819 H   0  0  0  0  0  0  0  0  0  0  0  0
   -5.4935    2.6382   -0.4627 N   0  0  0  0  0  0  0  0  0  0  0  0
   -4.5619    2.2388   -1.4845 C   0  0  2  0  0  0  0  0  0  0  0  0
   -3.1535    2.4674   -0.9521 C   0  0  0  0  0  0  0  0  0  0  0  0
   -2.8634    3.3945   -0.1987 O   0  0  0  0  0  0  0  0  0  0  0  0
   -4.7883    3.0138   -2.7732 C   0  0  0  0  0  0  0  0  0  0  0  0
   -5.2337    3.4049    0.1551 H   0  0  0  0  0  0  0  0  0  0  0  0
   -4.7192    1.1682   -1.6549 H   0  0  0  0  0  0  0  0  0  0  0  0
   -4.6352    4.0886   -2.6221 H   0  0  0  0  0  0  0  0  0  0  0  0
   -4.0976    2.6887   -3.5582 H   0  0  0  0  0  0  0  0  0  0  0  0
   -5.8111    2.8719   -3.1387 H   0  0  0  0  0  0  0  0  0  0  0  0
   -2.2466    1.5400   -1.4507 N   0  0  0  0  0  0  0  0  0  0  0  0
   -0.8424    1.5707   -1.1286 C   0  0  2  0  0  0  0  0  0  0  0  0
   -0.2161    0.2336   -1.5192 C   0  0  0  0  0  0  0  0  0  0  0  0
   -0.4589   -0.3345   -2.5821 O   0  0  0  0  0  0  0  0  0  0  0  0
   -0.5877    1.9571    0.3305 C   0  0  0  0  0  0  0  0  0  0  0  0
   -1.0972    3.6445    0.7373 S   0  0  0  0  0  0  0  0  0  0  0  0
   -2.5850    0.7815   -2.0381 H   0  0  0  0  0  0  0  0  0  0  0  0
   -0.4081    2.3417   -1.7770 H   0  0  0  0  0  0  0  0  0  0  0  0
   -1.1227    1.2816    1.0060 H   0  0  0  0  0  0  0  0  0  0  0  0
    0.4806    1.8735    0.5575 H   0  0  0  0  0  0  0  0  0  0  0  0
    0.6245   -0.2606   -0.5319 N   0  0  0  0  0  0  0  0  0  0  0  0
    1.3154   -1.5227   -0.6570 C   0  0  2  0  0  0  0  0  0  0  0  0
    1.4458   -2.1274    0.7347 C   0  0  0  0  0  0  0  0  0  0  0  0
    1.6035   -1.4500    1.7483 O   0  0  0  0  0  0  0  0  0  0  0  0
    2.6809   -1.3445   -1.3024 C   0  0  0  0  0  0  0  0  0  0  0  0
    0.8021    0.2966    0.2985 H   0  0  0  0  0  0  0  0  0  0  0  0
    0.6852   -2.1680   -1.2786 H   0  0  0  0  0  0  0  0  0  0  0  0
    3.3264   -0.7007   -0.6938 H   0  0  0  0  0  0  0  0  0  0  0  0
    3.1914   -2.3057   -1.4225 H   0  0  0  0  0  0  0  0  0  0  0  0
    2.5873   -0.8821   -2.2909 H   0  0  0  0  0  0  0  0  0  0  0  0
    1.4087   -3.5145    0.7066 N   0  0  0  0  0  0  0  0  0  0  0  0
    1.5552   -4.3225    1.8947 C   0  0  0  0  0  0  0  0  0  0  0  0
    1.2343   -3.9919   -0.1728 H   0  0  0  0  0  0  0  0  0  0  0  0
    2.6136   -4.5907    2.0282 H   0  0  0  0  0  0  0  0  0  0  0  0
    1.2079   -3.7538    2.7699 H   0  0  0  0  0  0  0  0  0  0  0  0
    0.9552   -5.2387    1.7911 H   0  0  0  0  0  0  0  0  0  0  0  0
  1  3  1  0  0  0  0
  1  7  1  0  0  0  0
  1  2  2  0  0  0  0
 23 25  1  0  0  0  0
 23 29  1  0  0  0  0
 23 24  2  0  0  0  0
 50 51  1  0  0  0  0
 51 59  1  0  0  0  0
 51 52  2  0  0  0  0
  8  9  1  0  0  0  0
  9 17  1  0  0  0  0
  9 10  2  0  0  0  0
 30 31  1  0  0  0  0
 31 39  1  0  0  0  0
 31 32  2  0  0  0  0
 40 41  1  0  0  0  0
 41 49  1  0  0  0  0
 41 42  2  0  0  0  0
 50 53  1  0  0  0  0
 30 33  1  0  0  0  0
 59 60  1  0  0  0  0
 17 18  1  0  0  0  0
  8 11  1  0  0  0  0
 11 12  1  0  0  0  0
 40 43  1  0  0  0  0
 43 44  1  0  0  0  0
 49 50  1  0  0  0  0
  7  8  1  0  0  0  0
 29 30  1  0  0  0  0
 39 40  1  0  0  0  0
 12 44  1  0  0  0  0
  3  4  1  0  0  0  0
  3  5  1  0  0  0  0
  3  6  1  0  0  0  0
 25 26  1  0  0  0  0
 25 27  1  0  0  0  0
 25 28  1  0  0  0  0
 53 56  1  0  0  0  0
 53 57  1  0  0  0  0
 53 58  1  0  0  0  0
 33 36  1  0  0  0  0
 33 37  1  0  0  0  0
 33 38  1  0  0  0  0
 60 62  1  0  0  0  0
 60 63  1  0  0  0  0
 60 64  1  0  0  0  0
 18 20  1  0  0  0  0
 18 21  1  0  0  0  0
 18 22  1  0  0  0  0
 11 15  1  0  0  0  0
 11 16  1  0  0  0  0
 43 47  1  0  0  0  0
 43 48  1  0  0  0  0
 50 55  1  0  0  0  0
  8 14  1  0  0  0  0
 30 35  1  0  0  0  0
 40 46  1  0  0  0  0
 59 61  1  0  0  0  0
 17 19  1  0  0  0  0
  7 13  1  0  0  0  0
 29 34  1  0  0  0  0
 49 54  1  0  0  0  0
 39 45  1  0  0  0  0
M  END
$$$$

  -OEChem-05262214473D

 64 63  0     1  0  0  0  0  0999 V2000
   -2.9351    5.3291    5.9194 C   0  0  0  0  0  0  0  0  0  0  0  0
   -4.1287    5.0947    5.7704 O   0  0  0  0  0  0  0  0  0  0  0  0
   -2.5083    6.6402    6.4912 C   0  0  0  0  0  0  0  0  0  0  0  0
   -2.3475    7.4053    5.7147 H   0  0  0  0  0  0  0  0  0  0  0  0
   -3.2632    7.0686    7.1701 H   0  0  0  0  0  0  0  0  0  0  0  0
   -1.5738    6.6183    7.0743 H   0  0  0  0  0  0  0  0  0  0  0  0
   -1.8882    4.4795    5.6062 N   0  0  0  0  0  0  0  0  0  0  0  0
   -2.0763    3.1655    5.0454 C   0  0  2  0  0  0  0  0  0  0  0  0
   -0.9967    2.2346    5.5937 C   0  0  0  0  0  0  0  0  0  0  0  0
   -0.0691    2.6269    6.2986 O   0  0  0  0  0  0  0  0  0  0  0  0
   -2.1389    3.1881    3.5162 C   0  0  0  0  0  0  0  0  0  0  0  0
   -0.6004    3.7644    2.7266 S   0  0  0  0  0  0  0  0  0  0  0  0
   -0.9379    4.7989    5.7806 H   0  0  0  0  0  0  0  0  0  0  0  0
   -3.0420    2.8159    5.4313 H   0  0  0  0  0  0  0  0  0  0  0  0
   -2.3527    2.1879    3.1254 H   0  0  0  0  0  0  0  0  0  0  0  0
   -2.9454    3.8514    3.1855 H   0  0  0  0  0  0  0  0  0  0  0  0
   -1.1777    0.9216    5.1828 N   0  0  0  0  0  0  0  0  0  0  0  0
   -0.2724   -0.1418    5.5511 C   0  0  0  0  0  0  0  0  0  0  0  0
   -1.9977    0.6775    4.6354 H   0  0  0  0  0  0  0  0  0  0  0  0
    0.4948   -0.2574    4.7714 H   0  0  0  0  0  0  0  0  0  0  0  0
    0.2115    0.1038    6.5079 H   0  0  0  0  0  0  0  0  0  0  0  0
   -0.8341   -1.0818    5.6550 H   0  0  0  0  0  0  0  0  0  0  0  0
   -6.7256    2.0330   -0.2766 C   0  0  0  0  0  0  0  0  0  0  0  0
   -7.1824    1.1039   -0.9322 O   0  0  0  0  0  0  0  0  0  0  0  0
   -7.5276    2.6077    0.8435 C   0  0  0  0  0  0  0  0  0  0  0  0
   -8.1775    3.4344    0.5145 H   0  0  0  0  0  0  0  0  0  0  0  0
   -8.2057    1.8676    1.2980 H   0  0  0  0  0  0  0  0  0  0  0  0
   -6.9411    3.0162    1.6819 H   0  0  0  0  0  0  0  0  0  0  0  0
   -5.4935    2.6382   -0.4627 N   0  0  0  0  0  0  0  0  0  0  0  0
   -4.5619    2.2388   -1.4845 C   0  0  2  0  0  0  0  0  0  0  0  0
   -3.1535    2.4674   -0.9521 C   0  0  0  0  0  0  0  0  0  0  0  0
   -2.8634    3.3945   -0.1987 O   0  0  0  0  0  0  0  0  0  0  0  0
   -4.7883    3.0138   -2.7732 C   0  0  0  0  0  0  0  0  0  0  0  0
   -5.2337    3.4049    0.1551 H   0  0  0  0  0  0  0  0  0  0  0  0
   -4.7192    1.1682   -1.6549 H   0  0  0  0  0  0  0  0  0  0  0  0
   -4.6352    4.0886   -2.6221 H   0  0  0  0  0  0  0  0  0  0  0  0
   -4.0976    2.6887   -3.5582 H   0  0  0  0  0  0  0  0  0  0  0  0
   -5.8111    2.8719   -3.1387 H   0  0  0  0  0  0  0  0  0  0  0  0
   -2.2466    1.5400   -1.4507 N   0  0  0  0  0  0  0  0  0  0  0  0
   -0.8424    1.5707   -1.1286 C   0  0  2  0  0  0  0  0  0  0  0  0
   -0.2161    0.2336   -1.5192 C   0  0  0  0  0  0  0  0  0  0  0  0
   -0.2381   -0.2062   -2.6670 O   0  0  0  0  0  0  0  0  0  0  0  0
   -0.5877    1.9571    0.3305 C   0  0  0  0  0  0  0  0  0  0  0  0
   -1.0972    3.6445    0.7373 S   0  0  0  0  0  0  0  0  0  0  0  0
   -2.5850    0.7815   -2.0381 H   0  0  0  0  0  0  0  0  0  0  0  0
   -0.4081    2.3417   -1.7770 H   0  0  0  0  0  0  0  0  0  0  0  0
   -1.1227    1.2816    1.0060 H   0  0  0  0  0  0  0  0  0  0  0  0
    0.4806    1.8735    0.5575 H   0  0  0  0  0  0  0  0  0  0  0  0
    0.3468   -0.4198   -0.4321 N   0  0  0  0  0  0  0  0  0  0  0  0
    0.9788   -1.7138   -0.5427 C   0  0  2  0  0  0  0  0  0  0  0  0
    0.7526   -2.4610    0.7649 C   0  0  0  0  0  0  0  0  0  0  0  0
    0.7090   -1.9012    1.8585 O   0  0  0  0  0  0  0  0  0  0  0  0
    2.4637   -1.5805   -0.8428 C   0  0  0  0  0  0  0  0  0  0  0  0
    0.3583    0.0372    0.4749 H   0  0  0  0  0  0  0  0  0  0  0  0
    0.4746   -2.2433   -1.3585 H   0  0  0  0  0  0  0  0  0  0  0  0
    2.9856   -1.0524   -0.0364 H   0  0  0  0  0  0  0  0  0  0  0  0
    2.9356   -2.5622   -0.9546 H   0  0  0  0  0  0  0  0  0  0  0  0
    2.6253   -1.0170   -1.7681 H   0  0  0  0  0  0  0  0  0  0  0  0
    0.6481   -3.8313    0.5717 N   0  0  0  0  0  0  0  0  0  0  0  0
    0.4734   -4.7615    1.6626 C   0  0  0  0  0  0  0  0  0  0  0  0
    0.6552   -4.2047   -0.3730 H   0  0  0  0  0  0  0  0  0  0  0  0
    1.4566   -5.1236    1.9975 H   0  0  0  0  0  0  0  0  0  0  0  0
   -0.0348   -4.2562    2.4972 H   0  0  0  0  0  0  0  0  0  0  0  0
   -0.1352   -5.6131    1.3244 H   0  0  0  0  0  0  0  0  0  0  0  0
  1  3  1  0  0  0  0
  1  7  1  0  0  0  0
  1  2  2  0  0  0  0
 23 25  1  0  0  0  0
 23 29  1  0  0  0  0
 23 24  2  0  0  0  0
 50 51  1  0  0  0  0
 51 59  1  0  0  0  0
 51 52  2  0  0  0  0
  8  9  1  0  0  0  0
  9 17  1  0  0  0  0
  9 10  2  0  0  0  0
 30 31  1  0  0  0  0
 31 39  1  0  0  0  0
 31 32  2  0  0  0  0
 40 41  1  0  0  0  0
 41 49  1  0  0  0  0
 41 42  2  0  0  0  0
 50 53  1  0  0  0  0
 30 33  1  0  0  0  0
 59 60  1  0  0  0  0
 17 18  1  0  0  0  0
  8 11  1  0  0  0  0
 11 12  1  0  0  0  0
 40 43  1  0  0  0  0
 43 44  1  0  0  0  0
 49 50  1  0  0  0  0
  7  8  1  0  0  0  0
 29 30  1  0  0  0  0
 39 40  1  0  0  0  0
 12 44  1  0  0  0  0
  3  4  1  0  0  0  0
  3  5  1  0  0  0  0
  3  6  1  0  0  0  0
 25 26  1  0  0  0  0
 25 27  1  0  0  0  0
 25 28  1  0  0  0  0
 53 56  1  0  0  0  0
 53 57  1  0  0  0  0
 53 58  1  0  0  0  0
 33 36  1  0  0  0  0
 33 37  1  0  0  0  0
 33 38  1  0  0  0  0
 60 62  1  0  0  0  0
 60 63  1  0  0  0  0
 60 64  1  0  0  0  0
 18 20  1  0  0  0  0
 18 21  1  0  0  0  0
 18 22  1  0  0  0  0
 11 15  1  0  0  0  0
 11 16  1  0  0  0  0
 43 47  1  0  0  0  0
 43 48  1  0  0  0  0
 50 55  1  0  0  0  0
  8 14  1  0  0  0  0
 30 35  1  0  0  0  0
 40 46  1  0  0  0  0
 59 61  1  0  0  0  0
 17 19  1  0  0  0  0
  7 13  1  0  0  0  0
 29 34  1  0  0  0  0
 49 54  1  0  0  0  0
 39 45  1  0  0  0  0
M  END
$$$$

  -OEChem-05262214473D

 64 63  0     1  0  0  0  0  0999 V2000
   -2.9351    5.3291    5.9194 C   0  0  0  0  0  0  0  0  0  0  0  0
   -4.1287    5.0947    5.7704 O   0  0  0  0  0  0  0  0  0  0  0  0
   -2.5083    6.6402    6.4912 C   0  0  0  0  0  0  0  0  0  0  0  0
   -2.3475    7.4053    5.7147 H   0  0  0  0  0  0  0  0  0  0  0  0
   -3.2632    7.0686    7.1701 H   0  0  0  0  0  0  0  0  0  0  0  0
   -1.5738    6.6183    7.0743 H   0  0  0  0  0  0  0  0  0  0  0  0
   -1.8882    4.4795    5.6062 N   0  0  0  0  0  0  0  0  0  0  0  0
   -2.0763    3.1655    5.0454 C   0  0  2  0  0  0  0  0  0  0  0  0
   -0.9967    2.2346    5.5937 C   0  0  0  0  0  0  0  0  0  0  0  0
   -0.0691    2.6269    6.2986 O   0  0  0  0  0  0  0  0  0  0  0  0
   -2.1389    3.1881    3.5162 C   0  0  0  0  0  0  0  0  0  0  0  0
   -0.6004    3.7644    2.7266 S   0  0  0  0  0  0  0  0  0  0  0  0
   -0.9379    4.7989    5.7806 H   0  0  0  0  0  0  0  0  0  0  0  0
   -3.0420    2.8159    5.4313 H   0  0  0  0  0  0  0  0  0  0  0  0
   -2.3527    2.1879    3.1254 H   0  0  0  0  0  0  0  0  0  0  0  0
   -2.9454    3.8514    3.1855 H   0  0  0  0  0  0  0  0  0  0  0  0
   -1.1777    0.9216    5.1828 N   0  0  0  0  0  0  0  0  0  0  0  0
   -0.2724   -0.1418    5.5511 C   0  0  0  0  0  0  0  0  0  0  0  0
   -1.9977    0.6775    4.6354 H   0  0  0  0  0  0  0  0  0  0  0  0
    0.4948   -0.2574    4.7714 H   0  0  0  0  0  0  0  0  0  0  0  0
    0.2115    0.1038    6.5079 H   0  0  0  0  0  0  0  0  0  0  0  0
   -0.8341   -1.0818    5.6550 H   0  0  0  0  0  0  0  0  0  0  0  0
   -6.7256    2.0330   -0.2766 C   0  0  0  0  0  0  0  0  0  0  0  0
   -7.1824    1.1039   -0.9322 O   0  0  0  0  0  0  0  0  0  0  0  0
   -7.5276    2.6077    0.8435 C   0  0  0  0  0  0  0  0  0  0  0  0
   -8.1775    3.4344    0.5145 H   0  0  0  0  0  0  0  0  0  0  0  0
   -8.2057    1.8676    1.2980 H   0  0  0  0  0  0  0  0  0  0  0  0
   -6.9411    3.0162    1.6819 H   0  0  0  0  0  0  0  0  0  0  0  0
   -5.4935    2.6382   -0.4627 N   0  0  0  0  0  0  0  0  0  0  0  0
   -4.5619    2.2388   -1.4845 C   0  0  2  0  0  0  0  0  0  0  0  0
   -3.1535    2.4674   -0.9521 C   0  0  0  0  0  0  0  0  0  0  0  0
   -2.8634    3.3945   -0.1987 O   0  0  0  0  0  0  0  0  0  0  0  0
   -4.7883    3.0138   -2.7732 C   0  0  0  0  0  0  0  0  0  0  0  0
   -5.2337    3.4049    0.1551 H   0  0  0  0  0  0  0  0  0  0  0  0
   -4.7192    1.1682   -1.6549 H   0  0  0  0  0  0  0  0  0  0  0  0
   -4.6352    4.0886   -2.6221 H   0  0  0  0  0  0  0  0  0  0  0  0
   -4.0976    2.6887   -3.5582 H   0  0  0  0  0  0  0  0  0  0  0  0
   -5.8111    2.8719   -3.1387 H   0  0  0  0  0  0  0  0  0  0  0  0
   -2.2466    1.5400   -1.4507 N   0  0  0  0  0  0  0  0  0  0  0  0
   -0.8424    1.5707   -1.1286 C   0  0  2  0  0  0  0  0  0  0  0  0
   -0.2161    0.2336   -1.5192 C   0  0  0  0  0  0  0  0  0  0  0  0
    0.0030   -0.0879   -2.6854 O   0  0  0  0  0  0  0  0  0  0  0  0
   -0.5877    1.9571    0.3305 C   0  0  0  0  0  0  0  0  0  0  0  0
   -1.0972    3.6445    0.7373 S   0  0  0  0  0  0  0  0  0  0  0  0
   -2.5850    0.7815   -2.0381 H   0  0  0  0  0  0  0  0  0  0  0  0
   -0.4081    2.3417   -1.7770 H   0  0  0  0  0  0  0  0  0  0  0  0
   -1.1227    1.2816    1.0060 H   0  0  0  0  0  0  0  0  0  0  0  0
    0.4806    1.8735    0.5575 H   0  0  0  0  0  0  0  0  0  0  0  0
    0.0454   -0.5659   -0.4156 N   0  0  0  0  0  0  0  0  0  0  0  0
    0.6151   -1.8882   -0.5289 C   0  0  2  0  0  0  0  0  0  0  0  0
    0.0540   -2.7405    0.6017 C   0  0  0  0  0  0  0  0  0  0  0  0
   -0.2098   -2.2895    1.7144 O   0  0  0  0  0  0  0  0  0  0  0  0
    2.1341   -1.8428   -0.4731 C   0  0  0  0  0  0  0  0  0  0  0  0
   -0.1276   -0.2027    0.5171 H   0  0  0  0  0  0  0  0  0  0  0  0
    0.2844   -2.2935   -1.4914 H   0  0  0  0  0  0  0  0  0  0  0  0
    2.4842   -1.4394    0.4841 H   0  0  0  0  0  0  0  0  0  0  0  0
    2.5654   -2.8428   -0.5878 H   0  0  0  0  0  0  0  0  0  0  0  0
    2.5346   -1.2054   -1.2688 H   0  0  0  0  0  0  0  0  0  0  0  0
   -0.0769   -4.0727    0.2354 N   0  0  0  0  0  0  0  0  0  0  0  0
   -0.5480   -5.0892    1.1468 C   0  0  0  0  0  0  0  0  0  0  0  0
    0.1272   -4.3506   -0.7201 H   0  0  0  0  0  0  0  0  0  0  0  0
    0.3107   -5.5586    1.6490 H   0  0  0  0  0  0  0  0  0  0  0  0
   -1.2066   -4.6304    1.8990 H   0  0  0  0  0  0  0  0  0  0  0  0
   -1.1075   -5.8530    0.5867 H   0  0  0  0  0  0  0  0  0  0  0  0
  1  3  1  0  0  0  0
  1  7  1  0  0  0  0
  1  2  2  0  0  0  0
 23 25  1  0  0  0  0
 23 29  1  0  0  0  0
 23 24  2  0  0  0  0
 50 51  1  0  0  0  0
 51 59  1  0  0  0  0
 51 52  2  0  0  0  0
  8  9  1  0  0  0  0
  9 17  1  0  0  0  0
  9 10  2  0  0  0  0
 30 31  1  0  0  0  0
 31 39  1  0  0  0  0
 31 32  2  0  0  0  0
 40 41  1  0  0  0  0
 41 49  1  0  0  0  0
 41 42  2  0  0  0  0
 50 53  1  0  0  0  0
 30 33  1  0  0  0  0
 59 60  1  0  0  0  0
 17 18  1  0  0  0  0
  8 11  1  0  0  0  0
 11 12  1  0  0  0  0
 40 43  1  0  0  0  0
 43 44  1  0  0  0  0
 49 50  1  0  0  0  0
  7  8  1  0  0  0  0
 29 30  1  0  0  0  0
 39 40  1  0  0  0  0
 12 44  1  0  0  0  0
  3  4  1  0  0  0  0
  3  5  1  0  0  0  0
  3  6  1  0  0  0  0
 25 26  1  0  0  0  0
 25 27  1  0  0  0  0
 25 28  1  0  0  0  0
 53 56  1  0  0  0  0
 53 57  1  0  0  0  0
 53 58  1  0  0  0  0
 33 36  1  0  0  0  0
 33 37  1  0  0  0  0
 33 38  1  0  0  0  0
 60 62  1  0  0  0  0
 60 63  1  0  0  0  0
 60 64  1  0  0  0  0
 18 20  1  0  0  0  0
 18 21  1  0  0  0  0
 18 22  1  0  0  0  0
 11 15  1  0  0  0  0
 11 16  1  0  0  0  0
 43 47  1  0  0  0  0
 43 48  1  0  0  0  0
 50 55  1  0  0  0  0
  8 14  1  0  0  0  0
 30 35  1  0  0  0  0
 40 46  1  0  0  0  0
 59 61  1  0  0  0  0
 17 19  1  0  0  0  0
  7 13  1  0  0  0  0
 29 34  1  0  0  0  0
 49 54  1  0  0  0  0
 39 45  1  0  0  0  0
M  END
$$$$

  -OEChem-05262214473D

 64 63  0     1  0  0  0  0  0999 V2000
   -2.9351    5.3291    5.9194 C   0  0  0  0  0  0  0  0  0  0  0  0
   -4.1287    5.0947    5.7704 O   0  0  0  0  0  0  0  0  0  0  0  0
   -2.5083    6.6402    6.4912 C   0  0  0  0  0  0  0  0  0  0  0  0
   -2.3475    7.4053    5.7147 H   0  0  0  0  0  0  0  0  0  0  0  0
   -3.2632    7.0686    7.1701 H   0  0  0  0  0  0  0  0  0  0  0  0
   -1.5738    6.6183    7.0743 H   0  0  0  0  0  0  0  0  0  0  0  0
   -1.8882    4.4795    5.6062 N   0  0  0  0  0  0  0  0  0  0  0  0
   -2.0763    3.1655    5.0454 C   0  0  2  0  0  0  0  0  0  0  0  0
   -0.9967    2.2346    5.5937 C   0  0  0  0  0  0  0  0  0  0  0  0
   -0.0691    2.6269    6.2986 O   0  0  0  0  0  0  0  0  0  0  0  0
   -2.1389    3.1881    3.5162 C   0  0  0  0  0  0  0  0  0  0  0  0
   -0.6004    3.7644    2.7266 S   0  0  0  0  0  0  0  0  0  0  0  0
   -0.9379    4.7989    5.7806 H   0  0  0  0  0  0  0  0  0  0  0  0
   -3.0420    2.8159    5.4313 H   0  0  0  0  0  0  0  0  0  0  0  0
   -2.3527    2.1879    3.1254 H   0  0  0  0  0  0  0  0  0  0  0  0
   -2.9454    3.8514    3.1855 H   0  0  0  0  0  0  0  0  0  0  0  0
   -1.1777    0.9216    5.1828 N   0  0  0  0  0  0  0  0  0  0  0  0
   -0.2724   -0.1418    5.5511 C   0  0  0  0  0  0  0  0  0  0  0  0
   -1.9977    0.6775    4.6354 H   0  0  0  0  0  0  0  0  0  0  0  0
    0.4948   -0.2574    4.7714 H   0  0  0  0  0  0  0  0  0  0  0  0
    0.2115    0.1038    6.5079 H   0  0  0  0  0  0  0  0  0  0  0  0
   -0.8341   -1.0818    5.6550 H   0  0  0  0  0  0  0  0  0  0  0  0
   -6.7256    2.0330   -0.2766 C   0  0  0  0  0  0  0  0  0  0  0  0
   -7.1824    1.1039   -0.9322 O   0  0  0  0  0  0  0  0  0  0  0  0
   -7.5276    2.6077    0.8435 C   0  0  0  0  0  0  0  0  0  0  0  0
   -8.1775    3.4344    0.5145 H   0  0  0  0  0  0  0  0  0  0  0  0
   -8.2057    1.8676    1.2980 H   0  0  0  0  0  0  0  0  0  0  0  0
   -6.9411    3.0162    1.6819 H   0  0  0  0  0  0  0  0  0  0  0  0
   -5.4935    2.6382   -0.4627 N   0  0  0  0  0  0  0  0  0  0  0  0
   -4.5619    2.2388   -1.4845 C   0  0  2  0  0  0  0  0  0  0  0  0
   -3.1535    2.4674   -0.9521 C   0  0  0  0  0  0  0  0  0  0  0  0
   -2.8634    3.3945   -0.1987 O   0  0  0  0  0  0  0  0  0  0  0  0
   -4.7883    3.0138   -2.7732 C   0  0  0  0  0  0  0  0  0  0  0  0
   -5.2337    3.4049    0.1551 H   0  0  0  0  0  0  0  0  0  0  0  0
   -4.7192    1.1682   -1.6549 H   0  0  0  0  0  0  0  0  0  0  0  0
   -4.6352    4.0886   -2.6221 H   0  0  0  0  0  0  0  0  0  0  0  0
   -4.0976    2.6887   -3.5582 H   0  0  0  0  0  0  0  0  0  0  0  0
   -5.8111    2.8719   -3.1387 H   0  0  0  0  0  0  0  0  0  0  0  0
   -2.2466    1.5400   -1.4507 N   0  0  0  0  0  0  0  0  0  0  0  0
   -0.8424    1.5707   -1.1286 C   0  0  2  0  0  0  0  0  0  0  0  0
   -0.2161    0.2336   -1.5192 C   0  0  0  0  0  0  0  0  0  0  0  0
    0.2478    0.0123   -2.6360 O   0  0  0  0  0  0  0  0  0  0  0  0
   -0.5877    1.9571    0.3305 C   0  0  0  0  0  0  0  0  0  0  0  0
   -1.0972    3.6445    0.7373 S   0  0  0  0  0  0  0  0  0  0  0  0
   -2.5850    0.7815   -2.0381 H   0  0  0  0  0  0  0  0  0  0  0  0
   -0.4081    2.3417   -1.7770 H   0  0  0  0  0  0  0  0  0  0  0  0
   -1.1227    1.2816    1.0060 H   0  0  0  0  0  0  0  0  0  0  0  0
    0.4806    1.8735    0.5575 H   0  0  0  0  0  0  0  0  0  0  0  0
   -0.2592   -0.6887   -0.4833 N   0  0  0  0  0  0  0  0  0  0  0  0
    0.2491   -2.0340   -0.6165 C   0  0  2  0  0  0  0  0  0  0  0  0
   -0.6023   -2.9469    0.2560 C   0  0  0  0  0  0  0  0  0  0  0  0
   -1.0904   -2.5884    1.3257 O   0  0  0  0  0  0  0  0  0  0  0  0
    1.7147   -2.1137   -0.2185 C   0  0  0  0  0  0  0  0  0  0  0  0
   -0.6223   -0.4068    0.4224 H   0  0  0  0  0  0  0  0  0  0  0  0
    0.1275   -2.3154   -1.6681 H   0  0  0  0  0  0  0  0  0  0  0  0
    1.8563   -1.8352    0.8322 H   0  0  0  0  0  0  0  0  0  0  0  0
    2.1062   -3.1282   -0.3471 H   0  0  0  0  0  0  0  0  0  0  0  0
    2.3213   -1.4344   -0.8270 H   0  0  0  0  0  0  0  0  0  0  0  0
   -0.7171   -4.2222   -0.2794 N   0  0  0  0  0  0  0  0  0  0  0  0
   -1.4395   -5.2834    0.3823 C   0  0  0  0  0  0  0  0  0  0  0  0
   -0.3138   -4.4198   -1.1905 H   0  0  0  0  0  0  0  0  0  0  0  0
   -0.7460   -5.8659    1.0067 H   0  0  0  0  0  0  0  0  0  0  0  0
   -2.2277   -4.8507    1.0159 H   0  0  0  0  0  0  0  0  0  0  0  0
   -1.8953   -5.9421   -0.3716 H   0  0  0  0  0  0  0  0  0  0  0  0
  1  3  1  0  0  0  0
  1  7  1  0  0  0  0
  1  2  2  0  0  0  0
 23 25  1  0  0  0  0
 23 29  1  0  0  0  0
 23 24  2  0  0  0  0
 50 51  1  0  0  0  0
 51 59  1  0  0  0  0
 51 52  2  0  0  0  0
  8  9  1  0  0  0  0
  9 17  1  0  0  0  0
  9 10  2  0  0  0  0
 30 31  1  0  0  0  0
 31 39  1  0  0  0  0
 31 32  2  0  0  0  0
 40 41  1  0  0  0  0
 41 49  1  0  0  0  0
 41 42  2  0  0  0  0
 50 53  1  0  0  0  0
 30 33  1  0  0  0  0
 59 60  1  0  0  0  0
 17 18  1  0  0  0  0
  8 11  1  0  0  0  0
 11 12  1  0  0  0  0
 40 43  1  0  0  0  0
 43 44  1  0  0  0  0
 49 50  1  0  0  0  0
  7  8  1  0  0  0  0
 29 30  1  0  0  0  0
 39 40  1  0  0  0  0
 12 44  1  0  0  0  0
  3  4  1  0  0  0  0
  3  5  1  0  0  0  0
  3  6  1  0  0  0  0
 25 26  1  0  0  0  0
 25 27  1  0  0  0  0
 25 28  1  0  0  0  0
 53 56  1  0  0  0  0
 53 57  1  0  0  0  0
 53 58  1  0  0  0  0
 33 36  1  0  0  0  0
 33 37  1  0  0  0  0
 33 38  1  0  0  0  0
 60 62  1  0  0  0  0
 60 63  1  0  0  0  0
 60 64  1  0  0  0  0
 18 20  1  0  0  0  0
 18 21  1  0  0  0  0
 18 22  1  0  0  0  0
 11 15  1  0  0  0  0
 11 16  1  0  0  0  0
 43 47  1  0  0  0  0
 43 48  1  0  0  0  0
 50 55  1  0  0  0  0
  8 14  1  0  0  0  0
 30 35  1  0  0  0  0
 40 46  1  0  0  0  0
 59 61  1  0  0  0  0
 17 19  1  0  0  0  0
  7 13  1  0  0  0  0
 29 34  1  0  0  0  0
 49 54  1  0  0  0  0
 39 45  1  0  0  0  0
M  END
$$$$

  -OEChem-05262214473D

 64 63  0     1  0  0  0  0  0999 V2000
   -2.9351    5.3291    5.9194 C   0  0  0  0  0  0  0  0  0  0  0  0
   -4.1287    5.0947    5.7704 O   0  0  0  0  0  0  0  0  0  0  0  0
   -2.5083    6.6402    6.4912 C   0  0  0  0  0  0  0  0  0  0  0  0
   -2.3475    7.4053    5.7147 H   0  0  0  0  0  0  0  0  0  0  0  0
   -3.2632    7.0686    7.1701 H   0  0  0  0  0  0  0  0  0  0  0  0
   -1.5738    6.6183    7.0743 H   0  0  0  0  0  0  0  0  0  0  0  0
   -1.8882    4.4795    5.6062 N   0  0  0  0  0  0  0  0  0  0  0  0
   -2.0763    3.1655    5.0454 C   0  0  2  0  0  0  0  0  0  0  0  0
   -0.9967    2.2346    5.5937 C   0  0  0  0  0  0  0  0  0  0  0  0
   -0.0691    2.6269    6.2986 O   0  0  0  0  0  0  0  0  0  0  0  0
   -2.1389    3.1881    3.5162 C   0  0  0  0  0  0  0  0  0  0  0  0
   -0.6004    3.7644    2.7266 S   0  0  0  0  0  0  0  0  0  0  0  0
   -0.9379    4.7989    5.7806 H   0  0  0  0  0  0  0  0  0  0  0  0
   -3.0420    2.8159    5.4313 H   0  0  0  0  0  0  0  0  0  0  0  0
   -2.3527    2.1879    3.1254 H   0  0  0  0  0  0  0  0  0  0  0  0
   -2.9454    3.8514    3.1855 H   0  0  0  0  0  0  0  0  0  0  0  0
   -1.1777    0.9216    5.1828 N   0  0  0  0  0  0  0  0  0  0  0  0
   -0.2724   -0.1418    5.5511 C   0  0  0  0  0  0  0  0  0  0  0  0
   -1.9977    0.6775    4.6354 H   0  0  0  0  0  0  0  0  0  0  0  0
    0.4948   -0.2574    4.7714 H   0  0  0  0  0  0  0  0  0  0  0  0
    0.2115    0.1038    6.5079 H   0  0  0  0  0  0  0  0  0  0  0  0
   -0.8341   -1.0818    5.6550 H   0  0  0  0  0  0  0  0  0  0  0  0
   -6.7256    2.0330   -0.2766 C   0  0  0  0  0  0  0  0  0  0  0  0
   -7.1824    1.1039   -0.9322 O   0  0  0  0  0  0  0  0  0  0  0  0
   -7.5276    2.6077    0.8435 C   0  0  0  0  0  0  0  0  0  0  0  0
   -8.1775    3.4344    0.5145 H   0  0  0  0  0  0  0  0  0  0  0  0
   -8.2057    1.8676    1.2980 H   0  0  0  0  0  0  0  0  0  0  0  0
   -6.9411    3.0162    1.6819 H   0  0  0  0  0  0  0  0  0  0  0  0
   -5.4935    2.6382   -0.4627 N   0  0  0  0  0  0  0  0  0  0  0  0
   -4.5619    2.2388   -1.4845 C   0  0  2  0  0  0  0  0  0  0  0  0
   -3.1535    2.4674   -0.9521 C   0  0  0  0  0  0  0  0  0  0  0  0
   -2.8634    3.3945   -0.1987 O   0  0  0  0  0  0  0  0  0  0  0  0
   -4.7883    3.0138   -2.7732 C   0  0  0  0  0  0  0  0  0  0  0  0
   -5.2337    3.4049    0.1551 H   0  0  0  0  0  0  0  0  0  0  0  0
   -4.7192    1.1682   -1.6549 H   0  0  0  0  0  0  0  0  0  0  0  0
   -4.6352    4.0886   -2.6221 H   0  0  0  0  0  0  0  0  0  0  0  0
   -4.0976    2.6887   -3.5582 H   0  0  0  0  0  0  0  0  0  0  0  0
   -5.8111    2.8719   -3.1387 H   0  0  0  0  0  0  0  0  0  0  0  0
   -2.2466    1.5400   -1.4507 N   0  0  0  0  0  0  0  0  0  0  0  0
   -0.8424    1.5707   -1.1286 C   0  0  2  0  0  0  0  0  0  0  0  0
   -0.2161    0.2336   -1.5192 C   0  0  0  0  0  0  0  0  0  0  0  0
    0.4798    0.0877   -2.5221 O   0  0  0  0  0  0  0  0  0  0  0  0
   -0.5877    1.9571    0.3305 C   0  0  0  0  0  0  0  0  0  0  0  0
   -1.0972    3.6445    0.7373 S   0  0  0  0  0  0  0  0  0  0  0  0
   -2.5850    0.7815   -2.0381 H   0  0  0  0  0  0  0  0  0  0  0  0
   -0.4081    2.3417   -1.7770 H   0  0  0  0  0  0  0  0  0  0  0  0
   -1.1227    1.2816    1.0060 H   0  0  0  0  0  0  0  0  0  0  0  0
    0.4806    1.8735    0.5575 H   0  0  0  0  0  0  0  0  0  0  0  0
   -0.5461   -0.7801   -0.6309 N   0  0  0  0  0  0  0  0  0  0  0  0
   -0.0942   -2.1414   -0.7994 C   0  0  2  0  0  0  0  0  0  0  0  0
   -1.1715   -3.0662   -0.2485 C   0  0  0  0  0  0  0  0  0  0  0  0
   -1.8727   -2.7776    0.7191 O   0  0  0  0  0  0  0  0  0  0  0  0
    1.2339   -2.3746   -0.0964 C   0  0  0  0  0  0  0  0  0  0  0  0
   -1.0922   -0.5611    0.1971 H   0  0  0  0  0  0  0  0  0  0  0  0
    0.0145   -2.3074   -1.8768 H   0  0  0  0  0  0  0  0  0  0  0  0
    1.1448   -2.2129    0.9841 H   0  0  0  0  0  0  0  0  0  0  0  0
    1.5892   -3.3990   -0.2490 H   0  0  0  0  0  0  0  0  0  0  0  0
    2.0001   -1.6883   -0.4730 H   0  0  0  0  0  0  0  0  0  0  0  0
   -1.2287   -4.2696   -0.9375 N   0  0  0  0  0  0  0  0  0  0  0  0
   -2.1402   -5.3309   -0.5787 C   0  0  0  0  0  0  0  0  0  0  0  0
   -0.6378   -4.4075   -1.7521 H   0  0  0  0  0  0  0  0  0  0  0  0
   -1.6414   -6.0246    0.1141 H   0  0  0  0  0  0  0  0  0  0  0  0
   -3.0285   -4.9022   -0.0919 H   0  0  0  0  0  0  0  0  0  0  0  0
   -2.4451   -5.8743   -1.4852 H   0  0  0  0  0  0  0  0  0  0  0  0
  1  3  1  0  0  0  0
  1  7  1  0  0  0  0
  1  2  2  0  0  0  0
 23 25  1  0  0  0  0
 23 29  1  0  0  0  0
 23 24  2  0  0  0  0
 50 51  1  0  0  0  0
 51 59  1  0  0  0  0
 51 52  2  0  0  0  0
  8  9  1  0  0  0  0
  9 17  1  0  0  0  0
  9 10  2  0  0  0  0
 30 31  1  0  0  0  0
 31 39  1  0  0  0  0
 31 32  2  0  0  0  0
 40 41  1  0  0  0  0
 41 49  1  0  0  0  0
 41 42  2  0  0  0  0
 50 53  1  0  0  0  0
 30 33  1  0  0  0  0
 59 60  1  0  0  0  0
 17 18  1  0  0  0  0
  8 11  1  0  0  0  0
 11 12  1  0  0  0  0
 40 43  1  0  0  0  0
 43 44  1  0  0  0  0
 49 50  1  0  0  0  0
  7  8  1  0  0  0  0
 29 30  1  0  0  0  0
 39 40  1  0  0  0  0
 12 44  1  0  0  0  0
  3  4  1  0  0  0  0
  3  5  1  0  0  0  0
  3  6  1  0  0  0  0
 25 26  1  0  0  0  0
 25 27  1  0  0  0  0
 25 28  1  0  0  0  0
 53 56  1  0  0  0  0
 53 57  1  0  0  0  0
 53 58  1  0  0  0  0
 33 36  1  0  0  0  0
 33 37  1  0  0  0  0
 33 38  1  0  0  0  0
 60 62  1  0  0  0  0
 60 63  1  0  0  0  0
 60 64  1  0  0  0  0
 18 20  1  0  0  0  0
 18 21  1  0  0  0  0
 18 22  1  0  0  0  0
 11 15  1  0  0  0  0
 11 16  1  0  0  0  0
 43 47  1  0  0  0  0
 43 48  1  0  0  0  0
 50 55  1  0  0  0  0
  8 14  1  0  0  0  0
 30 35  1  0  0  0  0
 40 46  1  0  0  0  0
 59 61  1  0  0  0  0
 17 19  1  0  0  0  0
  7 13  1  0  0  0  0
 29 34  1  0  0  0  0
 49 54  1  0  0  0  0
 39 45  1  0  0  0  0
M  END
$$$$

  -OEChem-05262214473D

 64 63  0     1  0  0  0  0  0999 V2000
   -2.9351    5.3291    5.9194 C   0  0  0  0  0  0  0  0  0  0  0  0
   -4.1287    5.0947    5.7704 O   0  0  0  0  0  0  0  0  0  0  0  0
   -2.5083    6.6402    6.4912 C   0  0  0  0  0  0  0  0  0  0  0  0
   -2.3475    7.4053    5.7147 H   0  0  0  0  0  0  0  0  0  0  0  0
   -3.2632    7.0686    7.1701 H   0  0  0  0  0  0  0  0  0  0  0  0
   -1.5738    6.6183    7.0743 H   0  0  0  0  0  0  0  0  0  0  0  0
   -1.8882    4.4795    5.6062 N   0  0  0  0  0  0  0  0  0  0  0  0
   -2.0763    3.1655    5.0454 C   0  0  2  0  0  0  0  0  0  0  0  0
   -0.9967    2.2346    5.5937 C   0  0  0  0  0  0  0  0  0  0  0  0
   -0.0691    2.6269    6.2986 O   0  0  0  0  0  0  0  0  0  0  0  0
   -2.1389    3.1881    3.5162 C   0  0  0  0  0  0  0  0  0  0  0  0
   -0.6004    3.7644    2.7266 S   0  0  0  0  0  0  0  0  0  0  0  0
   -0.9379    4.7989    5.7806 H   0  0  0  0  0  0  0  0  0  0  0  0
   -3.0420    2.8159    5.4313 H   0  0  0  0  0  0  0  0  0  0  0  0
   -2.3527    2.1879    3.1254 H   0  0  0  0  0  0  0  0  0  0  0  0
   -2.9454    3.8514    3.1855 H   0  0  0  0  0  0  0  0  0  0  0  0
   -1.1777    0.9216    5.1828 N   0  0  0  0  0  0  0  0  0  0  0  0
   -0.2724   -0.1418    5.5511 C   0  0  0  0  0  0  0  0  0  0  0  0
   -1.9977    0.6775    4.6354 H   0  0  0  0  0  0  0  0  0  0  0  0
    0.4948   -0.2574    4.7714 H   0  0  0  0  0  0  0  0  0  0  0  0
    0.2115    0.1038    6.5079 H   0  0  0  0  0  0  0  0  0  0  0  0
   -0.8341   -1.0818    5.6550 H   0  0  0  0  0  0  0  0  0  0  0  0
   -6.7256    2.0330   -0.2766 C   0  0  0  0  0  0  0  0  0  0  0  0
   -7.1824    1.1039   -0.9322 O   0  0  0  0  0  0  0  0  0  0  0  0
   -7.5276    2.6077    0.8435 C   0  0  0  0  0  0  0  0  0  0  0  0
   -8.1775    3.4344    0.5145 H   0  0  0  0  0  0  0  0  0  0  0  0
   -8.2057    1.8676    1.2980 H   0  0  0  0  0  0  0  0  0  0  0  0
   -6.9411    3.0162    1.6819 H   0  0  0  0  0  0  0  0  0  0  0  0
   -5.4935    2.6382   -0.4627 N   0  0  0  0  0  0  0  0  0  0  0  0
   -4.5619    2.2388   -1.4845 C   0  0  2  0  0  0  0  0  0  0  0  0
   -3.1535    2.4674   -0.9521 C   0  0  0  0  0  0  0  0  0  0  0  0
   -2.8634    3.3945   -0.1987 O   0  0  0  0  0  0  0  0  0  0  0  0
   -4.7883    3.0138   -2.7732 C   0  0  0  0  0  0  0  0  0  0  0  0
   -5.2337    3.4049    0.1551 H   0  0  0  0  0  0  0  0  0  0  0  0
   -4.7192    1.1682   -1.6549 H   0  0  0  0  0  0  0  0  0  0  0  0
   -4.6352    4.0886   -2.6221 H   0  0  0  0  0  0  0  0  0  0  0  0
   -4.0976    2.6887   -3.5582 H   0  0  0  0  0  0  0  0  0  0  0  0
   -5.8111    2.8719   -3.1387 H   0  0  0  0  0  0  0  0  0  0  0  0
   -2.2466    1.5400   -1.4507 N   0  0  0  0  0  0  0  0  0  0  0  0
   -0.8424    1.5707   -1.1286 C   0  0  2  0  0  0  0  0  0  0  0  0
   -0.2161    0.2336   -1.5192 C   0  0  0  0  0  0  0  0  0  0  0  0
    0.6830    0.1331   -2.3516 O   0  0  0  0  0  0  0  0  0  0  0  0
   -0.5877    1.9571    0.3305 C   0  0  0  0  0  0  0  0  0  0  0  0
   -1.0972    3.6445    0.7373 S   0  0  0  0  0  0  0  0  0  0  0  0
   -2.5850    0.7815   -2.0381 H   0  0  0  0  0  0  0  0  0  0  0  0
   -0.4081    2.3417   -1.7770 H   0  0  0  0  0  0  0  0  0  0  0  0
   -1.1227    1.2816    1.0060 H   0  0  0  0  0  0  0  0  0  0  0  0
    0.4806    1.8735    0.5575 H   0  0  0  0  0  0  0  0  0  0  0  0
   -0.7959   -0.8336   -0.8481 N   0  0  0  0  0  0  0  0  0  0  0  0
   -0.3915   -2.2029   -1.0654 C   0  0  2  0  0  0  0  0  0  0  0  0
   -1.6150   -3.0902   -0.8774 C   0  0  0  0  0  0  0  0  0  0  0  0
   -2.5034   -2.8442   -0.0642 O   0  0  0  0  0  0  0  0  0  0  0  0
    0.7246   -2.6077   -0.1150 C   0  0  0  0  0  0  0  0  0  0  0  0
   -1.5053   -0.6551   -0.1433 H   0  0  0  0  0  0  0  0  0  0  0  0
   -0.0469   -2.2700   -2.1031 H   0  0  0  0  0  0  0  0  0  0  0  0
    0.3980   -2.5467    0.9295 H   0  0  0  0  0  0  0  0  0  0  0  0
    1.0496   -3.6368   -0.3001 H   0  0  0  0  0  0  0  0  0  0  0  0
    1.5928   -1.9499   -0.2307 H   0  0  0  0  0  0  0  0  0  0  0  0
   -1.5769   -4.2116   -1.6942 N   0  0  0  0  0  0  0  0  0  0  0  0
   -2.6024   -5.2284   -1.6708 C   0  0  0  0  0  0  0  0  0  0  0  0
   -0.8227   -4.3145   -2.3668 H   0  0  0  0  0  0  0  0  0  0  0  0
   -2.3147   -6.0239   -0.9677 H   0  0  0  0  0  0  0  0  0  0  0  0
   -3.5545   -4.7813   -1.3488 H   0  0  0  0  0  0  0  0  0  0  0  0
   -2.7194   -5.6542   -2.6783 H   0  0  0  0  0  0  0  0  0  0  0  0
  1  3  1  0  0  0  0
  1  7  1  0  0  0  0
  1  2  2  0  0  0  0
 23 25  1  0  0  0  0
 23 29  1  0  0  0  0
 23 24  2  0  0  0  0
 50 51  1  0  0  0  0
 51 59  1  0  0  0  0
 51 52  2  0  0  0  0
  8  9  1  0  0  0  0
  9 17  1  0  0  0  0
  9 10  2  0  0  0  0
 30 31  1  0  0  0  0
 31 39  1  0  0  0  0
 31 32  2  0  0  0  0
 40 41  1  0  0  0  0
 41 49  1  0  0  0  0
 41 42  2  0  0  0  0
 50 53  1  0  0  0  0
 30 33  1  0  0  0  0
 59 60  1  0  0  0  0
 17 18  1  0  0  0  0
  8 11  1  0  0  0  0
 11 12  1  0  0  0  0
 40 43  1  0  0  0  0
 43 44  1  0  0  0  0
 49 50  1  0  0  0  0
  7  8  1  0  0  0  0
 29 30  1  0  0  0  0
 39 40  1  0  0  0  0
 12 44  1  0  0  0  0
  3  4  1  0  0  0  0
  3  5  1  0  0  0  0
  3  6  1  0  0  0  0
 25 26  1  0  0  0  0
 25 27  1  0  0  0  0
 25 28  1  0  0  0  0
 53 56  1  0  0  0  0
 53 57  1  0  0  0  0
 53 58  1  0  0  0  0
 33 36  1  0  0  0  0
 33 37  1  0  0  0  0
 33 38  1  0  0  0  0
 60 62  1  0  0  0  0
 60 63  1  0  0  0  0
 60 64  1  0  0  0  0
 18 20  1  0  0  0  0
 18 21  1  0  0  0  0
 18 22  1  0  0  0  0
 11 15  1  0  0  0  0
 11 16  1  0  0  0  0
 43 47  1  0  0  0  0
 43 48  1  0  0  0  0
 50 55  1  0  0  0  0
  8 14  1  0  0  0  0
 30 35  1  0  0  0  0
 40 46  1  0  0  0  0
 59 61  1  0  0  0  0
 17 19  1  0  0  0  0
  7 13  1  0  0  0  0
 29 34  1  0  0  0  0
 49 54  1  0  0  0  0
 39 45  1  0  0  0  0
M  END
$$$$

  -OEChem-05262214473D

 64 63  0     1  0  0  0  0  0999 V2000
   -2.9351    5.3291    5.9194 C   0  0  0  0  0  0  0  0  0  0  0  0
   -4.1287    5.0947    5.7704 O   0  0  0  0  0  0  0  0  0  0  0  0
   -2.5083    6.6402    6.4912 C   0  0  0  0  0  0  0  0  0  0  0  0
   -2.3475    7.4053    5.7147 H   0  0  0  0  0  0  0  0  0  0  0  0
   -3.2632    7.0686    7.1701 H   0  0  0  0  0  0  0  0  0  0  0  0
   -1.5738    6.6183    7.0743 H   0  0  0  0  0  0  0  0  0  0  0  0
   -1.8882    4.4795    5.6062 N   0  0  0  0  0  0  0  0  0  0  0  0
   -2.0763    3.1655    5.0454 C   0  0  2  0  0  0  0  0  0  0  0  0
   -0.9967    2.2346    5.5937 C   0  0  0  0  0  0  0  0  0  0  0  0
   -0.0691    2.6269    6.2986 O   0  0  0  0  0  0  0  0  0  0  0  0
   -2.1389    3.1881    3.5162 C   0  0  0  0  0  0  0  0  0  0  0  0
   -0.6004    3.7644    2.7266 S   0  0  0  0  0  0  0  0  0  0  0  0
   -0.9379    4.7989    5.7806 H   0  0  0  0  0  0  0  0  0  0  0  0
   -3.0420    2.8159    5.4313 H   0  0  0  0  0  0  0  0  0  0  0  0
   -2.3527    2.1879    3.1254 H   0  0  0  0  0  0  0  0  0  0  0  0
   -2.9454    3.8514    3.1855 H   0  0  0  0  0  0  0  0  0  0  0  0
   -1.1777    0.9216    5.1828 N   0  0  0  0  0  0  0  0  0  0  0  0
   -0.2724   -0.1418    5.5511 C   0  0  0  0  0  0  0  0  0  0  0  0
   -1.9977    0.6775    4.6354 H   0  0  0  0  0  0  0  0  0  0  0  0
    0.4948   -0.2574    4.7714 H   0  0  0  0  0  0  0  0  0  0  0  0
    0.2115    0.1038    6.5079 H   0  0  0  0  0  0  0  0  0  0  0  0
   -0.8341   -1.0818    5.6550 H   0  0  0  0  0  0  0  0  0  0  0  0
   -6.7256    2.0330   -0.2766 C   0  0  0  0  0  0  0  0  0  0  0  0
   -7.1824    1.1039   -0.9322 O   0  0  0  0  0  0  0  0  0  0  0  0
   -7.5276    2.6077    0.8435 C   0  0  0  0  0  0  0  0  0  0  0  0
   -8.1775    3.4344    0.5145 H   0  0  0  0  0  0  0  0  0  0  0  0
   -8.2057    1.8676    1.2980 H   0  0  0  0  0  0  0  0  0  0  0  0
   -6.9411    3.0162    1.6819 H   0  0  0  0  0  0  0  0  0  0  0  0
   -5.4935    2.6382   -0.4627 N   0  0  0  0  0  0  0  0  0  0  0  0
   -4.5619    2.2388   -1.4845 C   0  0  2  0  0  0  0  0  0  0  0  0
   -3.1535    2.4674   -0.9521 C   0  0  0  0  0  0  0  0  0  0  0  0
   -2.8634    3.3945   -0.1987 O   0  0  0  0  0  0  0  0  0  0  0  0
   -4.7883    3.0138   -2.7732 C   0  0  0  0  0  0  0  0  0  0  0  0
   -5.2337    3.4049    0.1551 H   0  0  0  0  0  0  0  0  0  0  0  0
   -4.7192    1.1682   -1.6549 H   0  0  0  0  0  0  0  0  0  0  0  0
   -4.6352    4.0886   -2.6221 H   0  0  0  0  0  0  0  0  0  0  0  0
   -4.0976    2.6887   -3.5582 H   0  0  0  0  0  0  0  0  0  0  0  0
   -5.8111    2.8719   -3.1387 H   0  0  0  0  0  0  0  0  0  0  0  0
   -2.2466    1.5400   -1.4507 N   0  0  0  0  0  0  0  0  0  0  0  0
   -0.8424    1.5707   -1.1286 C   0  0  2  0  0  0  0  0  0  0  0  0
   -0.2161    0.2336   -1.5192 C   0  0  0  0  0  0  0  0  0  0  0  0
    0.8437    0.1453   -2.1360 O   0  0  0  0  0  0  0  0  0  0  0  0
   -0.5877    1.9571    0.3305 C   0  0  0  0  0  0  0  0  0  0  0  0
   -1.0972    3.6445    0.7373 S   0  0  0  0  0  0  0  0  0  0  0  0
   -2.5850    0.7815   -2.0381 H   0  0  0  0  0  0  0  0  0  0  0  0
   -0.4081    2.3417   -1.7770 H   0  0  0  0  0  0  0  0  0  0  0  0
   -1.1227    1.2816    1.0060 H   0  0  0  0  0  0  0  0  0  0  0  0
    0.4806    1.8735    0.5575 H   0  0  0  0  0  0  0  0  0  0  0  0
   -0.9916   -0.8458   -1.1202 N   0  0  0  0  0  0  0  0  0  0  0  0
   -0.6224   -2.2145   -1.3961 C   0  0  2  0  0  0  0  0  0  0  0  0
   -1.9024   -3.0172   -1.5880 C   0  0  0  0  0  0  0  0  0  0  0  0
   -2.9395   -2.7837   -0.9707 O   0  0  0  0  0  0  0  0  0  0  0  0
    0.2214   -2.7972   -0.2732 C   0  0  0  0  0  0  0  0  0  0  0  0
   -1.8334   -0.6825   -0.5758 H   0  0  0  0  0  0  0  0  0  0  0  0
   -0.0524   -2.2059   -2.3316 H   0  0  0  0  0  0  0  0  0  0  0  0
   -0.3330   -2.8140    0.6722 H   0  0  0  0  0  0  0  0  0  0  0  0
    0.5243   -3.8254   -0.4970 H   0  0  0  0  0  0  0  0  0  0  0  0
    1.1271   -2.2013   -0.1168 H   0  0  0  0  0  0  0  0  0  0  0  0
   -1.7379   -4.0523   -2.4978 N   0  0  0  0  0  0  0  0  0  0  0  0
   -2.7946   -4.9828   -2.8195 C   0  0  0  0  0  0  0  0  0  0  0  0
   -0.8558   -4.1472   -2.9925 H   0  0  0  0  0  0  0  0  0  0  0  0
   -2.7198   -5.8639   -2.1652 H   0  0  0  0  0  0  0  0  0  0  0  0
   -3.7697   -4.4964   -2.6693 H   0  0  0  0  0  0  0  0  0  0  0  0
   -2.6994   -5.2968   -3.8694 H   0  0  0  0  0  0  0  0  0  0  0  0
  1  3  1  0  0  0  0
  1  7  1  0  0  0  0
  1  2  2  0  0  0  0
 23 25  1  0  0  0  0
 23 29  1  0  0  0  0
 23 24  2  0  0  0  0
 50 51  1  0  0  0  0
 51 59  1  0  0  0  0
 51 52  2  0  0  0  0
  8  9  1  0  0  0  0
  9 17  1  0  0  0  0
  9 10  2  0  0  0  0
 30 31  1  0  0  0  0
 31 39  1  0  0  0  0
 31 32  2  0  0  0  0
 40 41  1  0  0  0  0
 41 49  1  0  0  0  0
 41 42  2  0  0  0  0
 50 53  1  0  0  0  0
 30 33  1  0  0  0  0
 59 60  1  0  0  0  0
 17 18  1  0  0  0  0
  8 11  1  0  0  0  0
 11 12  1  0  0  0  0
 40 43  1  0  0  0  0
 43 44  1  0  0  0  0
 49 50  1  0  0  0  0
  7  8  1  0  0  0  0
 29 30  1  0  0  0  0
 39 40  1  0  0  0  0
 12 44  1  0  0  0  0
  3  4  1  0  0  0  0
  3  5  1  0  0  0  0
  3  6  1  0  0  0  0
 25 26  1  0  0  0  0
 25 27  1  0  0  0  0
 25 28  1  0  0  0  0
 53 56  1  0  0  0  0
 53 57  1  0  0  0  0
 53 58  1  0  0  0  0
 33 36  1  0  0  0  0
 33 37  1  0  0  0  0
 33 38  1  0  0  0  0
 60 62  1  0  0  0  0
 60 63  1  0  0  0  0
 60 64  1  0  0  0  0
 18 20  1  0  0  0  0
 18 21  1  0  0  0  0
 18 22  1  0  0  0  0
 11 15  1  0  0  0  0
 11 16  1  0  0  0  0
 43 47  1  0  0  0  0
 43 48  1  0  0  0  0
 50 55  1  0  0  0  0
  8 14  1  0  0  0  0
 30 35  1  0  0  0  0
 40 46  1  0  0  0  0
 59 61  1  0  0  0  0
 17 19  1  0  0  0  0
  7 13  1  0  0  0  0
 29 34  1  0  0  0  0
 49 54  1  0  0  0  0
 39 45  1  0  0  0  0
M  END
$$$$

  -OEChem-05262214473D

 64 63  0     1  0  0  0  0  0999 V2000
   -2.9351    5.3291    5.9194 C   0  0  0  0  0  0  0  0  0  0  0  0
   -4.1287    5.0947    5.7704 O   0  0  0  0  0  0  0  0  0  0  0  0
   -2.5083    6.6402    6.4912 C   0  0  0  0  0  0  0  0  0  0  0  0
   -2.3475    7.4053    5.7147 H   0  0  0  0  0  0  0  0  0  0  0  0
   -3.2632    7.0686    7.1701 H   0  0  0  0  0  0  0  0  0  0  0  0
   -1.5738    6.6183    7.0743 H   0  0  0  0  0  0  0  0  0  0  0  0
   -1.8882    4.4795    5.6062 N   0  0  0  0  0  0  0  0  0  0  0  0
   -2.0763    3.1655    5.0454 C   0  0  2  0  0  0  0  0  0  0  0  0
   -0.9967    2.2346    5.5937 C   0  0  0  0  0  0  0  0  0  0  0  0
   -0.0691    2.6269    6.2986 O   0  0  0  0  0  0  0  0  0  0  0  0
   -2.1389    3.1881    3.5162 C   0  0  0  0  0  0  0  0  0  0  0  0
   -0.6004    3.7644    2.7266 S   0  0  0  0  0  0  0  0  0  0  0  0
   -0.9379    4.7989    5.7806 H   0  0  0  0  0  0  0  0  0  0  0  0
   -3.0420    2.8159    5.4313 H   0  0  0  0  0  0  0  0  0  0  0  0
   -2.3527    2.1879    3.1254 H   0  0  0  0  0  0  0  0  0  0  0  0
   -2.9454    3.8514    3.1855 H   0  0  0  0  0  0  0  0  0  0  0  0
   -1.1777    0.9216    5.1828 N   0  0  0  0  0  0  0  0  0  0  0  0
   -0.2724   -0.1418    5.5511 C   0  0  0  0  0  0  0  0  0  0  0  0
   -1.9977    0.6775    4.6354 H   0  0  0  0  0  0  0  0  0  0  0  0
    0.4948   -0.2574    4.7714 H   0  0  0  0  0  0  0  0  0  0  0  0
    0.2115    0.1038    6.5079 H   0  0  0  0  0  0  0  0  0  0  0  0
   -0.8341   -1.0818    5.6550 H   0  0  0  0  0  0  0  0  0  0  0  0
   -6.7256    2.0330   -0.2766 C   0  0  0  0  0  0  0  0  0  0  0  0
   -7.1824    1.1039   -0.9322 O   0  0  0  0  0  0  0  0  0  0  0  0
   -7.5276    2.6077    0.8435 C   0  0  0  0  0  0  0  0  0  0  0  0
   -8.1775    3.4344    0.5145 H   0  0  0  0  0  0  0  0  0  0  0  0
   -8.2057    1.8676    1.2980 H   0  0  0  0  0  0  0  0  0  0  0  0
   -6.9411    3.0162    1.6819 H   0  0  0  0  0  0  0  0  0  0  0  0
   -5.4935    2.6382   -0.4627 N   0  0  0  0  0  0  0  0  0  0  0  0
   -4.5619    2.2388   -1.4845 C   0  0  2  0  0  0  0  0  0  0  0  0
   -3.1535    2.4674   -0.9521 C   0  0  0  0  0  0  0  0  0  0  0  0
   -2.8634    3.3945   -0.1987 O   0  0  0  0  0  0  0  0  0  0  0  0
   -4.7883    3.0138   -2.7732 C   0  0  0  0  0  0  0  0  0  0  0  0
   -5.2337    3.4049    0.1551 H   0  0  0  0  0  0  0  0  0  0  0  0
   -4.7192    1.1682   -1.6549 H   0  0  0  0  0  0  0  0  0  0  0  0
   -4.6352    4.0886   -2.6221 H   0  0  0  0  0  0  0  0  0  0  0  0
   -4.0976    2.6887   -3.5582 H   0  0  0  0  0  0  0  0  0  0  0  0
   -5.8111    2.8719   -3.1387 H   0  0  0  0  0  0  0  0  0  0  0  0
   -2.2466    1.5400   -1.4507 N   0  0  0  0  0  0  0  0  0  0  0  0
   -0.8424    1.5707   -1.1286 C   0  0  2  0  0  0  0  0  0  0  0  0
   -0.2161    0.2336   -1.5192 C   0  0  0  0  0  0  0  0  0  0  0  0
    0.9508    0.1237   -1.8900 O   0  0  0  0  0  0  0  0  0  0  0  0
   -0.5877    1.9571    0.3305 C   0  0  0  0  0  0  0  0  0  0  0  0
   -1.0972    3.6445    0.7373 S   0  0  0  0  0  0  0  0  0  0  0  0
   -2.5850    0.7815   -2.0381 H   0  0  0  0  0  0  0  0  0  0  0  0
   -0.4081    2.3417   -1.7770 H   0  0  0  0  0  0  0  0  0  0  0  0
   -1.1227    1.2816    1.0060 H   0  0  0  0  0  0  0  0  0  0  0  0
    0.4806    1.8735    0.5575 H   0  0  0  0  0  0  0  0  0  0  0  0
   -1.1197   -0.8157   -1.4286 N   0  0  0  0  0  0  0  0  0  0  0  0
   -0.7714   -2.1752   -1.7692 C   0  0  2  0  0  0  0  0  0  0  0  0
   -2.0142   -2.8523   -2.3317 C   0  0  0  0  0  0  0  0  0  0  0  0
   -3.1514   -2.6001   -1.9388 O   0  0  0  0  0  0  0  0  0  0  0  0
   -0.2413   -2.9301   -0.5601 C   0  0  0  0  0  0  0  0  0  0  0  0
   -2.0541   -0.6413   -1.0707 H   0  0  0  0  0  0  0  0  0  0  0  0
   -0.0017   -2.1193   -2.5467 H   0  0  0  0  0  0  0  0  0  0  0  0
   -0.9985   -2.9964    0.2296 H   0  0  0  0  0  0  0  0  0  0  0  0
    0.0490   -3.9518   -0.8262 H   0  0  0  0  0  0  0  0  0  0  0  0
    0.6349   -2.4254   -0.1389 H   0  0  0  0  0  0  0  0  0  0  0  0
   -1.7008   -3.8024   -3.2936 N   0  0  0  0  0  0  0  0  0  0  0  0
   -2.7037   -4.6110   -3.9466 C   0  0  0  0  0  0  0  0  0  0  0  0
   -0.7350   -3.9171   -3.5866 H   0  0  0  0  0  0  0  0  0  0  0  0
   -2.8292   -5.5553   -3.3967 H   0  0  0  0  0  0  0  0  0  0  0  0
   -3.6595   -4.0667   -3.9632 H   0  0  0  0  0  0  0  0  0  0  0  0
   -2.3865   -4.8265   -4.9776 H   0  0  0  0  0  0  0  0  0  0  0  0
  1  3  1  0  0  0  0
  1  7  1  0  0  0  0
  1  2  2  0  0  0  0
 23 25  1  0  0  0  0
 23 29  1  0  0  0  0
 23 24  2  0  0  0  0
 50 51  1  0  0  0  0
 51 59  1  0  0  0  0
 51 52  2  0  0  0  0
  8  9  1  0  0  0  0
  9 17  1  0  0  0  0
  9 10  2  0  0  0  0
 30 31  1  0  0  0  0
 31 39  1  0  0  0  0
 31 32  2  0  0  0  0
 40 41  1  0  0  0  0
 41 49  1  0  0  0  0
 41 42  2  0  0  0  0
 50 53  1  0  0  0  0
 30 33  1  0  0  0  0
 59 60  1  0  0  0  0
 17 18  1  0  0  0  0
  8 11  1  0  0  0  0
 11 12  1  0  0  0  0
 40 43  1  0  0  0  0
 43 44  1  0  0  0  0
 49 50  1  0  0  0  0
  7  8  1  0  0  0  0
 29 30  1  0  0  0  0
 39 40  1  0  0  0  0
 12 44  1  0  0  0  0
  3  4  1  0  0  0  0
  3  5  1  0  0  0  0
  3  6  1  0  0  0  0
 25 26  1  0  0  0  0
 25 27  1  0  0  0  0
 25 28  1  0  0  0  0
 53 56  1  0  0  0  0
 53 57  1  0  0  0  0
 53 58  1  0  0  0  0
 33 36  1  0  0  0  0
 33 37  1  0  0  0  0
 33 38  1  0  0  0  0
 60 62  1  0  0  0  0
 60 63  1  0  0  0  0
 60 64  1  0  0  0  0
 18 20  1  0  0  0  0
 18 21  1  0  0  0  0
 18 22  1  0  0  0  0
 11 15  1  0  0  0  0
 11 16  1  0  0  0  0
 43 47  1  0  0  0  0
 43 48  1  0  0  0  0
 50 55  1  0  0  0  0
  8 14  1  0  0  0  0
 30 35  1  0  0  0  0
 40 46  1  0  0  0  0
 59 61  1  0  0  0  0
 17 19  1  0  0  0  0
  7 13  1  0  0  0  0
 29 34  1  0  0  0  0
 49 54  1  0  0  0  0
 39 45  1  0  0  0  0
M  END
$$$$

  -OEChem-05262214473D

 64 63  0     1  0  0  0  0  0999 V2000
   -2.9351    5.3291    5.9194 C   0  0  0  0  0  0  0  0  0  0  0  0
   -4.1287    5.0947    5.7704 O   0  0  0  0  0  0  0  0  0  0  0  0
   -2.5083    6.6402    6.4912 C   0  0  0  0  0  0  0  0  0  0  0  0
   -2.3475    7.4053    5.7147 H   0  0  0  0  0  0  0  0  0  0  0  0
   -3.2632    7.0686    7.1701 H   0  0  0  0  0  0  0  0  0  0  0  0
   -1.5738    6.6183    7.0743 H   0  0  0  0  0  0  0  0  0  0  0  0
   -1.8882    4.4795    5.6062 N   0  0  0  0  0  0  0  0  0  0  0  0
   -2.0763    3.1655    5.0454 C   0  0  2  0  0  0  0  0  0  0  0  0
   -0.9967    2.2346    5.5937 C   0  0  0  0  0  0  0  0  0  0  0  0
   -0.0691    2.6269    6.2986 O   0  0  0  0  0  0  0  0  0  0  0  0
   -2.1389    3.1881    3.5162 C   0  0  0  0  0  0  0  0  0  0  0  0
   -0.6004    3.7644    2.7266 S   0  0  0  0  0  0  0  0  0  0  0  0
   -0.9379    4.7989    5.7806 H   0  0  0  0  0  0  0  0  0  0  0  0
   -3.0420    2.8159    5.4313 H   0  0  0  0  0  0  0  0  0  0  0  0
   -2.3527    2.1879    3.1254 H   0  0  0  0  0  0  0  0  0  0  0  0
   -2.9454    3.8514    3.1855 H   0  0  0  0  0  0  0  0  0  0  0  0
   -1.1777    0.9216    5.1828 N   0  0  0  0  0  0  0  0  0  0  0  0
   -0.2724   -0.1418    5.5511 C   0  0  0  0  0  0  0  0  0  0  0  0
   -1.9977    0.6775    4.6354 H   0  0  0  0  0  0  0  0  0  0  0  0
    0.4948   -0.2574    4.7714 H   0  0  0  0  0  0  0  0  0  0  0  0
    0.2115    0.1038    6.5079 H   0  0  0  0  0  0  0  0  0  0  0  0
   -0.8341   -1.0818    5.6550 H   0  0  0  0  0  0  0  0  0  0  0  0
   -6.7256    2.0330   -0.2766 C   0  0  0  0  0  0  0  0  0  0  0  0
   -7.1824    1.1039   -0.9322 O   0  0  0  0  0  0  0  0  0  0  0  0
   -7.5276    2.6077    0.8435 C   0  0  0  0  0  0  0  0  0  0  0  0
   -8.1775    3.4344    0.5145 H   0  0  0  0  0  0  0  0  0  0  0  0
   -8.2057    1.8676    1.2980 H   0  0  0  0  0  0  0  0  0  0  0  0
   -6.9411    3.0162    1.6819 H   0  0  0  0  0  0  0  0  0  0  0  0
   -5.4935    2.6382   -0.4627 N   0  0  0  0  0  0  0  0  0  0  0  0
   -4.5619    2.2388   -1.4845 C   0  0  2  0  0  0  0  0  0  0  0  0
   -3.1535    2.4674   -0.9521 C   0  0  0  0  0  0  0  0  0  0  0  0
   -2.8634    3.3945   -0.1987 O   0  0  0  0  0  0  0  0  0  0  0  0
   -4.7883    3.0138   -2.7732 C   0  0  0  0  0  0  0  0  0  0  0  0
   -5.2337    3.4049    0.1551 H   0  0  0  0  0  0  0  0  0  0  0  0
   -4.7192    1.1682   -1.6549 H   0  0  0  0  0  0  0  0  0  0  0  0
   -4.6352    4.0886   -2.6221 H   0  0  0  0  0  0  0  0  0  0  0  0
   -4.0976    2.6887   -3.5582 H   0  0  0  0  0  0  0  0  0  0  0  0
   -5.8111    2.8719   -3.1387 H   0  0  0  0  0  0  0  0  0  0  0  0
   -2.2466    1.5400   -1.4507 N   0  0  0  0  0  0  0  0  0  0  0  0
   -0.8424    1.5707   -1.1286 C   0  0  2  0  0  0  0  0  0  0  0  0
   -0.2161    0.2336   -1.5192 C   0  0  0  0  0  0  0  0  0  0  0  0
    0.9972    0.0696   -1.6305 O   0  0  0  0  0  0  0  0  0  0  0  0
   -0.5877    1.9571    0.3305 C   0  0  0  0  0  0  0  0  0  0  0  0
   -1.0972    3.6445    0.7373 S   0  0  0  0  0  0  0  0  0  0  0  0
   -2.5850    0.7815   -2.0381 H   0  0  0  0  0  0  0  0  0  0  0  0
   -0.4081    2.3417   -1.7770 H   0  0  0  0  0  0  0  0  0  0  0  0
   -1.1227    1.2816    1.0060 H   0  0  0  0  0  0  0  0  0  0  0  0
    0.4806    1.8735    0.5575 H   0  0  0  0  0  0  0  0  0  0  0  0
   -1.1715   -0.7454   -1.7524 N   0  0  0  0  0  0  0  0  0  0  0  0
   -0.8281   -2.0879   -2.1591 C   0  0  2  0  0  0  0  0  0  0  0  0
   -1.9428   -2.6067   -3.0579 C   0  0  0  0  0  0  0  0  0  0  0  0
   -3.1245   -2.3060   -2.9024 O   0  0  0  0  0  0  0  0  0  0  0  0
   -0.6320   -2.9974   -0.9562 C   0  0  0  0  0  0  0  0  0  0  0  0
   -2.1524   -0.5343   -1.5944 H   0  0  0  0  0  0  0  0  0  0  0  0
    0.1017   -2.0161   -2.7339 H   0  0  0  0  0  0  0  0  0  0  0  0
   -1.5532   -3.0816   -0.3680 H   0  0  0  0  0  0  0  0  0  0  0  0
   -0.3438   -4.0076   -1.2653 H   0  0  0  0  0  0  0  0  0  0  0  0
    0.1496   -2.6069   -0.2956 H   0  0  0  0  0  0  0  0  0  0  0  0
   -1.4681   -3.4790   -4.0274 N   0  0  0  0  0  0  0  0  0  0  0  0
   -2.3359   -4.1382   -4.9752 C   0  0  0  0  0  0  0  0  0  0  0  0
   -0.4685   -3.6397   -4.1087 H   0  0  0  0  0  0  0  0  0  0  0  0
   -2.6354   -5.1194   -4.5782 H   0  0  0  0  0  0  0  0  0  0  0  0
   -3.2314   -3.5217   -5.1426 H   0  0  0  0  0  0  0  0  0  0  0  0
   -1.8021   -4.2754   -5.9271 H   0  0  0  0  0  0  0  0  0  0  0  0
  1  3  1  0  0  0  0
  1  7  1  0  0  0  0
  1  2  2  0  0  0  0
 23 25  1  0  0  0  0
 23 29  1  0  0  0  0
 23 24  2  0  0  0  0
 50 51  1  0  0  0  0
 51 59  1  0  0  0  0
 51 52  2  0  0  0  0
  8  9  1  0  0  0  0
  9 17  1  0  0  0  0
  9 10  2  0  0  0  0
 30 31  1  0  0  0  0
 31 39  1  0  0  0  0
 31 32  2  0  0  0  0
 40 41  1  0  0  0  0
 41 49  1  0  0  0  0
 41 42  2  0  0  0  0
 50 53  1  0  0  0  0
 30 33  1  0  0  0  0
 59 60  1  0  0  0  0
 17 18  1  0  0  0  0
  8 11  1  0  0  0  0
 11 12  1  0  0  0  0
 40 43  1  0  0  0  0
 43 44  1  0  0  0  0
 49 50  1  0  0  0  0
  7  8  1  0  0  0  0
 29 30  1  0  0  0  0
 39 40  1  0  0  0  0
 12 44  1  0  0  0  0
  3  4  1  0  0  0  0
  3  5  1  0  0  0  0
  3  6  1  0  0  0  0
 25 26  1  0  0  0  0
 25 27  1  0  0  0  0
 25 28  1  0  0  0  0
 53 56  1  0  0  0  0
 53 57  1  0  0  0  0
 53 58  1  0  0  0  0
 33 36  1  0  0  0  0
 33 37  1  0  0  0  0
 33 38  1  0  0  0  0
 60 62  1  0  0  0  0
 60 63  1  0  0  0  0
 60 64  1  0  0  0  0
 18 20  1  0  0  0  0
 18 21  1  0  0  0  0
 18 22  1  0  0  0  0
 11 15  1  0  0  0  0
 11 16  1  0  0  0  0
 43 47  1  0  0  0  0
 43 48  1  0  0  0  0
 50 55  1  0  0  0  0
  8 14  1  0  0  0  0
 30 35  1  0  0  0  0
 40 46  1  0  0  0  0
 59 61  1  0  0  0  0
 17 19  1  0  0  0  0
  7 13  1  0  0  0  0
 29 34  1  0  0  0  0
 49 54  1  0  0  0  0
 39 45  1  0  0  0  0
M  END
$$$$

  -OEChem-05262214473D

 64 63  0     1  0  0  0  0  0999 V2000
   -2.9351    5.3291    5.9194 C   0  0  0  0  0  0  0  0  0  0  0  0
   -4.1287    5.0947    5.7704 O   0  0  0  0  0  0  0  0  0  0  0  0
   -2.5083    6.6402    6.4912 C   0  0  0  0  0  0  0  0  0  0  0  0
   -2.3475    7.4053    5.7147 H   0  0  0  0  0  0  0  0  0  0  0  0
   -3.2632    7.0686    7.1701 H   0  0  0  0  0  0  0  0  0  0  0  0
   -1.5738    6.6183    7.0743 H   0  0  0  0  0  0  0  0  0  0  0  0
   -1.8882    4.4795    5.6062 N   0  0  0  0  0  0  0  0  0  0  0  0
   -2.0763    3.1655    5.0454 C   0  0  2  0  0  0  0  0  0  0  0  0
   -0.9967    2.2346    5.5937 C   0  0  0  0  0  0  0  0  0  0  0  0
   -0.0691    2.6269    6.2986 O   0  0  0  0  0  0  0  0  0  0  0  0
   -2.1389    3.1881    3.5162 C   0  0  0  0  0  0  0  0  0  0  0  0
   -0.6004    3.7644    2.7266 S   0  0  0  0  0  0  0  0  0  0  0  0
   -0.9379    4.7989    5.7806 H   0  0  0  0  0  0  0  0  0  0  0  0
   -3.0420    2.8159    5.4313 H   0  0  0  0  0  0  0  0  0  0  0  0
   -2.3527    2.1879    3.1254 H   0  0  0  0  0  0  0  0  0  0  0  0
   -2.9454    3.8514    3.1855 H   0  0  0  0  0  0  0  0  0  0  0  0
   -1.1777    0.9216    5.1828 N   0  0  0  0  0  0  0  0  0  0  0  0
   -0.2724   -0.1418    5.5511 C   0  0  0  0  0  0  0  0  0  0  0  0
   -1.9977    0.6775    4.6354 H   0  0  0  0  0  0  0  0  0  0  0  0
    0.4948   -0.2574    4.7714 H   0  0  0  0  0  0  0  0  0  0  0  0
    0.2115    0.1038    6.5079 H   0  0  0  0  0  0  0  0  0  0  0  0
   -0.8341   -1.0818    5.6550 H   0  0  0  0  0  0  0  0  0  0  0  0
   -6.7256    2.0330   -0.2766 C   0  0  0  0  0  0  0  0  0  0  0  0
   -7.1824    1.1039   -0.9322 O   0  0  0  0  0  0  0  0  0  0  0  0
   -7.5276    2.6077    0.8435 C   0  0  0  0  0  0  0  0  0  0  0  0
   -8.1775    3.4344    0.5145 H   0  0  0  0  0  0  0  0  0  0  0  0
   -8.2057    1.8676    1.2980 H   0  0  0  0  0  0  0  0  0  0  0  0
   -6.9411    3.0162    1.6819 H   0  0  0  0  0  0  0  0  0  0  0  0
   -5.4935    2.6382   -0.4627 N   0  0  0  0  0  0  0  0  0  0  0  0
   -4.5619    2.2388   -1.4845 C   0  0  2  0  0  0  0  0  0  0  0  0
   -3.1535    2.4674   -0.9521 C   0  0  0  0  0  0  0  0  0  0  0  0
   -2.8634    3.3945   -0.1987 O   0  0  0  0  0  0  0  0  0  0  0  0
   -4.7883    3.0138   -2.7732 C   0  0  0  0  0  0  0  0  0  0  0  0
   -5.2337    3.4049    0.1551 H   0  0  0  0  0  0  0  0  0  0  0  0
   -4.7192    1.1682   -1.6549 H   0  0  0  0  0  0  0  0  0  0  0  0
   -4.6352    4.0886   -2.6221 H   0  0  0  0  0  0  0  0  0  0  0  0
   -4.0976    2.6887   -3.5582 H   0  0  0  0  0  0  0  0  0  0  0  0
   -5.8111    2.8719   -3.1387 H   0  0  0  0  0  0  0  0  0  0  0  0
   -2.2466    1.5400   -1.4507 N   0  0  0  0  0  0  0  0  0  0  0  0
   -0.8424    1.5707   -1.1286 C   0  0  2  0  0  0  0  0  0  0  0  0
   -0.2161    0.2336   -1.5192 C   0  0  0  0  0  0  0  0  0  0  0  0
    0.9796   -0.0133   -1.3750 O   0  0  0  0  0  0  0  0  0  0  0  0
   -0.5877    1.9571    0.3305 C   0  0  0  0  0  0  0  0  0  0  0  0
   -1.0972    3.6445    0.7373 S   0  0  0  0  0  0  0  0  0  0  0  0
   -2.5850    0.7815   -2.0381 H   0  0  0  0  0  0  0  0  0  0  0  0
   -0.4081    2.3417   -1.7770 H   0  0  0  0  0  0  0  0  0  0  0  0
   -1.1227    1.2816    1.0060 H   0  0  0  0  0  0  0  0  0  0  0  0
    0.4806    1.8735    0.5575 H   0  0  0  0  0  0  0  0  0  0  0  0
   -1.1436   -0.6397   -2.0694 N   0  0  0  0  0  0  0  0  0  0  0  0
   -0.7887   -1.9584   -2.5393 C   0  0  2  0  0  0  0  0  0  0  0  0
   -1.6930   -2.2971   -3.7171 C   0  0  0  0  0  0  0  0  0  0  0  0
   -2.8608   -1.9214   -3.7959 O   0  0  0  0  0  0  0  0  0  0  0  0
   -0.9242   -2.9946   -1.4344 C   0  0  0  0  0  0  0  0  0  0  0  0
   -2.1217   -0.3689   -2.1112 H   0  0  0  0  0  0  0  0  0  0  0  0
    0.2509   -1.9035   -2.8803 H   0  0  0  0  0  0  0  0  0  0  0  0
   -1.9591   -3.0638   -1.0800 H   0  0  0  0  0  0  0  0  0  0  0  0
   -0.6275   -3.9888   -1.7844 H   0  0  0  0  0  0  0  0  0  0  0  0
   -0.2957   -2.7335   -0.5761 H   0  0  0  0  0  0  0  0  0  0  0  0
   -1.0557   -3.1042   -4.6491 N   0  0  0  0  0  0  0  0  0  0  0  0
   -1.7163   -3.5967   -5.8352 C   0  0  0  0  0  0  0  0  0  0  0  0
   -0.0743   -3.3340   -4.5232 H   0  0  0  0  0  0  0  0  0  0  0  0
   -2.1516   -4.5857   -5.6293 H   0  0  0  0  0  0  0  0  0  0  0  0
   -2.5147   -2.8984   -6.1268 H   0  0  0  0  0  0  0  0  0  0  0  0
   -0.9859   -3.6809   -6.6534 H   0  0  0  0  0  0  0  0  0  0  0  0
  1  3  1  0  0  0  0
  1  7  1  0  0  0  0
  1  2  2  0  0  0  0
 23 25  1  0  0  0  0
 23 29  1  0  0  0  0
 23 24  2  0  0  0  0
 50 51  1  0  0  0  0
 51 59  1  0  0  0  0
 51 52  2  0  0  0  0
  8  9  1  0  0  0  0
  9 17  1  0  0  0  0
  9 10  2  0  0  0  0
 30 31  1  0  0  0  0
 31 39  1  0  0  0  0
 31 32  2  0  0  0  0
 40 41  1  0  0  0  0
 41 49  1  0  0  0  0
 41 42  2  0  0  0  0
 50 53  1  0  0  0  0
 30 33  1  0  0  0  0
 59 60  1  0  0  0  0
 17 18  1  0  0  0  0
  8 11  1  0  0  0  0
 11 12  1  0  0  0  0
 40 43  1  0  0  0  0
 43 44  1  0  0  0  0
 49 50  1  0  0  0  0
  7  8  1  0  0  0  0
 29 30  1  0  0  0  0
 39 40  1  0  0  0  0
 12 44  1  0  0  0  0
  3  4  1  0  0  0  0
  3  5  1  0  0  0  0
  3  6  1  0  0  0  0
 25 26  1  0  0  0  0
 25 27  1  0  0  0  0
 25 28  1  0  0  0  0
 53 56  1  0  0  0  0
 53 57  1  0  0  0  0
 53 58  1  0  0  0  0
 33 36  1  0  0  0  0
 33 37  1  0  0  0  0
 33 38  1  0  0  0  0
 60 62  1  0  0  0  0
 60 63  1  0  0  0  0
 60 64  1  0  0  0  0
 18 20  1  0  0  0  0
 18 21  1  0  0  0  0
 18 22  1  0  0  0  0
 11 15  1  0  0  0  0
 11 16  1  0  0  0  0
 43 47  1  0  0  0  0
 43 48  1  0  0  0  0
 50 55  1  0  0  0  0
  8 14  1  0  0  0  0
 30 35  1  0  0  0  0
 40 46  1  0  0  0  0
 59 61  1  0  0  0  0
 17 19  1  0  0  0  0
  7 13  1  0  0  0  0
 29 34  1  0  0  0  0
 49 54  1  0  0  0  0
 39 45  1  0  0  0  0
M  END
$$$$

  -OEChem-05262214473D

 64 63  0     1  0  0  0  0  0999 V2000
   -2.9351    5.3291    5.9194 C   0  0  0  0  0  0  0  0  0  0  0  0
   -4.1287    5.0947    5.7704 O   0  0  0  0  0  0  0  0  0  0  0  0
   -2.5083    6.6402    6.4912 C   0  0  0  0  0  0  0  0  0  0  0  0
   -2.3475    7.4053    5.7147 H   0  0  0  0  0  0  0  0  0  0  0  0
   -3.2632    7.0686    7.1701 H   0  0  0  0  0  0  0  0  0  0  0  0
   -1.5738    6.6183    7.0743 H   0  0  0  0  0  0  0  0  0  0  0  0
   -1.8882    4.4795    5.6062 N   0  0  0  0  0  0  0  0  0  0  0  0
   -2.0763    3.1655    5.0454 C   0  0  2  0  0  0  0  0  0  0  0  0
   -0.9967    2.2346    5.5937 C   0  0  0  0  0  0  0  0  0  0  0  0
   -0.0691    2.6269    6.2986 O   0  0  0  0  0  0  0  0  0  0  0  0
   -2.1389    3.1881    3.5162 C   0  0  0  0  0  0  0  0  0  0  0  0
   -0.6004    3.7644    2.7266 S   0  0  0  0  0  0  0  0  0  0  0  0
   -0.9379    4.7989    5.7806 H   0  0  0  0  0  0  0  0  0  0  0  0
   -3.0420    2.8159    5.4313 H   0  0  0  0  0  0  0  0  0  0  0  0
   -2.3527    2.1879    3.1254 H   0  0  0  0  0  0  0  0  0  0  0  0
   -2.9454    3.8514    3.1855 H   0  0  0  0  0  0  0  0  0  0  0  0
   -1.1777    0.9216    5.1828 N   0  0  0  0  0  0  0  0  0  0  0  0
   -0.2724   -0.1418    5.5511 C   0  0  0  0  0  0  0  0  0  0  0  0
   -1.9977    0.6775    4.6354 H   0  0  0  0  0  0  0  0  0  0  0  0
    0.4948   -0.2574    4.7714 H   0  0  0  0  0  0  0  0  0  0  0  0
    0.2115    0.1038    6.5079 H   0  0  0  0  0  0  0  0  0  0  0  0
   -0.8341   -1.0818    5.6550 H   0  0  0  0  0  0  0  0  0  0  0  0
   -6.7256    2.0330   -0.2766 C   0  0  0  0  0  0  0  0  0  0  0  0
   -7.1824    1.1039   -0.9322 O   0  0  0  0  0  0  0  0  0  0  0  0
   -7.5276    2.6077    0.8435 C   0  0  0  0  0  0  0  0  0  0  0  0
   -8.1775    3.4344    0.5145 H   0  0  0  0  0  0  0  0  0  0  0  0
   -8.2057    1.8676    1.2980 H   0  0  0  0  0  0  0  0  0  0  0  0
   -6.9411    3.0162    1.6819 H   0  0  0  0  0  0  0  0  0  0  0  0
   -5.4935    2.6382   -0.4627 N   0  0  0  0  0  0  0  0  0  0  0  0
   -4.5619    2.2388   -1.4845 C   0  0  2  0  0  0  0  0  0  0  0  0
   -3.1535    2.4674   -0.9521 C   0  0  0  0  0  0  0  0  0  0  0  0
   -2.8634    3.3945   -0.1987 O   0  0  0  0  0  0  0  0  0  0  0  0
   -4.7883    3.0138   -2.7732 C   0  0  0  0  0  0  0  0  0  0  0  0
   -5.2337    3.4049    0.1551 H   0  0  0  0  0  0  0  0  0  0  0  0
   -4.7192    1.1682   -1.6549 H   0  0  0  0  0  0  0  0  0  0  0  0
   -4.6352    4.0886   -2.6221 H   0  0  0  0  0  0  0  0  0  0  0  0
   -4.0976    2.6887   -3.5582 H   0  0  0  0  0  0  0  0  0  0  0  0
   -5.8111    2.8719   -3.1387 H   0  0  0  0  0  0  0  0  0  0  0  0
   -2.2466    1.5400   -1.4507 N   0  0  0  0  0  0  0  0  0  0  0  0
   -0.8424    1.5707   -1.1286 C   0  0  2  0  0  0  0  0  0  0  0  0
   -0.2161    0.2336   -1.5192 C   0  0  0  0  0  0  0  0  0  0  0  0
    0.8992   -0.1193   -1.1411 O   0  0  0  0  0  0  0  0  0  0  0  0
   -0.5877    1.9571    0.3305 C   0  0  0  0  0  0  0  0  0  0  0  0
   -1.0972    3.6445    0.7373 S   0  0  0  0  0  0  0  0  0  0  0  0
   -2.5850    0.7815   -2.0381 H   0  0  0  0  0  0  0  0  0  0  0  0
   -0.4081    2.3417   -1.7770 H   0  0  0  0  0  0  0  0  0  0  0  0
   -1.1227    1.2816    1.0060 H   0  0  0  0  0  0  0  0  0  0  0  0
    0.4806    1.8735    0.5575 H   0  0  0  0  0  0  0  0  0  0  0  0
   -1.0378   -0.5058   -2.3580 N   0  0  0  0  0  0  0  0  0  0  0  0
   -0.6560   -1.7955   -2.8839 C   0  0  2  0  0  0  0  0  0  0  0  0
   -1.2818   -1.9446   -4.2643 C   0  0  0  0  0  0  0  0  0  0  0  0
   -2.3781   -1.4726   -4.5584 O   0  0  0  0  0  0  0  0  0  0  0  0
   -1.0978   -2.9217   -1.9623 C   0  0  0  0  0  0  0  0  0  0  0  0
   -1.9639   -0.1564   -2.5859 H   0  0  0  0  0  0  0  0  0  0  0  0
    0.4356   -1.7890   -2.9759 H   0  0  0  0  0  0  0  0  0  0  0  0
   -2.1887   -2.9441   -1.8578 H   0  0  0  0  0  0  0  0  0  0  0  0
   -0.7827   -3.8968   -2.3481 H   0  0  0  0  0  0  0  0  0  0  0  0
   -0.6706   -2.7966   -0.9615 H   0  0  0  0  0  0  0  0  0  0  0  0
   -0.4917   -2.7035   -5.1164 N   0  0  0  0  0  0  0  0  0  0  0  0
   -0.8871   -3.0234   -6.4681 C   0  0  0  0  0  0  0  0  0  0  0  0
    0.4205   -3.0208   -4.8018 H   0  0  0  0  0  0  0  0  0  0  0  0
   -1.4109   -3.9907   -6.4783 H   0  0  0  0  0  0  0  0  0  0  0  0
   -1.5580   -2.2393   -6.8490 H   0  0  0  0  0  0  0  0  0  0  0  0
    0.0063   -3.0836   -7.1069 H   0  0  0  0  0  0  0  0  0  0  0  0
  1  3  1  0  0  0  0
  1  7  1  0  0  0  0
  1  2  2  0  0  0  0
 23 25  1  0  0  0  0
 23 29  1  0  0  0  0
 23 24  2  0  0  0  0
 50 51  1  0  0  0  0
 51 59  1  0  0  0  0
 51 52  2  0  0  0  0
  8  9  1  0  0  0  0
  9 17  1  0  0  0  0
  9 10  2  0  0  0  0
 30 31  1  0  0  0  0
 31 39  1  0  0  0  0
 31 32  2  0  0  0  0
 40 41  1  0  0  0  0
 41 49  1  0  0  0  0
 41 42  2  0  0  0  0
 50 53  1  0  0  0  0
 30 33  1  0  0  0  0
 59 60  1  0  0  0  0
 17 18  1  0  0  0  0
  8 11  1  0  0  0  0
 11 12  1  0  0  0  0
 40 43  1  0  0  0  0
 43 44  1  0  0  0  0
 49 50  1  0  0  0  0
  7  8  1  0  0  0  0
 29 30  1  0  0  0  0
 39 40  1  0  0  0  0
 12 44  1  0  0  0  0
  3  4  1  0  0  0  0
  3  5  1  0  0  0  0
  3  6  1  0  0  0  0
 25 26  1  0  0  0  0
 25 27  1  0  0  0  0
 25 28  1  0  0  0  0
 53 56  1  0  0  0  0
 53 57  1  0  0  0  0
 53 58  1  0  0  0  0
 33 36  1  0  0  0  0
 33 37  1  0  0  0  0
 33 38  1  0  0  0  0
 60 62  1  0  0  0  0
 60 63  1  0  0  0  0
 60 64  1  0  0  0  0
 18 20  1  0  0  0  0
 18 21  1  0  0  0  0
 18 22  1  0  0  0  0
 11 15  1  0  0  0  0
 11 16  1  0  0  0  0
 43 47  1  0  0  0  0
 43 48  1  0  0  0  0
 50 55  1  0  0  0  0
  8 14  1  0  0  0  0
 30 35  1  0  0  0  0
 40 46  1  0  0  0  0
 59 61  1  0  0  0  0
 17 19  1  0  0  0  0
  7 13  1  0  0  0  0
 29 34  1  0  0  0  0
 49 54  1  0  0  0  0
 39 45  1  0  0  0  0
M  END
$$$$

  -OEChem-05262214473D

 64 63  0     1  0  0  0  0  0999 V2000
   -2.9351    5.3291    5.9194 C   0  0  0  0  0  0  0  0  0  0  0  0
   -4.1287    5.0947    5.7704 O   0  0  0  0  0  0  0  0  0  0  0  0
   -2.5083    6.6402    6.4912 C   0  0  0  0  0  0  0  0  0  0  0  0
   -2.3475    7.4053    5.7147 H   0  0  0  0  0  0  0  0  0  0  0  0
   -3.2632    7.0686    7.1701 H   0  0  0  0  0  0  0  0  0  0  0  0
   -1.5738    6.6183    7.0743 H   0  0  0  0  0  0  0  0  0  0  0  0
   -1.8882    4.4795    5.6062 N   0  0  0  0  0  0  0  0  0  0  0  0
   -2.0763    3.1655    5.0454 C   0  0  2  0  0  0  0  0  0  0  0  0
   -0.9967    2.2346    5.5937 C   0  0  0  0  0  0  0  0  0  0  0  0
   -0.0691    2.6269    6.2986 O   0  0  0  0  0  0  0  0  0  0  0  0
   -2.1389    3.1881    3.5162 C   0  0  0  0  0  0  0  0  0  0  0  0
   -0.6004    3.7644    2.7266 S   0  0  0  0  0  0  0  0  0  0  0  0
   -0.9379    4.7989    5.7806 H   0  0  0  0  0  0  0  0  0  0  0  0
   -3.0420    2.8159    5.4313 H   0  0  0  0  0  0  0  0  0  0  0  0
   -2.3527    2.1879    3.1254 H   0  0  0  0  0  0  0  0  0  0  0  0
   -2.9454    3.8514    3.1855 H   0  0  0  0  0  0  0  0  0  0  0  0
   -1.1777    0.9216    5.1828 N   0  0  0  0  0  0  0  0  0  0  0  0
   -0.2724   -0.1418    5.5511 C   0  0  0  0  0  0  0  0  0  0  0  0
   -1.9977    0.6775    4.6354 H   0  0  0  0  0  0  0  0  0  0  0  0
    0.4948   -0.2574    4.7714 H   0  0  0  0  0  0  0  0  0  0  0  0
    0.2115    0.1038    6.5079 H   0  0  0  0  0  0  0  0  0  0  0  0
   -0.8341   -1.0818    5.6550 H   0  0  0  0  0  0  0  0  0  0  0  0
   -6.7256    2.0330   -0.2766 C   0  0  0  0  0  0  0  0  0  0  0  0
   -7.1824    1.1039   -0.9322 O   0  0  0  0  0  0  0  0  0  0  0  0
   -7.5276    2.6077    0.8435 C   0  0  0  0  0  0  0  0  0  0  0  0
   -8.1775    3.4344    0.5145 H   0  0  0  0  0  0  0  0  0  0  0  0
   -8.2057    1.8676    1.2980 H   0  0  0  0  0  0  0  0  0  0  0  0
   -6.9411    3.0162    1.6819 H   0  0  0  0  0  0  0  0  0  0  0  0
   -5.4935    2.6382   -0.4627 N   0  0  0  0  0  0  0  0  0  0  0  0
   -4.5619    2.2388   -1.4845 C   0  0  2  0  0  0  0  0  0  0  0  0
   -3.1535    2.4674   -0.9521 C   0  0  0  0  0  0  0  0  0  0  0  0
   -2.8634    3.3945   -0.1987 O   0  0  0  0  0  0  0  0  0  0  0  0
   -4.7883    3.0138   -2.7732 C   0  0  0  0  0  0  0  0  0  0  0  0
   -5.2337    3.4049    0.1551 H   0  0  0  0  0  0  0  0  0  0  0  0
   -4.7192    1.1682   -1.6549 H   0  0  0  0  0  0  0  0  0  0  0  0
   -4.6352    4.0886   -2.6221 H   0  0  0  0  0  0  0  0  0  0  0  0
   -4.0976    2.6887   -3.5582 H   0  0  0  0  0  0  0  0  0  0  0  0
   -5.8111    2.8719   -3.1387 H   0  0  0  0  0  0  0  0  0  0  0  0
   -2.2466    1.5400   -1.4507 N   0  0  0  0  0  0  0  0  0  0  0  0
   -0.8424    1.5707   -1.1286 C   0  0  2  0  0  0  0  0  0  0  0  0
   -0.2161    0.2336   -1.5192 C   0  0  0  0  0  0  0  0  0  0  0  0
    0.7615   -0.2412   -0.9445 O   0  0  0  0  0  0  0  0  0  0  0  0
   -0.5877    1.9571    0.3305 C   0  0  0  0  0  0  0  0  0  0  0  0
   -1.0972    3.6445    0.7373 S   0  0  0  0  0  0  0  0  0  0  0  0
   -2.5850    0.7815   -2.0381 H   0  0  0  0  0  0  0  0  0  0  0  0
   -0.4081    2.3417   -1.7770 H   0  0  0  0  0  0  0  0  0  0  0  0
   -1.1227    1.2816    1.0060 H   0  0  0  0  0  0  0  0  0  0  0  0
    0.4806    1.8735    0.5575 H   0  0  0  0  0  0  0  0  0  0  0  0
   -0.8614   -0.3528   -2.5987 N   0  0  0  0  0  0  0  0  0  0  0  0
   -0.4389   -1.6105   -3.1694 C   0  0  2  0  0  0  0  0  0  0  0  0
   -0.7373   -1.5733   -4.6624 C   0  0  0  0  0  0  0  0  0  0  0  0
   -1.7094   -0.9901   -5.1378 O   0  0  0  0  0  0  0  0  0  0  0  0
   -1.1411   -2.7838   -2.5038 C   0  0  0  0  0  0  0  0  0  0  0  0
   -1.6899    0.0889   -2.9860 H   0  0  0  0  0  0  0  0  0  0  0  0
    0.6432   -1.6806   -3.0143 H   0  0  0  0  0  0  0  0  0  0  0  0
   -2.2264   -2.7307   -2.6485 H   0  0  0  0  0  0  0  0  0  0  0  0
   -0.7987   -3.7379   -2.9179 H   0  0  0  0  0  0  0  0  0  0  0  0
   -0.9496   -2.7917   -1.4253 H   0  0  0  0  0  0  0  0  0  0  0  0
    0.1856   -2.3042   -5.3974 N   0  0  0  0  0  0  0  0  0  0  0  0
    0.0952   -2.4573   -6.8307 C   0  0  0  0  0  0  0  0  0  0  0  0
    0.9824   -2.7214   -4.9255 H   0  0  0  0  0  0  0  0  0  0  0  0
   -0.4636   -3.3748   -7.0674 H   0  0  0  0  0  0  0  0  0  0  0  0
   -0.4268   -1.5893   -7.2599 H   0  0  0  0  0  0  0  0  0  0  0  0
    1.1071   -2.5242   -7.2568 H   0  0  0  0  0  0  0  0  0  0  0  0
  1  3  1  0  0  0  0
  1  7  1  0  0  0  0
  1  2  2  0  0  0  0
 23 25  1  0  0  0  0
 23 29  1  0  0  0  0
 23 24  2  0  0  0  0
 50 51  1  0  0  0  0
 51 59  1  0  0  0  0
 51 52  2  0  0  0  0
  8  9  1  0  0  0  0
  9 17  1  0  0  0  0
  9 10  2  0  0  0  0
 30 31  1  0  0  0  0
 31 39  1  0  0  0  0
 31 32  2  0  0  0  0
 40 41  1  0  0  0  0
 41 49  1  0  0  0  0
 41 42  2  0  0  0  0
 50 53  1  0  0  0  0
 30 33  1  0  0  0  0
 59 60  1  0  0  0  0
 17 18  1  0  0  0  0
  8 11  1  0  0  0  0
 11 12  1  0  0  0  0
 40 43  1  0  0  0  0
 43 44  1  0  0  0  0
 49 50  1  0  0  0  0
  7  8  1  0  0  0  0
 29 30  1  0  0  0  0
 39 40  1  0  0  0  0
 12 44  1  0  0  0  0
  3  4  1  0  0  0  0
  3  5  1  0  0  0  0
  3  6  1  0  0  0  0
 25 26  1  0  0  0  0
 25 27  1  0  0  0  0
 25 28  1  0  0  0  0
 53 56  1  0  0  0  0
 53 57  1  0  0  0  0
 53 58  1  0  0  0  0
 33 36  1  0  0  0  0
 33 37  1  0  0  0  0
 33 38  1  0  0  0  0
 60 62  1  0  0  0  0
 60 63  1  0  0  0  0
 60 64  1  0  0  0  0
 18 20  1  0  0  0  0
 18 21  1  0  0  0  0
 18 22  1  0  0  0  0
 11 15  1  0  0  0  0
 11 16  1  0  0  0  0
 43 47  1  0  0  0  0
 43 48  1  0  0  0  0
 50 55  1  0  0  0  0
  8 14  1  0  0  0  0
 30 35  1  0  0  0  0
 40 46  1  0  0  0  0
 59 61  1  0  0  0  0
 17 19  1  0  0  0  0
  7 13  1  0  0  0  0
 29 34  1  0  0  0  0
 49 54  1  0  0  0  0
 39 45  1  0  0  0  0
M  END
$$$$

  -OEChem-05262214473D

 64 63  0     1  0  0  0  0  0999 V2000
   -2.9351    5.3291    5.9194 C   0  0  0  0  0  0  0  0  0  0  0  0
   -4.1287    5.0947    5.7704 O   0  0  0  0  0  0  0  0  0  0  0  0
   -2.5083    6.6402    6.4912 C   0  0  0  0  0  0  0  0  0  0  0  0
   -2.3475    7.4053    5.7147 H   0  0  0  0  0  0  0  0  0  0  0  0
   -3.2632    7.0686    7.1701 H   0  0  0  0  0  0  0  0  0  0  0  0
   -1.5738    6.6183    7.0743 H   0  0  0  0  0  0  0  0  0  0  0  0
   -1.8882    4.4795    5.6062 N   0  0  0  0  0  0  0  0  0  0  0  0
   -2.0763    3.1655    5.0454 C   0  0  2  0  0  0  0  0  0  0  0  0
   -0.9967    2.2346    5.5937 C   0  0  0  0  0  0  0  0  0  0  0  0
   -0.0691    2.6269    6.2986 O   0  0  0  0  0  0  0  0  0  0  0  0
   -2.1389    3.1881    3.5162 C   0  0  0  0  0  0  0  0  0  0  0  0
   -0.6004    3.7644    2.7266 S   0  0  0  0  0  0  0  0  0  0  0  0
   -0.9379    4.7989    5.7806 H   0  0  0  0  0  0  0  0  0  0  0  0
   -3.0420    2.8159    5.4313 H   0  0  0  0  0  0  0  0  0  0  0  0
   -2.3527    2.1879    3.1254 H   0  0  0  0  0  0  0  0  0  0  0  0
   -2.9454    3.8514    3.1855 H   0  0  0  0  0  0  0  0  0  0  0  0
   -1.1777    0.9216    5.1828 N   0  0  0  0  0  0  0  0  0  0  0  0
   -0.2724   -0.1418    5.5511 C   0  0  0  0  0  0  0  0  0  0  0  0
   -1.9977    0.6775    4.6354 H   0  0  0  0  0  0  0  0  0  0  0  0
    0.4948   -0.2574    4.7714 H   0  0  0  0  0  0  0  0  0  0  0  0
    0.2115    0.1038    6.5079 H   0  0  0  0  0  0  0  0  0  0  0  0
   -0.8341   -1.0818    5.6550 H   0  0  0  0  0  0  0  0  0  0  0  0
   -6.7256    2.0330   -0.2766 C   0  0  0  0  0  0  0  0  0  0  0  0
   -7.1824    1.1039   -0.9322 O   0  0  0  0  0  0  0  0  0  0  0  0
   -7.5276    2.6077    0.8435 C   0  0  0  0  0  0  0  0  0  0  0  0
   -8.1775    3.4344    0.5145 H   0  0  0  0  0  0  0  0  0  0  0  0
   -8.2057    1.8676    1.2980 H   0  0  0  0  0  0  0  0  0  0  0  0
   -6.9411    3.0162    1.6819 H   0  0  0  0  0  0  0  0  0  0  0  0
   -5.4935    2.6382   -0.4627 N   0  0  0  0  0  0  0  0  0  0  0  0
   -4.5619    2.2388   -1.4845 C   0  0  2  0  0  0  0  0  0  0  0  0
   -3.1535    2.4674   -0.9521 C   0  0  0  0  0  0  0  0  0  0  0  0
   -2.8634    3.3945   -0.1987 O   0  0  0  0  0  0  0  0  0  0  0  0
   -4.7883    3.0138   -2.7732 C   0  0  0  0  0  0  0  0  0  0  0  0
   -5.2337    3.4049    0.1551 H   0  0  0  0  0  0  0  0  0  0  0  0
   -4.7192    1.1682   -1.6549 H   0  0  0  0  0  0  0  0  0  0  0  0
   -4.6352    4.0886   -2.6221 H   0  0  0  0  0  0  0  0  0  0  0  0
   -4.0976    2.6887   -3.5582 H   0  0  0  0  0  0  0  0  0  0  0  0
   -5.8111    2.8719   -3.1387 H   0  0  0  0  0  0  0  0  0  0  0  0
   -2.2466    1.5400   -1.4507 N   0  0  0  0  0  0  0  0  0  0  0  0
   -0.8424    1.5707   -1.1286 C   0  0  2  0  0  0  0  0  0  0  0  0
   -0.2161    0.2336   -1.5192 C   0  0  0  0  0  0  0  0  0  0  0  0
    0.5759   -0.3707   -0.7989 O   0  0  0  0  0  0  0  0  0  0  0  0
   -0.5877    1.9571    0.3305 C   0  0  0  0  0  0  0  0  0  0  0  0
   -1.0972    3.6445    0.7373 S   0  0  0  0  0  0  0  0  0  0  0  0
   -2.5850    0.7815   -2.0381 H   0  0  0  0  0  0  0  0  0  0  0  0
   -0.4081    2.3417   -1.7770 H   0  0  0  0  0  0  0  0  0  0  0  0
   -1.1227    1.2816    1.0060 H   0  0  0  0  0  0  0  0  0  0  0  0
    0.4806    1.8735    0.5575 H   0  0  0  0  0  0  0  0  0  0  0  0
   -0.6263   -0.1912   -2.7749 N   0  0  0  0  0  0  0  0  0  0  0  0
   -0.1523   -1.4158   -3.3763 C   0  0  2  0  0  0  0  0  0  0  0  0
   -0.0966   -1.2084   -4.8841 C   0  0  0  0  0  0  0  0  0  0  0  0
   -0.9002   -0.5067   -5.4948 O   0  0  0  0  0  0  0  0  0  0  0  0
   -1.0511   -2.5902   -3.0220 C   0  0  0  0  0  0  0  0  0  0  0  0
   -1.3184    0.3501   -3.2845 H   0  0  0  0  0  0  0  0  0  0  0  0
    0.8597   -1.5854   -2.9928 H   0  0  0  0  0  0  0  0  0  0  0  0
   -2.0694   -2.4382   -3.3981 H   0  0  0  0  0  0  0  0  0  0  0  0
   -0.6746   -3.5228   -3.4551 H   0  0  0  0  0  0  0  0  0  0  0  0
   -1.1137   -2.7194   -1.9361 H   0  0  0  0  0  0  0  0  0  0  0  0
    0.9298   -1.9334   -5.4731 N   0  0  0  0  0  0  0  0  0  0  0  0
    1.1636   -1.9371   -6.8983 C   0  0  0  0  0  0  0  0  0  0  0  0
    1.5729   -2.4564   -4.8859 H   0  0  0  0  0  0  0  0  0  0  0  0
    0.6257   -2.7801   -7.3565 H   0  0  0  0  0  0  0  0  0  0  0  0
    0.8021   -0.9928   -7.3315 H   0  0  0  0  0  0  0  0  0  0  0  0
    2.2413   -2.0408   -7.0927 H   0  0  0  0  0  0  0  0  0  0  0  0
  1  3  1  0  0  0  0
  1  7  1  0  0  0  0
  1  2  2  0  0  0  0
 23 25  1  0  0  0  0
 23 29  1  0  0  0  0
 23 24  2  0  0  0  0
 50 51  1  0  0  0  0
 51 59  1  0  0  0  0
 51 52  2  0  0  0  0
  8  9  1  0  0  0  0
  9 17  1  0  0  0  0
  9 10  2  0  0  0  0
 30 31  1  0  0  0  0
 31 39  1  0  0  0  0
 31 32  2  0  0  0  0
 40 41  1  0  0  0  0
 41 49  1  0  0  0  0
 41 42  2  0  0  0  0
 50 53  1  0  0  0  0
 30 33  1  0  0  0  0
 59 60  1  0  0  0  0
 17 18  1  0  0  0  0
  8 11  1  0  0  0  0
 11 12  1  0  0  0  0
 40 43  1  0  0  0  0
 43 44  1  0  0  0  0
 49 50  1  0  0  0  0
  7  8  1  0  0  0  0
 29 30  1  0  0  0  0
 39 40  1  0  0  0  0
 12 44  1  0  0  0  0
  3  4  1  0  0  0  0
  3  5  1  0  0  0  0
  3  6  1  0  0  0  0
 25 26  1  0  0  0  0
 25 27  1  0  0  0  0
 25 28  1  0  0  0  0
 53 56  1  0  0  0  0
 53 57  1  0  0  0  0
 53 58  1  0  0  0  0
 33 36  1  0  0  0  0
 33 37  1  0  0  0  0
 33 38  1  0  0  0  0
 60 62  1  0  0  0  0
 60 63  1  0  0  0  0
 60 64  1  0  0  0  0
 18 20  1  0  0  0  0
 18 21  1  0  0  0  0
 18 22  1  0  0  0  0
 11 15  1  0  0  0  0
 11 16  1  0  0  0  0
 43 47  1  0  0  0  0
 43 48  1  0  0  0  0
 50 55  1  0  0  0  0
  8 14  1  0  0  0  0
 30 35  1  0  0  0  0
 40 46  1  0  0  0  0
 59 61  1  0  0  0  0
 17 19  1  0  0  0  0
  7 13  1  0  0  0  0
 29 34  1  0  0  0  0
 49 54  1  0  0  0  0
 39 45  1  0  0  0  0
M  END
$$$$

  -OEChem-05262214473D

 64 63  0     1  0  0  0  0  0999 V2000
   -2.9351    5.3291    5.9194 C   0  0  0  0  0  0  0  0  0  0  0  0
   -4.1287    5.0947    5.7704 O   0  0  0  0  0  0  0  0  0  0  0  0
   -2.5083    6.6402    6.4912 C   0  0  0  0  0  0  0  0  0  0  0  0
   -2.3475    7.4053    5.7147 H   0  0  0  0  0  0  0  0  0  0  0  0
   -3.2632    7.0686    7.1701 H   0  0  0  0  0  0  0  0  0  0  0  0
   -1.5738    6.6183    7.0743 H   0  0  0  0  0  0  0  0  0  0  0  0
   -1.8882    4.4795    5.6062 N   0  0  0  0  0  0  0  0  0  0  0  0
   -2.0763    3.1655    5.0454 C   0  0  2  0  0  0  0  0  0  0  0  0
   -0.9967    2.2346    5.5937 C   0  0  0  0  0  0  0  0  0  0  0  0
   -0.0691    2.6269    6.2986 O   0  0  0  0  0  0  0  0  0  0  0  0
   -2.1389    3.1881    3.5162 C   0  0  0  0  0  0  0  0  0  0  0  0
   -0.6004    3.7644    2.7266 S   0  0  0  0  0  0  0  0  0  0  0  0
   -0.9379    4.7989    5.7806 H   0  0  0  0  0  0  0  0  0  0  0  0
   -3.0420    2.8159    5.4313 H   0  0  0  0  0  0  0  0  0  0  0  0
   -2.3527    2.1879    3.1254 H   0  0  0  0  0  0  0  0  0  0  0  0
   -2.9454    3.8514    3.1855 H   0  0  0  0  0  0  0  0  0  0  0  0
   -1.1777    0.9216    5.1828 N   0  0  0  0  0  0  0  0  0  0  0  0
   -0.2724   -0.1418    5.5511 C   0  0  0  0  0  0  0  0  0  0  0  0
   -1.9977    0.6775    4.6354 H   0  0  0  0  0  0  0  0  0  0  0  0
    0.4948   -0.2574    4.7714 H   0  0  0  0  0  0  0  0  0  0  0  0
    0.2115    0.1038    6.5079 H   0  0  0  0  0  0  0  0  0  0  0  0
   -0.8341   -1.0818    5.6550 H   0  0  0  0  0  0  0  0  0  0  0  0
   -6.7256    2.0330   -0.2766 C   0  0  0  0  0  0  0  0  0  0  0  0
   -7.1824    1.1039   -0.9322 O   0  0  0  0  0  0  0  0  0  0  0  0
   -7.5276    2.6077    0.8435 C   0  0  0  0  0  0  0  0  0  0  0  0
   -8.1775    3.4344    0.5145 H   0  0  0  0  0  0  0  0  0  0  0  0
   -8.2057    1.8676    1.2980 H   0  0  0  0  0  0  0  0  0  0  0  0
   -6.9411    3.0162    1.6819 H   0  0  0  0  0  0  0  0  0  0  0  0
   -5.4935    2.6382   -0.4627 N   0  0  0  0  0  0  0  0  0  0  0  0
   -4.5619    2.2388   -1.4845 C   0  0  2  0  0  0  0  0  0  0  0  0
   -3.1535    2.4674   -0.9521 C   0  0  0  0  0  0  0  0  0  0  0  0
   -2.8634    3.3945   -0.1987 O   0  0  0  0  0  0  0  0  0  0  0  0
   -4.7883    3.0138   -2.7732 C   0  0  0  0  0  0  0  0  0  0  0  0
   -5.2337    3.4049    0.1551 H   0  0  0  0  0  0  0  0  0  0  0  0
   -4.7192    1.1682   -1.6549 H   0  0  0  0  0  0  0  0  0  0  0  0
   -4.6352    4.0886   -2.6221 H   0  0  0  0  0  0  0  0  0  0  0  0
   -4.0976    2.6887   -3.5582 H   0  0  0  0  0  0  0  0  0  0  0  0
   -5.8111    2.8719   -3.1387 H   0  0  0  0  0  0  0  0  0  0  0  0
   -2.2466    1.5400   -1.4507 N   0  0  0  0  0  0  0  0  0  0  0  0
   -0.8424    1.5707   -1.1286 C   0  0  2  0  0  0  0  0  0  0  0  0
   -0.2161    0.2336   -1.5192 C   0  0  0  0  0  0  0  0  0  0  0  0
    0.3551   -0.4990   -0.7139 O   0  0  0  0  0  0  0  0  0  0  0  0
   -0.5877    1.9571    0.3305 C   0  0  0  0  0  0  0  0  0  0  0  0
   -1.0972    3.6445    0.7373 S   0  0  0  0  0  0  0  0  0  0  0  0
   -2.5850    0.7815   -2.0381 H   0  0  0  0  0  0  0  0  0  0  0  0
   -0.4081    2.3417   -1.7770 H   0  0  0  0  0  0  0  0  0  0  0  0
   -1.1227    1.2816    1.0060 H   0  0  0  0  0  0  0  0  0  0  0  0
    0.4806    1.8735    0.5575 H   0  0  0  0  0  0  0  0  0  0  0  0
   -0.3485   -0.0320   -2.8747 N   0  0  0  0  0  0  0  0  0  0  0  0
    0.1843   -1.2247   -3.4906 C   0  0  2  0  0  0  0  0  0  0  0  0
    0.5966   -0.8748   -4.9143 C   0  0  0  0  0  0  0  0  0  0  0  0
   -0.0058   -0.0556   -5.6050 O   0  0  0  0  0  0  0  0  0  0  0  0
   -0.8339   -2.3542   -3.4816 C   0  0  0  0  0  0  0  0  0  0  0  0
   -0.8745    0.6095   -3.4608 H   0  0  0  0  0  0  0  0  0  0  0  0
    1.0702   -1.5102   -2.9129 H   0  0  0  0  0  0  0  0  0  0  0  0
   -1.7286   -2.0865   -4.0555 H   0  0  0  0  0  0  0  0  0  0  0  0
   -0.4187   -3.2662   -3.9231 H   0  0  0  0  0  0  0  0  0  0  0  0
   -1.1516   -2.5844   -2.4589 H   0  0  0  0  0  0  0  0  0  0  0  0
    1.6904   -1.6166   -5.3381 N   0  0  0  0  0  0  0  0  0  0  0  0
    2.2454   -1.4981   -6.6663 C   0  0  0  0  0  0  0  0  0  0  0  0
    2.1519   -2.2436   -4.6858 H   0  0  0  0  0  0  0  0  0  0  0  0
    1.7827   -2.2472   -7.3257 H   0  0  0  0  0  0  0  0  0  0  0  0
    2.0448   -0.4903   -7.0588 H   0  0  0  0  0  0  0  0  0  0  0  0
    3.3317   -1.6664   -6.6259 H   0  0  0  0  0  0  0  0  0  0  0  0
  1  3  1  0  0  0  0
  1  7  1  0  0  0  0
  1  2  2  0  0  0  0
 23 25  1  0  0  0  0
 23 29  1  0  0  0  0
 23 24  2  0  0  0  0
 50 51  1  0  0  0  0
 51 59  1  0  0  0  0
 51 52  2  0  0  0  0
  8  9  1  0  0  0  0
  9 17  1  0  0  0  0
  9 10  2  0  0  0  0
 30 31  1  0  0  0  0
 31 39  1  0  0  0  0
 31 32  2  0  0  0  0
 40 41  1  0  0  0  0
 41 49  1  0  0  0  0
 41 42  2  0  0  0  0
 50 53  1  0  0  0  0
 30 33  1  0  0  0  0
 59 60  1  0  0  0  0
 17 18  1  0  0  0  0
  8 11  1  0  0  0  0
 11 12  1  0  0  0  0
 40 43  1  0  0  0  0
 43 44  1  0  0  0  0
 49 50  1  0  0  0  0
  7  8  1  0  0  0  0
 29 30  1  0  0  0  0
 39 40  1  0  0  0  0
 12 44  1  0  0  0  0
  3  4  1  0  0  0  0
  3  5  1  0  0  0  0
  3  6  1  0  0  0  0
 25 26  1  0  0  0  0
 25 27  1  0  0  0  0
 25 28  1  0  0  0  0
 53 56  1  0  0  0  0
 53 57  1  0  0  0  0
 53 58  1  0  0  0  0
 33 36  1  0  0  0  0
 33 37  1  0  0  0  0
 33 38  1  0  0  0  0
 60 62  1  0  0  0  0
 60 63  1  0  0  0  0
 60 64  1  0  0  0  0
 18 20  1  0  0  0  0
 18 21  1  0  0  0  0
 18 22  1  0  0  0  0
 11 15  1  0  0  0  0
 11 16  1  0  0  0  0
 43 47  1  0  0  0  0
 43 48  1  0  0  0  0
 50 55  1  0  0  0  0
  8 14  1  0  0  0  0
 30 35  1  0  0  0  0
 40 46  1  0  0  0  0
 59 61  1  0  0  0  0
 17 19  1  0  0  0  0
  7 13  1  0  0  0  0
 29 34  1  0  0  0  0
 49 54  1  0  0  0  0
 39 45  1  0  0  0  0
M  END
$$$$

  -OEChem-05262214473D

 64 63  0     1  0  0  0  0  0999 V2000
   -2.9351    5.3291    5.9194 C   0  0  0  0  0  0  0  0  0  0  0  0
   -4.1287    5.0947    5.7704 O   0  0  0  0  0  0  0  0  0  0  0  0
   -2.5083    6.6402    6.4912 C   0  0  0  0  0  0  0  0  0  0  0  0
   -2.3475    7.4053    5.7147 H   0  0  0  0  0  0  0  0  0  0  0  0
   -3.2632    7.0686    7.1701 H   0  0  0  0  0  0  0  0  0  0  0  0
   -1.5738    6.6183    7.0743 H   0  0  0  0  0  0  0  0  0  0  0  0
   -1.8882    4.4795    5.6062 N   0  0  0  0  0  0  0  0  0  0  0  0
   -2.0763    3.1655    5.0454 C   0  0  2  0  0  0  0  0  0  0  0  0
   -0.9967    2.2346    5.5937 C   0  0  0  0  0  0  0  0  0  0  0  0
   -0.0691    2.6269    6.2986 O   0  0  0  0  0  0  0  0  0  0  0  0
   -2.1389    3.1881    3.5162 C   0  0  0  0  0  0  0  0  0  0  0  0
   -0.6004    3.7644    2.7266 S   0  0  0  0  0  0  0  0  0  0  0  0
   -0.9379    4.7989    5.7806 H   0  0  0  0  0  0  0  0  0  0  0  0
   -3.0420    2.8159    5.4313 H   0  0  0  0  0  0  0  0  0  0  0  0
   -2.3527    2.1879    3.1254 H   0  0  0  0  0  0  0  0  0  0  0  0
   -2.9454    3.8514    3.1855 H   0  0  0  0  0  0  0  0  0  0  0  0
   -1.1777    0.9216    5.1828 N   0  0  0  0  0  0  0  0  0  0  0  0
   -0.2724   -0.1418    5.5511 C   0  0  0  0  0  0  0  0  0  0  0  0
   -1.9977    0.6775    4.6354 H   0  0  0  0  0  0  0  0  0  0  0  0
    0.4948   -0.2574    4.7714 H   0  0  0  0  0  0  0  0  0  0  0  0
    0.2115    0.1038    6.5079 H   0  0  0  0  0  0  0  0  0  0  0  0
   -0.8341   -1.0818    5.6550 H   0  0  0  0  0  0  0  0  0  0  0  0
   -6.7256    2.0330   -0.2766 C   0  0  0  0  0  0  0  0  0  0  0  0
   -7.1824    1.1039   -0.9322 O   0  0  0  0  0  0  0  0  0  0  0  0
   -7.5276    2.6077    0.8435 C   0  0  0  0  0  0  0  0  0  0  0  0
   -8.1775    3.4344    0.5145 H   0  0  0  0  0  0  0  0  0  0  0  0
   -8.2057    1.8676    1.2980 H   0  0  0  0  0  0  0  0  0  0  0  0
   -6.9411    3.0162    1.6819 H   0  0  0  0  0  0  0  0  0  0  0  0
   -5.4935    2.6382   -0.4627 N   0  0  0  0  0  0  0  0  0  0  0  0
   -4.5619    2.2388   -1.4845 C   0  0  2  0  0  0  0  0  0  0  0  0
   -3.1535    2.4674   -0.9521 C   0  0  0  0  0  0  0  0  0  0  0  0
   -2.8634    3.3945   -0.1987 O   0  0  0  0  0  0  0  0  0  0  0  0
   -4.7883    3.0138   -2.7732 C   0  0  0  0  0  0  0  0  0  0  0  0
   -5.2337    3.4049    0.1551 H   0  0  0  0  0  0  0  0  0  0  0  0
   -4.7192    1.1682   -1.6549 H   0  0  0  0  0  0  0  0  0  0  0  0
   -4.6352    4.0886   -2.6221 H   0  0  0  0  0  0  0  0  0  0  0  0
   -4.0976    2.6887   -3.5582 H   0  0  0  0  0  0  0  0  0  0  0  0
   -5.8111    2.8719   -3.1387 H   0  0  0  0  0  0  0  0  0  0  0  0
   -2.2466    1.5400   -1.4507 N   0  0  0  0  0  0  0  0  0  0  0  0
   -0.8424    1.5707   -1.1286 C   0  0  2  0  0  0  0  0  0  0  0  0
   -0.2161    0.2336   -1.5192 C   0  0  0  0  0  0  0  0  0  0  0  0
    0.1140   -0.6173   -0.6955 O   0  0  0  0  0  0  0  0  0  0  0  0
   -0.5877    1.9571    0.3305 C   0  0  0  0  0  0  0  0  0  0  0  0
   -1.0972    3.6445    0.7373 S   0  0  0  0  0  0  0  0  0  0  0  0
   -2.5850    0.7815   -2.0381 H   0  0  0  0  0  0  0  0  0  0  0  0
   -0.4081    2.3417   -1.7770 H   0  0  0  0  0  0  0  0  0  0  0  0
   -1.1227    1.2816    1.0060 H   0  0  0  0  0  0  0  0  0  0  0  0
    0.4806    1.8735    0.5575 H   0  0  0  0  0  0  0  0  0  0  0  0
   -0.0471    0.1141   -2.8913 N   0  0  0  0  0  0  0  0  0  0  0  0
    0.5480   -1.0503   -3.5044 C   0  0  2  0  0  0  0  0  0  0  0  0
    1.2952   -0.5953   -4.7511 C   0  0  0  0  0  0  0  0  0  0  0  0
    0.9131    0.3327   -5.4609 O   0  0  0  0  0  0  0  0  0  0  0  0
   -0.5044   -2.0918   -3.8513 C   0  0  0  0  0  0  0  0  0  0  0  0
   -0.3887    0.8494   -3.5031 H   0  0  0  0  0  0  0  0  0  0  0  0
    1.2604   -1.4599   -2.7801 H   0  0  0  0  0  0  0  0  0  0  0  0
   -1.2272   -1.6996   -4.5760 H   0  0  0  0  0  0  0  0  0  0  0  0
   -0.0486   -2.9857   -4.2899 H   0  0  0  0  0  0  0  0  0  0  0  0
   -1.0609   -2.3960   -2.9583 H   0  0  0  0  0  0  0  0  0  0  0  0
    2.4155   -1.3752   -5.0018 N   0  0  0  0  0  0  0  0  0  0  0  0
    3.2668   -1.1704   -6.1504 C   0  0  0  0  0  0  0  0  0  0  0  0
    2.6800   -2.0977   -4.3387 H   0  0  0  0  0  0  0  0  0  0  0  0
    2.9286   -1.8122   -6.9773 H   0  0  0  0  0  0  0  0  0  0  0  0
    3.2167   -0.1162   -6.4606 H   0  0  0  0  0  0  0  0  0  0  0  0
    4.3040   -1.4265   -5.8883 H   0  0  0  0  0  0  0  0  0  0  0  0
  1  3  1  0  0  0  0
  1  7  1  0  0  0  0
  1  2  2  0  0  0  0
 23 25  1  0  0  0  0
 23 29  1  0  0  0  0
 23 24  2  0  0  0  0
 50 51  1  0  0  0  0
 51 59  1  0  0  0  0
 51 52  2  0  0  0  0
  8  9  1  0  0  0  0
  9 17  1  0  0  0  0
  9 10  2  0  0  0  0
 30 31  1  0  0  0  0
 31 39  1  0  0  0  0
 31 32  2  0  0  0  0
 40 41  1  0  0  0  0
 41 49  1  0  0  0  0
 41 42  2  0  0  0  0
 50 53  1  0  0  0  0
 30 33  1  0  0  0  0
 59 60  1  0  0  0  0
 17 18  1  0  0  0  0
  8 11  1  0  0  0  0
 11 12  1  0  0  0  0
 40 43  1  0  0  0  0
 43 44  1  0  0  0  0
 49 50  1  0  0  0  0
  7  8  1  0  0  0  0
 29 30  1  0  0  0  0
 39 40  1  0  0  0  0
 12 44  1  0  0  0  0
  3  4  1  0  0  0  0
  3  5  1  0  0  0  0
  3  6  1  0  0  0  0
 25 26  1  0  0  0  0
 25 27  1  0  0  0  0
 25 28  1  0  0  0  0
 53 56  1  0  0  0  0
 53 57  1  0  0  0  0
 53 58  1  0  0  0  0
 33 36  1  0  0  0  0
 33 37  1  0  0  0  0
 33 38  1  0  0  0  0
 60 62  1  0  0  0  0
 60 63  1  0  0  0  0
 60 64  1  0  0  0  0
 18 20  1  0  0  0  0
 18 21  1  0  0  0  0
 18 22  1  0  0  0  0
 11 15  1  0  0  0  0
 11 16  1  0  0  0  0
 43 47  1  0  0  0  0
 43 48  1  0  0  0  0
 50 55  1  0  0  0  0
  8 14  1  0  0  0  0
 30 35  1  0  0  0  0
 40 46  1  0  0  0  0
 59 61  1  0  0  0  0
 17 19  1  0  0  0  0
  7 13  1  0  0  0  0
 29 34  1  0  0  0  0
 49 54  1  0  0  0  0
 39 45  1  0  0  0  0
M  END
$$$$

  -OEChem-05262214473D

 64 63  0     1  0  0  0  0  0999 V2000
   -2.9351    5.3291    5.9194 C   0  0  0  0  0  0  0  0  0  0  0  0
   -4.1287    5.0947    5.7704 O   0  0  0  0  0  0  0  0  0  0  0  0
   -2.5083    6.6402    6.4912 C   0  0  0  0  0  0  0  0  0  0  0  0
   -2.3475    7.4053    5.7147 H   0  0  0  0  0  0  0  0  0  0  0  0
   -3.2632    7.0686    7.1701 H   0  0  0  0  0  0  0  0  0  0  0  0
   -1.5738    6.6183    7.0743 H   0  0  0  0  0  0  0  0  0  0  0  0
   -1.8882    4.4795    5.6062 N   0  0  0  0  0  0  0  0  0  0  0  0
   -2.0763    3.1655    5.0454 C   0  0  2  0  0  0  0  0  0  0  0  0
   -0.9967    2.2346    5.5937 C   0  0  0  0  0  0  0  0  0  0  0  0
   -0.0691    2.6269    6.2986 O   0  0  0  0  0  0  0  0  0  0  0  0
   -2.1389    3.1881    3.5162 C   0  0  0  0  0  0  0  0  0  0  0  0
   -0.6004    3.7644    2.7266 S   0  0  0  0  0  0  0  0  0  0  0  0
   -0.9379    4.7989    5.7806 H   0  0  0  0  0  0  0  0  0  0  0  0
   -3.0420    2.8159    5.4313 H   0  0  0  0  0  0  0  0  0  0  0  0
   -2.3527    2.1879    3.1254 H   0  0  0  0  0  0  0  0  0  0  0  0
   -2.9454    3.8514    3.1855 H   0  0  0  0  0  0  0  0  0  0  0  0
   -1.1777    0.9216    5.1828 N   0  0  0  0  0  0  0  0  0  0  0  0
   -0.2724   -0.1418    5.5511 C   0  0  0  0  0  0  0  0  0  0  0  0
   -1.9977    0.6775    4.6354 H   0  0  0  0  0  0  0  0  0  0  0  0
    0.4948   -0.2574    4.7714 H   0  0  0  0  0  0  0  0  0  0  0  0
    0.2115    0.1038    6.5079 H   0  0  0  0  0  0  0  0  0  0  0  0
   -0.8341   -1.0818    5.6550 H   0  0  0  0  0  0  0  0  0  0  0  0
   -6.7256    2.0330   -0.2766 C   0  0  0  0  0  0  0  0  0  0  0  0
   -7.1824    1.1039   -0.9322 O   0  0  0  0  0  0  0  0  0  0  0  0
   -7.5276    2.6077    0.8435 C   0  0  0  0  0  0  0  0  0  0  0  0
   -8.1775    3.4344    0.5145 H   0  0  0  0  0  0  0  0  0  0  0  0
   -8.2057    1.8676    1.2980 H   0  0  0  0  0  0  0  0  0  0  0  0
   -6.9411    3.0162    1.6819 H   0  0  0  0  0  0  0  0  0  0  0  0
   -5.4935    2.6382   -0.4627 N   0  0  0  0  0  0  0  0  0  0  0  0
   -4.5619    2.2388   -1.4845 C   0  0  2  0  0  0  0  0  0  0  0  0
   -3.1535    2.4674   -0.9521 C   0  0  0  0  0  0  0  0  0  0  0  0
   -2.8634    3.3945   -0.1987 O   0  0  0  0  0  0  0  0  0  0  0  0
   -4.7883    3.0138   -2.7732 C   0  0  0  0  0  0  0  0  0  0  0  0
   -5.2337    3.4049    0.1551 H   0  0  0  0  0  0  0  0  0  0  0  0
   -4.7192    1.1682   -1.6549 H   0  0  0  0  0  0  0  0  0  0  0  0
   -4.6352    4.0886   -2.6221 H   0  0  0  0  0  0  0  0  0  0  0  0
   -4.0976    2.6887   -3.5582 H   0  0  0  0  0  0  0  0  0  0  0  0
   -5.8111    2.8719   -3.1387 H   0  0  0  0  0  0  0  0  0  0  0  0
   -2.2466    1.5400   -1.4507 N   0  0  0  0  0  0  0  0  0  0  0  0
   -0.8424    1.5707   -1.1286 C   0  0  2  0  0  0  0  0  0  0  0  0
   -0.2161    0.2336   -1.5192 C   0  0  0  0  0  0  0  0  0  0  0  0
   -0.1309   -0.7175   -0.7450 O   0  0  0  0  0  0  0  0  0  0  0  0
   -0.5877    1.9571    0.3305 C   0  0  0  0  0  0  0  0  0  0  0  0
   -1.0972    3.6445    0.7373 S   0  0  0  0  0  0  0  0  0  0  0  0
   -2.5850    0.7815   -2.0381 H   0  0  0  0  0  0  0  0  0  0  0  0
   -0.4081    2.3417   -1.7770 H   0  0  0  0  0  0  0  0  0  0  0  0
   -1.1227    1.2816    1.0060 H   0  0  0  0  0  0  0  0  0  0  0  0
    0.4806    1.8735    0.5575 H   0  0  0  0  0  0  0  0  0  0  0  0
    0.2574    0.2369   -2.8235 N   0  0  0  0  0  0  0  0  0  0  0  0
    0.9140   -0.9044   -3.4169 C   0  0  2  0  0  0  0  0  0  0  0  0
    1.9515   -0.3889   -4.4054 C   0  0  0  0  0  0  0  0  0  0  0  0
    1.7936    0.6317   -5.0723 O   0  0  0  0  0  0  0  0  0  0  0  0
   -0.0850   -1.8210   -4.1059 C   0  0  0  0  0  0  0  0  0  0  0  0
    0.1060    1.0535   -3.4083 H   0  0  0  0  0  0  0  0  0  0  0  0
    1.4174   -1.4380   -2.6033 H   0  0  0  0  0  0  0  0  0  0  0  0
   -0.5993   -1.3038   -4.9241 H   0  0  0  0  0  0  0  0  0  0  0  0
    0.4106   -2.7003   -4.5305 H   0  0  0  0  0  0  0  0  0  0  0  0
   -0.8477   -2.1671   -3.4000 H   0  0  0  0  0  0  0  0  0  0  0  0
    3.0557   -1.2257   -4.4871 N   0  0  0  0  0  0  0  0  0  0  0  0
    4.1583   -0.9762   -5.3859 C   0  0  0  0  0  0  0  0  0  0  0  0
    3.1210   -2.0285   -3.8683 H   0  0  0  0  0  0  0  0  0  0  0  0
    3.9853   -1.5049   -6.3349 H   0  0  0  0  0  0  0  0  0  0  0  0
    4.2378    0.1041   -5.5775 H   0  0  0  0  0  0  0  0  0  0  0  0
    5.0919   -1.3374   -4.9300 H   0  0  0  0  0  0  0  0  0  0  0  0
  1  3  1  0  0  0  0
  1  7  1  0  0  0  0
  1  2  2  0  0  0  0
 23 25  1  0  0  0  0
 23 29  1  0  0  0  0
 23 24  2  0  0  0  0
 50 51  1  0  0  0  0
 51 59  1  0  0  0  0
 51 52  2  0  0  0  0
  8  9  1  0  0  0  0
  9 17  1  0  0  0  0
  9 10  2  0  0  0  0
 30 31  1  0  0  0  0
 31 39  1  0  0  0  0
 31 32  2  0  0  0  0
 40 41  1  0  0  0  0
 41 49  1  0  0  0  0
 41 42  2  0  0  0  0
 50 53  1  0  0  0  0
 30 33  1  0  0  0  0
 59 60  1  0  0  0  0
 17 18  1  0  0  0  0
  8 11  1  0  0  0  0
 11 12  1  0  0  0  0
 40 43  1  0  0  0  0
 43 44  1  0  0  0  0
 49 50  1  0  0  0  0
  7  8  1  0  0  0  0
 29 30  1  0  0  0  0
 39 40  1  0  0  0  0
 12 44  1  0  0  0  0
  3  4  1  0  0  0  0
  3  5  1  0  0  0  0
  3  6  1  0  0  0  0
 25 26  1  0  0  0  0
 25 27  1  0  0  0  0
 25 28  1  0  0  0  0
 53 56  1  0  0  0  0
 53 57  1  0  0  0  0
 53 58  1  0  0  0  0
 33 36  1  0  0  0  0
 33 37  1  0  0  0  0
 33 38  1  0  0  0  0
 60 62  1  0  0  0  0
 60 63  1  0  0  0  0
 60 64  1  0  0  0  0
 18 20  1  0  0  0  0
 18 21  1  0  0  0  0
 18 22  1  0  0  0  0
 11 15  1  0  0  0  0
 11 16  1  0  0  0  0
 43 47  1  0  0  0  0
 43 48  1  0  0  0  0
 50 55  1  0  0  0  0
  8 14  1  0  0  0  0
 30 35  1  0  0  0  0
 40 46  1  0  0  0  0
 59 61  1  0  0  0  0
 17 19  1  0  0  0  0
  7 13  1  0  0  0  0
 29 34  1  0  0  0  0
 49 54  1  0  0  0  0
 39 45  1  0  0  0  0
M  END
$$$$

  -OEChem-05262214473D

 64 63  0     1  0  0  0  0  0999 V2000
   -2.9351    5.3291    5.9194 C   0  0  0  0  0  0  0  0  0  0  0  0
   -4.1287    5.0947    5.7704 O   0  0  0  0  0  0  0  0  0  0  0  0
   -2.5083    6.6402    6.4912 C   0  0  0  0  0  0  0  0  0  0  0  0
   -2.3475    7.4053    5.7147 H   0  0  0  0  0  0  0  0  0  0  0  0
   -3.2632    7.0686    7.1701 H   0  0  0  0  0  0  0  0  0  0  0  0
   -1.5738    6.6183    7.0743 H   0  0  0  0  0  0  0  0  0  0  0  0
   -1.8882    4.4795    5.6062 N   0  0  0  0  0  0  0  0  0  0  0  0
   -2.0763    3.1655    5.0454 C   0  0  2  0  0  0  0  0  0  0  0  0
   -0.9967    2.2346    5.5937 C   0  0  0  0  0  0  0  0  0  0  0  0
   -0.0691    2.6269    6.2986 O   0  0  0  0  0  0  0  0  0  0  0  0
   -2.1389    3.1881    3.5162 C   0  0  0  0  0  0  0  0  0  0  0  0
   -0.6004    3.7644    2.7266 S   0  0  0  0  0  0  0  0  0  0  0  0
   -0.9379    4.7989    5.7806 H   0  0  0  0  0  0  0  0  0  0  0  0
   -3.0420    2.8159    5.4313 H   0  0  0  0  0  0  0  0  0  0  0  0
   -2.3527    2.1879    3.1254 H   0  0  0  0  0  0  0  0  0  0  0  0
   -2.9454    3.8514    3.1855 H   0  0  0  0  0  0  0  0  0  0  0  0
   -1.1777    0.9216    5.1828 N   0  0  0  0  0  0  0  0  0  0  0  0
   -0.2724   -0.1418    5.5511 C   0  0  0  0  0  0  0  0  0  0  0  0
   -1.9977    0.6775    4.6354 H   0  0  0  0  0  0  0  0  0  0  0  0
    0.4948   -0.2574    4.7714 H   0  0  0  0  0  0  0  0  0  0  0  0
    0.2115    0.1038    6.5079 H   0  0  0  0  0  0  0  0  0  0  0  0
   -0.8341   -1.0818    5.6550 H   0  0  0  0  0  0  0  0  0  0  0  0
   -6.7256    2.0330   -0.2766 C   0  0  0  0  0  0  0  0  0  0  0  0
   -7.1824    1.1039   -0.9322 O   0  0  0  0  0  0  0  0  0  0  0  0
   -7.5276    2.6077    0.8435 C   0  0  0  0  0  0  0  0  0  0  0  0
   -8.1775    3.4344    0.5145 H   0  0  0  0  0  0  0  0  0  0  0  0
   -8.2057    1.8676    1.2980 H   0  0  0  0  0  0  0  0  0  0  0  0
   -6.9411    3.0162    1.6819 H   0  0  0  0  0  0  0  0  0  0  0  0
   -5.4935    2.6382   -0.4627 N   0  0  0  0  0  0  0  0  0  0  0  0
   -4.5619    2.2388   -1.4845 C   0  0  2  0  0  0  0  0  0  0  0  0
   -3.1535    2.4674   -0.9521 C   0  0  0  0  0  0  0  0  0  0  0  0
   -2.8634    3.3945   -0.1987 O   0  0  0  0  0  0  0  0  0  0  0  0
   -4.7883    3.0138   -2.7732 C   0  0  0  0  0  0  0  0  0  0  0  0
   -5.2337    3.4049    0.1551 H   0  0  0  0  0  0  0  0  0  0  0  0
   -4.7192    1.1682   -1.6549 H   0  0  0  0  0  0  0  0  0  0  0  0
   -4.6352    4.0886   -2.6221 H   0  0  0  0  0  0  0  0  0  0  0  0
   -4.0976    2.6887   -3.5582 H   0  0  0  0  0  0  0  0  0  0  0  0
   -5.8111    2.8719   -3.1387 H   0  0  0  0  0  0  0  0  0  0  0  0
   -2.2466    1.5400   -1.4507 N   0  0  0  0  0  0  0  0  0  0  0  0
   -0.8424    1.5707   -1.1286 C   0  0  2  0  0  0  0  0  0  0  0  0
   -0.2161    0.2336   -1.5192 C   0  0  0  0  0  0  0  0  0  0  0  0
   -0.3628   -0.7929   -0.8588 O   0  0  0  0  0  0  0  0  0  0  0  0
   -0.5877    1.9571    0.3305 C   0  0  0  0  0  0  0  0  0  0  0  0
   -1.0972    3.6445    0.7373 S   0  0  0  0  0  0  0  0  0  0  0  0
   -2.5850    0.7815   -2.0381 H   0  0  0  0  0  0  0  0  0  0  0  0
   -0.4081    2.3417   -1.7770 H   0  0  0  0  0  0  0  0  0  0  0  0
   -1.1227    1.2816    1.0060 H   0  0  0  0  0  0  0  0  0  0  0  0
    0.4806    1.8735    0.5575 H   0  0  0  0  0  0  0  0  0  0  0  0
    0.5444    0.3283   -2.6760 N   0  0  0  0  0  0  0  0  0  0  0  0
    1.2573   -0.7971   -3.2339 C   0  0  2  0  0  0  0  0  0  0  0  0
    2.5207   -0.2696   -3.9009 C   0  0  0  0  0  0  0  0  0  0  0  0
    2.5759    0.8209   -4.4657 O   0  0  0  0  0  0  0  0  0  0  0  0
    0.3958   -1.5601   -4.2280 C   0  0  0  0  0  0  0  0  0  0  0  0
    0.5759    1.2078   -3.1830 H   0  0  0  0  0  0  0  0  0  0  0  0
    1.5304   -1.4460   -2.3947 H   0  0  0  0  0  0  0  0  0  0  0  0
    0.1123   -0.9261   -5.0760 H   0  0  0  0  0  0  0  0  0  0  0  0
    0.9276   -2.4294   -4.6286 H   0  0  0  0  0  0  0  0  0  0  0  0
   -0.5264   -1.9132   -3.7541 H   0  0  0  0  0  0  0  0  0  0  0  0
    3.5673   -1.1783   -3.8289 N   0  0  0  0  0  0  0  0  0  0  0  0
    4.8589   -0.9287   -4.4249 C   0  0  0  0  0  0  0  0  0  0  0  0
    3.4450   -2.0409   -3.3066 H   0  0  0  0  0  0  0  0  0  0  0  0
    4.8807   -1.3462   -5.4424 H   0  0  0  0  0  0  0  0  0  0  0  0
    5.0386    0.1556   -4.4697 H   0  0  0  0  0  0  0  0  0  0  0  0
    5.6417   -1.4052   -3.8164 H   0  0  0  0  0  0  0  0  0  0  0  0
  1  3  1  0  0  0  0
  1  7  1  0  0  0  0
  1  2  2  0  0  0  0
 23 25  1  0  0  0  0
 23 29  1  0  0  0  0
 23 24  2  0  0  0  0
 50 51  1  0  0  0  0
 51 59  1  0  0  0  0
 51 52  2  0  0  0  0
  8  9  1  0  0  0  0
  9 17  1  0  0  0  0
  9 10  2  0  0  0  0
 30 31  1  0  0  0  0
 31 39  1  0  0  0  0
 31 32  2  0  0  0  0
 40 41  1  0  0  0  0
 41 49  1  0  0  0  0
 41 42  2  0  0  0  0
 50 53  1  0  0  0  0
 30 33  1  0  0  0  0
 59 60  1  0  0  0  0
 17 18  1  0  0  0  0
  8 11  1  0  0  0  0
 11 12  1  0  0  0  0
 40 43  1  0  0  0  0
 43 44  1  0  0  0  0
 49 50  1  0  0  0  0
  7  8  1  0  0  0  0
 29 30  1  0  0  0  0
 39 40  1  0  0  0  0
 12 44  1  0  0  0  0
  3  4  1  0  0  0  0
  3  5  1  0  0  0  0
  3  6  1  0  0  0  0
 25 26  1  0  0  0  0
 25 27  1  0  0  0  0
 25 28  1  0  0  0  0
 53 56  1  0  0  0  0
 53 57  1  0  0  0  0
 53 58  1  0  0  0  0
 33 36  1  0  0  0  0
 33 37  1  0  0  0  0
 33 38  1  0  0  0  0
 60 62  1  0  0  0  0
 60 63  1  0  0  0  0
 60 64  1  0  0  0  0
 18 20  1  0  0  0  0
 18 21  1  0  0  0  0
 18 22  1  0  0  0  0
 11 15  1  0  0  0  0
 11 16  1  0  0  0  0
 43 47  1  0  0  0  0
 43 48  1  0  0  0  0
 50 55  1  0  0  0  0
  8 14  1  0  0  0  0
 30 35  1  0  0  0  0
 40 46  1  0  0  0  0
 59 61  1  0  0  0  0
 17 19  1  0  0  0  0
  7 13  1  0  0  0  0
 29 34  1  0  0  0  0
 49 54  1  0  0  0  0
 39 45  1  0  0  0  0
M  END
$$$$

  -OEChem-05262214473D

 64 63  0     1  0  0  0  0  0999 V2000
   -2.9351    5.3291    5.9194 C   0  0  0  0  0  0  0  0  0  0  0  0
   -4.1287    5.0947    5.7704 O   0  0  0  0  0  0  0  0  0  0  0  0
   -2.5083    6.6402    6.4912 C   0  0  0  0  0  0  0  0  0  0  0  0
   -2.3475    7.4053    5.7147 H   0  0  0  0  0  0  0  0  0  0  0  0
   -3.2632    7.0686    7.1701 H   0  0  0  0  0  0  0  0  0  0  0  0
   -1.5738    6.6183    7.0743 H   0  0  0  0  0  0  0  0  0  0  0  0
   -1.8882    4.4795    5.6062 N   0  0  0  0  0  0  0  0  0  0  0  0
   -2.0763    3.1655    5.0454 C   0  0  2  0  0  0  0  0  0  0  0  0
   -0.9967    2.2346    5.5937 C   0  0  0  0  0  0  0  0  0  0  0  0
   -0.0691    2.6269    6.2986 O   0  0  0  0  0  0  0  0  0  0  0  0
   -2.1389    3.1881    3.5162 C   0  0  0  0  0  0  0  0  0  0  0  0
   -0.6004    3.7644    2.7266 S   0  0  0  0  0  0  0  0  0  0  0  0
   -0.9379    4.7989    5.7806 H   0  0  0  0  0  0  0  0  0  0  0  0
   -3.0420    2.8159    5.4313 H   0  0  0  0  0  0  0  0  0  0  0  0
   -2.3527    2.1879    3.1254 H   0  0  0  0  0  0  0  0  0  0  0  0
   -2.9454    3.8514    3.1855 H   0  0  0  0  0  0  0  0  0  0  0  0
   -1.1777    0.9216    5.1828 N   0  0  0  0  0  0  0  0  0  0  0  0
   -0.2724   -0.1418    5.5511 C   0  0  0  0  0  0  0  0  0  0  0  0
   -1.9977    0.6775    4.6354 H   0  0  0  0  0  0  0  0  0  0  0  0
    0.4948   -0.2574    4.7714 H   0  0  0  0  0  0  0  0  0  0  0  0
    0.2115    0.1038    6.5079 H   0  0  0  0  0  0  0  0  0  0  0  0
   -0.8341   -1.0818    5.6550 H   0  0  0  0  0  0  0  0  0  0  0  0
   -6.7256    2.0330   -0.2766 C   0  0  0  0  0  0  0  0  0  0  0  0
   -7.1824    1.1039   -0.9322 O   0  0  0  0  0  0  0  0  0  0  0  0
   -7.5276    2.6077    0.8435 C   0  0  0  0  0  0  0  0  0  0  0  0
   -8.1775    3.4344    0.5145 H   0  0  0  0  0  0  0  0  0  0  0  0
   -8.2057    1.8676    1.2980 H   0  0  0  0  0  0  0  0  0  0  0  0
   -6.9411    3.0162    1.6819 H   0  0  0  0  0  0  0  0  0  0  0  0
   -5.4935    2.6382   -0.4627 N   0  0  0  0  0  0  0  0  0  0  0  0
   -4.5619    2.2388   -1.4845 C   0  0  2  0  0  0  0  0  0  0  0  0
   -3.1535    2.4674   -0.9521 C   0  0  0  0  0  0  0  0  0  0  0  0
   -2.8634    3.3945   -0.1987 O   0  0  0  0  0  0  0  0  0  0  0  0
   -4.7883    3.0138   -2.7732 C   0  0  0  0  0  0  0  0  0  0  0  0
   -5.2337    3.4049    0.1551 H   0  0  0  0  0  0  0  0  0  0  0  0
   -4.7192    1.1682   -1.6549 H   0  0  0  0  0  0  0  0  0  0  0  0
   -4.6352    4.0886   -2.6221 H   0  0  0  0  0  0  0  0  0  0  0  0
   -4.0976    2.6887   -3.5582 H   0  0  0  0  0  0  0  0  0  0  0  0
   -5.8111    2.8719   -3.1387 H   0  0  0  0  0  0  0  0  0  0  0  0
   -2.2466    1.5400   -1.4507 N   0  0  0  0  0  0  0  0  0  0  0  0
   -0.8424    1.5707   -1.1286 C   0  0  2  0  0  0  0  0  0  0  0  0
   -0.2161    0.2336   -1.5192 C   0  0  0  0  0  0  0  0  0  0  0  0
   -0.5660   -0.8383   -1.0293 O   0  0  0  0  0  0  0  0  0  0  0  0
   -0.5877    1.9571    0.3305 C   0  0  0  0  0  0  0  0  0  0  0  0
   -1.0972    3.6445    0.7373 S   0  0  0  0  0  0  0  0  0  0  0  0
   -2.5850    0.7815   -2.0381 H   0  0  0  0  0  0  0  0  0  0  0  0
   -0.4081    2.3417   -1.7770 H   0  0  0  0  0  0  0  0  0  0  0  0
   -1.1227    1.2816    1.0060 H   0  0  0  0  0  0  0  0  0  0  0  0
    0.4806    1.8735    0.5575 H   0  0  0  0  0  0  0  0  0  0  0  0
    0.7942    0.3818   -2.4588 N   0  0  0  0  0  0  0  0  0  0  0  0
    1.5546   -0.7355   -2.9680 C   0  0  2  0  0  0  0  0  0  0  0  0
    2.9642   -0.2456   -3.2720 C   0  0  0  0  0  0  0  0  0  0  0  0
    3.2066    0.8875   -3.6824 O   0  0  0  0  0  0  0  0  0  0  0  0
    0.9051   -1.3270   -4.2094 C   0  0  0  0  0  0  0  0  0  0  0  0
    0.9890    1.3018   -2.8426 H   0  0  0  0  0  0  0  0  0  0  0  0
    1.5917   -1.4834   -2.1684 H   0  0  0  0  0  0  0  0  0  0  0  0
    0.8590   -0.5922   -5.0215 H   0  0  0  0  0  0  0  0  0  0  0  0
    1.4672   -2.1916   -4.5775 H   0  0  0  0  0  0  0  0  0  0  0  0
   -0.1191   -1.6516   -3.9963 H   0  0  0  0  0  0  0  0  0  0  0  0
    3.9154   -1.2363   -3.0723 N   0  0  0  0  0  0  0  0  0  0  0  0
    5.3212   -1.0313   -3.3328 C   0  0  0  0  0  0  0  0  0  0  0  0
    3.6299   -2.1338   -2.6920 H   0  0  0  0  0  0  0  0  0  0  0  0
    5.5540   -1.3469   -4.3605 H   0  0  0  0  0  0  0  0  0  0  0  0
    5.5645    0.0348   -3.2128 H   0  0  0  0  0  0  0  0  0  0  0  0
    5.9159   -1.6253   -2.6233 H   0  0  0  0  0  0  0  0  0  0  0  0
  1  3  1  0  0  0  0
  1  7  1  0  0  0  0
  1  2  2  0  0  0  0
 23 25  1  0  0  0  0
 23 29  1  0  0  0  0
 23 24  2  0  0  0  0
 50 51  1  0  0  0  0
 51 59  1  0  0  0  0
 51 52  2  0  0  0  0
  8  9  1  0  0  0  0
  9 17  1  0  0  0  0
  9 10  2  0  0  0  0
 30 31  1  0  0  0  0
 31 39  1  0  0  0  0
 31 32  2  0  0  0  0
 40 41  1  0  0  0  0
 41 49  1  0  0  0  0
 41 42  2  0  0  0  0
 50 53  1  0  0  0  0
 30 33  1  0  0  0  0
 59 60  1  0  0  0  0
 17 18  1  0  0  0  0
  8 11  1  0  0  0  0
 11 12  1  0  0  0  0
 40 43  1  0  0  0  0
 43 44  1  0  0  0  0
 49 50  1  0  0  0  0
  7  8  1  0  0  0  0
 29 30  1  0  0  0  0
 39 40  1  0  0  0  0
 12 44  1  0  0  0  0
  3  4  1  0  0  0  0
  3  5  1  0  0  0  0
  3  6  1  0  0  0  0
 25 26  1  0  0  0  0
 25 27  1  0  0  0  0
 25 28  1  0  0  0  0
 53 56  1  0  0  0  0
 53 57  1  0  0  0  0
 53 58  1  0  0  0  0
 33 36  1  0  0  0  0
 33 37  1  0  0  0  0
 33 38  1  0  0  0  0
 60 62  1  0  0  0  0
 60 63  1  0  0  0  0
 60 64  1  0  0  0  0
 18 20  1  0  0  0  0
 18 21  1  0  0  0  0
 18 22  1  0  0  0  0
 11 15  1  0  0  0  0
 11 16  1  0  0  0  0
 43 47  1  0  0  0  0
 43 48  1  0  0  0  0
 50 55  1  0  0  0  0
  8 14  1  0  0  0  0
 30 35  1  0  0  0  0
 40 46  1  0  0  0  0
 59 61  1  0  0  0  0
 17 19  1  0  0  0  0
  7 13  1  0  0  0  0
 29 34  1  0  0  0  0
 49 54  1  0  0  0  0
 39 45  1  0  0  0  0
M  END
$$$$

  -OEChem-05262214473D

 64 63  0     1  0  0  0  0  0999 V2000
   -2.9351    5.3291    5.9194 C   0  0  0  0  0  0  0  0  0  0  0  0
   -4.1287    5.0947    5.7704 O   0  0  0  0  0  0  0  0  0  0  0  0
   -2.5083    6.6402    6.4912 C   0  0  0  0  0  0  0  0  0  0  0  0
   -2.3475    7.4053    5.7147 H   0  0  0  0  0  0  0  0  0  0  0  0
   -3.2632    7.0686    7.1701 H   0  0  0  0  0  0  0  0  0  0  0  0
   -1.5738    6.6183    7.0743 H   0  0  0  0  0  0  0  0  0  0  0  0
   -1.8882    4.4795    5.6062 N   0  0  0  0  0  0  0  0  0  0  0  0
   -2.0763    3.1655    5.0454 C   0  0  2  0  0  0  0  0  0  0  0  0
   -0.9967    2.2346    5.5937 C   0  0  0  0  0  0  0  0  0  0  0  0
   -0.0691    2.6269    6.2986 O   0  0  0  0  0  0  0  0  0  0  0  0
   -2.1389    3.1881    3.5162 C   0  0  0  0  0  0  0  0  0  0  0  0
   -0.6004    3.7644    2.7266 S   0  0  0  0  0  0  0  0  0  0  0  0
   -0.9379    4.7989    5.7806 H   0  0  0  0  0  0  0  0  0  0  0  0
   -3.0420    2.8159    5.4313 H   0  0  0  0  0  0  0  0  0  0  0  0
   -2.3527    2.1879    3.1254 H   0  0  0  0  0  0  0  0  0  0  0  0
   -2.9454    3.8514    3.1855 H   0  0  0  0  0  0  0  0  0  0  0  0
   -1.1777    0.9216    5.1828 N   0  0  0  0  0  0  0  0  0  0  0  0
   -0.2724   -0.1418    5.5511 C   0  0  0  0  0  0  0  0  0  0  0  0
   -1.9977    0.6775    4.6354 H   0  0  0  0  0  0  0  0  0  0  0  0
    0.4948   -0.2574    4.7714 H   0  0  0  0  0  0  0  0  0  0  0  0
    0.2115    0.1038    6.5079 H   0  0  0  0  0  0  0  0  0  0  0  0
   -0.8341   -1.0818    5.6550 H   0  0  0  0  0  0  0  0  0  0  0  0
   -6.7256    2.0330   -0.2766 C   0  0  0  0  0  0  0  0  0  0  0  0
   -7.1824    1.1039   -0.9322 O   0  0  0  0  0  0  0  0  0  0  0  0
   -7.5276    2.6077    0.8435 C   0  0  0  0  0  0  0  0  0  0  0  0
   -8.1775    3.4344    0.5145 H   0  0  0  0  0  0  0  0  0  0  0  0
   -8.2057    1.8676    1.2980 H   0  0  0  0  0  0  0  0  0  0  0  0
   -6.9411    3.0162    1.6819 H   0  0  0  0  0  0  0  0  0  0  0  0
   -5.4935    2.6382   -0.4627 N   0  0  0  0  0  0  0  0  0  0  0  0
   -4.5619    2.2388   -1.4845 C   0  0  2  0  0  0  0  0  0  0  0  0
   -3.1535    2.4674   -0.9521 C   0  0  0  0  0  0  0  0  0  0  0  0
   -2.8634    3.3945   -0.1987 O   0  0  0  0  0  0  0  0  0  0  0  0
   -4.7883    3.0138   -2.7732 C   0  0  0  0  0  0  0  0  0  0  0  0
   -5.2337    3.4049    0.1551 H   0  0  0  0  0  0  0  0  0  0  0  0
   -4.7192    1.1682   -1.6549 H   0  0  0  0  0  0  0  0  0  0  0  0
   -4.6352    4.0886   -2.6221 H   0  0  0  0  0  0  0  0  0  0  0  0
   -4.0976    2.6887   -3.5582 H   0  0  0  0  0  0  0  0  0  0  0  0
   -5.8111    2.8719   -3.1387 H   0  0  0  0  0  0  0  0  0  0  0  0
   -2.2466    1.5400   -1.4507 N   0  0  0  0  0  0  0  0  0  0  0  0
   -0.8424    1.5707   -1.1286 C   0  0  2  0  0  0  0  0  0  0  0  0
   -0.2161    0.2336   -1.5192 C   0  0  0  0  0  0  0  0  0  0  0  0
   -0.7267   -0.8506   -1.2449 O   0  0  0  0  0  0  0  0  0  0  0  0
   -0.5877    1.9571    0.3305 C   0  0  0  0  0  0  0  0  0  0  0  0
   -1.0972    3.6445    0.7373 S   0  0  0  0  0  0  0  0  0  0  0  0
   -2.5850    0.7815   -2.0381 H   0  0  0  0  0  0  0  0  0  0  0  0
   -0.4081    2.3417   -1.7770 H   0  0  0  0  0  0  0  0  0  0  0  0
   -1.1227    1.2816    1.0060 H   0  0  0  0  0  0  0  0  0  0  0  0
    0.4806    1.8735    0.5575 H   0  0  0  0  0  0  0  0  0  0  0  0
    0.9898    0.3940   -2.1867 N   0  0  0  0  0  0  0  0  0  0  0  0
    1.7855   -0.7240   -2.6372 C   0  0  2  0  0  0  0  0  0  0  0  0
    3.2516   -0.3186   -2.5614 C   0  0  0  0  0  0  0  0  0  0  0  0
    3.6428    0.8269   -2.7758 O   0  0  0  0  0  0  0  0  0  0  0  0
    1.4083   -1.1375   -4.0512 C   0  0  0  0  0  0  0  0  0  0  0  0
    1.3171    1.3292   -2.4102 H   0  0  0  0  0  0  0  0  0  0  0  0
    1.5973   -1.5476   -1.9399 H   0  0  0  0  0  0  0  0  0  0  0  0
    1.5900   -0.3250   -4.7641 H   0  0  0  0  0  0  0  0  0  0  0  0
    1.9925   -2.0031   -4.3806 H   0  0  0  0  0  0  0  0  0  0  0  0
    0.3466   -1.4002   -4.1103 H   0  0  0  0  0  0  0  0  0  0  0  0
    4.0765   -1.3956   -2.2687 N   0  0  0  0  0  0  0  0  0  0  0  0
    5.5134   -1.2768   -2.1841 C   0  0  0  0  0  0  0  0  0  0  0  0
    3.6630   -2.3011   -2.0663 H   0  0  0  0  0  0  0  0  0  0  0  0
    5.9591   -1.5070   -3.1631 H   0  0  0  0  0  0  0  0  0  0  0  0
    5.7797   -0.2502   -1.8923 H   0  0  0  0  0  0  0  0  0  0  0  0
    5.8959   -1.9827   -1.4321 H   0  0  0  0  0  0  0  0  0  0  0  0
  1  3  1  0  0  0  0
  1  7  1  0  0  0  0
  1  2  2  0  0  0  0
 23 25  1  0  0  0  0
 23 29  1  0  0  0  0
 23 24  2  0  0  0  0
 50 51  1  0  0  0  0
 51 59  1  0  0  0  0
 51 52  2  0  0  0  0
  8  9  1  0  0  0  0
  9 17  1  0  0  0  0
  9 10  2  0  0  0  0
 30 31  1  0  0  0  0
 31 39  1  0  0  0  0
 31 32  2  0  0  0  0
 40 41  1  0  0  0  0
 41 49  1  0  0  0  0
 41 42  2  0  0  0  0
 50 53  1  0  0  0  0
 30 33  1  0  0  0  0
 59 60  1  0  0  0  0
 17 18  1  0  0  0  0
  8 11  1  0  0  0  0
 11 12  1  0  0  0  0
 40 43  1  0  0  0  0
 43 44  1  0  0  0  0
 49 50  1  0  0  0  0
  7  8  1  0  0  0  0
 29 30  1  0  0  0  0
 39 40  1  0  0  0  0
 12 44  1  0  0  0  0
  3  4  1  0  0  0  0
  3  5  1  0  0  0  0
  3  6  1  0  0  0  0
 25 26  1  0  0  0  0
 25 27  1  0  0  0  0
 25 28  1  0  0  0  0
 53 56  1  0  0  0  0
 53 57  1  0  0  0  0
 53 58  1  0  0  0  0
 33 36  1  0  0  0  0
 33 37  1  0  0  0  0
 33 38  1  0  0  0  0
 60 62  1  0  0  0  0
 60 63  1  0  0  0  0
 60 64  1  0  0  0  0
 18 20  1  0  0  0  0
 18 21  1  0  0  0  0
 18 22  1  0  0  0  0
 11 15  1  0  0  0  0
 11 16  1  0  0  0  0
 43 47  1  0  0  0  0
 43 48  1  0  0  0  0
 50 55  1  0  0  0  0
  8 14  1  0  0  0  0
 30 35  1  0  0  0  0
 40 46  1  0  0  0  0
 59 61  1  0  0  0  0
 17 19  1  0  0  0  0
  7 13  1  0  0  0  0
 29 34  1  0  0  0  0
 49 54  1  0  0  0  0
 39 45  1  0  0  0  0
M  END
$$$$

  -OEChem-05262214473D

 64 63  0     1  0  0  0  0  0999 V2000
   -2.9351    5.3291    5.9194 C   0  0  0  0  0  0  0  0  0  0  0  0
   -4.1287    5.0947    5.7704 O   0  0  0  0  0  0  0  0  0  0  0  0
   -2.5083    6.6402    6.4912 C   0  0  0  0  0  0  0  0  0  0  0  0
   -2.3475    7.4053    5.7147 H   0  0  0  0  0  0  0  0  0  0  0  0
   -3.2632    7.0686    7.1701 H   0  0  0  0  0  0  0  0  0  0  0  0
   -1.5738    6.6183    7.0743 H   0  0  0  0  0  0  0  0  0  0  0  0
   -1.8882    4.4795    5.6062 N   0  0  0  0  0  0  0  0  0  0  0  0
   -2.0763    3.1655    5.0454 C   0  0  2  0  0  0  0  0  0  0  0  0
   -0.9967    2.2346    5.5937 C   0  0  0  0  0  0  0  0  0  0  0  0
   -0.0691    2.6269    6.2986 O   0  0  0  0  0  0  0  0  0  0  0  0
   -2.1389    3.1881    3.5162 C   0  0  0  0  0  0  0  0  0  0  0  0
   -0.6004    3.7644    2.7266 S   0  0  0  0  0  0  0  0  0  0  0  0
   -0.9379    4.7989    5.7806 H   0  0  0  0  0  0  0  0  0  0  0  0
   -3.0420    2.8159    5.4313 H   0  0  0  0  0  0  0  0  0  0  0  0
   -2.3527    2.1879    3.1254 H   0  0  0  0  0  0  0  0  0  0  0  0
   -2.9454    3.8514    3.1855 H   0  0  0  0  0  0  0  0  0  0  0  0
   -1.1777    0.9216    5.1828 N   0  0  0  0  0  0  0  0  0  0  0  0
   -0.2724   -0.1418    5.5511 C   0  0  0  0  0  0  0  0  0  0  0  0
   -1.9977    0.6775    4.6354 H   0  0  0  0  0  0  0  0  0  0  0  0
    0.4948   -0.2574    4.7714 H   0  0  0  0  0  0  0  0  0  0  0  0
    0.2115    0.1038    6.5079 H   0  0  0  0  0  0  0  0  0  0  0  0
   -0.8341   -1.0818    5.6550 H   0  0  0  0  0  0  0  0  0  0  0  0
   -6.7256    2.0330   -0.2766 C   0  0  0  0  0  0  0  0  0  0  0  0
   -7.1824    1.1039   -0.9322 O   0  0  0  0  0  0  0  0  0  0  0  0
   -7.5276    2.6077    0.8435 C   0  0  0  0  0  0  0  0  0  0  0  0
   -8.1775    3.4344    0.5145 H   0  0  0  0  0  0  0  0  0  0  0  0
   -8.2057    1.8676    1.2980 H   0  0  0  0  0  0  0  0  0  0  0  0
   -6.9411    3.0162    1.6819 H   0  0  0  0  0  0  0  0  0  0  0  0
   -5.4935    2.6382   -0.4627 N   0  0  0  0  0  0  0  0  0  0  0  0
   -4.5619    2.2388   -1.4845 C   0  0  2  0  0  0  0  0  0  0  0  0
   -3.1535    2.4674   -0.9521 C   0  0  0  0  0  0  0  0  0  0  0  0
   -2.8634    3.3945   -0.1987 O   0  0  0  0  0  0  0  0  0  0  0  0
   -4.7883    3.0138   -2.7732 C   0  0  0  0  0  0  0  0  0  0  0  0
   -5.2337    3.4049    0.1551 H   0  0  0  0  0  0  0  0  0  0  0  0
   -4.7192    1.1682   -1.6549 H   0  0  0  0  0  0  0  0  0  0  0  0
   -4.6352    4.0886   -2.6221 H   0  0  0  0  0  0  0  0  0  0  0  0
   -4.0976    2.6887   -3.5582 H   0  0  0  0  0  0  0  0  0  0  0  0
   -5.8111    2.8719   -3.1387 H   0  0  0  0  0  0  0  0  0  0  0  0
   -2.2466    1.5400   -1.4507 N   0  0  0  0  0  0  0  0  0  0  0  0
   -0.8424    1.5707   -1.1286 C   0  0  2  0  0  0  0  0  0  0  0  0
   -0.2161    0.2336   -1.5192 C   0  0  0  0  0  0  0  0  0  0  0  0
   -0.8338   -0.8289   -1.4909 O   0  0  0  0  0  0  0  0  0  0  0  0
   -0.5877    1.9571    0.3305 C   0  0  0  0  0  0  0  0  0  0  0  0
   -1.0972    3.6445    0.7373 S   0  0  0  0  0  0  0  0  0  0  0  0
   -2.5850    0.7815   -2.0381 H   0  0  0  0  0  0  0  0  0  0  0  0
   -0.4081    2.3417   -1.7770 H   0  0  0  0  0  0  0  0  0  0  0  0
   -1.1227    1.2816    1.0060 H   0  0  0  0  0  0  0  0  0  0  0  0
    0.4806    1.8735    0.5575 H   0  0  0  0  0  0  0  0  0  0  0  0
    1.1179    0.3639   -1.8783 N   0  0  0  0  0  0  0  0  0  0  0  0
    1.9344   -0.7632   -2.2642 C   0  0  2  0  0  0  0  0  0  0  0  0
    3.3634   -0.4835   -1.8177 C   0  0  0  0  0  0  0  0  0  0  0  0
    3.8546    0.6433   -1.8077 O   0  0  0  0  0  0  0  0  0  0  0  0
    1.8710   -1.0046   -3.7643 C   0  0  0  0  0  0  0  0  0  0  0  0
    1.5378    1.2880   -1.9152 H   0  0  0  0  0  0  0  0  0  0  0  0
    1.5466   -1.6342   -1.7247 H   0  0  0  0  0  0  0  0  0  0  0  0
    2.2555   -0.1425   -4.3216 H   0  0  0  0  0  0  0  0  0  0  0  0
    2.4678   -1.8766   -4.0514 H   0  0  0  0  0  0  0  0  0  0  0  0
    0.8388   -1.1761   -4.0882 H   0  0  0  0  0  0  0  0  0  0  0  0
    4.0394   -1.6455   -1.4729 N   0  0  0  0  0  0  0  0  0  0  0  0
    5.4225   -1.6487   -1.0570 C   0  0  0  0  0  0  0  0  0  0  0  0
    3.5422   -2.5313   -1.4721 H   0  0  0  0  0  0  0  0  0  0  0  0
    6.0685   -1.8155   -1.9316 H   0  0  0  0  0  0  0  0  0  0  0  0
    5.6695   -0.6798   -0.5983 H   0  0  0  0  0  0  0  0  0  0  0  0
    5.5830   -2.4530   -0.3240 H   0  0  0  0  0  0  0  0  0  0  0  0
  1  3  1  0  0  0  0
  1  7  1  0  0  0  0
  1  2  2  0  0  0  0
 23 25  1  0  0  0  0
 23 29  1  0  0  0  0
 23 24  2  0  0  0  0
 50 51  1  0  0  0  0
 51 59  1  0  0  0  0
 51 52  2  0  0  0  0
  8  9  1  0  0  0  0
  9 17  1  0  0  0  0
  9 10  2  0  0  0  0
 30 31  1  0  0  0  0
 31 39  1  0  0  0  0
 31 32  2  0  0  0  0
 40 41  1  0  0  0  0
 41 49  1  0  0  0  0
 41 42  2  0  0  0  0
 50 53  1  0  0  0  0
 30 33  1  0  0  0  0
 59 60  1  0  0  0  0
 17 18  1  0  0  0  0
  8 11  1  0  0  0  0
 11 12  1  0  0  0  0
 40 43  1  0  0  0  0
 43 44  1  0  0  0  0
 49 50  1  0  0  0  0
  7  8  1  0  0  0  0
 29 30  1  0  0  0  0
 39 40  1  0  0  0  0
 12 44  1  0  0  0  0
  3  4  1  0  0  0  0
  3  5  1  0  0  0  0
  3  6  1  0  0  0  0
 25 26  1  0  0  0  0
 25 27  1  0  0  0  0
 25 28  1  0  0  0  0
 53 56  1  0  0  0  0
 53 57  1  0  0  0  0
 53 58  1  0  0  0  0
 33 36  1  0  0  0  0
 33 37  1  0  0  0  0
 33 38  1  0  0  0  0
 60 62  1  0  0  0  0
 60 63  1  0  0  0  0
 60 64  1  0  0  0  0
 18 20  1  0  0  0  0
 18 21  1  0  0  0  0
 18 22  1  0  0  0  0
 11 15  1  0  0  0  0
 11 16  1  0  0  0  0
 43 47  1  0  0  0  0
 43 48  1  0  0  0  0
 50 55  1  0  0  0  0
  8 14  1  0  0  0  0
 30 35  1  0  0  0  0
 40 46  1  0  0  0  0
 59 61  1  0  0  0  0
 17 19  1  0  0  0  0
  7 13  1  0  0  0  0
 29 34  1  0  0  0  0
 49 54  1  0  0  0  0
 39 45  1  0  0  0  0
M  END
$$$$

  -OEChem-05262214473D

 64 63  0     1  0  0  0  0  0999 V2000
   -2.9351    5.3291    5.9194 C   0  0  0  0  0  0  0  0  0  0  0  0
   -4.1287    5.0947    5.7704 O   0  0  0  0  0  0  0  0  0  0  0  0
   -2.5083    6.6402    6.4912 C   0  0  0  0  0  0  0  0  0  0  0  0
   -2.3475    7.4053    5.7147 H   0  0  0  0  0  0  0  0  0  0  0  0
   -3.2632    7.0686    7.1701 H   0  0  0  0  0  0  0  0  0  0  0  0
   -1.5738    6.6183    7.0743 H   0  0  0  0  0  0  0  0  0  0  0  0
   -1.8882    4.4795    5.6062 N   0  0  0  0  0  0  0  0  0  0  0  0
   -2.0763    3.1655    5.0454 C   0  0  2  0  0  0  0  0  0  0  0  0
   -0.9967    2.2346    5.5937 C   0  0  0  0  0  0  0  0  0  0  0  0
   -0.0691    2.6269    6.2986 O   0  0  0  0  0  0  0  0  0  0  0  0
   -2.1389    3.1881    3.5162 C   0  0  0  0  0  0  0  0  0  0  0  0
   -0.6004    3.7644    2.7266 S   0  0  0  0  0  0  0  0  0  0  0  0
   -0.9379    4.7989    5.7806 H   0  0  0  0  0  0  0  0  0  0  0  0
   -3.0420    2.8159    5.4313 H   0  0  0  0  0  0  0  0  0  0  0  0
   -2.3527    2.1879    3.1254 H   0  0  0  0  0  0  0  0  0  0  0  0
   -2.9454    3.8514    3.1855 H   0  0  0  0  0  0  0  0  0  0  0  0
   -1.1777    0.9216    5.1828 N   0  0  0  0  0  0  0  0  0  0  0  0
   -0.2724   -0.1418    5.5511 C   0  0  0  0  0  0  0  0  0  0  0  0
   -1.9977    0.6775    4.6354 H   0  0  0  0  0  0  0  0  0  0  0  0
    0.4948   -0.2574    4.7714 H   0  0  0  0  0  0  0  0  0  0  0  0
    0.2115    0.1038    6.5079 H   0  0  0  0  0  0  0  0  0  0  0  0
   -0.8341   -1.0818    5.6550 H   0  0  0  0  0  0  0  0  0  0  0  0
   -6.7256    2.0330   -0.2766 C   0  0  0  0  0  0  0  0  0  0  0  0
   -7.1824    1.1039   -0.9322 O   0  0  0  0  0  0  0  0  0  0  0  0
   -7.5276    2.6077    0.8435 C   0  0  0  0  0  0  0  0  0  0  0  0
   -8.1775    3.4344    0.5145 H   0  0  0  0  0  0  0  0  0  0  0  0
   -8.2057    1.8676    1.2980 H   0  0  0  0  0  0  0  0  0  0  0  0
   -6.9411    3.0162    1.6819 H   0  0  0  0  0  0  0  0  0  0  0  0
   -5.4935    2.6382   -0.4627 N   0  0  0  0  0  0  0  0  0  0  0  0
   -4.5619    2.2388   -1.4845 C   0  0  2  0  0  0  0  0  0  0  0  0
   -3.1535    2.4674   -0.9521 C   0  0  0  0  0  0  0  0  0  0  0  0
   -2.8634    3.3945   -0.1987 O   0  0  0  0  0  0  0  0  0  0  0  0
   -4.7883    3.0138   -2.7732 C   0  0  0  0  0  0  0  0  0  0  0  0
   -5.2337    3.4049    0.1551 H   0  0  0  0  0  0  0  0  0  0  0  0
   -4.7192    1.1682   -1.6549 H   0  0  0  0  0  0  0  0  0  0  0  0
   -4.6352    4.0886   -2.6221 H   0  0  0  0  0  0  0  0  0  0  0  0
   -4.0976    2.6887   -3.5582 H   0  0  0  0  0  0  0  0  0  0  0  0
   -5.8111    2.8719   -3.1387 H   0  0  0  0  0  0  0  0  0  0  0  0
   -2.2466    1.5400   -1.4507 N   0  0  0  0  0  0  0  0  0  0  0  0
   -0.8424    1.5707   -1.1286 C   0  0  2  0  0  0  0  0  0  0  0  0
   -0.2161    0.2336   -1.5192 C   0  0  0  0  0  0  0  0  0  0  0  0
   -0.8802   -0.7748   -1.7504 O   0  0  0  0  0  0  0  0  0  0  0  0
   -0.5877    1.9571    0.3305 C   0  0  0  0  0  0  0  0  0  0  0  0
   -1.0972    3.6445    0.7373 S   0  0  0  0  0  0  0  0  0  0  0  0
   -2.5850    0.7815   -2.0381 H   0  0  0  0  0  0  0  0  0  0  0  0
   -0.4081    2.3417   -1.7770 H   0  0  0  0  0  0  0  0  0  0  0  0
   -1.1227    1.2816    1.0060 H   0  0  0  0  0  0  0  0  0  0  0  0
    0.4806    1.8735    0.5575 H   0  0  0  0  0  0  0  0  0  0  0  0
    1.1698    0.2936   -1.5545 N   0  0  0  0  0  0  0  0  0  0  0  0
    1.9912   -0.8505   -1.8742 C   0  0  2  0  0  0  0  0  0  0  0  0
    3.2920   -0.7291   -1.0915 C   0  0  0  0  0  0  0  0  0  0  0  0
    3.8278    0.3492   -0.8441 O   0  0  0  0  0  0  0  0  0  0  0  0
    2.2618   -0.9372   -3.3682 C   0  0  0  0  0  0  0  0  0  0  0  0
    1.6362    1.1811   -1.3915 H   0  0  0  0  0  0  0  0  0  0  0  0
    1.4431   -1.7373   -1.5376 H   0  0  0  0  0  0  0  0  0  0  0  0
    2.8102   -0.0573   -3.7239 H   0  0  0  0  0  0  0  0  0  0  0  0
    2.8606   -1.8209   -3.6123 H   0  0  0  0  0  0  0  0  0  0  0  0
    1.3241   -0.9945   -3.9315 H   0  0  0  0  0  0  0  0  0  0  0  0
    3.8067   -1.9688   -0.7391 N   0  0  0  0  0  0  0  0  0  0  0  0
    5.0547   -2.1214   -0.0284 C   0  0  0  0  0  0  0  0  0  0  0  0
    3.2757   -2.8086   -0.9500 H   0  0  0  0  0  0  0  0  0  0  0  0
    5.8747   -2.2514   -0.7500 H   0  0  0  0  0  0  0  0  0  0  0  0
    5.2415   -1.2249    0.5810 H   0  0  0  0  0  0  0  0  0  0  0  0
    4.9986   -3.0041    0.6256 H   0  0  0  0  0  0  0  0  0  0  0  0
  1  3  1  0  0  0  0
  1  7  1  0  0  0  0
  1  2  2  0  0  0  0
 23 25  1  0  0  0  0
 23 29  1  0  0  0  0
 23 24  2  0  0  0  0
 50 51  1  0  0  0  0
 51 59  1  0  0  0  0
 51 52  2  0  0  0  0
  8  9  1  0  0  0  0
  9 17  1  0  0  0  0
  9 10  2  0  0  0  0
 30 31  1  0  0  0  0
 31 39  1  0  0  0  0
 31 32  2  0  0  0  0
 40 41  1  0  0  0  0
 41 49  1  0  0  0  0
 41 42  2  0  0  0  0
 50 53  1  0  0  0  0
 30 33  1  0  0  0  0
 59 60  1  0  0  0  0
 17 18  1  0  0  0  0
  8 11  1  0  0  0  0
 11 12  1  0  0  0  0
 40 43  1  0  0  0  0
 43 44  1  0  0  0  0
 49 50  1  0  0  0  0
  7  8  1  0  0  0  0
 29 30  1  0  0  0  0
 39 40  1  0  0  0  0
 12 44  1  0  0  0  0
  3  4  1  0  0  0  0
  3  5  1  0  0  0  0
  3  6  1  0  0  0  0
 25 26  1  0  0  0  0
 25 27  1  0  0  0  0
 25 28  1  0  0  0  0
 53 56  1  0  0  0  0
 53 57  1  0  0  0  0
 53 58  1  0  0  0  0
 33 36  1  0  0  0  0
 33 37  1  0  0  0  0
 33 38  1  0  0  0  0
 60 62  1  0  0  0  0
 60 63  1  0  0  0  0
 60 64  1  0  0  0  0
 18 20  1  0  0  0  0
 18 21  1  0  0  0  0
 18 22  1  0  0  0  0
 11 15  1  0  0  0  0
 11 16  1  0  0  0  0
 43 47  1  0  0  0  0
 43 48  1  0  0  0  0
 50 55  1  0  0  0  0
  8 14  1  0  0  0  0
 30 35  1  0  0  0  0
 40 46  1  0  0  0  0
 59 61  1  0  0  0  0
 17 19  1  0  0  0  0
  7 13  1  0  0  0  0
 29 34  1  0  0  0  0
 49 54  1  0  0  0  0
 39 45  1  0  0  0  0
M  END
$$$$
