@<TRIPOS>MOLECULE
default_name
   28    27     1     0     0
SMALL
No Charge or Current Charge


@<TRIPOS>ATOM
      1 H1          26.0250    25.2360    24.6460 H          1 ACE       0.112300
      2 CH3         26.0510    26.2170    24.1740 C.3        1 ACE      -0.366200
      3 H2          25.3590    26.8860    24.6820 H          1 ACE       0.112300
      4 H3          25.7760    26.1240    23.1250 H          1 ACE       0.112300
      5 C           27.4520    26.7730    24.2770 C.2        1 ACE       0.597200
      6 O           28.3310    26.1310    24.8350 O.2        1 ACE      -0.567900
      7 N           27.6580    27.9730    23.7400 N.am       2 GLH      -0.415700
      8 H           26.8780    28.4580    23.3200 H          2 GLH       0.271900
      9 CA          28.9450    28.6720    23.7370 C.3        2 GLH       0.014500
     10 HA          29.4970    28.3910    24.6350 H          2 GLH       0.077900
     11 CB          29.7580    28.2220    22.5060 C.3        2 GLH      -0.007100
     12 HB2         29.9070    27.1430    22.5740 H          2 GLH       0.025600
     13 HB3         29.1850    28.4290    21.6010 H          2 GLH       0.025600
     14 CG          31.1310    28.9050    22.3820 C.3        2 GLH      -0.017400
     15 HG2         31.0000    29.9660    22.1690 H          2 GLH       0.043000
     16 HG3         31.6720    28.7940    23.3210 H          2 GLH       0.043000
     17 CD          31.9810    28.2970    21.2710 C.2        2 GLH       0.680100
     18 OE1         32.3060    28.8710    20.2440 O.2        2 GLH      -0.583800
     19 OE2         32.3730    27.0250    21.4710 O.3        2 GLH      -0.651100
     20 HE2         32.8780    26.7920    20.6900 H          2 GLH       0.464100
     21 C           28.7260    30.1930    23.7690 C.2        2 GLH       0.597300
     22 O           27.7900    30.6930    23.1480 O.2        2 GLH      -0.567900
     23 N           29.5930    30.9240    24.4800 N.am       3 NME      -0.415700
     24 H           30.3230    30.4410    24.9820 H          3 NME       0.271900
     25 CH3         29.5340    32.3800    24.5920 C.3        3 NME      -0.149000
     26 HH31        28.5620    32.6810    24.9870 H          3 NME       0.097600
     27 HH32        30.3190    32.7410    25.2580 H          3 NME       0.097600
     28 HH33        29.6620    32.8310    23.6060 H          3 NME       0.097600
@<TRIPOS>BOND
     1     5     6 2   
     2     5     7 am  
     3     2     3 1   
     4     2     4 1   
     5     2     5 1   
     6     1     2 1   
     7    21    22 2   
     8    21    23 am  
     9    19    20 1   
    10    17    18 2   
    11    17    19 1   
    12    14    15 1   
    13    14    16 1   
    14    14    17 1   
    15    11    12 1   
    16    11    13 1   
    17    11    14 1   
    18     9    10 1   
    19     9    11 1   
    20     9    21 1   
    21     7     8 1   
    22     7     9 1   
    23    25    26 1   
    24    25    27 1   
    25    25    28 1   
    26    23    24 1   
    27    23    25 1   
@<TRIPOS>SUBSTRUCTURE
     1 ACE         1 TEMP              0 ****  ****    0 ROOT
