default_name
  -OEChem-01062215323D

 33 32  0     1  0  0  0  0  0999 V2000
   -3.8420   -3.6918    1.5562 H   0  0  0  0  0  0  0  0  0  0  0  0
   -3.8430   -2.7008    1.1032 C   0  0  0  0  0  0  0  0  0  0  0  0
   -4.5510   -2.0608    1.6242 H   0  0  0  0  0  0  0  0  0  0  0  0
   -4.1140   -2.7798    0.0522 H   0  0  0  0  0  0  0  0  0  0  0  0
   -2.4570   -2.1098    1.2172 C   0  0  0  0  0  0  0  0  0  0  0  0
   -1.5600   -2.7438    1.7572 O   0  0  0  0  0  0  0  0  0  0  0  0
   -2.2870   -0.8898    0.7102 N   0  0  0  0  0  0  0  0  0  0  0  0
   -3.0820   -0.4218    0.2992 H   0  0  0  0  0  0  0  0  0  0  0  0
   -1.0240   -0.1468    0.7262 C   0  0  1  0  0  0  0  0  0  0  0  0
   -0.7309    0.0167    1.7642 H   0  0  0  0  0  0  0  0  0  0  0  0
    0.0595   -0.9978    0.0358 C   0  0  0  0  0  0  0  0  0  0  0  0
   -0.3138   -1.3080   -0.9423 H   0  0  0  0  0  0  0  0  0  0  0  0
    0.9515   -0.3889   -0.1176 H   0  0  0  0  0  0  0  0  0  0  0  0
    0.4375   -2.2597    0.8270 C   0  0  0  0  0  0  0  0  0  0  0  0
    0.8018   -1.9768    1.8150 H   0  0  0  0  0  0  0  0  0  0  0  0
   -0.4458   -2.8911    0.9391 H   0  0  0  0  0  0  0  0  0  0  0  0
    1.5341   -3.0506    0.1048 C   0  0  0  0  0  0  0  0  0  0  0  0
    1.1871   -3.3343   -0.8892 H   0  0  0  0  0  0  0  0  0  0  0  0
    2.4271   -2.4318    0.0116 H   0  0  0  0  0  0  0  0  0  0  0  0
    1.8729   -4.3107    0.8988 C   0  0  0  0  0  0  0  0  0  0  0  0
    2.2373   -4.0292    1.8855 H   0  0  0  0  0  0  0  0  0  0  0  0
    0.9781   -4.9212    1.0081 H   0  0  0  0  0  0  0  0  0  0  0  0
    2.9048   -5.1048    0.2222 N   0  0  0  0  0  0  0  0  0  0  0  0
    3.1132   -5.9200    0.7798 H   0  0  0  0  0  0  0  0  0  0  0  0
    2.5595   -5.3958   -0.6814 H   0  0  0  0  0  0  0  0  0  0  0  0
   -1.2063    1.2232    0.0524 C   0  0  0  0  0  0  0  0  0  0  0  0
   -2.2998    1.5425   -0.4093 O   0  0  0  0  0  0  0  0  0  0  0  0
   -0.1341    2.0213   -0.0101 N   0  0  0  0  0  0  0  0  0  0  0  0
    0.7228    1.6934    0.4045 H   0  0  0  0  0  0  0  0  0  0  0  0
   -0.1372    3.3451   -0.6307 C   0  0  0  0  0  0  0  0  0  0  0  0
   -0.9213    3.9603   -0.1839 H   0  0  0  0  0  0  0  0  0  0  0  0
    0.8281    3.8332   -0.4888 H   0  0  0  0  0  0  0  0  0  0  0  0
   -0.3399    3.2490   -1.6994 H   0  0  0  0  0  0  0  0  0  0  0  0
  5  6  2  0  0  0  0
  5  7  1  0  0  0  0
  2  3  1  0  0  0  0
  2  4  1  0  0  0  0
  2  5  1  0  0  0  0
  1  2  1  0  0  0  0
 26 27  2  0  0  0  0
 26 28  1  0  0  0  0
 23 24  1  0  0  0  0
 23 25  1  0  0  0  0
 20 21  1  0  0  0  0
 20 22  1  0  0  0  0
 20 23  1  0  0  0  0
 17 18  1  0  0  0  0
 17 19  1  0  0  0  0
 17 20  1  0  0  0  0
 14 15  1  0  0  0  0
 14 16  1  0  0  0  0
 14 17  1  0  0  0  0
 11 12  1  0  0  0  0
 11 13  1  0  0  0  0
 11 14  1  0  0  0  0
  9 10  1  0  0  0  0
  9 11  1  0  0  0  0
  9 26  1  0  0  0  0
  7  8  1  0  0  0  0
  7  9  1  0  0  0  0
 30 31  1  0  0  0  0
 30 32  1  0  0  0  0
 30 33  1  0  0  0  0
 28 29  1  0  0  0  0
 28 30  1  0  0  0  0
M  END
$$$$
default_name
  -OEChem-01062215323D

 33 32  0     1  0  0  0  0  0999 V2000
   -3.8420   -3.6918    1.5562 H   0  0  0  0  0  0  0  0  0  0  0  0
   -3.8430   -2.7008    1.1032 C   0  0  0  0  0  0  0  0  0  0  0  0
   -4.5510   -2.0608    1.6242 H   0  0  0  0  0  0  0  0  0  0  0  0
   -4.1140   -2.7798    0.0522 H   0  0  0  0  0  0  0  0  0  0  0  0
   -2.4570   -2.1098    1.2172 C   0  0  0  0  0  0  0  0  0  0  0  0
   -1.5600   -2.7438    1.7572 O   0  0  0  0  0  0  0  0  0  0  0  0
   -2.2870   -0.8898    0.7102 N   0  0  0  0  0  0  0  0  0  0  0  0
   -3.0820   -0.4218    0.2992 H   0  0  0  0  0  0  0  0  0  0  0  0
   -1.0240   -0.1468    0.7262 C   0  0  1  0  0  0  0  0  0  0  0  0
   -0.7309    0.0167    1.7642 H   0  0  0  0  0  0  0  0  0  0  0  0
    0.0595   -0.9978    0.0358 C   0  0  0  0  0  0  0  0  0  0  0  0
   -0.3138   -1.3080   -0.9423 H   0  0  0  0  0  0  0  0  0  0  0  0
    0.9515   -0.3889   -0.1176 H   0  0  0  0  0  0  0  0  0  0  0  0
    0.4375   -2.2597    0.8270 C   0  0  0  0  0  0  0  0  0  0  0  0
    0.8018   -1.9768    1.8150 H   0  0  0  0  0  0  0  0  0  0  0  0
   -0.4458   -2.8911    0.9391 H   0  0  0  0  0  0  0  0  0  0  0  0
    1.5341   -3.0506    0.1048 C   0  0  0  0  0  0  0  0  0  0  0  0
    1.1871   -3.3343   -0.8892 H   0  0  0  0  0  0  0  0  0  0  0  0
    2.4271   -2.4318    0.0116 H   0  0  0  0  0  0  0  0  0  0  0  0
    1.8729   -4.3107    0.8988 C   0  0  0  0  0  0  0  0  0  0  0  0
    2.2373   -4.0292    1.8855 H   0  0  0  0  0  0  0  0  0  0  0  0
    0.9781   -4.9212    1.0081 H   0  0  0  0  0  0  0  0  0  0  0  0
    2.9048   -5.1048    0.2222 N   0  0  0  0  0  0  0  0  0  0  0  0
    3.1132   -5.9200    0.7798 H   0  0  0  0  0  0  0  0  0  0  0  0
    2.5595   -5.3958   -0.6814 H   0  0  0  0  0  0  0  0  0  0  0  0
   -1.2063    1.2232    0.0524 C   0  0  0  0  0  0  0  0  0  0  0  0
   -2.3353    1.6602   -0.1604 O   0  0  0  0  0  0  0  0  0  0  0  0
   -0.0970    1.8891   -0.2889 N   0  0  0  0  0  0  0  0  0  0  0  0
    0.7915    1.4705   -0.0673 H   0  0  0  0  0  0  0  0  0  0  0  0
   -0.0988    3.1932   -0.9499 C   0  0  0  0  0  0  0  0  0  0  0  0
   -0.6852    3.9036   -0.3630 H   0  0  0  0  0  0  0  0  0  0  0  0
    0.9206    3.5674   -1.0543 H   0  0  0  0  0  0  0  0  0  0  0  0
   -0.5536    3.1029   -1.9386 H   0  0  0  0  0  0  0  0  0  0  0  0
  5  6  2  0  0  0  0
  5  7  1  0  0  0  0
  2  3  1  0  0  0  0
  2  4  1  0  0  0  0
  2  5  1  0  0  0  0
  1  2  1  0  0  0  0
 26 27  2  0  0  0  0
 26 28  1  0  0  0  0
 23 24  1  0  0  0  0
 23 25  1  0  0  0  0
 20 21  1  0  0  0  0
 20 22  1  0  0  0  0
 20 23  1  0  0  0  0
 17 18  1  0  0  0  0
 17 19  1  0  0  0  0
 17 20  1  0  0  0  0
 14 15  1  0  0  0  0
 14 16  1  0  0  0  0
 14 17  1  0  0  0  0
 11 12  1  0  0  0  0
 11 13  1  0  0  0  0
 11 14  1  0  0  0  0
  9 10  1  0  0  0  0
  9 11  1  0  0  0  0
  9 26  1  0  0  0  0
  7  8  1  0  0  0  0
  7  9  1  0  0  0  0
 30 31  1  0  0  0  0
 30 32  1  0  0  0  0
 30 33  1  0  0  0  0
 28 29  1  0  0  0  0
 28 30  1  0  0  0  0
M  END
$$$$
default_name
  -OEChem-01062215323D

 33 32  0     1  0  0  0  0  0999 V2000
   -3.8420   -3.6918    1.5562 H   0  0  0  0  0  0  0  0  0  0  0  0
   -3.8430   -2.7008    1.1032 C   0  0  0  0  0  0  0  0  0  0  0  0
   -4.5510   -2.0608    1.6242 H   0  0  0  0  0  0  0  0  0  0  0  0
   -4.1140   -2.7798    0.0522 H   0  0  0  0  0  0  0  0  0  0  0  0
   -2.4570   -2.1098    1.2172 C   0  0  0  0  0  0  0  0  0  0  0  0
   -1.5600   -2.7438    1.7572 O   0  0  0  0  0  0  0  0  0  0  0  0
   -2.2870   -0.8898    0.7102 N   0  0  0  0  0  0  0  0  0  0  0  0
   -3.0820   -0.4218    0.2992 H   0  0  0  0  0  0  0  0  0  0  0  0
   -1.0240   -0.1468    0.7262 C   0  0  1  0  0  0  0  0  0  0  0  0
   -0.7309    0.0167    1.7642 H   0  0  0  0  0  0  0  0  0  0  0  0
    0.0595   -0.9978    0.0358 C   0  0  0  0  0  0  0  0  0  0  0  0
   -0.3138   -1.3080   -0.9423 H   0  0  0  0  0  0  0  0  0  0  0  0
    0.9515   -0.3889   -0.1176 H   0  0  0  0  0  0  0  0  0  0  0  0
    0.4375   -2.2597    0.8270 C   0  0  0  0  0  0  0  0  0  0  0  0
    0.8018   -1.9768    1.8150 H   0  0  0  0  0  0  0  0  0  0  0  0
   -0.4458   -2.8911    0.9391 H   0  0  0  0  0  0  0  0  0  0  0  0
    1.5341   -3.0506    0.1048 C   0  0  0  0  0  0  0  0  0  0  0  0
    1.1871   -3.3343   -0.8892 H   0  0  0  0  0  0  0  0  0  0  0  0
    2.4271   -2.4318    0.0116 H   0  0  0  0  0  0  0  0  0  0  0  0
    1.8729   -4.3107    0.8988 C   0  0  0  0  0  0  0  0  0  0  0  0
    2.2373   -4.0292    1.8855 H   0  0  0  0  0  0  0  0  0  0  0  0
    0.9781   -4.9212    1.0081 H   0  0  0  0  0  0  0  0  0  0  0  0
    2.9048   -5.1048    0.2222 N   0  0  0  0  0  0  0  0  0  0  0  0
    3.1132   -5.9200    0.7798 H   0  0  0  0  0  0  0  0  0  0  0  0
    2.5595   -5.3958   -0.6814 H   0  0  0  0  0  0  0  0  0  0  0  0
   -1.2063    1.2232    0.0524 C   0  0  0  0  0  0  0  0  0  0  0  0
   -2.2988    1.7856    0.0846 O   0  0  0  0  0  0  0  0  0  0  0  0
   -0.1404    1.7487   -0.5626 N   0  0  0  0  0  0  0  0  0  0  0  0
    0.7237    1.2329   -0.5321 H   0  0  0  0  0  0  0  0  0  0  0  0
   -0.1526    3.0323   -1.2624 C   0  0  0  0  0  0  0  0  0  0  0  0
   -0.5049    3.8166   -0.5888 H   0  0  0  0  0  0  0  0  0  0  0  0
    0.8495    3.2828   -1.6136 H   0  0  0  0  0  0  0  0  0  0  0  0
   -0.8317    2.9787   -2.1158 H   0  0  0  0  0  0  0  0  0  0  0  0
  5  6  2  0  0  0  0
  5  7  1  0  0  0  0
  2  3  1  0  0  0  0
  2  4  1  0  0  0  0
  2  5  1  0  0  0  0
  1  2  1  0  0  0  0
 26 27  2  0  0  0  0
 26 28  1  0  0  0  0
 23 24  1  0  0  0  0
 23 25  1  0  0  0  0
 20 21  1  0  0  0  0
 20 22  1  0  0  0  0
 20 23  1  0  0  0  0
 17 18  1  0  0  0  0
 17 19  1  0  0  0  0
 17 20  1  0  0  0  0
 14 15  1  0  0  0  0
 14 16  1  0  0  0  0
 14 17  1  0  0  0  0
 11 12  1  0  0  0  0
 11 13  1  0  0  0  0
 11 14  1  0  0  0  0
  9 10  1  0  0  0  0
  9 11  1  0  0  0  0
  9 26  1  0  0  0  0
  7  8  1  0  0  0  0
  7  9  1  0  0  0  0
 30 31  1  0  0  0  0
 30 32  1  0  0  0  0
 30 33  1  0  0  0  0
 28 29  1  0  0  0  0
 28 30  1  0  0  0  0
M  END
$$$$
default_name
  -OEChem-01062215323D

 33 32  0     1  0  0  0  0  0999 V2000
   -3.8420   -3.6918    1.5562 H   0  0  0  0  0  0  0  0  0  0  0  0
   -3.8430   -2.7008    1.1032 C   0  0  0  0  0  0  0  0  0  0  0  0
   -4.5510   -2.0608    1.6242 H   0  0  0  0  0  0  0  0  0  0  0  0
   -4.1140   -2.7798    0.0522 H   0  0  0  0  0  0  0  0  0  0  0  0
   -2.4570   -2.1098    1.2172 C   0  0  0  0  0  0  0  0  0  0  0  0
   -1.5600   -2.7438    1.7572 O   0  0  0  0  0  0  0  0  0  0  0  0
   -2.2870   -0.8898    0.7102 N   0  0  0  0  0  0  0  0  0  0  0  0
   -3.0820   -0.4218    0.2992 H   0  0  0  0  0  0  0  0  0  0  0  0
   -1.0240   -0.1468    0.7262 C   0  0  1  0  0  0  0  0  0  0  0  0
   -0.7309    0.0167    1.7642 H   0  0  0  0  0  0  0  0  0  0  0  0
    0.0595   -0.9978    0.0358 C   0  0  0  0  0  0  0  0  0  0  0  0
   -0.3138   -1.3080   -0.9423 H   0  0  0  0  0  0  0  0  0  0  0  0
    0.9515   -0.3889   -0.1176 H   0  0  0  0  0  0  0  0  0  0  0  0
    0.4375   -2.2597    0.8270 C   0  0  0  0  0  0  0  0  0  0  0  0
    0.8018   -1.9768    1.8150 H   0  0  0  0  0  0  0  0  0  0  0  0
   -0.4458   -2.8911    0.9391 H   0  0  0  0  0  0  0  0  0  0  0  0
    1.5341   -3.0506    0.1048 C   0  0  0  0  0  0  0  0  0  0  0  0
    1.1871   -3.3343   -0.8892 H   0  0  0  0  0  0  0  0  0  0  0  0
    2.4271   -2.4318    0.0116 H   0  0  0  0  0  0  0  0  0  0  0  0
    1.8729   -4.3107    0.8988 C   0  0  0  0  0  0  0  0  0  0  0  0
    2.2373   -4.0292    1.8855 H   0  0  0  0  0  0  0  0  0  0  0  0
    0.9781   -4.9212    1.0081 H   0  0  0  0  0  0  0  0  0  0  0  0
    2.9048   -5.1048    0.2222 N   0  0  0  0  0  0  0  0  0  0  0  0
    3.1132   -5.9200    0.7798 H   0  0  0  0  0  0  0  0  0  0  0  0
    2.5595   -5.3958   -0.6814 H   0  0  0  0  0  0  0  0  0  0  0  0
   -1.2063    1.2232    0.0524 C   0  0  0  0  0  0  0  0  0  0  0  0
   -2.1929    1.9100    0.3090 O   0  0  0  0  0  0  0  0  0  0  0  0
   -0.2614    1.6095   -0.8127 N   0  0  0  0  0  0  0  0  0  0  0  0
    0.5241    0.9968   -0.9580 H   0  0  0  0  0  0  0  0  0  0  0  0
   -0.2948    2.8735   -1.5469 C   0  0  0  0  0  0  0  0  0  0  0  0
   -0.3926    3.7051   -0.8457 H   0  0  0  0  0  0  0  0  0  0  0  0
    0.6195    2.9988   -2.1288 H   0  0  0  0  0  0  0  0  0  0  0  0
   -1.1553    2.8849   -2.2191 H   0  0  0  0  0  0  0  0  0  0  0  0
  5  6  2  0  0  0  0
  5  7  1  0  0  0  0
  2  3  1  0  0  0  0
  2  4  1  0  0  0  0
  2  5  1  0  0  0  0
  1  2  1  0  0  0  0
 26 27  2  0  0  0  0
 26 28  1  0  0  0  0
 23 24  1  0  0  0  0
 23 25  1  0  0  0  0
 20 21  1  0  0  0  0
 20 22  1  0  0  0  0
 20 23  1  0  0  0  0
 17 18  1  0  0  0  0
 17 19  1  0  0  0  0
 17 20  1  0  0  0  0
 14 15  1  0  0  0  0
 14 16  1  0  0  0  0
 14 17  1  0  0  0  0
 11 12  1  0  0  0  0
 11 13  1  0  0  0  0
 11 14  1  0  0  0  0
  9 10  1  0  0  0  0
  9 11  1  0  0  0  0
  9 26  1  0  0  0  0
  7  8  1  0  0  0  0
  7  9  1  0  0  0  0
 30 31  1  0  0  0  0
 30 32  1  0  0  0  0
 30 33  1  0  0  0  0
 28 29  1  0  0  0  0
 28 30  1  0  0  0  0
M  END
$$$$
default_name
  -OEChem-01062215323D

 33 32  0     1  0  0  0  0  0999 V2000
   -3.8420   -3.6918    1.5562 H   0  0  0  0  0  0  0  0  0  0  0  0
   -3.8430   -2.7008    1.1032 C   0  0  0  0  0  0  0  0  0  0  0  0
   -4.5510   -2.0608    1.6242 H   0  0  0  0  0  0  0  0  0  0  0  0
   -4.1140   -2.7798    0.0522 H   0  0  0  0  0  0  0  0  0  0  0  0
   -2.4570   -2.1098    1.2172 C   0  0  0  0  0  0  0  0  0  0  0  0
   -1.5600   -2.7438    1.7572 O   0  0  0  0  0  0  0  0  0  0  0  0
   -2.2870   -0.8898    0.7102 N   0  0  0  0  0  0  0  0  0  0  0  0
   -3.0820   -0.4218    0.2992 H   0  0  0  0  0  0  0  0  0  0  0  0
   -1.0240   -0.1468    0.7262 C   0  0  1  0  0  0  0  0  0  0  0  0
   -0.7309    0.0167    1.7642 H   0  0  0  0  0  0  0  0  0  0  0  0
    0.0595   -0.9978    0.0358 C   0  0  0  0  0  0  0  0  0  0  0  0
   -0.3138   -1.3080   -0.9423 H   0  0  0  0  0  0  0  0  0  0  0  0
    0.9515   -0.3889   -0.1176 H   0  0  0  0  0  0  0  0  0  0  0  0
    0.4375   -2.2597    0.8270 C   0  0  0  0  0  0  0  0  0  0  0  0
    0.8018   -1.9768    1.8150 H   0  0  0  0  0  0  0  0  0  0  0  0
   -0.4458   -2.8911    0.9391 H   0  0  0  0  0  0  0  0  0  0  0  0
    1.5341   -3.0506    0.1048 C   0  0  0  0  0  0  0  0  0  0  0  0
    1.1871   -3.3343   -0.8892 H   0  0  0  0  0  0  0  0  0  0  0  0
    2.4271   -2.4318    0.0116 H   0  0  0  0  0  0  0  0  0  0  0  0
    1.8729   -4.3107    0.8988 C   0  0  0  0  0  0  0  0  0  0  0  0
    2.2373   -4.0292    1.8855 H   0  0  0  0  0  0  0  0  0  0  0  0
    0.9781   -4.9212    1.0081 H   0  0  0  0  0  0  0  0  0  0  0  0
    2.9048   -5.1048    0.2222 N   0  0  0  0  0  0  0  0  0  0  0  0
    3.1132   -5.9200    0.7798 H   0  0  0  0  0  0  0  0  0  0  0  0
    2.5595   -5.3958   -0.6814 H   0  0  0  0  0  0  0  0  0  0  0  0
   -1.2063    1.2232    0.0524 C   0  0  0  0  0  0  0  0  0  0  0  0
   -2.0246    2.0251    0.4975 O   0  0  0  0  0  0  0  0  0  0  0  0
   -0.4517    1.4812   -1.0221 N   0  0  0  0  0  0  0  0  0  0  0  0
    0.2063    0.7783   -1.3162 H   0  0  0  0  0  0  0  0  0  0  0  0
   -0.5158    2.7274   -1.7841 C   0  0  0  0  0  0  0  0  0  0  0  0
   -0.3560    3.5768   -1.1164 H   0  0  0  0  0  0  0  0  0  0  0  0
    0.2463    2.7347   -2.5647 H   0  0  0  0  0  0  0  0  0  0  0  0
   -1.5023    2.8278   -2.2413 H   0  0  0  0  0  0  0  0  0  0  0  0
  5  6  2  0  0  0  0
  5  7  1  0  0  0  0
  2  3  1  0  0  0  0
  2  4  1  0  0  0  0
  2  5  1  0  0  0  0
  1  2  1  0  0  0  0
 26 27  2  0  0  0  0
 26 28  1  0  0  0  0
 23 24  1  0  0  0  0
 23 25  1  0  0  0  0
 20 21  1  0  0  0  0
 20 22  1  0  0  0  0
 20 23  1  0  0  0  0
 17 18  1  0  0  0  0
 17 19  1  0  0  0  0
 17 20  1  0  0  0  0
 14 15  1  0  0  0  0
 14 16  1  0  0  0  0
 14 17  1  0  0  0  0
 11 12  1  0  0  0  0
 11 13  1  0  0  0  0
 11 14  1  0  0  0  0
  9 10  1  0  0  0  0
  9 11  1  0  0  0  0
  9 26  1  0  0  0  0
  7  8  1  0  0  0  0
  7  9  1  0  0  0  0
 30 31  1  0  0  0  0
 30 32  1  0  0  0  0
 30 33  1  0  0  0  0
 28 29  1  0  0  0  0
 28 30  1  0  0  0  0
M  END
$$$$
default_name
  -OEChem-01062215323D

 33 32  0     1  0  0  0  0  0999 V2000
   -3.8420   -3.6918    1.5562 H   0  0  0  0  0  0  0  0  0  0  0  0
   -3.8430   -2.7008    1.1032 C   0  0  0  0  0  0  0  0  0  0  0  0
   -4.5510   -2.0608    1.6242 H   0  0  0  0  0  0  0  0  0  0  0  0
   -4.1140   -2.7798    0.0522 H   0  0  0  0  0  0  0  0  0  0  0  0
   -2.4570   -2.1098    1.2172 C   0  0  0  0  0  0  0  0  0  0  0  0
   -1.5600   -2.7438    1.7572 O   0  0  0  0  0  0  0  0  0  0  0  0
   -2.2870   -0.8898    0.7102 N   0  0  0  0  0  0  0  0  0  0  0  0
   -3.0820   -0.4218    0.2992 H   0  0  0  0  0  0  0  0  0  0  0  0
   -1.0240   -0.1468    0.7262 C   0  0  1  0  0  0  0  0  0  0  0  0
   -0.7309    0.0167    1.7642 H   0  0  0  0  0  0  0  0  0  0  0  0
    0.0595   -0.9978    0.0358 C   0  0  0  0  0  0  0  0  0  0  0  0
   -0.3138   -1.3080   -0.9423 H   0  0  0  0  0  0  0  0  0  0  0  0
    0.9515   -0.3889   -0.1176 H   0  0  0  0  0  0  0  0  0  0  0  0
    0.4375   -2.2597    0.8270 C   0  0  0  0  0  0  0  0  0  0  0  0
    0.8018   -1.9768    1.8150 H   0  0  0  0  0  0  0  0  0  0  0  0
   -0.4458   -2.8911    0.9391 H   0  0  0  0  0  0  0  0  0  0  0  0
    1.5341   -3.0506    0.1048 C   0  0  0  0  0  0  0  0  0  0  0  0
    1.1871   -3.3343   -0.8892 H   0  0  0  0  0  0  0  0  0  0  0  0
    2.4271   -2.4318    0.0116 H   0  0  0  0  0  0  0  0  0  0  0  0
    1.8729   -4.3107    0.8988 C   0  0  0  0  0  0  0  0  0  0  0  0
    2.2373   -4.0292    1.8855 H   0  0  0  0  0  0  0  0  0  0  0  0
    0.9781   -4.9212    1.0081 H   0  0  0  0  0  0  0  0  0  0  0  0
    2.9048   -5.1048    0.2222 N   0  0  0  0  0  0  0  0  0  0  0  0
    3.1132   -5.9200    0.7798 H   0  0  0  0  0  0  0  0  0  0  0  0
    2.5595   -5.3958   -0.6814 H   0  0  0  0  0  0  0  0  0  0  0  0
   -1.2063    1.2232    0.0524 C   0  0  0  0  0  0  0  0  0  0  0  0
   -1.8056    2.1230    0.6372 O   0  0  0  0  0  0  0  0  0  0  0  0
   -0.6984    1.3724   -1.1765 N   0  0  0  0  0  0  0  0  0  0  0  0
   -0.2080    0.5923   -1.5823 H   0  0  0  0  0  0  0  0  0  0  0  0
   -0.8005    2.6041   -1.9577 C   0  0  0  0  0  0  0  0  0  0  0  0
   -0.3977    3.4405   -1.3823 H   0  0  0  0  0  0  0  0  0  0  0  0
   -0.2446    2.5086   -2.8915 H   0  0  0  0  0  0  0  0  0  0  0  0
   -1.8492    2.8113   -2.1810 H   0  0  0  0  0  0  0  0  0  0  0  0
  5  6  2  0  0  0  0
  5  7  1  0  0  0  0
  2  3  1  0  0  0  0
  2  4  1  0  0  0  0
  2  5  1  0  0  0  0
  1  2  1  0  0  0  0
 26 27  2  0  0  0  0
 26 28  1  0  0  0  0
 23 24  1  0  0  0  0
 23 25  1  0  0  0  0
 20 21  1  0  0  0  0
 20 22  1  0  0  0  0
 20 23  1  0  0  0  0
 17 18  1  0  0  0  0
 17 19  1  0  0  0  0
 17 20  1  0  0  0  0
 14 15  1  0  0  0  0
 14 16  1  0  0  0  0
 14 17  1  0  0  0  0
 11 12  1  0  0  0  0
 11 13  1  0  0  0  0
 11 14  1  0  0  0  0
  9 10  1  0  0  0  0
  9 11  1  0  0  0  0
  9 26  1  0  0  0  0
  7  8  1  0  0  0  0
  7  9  1  0  0  0  0
 30 31  1  0  0  0  0
 30 32  1  0  0  0  0
 30 33  1  0  0  0  0
 28 29  1  0  0  0  0
 28 30  1  0  0  0  0
M  END
$$$$
default_name
  -OEChem-01062215323D

 33 32  0     1  0  0  0  0  0999 V2000
   -3.8420   -3.6918    1.5562 H   0  0  0  0  0  0  0  0  0  0  0  0
   -3.8430   -2.7008    1.1032 C   0  0  0  0  0  0  0  0  0  0  0  0
   -4.5510   -2.0608    1.6242 H   0  0  0  0  0  0  0  0  0  0  0  0
   -4.1140   -2.7798    0.0522 H   0  0  0  0  0  0  0  0  0  0  0  0
   -2.4570   -2.1098    1.2172 C   0  0  0  0  0  0  0  0  0  0  0  0
   -1.5600   -2.7438    1.7572 O   0  0  0  0  0  0  0  0  0  0  0  0
   -2.2870   -0.8898    0.7102 N   0  0  0  0  0  0  0  0  0  0  0  0
   -3.0820   -0.4218    0.2992 H   0  0  0  0  0  0  0  0  0  0  0  0
   -1.0240   -0.1468    0.7262 C   0  0  1  0  0  0  0  0  0  0  0  0
   -0.7309    0.0167    1.7642 H   0  0  0  0  0  0  0  0  0  0  0  0
    0.0595   -0.9978    0.0358 C   0  0  0  0  0  0  0  0  0  0  0  0
   -0.3138   -1.3080   -0.9423 H   0  0  0  0  0  0  0  0  0  0  0  0
    0.9515   -0.3889   -0.1176 H   0  0  0  0  0  0  0  0  0  0  0  0
    0.4375   -2.2597    0.8270 C   0  0  0  0  0  0  0  0  0  0  0  0
    0.8018   -1.9768    1.8150 H   0  0  0  0  0  0  0  0  0  0  0  0
   -0.4458   -2.8911    0.9391 H   0  0  0  0  0  0  0  0  0  0  0  0
    1.5341   -3.0506    0.1048 C   0  0  0  0  0  0  0  0  0  0  0  0
    1.1871   -3.3343   -0.8892 H   0  0  0  0  0  0  0  0  0  0  0  0
    2.4271   -2.4318    0.0116 H   0  0  0  0  0  0  0  0  0  0  0  0
    1.8729   -4.3107    0.8988 C   0  0  0  0  0  0  0  0  0  0  0  0
    2.2373   -4.0292    1.8855 H   0  0  0  0  0  0  0  0  0  0  0  0
    0.9781   -4.9212    1.0081 H   0  0  0  0  0  0  0  0  0  0  0  0
    2.9048   -5.1048    0.2222 N   0  0  0  0  0  0  0  0  0  0  0  0
    3.1132   -5.9200    0.7798 H   0  0  0  0  0  0  0  0  0  0  0  0
    2.5595   -5.3958   -0.6814 H   0  0  0  0  0  0  0  0  0  0  0  0
   -1.2063    1.2232    0.0524 C   0  0  0  0  0  0  0  0  0  0  0  0
   -1.5508    2.1970    0.7187 O   0  0  0  0  0  0  0  0  0  0  0  0
   -0.9847    1.2906   -1.2655 N   0  0  0  0  0  0  0  0  0  0  0  0
   -0.6907    0.4515   -1.7379 H   0  0  0  0  0  0  0  0  0  0  0  0
   -1.1296    2.5120   -2.0560 C   0  0  0  0  0  0  0  0  0  0  0  0
   -0.5147    3.3054   -1.6254 H   0  0  0  0  0  0  0  0  0  0  0  0
   -0.8199    2.3359   -3.0871 H   0  0  0  0  0  0  0  0  0  0  0  0
   -2.1721    2.8366   -2.0423 H   0  0  0  0  0  0  0  0  0  0  0  0
  5  6  2  0  0  0  0
  5  7  1  0  0  0  0
  2  3  1  0  0  0  0
  2  4  1  0  0  0  0
  2  5  1  0  0  0  0
  1  2  1  0  0  0  0
 26 27  2  0  0  0  0
 26 28  1  0  0  0  0
 23 24  1  0  0  0  0
 23 25  1  0  0  0  0
 20 21  1  0  0  0  0
 20 22  1  0  0  0  0
 20 23  1  0  0  0  0
 17 18  1  0  0  0  0
 17 19  1  0  0  0  0
 17 20  1  0  0  0  0
 14 15  1  0  0  0  0
 14 16  1  0  0  0  0
 14 17  1  0  0  0  0
 11 12  1  0  0  0  0
 11 13  1  0  0  0  0
 11 14  1  0  0  0  0
  9 10  1  0  0  0  0
  9 11  1  0  0  0  0
  9 26  1  0  0  0  0
  7  8  1  0  0  0  0
  7  9  1  0  0  0  0
 30 31  1  0  0  0  0
 30 32  1  0  0  0  0
 30 33  1  0  0  0  0
 28 29  1  0  0  0  0
 28 30  1  0  0  0  0
M  END
$$$$
default_name
  -OEChem-01062215323D

 33 32  0     1  0  0  0  0  0999 V2000
   -3.8420   -3.6918    1.5562 H   0  0  0  0  0  0  0  0  0  0  0  0
   -3.8430   -2.7008    1.1032 C   0  0  0  0  0  0  0  0  0  0  0  0
   -4.5510   -2.0608    1.6242 H   0  0  0  0  0  0  0  0  0  0  0  0
   -4.1140   -2.7798    0.0522 H   0  0  0  0  0  0  0  0  0  0  0  0
   -2.4570   -2.1098    1.2172 C   0  0  0  0  0  0  0  0  0  0  0  0
   -1.5600   -2.7438    1.7572 O   0  0  0  0  0  0  0  0  0  0  0  0
   -2.2870   -0.8898    0.7102 N   0  0  0  0  0  0  0  0  0  0  0  0
   -3.0820   -0.4218    0.2992 H   0  0  0  0  0  0  0  0  0  0  0  0
   -1.0240   -0.1468    0.7262 C   0  0  1  0  0  0  0  0  0  0  0  0
   -0.7309    0.0167    1.7642 H   0  0  0  0  0  0  0  0  0  0  0  0
    0.0595   -0.9978    0.0358 C   0  0  0  0  0  0  0  0  0  0  0  0
   -0.3138   -1.3080   -0.9423 H   0  0  0  0  0  0  0  0  0  0  0  0
    0.9515   -0.3889   -0.1176 H   0  0  0  0  0  0  0  0  0  0  0  0
    0.4375   -2.2597    0.8270 C   0  0  0  0  0  0  0  0  0  0  0  0
    0.8018   -1.9768    1.8150 H   0  0  0  0  0  0  0  0  0  0  0  0
   -0.4458   -2.8911    0.9391 H   0  0  0  0  0  0  0  0  0  0  0  0
    1.5341   -3.0506    0.1048 C   0  0  0  0  0  0  0  0  0  0  0  0
    1.1871   -3.3343   -0.8892 H   0  0  0  0  0  0  0  0  0  0  0  0
    2.4271   -2.4318    0.0116 H   0  0  0  0  0  0  0  0  0  0  0  0
    1.8729   -4.3107    0.8988 C   0  0  0  0  0  0  0  0  0  0  0  0
    2.2373   -4.0292    1.8855 H   0  0  0  0  0  0  0  0  0  0  0  0
    0.9781   -4.9212    1.0081 H   0  0  0  0  0  0  0  0  0  0  0  0
    2.9048   -5.1048    0.2222 N   0  0  0  0  0  0  0  0  0  0  0  0
    3.1132   -5.9200    0.7798 H   0  0  0  0  0  0  0  0  0  0  0  0
    2.5595   -5.3958   -0.6814 H   0  0  0  0  0  0  0  0  0  0  0  0
   -1.2063    1.2232    0.0524 C   0  0  0  0  0  0  0  0  0  0  0  0
   -1.2774    2.2420    0.7363 O   0  0  0  0  0  0  0  0  0  0  0  0
   -1.2910    1.2413   -1.2829 N   0  0  0  0  0  0  0  0  0  0  0  0
   -1.2088    0.3655   -1.7727 H   0  0  0  0  0  0  0  0  0  0  0  0
   -1.4806    2.4573   -2.0722 C   0  0  0  0  0  0  0  0  0  0  0  0
   -0.6991    3.1806   -1.8291 H   0  0  0  0  0  0  0  0  0  0  0  0
   -1.4402    2.2283   -3.1381 H   0  0  0  0  0  0  0  0  0  0  0  0
   -2.4492    2.9019   -1.8346 H   0  0  0  0  0  0  0  0  0  0  0  0
  5  6  2  0  0  0  0
  5  7  1  0  0  0  0
  2  3  1  0  0  0  0
  2  4  1  0  0  0  0
  2  5  1  0  0  0  0
  1  2  1  0  0  0  0
 26 27  2  0  0  0  0
 26 28  1  0  0  0  0
 23 24  1  0  0  0  0
 23 25  1  0  0  0  0
 20 21  1  0  0  0  0
 20 22  1  0  0  0  0
 20 23  1  0  0  0  0
 17 18  1  0  0  0  0
 17 19  1  0  0  0  0
 17 20  1  0  0  0  0
 14 15  1  0  0  0  0
 14 16  1  0  0  0  0
 14 17  1  0  0  0  0
 11 12  1  0  0  0  0
 11 13  1  0  0  0  0
 11 14  1  0  0  0  0
  9 10  1  0  0  0  0
  9 11  1  0  0  0  0
  9 26  1  0  0  0  0
  7  8  1  0  0  0  0
  7  9  1  0  0  0  0
 30 31  1  0  0  0  0
 30 32  1  0  0  0  0
 30 33  1  0  0  0  0
 28 29  1  0  0  0  0
 28 30  1  0  0  0  0
M  END
$$$$
default_name
  -OEChem-01062215323D

 33 32  0     1  0  0  0  0  0999 V2000
   -3.8420   -3.6918    1.5562 H   0  0  0  0  0  0  0  0  0  0  0  0
   -3.8430   -2.7008    1.1032 C   0  0  0  0  0  0  0  0  0  0  0  0
   -4.5510   -2.0608    1.6242 H   0  0  0  0  0  0  0  0  0  0  0  0
   -4.1140   -2.7798    0.0522 H   0  0  0  0  0  0  0  0  0  0  0  0
   -2.4570   -2.1098    1.2172 C   0  0  0  0  0  0  0  0  0  0  0  0
   -1.5600   -2.7438    1.7572 O   0  0  0  0  0  0  0  0  0  0  0  0
   -2.2870   -0.8898    0.7102 N   0  0  0  0  0  0  0  0  0  0  0  0
   -3.0820   -0.4218    0.2992 H   0  0  0  0  0  0  0  0  0  0  0  0
   -1.0240   -0.1468    0.7262 C   0  0  1  0  0  0  0  0  0  0  0  0
   -0.7309    0.0167    1.7642 H   0  0  0  0  0  0  0  0  0  0  0  0
    0.0595   -0.9978    0.0358 C   0  0  0  0  0  0  0  0  0  0  0  0
   -0.3138   -1.3080   -0.9423 H   0  0  0  0  0  0  0  0  0  0  0  0
    0.9515   -0.3889   -0.1176 H   0  0  0  0  0  0  0  0  0  0  0  0
    0.4375   -2.2597    0.8270 C   0  0  0  0  0  0  0  0  0  0  0  0
    0.8018   -1.9768    1.8150 H   0  0  0  0  0  0  0  0  0  0  0  0
   -0.4458   -2.8911    0.9391 H   0  0  0  0  0  0  0  0  0  0  0  0
    1.5341   -3.0506    0.1048 C   0  0  0  0  0  0  0  0  0  0  0  0
    1.1871   -3.3343   -0.8892 H   0  0  0  0  0  0  0  0  0  0  0  0
    2.4271   -2.4318    0.0116 H   0  0  0  0  0  0  0  0  0  0  0  0
    1.8729   -4.3107    0.8988 C   0  0  0  0  0  0  0  0  0  0  0  0
    2.2373   -4.0292    1.8855 H   0  0  0  0  0  0  0  0  0  0  0  0
    0.9781   -4.9212    1.0081 H   0  0  0  0  0  0  0  0  0  0  0  0
    2.9048   -5.1048    0.2222 N   0  0  0  0  0  0  0  0  0  0  0  0
    3.1132   -5.9200    0.7798 H   0  0  0  0  0  0  0  0  0  0  0  0
    2.5595   -5.3958   -0.6814 H   0  0  0  0  0  0  0  0  0  0  0  0
   -1.2063    1.2232    0.0524 C   0  0  0  0  0  0  0  0  0  0  0  0
   -1.0042    2.2551    0.6890 O   0  0  0  0  0  0  0  0  0  0  0  0
   -1.5964    1.2278   -1.2276 N   0  0  0  0  0  0  0  0  0  0  0  0
   -1.7270    0.3401   -1.6841 H   0  0  0  0  0  0  0  0  0  0  0  0
   -1.8295    2.4438   -2.0052 C   0  0  0  0  0  0  0  0  0  0  0  0
   -0.9384    3.0748   -1.9794 H   0  0  0  0  0  0  0  0  0  0  0  0
   -2.0633    2.1931   -3.0409 H   0  0  0  0  0  0  0  0  0  0  0  0
   -2.6616    3.0027   -1.5720 H   0  0  0  0  0  0  0  0  0  0  0  0
  5  6  2  0  0  0  0
  5  7  1  0  0  0  0
  2  3  1  0  0  0  0
  2  4  1  0  0  0  0
  2  5  1  0  0  0  0
  1  2  1  0  0  0  0
 26 27  2  0  0  0  0
 26 28  1  0  0  0  0
 23 24  1  0  0  0  0
 23 25  1  0  0  0  0
 20 21  1  0  0  0  0
 20 22  1  0  0  0  0
 20 23  1  0  0  0  0
 17 18  1  0  0  0  0
 17 19  1  0  0  0  0
 17 20  1  0  0  0  0
 14 15  1  0  0  0  0
 14 16  1  0  0  0  0
 14 17  1  0  0  0  0
 11 12  1  0  0  0  0
 11 13  1  0  0  0  0
 11 14  1  0  0  0  0
  9 10  1  0  0  0  0
  9 11  1  0  0  0  0
  9 26  1  0  0  0  0
  7  8  1  0  0  0  0
  7  9  1  0  0  0  0
 30 31  1  0  0  0  0
 30 32  1  0  0  0  0
 30 33  1  0  0  0  0
 28 29  1  0  0  0  0
 28 30  1  0  0  0  0
M  END
$$$$
default_name
  -OEChem-01062215323D

 33 32  0     1  0  0  0  0  0999 V2000
   -3.8420   -3.6918    1.5562 H   0  0  0  0  0  0  0  0  0  0  0  0
   -3.8430   -2.7008    1.1032 C   0  0  0  0  0  0  0  0  0  0  0  0
   -4.5510   -2.0608    1.6242 H   0  0  0  0  0  0  0  0  0  0  0  0
   -4.1140   -2.7798    0.0522 H   0  0  0  0  0  0  0  0  0  0  0  0
   -2.4570   -2.1098    1.2172 C   0  0  0  0  0  0  0  0  0  0  0  0
   -1.5600   -2.7438    1.7572 O   0  0  0  0  0  0  0  0  0  0  0  0
   -2.2870   -0.8898    0.7102 N   0  0  0  0  0  0  0  0  0  0  0  0
   -3.0820   -0.4218    0.2992 H   0  0  0  0  0  0  0  0  0  0  0  0
   -1.0240   -0.1468    0.7262 C   0  0  1  0  0  0  0  0  0  0  0  0
   -0.7309    0.0167    1.7642 H   0  0  0  0  0  0  0  0  0  0  0  0
    0.0595   -0.9978    0.0358 C   0  0  0  0  0  0  0  0  0  0  0  0
   -0.3138   -1.3080   -0.9423 H   0  0  0  0  0  0  0  0  0  0  0  0
    0.9515   -0.3889   -0.1176 H   0  0  0  0  0  0  0  0  0  0  0  0
    0.4375   -2.2597    0.8270 C   0  0  0  0  0  0  0  0  0  0  0  0
    0.8018   -1.9768    1.8150 H   0  0  0  0  0  0  0  0  0  0  0  0
   -0.4458   -2.8911    0.9391 H   0  0  0  0  0  0  0  0  0  0  0  0
    1.5341   -3.0506    0.1048 C   0  0  0  0  0  0  0  0  0  0  0  0
    1.1871   -3.3343   -0.8892 H   0  0  0  0  0  0  0  0  0  0  0  0
    2.4271   -2.4318    0.0116 H   0  0  0  0  0  0  0  0  0  0  0  0
    1.8729   -4.3107    0.8988 C   0  0  0  0  0  0  0  0  0  0  0  0
    2.2373   -4.0292    1.8855 H   0  0  0  0  0  0  0  0  0  0  0  0
    0.9781   -4.9212    1.0081 H   0  0  0  0  0  0  0  0  0  0  0  0
    2.9048   -5.1048    0.2222 N   0  0  0  0  0  0  0  0  0  0  0  0
    3.1132   -5.9200    0.7798 H   0  0  0  0  0  0  0  0  0  0  0  0
    2.5595   -5.3958   -0.6814 H   0  0  0  0  0  0  0  0  0  0  0  0
   -1.2063    1.2232    0.0524 C   0  0  0  0  0  0  0  0  0  0  0  0
   -0.7497    2.2352    0.5798 O   0  0  0  0  0  0  0  0  0  0  0  0
   -1.8802    1.2512   -1.1032 N   0  0  0  0  0  0  0  0  0  0  0  0
   -2.2100    0.3771   -1.4783 H   0  0  0  0  0  0  0  0  0  0  0  0
   -2.1526    2.4724   -1.8597 C   0  0  0  0  0  0  0  0  0  0  0  0
   -1.2162    2.9952   -2.0663 H   0  0  0  0  0  0  0  0  0  0  0  0
   -2.6468    2.2329   -2.8023 H   0  0  0  0  0  0  0  0  0  0  0  0
   -2.7947    3.1323   -1.2726 H   0  0  0  0  0  0  0  0  0  0  0  0
  5  6  2  0  0  0  0
  5  7  1  0  0  0  0
  2  3  1  0  0  0  0
  2  4  1  0  0  0  0
  2  5  1  0  0  0  0
  1  2  1  0  0  0  0
 26 27  2  0  0  0  0
 26 28  1  0  0  0  0
 23 24  1  0  0  0  0
 23 25  1  0  0  0  0
 20 21  1  0  0  0  0
 20 22  1  0  0  0  0
 20 23  1  0  0  0  0
 17 18  1  0  0  0  0
 17 19  1  0  0  0  0
 17 20  1  0  0  0  0
 14 15  1  0  0  0  0
 14 16  1  0  0  0  0
 14 17  1  0  0  0  0
 11 12  1  0  0  0  0
 11 13  1  0  0  0  0
 11 14  1  0  0  0  0
  9 10  1  0  0  0  0
  9 11  1  0  0  0  0
  9 26  1  0  0  0  0
  7  8  1  0  0  0  0
  7  9  1  0  0  0  0
 30 31  1  0  0  0  0
 30 32  1  0  0  0  0
 30 33  1  0  0  0  0
 28 29  1  0  0  0  0
 28 30  1  0  0  0  0
M  END
$$$$
default_name
  -OEChem-01062215323D

 33 32  0     1  0  0  0  0  0999 V2000
   -3.8420   -3.6918    1.5562 H   0  0  0  0  0  0  0  0  0  0  0  0
   -3.8430   -2.7008    1.1032 C   0  0  0  0  0  0  0  0  0  0  0  0
   -4.5510   -2.0608    1.6242 H   0  0  0  0  0  0  0  0  0  0  0  0
   -4.1140   -2.7798    0.0522 H   0  0  0  0  0  0  0  0  0  0  0  0
   -2.4570   -2.1098    1.2172 C   0  0  0  0  0  0  0  0  0  0  0  0
   -1.5600   -2.7438    1.7572 O   0  0  0  0  0  0  0  0  0  0  0  0
   -2.2870   -0.8898    0.7102 N   0  0  0  0  0  0  0  0  0  0  0  0
   -3.0820   -0.4218    0.2992 H   0  0  0  0  0  0  0  0  0  0  0  0
   -1.0240   -0.1468    0.7262 C   0  0  1  0  0  0  0  0  0  0  0  0
   -0.7309    0.0167    1.7642 H   0  0  0  0  0  0  0  0  0  0  0  0
    0.0595   -0.9978    0.0358 C   0  0  0  0  0  0  0  0  0  0  0  0
   -0.3138   -1.3080   -0.9423 H   0  0  0  0  0  0  0  0  0  0  0  0
    0.9515   -0.3889   -0.1176 H   0  0  0  0  0  0  0  0  0  0  0  0
    0.4375   -2.2597    0.8270 C   0  0  0  0  0  0  0  0  0  0  0  0
    0.8018   -1.9768    1.8150 H   0  0  0  0  0  0  0  0  0  0  0  0
   -0.4458   -2.8911    0.9391 H   0  0  0  0  0  0  0  0  0  0  0  0
    1.5341   -3.0506    0.1048 C   0  0  0  0  0  0  0  0  0  0  0  0
    1.1871   -3.3343   -0.8892 H   0  0  0  0  0  0  0  0  0  0  0  0
    2.4271   -2.4318    0.0116 H   0  0  0  0  0  0  0  0  0  0  0  0
    1.8729   -4.3107    0.8988 C   0  0  0  0  0  0  0  0  0  0  0  0
    2.2373   -4.0292    1.8855 H   0  0  0  0  0  0  0  0  0  0  0  0
    0.9781   -4.9212    1.0081 H   0  0  0  0  0  0  0  0  0  0  0  0
    2.9048   -5.1048    0.2222 N   0  0  0  0  0  0  0  0  0  0  0  0
    3.1132   -5.9200    0.7798 H   0  0  0  0  0  0  0  0  0  0  0  0
    2.5595   -5.3958   -0.6814 H   0  0  0  0  0  0  0  0  0  0  0  0
   -1.2063    1.2232    0.0524 C   0  0  0  0  0  0  0  0  0  0  0  0
   -0.5313    2.1839    0.4163 O   0  0  0  0  0  0  0  0  0  0  0  0
   -2.1230    1.3098   -0.9184 N   0  0  0  0  0  0  0  0  0  0  0  0
   -2.6249    0.4739   -1.1693 H   0  0  0  0  0  0  0  0  0  0  0  0
   -2.4280    2.5412   -1.6454 C   0  0  0  0  0  0  0  0  0  0  0  0
   -1.5135    2.9470   -2.0836 H   0  0  0  0  0  0  0  0  0  0  0  0
   -3.1509    2.3447   -2.4385 H   0  0  0  0  0  0  0  0  0  0  0  0
   -2.8396    3.2818   -0.9566 H   0  0  0  0  0  0  0  0  0  0  0  0
  5  6  2  0  0  0  0
  5  7  1  0  0  0  0
  2  3  1  0  0  0  0
  2  4  1  0  0  0  0
  2  5  1  0  0  0  0
  1  2  1  0  0  0  0
 26 27  2  0  0  0  0
 26 28  1  0  0  0  0
 23 24  1  0  0  0  0
 23 25  1  0  0  0  0
 20 21  1  0  0  0  0
 20 22  1  0  0  0  0
 20 23  1  0  0  0  0
 17 18  1  0  0  0  0
 17 19  1  0  0  0  0
 17 20  1  0  0  0  0
 14 15  1  0  0  0  0
 14 16  1  0  0  0  0
 14 17  1  0  0  0  0
 11 12  1  0  0  0  0
 11 13  1  0  0  0  0
 11 14  1  0  0  0  0
  9 10  1  0  0  0  0
  9 11  1  0  0  0  0
  9 26  1  0  0  0  0
  7  8  1  0  0  0  0
  7  9  1  0  0  0  0
 30 31  1  0  0  0  0
 30 32  1  0  0  0  0
 30 33  1  0  0  0  0
 28 29  1  0  0  0  0
 28 30  1  0  0  0  0
M  END
$$$$
default_name
  -OEChem-01062215323D

 33 32  0     1  0  0  0  0  0999 V2000
   -3.8420   -3.6918    1.5562 H   0  0  0  0  0  0  0  0  0  0  0  0
   -3.8430   -2.7008    1.1032 C   0  0  0  0  0  0  0  0  0  0  0  0
   -4.5510   -2.0608    1.6242 H   0  0  0  0  0  0  0  0  0  0  0  0
   -4.1140   -2.7798    0.0522 H   0  0  0  0  0  0  0  0  0  0  0  0
   -2.4570   -2.1098    1.2172 C   0  0  0  0  0  0  0  0  0  0  0  0
   -1.5600   -2.7438    1.7572 O   0  0  0  0  0  0  0  0  0  0  0  0
   -2.2870   -0.8898    0.7102 N   0  0  0  0  0  0  0  0  0  0  0  0
   -3.0820   -0.4218    0.2992 H   0  0  0  0  0  0  0  0  0  0  0  0
   -1.0240   -0.1468    0.7262 C   0  0  1  0  0  0  0  0  0  0  0  0
   -0.7309    0.0167    1.7642 H   0  0  0  0  0  0  0  0  0  0  0  0
    0.0595   -0.9978    0.0358 C   0  0  0  0  0  0  0  0  0  0  0  0
   -0.3138   -1.3080   -0.9423 H   0  0  0  0  0  0  0  0  0  0  0  0
    0.9515   -0.3889   -0.1176 H   0  0  0  0  0  0  0  0  0  0  0  0
    0.4375   -2.2597    0.8270 C   0  0  0  0  0  0  0  0  0  0  0  0
    0.8018   -1.9768    1.8150 H   0  0  0  0  0  0  0  0  0  0  0  0
   -0.4458   -2.8911    0.9391 H   0  0  0  0  0  0  0  0  0  0  0  0
    1.5341   -3.0506    0.1048 C   0  0  0  0  0  0  0  0  0  0  0  0
    1.1871   -3.3343   -0.8892 H   0  0  0  0  0  0  0  0  0  0  0  0
    2.4271   -2.4318    0.0116 H   0  0  0  0  0  0  0  0  0  0  0  0
    1.8729   -4.3107    0.8988 C   0  0  0  0  0  0  0  0  0  0  0  0
    2.2373   -4.0292    1.8855 H   0  0  0  0  0  0  0  0  0  0  0  0
    0.9781   -4.9212    1.0081 H   0  0  0  0  0  0  0  0  0  0  0  0
    2.9048   -5.1048    0.2222 N   0  0  0  0  0  0  0  0  0  0  0  0
    3.1132   -5.9200    0.7798 H   0  0  0  0  0  0  0  0  0  0  0  0
    2.5595   -5.3958   -0.6814 H   0  0  0  0  0  0  0  0  0  0  0  0
   -1.2063    1.2232    0.0524 C   0  0  0  0  0  0  0  0  0  0  0  0
   -0.3639    2.1045    0.2095 O   0  0  0  0  0  0  0  0  0  0  0  0
   -2.3083    1.3996   -0.6857 N   0  0  0  0  0  0  0  0  0  0  0  0
   -2.9435    0.6239   -0.7780 H   0  0  0  0  0  0  0  0  0  0  0  0
   -2.6367    2.6454   -1.3771 C   0  0  0  0  0  0  0  0  0  0  0  0
   -1.8102    2.9338   -2.0304 H   0  0  0  0  0  0  0  0  0  0  0  0
   -3.5412    2.5211   -1.9743 H   0  0  0  0  0  0  0  0  0  0  0  0
   -2.7931    3.4409   -0.6456 H   0  0  0  0  0  0  0  0  0  0  0  0
  5  6  2  0  0  0  0
  5  7  1  0  0  0  0
  2  3  1  0  0  0  0
  2  4  1  0  0  0  0
  2  5  1  0  0  0  0
  1  2  1  0  0  0  0
 26 27  2  0  0  0  0
 26 28  1  0  0  0  0
 23 24  1  0  0  0  0
 23 25  1  0  0  0  0
 20 21  1  0  0  0  0
 20 22  1  0  0  0  0
 20 23  1  0  0  0  0
 17 18  1  0  0  0  0
 17 19  1  0  0  0  0
 17 20  1  0  0  0  0
 14 15  1  0  0  0  0
 14 16  1  0  0  0  0
 14 17  1  0  0  0  0
 11 12  1  0  0  0  0
 11 13  1  0  0  0  0
 11 14  1  0  0  0  0
  9 10  1  0  0  0  0
  9 11  1  0  0  0  0
  9 26  1  0  0  0  0
  7  8  1  0  0  0  0
  7  9  1  0  0  0  0
 30 31  1  0  0  0  0
 30 32  1  0  0  0  0
 30 33  1  0  0  0  0
 28 29  1  0  0  0  0
 28 30  1  0  0  0  0
M  END
$$$$
default_name
  -OEChem-01062215323D

 33 32  0     1  0  0  0  0  0999 V2000
   -3.8420   -3.6918    1.5562 H   0  0  0  0  0  0  0  0  0  0  0  0
   -3.8430   -2.7008    1.1032 C   0  0  0  0  0  0  0  0  0  0  0  0
   -4.5510   -2.0608    1.6242 H   0  0  0  0  0  0  0  0  0  0  0  0
   -4.1140   -2.7798    0.0522 H   0  0  0  0  0  0  0  0  0  0  0  0
   -2.4570   -2.1098    1.2172 C   0  0  0  0  0  0  0  0  0  0  0  0
   -1.5600   -2.7438    1.7572 O   0  0  0  0  0  0  0  0  0  0  0  0
   -2.2870   -0.8898    0.7102 N   0  0  0  0  0  0  0  0  0  0  0  0
   -3.0820   -0.4218    0.2992 H   0  0  0  0  0  0  0  0  0  0  0  0
   -1.0240   -0.1468    0.7262 C   0  0  1  0  0  0  0  0  0  0  0  0
   -0.7309    0.0167    1.7642 H   0  0  0  0  0  0  0  0  0  0  0  0
    0.0595   -0.9978    0.0358 C   0  0  0  0  0  0  0  0  0  0  0  0
   -0.3138   -1.3080   -0.9423 H   0  0  0  0  0  0  0  0  0  0  0  0
    0.9515   -0.3889   -0.1176 H   0  0  0  0  0  0  0  0  0  0  0  0
    0.4375   -2.2597    0.8270 C   0  0  0  0  0  0  0  0  0  0  0  0
    0.8018   -1.9768    1.8150 H   0  0  0  0  0  0  0  0  0  0  0  0
   -0.4458   -2.8911    0.9391 H   0  0  0  0  0  0  0  0  0  0  0  0
    1.5341   -3.0506    0.1048 C   0  0  0  0  0  0  0  0  0  0  0  0
    1.1871   -3.3343   -0.8892 H   0  0  0  0  0  0  0  0  0  0  0  0
    2.4271   -2.4318    0.0116 H   0  0  0  0  0  0  0  0  0  0  0  0
    1.8729   -4.3107    0.8988 C   0  0  0  0  0  0  0  0  0  0  0  0
    2.2373   -4.0292    1.8855 H   0  0  0  0  0  0  0  0  0  0  0  0
    0.9781   -4.9212    1.0081 H   0  0  0  0  0  0  0  0  0  0  0  0
    2.9048   -5.1048    0.2222 N   0  0  0  0  0  0  0  0  0  0  0  0
    3.1132   -5.9200    0.7798 H   0  0  0  0  0  0  0  0  0  0  0  0
    2.5595   -5.3958   -0.6814 H   0  0  0  0  0  0  0  0  0  0  0  0
   -1.2063    1.2232    0.0524 C   0  0  0  0  0  0  0  0  0  0  0  0
   -0.2589    2.0024   -0.0263 O   0  0  0  0  0  0  0  0  0  0  0  0
   -2.4234    1.5145   -0.4210 N   0  0  0  0  0  0  0  0  0  0  0  0
   -3.1439    0.8170   -0.3313 H   0  0  0  0  0  0  0  0  0  0  0  0
   -2.7646    2.7780   -1.0730 C   0  0  0  0  0  0  0  0  0  0  0  0
   -2.0861    2.9562   -1.9101 H   0  0  0  0  0  0  0  0  0  0  0  0
   -3.7911    2.7501   -1.4413 H   0  0  0  0  0  0  0  0  0  0  0  0
   -2.6584    3.5989   -0.3609 H   0  0  0  0  0  0  0  0  0  0  0  0
  5  6  2  0  0  0  0
  5  7  1  0  0  0  0
  2  3  1  0  0  0  0
  2  4  1  0  0  0  0
  2  5  1  0  0  0  0
  1  2  1  0  0  0  0
 26 27  2  0  0  0  0
 26 28  1  0  0  0  0
 23 24  1  0  0  0  0
 23 25  1  0  0  0  0
 20 21  1  0  0  0  0
 20 22  1  0  0  0  0
 20 23  1  0  0  0  0
 17 18  1  0  0  0  0
 17 19  1  0  0  0  0
 17 20  1  0  0  0  0
 14 15  1  0  0  0  0
 14 16  1  0  0  0  0
 14 17  1  0  0  0  0
 11 12  1  0  0  0  0
 11 13  1  0  0  0  0
 11 14  1  0  0  0  0
  9 10  1  0  0  0  0
  9 11  1  0  0  0  0
  9 26  1  0  0  0  0
  7  8  1  0  0  0  0
  7  9  1  0  0  0  0
 30 31  1  0  0  0  0
 30 32  1  0  0  0  0
 30 33  1  0  0  0  0
 28 29  1  0  0  0  0
 28 30  1  0  0  0  0
M  END
$$$$
default_name
  -OEChem-01062215323D

 33 32  0     1  0  0  0  0  0999 V2000
   -3.8420   -3.6918    1.5562 H   0  0  0  0  0  0  0  0  0  0  0  0
   -3.8430   -2.7008    1.1032 C   0  0  0  0  0  0  0  0  0  0  0  0
   -4.5510   -2.0608    1.6242 H   0  0  0  0  0  0  0  0  0  0  0  0
   -4.1140   -2.7798    0.0522 H   0  0  0  0  0  0  0  0  0  0  0  0
   -2.4570   -2.1098    1.2172 C   0  0  0  0  0  0  0  0  0  0  0  0
   -1.5600   -2.7438    1.7572 O   0  0  0  0  0  0  0  0  0  0  0  0
   -2.2870   -0.8898    0.7102 N   0  0  0  0  0  0  0  0  0  0  0  0
   -3.0820   -0.4218    0.2992 H   0  0  0  0  0  0  0  0  0  0  0  0
   -1.0240   -0.1468    0.7262 C   0  0  1  0  0  0  0  0  0  0  0  0
   -0.7309    0.0167    1.7642 H   0  0  0  0  0  0  0  0  0  0  0  0
    0.0595   -0.9978    0.0358 C   0  0  0  0  0  0  0  0  0  0  0  0
   -0.3138   -1.3080   -0.9423 H   0  0  0  0  0  0  0  0  0  0  0  0
    0.9515   -0.3889   -0.1176 H   0  0  0  0  0  0  0  0  0  0  0  0
    0.4375   -2.2597    0.8270 C   0  0  0  0  0  0  0  0  0  0  0  0
    0.8018   -1.9768    1.8150 H   0  0  0  0  0  0  0  0  0  0  0  0
   -0.4458   -2.8911    0.9391 H   0  0  0  0  0  0  0  0  0  0  0  0
    1.5341   -3.0506    0.1048 C   0  0  0  0  0  0  0  0  0  0  0  0
    1.1871   -3.3343   -0.8892 H   0  0  0  0  0  0  0  0  0  0  0  0
    2.4271   -2.4318    0.0116 H   0  0  0  0  0  0  0  0  0  0  0  0
    1.8729   -4.3107    0.8988 C   0  0  0  0  0  0  0  0  0  0  0  0
    2.2373   -4.0292    1.8855 H   0  0  0  0  0  0  0  0  0  0  0  0
    0.9781   -4.9212    1.0081 H   0  0  0  0  0  0  0  0  0  0  0  0
    2.9048   -5.1048    0.2222 N   0  0  0  0  0  0  0  0  0  0  0  0
    3.1132   -5.9200    0.7798 H   0  0  0  0  0  0  0  0  0  0  0  0
    2.5595   -5.3958   -0.6814 H   0  0  0  0  0  0  0  0  0  0  0  0
   -1.2063    1.2232    0.0524 C   0  0  0  0  0  0  0  0  0  0  0  0
   -0.2235    1.8847   -0.2752 O   0  0  0  0  0  0  0  0  0  0  0  0
   -2.4606    1.6467   -0.1423 N   0  0  0  0  0  0  0  0  0  0  0  0
   -3.2126    1.0399    0.1405 H   0  0  0  0  0  0  0  0  0  0  0  0
   -2.8030    2.9298   -0.7538 C   0  0  0  0  0  0  0  0  0  0  0  0
   -2.3222    3.0129   -1.7310 H   0  0  0  0  0  0  0  0  0  0  0  0
   -3.8837    3.0159   -0.8758 H   0  0  0  0  0  0  0  0  0  0  0  0
   -2.4447    3.7450   -0.1217 H   0  0  0  0  0  0  0  0  0  0  0  0
  5  6  2  0  0  0  0
  5  7  1  0  0  0  0
  2  3  1  0  0  0  0
  2  4  1  0  0  0  0
  2  5  1  0  0  0  0
  1  2  1  0  0  0  0
 26 27  2  0  0  0  0
 26 28  1  0  0  0  0
 23 24  1  0  0  0  0
 23 25  1  0  0  0  0
 20 21  1  0  0  0  0
 20 22  1  0  0  0  0
 20 23  1  0  0  0  0
 17 18  1  0  0  0  0
 17 19  1  0  0  0  0
 17 20  1  0  0  0  0
 14 15  1  0  0  0  0
 14 16  1  0  0  0  0
 14 17  1  0  0  0  0
 11 12  1  0  0  0  0
 11 13  1  0  0  0  0
 11 14  1  0  0  0  0
  9 10  1  0  0  0  0
  9 11  1  0  0  0  0
  9 26  1  0  0  0  0
  7  8  1  0  0  0  0
  7  9  1  0  0  0  0
 30 31  1  0  0  0  0
 30 32  1  0  0  0  0
 30 33  1  0  0  0  0
 28 29  1  0  0  0  0
 28 30  1  0  0  0  0
M  END
$$$$
default_name
  -OEChem-01062215323D

 33 32  0     1  0  0  0  0  0999 V2000
   -3.8420   -3.6918    1.5562 H   0  0  0  0  0  0  0  0  0  0  0  0
   -3.8430   -2.7008    1.1032 C   0  0  0  0  0  0  0  0  0  0  0  0
   -4.5510   -2.0608    1.6242 H   0  0  0  0  0  0  0  0  0  0  0  0
   -4.1140   -2.7798    0.0522 H   0  0  0  0  0  0  0  0  0  0  0  0
   -2.4570   -2.1098    1.2172 C   0  0  0  0  0  0  0  0  0  0  0  0
   -1.5600   -2.7438    1.7572 O   0  0  0  0  0  0  0  0  0  0  0  0
   -2.2870   -0.8898    0.7102 N   0  0  0  0  0  0  0  0  0  0  0  0
   -3.0820   -0.4218    0.2992 H   0  0  0  0  0  0  0  0  0  0  0  0
   -1.0240   -0.1468    0.7262 C   0  0  1  0  0  0  0  0  0  0  0  0
   -0.7309    0.0167    1.7642 H   0  0  0  0  0  0  0  0  0  0  0  0
    0.0595   -0.9978    0.0358 C   0  0  0  0  0  0  0  0  0  0  0  0
   -0.3138   -1.3080   -0.9423 H   0  0  0  0  0  0  0  0  0  0  0  0
    0.9515   -0.3889   -0.1176 H   0  0  0  0  0  0  0  0  0  0  0  0
    0.4375   -2.2597    0.8270 C   0  0  0  0  0  0  0  0  0  0  0  0
    0.8018   -1.9768    1.8150 H   0  0  0  0  0  0  0  0  0  0  0  0
   -0.4458   -2.8911    0.9391 H   0  0  0  0  0  0  0  0  0  0  0  0
    1.5341   -3.0506    0.1048 C   0  0  0  0  0  0  0  0  0  0  0  0
    1.1871   -3.3343   -0.8892 H   0  0  0  0  0  0  0  0  0  0  0  0
    2.4271   -2.4318    0.0116 H   0  0  0  0  0  0  0  0  0  0  0  0
    1.8729   -4.3107    0.8988 C   0  0  0  0  0  0  0  0  0  0  0  0
    2.2373   -4.0292    1.8855 H   0  0  0  0  0  0  0  0  0  0  0  0
    0.9781   -4.9212    1.0081 H   0  0  0  0  0  0  0  0  0  0  0  0
    2.9048   -5.1048    0.2222 N   0  0  0  0  0  0  0  0  0  0  0  0
    3.1132   -5.9200    0.7798 H   0  0  0  0  0  0  0  0  0  0  0  0
    2.5595   -5.3958   -0.6814 H   0  0  0  0  0  0  0  0  0  0  0  0
   -1.2063    1.2232    0.0524 C   0  0  0  0  0  0  0  0  0  0  0  0
   -0.2599    1.7594   -0.5202 O   0  0  0  0  0  0  0  0  0  0  0  0
   -2.4171    1.7871    0.1315 N   0  0  0  0  0  0  0  0  0  0  0  0
   -3.1448    1.2776    0.6053 H   0  0  0  0  0  0  0  0  0  0  0  0
   -2.7492    3.0907   -0.4413 C   0  0  0  0  0  0  0  0  0  0  0  0
   -2.5025    3.0999   -1.5053 H   0  0  0  0  0  0  0  0  0  0  0  0
   -3.8125    3.3005   -0.3165 H   0  0  0  0  0  0  0  0  0  0  0  0
   -2.1666    3.8692    0.0556 H   0  0  0  0  0  0  0  0  0  0  0  0
  5  6  2  0  0  0  0
  5  7  1  0  0  0  0
  2  3  1  0  0  0  0
  2  4  1  0  0  0  0
  2  5  1  0  0  0  0
  1  2  1  0  0  0  0
 26 27  2  0  0  0  0
 26 28  1  0  0  0  0
 23 24  1  0  0  0  0
 23 25  1  0  0  0  0
 20 21  1  0  0  0  0
 20 22  1  0  0  0  0
 20 23  1  0  0  0  0
 17 18  1  0  0  0  0
 17 19  1  0  0  0  0
 17 20  1  0  0  0  0
 14 15  1  0  0  0  0
 14 16  1  0  0  0  0
 14 17  1  0  0  0  0
 11 12  1  0  0  0  0
 11 13  1  0  0  0  0
 11 14  1  0  0  0  0
  9 10  1  0  0  0  0
  9 11  1  0  0  0  0
  9 26  1  0  0  0  0
  7  8  1  0  0  0  0
  7  9  1  0  0  0  0
 30 31  1  0  0  0  0
 30 32  1  0  0  0  0
 30 33  1  0  0  0  0
 28 29  1  0  0  0  0
 28 30  1  0  0  0  0
M  END
$$$$
default_name
  -OEChem-01062215323D

 33 32  0     1  0  0  0  0  0999 V2000
   -3.8420   -3.6918    1.5562 H   0  0  0  0  0  0  0  0  0  0  0  0
   -3.8430   -2.7008    1.1032 C   0  0  0  0  0  0  0  0  0  0  0  0
   -4.5510   -2.0608    1.6242 H   0  0  0  0  0  0  0  0  0  0  0  0
   -4.1140   -2.7798    0.0522 H   0  0  0  0  0  0  0  0  0  0  0  0
   -2.4570   -2.1098    1.2172 C   0  0  0  0  0  0  0  0  0  0  0  0
   -1.5600   -2.7438    1.7572 O   0  0  0  0  0  0  0  0  0  0  0  0
   -2.2870   -0.8898    0.7102 N   0  0  0  0  0  0  0  0  0  0  0  0
   -3.0820   -0.4218    0.2992 H   0  0  0  0  0  0  0  0  0  0  0  0
   -1.0240   -0.1468    0.7262 C   0  0  1  0  0  0  0  0  0  0  0  0
   -0.7309    0.0167    1.7642 H   0  0  0  0  0  0  0  0  0  0  0  0
    0.0595   -0.9978    0.0358 C   0  0  0  0  0  0  0  0  0  0  0  0
   -0.3138   -1.3080   -0.9423 H   0  0  0  0  0  0  0  0  0  0  0  0
    0.9515   -0.3889   -0.1176 H   0  0  0  0  0  0  0  0  0  0  0  0
    0.4375   -2.2597    0.8270 C   0  0  0  0  0  0  0  0  0  0  0  0
    0.8018   -1.9768    1.8150 H   0  0  0  0  0  0  0  0  0  0  0  0
   -0.4458   -2.8911    0.9391 H   0  0  0  0  0  0  0  0  0  0  0  0
    1.5341   -3.0506    0.1048 C   0  0  0  0  0  0  0  0  0  0  0  0
    1.1871   -3.3343   -0.8892 H   0  0  0  0  0  0  0  0  0  0  0  0
    2.4271   -2.4318    0.0116 H   0  0  0  0  0  0  0  0  0  0  0  0
    1.8729   -4.3107    0.8988 C   0  0  0  0  0  0  0  0  0  0  0  0
    2.2373   -4.0292    1.8855 H   0  0  0  0  0  0  0  0  0  0  0  0
    0.9781   -4.9212    1.0081 H   0  0  0  0  0  0  0  0  0  0  0  0
    2.9048   -5.1048    0.2222 N   0  0  0  0  0  0  0  0  0  0  0  0
    3.1132   -5.9200    0.7798 H   0  0  0  0  0  0  0  0  0  0  0  0
    2.5595   -5.3958   -0.6814 H   0  0  0  0  0  0  0  0  0  0  0  0
   -1.2063    1.2232    0.0524 C   0  0  0  0  0  0  0  0  0  0  0  0
   -0.3659    1.6349   -0.7446 O   0  0  0  0  0  0  0  0  0  0  0  0
   -2.2961    1.9262    0.3816 N   0  0  0  0  0  0  0  0  0  0  0  0
   -2.9452    1.5136    1.0313 H   0  0  0  0  0  0  0  0  0  0  0  0
   -2.6070    3.2496   -0.1568 C   0  0  0  0  0  0  0  0  0  0  0  0
   -2.6148    3.2114   -1.2483 H   0  0  0  0  0  0  0  0  0  0  0  0
   -3.5825    3.5845    0.1987 H   0  0  0  0  0  0  0  0  0  0  0  0
   -1.8430    3.9630    0.1588 H   0  0  0  0  0  0  0  0  0  0  0  0
  5  6  2  0  0  0  0
  5  7  1  0  0  0  0
  2  3  1  0  0  0  0
  2  4  1  0  0  0  0
  2  5  1  0  0  0  0
  1  2  1  0  0  0  0
 26 27  2  0  0  0  0
 26 28  1  0  0  0  0
 23 24  1  0  0  0  0
 23 25  1  0  0  0  0
 20 21  1  0  0  0  0
 20 22  1  0  0  0  0
 20 23  1  0  0  0  0
 17 18  1  0  0  0  0
 17 19  1  0  0  0  0
 17 20  1  0  0  0  0
 14 15  1  0  0  0  0
 14 16  1  0  0  0  0
 14 17  1  0  0  0  0
 11 12  1  0  0  0  0
 11 13  1  0  0  0  0
 11 14  1  0  0  0  0
  9 10  1  0  0  0  0
  9 11  1  0  0  0  0
  9 26  1  0  0  0  0
  7  8  1  0  0  0  0
  7  9  1  0  0  0  0
 30 31  1  0  0  0  0
 30 32  1  0  0  0  0
 30 33  1  0  0  0  0
 28 29  1  0  0  0  0
 28 30  1  0  0  0  0
M  END
$$$$
default_name
  -OEChem-01062215323D

 33 32  0     1  0  0  0  0  0999 V2000
   -3.8420   -3.6918    1.5562 H   0  0  0  0  0  0  0  0  0  0  0  0
   -3.8430   -2.7008    1.1032 C   0  0  0  0  0  0  0  0  0  0  0  0
   -4.5510   -2.0608    1.6242 H   0  0  0  0  0  0  0  0  0  0  0  0
   -4.1140   -2.7798    0.0522 H   0  0  0  0  0  0  0  0  0  0  0  0
   -2.4570   -2.1098    1.2172 C   0  0  0  0  0  0  0  0  0  0  0  0
   -1.5600   -2.7438    1.7572 O   0  0  0  0  0  0  0  0  0  0  0  0
   -2.2870   -0.8898    0.7102 N   0  0  0  0  0  0  0  0  0  0  0  0
   -3.0820   -0.4218    0.2992 H   0  0  0  0  0  0  0  0  0  0  0  0
   -1.0240   -0.1468    0.7262 C   0  0  1  0  0  0  0  0  0  0  0  0
   -0.7309    0.0167    1.7642 H   0  0  0  0  0  0  0  0  0  0  0  0
    0.0595   -0.9978    0.0358 C   0  0  0  0  0  0  0  0  0  0  0  0
   -0.3138   -1.3080   -0.9423 H   0  0  0  0  0  0  0  0  0  0  0  0
    0.9515   -0.3889   -0.1176 H   0  0  0  0  0  0  0  0  0  0  0  0
    0.4375   -2.2597    0.8270 C   0  0  0  0  0  0  0  0  0  0  0  0
    0.8018   -1.9768    1.8150 H   0  0  0  0  0  0  0  0  0  0  0  0
   -0.4458   -2.8911    0.9391 H   0  0  0  0  0  0  0  0  0  0  0  0
    1.5341   -3.0506    0.1048 C   0  0  0  0  0  0  0  0  0  0  0  0
    1.1871   -3.3343   -0.8892 H   0  0  0  0  0  0  0  0  0  0  0  0
    2.4271   -2.4318    0.0116 H   0  0  0  0  0  0  0  0  0  0  0  0
    1.8729   -4.3107    0.8988 C   0  0  0  0  0  0  0  0  0  0  0  0
    2.2373   -4.0292    1.8855 H   0  0  0  0  0  0  0  0  0  0  0  0
    0.9781   -4.9212    1.0081 H   0  0  0  0  0  0  0  0  0  0  0  0
    2.9048   -5.1048    0.2222 N   0  0  0  0  0  0  0  0  0  0  0  0
    3.1132   -5.9200    0.7798 H   0  0  0  0  0  0  0  0  0  0  0  0
    2.5595   -5.3958   -0.6814 H   0  0  0  0  0  0  0  0  0  0  0  0
   -1.2063    1.2232    0.0524 C   0  0  0  0  0  0  0  0  0  0  0  0
   -0.5341    1.5198   -0.9331 O   0  0  0  0  0  0  0  0  0  0  0  0
   -2.1058    2.0546    0.5910 N   0  0  0  0  0  0  0  0  0  0  0  0
   -2.6274    1.7321    1.3895 H   0  0  0  0  0  0  0  0  0  0  0  0
   -2.3860    3.3956    0.0804 C   0  0  0  0  0  0  0  0  0  0  0  0
   -2.6514    3.3397   -0.9776 H   0  0  0  0  0  0  0  0  0  0  0  0
   -3.2093    3.8485    0.6346 H   0  0  0  0  0  0  0  0  0  0  0  0
   -1.4959    4.0202    0.1811 H   0  0  0  0  0  0  0  0  0  0  0  0
  5  6  2  0  0  0  0
  5  7  1  0  0  0  0
  2  3  1  0  0  0  0
  2  4  1  0  0  0  0
  2  5  1  0  0  0  0
  1  2  1  0  0  0  0
 26 27  2  0  0  0  0
 26 28  1  0  0  0  0
 23 24  1  0  0  0  0
 23 25  1  0  0  0  0
 20 21  1  0  0  0  0
 20 22  1  0  0  0  0
 20 23  1  0  0  0  0
 17 18  1  0  0  0  0
 17 19  1  0  0  0  0
 17 20  1  0  0  0  0
 14 15  1  0  0  0  0
 14 16  1  0  0  0  0
 14 17  1  0  0  0  0
 11 12  1  0  0  0  0
 11 13  1  0  0  0  0
 11 14  1  0  0  0  0
  9 10  1  0  0  0  0
  9 11  1  0  0  0  0
  9 26  1  0  0  0  0
  7  8  1  0  0  0  0
  7  9  1  0  0  0  0
 30 31  1  0  0  0  0
 30 32  1  0  0  0  0
 30 33  1  0  0  0  0
 28 29  1  0  0  0  0
 28 30  1  0  0  0  0
M  END
$$$$
default_name
  -OEChem-01062215323D

 33 32  0     1  0  0  0  0  0999 V2000
   -3.8420   -3.6918    1.5562 H   0  0  0  0  0  0  0  0  0  0  0  0
   -3.8430   -2.7008    1.1032 C   0  0  0  0  0  0  0  0  0  0  0  0
   -4.5510   -2.0608    1.6242 H   0  0  0  0  0  0  0  0  0  0  0  0
   -4.1140   -2.7798    0.0522 H   0  0  0  0  0  0  0  0  0  0  0  0
   -2.4570   -2.1098    1.2172 C   0  0  0  0  0  0  0  0  0  0  0  0
   -1.5600   -2.7438    1.7572 O   0  0  0  0  0  0  0  0  0  0  0  0
   -2.2870   -0.8898    0.7102 N   0  0  0  0  0  0  0  0  0  0  0  0
   -3.0820   -0.4218    0.2992 H   0  0  0  0  0  0  0  0  0  0  0  0
   -1.0240   -0.1468    0.7262 C   0  0  1  0  0  0  0  0  0  0  0  0
   -0.7309    0.0167    1.7642 H   0  0  0  0  0  0  0  0  0  0  0  0
    0.0595   -0.9978    0.0358 C   0  0  0  0  0  0  0  0  0  0  0  0
   -0.3138   -1.3080   -0.9423 H   0  0  0  0  0  0  0  0  0  0  0  0
    0.9515   -0.3889   -0.1176 H   0  0  0  0  0  0  0  0  0  0  0  0
    0.4375   -2.2597    0.8270 C   0  0  0  0  0  0  0  0  0  0  0  0
    0.8018   -1.9768    1.8150 H   0  0  0  0  0  0  0  0  0  0  0  0
   -0.4458   -2.8911    0.9391 H   0  0  0  0  0  0  0  0  0  0  0  0
    1.5341   -3.0506    0.1048 C   0  0  0  0  0  0  0  0  0  0  0  0
    1.1871   -3.3343   -0.8892 H   0  0  0  0  0  0  0  0  0  0  0  0
    2.4271   -2.4318    0.0116 H   0  0  0  0  0  0  0  0  0  0  0  0
    1.8729   -4.3107    0.8988 C   0  0  0  0  0  0  0  0  0  0  0  0
    2.2373   -4.0292    1.8855 H   0  0  0  0  0  0  0  0  0  0  0  0
    0.9781   -4.9212    1.0081 H   0  0  0  0  0  0  0  0  0  0  0  0
    2.9048   -5.1048    0.2222 N   0  0  0  0  0  0  0  0  0  0  0  0
    3.1132   -5.9200    0.7798 H   0  0  0  0  0  0  0  0  0  0  0  0
    2.5595   -5.3958   -0.6814 H   0  0  0  0  0  0  0  0  0  0  0  0
   -1.2063    1.2232    0.0524 C   0  0  0  0  0  0  0  0  0  0  0  0
   -0.7531    1.4219   -1.0728 O   0  0  0  0  0  0  0  0  0  0  0  0
   -1.8591    2.1634    0.7454 N   0  0  0  0  0  0  0  0  0  0  0  0
   -2.2131    1.9181    1.6555 H   0  0  0  0  0  0  0  0  0  0  0  0
   -2.1013    3.5189    0.2540 C   0  0  0  0  0  0  0  0  0  0  0  0
   -2.6097    3.4760   -0.7117 H   0  0  0  0  0  0  0  0  0  0  0  0
   -2.7184    4.0746    0.9614 H   0  0  0  0  0  0  0  0  0  0  0  0
   -1.1491    4.0366    0.1207 H   0  0  0  0  0  0  0  0  0  0  0  0
  5  6  2  0  0  0  0
  5  7  1  0  0  0  0
  2  3  1  0  0  0  0
  2  4  1  0  0  0  0
  2  5  1  0  0  0  0
  1  2  1  0  0  0  0
 26 27  2  0  0  0  0
 26 28  1  0  0  0  0
 23 24  1  0  0  0  0
 23 25  1  0  0  0  0
 20 21  1  0  0  0  0
 20 22  1  0  0  0  0
 20 23  1  0  0  0  0
 17 18  1  0  0  0  0
 17 19  1  0  0  0  0
 17 20  1  0  0  0  0
 14 15  1  0  0  0  0
 14 16  1  0  0  0  0
 14 17  1  0  0  0  0
 11 12  1  0  0  0  0
 11 13  1  0  0  0  0
 11 14  1  0  0  0  0
  9 10  1  0  0  0  0
  9 11  1  0  0  0  0
  9 26  1  0  0  0  0
  7  8  1  0  0  0  0
  7  9  1  0  0  0  0
 30 31  1  0  0  0  0
 30 32  1  0  0  0  0
 30 33  1  0  0  0  0
 28 29  1  0  0  0  0
 28 30  1  0  0  0  0
M  END
$$$$
default_name
  -OEChem-01062215323D

 33 32  0     1  0  0  0  0  0999 V2000
   -3.8420   -3.6918    1.5562 H   0  0  0  0  0  0  0  0  0  0  0  0
   -3.8430   -2.7008    1.1032 C   0  0  0  0  0  0  0  0  0  0  0  0
   -4.5510   -2.0608    1.6242 H   0  0  0  0  0  0  0  0  0  0  0  0
   -4.1140   -2.7798    0.0522 H   0  0  0  0  0  0  0  0  0  0  0  0
   -2.4570   -2.1098    1.2172 C   0  0  0  0  0  0  0  0  0  0  0  0
   -1.5600   -2.7438    1.7572 O   0  0  0  0  0  0  0  0  0  0  0  0
   -2.2870   -0.8898    0.7102 N   0  0  0  0  0  0  0  0  0  0  0  0
   -3.0820   -0.4218    0.2992 H   0  0  0  0  0  0  0  0  0  0  0  0
   -1.0240   -0.1468    0.7262 C   0  0  1  0  0  0  0  0  0  0  0  0
   -0.7309    0.0167    1.7642 H   0  0  0  0  0  0  0  0  0  0  0  0
    0.0595   -0.9978    0.0358 C   0  0  0  0  0  0  0  0  0  0  0  0
   -0.3138   -1.3080   -0.9423 H   0  0  0  0  0  0  0  0  0  0  0  0
    0.9515   -0.3889   -0.1176 H   0  0  0  0  0  0  0  0  0  0  0  0
    0.4375   -2.2597    0.8270 C   0  0  0  0  0  0  0  0  0  0  0  0
    0.8018   -1.9768    1.8150 H   0  0  0  0  0  0  0  0  0  0  0  0
   -0.4458   -2.8911    0.9391 H   0  0  0  0  0  0  0  0  0  0  0  0
    1.5341   -3.0506    0.1048 C   0  0  0  0  0  0  0  0  0  0  0  0
    1.1871   -3.3343   -0.8892 H   0  0  0  0  0  0  0  0  0  0  0  0
    2.4271   -2.4318    0.0116 H   0  0  0  0  0  0  0  0  0  0  0  0
    1.8729   -4.3107    0.8988 C   0  0  0  0  0  0  0  0  0  0  0  0
    2.2373   -4.0292    1.8855 H   0  0  0  0  0  0  0  0  0  0  0  0
    0.9781   -4.9212    1.0081 H   0  0  0  0  0  0  0  0  0  0  0  0
    2.9048   -5.1048    0.2222 N   0  0  0  0  0  0  0  0  0  0  0  0
    3.1132   -5.9200    0.7798 H   0  0  0  0  0  0  0  0  0  0  0  0
    2.5595   -5.3958   -0.6814 H   0  0  0  0  0  0  0  0  0  0  0  0
   -1.2063    1.2232    0.0524 C   0  0  0  0  0  0  0  0  0  0  0  0
   -1.0080    1.3479   -1.1543 O   0  0  0  0  0  0  0  0  0  0  0  0
   -1.5729    2.2452    0.8344 N   0  0  0  0  0  0  0  0  0  0  0  0
   -1.7304    2.0589    1.8112 H   0  0  0  0  0  0  0  0  0  0  0  0
   -1.7722    3.6110    0.3522 C   0  0  0  0  0  0  0  0  0  0  0  0
   -2.4927    3.6112   -0.4686 H   0  0  0  0  0  0  0  0  0  0  0  0
   -2.1432    4.2474    1.1570 H   0  0  0  0  0  0  0  0  0  0  0  0
   -0.8261    4.0114   -0.0180 H   0  0  0  0  0  0  0  0  0  0  0  0
  5  6  2  0  0  0  0
  5  7  1  0  0  0  0
  2  3  1  0  0  0  0
  2  4  1  0  0  0  0
  2  5  1  0  0  0  0
  1  2  1  0  0  0  0
 26 27  2  0  0  0  0
 26 28  1  0  0  0  0
 23 24  1  0  0  0  0
 23 25  1  0  0  0  0
 20 21  1  0  0  0  0
 20 22  1  0  0  0  0
 20 23  1  0  0  0  0
 17 18  1  0  0  0  0
 17 19  1  0  0  0  0
 17 20  1  0  0  0  0
 14 15  1  0  0  0  0
 14 16  1  0  0  0  0
 14 17  1  0  0  0  0
 11 12  1  0  0  0  0
 11 13  1  0  0  0  0
 11 14  1  0  0  0  0
  9 10  1  0  0  0  0
  9 11  1  0  0  0  0
  9 26  1  0  0  0  0
  7  8  1  0  0  0  0
  7  9  1  0  0  0  0
 30 31  1  0  0  0  0
 30 32  1  0  0  0  0
 30 33  1  0  0  0  0
 28 29  1  0  0  0  0
 28 30  1  0  0  0  0
M  END
$$$$
default_name
  -OEChem-01062215323D

 33 32  0     1  0  0  0  0  0999 V2000
   -3.8420   -3.6918    1.5562 H   0  0  0  0  0  0  0  0  0  0  0  0
   -3.8430   -2.7008    1.1032 C   0  0  0  0  0  0  0  0  0  0  0  0
   -4.5510   -2.0608    1.6242 H   0  0  0  0  0  0  0  0  0  0  0  0
   -4.1140   -2.7798    0.0522 H   0  0  0  0  0  0  0  0  0  0  0  0
   -2.4570   -2.1098    1.2172 C   0  0  0  0  0  0  0  0  0  0  0  0
   -1.5600   -2.7438    1.7572 O   0  0  0  0  0  0  0  0  0  0  0  0
   -2.2870   -0.8898    0.7102 N   0  0  0  0  0  0  0  0  0  0  0  0
   -3.0820   -0.4218    0.2992 H   0  0  0  0  0  0  0  0  0  0  0  0
   -1.0240   -0.1468    0.7262 C   0  0  1  0  0  0  0  0  0  0  0  0
   -0.7309    0.0167    1.7642 H   0  0  0  0  0  0  0  0  0  0  0  0
    0.0595   -0.9978    0.0358 C   0  0  0  0  0  0  0  0  0  0  0  0
   -0.3138   -1.3080   -0.9423 H   0  0  0  0  0  0  0  0  0  0  0  0
    0.9515   -0.3889   -0.1176 H   0  0  0  0  0  0  0  0  0  0  0  0
    0.4375   -2.2597    0.8270 C   0  0  0  0  0  0  0  0  0  0  0  0
    0.8018   -1.9768    1.8150 H   0  0  0  0  0  0  0  0  0  0  0  0
   -0.4458   -2.8911    0.9391 H   0  0  0  0  0  0  0  0  0  0  0  0
    1.5341   -3.0506    0.1048 C   0  0  0  0  0  0  0  0  0  0  0  0
    1.1871   -3.3343   -0.8892 H   0  0  0  0  0  0  0  0  0  0  0  0
    2.4271   -2.4318    0.0116 H   0  0  0  0  0  0  0  0  0  0  0  0
    1.8729   -4.3107    0.8988 C   0  0  0  0  0  0  0  0  0  0  0  0
    2.2373   -4.0292    1.8855 H   0  0  0  0  0  0  0  0  0  0  0  0
    0.9781   -4.9212    1.0081 H   0  0  0  0  0  0  0  0  0  0  0  0
    2.9048   -5.1048    0.2222 N   0  0  0  0  0  0  0  0  0  0  0  0
    3.1132   -5.9200    0.7798 H   0  0  0  0  0  0  0  0  0  0  0  0
    2.5595   -5.3958   -0.6814 H   0  0  0  0  0  0  0  0  0  0  0  0
   -1.2063    1.2232    0.0524 C   0  0  0  0  0  0  0  0  0  0  0  0
   -1.2813    1.3029   -1.1719 O   0  0  0  0  0  0  0  0  0  0  0  0
   -1.2666    2.2945    0.8518 N   0  0  0  0  0  0  0  0  0  0  0  0
   -1.2123    2.1449    1.8459 H   0  0  0  0  0  0  0  0  0  0  0  0
   -1.4212    3.6657    0.3685 C   0  0  0  0  0  0  0  0  0  0  0  0
   -2.3083    3.7359   -0.2649 H   0  0  0  0  0  0  0  0  0  0  0  0
   -1.5229    4.3550    1.2080 H   0  0  0  0  0  0  0  0  0  0  0  0
   -0.5490    3.9461   -0.2257 H   0  0  0  0  0  0  0  0  0  0  0  0
  5  6  2  0  0  0  0
  5  7  1  0  0  0  0
  2  3  1  0  0  0  0
  2  4  1  0  0  0  0
  2  5  1  0  0  0  0
  1  2  1  0  0  0  0
 26 27  2  0  0  0  0
 26 28  1  0  0  0  0
 23 24  1  0  0  0  0
 23 25  1  0  0  0  0
 20 21  1  0  0  0  0
 20 22  1  0  0  0  0
 20 23  1  0  0  0  0
 17 18  1  0  0  0  0
 17 19  1  0  0  0  0
 17 20  1  0  0  0  0
 14 15  1  0  0  0  0
 14 16  1  0  0  0  0
 14 17  1  0  0  0  0
 11 12  1  0  0  0  0
 11 13  1  0  0  0  0
 11 14  1  0  0  0  0
  9 10  1  0  0  0  0
  9 11  1  0  0  0  0
  9 26  1  0  0  0  0
  7  8  1  0  0  0  0
  7  9  1  0  0  0  0
 30 31  1  0  0  0  0
 30 32  1  0  0  0  0
 30 33  1  0  0  0  0
 28 29  1  0  0  0  0
 28 30  1  0  0  0  0
M  END
$$$$
default_name
  -OEChem-01062215323D

 33 32  0     1  0  0  0  0  0999 V2000
   -3.8420   -3.6918    1.5562 H   0  0  0  0  0  0  0  0  0  0  0  0
   -3.8430   -2.7008    1.1032 C   0  0  0  0  0  0  0  0  0  0  0  0
   -4.5510   -2.0608    1.6242 H   0  0  0  0  0  0  0  0  0  0  0  0
   -4.1140   -2.7798    0.0522 H   0  0  0  0  0  0  0  0  0  0  0  0
   -2.4570   -2.1098    1.2172 C   0  0  0  0  0  0  0  0  0  0  0  0
   -1.5600   -2.7438    1.7572 O   0  0  0  0  0  0  0  0  0  0  0  0
   -2.2870   -0.8898    0.7102 N   0  0  0  0  0  0  0  0  0  0  0  0
   -3.0820   -0.4218    0.2992 H   0  0  0  0  0  0  0  0  0  0  0  0
   -1.0240   -0.1468    0.7262 C   0  0  1  0  0  0  0  0  0  0  0  0
   -0.7309    0.0167    1.7642 H   0  0  0  0  0  0  0  0  0  0  0  0
    0.0595   -0.9978    0.0358 C   0  0  0  0  0  0  0  0  0  0  0  0
   -0.3138   -1.3080   -0.9423 H   0  0  0  0  0  0  0  0  0  0  0  0
    0.9515   -0.3889   -0.1176 H   0  0  0  0  0  0  0  0  0  0  0  0
    0.4375   -2.2597    0.8270 C   0  0  0  0  0  0  0  0  0  0  0  0
    0.8018   -1.9768    1.8150 H   0  0  0  0  0  0  0  0  0  0  0  0
   -0.4458   -2.8911    0.9391 H   0  0  0  0  0  0  0  0  0  0  0  0
    1.5341   -3.0506    0.1048 C   0  0  0  0  0  0  0  0  0  0  0  0
    1.1871   -3.3343   -0.8892 H   0  0  0  0  0  0  0  0  0  0  0  0
    2.4271   -2.4318    0.0116 H   0  0  0  0  0  0  0  0  0  0  0  0
    1.8729   -4.3107    0.8988 C   0  0  0  0  0  0  0  0  0  0  0  0
    2.2373   -4.0292    1.8855 H   0  0  0  0  0  0  0  0  0  0  0  0
    0.9781   -4.9212    1.0081 H   0  0  0  0  0  0  0  0  0  0  0  0
    2.9048   -5.1048    0.2222 N   0  0  0  0  0  0  0  0  0  0  0  0
    3.1132   -5.9200    0.7798 H   0  0  0  0  0  0  0  0  0  0  0  0
    2.5595   -5.3958   -0.6814 H   0  0  0  0  0  0  0  0  0  0  0  0
   -1.2063    1.2232    0.0524 C   0  0  0  0  0  0  0  0  0  0  0  0
   -1.5546    1.2898   -1.1246 O   0  0  0  0  0  0  0  0  0  0  0  0
   -0.9611    2.3079    0.7964 N   0  0  0  0  0  0  0  0  0  0  0  0
   -0.6941    2.1703    1.7574 H   0  0  0  0  0  0  0  0  0  0  0  0
   -1.0723    3.6792    0.3015 C   0  0  0  0  0  0  0  0  0  0  0  0
   -2.0690    3.8417   -0.1146 H   0  0  0  0  0  0  0  0  0  0  0  0
   -0.8997    4.3901    1.1108 H   0  0  0  0  0  0  0  0  0  0  0  0
   -0.3367    3.8452   -0.4882 H   0  0  0  0  0  0  0  0  0  0  0  0
  5  6  2  0  0  0  0
  5  7  1  0  0  0  0
  2  3  1  0  0  0  0
  2  4  1  0  0  0  0
  2  5  1  0  0  0  0
  1  2  1  0  0  0  0
 26 27  2  0  0  0  0
 26 28  1  0  0  0  0
 23 24  1  0  0  0  0
 23 25  1  0  0  0  0
 20 21  1  0  0  0  0
 20 22  1  0  0  0  0
 20 23  1  0  0  0  0
 17 18  1  0  0  0  0
 17 19  1  0  0  0  0
 17 20  1  0  0  0  0
 14 15  1  0  0  0  0
 14 16  1  0  0  0  0
 14 17  1  0  0  0  0
 11 12  1  0  0  0  0
 11 13  1  0  0  0  0
 11 14  1  0  0  0  0
  9 10  1  0  0  0  0
  9 11  1  0  0  0  0
  9 26  1  0  0  0  0
  7  8  1  0  0  0  0
  7  9  1  0  0  0  0
 30 31  1  0  0  0  0
 30 32  1  0  0  0  0
 30 33  1  0  0  0  0
 28 29  1  0  0  0  0
 28 30  1  0  0  0  0
M  END
$$$$
default_name
  -OEChem-01062215323D

 33 32  0     1  0  0  0  0  0999 V2000
   -3.8420   -3.6918    1.5562 H   0  0  0  0  0  0  0  0  0  0  0  0
   -3.8430   -2.7008    1.1032 C   0  0  0  0  0  0  0  0  0  0  0  0
   -4.5510   -2.0608    1.6242 H   0  0  0  0  0  0  0  0  0  0  0  0
   -4.1140   -2.7798    0.0522 H   0  0  0  0  0  0  0  0  0  0  0  0
   -2.4570   -2.1098    1.2172 C   0  0  0  0  0  0  0  0  0  0  0  0
   -1.5600   -2.7438    1.7572 O   0  0  0  0  0  0  0  0  0  0  0  0
   -2.2870   -0.8898    0.7102 N   0  0  0  0  0  0  0  0  0  0  0  0
   -3.0820   -0.4218    0.2992 H   0  0  0  0  0  0  0  0  0  0  0  0
   -1.0240   -0.1468    0.7262 C   0  0  1  0  0  0  0  0  0  0  0  0
   -0.7309    0.0167    1.7642 H   0  0  0  0  0  0  0  0  0  0  0  0
    0.0595   -0.9978    0.0358 C   0  0  0  0  0  0  0  0  0  0  0  0
   -0.3138   -1.3080   -0.9423 H   0  0  0  0  0  0  0  0  0  0  0  0
    0.9515   -0.3889   -0.1176 H   0  0  0  0  0  0  0  0  0  0  0  0
    0.4375   -2.2597    0.8270 C   0  0  0  0  0  0  0  0  0  0  0  0
    0.8018   -1.9768    1.8150 H   0  0  0  0  0  0  0  0  0  0  0  0
   -0.4458   -2.8911    0.9391 H   0  0  0  0  0  0  0  0  0  0  0  0
    1.5341   -3.0506    0.1048 C   0  0  0  0  0  0  0  0  0  0  0  0
    1.1871   -3.3343   -0.8892 H   0  0  0  0  0  0  0  0  0  0  0  0
    2.4271   -2.4318    0.0116 H   0  0  0  0  0  0  0  0  0  0  0  0
    1.8729   -4.3107    0.8988 C   0  0  0  0  0  0  0  0  0  0  0  0
    2.2373   -4.0292    1.8855 H   0  0  0  0  0  0  0  0  0  0  0  0
    0.9781   -4.9212    1.0081 H   0  0  0  0  0  0  0  0  0  0  0  0
    2.9048   -5.1048    0.2222 N   0  0  0  0  0  0  0  0  0  0  0  0
    3.1132   -5.9200    0.7798 H   0  0  0  0  0  0  0  0  0  0  0  0
    2.5595   -5.3958   -0.6814 H   0  0  0  0  0  0  0  0  0  0  0  0
   -1.2063    1.2232    0.0524 C   0  0  0  0  0  0  0  0  0  0  0  0
   -1.8090    1.3097   -1.0154 O   0  0  0  0  0  0  0  0  0  0  0  0
   -0.6773    2.2846    0.6721 N   0  0  0  0  0  0  0  0  0  0  0  0
   -0.2111    2.1334    1.5516 H   0  0  0  0  0  0  0  0  0  0  0  0
   -0.7492    3.6506    0.1559 C   0  0  0  0  0  0  0  0  0  0  0  0
   -1.7912    3.9213   -0.0277 H   0  0  0  0  0  0  0  0  0  0  0  0
   -0.3163    4.3504    0.8722 H   0  0  0  0  0  0  0  0  0  0  0  0
   -0.2035    3.7156   -0.7877 H   0  0  0  0  0  0  0  0  0  0  0  0
  5  6  2  0  0  0  0
  5  7  1  0  0  0  0
  2  3  1  0  0  0  0
  2  4  1  0  0  0  0
  2  5  1  0  0  0  0
  1  2  1  0  0  0  0
 26 27  2  0  0  0  0
 26 28  1  0  0  0  0
 23 24  1  0  0  0  0
 23 25  1  0  0  0  0
 20 21  1  0  0  0  0
 20 22  1  0  0  0  0
 20 23  1  0  0  0  0
 17 18  1  0  0  0  0
 17 19  1  0  0  0  0
 17 20  1  0  0  0  0
 14 15  1  0  0  0  0
 14 16  1  0  0  0  0
 14 17  1  0  0  0  0
 11 12  1  0  0  0  0
 11 13  1  0  0  0  0
 11 14  1  0  0  0  0
  9 10  1  0  0  0  0
  9 11  1  0  0  0  0
  9 26  1  0  0  0  0
  7  8  1  0  0  0  0
  7  9  1  0  0  0  0
 30 31  1  0  0  0  0
 30 32  1  0  0  0  0
 30 33  1  0  0  0  0
 28 29  1  0  0  0  0
 28 30  1  0  0  0  0
M  END
$$$$
default_name
  -OEChem-01062215323D

 33 32  0     1  0  0  0  0  0999 V2000
   -3.8420   -3.6918    1.5562 H   0  0  0  0  0  0  0  0  0  0  0  0
   -3.8430   -2.7008    1.1032 C   0  0  0  0  0  0  0  0  0  0  0  0
   -4.5510   -2.0608    1.6242 H   0  0  0  0  0  0  0  0  0  0  0  0
   -4.1140   -2.7798    0.0522 H   0  0  0  0  0  0  0  0  0  0  0  0
   -2.4570   -2.1098    1.2172 C   0  0  0  0  0  0  0  0  0  0  0  0
   -1.5600   -2.7438    1.7572 O   0  0  0  0  0  0  0  0  0  0  0  0
   -2.2870   -0.8898    0.7102 N   0  0  0  0  0  0  0  0  0  0  0  0
   -3.0820   -0.4218    0.2992 H   0  0  0  0  0  0  0  0  0  0  0  0
   -1.0240   -0.1468    0.7262 C   0  0  1  0  0  0  0  0  0  0  0  0
   -0.7309    0.0167    1.7642 H   0  0  0  0  0  0  0  0  0  0  0  0
    0.0595   -0.9978    0.0358 C   0  0  0  0  0  0  0  0  0  0  0  0
   -0.3138   -1.3080   -0.9423 H   0  0  0  0  0  0  0  0  0  0  0  0
    0.9515   -0.3889   -0.1176 H   0  0  0  0  0  0  0  0  0  0  0  0
    0.4375   -2.2597    0.8270 C   0  0  0  0  0  0  0  0  0  0  0  0
    0.8018   -1.9768    1.8150 H   0  0  0  0  0  0  0  0  0  0  0  0
   -0.4458   -2.8911    0.9391 H   0  0  0  0  0  0  0  0  0  0  0  0
    1.5341   -3.0506    0.1048 C   0  0  0  0  0  0  0  0  0  0  0  0
    1.1871   -3.3343   -0.8892 H   0  0  0  0  0  0  0  0  0  0  0  0
    2.4271   -2.4318    0.0116 H   0  0  0  0  0  0  0  0  0  0  0  0
    1.8729   -4.3107    0.8988 C   0  0  0  0  0  0  0  0  0  0  0  0
    2.2373   -4.0292    1.8855 H   0  0  0  0  0  0  0  0  0  0  0  0
    0.9781   -4.9212    1.0081 H   0  0  0  0  0  0  0  0  0  0  0  0
    2.9048   -5.1048    0.2222 N   0  0  0  0  0  0  0  0  0  0  0  0
    3.1132   -5.9200    0.7798 H   0  0  0  0  0  0  0  0  0  0  0  0
    2.5595   -5.3958   -0.6814 H   0  0  0  0  0  0  0  0  0  0  0  0
   -1.2063    1.2232    0.0524 C   0  0  0  0  0  0  0  0  0  0  0  0
   -2.0274    1.3610   -0.8519 O   0  0  0  0  0  0  0  0  0  0  0  0
   -0.4345    2.2260    0.4873 N   0  0  0  0  0  0  0  0  0  0  0  0
    0.2038    2.0366    1.2425 H   0  0  0  0  0  0  0  0  0  0  0  0
   -0.4739    3.5819   -0.0583 C   0  0  0  0  0  0  0  0  0  0  0  0
   -1.4939    3.9695   -0.0104 H   0  0  0  0  0  0  0  0  0  0  0  0
    0.1878    4.2385    0.5084 H   0  0  0  0  0  0  0  0  0  0  0  0
   -0.1587    3.5662   -1.1037 H   0  0  0  0  0  0  0  0  0  0  0  0
  5  6  2  0  0  0  0
  5  7  1  0  0  0  0
  2  3  1  0  0  0  0
  2  4  1  0  0  0  0
  2  5  1  0  0  0  0
  1  2  1  0  0  0  0
 26 27  2  0  0  0  0
 26 28  1  0  0  0  0
 23 24  1  0  0  0  0
 23 25  1  0  0  0  0
 20 21  1  0  0  0  0
 20 22  1  0  0  0  0
 20 23  1  0  0  0  0
 17 18  1  0  0  0  0
 17 19  1  0  0  0  0
 17 20  1  0  0  0  0
 14 15  1  0  0  0  0
 14 16  1  0  0  0  0
 14 17  1  0  0  0  0
 11 12  1  0  0  0  0
 11 13  1  0  0  0  0
 11 14  1  0  0  0  0
  9 10  1  0  0  0  0
  9 11  1  0  0  0  0
  9 26  1  0  0  0  0
  7  8  1  0  0  0  0
  7  9  1  0  0  0  0
 30 31  1  0  0  0  0
 30 32  1  0  0  0  0
 30 33  1  0  0  0  0
 28 29  1  0  0  0  0
 28 30  1  0  0  0  0
M  END
$$$$
default_name
  -OEChem-01062215323D

 33 32  0     1  0  0  0  0  0999 V2000
   -3.8420   -3.6918    1.5562 H   0  0  0  0  0  0  0  0  0  0  0  0
   -3.8430   -2.7008    1.1032 C   0  0  0  0  0  0  0  0  0  0  0  0
   -4.5510   -2.0608    1.6242 H   0  0  0  0  0  0  0  0  0  0  0  0
   -4.1140   -2.7798    0.0522 H   0  0  0  0  0  0  0  0  0  0  0  0
   -2.4570   -2.1098    1.2172 C   0  0  0  0  0  0  0  0  0  0  0  0
   -1.5600   -2.7438    1.7572 O   0  0  0  0  0  0  0  0  0  0  0  0
   -2.2870   -0.8898    0.7102 N   0  0  0  0  0  0  0  0  0  0  0  0
   -3.0820   -0.4218    0.2992 H   0  0  0  0  0  0  0  0  0  0  0  0
   -1.0240   -0.1468    0.7262 C   0  0  1  0  0  0  0  0  0  0  0  0
   -0.7309    0.0167    1.7642 H   0  0  0  0  0  0  0  0  0  0  0  0
    0.0595   -0.9978    0.0358 C   0  0  0  0  0  0  0  0  0  0  0  0
   -0.3138   -1.3080   -0.9423 H   0  0  0  0  0  0  0  0  0  0  0  0
    0.9515   -0.3889   -0.1176 H   0  0  0  0  0  0  0  0  0  0  0  0
    0.4375   -2.2597    0.8270 C   0  0  0  0  0  0  0  0  0  0  0  0
    0.8018   -1.9768    1.8150 H   0  0  0  0  0  0  0  0  0  0  0  0
   -0.4458   -2.8911    0.9391 H   0  0  0  0  0  0  0  0  0  0  0  0
    1.5341   -3.0506    0.1048 C   0  0  0  0  0  0  0  0  0  0  0  0
    1.1871   -3.3343   -0.8892 H   0  0  0  0  0  0  0  0  0  0  0  0
    2.4271   -2.4318    0.0116 H   0  0  0  0  0  0  0  0  0  0  0  0
    1.8729   -4.3107    0.8988 C   0  0  0  0  0  0  0  0  0  0  0  0
    2.2373   -4.0292    1.8855 H   0  0  0  0  0  0  0  0  0  0  0  0
    0.9781   -4.9212    1.0081 H   0  0  0  0  0  0  0  0  0  0  0  0
    2.9048   -5.1048    0.2222 N   0  0  0  0  0  0  0  0  0  0  0  0
    3.1132   -5.9200    0.7798 H   0  0  0  0  0  0  0  0  0  0  0  0
    2.5595   -5.3958   -0.6814 H   0  0  0  0  0  0  0  0  0  0  0  0
   -1.2063    1.2232    0.0524 C   0  0  0  0  0  0  0  0  0  0  0  0
   -2.1948    1.4404   -0.6451 O   0  0  0  0  0  0  0  0  0  0  0  0
   -0.2492    2.1362    0.2546 N   0  0  0  0  0  0  0  0  0  0  0  0
    0.5224    1.8865    0.8513 H   0  0  0  0  0  0  0  0  0  0  0  0
   -0.2651    3.4777   -0.3266 C   0  0  0  0  0  0  0  0  0  0  0  0
   -1.1972    3.9827   -0.0637 H   0  0  0  0  0  0  0  0  0  0  0  0
    0.5781    4.0621    0.0442 H   0  0  0  0  0  0  0  0  0  0  0  0
   -0.2052    3.4070   -1.4147 H   0  0  0  0  0  0  0  0  0  0  0  0
  5  6  2  0  0  0  0
  5  7  1  0  0  0  0
  2  3  1  0  0  0  0
  2  4  1  0  0  0  0
  2  5  1  0  0  0  0
  1  2  1  0  0  0  0
 26 27  2  0  0  0  0
 26 28  1  0  0  0  0
 23 24  1  0  0  0  0
 23 25  1  0  0  0  0
 20 21  1  0  0  0  0
 20 22  1  0  0  0  0
 20 23  1  0  0  0  0
 17 18  1  0  0  0  0
 17 19  1  0  0  0  0
 17 20  1  0  0  0  0
 14 15  1  0  0  0  0
 14 16  1  0  0  0  0
 14 17  1  0  0  0  0
 11 12  1  0  0  0  0
 11 13  1  0  0  0  0
 11 14  1  0  0  0  0
  9 10  1  0  0  0  0
  9 11  1  0  0  0  0
  9 26  1  0  0  0  0
  7  8  1  0  0  0  0
  7  9  1  0  0  0  0
 30 31  1  0  0  0  0
 30 32  1  0  0  0  0
 30 33  1  0  0  0  0
 28 29  1  0  0  0  0
 28 30  1  0  0  0  0
M  END
$$$$
default_name
  -OEChem-01062215323D

 33 32  0     1  0  0  0  0  0999 V2000
   -3.8420   -3.6918    1.5562 H   0  0  0  0  0  0  0  0  0  0  0  0
   -3.8430   -2.7008    1.1032 C   0  0  0  0  0  0  0  0  0  0  0  0
   -4.5510   -2.0608    1.6242 H   0  0  0  0  0  0  0  0  0  0  0  0
   -4.1140   -2.7798    0.0522 H   0  0  0  0  0  0  0  0  0  0  0  0
   -2.4570   -2.1098    1.2172 C   0  0  0  0  0  0  0  0  0  0  0  0
   -1.5600   -2.7438    1.7572 O   0  0  0  0  0  0  0  0  0  0  0  0
   -2.2870   -0.8898    0.7102 N   0  0  0  0  0  0  0  0  0  0  0  0
   -3.0820   -0.4218    0.2992 H   0  0  0  0  0  0  0  0  0  0  0  0
   -1.0240   -0.1468    0.7262 C   0  0  1  0  0  0  0  0  0  0  0  0
   -0.5949   -0.2136    1.7269 H   0  0  0  0  0  0  0  0  0  0  0  0
   -0.0511   -0.8032   -0.2725 C   0  0  0  0  0  0  0  0  0  0  0  0
   -0.5535   -0.8941   -1.2377 H   0  0  0  0  0  0  0  0  0  0  0  0
    0.8203   -0.1597   -0.4015 H   0  0  0  0  0  0  0  0  0  0  0  0
    0.4124   -2.2028    0.1606 C   0  0  0  0  0  0  0  0  0  0  0  0
    0.9069   -2.1408    1.1303 H   0  0  0  0  0  0  0  0  0  0  0  0
   -0.4560   -2.8589    0.2434 H   0  0  0  0  0  0  0  0  0  0  0  0
    1.3949   -2.7932   -0.8572 C   0  0  0  0  0  0  0  0  0  0  0  0
    0.9168   -2.8544   -1.8353 H   0  0  0  0  0  0  0  0  0  0  0  0
    2.2753   -2.1536   -0.9259 H   0  0  0  0  0  0  0  0  0  0  0  0
    1.8200   -4.1924   -0.4159 C   0  0  0  0  0  0  0  0  0  0  0  0
    2.3143   -4.1315    0.5523 H   0  0  0  0  0  0  0  0  0  0  0  0
    0.9401   -4.8277   -0.3295 H   0  0  0  0  0  0  0  0  0  0  0  0
    2.7442   -4.7974   -1.3819 N   0  0  0  0  0  0  0  0  0  0  0  0
    3.0144   -5.7126   -1.0525 H   0  0  0  0  0  0  0  0  0  0  0  0
    2.2796   -4.8857   -2.2744 H   0  0  0  0  0  0  0  0  0  0  0  0
   -1.2768    1.3354    0.4050 C   0  0  0  0  0  0  0  0  0  0  0  0
   -2.4176    1.7302    0.1735 O   0  0  0  0  0  0  0  0  0  0  0  0
   -0.2126    2.1462    0.3825 N   0  0  0  0  0  0  0  0  0  0  0  0
    0.6874    1.7495    0.5976 H   0  0  0  0  0  0  0  0  0  0  0  0
   -0.2814    3.5748    0.0790 C   0  0  0  0  0  0  0  0  0  0  0  0
   -0.9924    4.0610    0.7505 H   0  0  0  0  0  0  0  0  0  0  0  0
    0.7000    4.0361    0.1987 H   0  0  0  0  0  0  0  0  0  0  0  0
   -0.6240    3.7158   -0.9482 H   0  0  0  0  0  0  0  0  0  0  0  0
  5  6  2  0  0  0  0
  5  7  1  0  0  0  0
  2  3  1  0  0  0  0
  2  4  1  0  0  0  0
  2  5  1  0  0  0  0
  1  2  1  0  0  0  0
 26 27  2  0  0  0  0
 26 28  1  0  0  0  0
 23 24  1  0  0  0  0
 23 25  1  0  0  0  0
 20 21  1  0  0  0  0
 20 22  1  0  0  0  0
 20 23  1  0  0  0  0
 17 18  1  0  0  0  0
 17 19  1  0  0  0  0
 17 20  1  0  0  0  0
 14 15  1  0  0  0  0
 14 16  1  0  0  0  0
 14 17  1  0  0  0  0
 11 12  1  0  0  0  0
 11 13  1  0  0  0  0
 11 14  1  0  0  0  0
  9 10  1  0  0  0  0
  9 11  1  0  0  0  0
  9 26  1  0  0  0  0
  7  8  1  0  0  0  0
  7  9  1  0  0  0  0
 30 31  1  0  0  0  0
 30 32  1  0  0  0  0
 30 33  1  0  0  0  0
 28 29  1  0  0  0  0
 28 30  1  0  0  0  0
M  END
$$$$
default_name
  -OEChem-01062215323D

 33 32  0     1  0  0  0  0  0999 V2000
   -3.8420   -3.6918    1.5562 H   0  0  0  0  0  0  0  0  0  0  0  0
   -3.8430   -2.7008    1.1032 C   0  0  0  0  0  0  0  0  0  0  0  0
   -4.5510   -2.0608    1.6242 H   0  0  0  0  0  0  0  0  0  0  0  0
   -4.1140   -2.7798    0.0522 H   0  0  0  0  0  0  0  0  0  0  0  0
   -2.4570   -2.1098    1.2172 C   0  0  0  0  0  0  0  0  0  0  0  0
   -1.5600   -2.7438    1.7572 O   0  0  0  0  0  0  0  0  0  0  0  0
   -2.2870   -0.8898    0.7102 N   0  0  0  0  0  0  0  0  0  0  0  0
   -3.0820   -0.4218    0.2992 H   0  0  0  0  0  0  0  0  0  0  0  0
   -1.0240   -0.1468    0.7262 C   0  0  1  0  0  0  0  0  0  0  0  0
   -0.5949   -0.2136    1.7269 H   0  0  0  0  0  0  0  0  0  0  0  0
   -0.0511   -0.8032   -0.2725 C   0  0  0  0  0  0  0  0  0  0  0  0
   -0.5535   -0.8941   -1.2377 H   0  0  0  0  0  0  0  0  0  0  0  0
    0.8203   -0.1597   -0.4015 H   0  0  0  0  0  0  0  0  0  0  0  0
    0.4124   -2.2028    0.1606 C   0  0  0  0  0  0  0  0  0  0  0  0
    0.9069   -2.1408    1.1303 H   0  0  0  0  0  0  0  0  0  0  0  0
   -0.4560   -2.8589    0.2434 H   0  0  0  0  0  0  0  0  0  0  0  0
    1.3949   -2.7932   -0.8572 C   0  0  0  0  0  0  0  0  0  0  0  0
    0.9168   -2.8544   -1.8353 H   0  0  0  0  0  0  0  0  0  0  0  0
    2.2753   -2.1536   -0.9259 H   0  0  0  0  0  0  0  0  0  0  0  0
    1.8200   -4.1924   -0.4159 C   0  0  0  0  0  0  0  0  0  0  0  0
    2.3143   -4.1315    0.5523 H   0  0  0  0  0  0  0  0  0  0  0  0
    0.9401   -4.8277   -0.3295 H   0  0  0  0  0  0  0  0  0  0  0  0
    2.7442   -4.7974   -1.3819 N   0  0  0  0  0  0  0  0  0  0  0  0
    3.0144   -5.7126   -1.0525 H   0  0  0  0  0  0  0  0  0  0  0  0
    2.2796   -4.8857   -2.2744 H   0  0  0  0  0  0  0  0  0  0  0  0
   -1.2768    1.3354    0.4050 C   0  0  0  0  0  0  0  0  0  0  0  0
   -2.4186    1.7888    0.4449 O   0  0  0  0  0  0  0  0  0  0  0  0
   -0.2141    2.0802    0.0789 N   0  0  0  0  0  0  0  0  0  0  0  0
    0.6907    1.6386    0.0831 H   0  0  0  0  0  0  0  0  0  0  0  0
   -0.2871    3.4986   -0.2683 C   0  0  0  0  0  0  0  0  0  0  0  0
   -0.7826    4.0498    0.5340 H   0  0  0  0  0  0  0  0  0  0  0  0
    0.7142    3.9046   -0.4190 H   0  0  0  0  0  0  0  0  0  0  0  0
   -0.8690    3.6229   -1.1839 H   0  0  0  0  0  0  0  0  0  0  0  0
  5  6  2  0  0  0  0
  5  7  1  0  0  0  0
  2  3  1  0  0  0  0
  2  4  1  0  0  0  0
  2  5  1  0  0  0  0
  1  2  1  0  0  0  0
 26 27  2  0  0  0  0
 26 28  1  0  0  0  0
 23 24  1  0  0  0  0
 23 25  1  0  0  0  0
 20 21  1  0  0  0  0
 20 22  1  0  0  0  0
 20 23  1  0  0  0  0
 17 18  1  0  0  0  0
 17 19  1  0  0  0  0
 17 20  1  0  0  0  0
 14 15  1  0  0  0  0
 14 16  1  0  0  0  0
 14 17  1  0  0  0  0
 11 12  1  0  0  0  0
 11 13  1  0  0  0  0
 11 14  1  0  0  0  0
  9 10  1  0  0  0  0
  9 11  1  0  0  0  0
  9 26  1  0  0  0  0
  7  8  1  0  0  0  0
  7  9  1  0  0  0  0
 30 31  1  0  0  0  0
 30 32  1  0  0  0  0
 30 33  1  0  0  0  0
 28 29  1  0  0  0  0
 28 30  1  0  0  0  0
M  END
$$$$
default_name
  -OEChem-01062215323D

 33 32  0     1  0  0  0  0  0999 V2000
   -3.8420   -3.6918    1.5562 H   0  0  0  0  0  0  0  0  0  0  0  0
   -3.8430   -2.7008    1.1032 C   0  0  0  0  0  0  0  0  0  0  0  0
   -4.5510   -2.0608    1.6242 H   0  0  0  0  0  0  0  0  0  0  0  0
   -4.1140   -2.7798    0.0522 H   0  0  0  0  0  0  0  0  0  0  0  0
   -2.4570   -2.1098    1.2172 C   0  0  0  0  0  0  0  0  0  0  0  0
   -1.5600   -2.7438    1.7572 O   0  0  0  0  0  0  0  0  0  0  0  0
   -2.2870   -0.8898    0.7102 N   0  0  0  0  0  0  0  0  0  0  0  0
   -3.0820   -0.4218    0.2992 H   0  0  0  0  0  0  0  0  0  0  0  0
   -1.0240   -0.1468    0.7262 C   0  0  1  0  0  0  0  0  0  0  0  0
   -0.5949   -0.2136    1.7269 H   0  0  0  0  0  0  0  0  0  0  0  0
   -0.0511   -0.8032   -0.2725 C   0  0  0  0  0  0  0  0  0  0  0  0
   -0.5535   -0.8941   -1.2377 H   0  0  0  0  0  0  0  0  0  0  0  0
    0.8203   -0.1597   -0.4015 H   0  0  0  0  0  0  0  0  0  0  0  0
    0.4124   -2.2028    0.1606 C   0  0  0  0  0  0  0  0  0  0  0  0
    0.9069   -2.1408    1.1303 H   0  0  0  0  0  0  0  0  0  0  0  0
   -0.4560   -2.8589    0.2434 H   0  0  0  0  0  0  0  0  0  0  0  0
    1.3949   -2.7932   -0.8572 C   0  0  0  0  0  0  0  0  0  0  0  0
    0.9168   -2.8544   -1.8353 H   0  0  0  0  0  0  0  0  0  0  0  0
    2.2753   -2.1536   -0.9259 H   0  0  0  0  0  0  0  0  0  0  0  0
    1.8200   -4.1924   -0.4159 C   0  0  0  0  0  0  0  0  0  0  0  0
    2.3143   -4.1315    0.5523 H   0  0  0  0  0  0  0  0  0  0  0  0
    0.9401   -4.8277   -0.3295 H   0  0  0  0  0  0  0  0  0  0  0  0
    2.7442   -4.7974   -1.3819 N   0  0  0  0  0  0  0  0  0  0  0  0
    3.0144   -5.7126   -1.0525 H   0  0  0  0  0  0  0  0  0  0  0  0
    2.2796   -4.8857   -2.2744 H   0  0  0  0  0  0  0  0  0  0  0  0
   -1.2768    1.3354    0.4050 C   0  0  0  0  0  0  0  0  0  0  0  0
   -2.3487    1.8571    0.7047 O   0  0  0  0  0  0  0  0  0  0  0  0
   -0.2948    2.0036   -0.2112 N   0  0  0  0  0  0  0  0  0  0  0  0
    0.5595    1.5094   -0.4100 H   0  0  0  0  0  0  0  0  0  0  0  0
   -0.3834    3.4105   -0.5990 C   0  0  0  0  0  0  0  0  0  0  0  0
   -0.6346    4.0185    0.2729 H   0  0  0  0  0  0  0  0  0  0  0  0
    0.5666    3.7506   -1.0135 H   0  0  0  0  0  0  0  0  0  0  0  0
   -1.1695    3.5365   -1.3464 H   0  0  0  0  0  0  0  0  0  0  0  0
  5  6  2  0  0  0  0
  5  7  1  0  0  0  0
  2  3  1  0  0  0  0
  2  4  1  0  0  0  0
  2  5  1  0  0  0  0
  1  2  1  0  0  0  0
 26 27  2  0  0  0  0
 26 28  1  0  0  0  0
 23 24  1  0  0  0  0
 23 25  1  0  0  0  0
 20 21  1  0  0  0  0
 20 22  1  0  0  0  0
 20 23  1  0  0  0  0
 17 18  1  0  0  0  0
 17 19  1  0  0  0  0
 17 20  1  0  0  0  0
 14 15  1  0  0  0  0
 14 16  1  0  0  0  0
 14 17  1  0  0  0  0
 11 12  1  0  0  0  0
 11 13  1  0  0  0  0
 11 14  1  0  0  0  0
  9 10  1  0  0  0  0
  9 11  1  0  0  0  0
  9 26  1  0  0  0  0
  7  8  1  0  0  0  0
  7  9  1  0  0  0  0
 30 31  1  0  0  0  0
 30 32  1  0  0  0  0
 30 33  1  0  0  0  0
 28 29  1  0  0  0  0
 28 30  1  0  0  0  0
M  END
$$$$
default_name
  -OEChem-01062215323D

 33 32  0     1  0  0  0  0  0999 V2000
   -3.8420   -3.6918    1.5562 H   0  0  0  0  0  0  0  0  0  0  0  0
   -3.8430   -2.7008    1.1032 C   0  0  0  0  0  0  0  0  0  0  0  0
   -4.5510   -2.0608    1.6242 H   0  0  0  0  0  0  0  0  0  0  0  0
   -4.1140   -2.7798    0.0522 H   0  0  0  0  0  0  0  0  0  0  0  0
   -2.4570   -2.1098    1.2172 C   0  0  0  0  0  0  0  0  0  0  0  0
   -1.5600   -2.7438    1.7572 O   0  0  0  0  0  0  0  0  0  0  0  0
   -2.2870   -0.8898    0.7102 N   0  0  0  0  0  0  0  0  0  0  0  0
   -3.0820   -0.4218    0.2992 H   0  0  0  0  0  0  0  0  0  0  0  0
   -1.0240   -0.1468    0.7262 C   0  0  1  0  0  0  0  0  0  0  0  0
   -0.5949   -0.2136    1.7269 H   0  0  0  0  0  0  0  0  0  0  0  0
   -0.0511   -0.8032   -0.2725 C   0  0  0  0  0  0  0  0  0  0  0  0
   -0.5535   -0.8941   -1.2377 H   0  0  0  0  0  0  0  0  0  0  0  0
    0.8203   -0.1597   -0.4015 H   0  0  0  0  0  0  0  0  0  0  0  0
    0.4124   -2.2028    0.1606 C   0  0  0  0  0  0  0  0  0  0  0  0
    0.9069   -2.1408    1.1303 H   0  0  0  0  0  0  0  0  0  0  0  0
   -0.4560   -2.8589    0.2434 H   0  0  0  0  0  0  0  0  0  0  0  0
    1.3949   -2.7932   -0.8572 C   0  0  0  0  0  0  0  0  0  0  0  0
    0.9168   -2.8544   -1.8353 H   0  0  0  0  0  0  0  0  0  0  0  0
    2.2753   -2.1536   -0.9259 H   0  0  0  0  0  0  0  0  0  0  0  0
    1.8200   -4.1924   -0.4159 C   0  0  0  0  0  0  0  0  0  0  0  0
    2.3143   -4.1315    0.5523 H   0  0  0  0  0  0  0  0  0  0  0  0
    0.9401   -4.8277   -0.3295 H   0  0  0  0  0  0  0  0  0  0  0  0
    2.7442   -4.7974   -1.3819 N   0  0  0  0  0  0  0  0  0  0  0  0
    3.0144   -5.7126   -1.0525 H   0  0  0  0  0  0  0  0  0  0  0  0
    2.2796   -4.8857   -2.2744 H   0  0  0  0  0  0  0  0  0  0  0  0
   -1.2768    1.3354    0.4050 C   0  0  0  0  0  0  0  0  0  0  0  0
   -2.2127    1.9302    0.9354 O   0  0  0  0  0  0  0  0  0  0  0  0
   -0.4493    1.9216   -0.4680 N   0  0  0  0  0  0  0  0  0  0  0  0
    0.3028    1.3707   -0.8480 H   0  0  0  0  0  0  0  0  0  0  0  0
   -0.5638    3.3166   -0.8907 C   0  0  0  0  0  0  0  0  0  0  0  0
   -0.5584    3.9691   -0.0149 H   0  0  0  0  0  0  0  0  0  0  0  0
    0.2675    3.5846   -1.5444 H   0  0  0  0  0  0  0  0  0  0  0  0
   -1.5050    3.4623   -1.4247 H   0  0  0  0  0  0  0  0  0  0  0  0
  5  6  2  0  0  0  0
  5  7  1  0  0  0  0
  2  3  1  0  0  0  0
  2  4  1  0  0  0  0
  2  5  1  0  0  0  0
  1  2  1  0  0  0  0
 26 27  2  0  0  0  0
 26 28  1  0  0  0  0
 23 24  1  0  0  0  0
 23 25  1  0  0  0  0
 20 21  1  0  0  0  0
 20 22  1  0  0  0  0
 20 23  1  0  0  0  0
 17 18  1  0  0  0  0
 17 19  1  0  0  0  0
 17 20  1  0  0  0  0
 14 15  1  0  0  0  0
 14 16  1  0  0  0  0
 14 17  1  0  0  0  0
 11 12  1  0  0  0  0
 11 13  1  0  0  0  0
 11 14  1  0  0  0  0
  9 10  1  0  0  0  0
  9 11  1  0  0  0  0
  9 26  1  0  0  0  0
  7  8  1  0  0  0  0
  7  9  1  0  0  0  0
 30 31  1  0  0  0  0
 30 32  1  0  0  0  0
 30 33  1  0  0  0  0
 28 29  1  0  0  0  0
 28 30  1  0  0  0  0
M  END
$$$$
default_name
  -OEChem-01062215323D

 33 32  0     1  0  0  0  0  0999 V2000
   -3.8420   -3.6918    1.5562 H   0  0  0  0  0  0  0  0  0  0  0  0
   -3.8430   -2.7008    1.1032 C   0  0  0  0  0  0  0  0  0  0  0  0
   -4.5510   -2.0608    1.6242 H   0  0  0  0  0  0  0  0  0  0  0  0
   -4.1140   -2.7798    0.0522 H   0  0  0  0  0  0  0  0  0  0  0  0
   -2.4570   -2.1098    1.2172 C   0  0  0  0  0  0  0  0  0  0  0  0
   -1.5600   -2.7438    1.7572 O   0  0  0  0  0  0  0  0  0  0  0  0
   -2.2870   -0.8898    0.7102 N   0  0  0  0  0  0  0  0  0  0  0  0
   -3.0820   -0.4218    0.2992 H   0  0  0  0  0  0  0  0  0  0  0  0
   -1.0240   -0.1468    0.7262 C   0  0  1  0  0  0  0  0  0  0  0  0
   -0.5949   -0.2136    1.7269 H   0  0  0  0  0  0  0  0  0  0  0  0
   -0.0511   -0.8032   -0.2725 C   0  0  0  0  0  0  0  0  0  0  0  0
   -0.5535   -0.8941   -1.2377 H   0  0  0  0  0  0  0  0  0  0  0  0
    0.8203   -0.1597   -0.4015 H   0  0  0  0  0  0  0  0  0  0  0  0
    0.4124   -2.2028    0.1606 C   0  0  0  0  0  0  0  0  0  0  0  0
    0.9069   -2.1408    1.1303 H   0  0  0  0  0  0  0  0  0  0  0  0
   -0.4560   -2.8589    0.2434 H   0  0  0  0  0  0  0  0  0  0  0  0
    1.3949   -2.7932   -0.8572 C   0  0  0  0  0  0  0  0  0  0  0  0
    0.9168   -2.8544   -1.8353 H   0  0  0  0  0  0  0  0  0  0  0  0
    2.2753   -2.1536   -0.9259 H   0  0  0  0  0  0  0  0  0  0  0  0
    1.8200   -4.1924   -0.4159 C   0  0  0  0  0  0  0  0  0  0  0  0
    2.3143   -4.1315    0.5523 H   0  0  0  0  0  0  0  0  0  0  0  0
    0.9401   -4.8277   -0.3295 H   0  0  0  0  0  0  0  0  0  0  0  0
    2.7442   -4.7974   -1.3819 N   0  0  0  0  0  0  0  0  0  0  0  0
    3.0144   -5.7126   -1.0525 H   0  0  0  0  0  0  0  0  0  0  0  0
    2.2796   -4.8857   -2.2744 H   0  0  0  0  0  0  0  0  0  0  0  0
   -1.2768    1.3354    0.4050 C   0  0  0  0  0  0  0  0  0  0  0  0
   -2.0198    2.0034    1.1211 O   0  0  0  0  0  0  0  0  0  0  0  0
   -0.6671    1.8398   -0.6740 N   0  0  0  0  0  0  0  0  0  0  0  0
   -0.0620    1.2319   -1.2012 H   0  0  0  0  0  0  0  0  0  0  0  0
   -0.8158    3.2231   -1.1234 C   0  0  0  0  0  0  0  0  0  0  0  0
   -0.5593    3.9051   -0.3097 H   0  0  0  0  0  0  0  0  0  0  0  0
   -0.1630    3.4177   -1.9755 H   0  0  0  0  0  0  0  0  0  0  0  0
   -1.8526    3.4054   -1.4135 H   0  0  0  0  0  0  0  0  0  0  0  0
  5  6  2  0  0  0  0
  5  7  1  0  0  0  0
  2  3  1  0  0  0  0
  2  4  1  0  0  0  0
  2  5  1  0  0  0  0
  1  2  1  0  0  0  0
 26 27  2  0  0  0  0
 26 28  1  0  0  0  0
 23 24  1  0  0  0  0
 23 25  1  0  0  0  0
 20 21  1  0  0  0  0
 20 22  1  0  0  0  0
 20 23  1  0  0  0  0
 17 18  1  0  0  0  0
 17 19  1  0  0  0  0
 17 20  1  0  0  0  0
 14 15  1  0  0  0  0
 14 16  1  0  0  0  0
 14 17  1  0  0  0  0
 11 12  1  0  0  0  0
 11 13  1  0  0  0  0
 11 14  1  0  0  0  0
  9 10  1  0  0  0  0
  9 11  1  0  0  0  0
  9 26  1  0  0  0  0
  7  8  1  0  0  0  0
  7  9  1  0  0  0  0
 30 31  1  0  0  0  0
 30 32  1  0  0  0  0
 30 33  1  0  0  0  0
 28 29  1  0  0  0  0
 28 30  1  0  0  0  0
M  END
$$$$
default_name
  -OEChem-01062215323D

 33 32  0     1  0  0  0  0  0999 V2000
   -3.8420   -3.6918    1.5562 H   0  0  0  0  0  0  0  0  0  0  0  0
   -3.8430   -2.7008    1.1032 C   0  0  0  0  0  0  0  0  0  0  0  0
   -4.5510   -2.0608    1.6242 H   0  0  0  0  0  0  0  0  0  0  0  0
   -4.1140   -2.7798    0.0522 H   0  0  0  0  0  0  0  0  0  0  0  0
   -2.4570   -2.1098    1.2172 C   0  0  0  0  0  0  0  0  0  0  0  0
   -1.5600   -2.7438    1.7572 O   0  0  0  0  0  0  0  0  0  0  0  0
   -2.2870   -0.8898    0.7102 N   0  0  0  0  0  0  0  0  0  0  0  0
   -3.0820   -0.4218    0.2992 H   0  0  0  0  0  0  0  0  0  0  0  0
   -1.0240   -0.1468    0.7262 C   0  0  1  0  0  0  0  0  0  0  0  0
   -0.5949   -0.2136    1.7269 H   0  0  0  0  0  0  0  0  0  0  0  0
   -0.0511   -0.8032   -0.2725 C   0  0  0  0  0  0  0  0  0  0  0  0
   -0.5535   -0.8941   -1.2377 H   0  0  0  0  0  0  0  0  0  0  0  0
    0.8203   -0.1597   -0.4015 H   0  0  0  0  0  0  0  0  0  0  0  0
    0.4124   -2.2028    0.1606 C   0  0  0  0  0  0  0  0  0  0  0  0
    0.9069   -2.1408    1.1303 H   0  0  0  0  0  0  0  0  0  0  0  0
   -0.4560   -2.8589    0.2434 H   0  0  0  0  0  0  0  0  0  0  0  0
    1.3949   -2.7932   -0.8572 C   0  0  0  0  0  0  0  0  0  0  0  0
    0.9168   -2.8544   -1.8353 H   0  0  0  0  0  0  0  0  0  0  0  0
    2.2753   -2.1536   -0.9259 H   0  0  0  0  0  0  0  0  0  0  0  0
    1.8200   -4.1924   -0.4159 C   0  0  0  0  0  0  0  0  0  0  0  0
    2.3143   -4.1315    0.5523 H   0  0  0  0  0  0  0  0  0  0  0  0
    0.9401   -4.8277   -0.3295 H   0  0  0  0  0  0  0  0  0  0  0  0
    2.7442   -4.7974   -1.3819 N   0  0  0  0  0  0  0  0  0  0  0  0
    3.0144   -5.7126   -1.0525 H   0  0  0  0  0  0  0  0  0  0  0  0
    2.2796   -4.8857   -2.2744 H   0  0  0  0  0  0  0  0  0  0  0  0
   -1.2768    1.3354    0.4050 C   0  0  0  0  0  0  0  0  0  0  0  0
   -1.7831    2.0715    1.2493 O   0  0  0  0  0  0  0  0  0  0  0  0
   -0.9333    1.7638   -0.8152 N   0  0  0  0  0  0  0  0  0  0  0  0
   -0.5099    1.1026   -1.4454 H   0  0  0  0  0  0  0  0  0  0  0  0
   -1.1224    3.1366   -1.2814 C   0  0  0  0  0  0  0  0  0  0  0  0
   -0.6373    3.8307   -0.5916 H   0  0  0  0  0  0  0  0  0  0  0  0
   -0.6953    3.2615   -2.2775 H   0  0  0  0  0  0  0  0  0  0  0  0
   -2.1887    3.3698   -1.3136 H   0  0  0  0  0  0  0  0  0  0  0  0
  5  6  2  0  0  0  0
  5  7  1  0  0  0  0
  2  3  1  0  0  0  0
  2  4  1  0  0  0  0
  2  5  1  0  0  0  0
  1  2  1  0  0  0  0
 26 27  2  0  0  0  0
 26 28  1  0  0  0  0
 23 24  1  0  0  0  0
 23 25  1  0  0  0  0
 20 21  1  0  0  0  0
 20 22  1  0  0  0  0
 20 23  1  0  0  0  0
 17 18  1  0  0  0  0
 17 19  1  0  0  0  0
 17 20  1  0  0  0  0
 14 15  1  0  0  0  0
 14 16  1  0  0  0  0
 14 17  1  0  0  0  0
 11 12  1  0  0  0  0
 11 13  1  0  0  0  0
 11 14  1  0  0  0  0
  9 10  1  0  0  0  0
  9 11  1  0  0  0  0
  9 26  1  0  0  0  0
  7  8  1  0  0  0  0
  7  9  1  0  0  0  0
 30 31  1  0  0  0  0
 30 32  1  0  0  0  0
 30 33  1  0  0  0  0
 28 29  1  0  0  0  0
 28 30  1  0  0  0  0
M  END
$$$$
default_name
  -OEChem-01062215323D

 33 32  0     1  0  0  0  0  0999 V2000
   -3.8420   -3.6918    1.5562 H   0  0  0  0  0  0  0  0  0  0  0  0
   -3.8430   -2.7008    1.1032 C   0  0  0  0  0  0  0  0  0  0  0  0
   -4.5510   -2.0608    1.6242 H   0  0  0  0  0  0  0  0  0  0  0  0
   -4.1140   -2.7798    0.0522 H   0  0  0  0  0  0  0  0  0  0  0  0
   -2.4570   -2.1098    1.2172 C   0  0  0  0  0  0  0  0  0  0  0  0
   -1.5600   -2.7438    1.7572 O   0  0  0  0  0  0  0  0  0  0  0  0
   -2.2870   -0.8898    0.7102 N   0  0  0  0  0  0  0  0  0  0  0  0
   -3.0820   -0.4218    0.2992 H   0  0  0  0  0  0  0  0  0  0  0  0
   -1.0240   -0.1468    0.7262 C   0  0  1  0  0  0  0  0  0  0  0  0
   -0.5949   -0.2136    1.7269 H   0  0  0  0  0  0  0  0  0  0  0  0
   -0.0511   -0.8032   -0.2725 C   0  0  0  0  0  0  0  0  0  0  0  0
   -0.5535   -0.8941   -1.2377 H   0  0  0  0  0  0  0  0  0  0  0  0
    0.8203   -0.1597   -0.4015 H   0  0  0  0  0  0  0  0  0  0  0  0
    0.4124   -2.2028    0.1606 C   0  0  0  0  0  0  0  0  0  0  0  0
    0.9069   -2.1408    1.1303 H   0  0  0  0  0  0  0  0  0  0  0  0
   -0.4560   -2.8589    0.2434 H   0  0  0  0  0  0  0  0  0  0  0  0
    1.3949   -2.7932   -0.8572 C   0  0  0  0  0  0  0  0  0  0  0  0
    0.9168   -2.8544   -1.8353 H   0  0  0  0  0  0  0  0  0  0  0  0
    2.2753   -2.1536   -0.9259 H   0  0  0  0  0  0  0  0  0  0  0  0
    1.8200   -4.1924   -0.4159 C   0  0  0  0  0  0  0  0  0  0  0  0
    2.3143   -4.1315    0.5523 H   0  0  0  0  0  0  0  0  0  0  0  0
    0.9401   -4.8277   -0.3295 H   0  0  0  0  0  0  0  0  0  0  0  0
    2.7442   -4.7974   -1.3819 N   0  0  0  0  0  0  0  0  0  0  0  0
    3.0144   -5.7126   -1.0525 H   0  0  0  0  0  0  0  0  0  0  0  0
    2.2796   -4.8857   -2.2744 H   0  0  0  0  0  0  0  0  0  0  0  0
   -1.2768    1.3354    0.4050 C   0  0  0  0  0  0  0  0  0  0  0  0
   -1.5189    2.1300    1.3111 O   0  0  0  0  0  0  0  0  0  0  0  0
   -1.2297    1.6988   -0.8819 N   0  0  0  0  0  0  0  0  0  0  0  0
   -1.0106    0.9915   -1.5640 H   0  0  0  0  0  0  0  0  0  0  0  0
   -1.4626    3.0629   -1.3538 C   0  0  0  0  0  0  0  0  0  0  0  0
   -0.7869    3.7511   -0.8413 H   0  0  0  0  0  0  0  0  0  0  0  0
   -1.2933    3.1266   -2.4296 H   0  0  0  0  0  0  0  0  0  0  0  0
   -2.4903    3.3577   -1.1316 H   0  0  0  0  0  0  0  0  0  0  0  0
  5  6  2  0  0  0  0
  5  7  1  0  0  0  0
  2  3  1  0  0  0  0
  2  4  1  0  0  0  0
  2  5  1  0  0  0  0
  1  2  1  0  0  0  0
 26 27  2  0  0  0  0
 26 28  1  0  0  0  0
 23 24  1  0  0  0  0
 23 25  1  0  0  0  0
 20 21  1  0  0  0  0
 20 22  1  0  0  0  0
 20 23  1  0  0  0  0
 17 18  1  0  0  0  0
 17 19  1  0  0  0  0
 17 20  1  0  0  0  0
 14 15  1  0  0  0  0
 14 16  1  0  0  0  0
 14 17  1  0  0  0  0
 11 12  1  0  0  0  0
 11 13  1  0  0  0  0
 11 14  1  0  0  0  0
  9 10  1  0  0  0  0
  9 11  1  0  0  0  0
  9 26  1  0  0  0  0
  7  8  1  0  0  0  0
  7  9  1  0  0  0  0
 30 31  1  0  0  0  0
 30 32  1  0  0  0  0
 30 33  1  0  0  0  0
 28 29  1  0  0  0  0
 28 30  1  0  0  0  0
M  END
$$$$
default_name
  -OEChem-01062215323D

 33 32  0     1  0  0  0  0  0999 V2000
   -3.8420   -3.6918    1.5562 H   0  0  0  0  0  0  0  0  0  0  0  0
   -3.8430   -2.7008    1.1032 C   0  0  0  0  0  0  0  0  0  0  0  0
   -4.5510   -2.0608    1.6242 H   0  0  0  0  0  0  0  0  0  0  0  0
   -4.1140   -2.7798    0.0522 H   0  0  0  0  0  0  0  0  0  0  0  0
   -2.4570   -2.1098    1.2172 C   0  0  0  0  0  0  0  0  0  0  0  0
   -1.5600   -2.7438    1.7572 O   0  0  0  0  0  0  0  0  0  0  0  0
   -2.2870   -0.8898    0.7102 N   0  0  0  0  0  0  0  0  0  0  0  0
   -3.0820   -0.4218    0.2992 H   0  0  0  0  0  0  0  0  0  0  0  0
   -1.0240   -0.1468    0.7262 C   0  0  1  0  0  0  0  0  0  0  0  0
   -0.5949   -0.2136    1.7269 H   0  0  0  0  0  0  0  0  0  0  0  0
   -0.0511   -0.8032   -0.2725 C   0  0  0  0  0  0  0  0  0  0  0  0
   -0.5535   -0.8941   -1.2377 H   0  0  0  0  0  0  0  0  0  0  0  0
    0.8203   -0.1597   -0.4015 H   0  0  0  0  0  0  0  0  0  0  0  0
    0.4124   -2.2028    0.1606 C   0  0  0  0  0  0  0  0  0  0  0  0
    0.9069   -2.1408    1.1303 H   0  0  0  0  0  0  0  0  0  0  0  0
   -0.4560   -2.8589    0.2434 H   0  0  0  0  0  0  0  0  0  0  0  0
    1.3949   -2.7932   -0.8572 C   0  0  0  0  0  0  0  0  0  0  0  0
    0.9168   -2.8544   -1.8353 H   0  0  0  0  0  0  0  0  0  0  0  0
    2.2753   -2.1536   -0.9259 H   0  0  0  0  0  0  0  0  0  0  0  0
    1.8200   -4.1924   -0.4159 C   0  0  0  0  0  0  0  0  0  0  0  0
    2.3143   -4.1315    0.5523 H   0  0  0  0  0  0  0  0  0  0  0  0
    0.9401   -4.8277   -0.3295 H   0  0  0  0  0  0  0  0  0  0  0  0
    2.7442   -4.7974   -1.3819 N   0  0  0  0  0  0  0  0  0  0  0  0
    3.0144   -5.7126   -1.0525 H   0  0  0  0  0  0  0  0  0  0  0  0
    2.2796   -4.8857   -2.2744 H   0  0  0  0  0  0  0  0  0  0  0  0
   -1.2768    1.3354    0.4050 C   0  0  0  0  0  0  0  0  0  0  0  0
   -1.2450    2.1748    1.3025 O   0  0  0  0  0  0  0  0  0  0  0  0
   -1.5362    1.6492   -0.8696 N   0  0  0  0  0  0  0  0  0  0  0  0
   -1.5297    0.9062   -1.5490 H   0  0  0  0  0  0  0  0  0  0  0  0
   -1.8133    3.0070   -1.3357 C   0  0  0  0  0  0  0  0  0  0  0  0
   -0.9980    3.6717   -1.0417 H   0  0  0  0  0  0  0  0  0  0  0  0
   -1.9162    3.0220   -2.4217 H   0  0  0  0  0  0  0  0  0  0  0  0
   -2.7368    3.3702   -0.8801 H   0  0  0  0  0  0  0  0  0  0  0  0
  5  6  2  0  0  0  0
  5  7  1  0  0  0  0
  2  3  1  0  0  0  0
  2  4  1  0  0  0  0
  2  5  1  0  0  0  0
  1  2  1  0  0  0  0
 26 27  2  0  0  0  0
 26 28  1  0  0  0  0
 23 24  1  0  0  0  0
 23 25  1  0  0  0  0
 20 21  1  0  0  0  0
 20 22  1  0  0  0  0
 20 23  1  0  0  0  0
 17 18  1  0  0  0  0
 17 19  1  0  0  0  0
 17 20  1  0  0  0  0
 14 15  1  0  0  0  0
 14 16  1  0  0  0  0
 14 17  1  0  0  0  0
 11 12  1  0  0  0  0
 11 13  1  0  0  0  0
 11 14  1  0  0  0  0
  9 10  1  0  0  0  0
  9 11  1  0  0  0  0
  9 26  1  0  0  0  0
  7  8  1  0  0  0  0
  7  9  1  0  0  0  0
 30 31  1  0  0  0  0
 30 32  1  0  0  0  0
 30 33  1  0  0  0  0
 28 29  1  0  0  0  0
 28 30  1  0  0  0  0
M  END
$$$$
default_name
  -OEChem-01062215323D

 33 32  0     1  0  0  0  0  0999 V2000
   -3.8420   -3.6918    1.5562 H   0  0  0  0  0  0  0  0  0  0  0  0
   -3.8430   -2.7008    1.1032 C   0  0  0  0  0  0  0  0  0  0  0  0
   -4.5510   -2.0608    1.6242 H   0  0  0  0  0  0  0  0  0  0  0  0
   -4.1140   -2.7798    0.0522 H   0  0  0  0  0  0  0  0  0  0  0  0
   -2.4570   -2.1098    1.2172 C   0  0  0  0  0  0  0  0  0  0  0  0
   -1.5600   -2.7438    1.7572 O   0  0  0  0  0  0  0  0  0  0  0  0
   -2.2870   -0.8898    0.7102 N   0  0  0  0  0  0  0  0  0  0  0  0
   -3.0820   -0.4218    0.2992 H   0  0  0  0  0  0  0  0  0  0  0  0
   -1.0240   -0.1468    0.7262 C   0  0  1  0  0  0  0  0  0  0  0  0
   -0.5949   -0.2136    1.7269 H   0  0  0  0  0  0  0  0  0  0  0  0
   -0.0511   -0.8032   -0.2725 C   0  0  0  0  0  0  0  0  0  0  0  0
   -0.5535   -0.8941   -1.2377 H   0  0  0  0  0  0  0  0  0  0  0  0
    0.8203   -0.1597   -0.4015 H   0  0  0  0  0  0  0  0  0  0  0  0
    0.4124   -2.2028    0.1606 C   0  0  0  0  0  0  0  0  0  0  0  0
    0.9069   -2.1408    1.1303 H   0  0  0  0  0  0  0  0  0  0  0  0
   -0.4560   -2.8589    0.2434 H   0  0  0  0  0  0  0  0  0  0  0  0
    1.3949   -2.7932   -0.8572 C   0  0  0  0  0  0  0  0  0  0  0  0
    0.9168   -2.8544   -1.8353 H   0  0  0  0  0  0  0  0  0  0  0  0
    2.2753   -2.1536   -0.9259 H   0  0  0  0  0  0  0  0  0  0  0  0
    1.8200   -4.1924   -0.4159 C   0  0  0  0  0  0  0  0  0  0  0  0
    2.3143   -4.1315    0.5523 H   0  0  0  0  0  0  0  0  0  0  0  0
    0.9401   -4.8277   -0.3295 H   0  0  0  0  0  0  0  0  0  0  0  0
    2.7442   -4.7974   -1.3819 N   0  0  0  0  0  0  0  0  0  0  0  0
    3.0144   -5.7126   -1.0525 H   0  0  0  0  0  0  0  0  0  0  0  0
    2.2796   -4.8857   -2.2744 H   0  0  0  0  0  0  0  0  0  0  0  0
   -1.2768    1.3354    0.4050 C   0  0  0  0  0  0  0  0  0  0  0  0
   -0.9803    2.2029    1.2239 O   0  0  0  0  0  0  0  0  0  0  0  0
   -1.8318    1.6184   -0.7792 N   0  0  0  0  0  0  0  0  0  0  0  0
   -2.0321    0.8525   -1.4013 H   0  0  0  0  0  0  0  0  0  0  0  0
   -2.1505    2.9728   -1.2284 C   0  0  0  0  0  0  0  0  0  0  0  0
   -1.2562    3.5978   -1.1792 H   0  0  0  0  0  0  0  0  0  0  0  0
   -2.5215    2.9551   -2.2541 H   0  0  0  0  0  0  0  0  0  0  0  0
   -2.9116    3.4062   -0.5762 H   0  0  0  0  0  0  0  0  0  0  0  0
  5  6  2  0  0  0  0
  5  7  1  0  0  0  0
  2  3  1  0  0  0  0
  2  4  1  0  0  0  0
  2  5  1  0  0  0  0
  1  2  1  0  0  0  0
 26 27  2  0  0  0  0
 26 28  1  0  0  0  0
 23 24  1  0  0  0  0
 23 25  1  0  0  0  0
 20 21  1  0  0  0  0
 20 22  1  0  0  0  0
 20 23  1  0  0  0  0
 17 18  1  0  0  0  0
 17 19  1  0  0  0  0
 17 20  1  0  0  0  0
 14 15  1  0  0  0  0
 14 16  1  0  0  0  0
 14 17  1  0  0  0  0
 11 12  1  0  0  0  0
 11 13  1  0  0  0  0
 11 14  1  0  0  0  0
  9 10  1  0  0  0  0
  9 11  1  0  0  0  0
  9 26  1  0  0  0  0
  7  8  1  0  0  0  0
  7  9  1  0  0  0  0
 30 31  1  0  0  0  0
 30 32  1  0  0  0  0
 30 33  1  0  0  0  0
 28 29  1  0  0  0  0
 28 30  1  0  0  0  0
M  END
$$$$
default_name
  -OEChem-01062215323D

 33 32  0     1  0  0  0  0  0999 V2000
   -3.8420   -3.6918    1.5562 H   0  0  0  0  0  0  0  0  0  0  0  0
   -3.8430   -2.7008    1.1032 C   0  0  0  0  0  0  0  0  0  0  0  0
   -4.5510   -2.0608    1.6242 H   0  0  0  0  0  0  0  0  0  0  0  0
   -4.1140   -2.7798    0.0522 H   0  0  0  0  0  0  0  0  0  0  0  0
   -2.4570   -2.1098    1.2172 C   0  0  0  0  0  0  0  0  0  0  0  0
   -1.5600   -2.7438    1.7572 O   0  0  0  0  0  0  0  0  0  0  0  0
   -2.2870   -0.8898    0.7102 N   0  0  0  0  0  0  0  0  0  0  0  0
   -3.0820   -0.4218    0.2992 H   0  0  0  0  0  0  0  0  0  0  0  0
   -1.0240   -0.1468    0.7262 C   0  0  1  0  0  0  0  0  0  0  0  0
   -0.5949   -0.2136    1.7269 H   0  0  0  0  0  0  0  0  0  0  0  0
   -0.0511   -0.8032   -0.2725 C   0  0  0  0  0  0  0  0  0  0  0  0
   -0.5535   -0.8941   -1.2377 H   0  0  0  0  0  0  0  0  0  0  0  0
    0.8203   -0.1597   -0.4015 H   0  0  0  0  0  0  0  0  0  0  0  0
    0.4124   -2.2028    0.1606 C   0  0  0  0  0  0  0  0  0  0  0  0
    0.9069   -2.1408    1.1303 H   0  0  0  0  0  0  0  0  0  0  0  0
   -0.4560   -2.8589    0.2434 H   0  0  0  0  0  0  0  0  0  0  0  0
    1.3949   -2.7932   -0.8572 C   0  0  0  0  0  0  0  0  0  0  0  0
    0.9168   -2.8544   -1.8353 H   0  0  0  0  0  0  0  0  0  0  0  0
    2.2753   -2.1536   -0.9259 H   0  0  0  0  0  0  0  0  0  0  0  0
    1.8200   -4.1924   -0.4159 C   0  0  0  0  0  0  0  0  0  0  0  0
    2.3143   -4.1315    0.5523 H   0  0  0  0  0  0  0  0  0  0  0  0
    0.9401   -4.8277   -0.3295 H   0  0  0  0  0  0  0  0  0  0  0  0
    2.7442   -4.7974   -1.3819 N   0  0  0  0  0  0  0  0  0  0  0  0
    3.0144   -5.7126   -1.0525 H   0  0  0  0  0  0  0  0  0  0  0  0
    2.2796   -4.8857   -2.2744 H   0  0  0  0  0  0  0  0  0  0  0  0
   -1.2768    1.3354    0.4050 C   0  0  0  0  0  0  0  0  0  0  0  0
   -0.7426    2.2124    1.0807 O   0  0  0  0  0  0  0  0  0  0  0  0
   -2.0965    1.6084   -0.6167 N   0  0  0  0  0  0  0  0  0  0  0  0
   -2.4833    0.8341   -1.1310 H   0  0  0  0  0  0  0  0  0  0  0  0
   -2.4513    2.9625   -1.0391 C   0  0  0  0  0  0  0  0  0  0  0  0
   -1.5439    3.5346   -1.2445 H   0  0  0  0  0  0  0  0  0  0  0  0
   -3.0680    2.9303   -1.9384 H   0  0  0  0  0  0  0  0  0  0  0  0
   -3.0026    3.4634   -0.2406 H   0  0  0  0  0  0  0  0  0  0  0  0
  5  6  2  0  0  0  0
  5  7  1  0  0  0  0
  2  3  1  0  0  0  0
  2  4  1  0  0  0  0
  2  5  1  0  0  0  0
  1  2  1  0  0  0  0
 26 27  2  0  0  0  0
 26 28  1  0  0  0  0
 23 24  1  0  0  0  0
 23 25  1  0  0  0  0
 20 21  1  0  0  0  0
 20 22  1  0  0  0  0
 20 23  1  0  0  0  0
 17 18  1  0  0  0  0
 17 19  1  0  0  0  0
 17 20  1  0  0  0  0
 14 15  1  0  0  0  0
 14 16  1  0  0  0  0
 14 17  1  0  0  0  0
 11 12  1  0  0  0  0
 11 13  1  0  0  0  0
 11 14  1  0  0  0  0
  9 10  1  0  0  0  0
  9 11  1  0  0  0  0
  9 26  1  0  0  0  0
  7  8  1  0  0  0  0
  7  9  1  0  0  0  0
 30 31  1  0  0  0  0
 30 32  1  0  0  0  0
 30 33  1  0  0  0  0
 28 29  1  0  0  0  0
 28 30  1  0  0  0  0
M  END
$$$$
default_name
  -OEChem-01062215323D

 33 32  0     1  0  0  0  0  0999 V2000
   -3.8420   -3.6918    1.5562 H   0  0  0  0  0  0  0  0  0  0  0  0
   -3.8430   -2.7008    1.1032 C   0  0  0  0  0  0  0  0  0  0  0  0
   -4.5510   -2.0608    1.6242 H   0  0  0  0  0  0  0  0  0  0  0  0
   -4.1140   -2.7798    0.0522 H   0  0  0  0  0  0  0  0  0  0  0  0
   -2.4570   -2.1098    1.2172 C   0  0  0  0  0  0  0  0  0  0  0  0
   -1.5600   -2.7438    1.7572 O   0  0  0  0  0  0  0  0  0  0  0  0
   -2.2870   -0.8898    0.7102 N   0  0  0  0  0  0  0  0  0  0  0  0
   -3.0820   -0.4218    0.2992 H   0  0  0  0  0  0  0  0  0  0  0  0
   -1.0240   -0.1468    0.7262 C   0  0  1  0  0  0  0  0  0  0  0  0
   -0.5949   -0.2136    1.7269 H   0  0  0  0  0  0  0  0  0  0  0  0
   -0.0511   -0.8032   -0.2725 C   0  0  0  0  0  0  0  0  0  0  0  0
   -0.5535   -0.8941   -1.2377 H   0  0  0  0  0  0  0  0  0  0  0  0
    0.8203   -0.1597   -0.4015 H   0  0  0  0  0  0  0  0  0  0  0  0
    0.4124   -2.2028    0.1606 C   0  0  0  0  0  0  0  0  0  0  0  0
    0.9069   -2.1408    1.1303 H   0  0  0  0  0  0  0  0  0  0  0  0
   -0.4560   -2.8589    0.2434 H   0  0  0  0  0  0  0  0  0  0  0  0
    1.3949   -2.7932   -0.8572 C   0  0  0  0  0  0  0  0  0  0  0  0
    0.9168   -2.8544   -1.8353 H   0  0  0  0  0  0  0  0  0  0  0  0
    2.2753   -2.1536   -0.9259 H   0  0  0  0  0  0  0  0  0  0  0  0
    1.8200   -4.1924   -0.4159 C   0  0  0  0  0  0  0  0  0  0  0  0
    2.3143   -4.1315    0.5523 H   0  0  0  0  0  0  0  0  0  0  0  0
    0.9401   -4.8277   -0.3295 H   0  0  0  0  0  0  0  0  0  0  0  0
    2.7442   -4.7974   -1.3819 N   0  0  0  0  0  0  0  0  0  0  0  0
    3.0144   -5.7126   -1.0525 H   0  0  0  0  0  0  0  0  0  0  0  0
    2.2796   -4.8857   -2.2744 H   0  0  0  0  0  0  0  0  0  0  0  0
   -1.2768    1.3354    0.4050 C   0  0  0  0  0  0  0  0  0  0  0  0
   -0.5483    2.2027    0.8827 O   0  0  0  0  0  0  0  0  0  0  0  0
   -2.3122    1.6200   -0.3934 N   0  0  0  0  0  0  0  0  0  0  0  0
   -2.8528    0.8523   -0.7566 H   0  0  0  0  0  0  0  0  0  0  0  0
   -2.6952    2.9769   -0.7807 C   0  0  0  0  0  0  0  0  0  0  0  0
   -1.8415    3.4863   -1.2331 H   0  0  0  0  0  0  0  0  0  0  0  0
   -3.5185    2.9493   -1.4960 H   0  0  0  0  0  0  0  0  0  0  0  0
   -3.0037    3.5379    0.1038 H   0  0  0  0  0  0  0  0  0  0  0  0
  5  6  2  0  0  0  0
  5  7  1  0  0  0  0
  2  3  1  0  0  0  0
  2  4  1  0  0  0  0
  2  5  1  0  0  0  0
  1  2  1  0  0  0  0
 26 27  2  0  0  0  0
 26 28  1  0  0  0  0
 23 24  1  0  0  0  0
 23 25  1  0  0  0  0
 20 21  1  0  0  0  0
 20 22  1  0  0  0  0
 20 23  1  0  0  0  0
 17 18  1  0  0  0  0
 17 19  1  0  0  0  0
 17 20  1  0  0  0  0
 14 15  1  0  0  0  0
 14 16  1  0  0  0  0
 14 17  1  0  0  0  0
 11 12  1  0  0  0  0
 11 13  1  0  0  0  0
 11 14  1  0  0  0  0
  9 10  1  0  0  0  0
  9 11  1  0  0  0  0
  9 26  1  0  0  0  0
  7  8  1  0  0  0  0
  7  9  1  0  0  0  0
 30 31  1  0  0  0  0
 30 32  1  0  0  0  0
 30 33  1  0  0  0  0
 28 29  1  0  0  0  0
 28 30  1  0  0  0  0
M  END
$$$$
default_name
  -OEChem-01062215323D

 33 32  0     1  0  0  0  0  0999 V2000
   -3.8420   -3.6918    1.5562 H   0  0  0  0  0  0  0  0  0  0  0  0
   -3.8430   -2.7008    1.1032 C   0  0  0  0  0  0  0  0  0  0  0  0
   -4.5510   -2.0608    1.6242 H   0  0  0  0  0  0  0  0  0  0  0  0
   -4.1140   -2.7798    0.0522 H   0  0  0  0  0  0  0  0  0  0  0  0
   -2.4570   -2.1098    1.2172 C   0  0  0  0  0  0  0  0  0  0  0  0
   -1.5600   -2.7438    1.7572 O   0  0  0  0  0  0  0  0  0  0  0  0
   -2.2870   -0.8898    0.7102 N   0  0  0  0  0  0  0  0  0  0  0  0
   -3.0820   -0.4218    0.2992 H   0  0  0  0  0  0  0  0  0  0  0  0
   -1.0240   -0.1468    0.7262 C   0  0  1  0  0  0  0  0  0  0  0  0
   -0.5949   -0.2136    1.7269 H   0  0  0  0  0  0  0  0  0  0  0  0
   -0.0511   -0.8032   -0.2725 C   0  0  0  0  0  0  0  0  0  0  0  0
   -0.5535   -0.8941   -1.2377 H   0  0  0  0  0  0  0  0  0  0  0  0
    0.8203   -0.1597   -0.4015 H   0  0  0  0  0  0  0  0  0  0  0  0
    0.4124   -2.2028    0.1606 C   0  0  0  0  0  0  0  0  0  0  0  0
    0.9069   -2.1408    1.1303 H   0  0  0  0  0  0  0  0  0  0  0  0
   -0.4560   -2.8589    0.2434 H   0  0  0  0  0  0  0  0  0  0  0  0
    1.3949   -2.7932   -0.8572 C   0  0  0  0  0  0  0  0  0  0  0  0
    0.9168   -2.8544   -1.8353 H   0  0  0  0  0  0  0  0  0  0  0  0
    2.2753   -2.1536   -0.9259 H   0  0  0  0  0  0  0  0  0  0  0  0
    1.8200   -4.1924   -0.4159 C   0  0  0  0  0  0  0  0  0  0  0  0
    2.3143   -4.1315    0.5523 H   0  0  0  0  0  0  0  0  0  0  0  0
    0.9401   -4.8277   -0.3295 H   0  0  0  0  0  0  0  0  0  0  0  0
    2.7442   -4.7974   -1.3819 N   0  0  0  0  0  0  0  0  0  0  0  0
    3.0144   -5.7126   -1.0525 H   0  0  0  0  0  0  0  0  0  0  0  0
    2.2796   -4.8857   -2.2744 H   0  0  0  0  0  0  0  0  0  0  0  0
   -1.2768    1.3354    0.4050 C   0  0  0  0  0  0  0  0  0  0  0  0
   -0.4105    2.1743    0.6433 O   0  0  0  0  0  0  0  0  0  0  0  0
   -2.4642    1.6524   -0.1243 N   0  0  0  0  0  0  0  0  0  0  0  0
   -3.1152    0.9057   -0.3035 H   0  0  0  0  0  0  0  0  0  0  0  0
   -2.8655    3.0149   -0.4710 C   0  0  0  0  0  0  0  0  0  0  0  0
   -2.1288    3.4562   -1.1458 H   0  0  0  0  0  0  0  0  0  0  0  0
   -3.8422    3.0109   -0.9571 H   0  0  0  0  0  0  0  0  0  0  0  0
   -2.9148    3.6245    0.4337 H   0  0  0  0  0  0  0  0  0  0  0  0
  5  6  2  0  0  0  0
  5  7  1  0  0  0  0
  2  3  1  0  0  0  0
  2  4  1  0  0  0  0
  2  5  1  0  0  0  0
  1  2  1  0  0  0  0
 26 27  2  0  0  0  0
 26 28  1  0  0  0  0
 23 24  1  0  0  0  0
 23 25  1  0  0  0  0
 20 21  1  0  0  0  0
 20 22  1  0  0  0  0
 20 23  1  0  0  0  0
 17 18  1  0  0  0  0
 17 19  1  0  0  0  0
 17 20  1  0  0  0  0
 14 15  1  0  0  0  0
 14 16  1  0  0  0  0
 14 17  1  0  0  0  0
 11 12  1  0  0  0  0
 11 13  1  0  0  0  0
 11 14  1  0  0  0  0
  9 10  1  0  0  0  0
  9 11  1  0  0  0  0
  9 26  1  0  0  0  0
  7  8  1  0  0  0  0
  7  9  1  0  0  0  0
 30 31  1  0  0  0  0
 30 32  1  0  0  0  0
 30 33  1  0  0  0  0
 28 29  1  0  0  0  0
 28 30  1  0  0  0  0
M  END
$$$$
default_name
  -OEChem-01062215323D

 33 32  0     1  0  0  0  0  0999 V2000
   -3.8420   -3.6918    1.5562 H   0  0  0  0  0  0  0  0  0  0  0  0
   -3.8430   -2.7008    1.1032 C   0  0  0  0  0  0  0  0  0  0  0  0
   -4.5510   -2.0608    1.6242 H   0  0  0  0  0  0  0  0  0  0  0  0
   -4.1140   -2.7798    0.0522 H   0  0  0  0  0  0  0  0  0  0  0  0
   -2.4570   -2.1098    1.2172 C   0  0  0  0  0  0  0  0  0  0  0  0
   -1.5600   -2.7438    1.7572 O   0  0  0  0  0  0  0  0  0  0  0  0
   -2.2870   -0.8898    0.7102 N   0  0  0  0  0  0  0  0  0  0  0  0
   -3.0820   -0.4218    0.2992 H   0  0  0  0  0  0  0  0  0  0  0  0
   -1.0240   -0.1468    0.7262 C   0  0  1  0  0  0  0  0  0  0  0  0
   -0.5949   -0.2136    1.7269 H   0  0  0  0  0  0  0  0  0  0  0  0
   -0.0511   -0.8032   -0.2725 C   0  0  0  0  0  0  0  0  0  0  0  0
   -0.5535   -0.8941   -1.2377 H   0  0  0  0  0  0  0  0  0  0  0  0
    0.8203   -0.1597   -0.4015 H   0  0  0  0  0  0  0  0  0  0  0  0
    0.4124   -2.2028    0.1606 C   0  0  0  0  0  0  0  0  0  0  0  0
    0.9069   -2.1408    1.1303 H   0  0  0  0  0  0  0  0  0  0  0  0
   -0.4560   -2.8589    0.2434 H   0  0  0  0  0  0  0  0  0  0  0  0
    1.3949   -2.7932   -0.8572 C   0  0  0  0  0  0  0  0  0  0  0  0
    0.9168   -2.8544   -1.8353 H   0  0  0  0  0  0  0  0  0  0  0  0
    2.2753   -2.1536   -0.9259 H   0  0  0  0  0  0  0  0  0  0  0  0
    1.8200   -4.1924   -0.4159 C   0  0  0  0  0  0  0  0  0  0  0  0
    2.3143   -4.1315    0.5523 H   0  0  0  0  0  0  0  0  0  0  0  0
    0.9401   -4.8277   -0.3295 H   0  0  0  0  0  0  0  0  0  0  0  0
    2.7442   -4.7974   -1.3819 N   0  0  0  0  0  0  0  0  0  0  0  0
    3.0144   -5.7126   -1.0525 H   0  0  0  0  0  0  0  0  0  0  0  0
    2.2796   -4.8857   -2.2744 H   0  0  0  0  0  0  0  0  0  0  0  0
   -1.2768    1.3354    0.4050 C   0  0  0  0  0  0  0  0  0  0  0  0
   -0.3387    2.1293    0.3790 O   0  0  0  0  0  0  0  0  0  0  0  0
   -2.5420    1.7034    0.1722 N   0  0  0  0  0  0  0  0  0  0  0  0
   -3.2528    0.9907    0.1974 H   0  0  0  0  0  0  0  0  0  0  0  0
   -2.9507    3.0741   -0.1309 C   0  0  0  0  0  0  0  0  0  0  0  0
   -2.3861    3.4464   -0.9885 H   0  0  0  0  0  0  0  0  0  0  0  0
   -4.0171    3.1108   -0.3585 H   0  0  0  0  0  0  0  0  0  0  0  0
   -2.7419    3.7174    0.7264 H   0  0  0  0  0  0  0  0  0  0  0  0
  5  6  2  0  0  0  0
  5  7  1  0  0  0  0
  2  3  1  0  0  0  0
  2  4  1  0  0  0  0
  2  5  1  0  0  0  0
  1  2  1  0  0  0  0
 26 27  2  0  0  0  0
 26 28  1  0  0  0  0
 23 24  1  0  0  0  0
 23 25  1  0  0  0  0
 20 21  1  0  0  0  0
 20 22  1  0  0  0  0
 20 23  1  0  0  0  0
 17 18  1  0  0  0  0
 17 19  1  0  0  0  0
 17 20  1  0  0  0  0
 14 15  1  0  0  0  0
 14 16  1  0  0  0  0
 14 17  1  0  0  0  0
 11 12  1  0  0  0  0
 11 13  1  0  0  0  0
 11 14  1  0  0  0  0
  9 10  1  0  0  0  0
  9 11  1  0  0  0  0
  9 26  1  0  0  0  0
  7  8  1  0  0  0  0
  7  9  1  0  0  0  0
 30 31  1  0  0  0  0
 30 32  1  0  0  0  0
 30 33  1  0  0  0  0
 28 29  1  0  0  0  0
 28 30  1  0  0  0  0
M  END
$$$$
default_name
  -OEChem-01062215323D

 33 32  0     1  0  0  0  0  0999 V2000
   -3.8420   -3.6918    1.5562 H   0  0  0  0  0  0  0  0  0  0  0  0
   -3.8430   -2.7008    1.1032 C   0  0  0  0  0  0  0  0  0  0  0  0
   -4.5510   -2.0608    1.6242 H   0  0  0  0  0  0  0  0  0  0  0  0
   -4.1140   -2.7798    0.0522 H   0  0  0  0  0  0  0  0  0  0  0  0
   -2.4570   -2.1098    1.2172 C   0  0  0  0  0  0  0  0  0  0  0  0
   -1.5600   -2.7438    1.7572 O   0  0  0  0  0  0  0  0  0  0  0  0
   -2.2870   -0.8898    0.7102 N   0  0  0  0  0  0  0  0  0  0  0  0
   -3.0820   -0.4218    0.2992 H   0  0  0  0  0  0  0  0  0  0  0  0
   -1.0240   -0.1468    0.7262 C   0  0  1  0  0  0  0  0  0  0  0  0
   -0.5949   -0.2136    1.7269 H   0  0  0  0  0  0  0  0  0  0  0  0
   -0.0511   -0.8032   -0.2725 C   0  0  0  0  0  0  0  0  0  0  0  0
   -0.5535   -0.8941   -1.2377 H   0  0  0  0  0  0  0  0  0  0  0  0
    0.8203   -0.1597   -0.4015 H   0  0  0  0  0  0  0  0  0  0  0  0
    0.4124   -2.2028    0.1606 C   0  0  0  0  0  0  0  0  0  0  0  0
    0.9069   -2.1408    1.1303 H   0  0  0  0  0  0  0  0  0  0  0  0
   -0.4560   -2.8589    0.2434 H   0  0  0  0  0  0  0  0  0  0  0  0
    1.3949   -2.7932   -0.8572 C   0  0  0  0  0  0  0  0  0  0  0  0
    0.9168   -2.8544   -1.8353 H   0  0  0  0  0  0  0  0  0  0  0  0
    2.2753   -2.1536   -0.9259 H   0  0  0  0  0  0  0  0  0  0  0  0
    1.8200   -4.1924   -0.4159 C   0  0  0  0  0  0  0  0  0  0  0  0
    2.3143   -4.1315    0.5523 H   0  0  0  0  0  0  0  0  0  0  0  0
    0.9401   -4.8277   -0.3295 H   0  0  0  0  0  0  0  0  0  0  0  0
    2.7442   -4.7974   -1.3819 N   0  0  0  0  0  0  0  0  0  0  0  0
    3.0144   -5.7126   -1.0525 H   0  0  0  0  0  0  0  0  0  0  0  0
    2.2796   -4.8857   -2.2744 H   0  0  0  0  0  0  0  0  0  0  0  0
   -1.2768    1.3354    0.4050 C   0  0  0  0  0  0  0  0  0  0  0  0
   -0.3377    2.0707    0.1076 O   0  0  0  0  0  0  0  0  0  0  0  0
   -2.5406    1.7694    0.4758 N   0  0  0  0  0  0  0  0  0  0  0  0
   -3.2561    1.1017    0.7119 H   0  0  0  0  0  0  0  0  0  0  0  0
   -2.9450    3.1503    0.2164 C   0  0  0  0  0  0  0  0  0  0  0  0
   -2.5959    3.4576   -0.7719 H   0  0  0  0  0  0  0  0  0  0  0  0
   -4.0312    3.2422    0.2592 H   0  0  0  0  0  0  0  0  0  0  0  0
   -2.4968    3.8103    0.9620 H   0  0  0  0  0  0  0  0  0  0  0  0
  5  6  2  0  0  0  0
  5  7  1  0  0  0  0
  2  3  1  0  0  0  0
  2  4  1  0  0  0  0
  2  5  1  0  0  0  0
  1  2  1  0  0  0  0
 26 27  2  0  0  0  0
 26 28  1  0  0  0  0
 23 24  1  0  0  0  0
 23 25  1  0  0  0  0
 20 21  1  0  0  0  0
 20 22  1  0  0  0  0
 20 23  1  0  0  0  0
 17 18  1  0  0  0  0
 17 19  1  0  0  0  0
 17 20  1  0  0  0  0
 14 15  1  0  0  0  0
 14 16  1  0  0  0  0
 14 17  1  0  0  0  0
 11 12  1  0  0  0  0
 11 13  1  0  0  0  0
 11 14  1  0  0  0  0
  9 10  1  0  0  0  0
  9 11  1  0  0  0  0
  9 26  1  0  0  0  0
  7  8  1  0  0  0  0
  7  9  1  0  0  0  0
 30 31  1  0  0  0  0
 30 32  1  0  0  0  0
 30 33  1  0  0  0  0
 28 29  1  0  0  0  0
 28 30  1  0  0  0  0
M  END
$$$$
default_name
  -OEChem-01062215323D

 33 32  0     1  0  0  0  0  0999 V2000
   -3.8420   -3.6918    1.5562 H   0  0  0  0  0  0  0  0  0  0  0  0
   -3.8430   -2.7008    1.1032 C   0  0  0  0  0  0  0  0  0  0  0  0
   -4.5510   -2.0608    1.6242 H   0  0  0  0  0  0  0  0  0  0  0  0
   -4.1140   -2.7798    0.0522 H   0  0  0  0  0  0  0  0  0  0  0  0
   -2.4570   -2.1098    1.2172 C   0  0  0  0  0  0  0  0  0  0  0  0
   -1.5600   -2.7438    1.7572 O   0  0  0  0  0  0  0  0  0  0  0  0
   -2.2870   -0.8898    0.7102 N   0  0  0  0  0  0  0  0  0  0  0  0
   -3.0820   -0.4218    0.2992 H   0  0  0  0  0  0  0  0  0  0  0  0
   -1.0240   -0.1468    0.7262 C   0  0  1  0  0  0  0  0  0  0  0  0
   -0.5949   -0.2136    1.7269 H   0  0  0  0  0  0  0  0  0  0  0  0
   -0.0511   -0.8032   -0.2725 C   0  0  0  0  0  0  0  0  0  0  0  0
   -0.5535   -0.8941   -1.2377 H   0  0  0  0  0  0  0  0  0  0  0  0
    0.8203   -0.1597   -0.4015 H   0  0  0  0  0  0  0  0  0  0  0  0
    0.4124   -2.2028    0.1606 C   0  0  0  0  0  0  0  0  0  0  0  0
    0.9069   -2.1408    1.1303 H   0  0  0  0  0  0  0  0  0  0  0  0
   -0.4560   -2.8589    0.2434 H   0  0  0  0  0  0  0  0  0  0  0  0
    1.3949   -2.7932   -0.8572 C   0  0  0  0  0  0  0  0  0  0  0  0
    0.9168   -2.8544   -1.8353 H   0  0  0  0  0  0  0  0  0  0  0  0
    2.2753   -2.1536   -0.9259 H   0  0  0  0  0  0  0  0  0  0  0  0
    1.8200   -4.1924   -0.4159 C   0  0  0  0  0  0  0  0  0  0  0  0
    2.3143   -4.1315    0.5523 H   0  0  0  0  0  0  0  0  0  0  0  0
    0.9401   -4.8277   -0.3295 H   0  0  0  0  0  0  0  0  0  0  0  0
    2.7442   -4.7974   -1.3819 N   0  0  0  0  0  0  0  0  0  0  0  0
    3.0144   -5.7126   -1.0525 H   0  0  0  0  0  0  0  0  0  0  0  0
    2.2796   -4.8857   -2.2744 H   0  0  0  0  0  0  0  0  0  0  0  0
   -1.2768    1.3354    0.4050 C   0  0  0  0  0  0  0  0  0  0  0  0
   -0.4076    2.0024   -0.1522 O   0  0  0  0  0  0  0  0  0  0  0  0
   -2.4598    1.8460    0.7659 N   0  0  0  0  0  0  0  0  0  0  0  0
   -3.1249    1.2309    1.2050 H   0  0  0  0  0  0  0  0  0  0  0  0
   -2.8487    3.2384    0.5471 C   0  0  0  0  0  0  0  0  0  0  0  0
   -2.7439    3.4889   -0.5108 H   0  0  0  0  0  0  0  0  0  0  0  0
   -3.8837    3.3962    0.8537 H   0  0  0  0  0  0  0  0  0  0  0  0
   -2.1963    3.8968    1.1246 H   0  0  0  0  0  0  0  0  0  0  0  0
  5  6  2  0  0  0  0
  5  7  1  0  0  0  0
  2  3  1  0  0  0  0
  2  4  1  0  0  0  0
  2  5  1  0  0  0  0
  1  2  1  0  0  0  0
 26 27  2  0  0  0  0
 26 28  1  0  0  0  0
 23 24  1  0  0  0  0
 23 25  1  0  0  0  0
 20 21  1  0  0  0  0
 20 22  1  0  0  0  0
 20 23  1  0  0  0  0
 17 18  1  0  0  0  0
 17 19  1  0  0  0  0
 17 20  1  0  0  0  0
 14 15  1  0  0  0  0
 14 16  1  0  0  0  0
 14 17  1  0  0  0  0
 11 12  1  0  0  0  0
 11 13  1  0  0  0  0
 11 14  1  0  0  0  0
  9 10  1  0  0  0  0
  9 11  1  0  0  0  0
  9 26  1  0  0  0  0
  7  8  1  0  0  0  0
  7  9  1  0  0  0  0
 30 31  1  0  0  0  0
 30 32  1  0  0  0  0
 30 33  1  0  0  0  0
 28 29  1  0  0  0  0
 28 30  1  0  0  0  0
M  END
$$$$
default_name
  -OEChem-01062215323D

 33 32  0     1  0  0  0  0  0999 V2000
   -3.8420   -3.6918    1.5562 H   0  0  0  0  0  0  0  0  0  0  0  0
   -3.8430   -2.7008    1.1032 C   0  0  0  0  0  0  0  0  0  0  0  0
   -4.5510   -2.0608    1.6242 H   0  0  0  0  0  0  0  0  0  0  0  0
   -4.1140   -2.7798    0.0522 H   0  0  0  0  0  0  0  0  0  0  0  0
   -2.4570   -2.1098    1.2172 C   0  0  0  0  0  0  0  0  0  0  0  0
   -1.5600   -2.7438    1.7572 O   0  0  0  0  0  0  0  0  0  0  0  0
   -2.2870   -0.8898    0.7102 N   0  0  0  0  0  0  0  0  0  0  0  0
   -3.0820   -0.4218    0.2992 H   0  0  0  0  0  0  0  0  0  0  0  0
   -1.0240   -0.1468    0.7262 C   0  0  1  0  0  0  0  0  0  0  0  0
   -0.5949   -0.2136    1.7269 H   0  0  0  0  0  0  0  0  0  0  0  0
   -0.0511   -0.8032   -0.2725 C   0  0  0  0  0  0  0  0  0  0  0  0
   -0.5535   -0.8941   -1.2377 H   0  0  0  0  0  0  0  0  0  0  0  0
    0.8203   -0.1597   -0.4015 H   0  0  0  0  0  0  0  0  0  0  0  0
    0.4124   -2.2028    0.1606 C   0  0  0  0  0  0  0  0  0  0  0  0
    0.9069   -2.1408    1.1303 H   0  0  0  0  0  0  0  0  0  0  0  0
   -0.4560   -2.8589    0.2434 H   0  0  0  0  0  0  0  0  0  0  0  0
    1.3949   -2.7932   -0.8572 C   0  0  0  0  0  0  0  0  0  0  0  0
    0.9168   -2.8544   -1.8353 H   0  0  0  0  0  0  0  0  0  0  0  0
    2.2753   -2.1536   -0.9259 H   0  0  0  0  0  0  0  0  0  0  0  0
    1.8200   -4.1924   -0.4159 C   0  0  0  0  0  0  0  0  0  0  0  0
    2.3143   -4.1315    0.5523 H   0  0  0  0  0  0  0  0  0  0  0  0
    0.9401   -4.8277   -0.3295 H   0  0  0  0  0  0  0  0  0  0  0  0
    2.7442   -4.7974   -1.3819 N   0  0  0  0  0  0  0  0  0  0  0  0
    3.0144   -5.7126   -1.0525 H   0  0  0  0  0  0  0  0  0  0  0  0
    2.2796   -4.8857   -2.2744 H   0  0  0  0  0  0  0  0  0  0  0  0
   -1.2768    1.3354    0.4050 C   0  0  0  0  0  0  0  0  0  0  0  0
   -0.5437    1.9293   -0.3829 O   0  0  0  0  0  0  0  0  0  0  0  0
   -2.3053    1.9280    1.0227 N   0  0  0  0  0  0  0  0  0  0  0  0
   -2.8682    1.3696    1.6431 H   0  0  0  0  0  0  0  0  0  0  0  0
   -2.6683    3.3324    0.8388 C   0  0  0  0  0  0  0  0  0  0  0  0
   -2.8201    3.5383   -0.2231 H   0  0  0  0  0  0  0  0  0  0  0  0
   -3.5845    3.5623    1.3846 H   0  0  0  0  0  0  0  0  0  0  0  0
   -1.8608    3.9709    1.2029 H   0  0  0  0  0  0  0  0  0  0  0  0
  5  6  2  0  0  0  0
  5  7  1  0  0  0  0
  2  3  1  0  0  0  0
  2  4  1  0  0  0  0
  2  5  1  0  0  0  0
  1  2  1  0  0  0  0
 26 27  2  0  0  0  0
 26 28  1  0  0  0  0
 23 24  1  0  0  0  0
 23 25  1  0  0  0  0
 20 21  1  0  0  0  0
 20 22  1  0  0  0  0
 20 23  1  0  0  0  0
 17 18  1  0  0  0  0
 17 19  1  0  0  0  0
 17 20  1  0  0  0  0
 14 15  1  0  0  0  0
 14 16  1  0  0  0  0
 14 17  1  0  0  0  0
 11 12  1  0  0  0  0
 11 13  1  0  0  0  0
 11 14  1  0  0  0  0
  9 10  1  0  0  0  0
  9 11  1  0  0  0  0
  9 26  1  0  0  0  0
  7  8  1  0  0  0  0
  7  9  1  0  0  0  0
 30 31  1  0  0  0  0
 30 32  1  0  0  0  0
 30 33  1  0  0  0  0
 28 29  1  0  0  0  0
 28 30  1  0  0  0  0
M  END
$$$$
default_name
  -OEChem-01062215323D

 33 32  0     1  0  0  0  0  0999 V2000
   -3.8420   -3.6918    1.5562 H   0  0  0  0  0  0  0  0  0  0  0  0
   -3.8430   -2.7008    1.1032 C   0  0  0  0  0  0  0  0  0  0  0  0
   -4.5510   -2.0608    1.6242 H   0  0  0  0  0  0  0  0  0  0  0  0
   -4.1140   -2.7798    0.0522 H   0  0  0  0  0  0  0  0  0  0  0  0
   -2.4570   -2.1098    1.2172 C   0  0  0  0  0  0  0  0  0  0  0  0
   -1.5600   -2.7438    1.7572 O   0  0  0  0  0  0  0  0  0  0  0  0
   -2.2870   -0.8898    0.7102 N   0  0  0  0  0  0  0  0  0  0  0  0
   -3.0820   -0.4218    0.2992 H   0  0  0  0  0  0  0  0  0  0  0  0
   -1.0240   -0.1468    0.7262 C   0  0  1  0  0  0  0  0  0  0  0  0
   -0.5949   -0.2136    1.7269 H   0  0  0  0  0  0  0  0  0  0  0  0
   -0.0511   -0.8032   -0.2725 C   0  0  0  0  0  0  0  0  0  0  0  0
   -0.5535   -0.8941   -1.2377 H   0  0  0  0  0  0  0  0  0  0  0  0
    0.8203   -0.1597   -0.4015 H   0  0  0  0  0  0  0  0  0  0  0  0
    0.4124   -2.2028    0.1606 C   0  0  0  0  0  0  0  0  0  0  0  0
    0.9069   -2.1408    1.1303 H   0  0  0  0  0  0  0  0  0  0  0  0
   -0.4560   -2.8589    0.2434 H   0  0  0  0  0  0  0  0  0  0  0  0
    1.3949   -2.7932   -0.8572 C   0  0  0  0  0  0  0  0  0  0  0  0
    0.9168   -2.8544   -1.8353 H   0  0  0  0  0  0  0  0  0  0  0  0
    2.2753   -2.1536   -0.9259 H   0  0  0  0  0  0  0  0  0  0  0  0
    1.8200   -4.1924   -0.4159 C   0  0  0  0  0  0  0  0  0  0  0  0
    2.3143   -4.1315    0.5523 H   0  0  0  0  0  0  0  0  0  0  0  0
    0.9401   -4.8277   -0.3295 H   0  0  0  0  0  0  0  0  0  0  0  0
    2.7442   -4.7974   -1.3819 N   0  0  0  0  0  0  0  0  0  0  0  0
    3.0144   -5.7126   -1.0525 H   0  0  0  0  0  0  0  0  0  0  0  0
    2.2796   -4.8857   -2.2744 H   0  0  0  0  0  0  0  0  0  0  0  0
   -1.2768    1.3354    0.4050 C   0  0  0  0  0  0  0  0  0  0  0  0
   -0.7366    1.8561   -0.5686 O   0  0  0  0  0  0  0  0  0  0  0  0
   -2.0875    2.0098    1.2287 N   0  0  0  0  0  0  0  0  0  0  0  0
   -2.5035    1.5083    1.9962 H   0  0  0  0  0  0  0  0  0  0  0  0
   -2.4163    3.4258    1.0715 C   0  0  0  0  0  0  0  0  0  0  0  0
   -2.8192    3.6023    0.0718 H   0  0  0  0  0  0  0  0  0  0  0  0
   -3.1541    3.7291    1.8158 H   0  0  0  0  0  0  0  0  0  0  0  0
   -1.5132    4.0278    1.1917 H   0  0  0  0  0  0  0  0  0  0  0  0
  5  6  2  0  0  0  0
  5  7  1  0  0  0  0
  2  3  1  0  0  0  0
  2  4  1  0  0  0  0
  2  5  1  0  0  0  0
  1  2  1  0  0  0  0
 26 27  2  0  0  0  0
 26 28  1  0  0  0  0
 23 24  1  0  0  0  0
 23 25  1  0  0  0  0
 20 21  1  0  0  0  0
 20 22  1  0  0  0  0
 20 23  1  0  0  0  0
 17 18  1  0  0  0  0
 17 19  1  0  0  0  0
 17 20  1  0  0  0  0
 14 15  1  0  0  0  0
 14 16  1  0  0  0  0
 14 17  1  0  0  0  0
 11 12  1  0  0  0  0
 11 13  1  0  0  0  0
 11 14  1  0  0  0  0
  9 10  1  0  0  0  0
  9 11  1  0  0  0  0
  9 26  1  0  0  0  0
  7  8  1  0  0  0  0
  7  9  1  0  0  0  0
 30 31  1  0  0  0  0
 30 32  1  0  0  0  0
 30 33  1  0  0  0  0
 28 29  1  0  0  0  0
 28 30  1  0  0  0  0
M  END
$$$$
default_name
  -OEChem-01062215323D

 33 32  0     1  0  0  0  0  0999 V2000
   -3.8420   -3.6918    1.5562 H   0  0  0  0  0  0  0  0  0  0  0  0
   -3.8430   -2.7008    1.1032 C   0  0  0  0  0  0  0  0  0  0  0  0
   -4.5510   -2.0608    1.6242 H   0  0  0  0  0  0  0  0  0  0  0  0
   -4.1140   -2.7798    0.0522 H   0  0  0  0  0  0  0  0  0  0  0  0
   -2.4570   -2.1098    1.2172 C   0  0  0  0  0  0  0  0  0  0  0  0
   -1.5600   -2.7438    1.7572 O   0  0  0  0  0  0  0  0  0  0  0  0
   -2.2870   -0.8898    0.7102 N   0  0  0  0  0  0  0  0  0  0  0  0
   -3.0820   -0.4218    0.2992 H   0  0  0  0  0  0  0  0  0  0  0  0
   -1.0240   -0.1468    0.7262 C   0  0  1  0  0  0  0  0  0  0  0  0
   -0.5949   -0.2136    1.7269 H   0  0  0  0  0  0  0  0  0  0  0  0
   -0.0511   -0.8032   -0.2725 C   0  0  0  0  0  0  0  0  0  0  0  0
   -0.5535   -0.8941   -1.2377 H   0  0  0  0  0  0  0  0  0  0  0  0
    0.8203   -0.1597   -0.4015 H   0  0  0  0  0  0  0  0  0  0  0  0
    0.4124   -2.2028    0.1606 C   0  0  0  0  0  0  0  0  0  0  0  0
    0.9069   -2.1408    1.1303 H   0  0  0  0  0  0  0  0  0  0  0  0
   -0.4560   -2.8589    0.2434 H   0  0  0  0  0  0  0  0  0  0  0  0
    1.3949   -2.7932   -0.8572 C   0  0  0  0  0  0  0  0  0  0  0  0
    0.9168   -2.8544   -1.8353 H   0  0  0  0  0  0  0  0  0  0  0  0
    2.2753   -2.1536   -0.9259 H   0  0  0  0  0  0  0  0  0  0  0  0
    1.8200   -4.1924   -0.4159 C   0  0  0  0  0  0  0  0  0  0  0  0
    2.3143   -4.1315    0.5523 H   0  0  0  0  0  0  0  0  0  0  0  0
    0.9401   -4.8277   -0.3295 H   0  0  0  0  0  0  0  0  0  0  0  0
    2.7442   -4.7974   -1.3819 N   0  0  0  0  0  0  0  0  0  0  0  0
    3.0144   -5.7126   -1.0525 H   0  0  0  0  0  0  0  0  0  0  0  0
    2.2796   -4.8857   -2.2744 H   0  0  0  0  0  0  0  0  0  0  0  0
   -1.2768    1.3354    0.4050 C   0  0  0  0  0  0  0  0  0  0  0  0
   -0.9732    1.7880   -0.6968 O   0  0  0  0  0  0  0  0  0  0  0  0
   -1.8214    2.0858    1.3698 N   0  0  0  0  0  0  0  0  0  0  0  0
   -2.0555    1.6377    2.2405 H   0  0  0  0  0  0  0  0  0  0  0  0
   -2.1097    3.5123    1.2295 C   0  0  0  0  0  0  0  0  0  0  0  0
   -2.7413    3.6767    0.3537 H   0  0  0  0  0  0  0  0  0  0  0  0
   -2.6217    3.8853    2.1177 H   0  0  0  0  0  0  0  0  0  0  0  0
   -1.1772    4.0635    1.0917 H   0  0  0  0  0  0  0  0  0  0  0  0
  5  6  2  0  0  0  0
  5  7  1  0  0  0  0
  2  3  1  0  0  0  0
  2  4  1  0  0  0  0
  2  5  1  0  0  0  0
  1  2  1  0  0  0  0
 26 27  2  0  0  0  0
 26 28  1  0  0  0  0
 23 24  1  0  0  0  0
 23 25  1  0  0  0  0
 20 21  1  0  0  0  0
 20 22  1  0  0  0  0
 20 23  1  0  0  0  0
 17 18  1  0  0  0  0
 17 19  1  0  0  0  0
 17 20  1  0  0  0  0
 14 15  1  0  0  0  0
 14 16  1  0  0  0  0
 14 17  1  0  0  0  0
 11 12  1  0  0  0  0
 11 13  1  0  0  0  0
 11 14  1  0  0  0  0
  9 10  1  0  0  0  0
  9 11  1  0  0  0  0
  9 26  1  0  0  0  0
  7  8  1  0  0  0  0
  7  9  1  0  0  0  0
 30 31  1  0  0  0  0
 30 32  1  0  0  0  0
 30 33  1  0  0  0  0
 28 29  1  0  0  0  0
 28 30  1  0  0  0  0
M  END
$$$$
default_name
  -OEChem-01062215323D

 33 32  0     1  0  0  0  0  0999 V2000
   -3.8420   -3.6918    1.5562 H   0  0  0  0  0  0  0  0  0  0  0  0
   -3.8430   -2.7008    1.1032 C   0  0  0  0  0  0  0  0  0  0  0  0
   -4.5510   -2.0608    1.6242 H   0  0  0  0  0  0  0  0  0  0  0  0
   -4.1140   -2.7798    0.0522 H   0  0  0  0  0  0  0  0  0  0  0  0
   -2.4570   -2.1098    1.2172 C   0  0  0  0  0  0  0  0  0  0  0  0
   -1.5600   -2.7438    1.7572 O   0  0  0  0  0  0  0  0  0  0  0  0
   -2.2870   -0.8898    0.7102 N   0  0  0  0  0  0  0  0  0  0  0  0
   -3.0820   -0.4218    0.2992 H   0  0  0  0  0  0  0  0  0  0  0  0
   -1.0240   -0.1468    0.7262 C   0  0  1  0  0  0  0  0  0  0  0  0
   -0.5949   -0.2136    1.7269 H   0  0  0  0  0  0  0  0  0  0  0  0
   -0.0511   -0.8032   -0.2725 C   0  0  0  0  0  0  0  0  0  0  0  0
   -0.5535   -0.8941   -1.2377 H   0  0  0  0  0  0  0  0  0  0  0  0
    0.8203   -0.1597   -0.4015 H   0  0  0  0  0  0  0  0  0  0  0  0
    0.4124   -2.2028    0.1606 C   0  0  0  0  0  0  0  0  0  0  0  0
    0.9069   -2.1408    1.1303 H   0  0  0  0  0  0  0  0  0  0  0  0
   -0.4560   -2.8589    0.2434 H   0  0  0  0  0  0  0  0  0  0  0  0
    1.3949   -2.7932   -0.8572 C   0  0  0  0  0  0  0  0  0  0  0  0
    0.9168   -2.8544   -1.8353 H   0  0  0  0  0  0  0  0  0  0  0  0
    2.2753   -2.1536   -0.9259 H   0  0  0  0  0  0  0  0  0  0  0  0
    1.8200   -4.1924   -0.4159 C   0  0  0  0  0  0  0  0  0  0  0  0
    2.3143   -4.1315    0.5523 H   0  0  0  0  0  0  0  0  0  0  0  0
    0.9401   -4.8277   -0.3295 H   0  0  0  0  0  0  0  0  0  0  0  0
    2.7442   -4.7974   -1.3819 N   0  0  0  0  0  0  0  0  0  0  0  0
    3.0144   -5.7126   -1.0525 H   0  0  0  0  0  0  0  0  0  0  0  0
    2.2796   -4.8857   -2.2744 H   0  0  0  0  0  0  0  0  0  0  0  0
   -1.2768    1.3354    0.4050 C   0  0  0  0  0  0  0  0  0  0  0  0
   -1.2375    1.7295   -0.7586 O   0  0  0  0  0  0  0  0  0  0  0  0
   -1.5250    2.1508    1.4366 N   0  0  0  0  0  0  0  0  0  0  0  0
   -1.5549    1.7487    2.3591 H   0  0  0  0  0  0  0  0  0  0  0  0
   -1.7695    3.5860    1.3019 C   0  0  0  0  0  0  0  0  0  0  0  0
   -2.5917    3.7563    0.6033 H   0  0  0  0  0  0  0  0  0  0  0  0
   -2.0237    4.0203    2.2699 H   0  0  0  0  0  0  0  0  0  0  0  0
   -0.8756    4.0755    0.9098 H   0  0  0  0  0  0  0  0  0  0  0  0
  5  6  2  0  0  0  0
  5  7  1  0  0  0  0
  2  3  1  0  0  0  0
  2  4  1  0  0  0  0
  2  5  1  0  0  0  0
  1  2  1  0  0  0  0
 26 27  2  0  0  0  0
 26 28  1  0  0  0  0
 23 24  1  0  0  0  0
 23 25  1  0  0  0  0
 20 21  1  0  0  0  0
 20 22  1  0  0  0  0
 20 23  1  0  0  0  0
 17 18  1  0  0  0  0
 17 19  1  0  0  0  0
 17 20  1  0  0  0  0
 14 15  1  0  0  0  0
 14 16  1  0  0  0  0
 14 17  1  0  0  0  0
 11 12  1  0  0  0  0
 11 13  1  0  0  0  0
 11 14  1  0  0  0  0
  9 10  1  0  0  0  0
  9 11  1  0  0  0  0
  9 26  1  0  0  0  0
  7  8  1  0  0  0  0
  7  9  1  0  0  0  0
 30 31  1  0  0  0  0
 30 32  1  0  0  0  0
 30 33  1  0  0  0  0
 28 29  1  0  0  0  0
 28 30  1  0  0  0  0
M  END
$$$$
default_name
  -OEChem-01062215323D

 33 32  0     1  0  0  0  0  0999 V2000
   -3.8420   -3.6918    1.5562 H   0  0  0  0  0  0  0  0  0  0  0  0
   -3.8430   -2.7008    1.1032 C   0  0  0  0  0  0  0  0  0  0  0  0
   -4.5510   -2.0608    1.6242 H   0  0  0  0  0  0  0  0  0  0  0  0
   -4.1140   -2.7798    0.0522 H   0  0  0  0  0  0  0  0  0  0  0  0
   -2.4570   -2.1098    1.2172 C   0  0  0  0  0  0  0  0  0  0  0  0
   -1.5600   -2.7438    1.7572 O   0  0  0  0  0  0  0  0  0  0  0  0
   -2.2870   -0.8898    0.7102 N   0  0  0  0  0  0  0  0  0  0  0  0
   -3.0820   -0.4218    0.2992 H   0  0  0  0  0  0  0  0  0  0  0  0
   -1.0240   -0.1468    0.7262 C   0  0  1  0  0  0  0  0  0  0  0  0
   -0.5949   -0.2136    1.7269 H   0  0  0  0  0  0  0  0  0  0  0  0
   -0.0511   -0.8032   -0.2725 C   0  0  0  0  0  0  0  0  0  0  0  0
   -0.5535   -0.8941   -1.2377 H   0  0  0  0  0  0  0  0  0  0  0  0
    0.8203   -0.1597   -0.4015 H   0  0  0  0  0  0  0  0  0  0  0  0
    0.4124   -2.2028    0.1606 C   0  0  0  0  0  0  0  0  0  0  0  0
    0.9069   -2.1408    1.1303 H   0  0  0  0  0  0  0  0  0  0  0  0
   -0.4560   -2.8589    0.2434 H   0  0  0  0  0  0  0  0  0  0  0  0
    1.3949   -2.7932   -0.8572 C   0  0  0  0  0  0  0  0  0  0  0  0
    0.9168   -2.8544   -1.8353 H   0  0  0  0  0  0  0  0  0  0  0  0
    2.2753   -2.1536   -0.9259 H   0  0  0  0  0  0  0  0  0  0  0  0
    1.8200   -4.1924   -0.4159 C   0  0  0  0  0  0  0  0  0  0  0  0
    2.3143   -4.1315    0.5523 H   0  0  0  0  0  0  0  0  0  0  0  0
    0.9401   -4.8277   -0.3295 H   0  0  0  0  0  0  0  0  0  0  0  0
    2.7442   -4.7974   -1.3819 N   0  0  0  0  0  0  0  0  0  0  0  0
    3.0144   -5.7126   -1.0525 H   0  0  0  0  0  0  0  0  0  0  0  0
    2.2796   -4.8857   -2.2744 H   0  0  0  0  0  0  0  0  0  0  0  0
   -1.2768    1.3354    0.4050 C   0  0  0  0  0  0  0  0  0  0  0  0
   -1.5113    1.6847   -0.7499 O   0  0  0  0  0  0  0  0  0  0  0  0
   -1.2185    2.2004    1.4243 N   0  0  0  0  0  0  0  0  0  0  0  0
   -1.0357    1.8340    2.3441 H   0  0  0  0  0  0  0  0  0  0  0  0
   -1.4188    3.6419    1.2838 C   0  0  0  0  0  0  0  0  0  0  0  0
   -2.3806    3.8357    0.8038 H   0  0  0  0  0  0  0  0  0  0  0  0
   -1.4008    4.1248    2.2619 H   0  0  0  0  0  0  0  0  0  0  0  0
   -0.6290    4.0630    0.6583 H   0  0  0  0  0  0  0  0  0  0  0  0
  5  6  2  0  0  0  0
  5  7  1  0  0  0  0
  2  3  1  0  0  0  0
  2  4  1  0  0  0  0
  2  5  1  0  0  0  0
  1  2  1  0  0  0  0
 26 27  2  0  0  0  0
 26 28  1  0  0  0  0
 23 24  1  0  0  0  0
 23 25  1  0  0  0  0
 20 21  1  0  0  0  0
 20 22  1  0  0  0  0
 20 23  1  0  0  0  0
 17 18  1  0  0  0  0
 17 19  1  0  0  0  0
 17 20  1  0  0  0  0
 14 15  1  0  0  0  0
 14 16  1  0  0  0  0
 14 17  1  0  0  0  0
 11 12  1  0  0  0  0
 11 13  1  0  0  0  0
 11 14  1  0  0  0  0
  9 10  1  0  0  0  0
  9 11  1  0  0  0  0
  9 26  1  0  0  0  0
  7  8  1  0  0  0  0
  7  9  1  0  0  0  0
 30 31  1  0  0  0  0
 30 32  1  0  0  0  0
 30 33  1  0  0  0  0
 28 29  1  0  0  0  0
 28 30  1  0  0  0  0
M  END
$$$$
default_name
  -OEChem-01062215323D

 33 32  0     1  0  0  0  0  0999 V2000
   -3.8420   -3.6918    1.5562 H   0  0  0  0  0  0  0  0  0  0  0  0
   -3.8430   -2.7008    1.1032 C   0  0  0  0  0  0  0  0  0  0  0  0
   -4.5510   -2.0608    1.6242 H   0  0  0  0  0  0  0  0  0  0  0  0
   -4.1140   -2.7798    0.0522 H   0  0  0  0  0  0  0  0  0  0  0  0
   -2.4570   -2.1098    1.2172 C   0  0  0  0  0  0  0  0  0  0  0  0
   -1.5600   -2.7438    1.7572 O   0  0  0  0  0  0  0  0  0  0  0  0
   -2.2870   -0.8898    0.7102 N   0  0  0  0  0  0  0  0  0  0  0  0
   -3.0820   -0.4218    0.2992 H   0  0  0  0  0  0  0  0  0  0  0  0
   -1.0240   -0.1468    0.7262 C   0  0  1  0  0  0  0  0  0  0  0  0
   -0.5949   -0.2136    1.7269 H   0  0  0  0  0  0  0  0  0  0  0  0
   -0.0511   -0.8032   -0.2725 C   0  0  0  0  0  0  0  0  0  0  0  0
   -0.5535   -0.8941   -1.2377 H   0  0  0  0  0  0  0  0  0  0  0  0
    0.8203   -0.1597   -0.4015 H   0  0  0  0  0  0  0  0  0  0  0  0
    0.4124   -2.2028    0.1606 C   0  0  0  0  0  0  0  0  0  0  0  0
    0.9069   -2.1408    1.1303 H   0  0  0  0  0  0  0  0  0  0  0  0
   -0.4560   -2.8589    0.2434 H   0  0  0  0  0  0  0  0  0  0  0  0
    1.3949   -2.7932   -0.8572 C   0  0  0  0  0  0  0  0  0  0  0  0
    0.9168   -2.8544   -1.8353 H   0  0  0  0  0  0  0  0  0  0  0  0
    2.2753   -2.1536   -0.9259 H   0  0  0  0  0  0  0  0  0  0  0  0
    1.8200   -4.1924   -0.4159 C   0  0  0  0  0  0  0  0  0  0  0  0
    2.3143   -4.1315    0.5523 H   0  0  0  0  0  0  0  0  0  0  0  0
    0.9401   -4.8277   -0.3295 H   0  0  0  0  0  0  0  0  0  0  0  0
    2.7442   -4.7974   -1.3819 N   0  0  0  0  0  0  0  0  0  0  0  0
    3.0144   -5.7126   -1.0525 H   0  0  0  0  0  0  0  0  0  0  0  0
    2.2796   -4.8857   -2.2744 H   0  0  0  0  0  0  0  0  0  0  0  0
   -1.2768    1.3354    0.4050 C   0  0  0  0  0  0  0  0  0  0  0  0
   -1.7760    1.6566   -0.6713 O   0  0  0  0  0  0  0  0  0  0  0  0
   -0.9228    2.2313    1.3338 N   0  0  0  0  0  0  0  0  0  0  0  0
   -0.5334    1.8877    2.1964 H   0  0  0  0  0  0  0  0  0  0  0  0
   -1.0816    3.6762    1.1765 C   0  0  0  0  0  0  0  0  0  0  0  0
   -2.1223    3.9096    0.9413 H   0  0  0  0  0  0  0  0  0  0  0  0
   -0.7955    4.1917    2.0943 H   0  0  0  0  0  0  0  0  0  0  0  0
   -0.4543    4.0270    0.3544 H   0  0  0  0  0  0  0  0  0  0  0  0
  5  6  2  0  0  0  0
  5  7  1  0  0  0  0
  2  3  1  0  0  0  0
  2  4  1  0  0  0  0
  2  5  1  0  0  0  0
  1  2  1  0  0  0  0
 26 27  2  0  0  0  0
 26 28  1  0  0  0  0
 23 24  1  0  0  0  0
 23 25  1  0  0  0  0
 20 21  1  0  0  0  0
 20 22  1  0  0  0  0
 20 23  1  0  0  0  0
 17 18  1  0  0  0  0
 17 19  1  0  0  0  0
 17 20  1  0  0  0  0
 14 15  1  0  0  0  0
 14 16  1  0  0  0  0
 14 17  1  0  0  0  0
 11 12  1  0  0  0  0
 11 13  1  0  0  0  0
 11 14  1  0  0  0  0
  9 10  1  0  0  0  0
  9 11  1  0  0  0  0
  9 26  1  0  0  0  0
  7  8  1  0  0  0  0
  7  9  1  0  0  0  0
 30 31  1  0  0  0  0
 30 32  1  0  0  0  0
 30 33  1  0  0  0  0
 28 29  1  0  0  0  0
 28 30  1  0  0  0  0
M  END
$$$$
default_name
  -OEChem-01062215323D

 33 32  0     1  0  0  0  0  0999 V2000
   -3.8420   -3.6918    1.5562 H   0  0  0  0  0  0  0  0  0  0  0  0
   -3.8430   -2.7008    1.1032 C   0  0  0  0  0  0  0  0  0  0  0  0
   -4.5510   -2.0608    1.6242 H   0  0  0  0  0  0  0  0  0  0  0  0
   -4.1140   -2.7798    0.0522 H   0  0  0  0  0  0  0  0  0  0  0  0
   -2.4570   -2.1098    1.2172 C   0  0  0  0  0  0  0  0  0  0  0  0
   -1.5600   -2.7438    1.7572 O   0  0  0  0  0  0  0  0  0  0  0  0
   -2.2870   -0.8898    0.7102 N   0  0  0  0  0  0  0  0  0  0  0  0
   -3.0820   -0.4218    0.2992 H   0  0  0  0  0  0  0  0  0  0  0  0
   -1.0240   -0.1468    0.7262 C   0  0  1  0  0  0  0  0  0  0  0  0
   -0.5949   -0.2136    1.7269 H   0  0  0  0  0  0  0  0  0  0  0  0
   -0.0511   -0.8032   -0.2725 C   0  0  0  0  0  0  0  0  0  0  0  0
   -0.5535   -0.8941   -1.2377 H   0  0  0  0  0  0  0  0  0  0  0  0
    0.8203   -0.1597   -0.4015 H   0  0  0  0  0  0  0  0  0  0  0  0
    0.4124   -2.2028    0.1606 C   0  0  0  0  0  0  0  0  0  0  0  0
    0.9069   -2.1408    1.1303 H   0  0  0  0  0  0  0  0  0  0  0  0
   -0.4560   -2.8589    0.2434 H   0  0  0  0  0  0  0  0  0  0  0  0
    1.3949   -2.7932   -0.8572 C   0  0  0  0  0  0  0  0  0  0  0  0
    0.9168   -2.8544   -1.8353 H   0  0  0  0  0  0  0  0  0  0  0  0
    2.2753   -2.1536   -0.9259 H   0  0  0  0  0  0  0  0  0  0  0  0
    1.8200   -4.1924   -0.4159 C   0  0  0  0  0  0  0  0  0  0  0  0
    2.3143   -4.1315    0.5523 H   0  0  0  0  0  0  0  0  0  0  0  0
    0.9401   -4.8277   -0.3295 H   0  0  0  0  0  0  0  0  0  0  0  0
    2.7442   -4.7974   -1.3819 N   0  0  0  0  0  0  0  0  0  0  0  0
    3.0144   -5.7126   -1.0525 H   0  0  0  0  0  0  0  0  0  0  0  0
    2.2796   -4.8857   -2.2744 H   0  0  0  0  0  0  0  0  0  0  0  0
   -1.2768    1.3354    0.4050 C   0  0  0  0  0  0  0  0  0  0  0  0
   -2.0137    1.6470   -0.5281 O   0  0  0  0  0  0  0  0  0  0  0  0
   -0.6581    2.2412    1.1714 N   0  0  0  0  0  0  0  0  0  0  0  0
   -0.0821    1.9061    1.9261 H   0  0  0  0  0  0  0  0  0  0  0  0
   -0.7808    3.6865    0.9872 C   0  0  0  0  0  0  0  0  0  0  0  0
   -1.8346    3.9728    1.0066 H   0  0  0  0  0  0  0  0  0  0  0  0
   -0.2490    4.2165    1.7786 H   0  0  0  0  0  0  0  0  0  0  0  0
   -0.3633    3.9698    0.0188 H   0  0  0  0  0  0  0  0  0  0  0  0
  5  6  2  0  0  0  0
  5  7  1  0  0  0  0
  2  3  1  0  0  0  0
  2  4  1  0  0  0  0
  2  5  1  0  0  0  0
  1  2  1  0  0  0  0
 26 27  2  0  0  0  0
 26 28  1  0  0  0  0
 23 24  1  0  0  0  0
 23 25  1  0  0  0  0
 20 21  1  0  0  0  0
 20 22  1  0  0  0  0
 20 23  1  0  0  0  0
 17 18  1  0  0  0  0
 17 19  1  0  0  0  0
 17 20  1  0  0  0  0
 14 15  1  0  0  0  0
 14 16  1  0  0  0  0
 14 17  1  0  0  0  0
 11 12  1  0  0  0  0
 11 13  1  0  0  0  0
 11 14  1  0  0  0  0
  9 10  1  0  0  0  0
  9 11  1  0  0  0  0
  9 26  1  0  0  0  0
  7  8  1  0  0  0  0
  7  9  1  0  0  0  0
 30 31  1  0  0  0  0
 30 32  1  0  0  0  0
 30 33  1  0  0  0  0
 28 29  1  0  0  0  0
 28 30  1  0  0  0  0
M  END
$$$$
default_name
  -OEChem-01062215323D

 33 32  0     1  0  0  0  0  0999 V2000
   -3.8420   -3.6918    1.5562 H   0  0  0  0  0  0  0  0  0  0  0  0
   -3.8430   -2.7008    1.1032 C   0  0  0  0  0  0  0  0  0  0  0  0
   -4.5510   -2.0608    1.6242 H   0  0  0  0  0  0  0  0  0  0  0  0
   -4.1140   -2.7798    0.0522 H   0  0  0  0  0  0  0  0  0  0  0  0
   -2.4570   -2.1098    1.2172 C   0  0  0  0  0  0  0  0  0  0  0  0
   -1.5600   -2.7438    1.7572 O   0  0  0  0  0  0  0  0  0  0  0  0
   -2.2870   -0.8898    0.7102 N   0  0  0  0  0  0  0  0  0  0  0  0
   -3.0820   -0.4218    0.2992 H   0  0  0  0  0  0  0  0  0  0  0  0
   -1.0240   -0.1468    0.7262 C   0  0  1  0  0  0  0  0  0  0  0  0
   -0.5949   -0.2136    1.7269 H   0  0  0  0  0  0  0  0  0  0  0  0
   -0.0511   -0.8032   -0.2725 C   0  0  0  0  0  0  0  0  0  0  0  0
   -0.5535   -0.8941   -1.2377 H   0  0  0  0  0  0  0  0  0  0  0  0
    0.8203   -0.1597   -0.4015 H   0  0  0  0  0  0  0  0  0  0  0  0
    0.4124   -2.2028    0.1606 C   0  0  0  0  0  0  0  0  0  0  0  0
    0.9069   -2.1408    1.1303 H   0  0  0  0  0  0  0  0  0  0  0  0
   -0.4560   -2.8589    0.2434 H   0  0  0  0  0  0  0  0  0  0  0  0
    1.3949   -2.7932   -0.8572 C   0  0  0  0  0  0  0  0  0  0  0  0
    0.9168   -2.8544   -1.8353 H   0  0  0  0  0  0  0  0  0  0  0  0
    2.2753   -2.1536   -0.9259 H   0  0  0  0  0  0  0  0  0  0  0  0
    1.8200   -4.1924   -0.4159 C   0  0  0  0  0  0  0  0  0  0  0  0
    2.3143   -4.1315    0.5523 H   0  0  0  0  0  0  0  0  0  0  0  0
    0.9401   -4.8277   -0.3295 H   0  0  0  0  0  0  0  0  0  0  0  0
    2.7442   -4.7974   -1.3819 N   0  0  0  0  0  0  0  0  0  0  0  0
    3.0144   -5.7126   -1.0525 H   0  0  0  0  0  0  0  0  0  0  0  0
    2.2796   -4.8857   -2.2744 H   0  0  0  0  0  0  0  0  0  0  0  0
   -1.2768    1.3354    0.4050 C   0  0  0  0  0  0  0  0  0  0  0  0
   -2.2080    1.6568   -0.3301 O   0  0  0  0  0  0  0  0  0  0  0  0
   -0.4425    2.2296    0.9480 N   0  0  0  0  0  0  0  0  0  0  0  0
    0.2873    1.8880    1.5516 H   0  0  0  0  0  0  0  0  0  0  0  0
   -0.5369    3.6721    0.7288 C   0  0  0  0  0  0  0  0  0  0  0  0
   -1.5370    4.0211    0.9952 H   0  0  0  0  0  0  0  0  0  0  0  0
    0.2014    4.1975    1.3362 H   0  0  0  0  0  0  0  0  0  0  0  0
   -0.3622    3.8953   -0.3257 H   0  0  0  0  0  0  0  0  0  0  0  0
  5  6  2  0  0  0  0
  5  7  1  0  0  0  0
  2  3  1  0  0  0  0
  2  4  1  0  0  0  0
  2  5  1  0  0  0  0
  1  2  1  0  0  0  0
 26 27  2  0  0  0  0
 26 28  1  0  0  0  0
 23 24  1  0  0  0  0
 23 25  1  0  0  0  0
 20 21  1  0  0  0  0
 20 22  1  0  0  0  0
 20 23  1  0  0  0  0
 17 18  1  0  0  0  0
 17 19  1  0  0  0  0
 17 20  1  0  0  0  0
 14 15  1  0  0  0  0
 14 16  1  0  0  0  0
 14 17  1  0  0  0  0
 11 12  1  0  0  0  0
 11 13  1  0  0  0  0
 11 14  1  0  0  0  0
  9 10  1  0  0  0  0
  9 11  1  0  0  0  0
  9 26  1  0  0  0  0
  7  8  1  0  0  0  0
  7  9  1  0  0  0  0
 30 31  1  0  0  0  0
 30 32  1  0  0  0  0
 30 33  1  0  0  0  0
 28 29  1  0  0  0  0
 28 30  1  0  0  0  0
M  END
$$$$
default_name
  -OEChem-01062215323D

 33 32  0     1  0  0  0  0  0999 V2000
   -3.8420   -3.6918    1.5562 H   0  0  0  0  0  0  0  0  0  0  0  0
   -3.8430   -2.7008    1.1032 C   0  0  0  0  0  0  0  0  0  0  0  0
   -4.5510   -2.0608    1.6242 H   0  0  0  0  0  0  0  0  0  0  0  0
   -4.1140   -2.7798    0.0522 H   0  0  0  0  0  0  0  0  0  0  0  0
   -2.4570   -2.1098    1.2172 C   0  0  0  0  0  0  0  0  0  0  0  0
   -1.5600   -2.7438    1.7572 O   0  0  0  0  0  0  0  0  0  0  0  0
   -2.2870   -0.8898    0.7102 N   0  0  0  0  0  0  0  0  0  0  0  0
   -3.0820   -0.4218    0.2992 H   0  0  0  0  0  0  0  0  0  0  0  0
   -1.0240   -0.1468    0.7262 C   0  0  1  0  0  0  0  0  0  0  0  0
   -0.5949   -0.2136    1.7269 H   0  0  0  0  0  0  0  0  0  0  0  0
   -0.0511   -0.8032   -0.2725 C   0  0  0  0  0  0  0  0  0  0  0  0
   -0.5535   -0.8941   -1.2377 H   0  0  0  0  0  0  0  0  0  0  0  0
    0.8203   -0.1597   -0.4015 H   0  0  0  0  0  0  0  0  0  0  0  0
    0.4124   -2.2028    0.1606 C   0  0  0  0  0  0  0  0  0  0  0  0
    0.9069   -2.1408    1.1303 H   0  0  0  0  0  0  0  0  0  0  0  0
   -0.4560   -2.8589    0.2434 H   0  0  0  0  0  0  0  0  0  0  0  0
    1.3949   -2.7932   -0.8572 C   0  0  0  0  0  0  0  0  0  0  0  0
    0.9168   -2.8544   -1.8353 H   0  0  0  0  0  0  0  0  0  0  0  0
    2.2753   -2.1536   -0.9259 H   0  0  0  0  0  0  0  0  0  0  0  0
    1.8200   -4.1924   -0.4159 C   0  0  0  0  0  0  0  0  0  0  0  0
    2.3143   -4.1315    0.5523 H   0  0  0  0  0  0  0  0  0  0  0  0
    0.9401   -4.8277   -0.3295 H   0  0  0  0  0  0  0  0  0  0  0  0
    2.7442   -4.7974   -1.3819 N   0  0  0  0  0  0  0  0  0  0  0  0
    3.0144   -5.7126   -1.0525 H   0  0  0  0  0  0  0  0  0  0  0  0
    2.2796   -4.8857   -2.2744 H   0  0  0  0  0  0  0  0  0  0  0  0
   -1.2768    1.3354    0.4050 C   0  0  0  0  0  0  0  0  0  0  0  0
   -2.3458    1.6852   -0.0908 O   0  0  0  0  0  0  0  0  0  0  0  0
   -0.2905    2.1972    0.6789 N   0  0  0  0  0  0  0  0  0  0  0  0
    0.5498    1.8346    1.0985 H   0  0  0  0  0  0  0  0  0  0  0  0
   -0.3666    3.6340    0.4191 C   0  0  0  0  0  0  0  0  0  0  0  0
   -1.2497    4.0512    0.9079 H   0  0  0  0  0  0  0  0  0  0  0  0
    0.5251    4.1360    0.7973 H   0  0  0  0  0  0  0  0  0  0  0  0
   -0.4511    3.8087   -0.6555 H   0  0  0  0  0  0  0  0  0  0  0  0
  5  6  2  0  0  0  0
  5  7  1  0  0  0  0
  2  3  1  0  0  0  0
  2  4  1  0  0  0  0
  2  5  1  0  0  0  0
  1  2  1  0  0  0  0
 26 27  2  0  0  0  0
 26 28  1  0  0  0  0
 23 24  1  0  0  0  0
 23 25  1  0  0  0  0
 20 21  1  0  0  0  0
 20 22  1  0  0  0  0
 20 23  1  0  0  0  0
 17 18  1  0  0  0  0
 17 19  1  0  0  0  0
 17 20  1  0  0  0  0
 14 15  1  0  0  0  0
 14 16  1  0  0  0  0
 14 17  1  0  0  0  0
 11 12  1  0  0  0  0
 11 13  1  0  0  0  0
 11 14  1  0  0  0  0
  9 10  1  0  0  0  0
  9 11  1  0  0  0  0
  9 26  1  0  0  0  0
  7  8  1  0  0  0  0
  7  9  1  0  0  0  0
 30 31  1  0  0  0  0
 30 32  1  0  0  0  0
 30 33  1  0  0  0  0
 28 29  1  0  0  0  0
 28 30  1  0  0  0  0
M  END
$$$$
default_name
  -OEChem-01062215323D

 33 32  0     1  0  0  0  0  0999 V2000
   -3.8420   -3.6918    1.5562 H   0  0  0  0  0  0  0  0  0  0  0  0
   -3.8430   -2.7008    1.1032 C   0  0  0  0  0  0  0  0  0  0  0  0
   -4.5510   -2.0608    1.6242 H   0  0  0  0  0  0  0  0  0  0  0  0
   -4.1140   -2.7798    0.0522 H   0  0  0  0  0  0  0  0  0  0  0  0
   -2.4570   -2.1098    1.2172 C   0  0  0  0  0  0  0  0  0  0  0  0
   -1.5600   -2.7438    1.7572 O   0  0  0  0  0  0  0  0  0  0  0  0
   -2.2870   -0.8898    0.7102 N   0  0  0  0  0  0  0  0  0  0  0  0
   -3.0820   -0.4218    0.2992 H   0  0  0  0  0  0  0  0  0  0  0  0
   -1.0240   -0.1468    0.7262 C   0  0  1  0  0  0  0  0  0  0  0  0
   -0.4678   -0.4274    1.6218 H   0  0  0  0  0  0  0  0  0  0  0  0
   -0.1989   -0.5467   -0.5124 C   0  0  0  0  0  0  0  0  0  0  0  0
   -0.8250   -0.4291   -1.3992 H   0  0  0  0  0  0  0  0  0  0  0  0
    0.6556    0.1247   -0.6074 H   0  0  0  0  0  0  0  0  0  0  0  0
    0.3006   -1.9992   -0.4672 C   0  0  0  0  0  0  0  0  0  0  0  0
    0.9191   -2.1462    0.4186 H   0  0  0  0  0  0  0  0  0  0  0  0
   -0.5572   -2.6725   -0.4200 H   0  0  0  0  0  0  0  0  0  0  0  0
    1.1335   -2.3305   -1.7107 C   0  0  0  0  0  0  0  0  0  0  0  0
    0.5302   -2.1805   -2.6066 H   0  0  0  0  0  0  0  0  0  0  0  0
    2.0049   -1.6761   -1.7496 H   0  0  0  0  0  0  0  0  0  0  0  0
    1.5960   -3.7851   -1.6525 C   0  0  0  0  0  0  0  0  0  0  0  0
    2.2141   -3.9327   -0.7684 H   0  0  0  0  0  0  0  0  0  0  0  0
    0.7275   -4.4391   -1.5957 H   0  0  0  0  0  0  0  0  0  0  0  0
    2.3778   -4.1431   -2.8416 N   0  0  0  0  0  0  0  0  0  0  0  0
    2.6779   -5.1037   -2.7631 H   0  0  0  0  0  0  0  0  0  0  0  0
    1.7988   -4.0385   -3.6626 H   0  0  0  0  0  0  0  0  0  0  0  0
   -1.2990    1.3650    0.7800 C   0  0  0  0  0  0  0  0  0  0  0  0
   -2.4555    1.7812    0.7939 O   0  0  0  0  0  0  0  0  0  0  0  0
   -0.2373    2.1792    0.7999 N   0  0  0  0  0  0  0  0  0  0  0  0
    0.6783    1.7605    0.8013 H   0  0  0  0  0  0  0  0  0  0  0  0
   -0.3281    3.6380    0.8347 C   0  0  0  0  0  0  0  0  0  0  0  0
   -0.9387    3.9496    1.6850 H   0  0  0  0  0  0  0  0  0  0  0  0
    0.6660    4.0783    0.9248 H   0  0  0  0  0  0  0  0  0  0  0  0
   -0.8012    3.9983   -0.0812 H   0  0  0  0  0  0  0  0  0  0  0  0
  5  6  2  0  0  0  0
  5  7  1  0  0  0  0
  2  3  1  0  0  0  0
  2  4  1  0  0  0  0
  2  5  1  0  0  0  0
  1  2  1  0  0  0  0
 26 27  2  0  0  0  0
 26 28  1  0  0  0  0
 23 24  1  0  0  0  0
 23 25  1  0  0  0  0
 20 21  1  0  0  0  0
 20 22  1  0  0  0  0
 20 23  1  0  0  0  0
 17 18  1  0  0  0  0
 17 19  1  0  0  0  0
 17 20  1  0  0  0  0
 14 15  1  0  0  0  0
 14 16  1  0  0  0  0
 14 17  1  0  0  0  0
 11 12  1  0  0  0  0
 11 13  1  0  0  0  0
 11 14  1  0  0  0  0
  9 10  1  0  0  0  0
  9 11  1  0  0  0  0
  9 26  1  0  0  0  0
  7  8  1  0  0  0  0
  7  9  1  0  0  0  0
 30 31  1  0  0  0  0
 30 32  1  0  0  0  0
 30 33  1  0  0  0  0
 28 29  1  0  0  0  0
 28 30  1  0  0  0  0
M  END
$$$$
default_name
  -OEChem-01062215323D

 33 32  0     1  0  0  0  0  0999 V2000
   -3.8420   -3.6918    1.5562 H   0  0  0  0  0  0  0  0  0  0  0  0
   -3.8430   -2.7008    1.1032 C   0  0  0  0  0  0  0  0  0  0  0  0
   -4.5510   -2.0608    1.6242 H   0  0  0  0  0  0  0  0  0  0  0  0
   -4.1140   -2.7798    0.0522 H   0  0  0  0  0  0  0  0  0  0  0  0
   -2.4570   -2.1098    1.2172 C   0  0  0  0  0  0  0  0  0  0  0  0
   -1.5600   -2.7438    1.7572 O   0  0  0  0  0  0  0  0  0  0  0  0
   -2.2870   -0.8898    0.7102 N   0  0  0  0  0  0  0  0  0  0  0  0
   -3.0820   -0.4218    0.2992 H   0  0  0  0  0  0  0  0  0  0  0  0
   -1.0240   -0.1468    0.7262 C   0  0  1  0  0  0  0  0  0  0  0  0
   -0.4678   -0.4274    1.6218 H   0  0  0  0  0  0  0  0  0  0  0  0
   -0.1989   -0.5467   -0.5124 C   0  0  0  0  0  0  0  0  0  0  0  0
   -0.8250   -0.4291   -1.3992 H   0  0  0  0  0  0  0  0  0  0  0  0
    0.6556    0.1247   -0.6074 H   0  0  0  0  0  0  0  0  0  0  0  0
    0.3006   -1.9992   -0.4672 C   0  0  0  0  0  0  0  0  0  0  0  0
    0.9191   -2.1462    0.4186 H   0  0  0  0  0  0  0  0  0  0  0  0
   -0.5572   -2.6725   -0.4200 H   0  0  0  0  0  0  0  0  0  0  0  0
    1.1335   -2.3305   -1.7107 C   0  0  0  0  0  0  0  0  0  0  0  0
    0.5302   -2.1805   -2.6066 H   0  0  0  0  0  0  0  0  0  0  0  0
    2.0049   -1.6761   -1.7496 H   0  0  0  0  0  0  0  0  0  0  0  0
    1.5960   -3.7851   -1.6525 C   0  0  0  0  0  0  0  0  0  0  0  0
    2.2141   -3.9327   -0.7684 H   0  0  0  0  0  0  0  0  0  0  0  0
    0.7275   -4.4391   -1.5957 H   0  0  0  0  0  0  0  0  0  0  0  0
    2.3778   -4.1431   -2.8416 N   0  0  0  0  0  0  0  0  0  0  0  0
    2.6779   -5.1037   -2.7631 H   0  0  0  0  0  0  0  0  0  0  0  0
    1.7988   -4.0385   -3.6626 H   0  0  0  0  0  0  0  0  0  0  0  0
   -1.2990    1.3650    0.7800 C   0  0  0  0  0  0  0  0  0  0  0  0
   -2.4201    1.7778    1.0692 O   0  0  0  0  0  0  0  0  0  0  0  0
   -0.2795    2.1825    0.4921 N   0  0  0  0  0  0  0  0  0  0  0  0
    0.6126    1.7671    0.2792 H   0  0  0  0  0  0  0  0  0  0  0  0
   -0.3804    3.6410    0.4830 C   0  0  0  0  0  0  0  0  0  0  0  0
   -0.7594    3.9907    1.4458 H   0  0  0  0  0  0  0  0  0  0  0  0
    0.5972    4.0881    0.2970 H   0  0  0  0  0  0  0  0  0  0  0  0
   -1.0762    3.9560   -0.2975 H   0  0  0  0  0  0  0  0  0  0  0  0
  5  6  2  0  0  0  0
  5  7  1  0  0  0  0
  2  3  1  0  0  0  0
  2  4  1  0  0  0  0
  2  5  1  0  0  0  0
  1  2  1  0  0  0  0
 26 27  2  0  0  0  0
 26 28  1  0  0  0  0
 23 24  1  0  0  0  0
 23 25  1  0  0  0  0
 20 21  1  0  0  0  0
 20 22  1  0  0  0  0
 20 23  1  0  0  0  0
 17 18  1  0  0  0  0
 17 19  1  0  0  0  0
 17 20  1  0  0  0  0
 14 15  1  0  0  0  0
 14 16  1  0  0  0  0
 14 17  1  0  0  0  0
 11 12  1  0  0  0  0
 11 13  1  0  0  0  0
 11 14  1  0  0  0  0
  9 10  1  0  0  0  0
  9 11  1  0  0  0  0
  9 26  1  0  0  0  0
  7  8  1  0  0  0  0
  7  9  1  0  0  0  0
 30 31  1  0  0  0  0
 30 32  1  0  0  0  0
 30 33  1  0  0  0  0
 28 29  1  0  0  0  0
 28 30  1  0  0  0  0
M  END
$$$$
default_name
  -OEChem-01062215323D

 33 32  0     1  0  0  0  0  0999 V2000
   -3.8420   -3.6918    1.5562 H   0  0  0  0  0  0  0  0  0  0  0  0
   -3.8430   -2.7008    1.1032 C   0  0  0  0  0  0  0  0  0  0  0  0
   -4.5510   -2.0608    1.6242 H   0  0  0  0  0  0  0  0  0  0  0  0
   -4.1140   -2.7798    0.0522 H   0  0  0  0  0  0  0  0  0  0  0  0
   -2.4570   -2.1098    1.2172 C   0  0  0  0  0  0  0  0  0  0  0  0
   -1.5600   -2.7438    1.7572 O   0  0  0  0  0  0  0  0  0  0  0  0
   -2.2870   -0.8898    0.7102 N   0  0  0  0  0  0  0  0  0  0  0  0
   -3.0820   -0.4218    0.2992 H   0  0  0  0  0  0  0  0  0  0  0  0
   -1.0240   -0.1468    0.7262 C   0  0  1  0  0  0  0  0  0  0  0  0
   -0.4678   -0.4274    1.6218 H   0  0  0  0  0  0  0  0  0  0  0  0
   -0.1989   -0.5467   -0.5124 C   0  0  0  0  0  0  0  0  0  0  0  0
   -0.8250   -0.4291   -1.3992 H   0  0  0  0  0  0  0  0  0  0  0  0
    0.6556    0.1247   -0.6074 H   0  0  0  0  0  0  0  0  0  0  0  0
    0.3006   -1.9992   -0.4672 C   0  0  0  0  0  0  0  0  0  0  0  0
    0.9191   -2.1462    0.4186 H   0  0  0  0  0  0  0  0  0  0  0  0
   -0.5572   -2.6725   -0.4200 H   0  0  0  0  0  0  0  0  0  0  0  0
    1.1335   -2.3305   -1.7107 C   0  0  0  0  0  0  0  0  0  0  0  0
    0.5302   -2.1805   -2.6066 H   0  0  0  0  0  0  0  0  0  0  0  0
    2.0049   -1.6761   -1.7496 H   0  0  0  0  0  0  0  0  0  0  0  0
    1.5960   -3.7851   -1.6525 C   0  0  0  0  0  0  0  0  0  0  0  0
    2.2141   -3.9327   -0.7684 H   0  0  0  0  0  0  0  0  0  0  0  0
    0.7275   -4.4391   -1.5957 H   0  0  0  0  0  0  0  0  0  0  0  0
    2.3778   -4.1431   -2.8416 N   0  0  0  0  0  0  0  0  0  0  0  0
    2.6779   -5.1037   -2.7631 H   0  0  0  0  0  0  0  0  0  0  0  0
    1.7988   -4.0385   -3.6626 H   0  0  0  0  0  0  0  0  0  0  0  0
   -1.2990    1.3650    0.7800 C   0  0  0  0  0  0  0  0  0  0  0  0
   -2.3158    1.7876    1.3263 O   0  0  0  0  0  0  0  0  0  0  0  0
   -0.3986    2.1710    0.2054 N   0  0  0  0  0  0  0  0  0  0  0  0
    0.4161    1.7487   -0.2088 H   0  0  0  0  0  0  0  0  0  0  0  0
   -0.5205    3.6272    0.1565 C   0  0  0  0  0  0  0  0  0  0  0  0
   -0.6474    4.0210    1.1673 H   0  0  0  0  0  0  0  0  0  0  0  0
    0.3709    4.0679   -0.2923 H   0  0  0  0  0  0  0  0  0  0  0  0
   -1.3965    3.9026   -0.4344 H   0  0  0  0  0  0  0  0  0  0  0  0
  5  6  2  0  0  0  0
  5  7  1  0  0  0  0
  2  3  1  0  0  0  0
  2  4  1  0  0  0  0
  2  5  1  0  0  0  0
  1  2  1  0  0  0  0
 26 27  2  0  0  0  0
 26 28  1  0  0  0  0
 23 24  1  0  0  0  0
 23 25  1  0  0  0  0
 20 21  1  0  0  0  0
 20 22  1  0  0  0  0
 20 23  1  0  0  0  0
 17 18  1  0  0  0  0
 17 19  1  0  0  0  0
 17 20  1  0  0  0  0
 14 15  1  0  0  0  0
 14 16  1  0  0  0  0
 14 17  1  0  0  0  0
 11 12  1  0  0  0  0
 11 13  1  0  0  0  0
 11 14  1  0  0  0  0
  9 10  1  0  0  0  0
  9 11  1  0  0  0  0
  9 26  1  0  0  0  0
  7  8  1  0  0  0  0
  7  9  1  0  0  0  0
 30 31  1  0  0  0  0
 30 32  1  0  0  0  0
 30 33  1  0  0  0  0
 28 29  1  0  0  0  0
 28 30  1  0  0  0  0
M  END
$$$$
default_name
  -OEChem-01062215323D

 33 32  0     1  0  0  0  0  0999 V2000
   -3.8420   -3.6918    1.5562 H   0  0  0  0  0  0  0  0  0  0  0  0
   -3.8430   -2.7008    1.1032 C   0  0  0  0  0  0  0  0  0  0  0  0
   -4.5510   -2.0608    1.6242 H   0  0  0  0  0  0  0  0  0  0  0  0
   -4.1140   -2.7798    0.0522 H   0  0  0  0  0  0  0  0  0  0  0  0
   -2.4570   -2.1098    1.2172 C   0  0  0  0  0  0  0  0  0  0  0  0
   -1.5600   -2.7438    1.7572 O   0  0  0  0  0  0  0  0  0  0  0  0
   -2.2870   -0.8898    0.7102 N   0  0  0  0  0  0  0  0  0  0  0  0
   -3.0820   -0.4218    0.2992 H   0  0  0  0  0  0  0  0  0  0  0  0
   -1.0240   -0.1468    0.7262 C   0  0  1  0  0  0  0  0  0  0  0  0
   -0.4678   -0.4274    1.6218 H   0  0  0  0  0  0  0  0  0  0  0  0
   -0.1989   -0.5467   -0.5124 C   0  0  0  0  0  0  0  0  0  0  0  0
   -0.8250   -0.4291   -1.3992 H   0  0  0  0  0  0  0  0  0  0  0  0
    0.6556    0.1247   -0.6074 H   0  0  0  0  0  0  0  0  0  0  0  0
    0.3006   -1.9992   -0.4672 C   0  0  0  0  0  0  0  0  0  0  0  0
    0.9191   -2.1462    0.4186 H   0  0  0  0  0  0  0  0  0  0  0  0
   -0.5572   -2.6725   -0.4200 H   0  0  0  0  0  0  0  0  0  0  0  0
    1.1335   -2.3305   -1.7107 C   0  0  0  0  0  0  0  0  0  0  0  0
    0.5302   -2.1805   -2.6066 H   0  0  0  0  0  0  0  0  0  0  0  0
    2.0049   -1.6761   -1.7496 H   0  0  0  0  0  0  0  0  0  0  0  0
    1.5960   -3.7851   -1.6525 C   0  0  0  0  0  0  0  0  0  0  0  0
    2.2141   -3.9327   -0.7684 H   0  0  0  0  0  0  0  0  0  0  0  0
    0.7275   -4.4391   -1.5957 H   0  0  0  0  0  0  0  0  0  0  0  0
    2.3778   -4.1431   -2.8416 N   0  0  0  0  0  0  0  0  0  0  0  0
    2.6779   -5.1037   -2.7631 H   0  0  0  0  0  0  0  0  0  0  0  0
    1.7988   -4.0385   -3.6626 H   0  0  0  0  0  0  0  0  0  0  0  0
   -1.2990    1.3650    0.7800 C   0  0  0  0  0  0  0  0  0  0  0  0
   -2.1497    1.8100    1.5476 O   0  0  0  0  0  0  0  0  0  0  0  0
   -0.5865    2.1456   -0.0408 N   0  0  0  0  0  0  0  0  0  0  0  0
    0.1024    1.7066   -0.6293 H   0  0  0  0  0  0  0  0  0  0  0  0
   -0.7387    3.5974   -0.1226 C   0  0  0  0  0  0  0  0  0  0  0  0
   -0.6103    4.0384    0.8683 H   0  0  0  0  0  0  0  0  0  0  0  0
    0.0025    4.0191   -0.8031 H   0  0  0  0  0  0  0  0  0  0  0  0
   -1.7402    3.8418   -0.4827 H   0  0  0  0  0  0  0  0  0  0  0  0
  5  6  2  0  0  0  0
  5  7  1  0  0  0  0
  2  3  1  0  0  0  0
  2  4  1  0  0  0  0
  2  5  1  0  0  0  0
  1  2  1  0  0  0  0
 26 27  2  0  0  0  0
 26 28  1  0  0  0  0
 23 24  1  0  0  0  0
 23 25  1  0  0  0  0
 20 21  1  0  0  0  0
 20 22  1  0  0  0  0
 20 23  1  0  0  0  0
 17 18  1  0  0  0  0
 17 19  1  0  0  0  0
 17 20  1  0  0  0  0
 14 15  1  0  0  0  0
 14 16  1  0  0  0  0
 14 17  1  0  0  0  0
 11 12  1  0  0  0  0
 11 13  1  0  0  0  0
 11 14  1  0  0  0  0
  9 10  1  0  0  0  0
  9 11  1  0  0  0  0
  9 26  1  0  0  0  0
  7  8  1  0  0  0  0
  7  9  1  0  0  0  0
 30 31  1  0  0  0  0
 30 32  1  0  0  0  0
 30 33  1  0  0  0  0
 28 29  1  0  0  0  0
 28 30  1  0  0  0  0
M  END
$$$$
default_name
  -OEChem-01062215323D

 33 32  0     1  0  0  0  0  0999 V2000
   -3.8420   -3.6918    1.5562 H   0  0  0  0  0  0  0  0  0  0  0  0
   -3.8430   -2.7008    1.1032 C   0  0  0  0  0  0  0  0  0  0  0  0
   -4.5510   -2.0608    1.6242 H   0  0  0  0  0  0  0  0  0  0  0  0
   -4.1140   -2.7798    0.0522 H   0  0  0  0  0  0  0  0  0  0  0  0
   -2.4570   -2.1098    1.2172 C   0  0  0  0  0  0  0  0  0  0  0  0
   -1.5600   -2.7438    1.7572 O   0  0  0  0  0  0  0  0  0  0  0  0
   -2.2870   -0.8898    0.7102 N   0  0  0  0  0  0  0  0  0  0  0  0
   -3.0820   -0.4218    0.2992 H   0  0  0  0  0  0  0  0  0  0  0  0
   -1.0240   -0.1468    0.7262 C   0  0  1  0  0  0  0  0  0  0  0  0
   -0.4678   -0.4274    1.6218 H   0  0  0  0  0  0  0  0  0  0  0  0
   -0.1989   -0.5467   -0.5124 C   0  0  0  0  0  0  0  0  0  0  0  0
   -0.8250   -0.4291   -1.3992 H   0  0  0  0  0  0  0  0  0  0  0  0
    0.6556    0.1247   -0.6074 H   0  0  0  0  0  0  0  0  0  0  0  0
    0.3006   -1.9992   -0.4672 C   0  0  0  0  0  0  0  0  0  0  0  0
    0.9191   -2.1462    0.4186 H   0  0  0  0  0  0  0  0  0  0  0  0
   -0.5572   -2.6725   -0.4200 H   0  0  0  0  0  0  0  0  0  0  0  0
    1.1335   -2.3305   -1.7107 C   0  0  0  0  0  0  0  0  0  0  0  0
    0.5302   -2.1805   -2.6066 H   0  0  0  0  0  0  0  0  0  0  0  0
    2.0049   -1.6761   -1.7496 H   0  0  0  0  0  0  0  0  0  0  0  0
    1.5960   -3.7851   -1.6525 C   0  0  0  0  0  0  0  0  0  0  0  0
    2.2141   -3.9327   -0.7684 H   0  0  0  0  0  0  0  0  0  0  0  0
    0.7275   -4.4391   -1.5957 H   0  0  0  0  0  0  0  0  0  0  0  0
    2.3778   -4.1431   -2.8416 N   0  0  0  0  0  0  0  0  0  0  0  0
    2.6779   -5.1037   -2.7631 H   0  0  0  0  0  0  0  0  0  0  0  0
    1.7988   -4.0385   -3.6626 H   0  0  0  0  0  0  0  0  0  0  0  0
   -1.2990    1.3650    0.7800 C   0  0  0  0  0  0  0  0  0  0  0  0
   -1.9331    1.8433    1.7181 O   0  0  0  0  0  0  0  0  0  0  0  0
   -0.8305    2.1079   -0.2295 N   0  0  0  0  0  0  0  0  0  0  0  0
   -0.3073    1.6436   -0.9537 H   0  0  0  0  0  0  0  0  0  0  0  0
   -1.0203    3.5538   -0.3353 C   0  0  0  0  0  0  0  0  0  0  0  0
   -0.6508    4.0416    0.5693 H   0  0  0  0  0  0  0  0  0  0  0  0
   -0.4829    3.9449   -1.2004 H   0  0  0  0  0  0  0  0  0  0  0  0
   -2.0840    3.7777   -0.4391 H   0  0  0  0  0  0  0  0  0  0  0  0
  5  6  2  0  0  0  0
  5  7  1  0  0  0  0
  2  3  1  0  0  0  0
  2  4  1  0  0  0  0
  2  5  1  0  0  0  0
  1  2  1  0  0  0  0
 26 27  2  0  0  0  0
 26 28  1  0  0  0  0
 23 24  1  0  0  0  0
 23 25  1  0  0  0  0
 20 21  1  0  0  0  0
 20 22  1  0  0  0  0
 20 23  1  0  0  0  0
 17 18  1  0  0  0  0
 17 19  1  0  0  0  0
 17 20  1  0  0  0  0
 14 15  1  0  0  0  0
 14 16  1  0  0  0  0
 14 17  1  0  0  0  0
 11 12  1  0  0  0  0
 11 13  1  0  0  0  0
 11 14  1  0  0  0  0
  9 10  1  0  0  0  0
  9 11  1  0  0  0  0
  9 26  1  0  0  0  0
  7  8  1  0  0  0  0
  7  9  1  0  0  0  0
 30 31  1  0  0  0  0
 30 32  1  0  0  0  0
 30 33  1  0  0  0  0
 28 29  1  0  0  0  0
 28 30  1  0  0  0  0
M  END
$$$$
default_name
  -OEChem-01062215323D

 33 32  0     1  0  0  0  0  0999 V2000
   -3.8420   -3.6918    1.5562 H   0  0  0  0  0  0  0  0  0  0  0  0
   -3.8430   -2.7008    1.1032 C   0  0  0  0  0  0  0  0  0  0  0  0
   -4.5510   -2.0608    1.6242 H   0  0  0  0  0  0  0  0  0  0  0  0
   -4.1140   -2.7798    0.0522 H   0  0  0  0  0  0  0  0  0  0  0  0
   -2.4570   -2.1098    1.2172 C   0  0  0  0  0  0  0  0  0  0  0  0
   -1.5600   -2.7438    1.7572 O   0  0  0  0  0  0  0  0  0  0  0  0
   -2.2870   -0.8898    0.7102 N   0  0  0  0  0  0  0  0  0  0  0  0
   -3.0820   -0.4218    0.2992 H   0  0  0  0  0  0  0  0  0  0  0  0
   -1.0240   -0.1468    0.7262 C   0  0  1  0  0  0  0  0  0  0  0  0
   -0.4678   -0.4274    1.6218 H   0  0  0  0  0  0  0  0  0  0  0  0
   -0.1989   -0.5467   -0.5124 C   0  0  0  0  0  0  0  0  0  0  0  0
   -0.8250   -0.4291   -1.3992 H   0  0  0  0  0  0  0  0  0  0  0  0
    0.6556    0.1247   -0.6074 H   0  0  0  0  0  0  0  0  0  0  0  0
    0.3006   -1.9992   -0.4672 C   0  0  0  0  0  0  0  0  0  0  0  0
    0.9191   -2.1462    0.4186 H   0  0  0  0  0  0  0  0  0  0  0  0
   -0.5572   -2.6725   -0.4200 H   0  0  0  0  0  0  0  0  0  0  0  0
    1.1335   -2.3305   -1.7107 C   0  0  0  0  0  0  0  0  0  0  0  0
    0.5302   -2.1805   -2.6066 H   0  0  0  0  0  0  0  0  0  0  0  0
    2.0049   -1.6761   -1.7496 H   0  0  0  0  0  0  0  0  0  0  0  0
    1.5960   -3.7851   -1.6525 C   0  0  0  0  0  0  0  0  0  0  0  0
    2.2141   -3.9327   -0.7684 H   0  0  0  0  0  0  0  0  0  0  0  0
    0.7275   -4.4391   -1.5957 H   0  0  0  0  0  0  0  0  0  0  0  0
    2.3778   -4.1431   -2.8416 N   0  0  0  0  0  0  0  0  0  0  0  0
    2.6779   -5.1037   -2.7631 H   0  0  0  0  0  0  0  0  0  0  0  0
    1.7988   -4.0385   -3.6626 H   0  0  0  0  0  0  0  0  0  0  0  0
   -1.2990    1.3650    0.7800 C   0  0  0  0  0  0  0  0  0  0  0  0
   -1.6809    1.8853    1.8261 O   0  0  0  0  0  0  0  0  0  0  0  0
   -1.1138    2.0606   -0.3480 N   0  0  0  0  0  0  0  0  0  0  0  0
   -0.7850    1.5641   -1.1598 H   0  0  0  0  0  0  0  0  0  0  0  0
   -1.3460    3.4992   -0.4671 C   0  0  0  0  0  0  0  0  0  0  0  0
   -0.7660    4.0306    0.2907 H   0  0  0  0  0  0  0  0  0  0  0  0
   -1.0522    3.8505   -1.4572 H   0  0  0  0  0  0  0  0  0  0  0  0
   -2.4044    3.7147   -0.3065 H   0  0  0  0  0  0  0  0  0  0  0  0
  5  6  2  0  0  0  0
  5  7  1  0  0  0  0
  2  3  1  0  0  0  0
  2  4  1  0  0  0  0
  2  5  1  0  0  0  0
  1  2  1  0  0  0  0
 26 27  2  0  0  0  0
 26 28  1  0  0  0  0
 23 24  1  0  0  0  0
 23 25  1  0  0  0  0
 20 21  1  0  0  0  0
 20 22  1  0  0  0  0
 20 23  1  0  0  0  0
 17 18  1  0  0  0  0
 17 19  1  0  0  0  0
 17 20  1  0  0  0  0
 14 15  1  0  0  0  0
 14 16  1  0  0  0  0
 14 17  1  0  0  0  0
 11 12  1  0  0  0  0
 11 13  1  0  0  0  0
 11 14  1  0  0  0  0
  9 10  1  0  0  0  0
  9 11  1  0  0  0  0
  9 26  1  0  0  0  0
  7  8  1  0  0  0  0
  7  9  1  0  0  0  0
 30 31  1  0  0  0  0
 30 32  1  0  0  0  0
 30 33  1  0  0  0  0
 28 29  1  0  0  0  0
 28 30  1  0  0  0  0
M  END
$$$$
default_name
  -OEChem-01062215323D

 33 32  0     1  0  0  0  0  0999 V2000
   -3.8420   -3.6918    1.5562 H   0  0  0  0  0  0  0  0  0  0  0  0
   -3.8430   -2.7008    1.1032 C   0  0  0  0  0  0  0  0  0  0  0  0
   -4.5510   -2.0608    1.6242 H   0  0  0  0  0  0  0  0  0  0  0  0
   -4.1140   -2.7798    0.0522 H   0  0  0  0  0  0  0  0  0  0  0  0
   -2.4570   -2.1098    1.2172 C   0  0  0  0  0  0  0  0  0  0  0  0
   -1.5600   -2.7438    1.7572 O   0  0  0  0  0  0  0  0  0  0  0  0
   -2.2870   -0.8898    0.7102 N   0  0  0  0  0  0  0  0  0  0  0  0
   -3.0820   -0.4218    0.2992 H   0  0  0  0  0  0  0  0  0  0  0  0
   -1.0240   -0.1468    0.7262 C   0  0  1  0  0  0  0  0  0  0  0  0
   -0.4678   -0.4274    1.6218 H   0  0  0  0  0  0  0  0  0  0  0  0
   -0.1989   -0.5467   -0.5124 C   0  0  0  0  0  0  0  0  0  0  0  0
   -0.8250   -0.4291   -1.3992 H   0  0  0  0  0  0  0  0  0  0  0  0
    0.6556    0.1247   -0.6074 H   0  0  0  0  0  0  0  0  0  0  0  0
    0.3006   -1.9992   -0.4672 C   0  0  0  0  0  0  0  0  0  0  0  0
    0.9191   -2.1462    0.4186 H   0  0  0  0  0  0  0  0  0  0  0  0
   -0.5572   -2.6725   -0.4200 H   0  0  0  0  0  0  0  0  0  0  0  0
    1.1335   -2.3305   -1.7107 C   0  0  0  0  0  0  0  0  0  0  0  0
    0.5302   -2.1805   -2.6066 H   0  0  0  0  0  0  0  0  0  0  0  0
    2.0049   -1.6761   -1.7496 H   0  0  0  0  0  0  0  0  0  0  0  0
    1.5960   -3.7851   -1.6525 C   0  0  0  0  0  0  0  0  0  0  0  0
    2.2141   -3.9327   -0.7684 H   0  0  0  0  0  0  0  0  0  0  0  0
    0.7275   -4.4391   -1.5957 H   0  0  0  0  0  0  0  0  0  0  0  0
    2.3778   -4.1431   -2.8416 N   0  0  0  0  0  0  0  0  0  0  0  0
    2.6779   -5.1037   -2.7631 H   0  0  0  0  0  0  0  0  0  0  0  0
    1.7988   -4.0385   -3.6626 H   0  0  0  0  0  0  0  0  0  0  0  0
   -1.2990    1.3650    0.7800 C   0  0  0  0  0  0  0  0  0  0  0  0
   -1.4101    1.9332    1.8643 O   0  0  0  0  0  0  0  0  0  0  0  0
   -1.4172    2.0068   -0.3881 N   0  0  0  0  0  0  0  0  0  0  0  0
   -1.2982    1.4734   -1.2337 H   0  0  0  0  0  0  0  0  0  0  0  0
   -1.6937    3.4375   -0.5089 C   0  0  0  0  0  0  0  0  0  0  0  0
   -0.9481    4.0060    0.0513 H   0  0  0  0  0  0  0  0  0  0  0  0
   -1.6666    3.7423   -1.5561 H   0  0  0  0  0  0  0  0  0  0  0  0
   -2.6795    3.6571   -0.0940 H   0  0  0  0  0  0  0  0  0  0  0  0
  5  6  2  0  0  0  0
  5  7  1  0  0  0  0
  2  3  1  0  0  0  0
  2  4  1  0  0  0  0
  2  5  1  0  0  0  0
  1  2  1  0  0  0  0
 26 27  2  0  0  0  0
 26 28  1  0  0  0  0
 23 24  1  0  0  0  0
 23 25  1  0  0  0  0
 20 21  1  0  0  0  0
 20 22  1  0  0  0  0
 20 23  1  0  0  0  0
 17 18  1  0  0  0  0
 17 19  1  0  0  0  0
 17 20  1  0  0  0  0
 14 15  1  0  0  0  0
 14 16  1  0  0  0  0
 14 17  1  0  0  0  0
 11 12  1  0  0  0  0
 11 13  1  0  0  0  0
 11 14  1  0  0  0  0
  9 10  1  0  0  0  0
  9 11  1  0  0  0  0
  9 26  1  0  0  0  0
  7  8  1  0  0  0  0
  7  9  1  0  0  0  0
 30 31  1  0  0  0  0
 30 32  1  0  0  0  0
 30 33  1  0  0  0  0
 28 29  1  0  0  0  0
 28 30  1  0  0  0  0
M  END
$$$$
default_name
  -OEChem-01062215323D

 33 32  0     1  0  0  0  0  0999 V2000
   -3.8420   -3.6918    1.5562 H   0  0  0  0  0  0  0  0  0  0  0  0
   -3.8430   -2.7008    1.1032 C   0  0  0  0  0  0  0  0  0  0  0  0
   -4.5510   -2.0608    1.6242 H   0  0  0  0  0  0  0  0  0  0  0  0
   -4.1140   -2.7798    0.0522 H   0  0  0  0  0  0  0  0  0  0  0  0
   -2.4570   -2.1098    1.2172 C   0  0  0  0  0  0  0  0  0  0  0  0
   -1.5600   -2.7438    1.7572 O   0  0  0  0  0  0  0  0  0  0  0  0
   -2.2870   -0.8898    0.7102 N   0  0  0  0  0  0  0  0  0  0  0  0
   -3.0820   -0.4218    0.2992 H   0  0  0  0  0  0  0  0  0  0  0  0
   -1.0240   -0.1468    0.7262 C   0  0  1  0  0  0  0  0  0  0  0  0
   -0.4678   -0.4274    1.6218 H   0  0  0  0  0  0  0  0  0  0  0  0
   -0.1989   -0.5467   -0.5124 C   0  0  0  0  0  0  0  0  0  0  0  0
   -0.8250   -0.4291   -1.3992 H   0  0  0  0  0  0  0  0  0  0  0  0
    0.6556    0.1247   -0.6074 H   0  0  0  0  0  0  0  0  0  0  0  0
    0.3006   -1.9992   -0.4672 C   0  0  0  0  0  0  0  0  0  0  0  0
    0.9191   -2.1462    0.4186 H   0  0  0  0  0  0  0  0  0  0  0  0
   -0.5572   -2.6725   -0.4200 H   0  0  0  0  0  0  0  0  0  0  0  0
    1.1335   -2.3305   -1.7107 C   0  0  0  0  0  0  0  0  0  0  0  0
    0.5302   -2.1805   -2.6066 H   0  0  0  0  0  0  0  0  0  0  0  0
    2.0049   -1.6761   -1.7496 H   0  0  0  0  0  0  0  0  0  0  0  0
    1.5960   -3.7851   -1.6525 C   0  0  0  0  0  0  0  0  0  0  0  0
    2.2141   -3.9327   -0.7684 H   0  0  0  0  0  0  0  0  0  0  0  0
    0.7275   -4.4391   -1.5957 H   0  0  0  0  0  0  0  0  0  0  0  0
    2.3778   -4.1431   -2.8416 N   0  0  0  0  0  0  0  0  0  0  0  0
    2.6779   -5.1037   -2.7631 H   0  0  0  0  0  0  0  0  0  0  0  0
    1.7988   -4.0385   -3.6626 H   0  0  0  0  0  0  0  0  0  0  0  0
   -1.2990    1.3650    0.7800 C   0  0  0  0  0  0  0  0  0  0  0  0
   -1.1393    1.9837    1.8301 O   0  0  0  0  0  0  0  0  0  0  0  0
   -1.7199    1.9503   -0.3472 N   0  0  0  0  0  0  0  0  0  0  0  0
   -1.8119    1.3777   -1.1702 H   0  0  0  0  0  0  0  0  0  0  0  0
   -2.0395    3.3728   -0.4580 C   0  0  0  0  0  0  0  0  0  0  0  0
   -1.1847    3.9695   -0.1324 H   0  0  0  0  0  0  0  0  0  0  0  0
   -2.2843    3.6276   -1.4902 H   0  0  0  0  0  0  0  0  0  0  0  0
   -2.8907    3.6088    0.1840 H   0  0  0  0  0  0  0  0  0  0  0  0
  5  6  2  0  0  0  0
  5  7  1  0  0  0  0
  2  3  1  0  0  0  0
  2  4  1  0  0  0  0
  2  5  1  0  0  0  0
  1  2  1  0  0  0  0
 26 27  2  0  0  0  0
 26 28  1  0  0  0  0
 23 24  1  0  0  0  0
 23 25  1  0  0  0  0
 20 21  1  0  0  0  0
 20 22  1  0  0  0  0
 20 23  1  0  0  0  0
 17 18  1  0  0  0  0
 17 19  1  0  0  0  0
 17 20  1  0  0  0  0
 14 15  1  0  0  0  0
 14 16  1  0  0  0  0
 14 17  1  0  0  0  0
 11 12  1  0  0  0  0
 11 13  1  0  0  0  0
 11 14  1  0  0  0  0
  9 10  1  0  0  0  0
  9 11  1  0  0  0  0
  9 26  1  0  0  0  0
  7  8  1  0  0  0  0
  7  9  1  0  0  0  0
 30 31  1  0  0  0  0
 30 32  1  0  0  0  0
 30 33  1  0  0  0  0
 28 29  1  0  0  0  0
 28 30  1  0  0  0  0
M  END
$$$$
default_name
  -OEChem-01062215323D

 33 32  0     1  0  0  0  0  0999 V2000
   -3.8420   -3.6918    1.5562 H   0  0  0  0  0  0  0  0  0  0  0  0
   -3.8430   -2.7008    1.1032 C   0  0  0  0  0  0  0  0  0  0  0  0
   -4.5510   -2.0608    1.6242 H   0  0  0  0  0  0  0  0  0  0  0  0
   -4.1140   -2.7798    0.0522 H   0  0  0  0  0  0  0  0  0  0  0  0
   -2.4570   -2.1098    1.2172 C   0  0  0  0  0  0  0  0  0  0  0  0
   -1.5600   -2.7438    1.7572 O   0  0  0  0  0  0  0  0  0  0  0  0
   -2.2870   -0.8898    0.7102 N   0  0  0  0  0  0  0  0  0  0  0  0
   -3.0820   -0.4218    0.2992 H   0  0  0  0  0  0  0  0  0  0  0  0
   -1.0240   -0.1468    0.7262 C   0  0  1  0  0  0  0  0  0  0  0  0
   -0.4678   -0.4274    1.6218 H   0  0  0  0  0  0  0  0  0  0  0  0
   -0.1989   -0.5467   -0.5124 C   0  0  0  0  0  0  0  0  0  0  0  0
   -0.8250   -0.4291   -1.3992 H   0  0  0  0  0  0  0  0  0  0  0  0
    0.6556    0.1247   -0.6074 H   0  0  0  0  0  0  0  0  0  0  0  0
    0.3006   -1.9992   -0.4672 C   0  0  0  0  0  0  0  0  0  0  0  0
    0.9191   -2.1462    0.4186 H   0  0  0  0  0  0  0  0  0  0  0  0
   -0.5572   -2.6725   -0.4200 H   0  0  0  0  0  0  0  0  0  0  0  0
    1.1335   -2.3305   -1.7107 C   0  0  0  0  0  0  0  0  0  0  0  0
    0.5302   -2.1805   -2.6066 H   0  0  0  0  0  0  0  0  0  0  0  0
    2.0049   -1.6761   -1.7496 H   0  0  0  0  0  0  0  0  0  0  0  0
    1.5960   -3.7851   -1.6525 C   0  0  0  0  0  0  0  0  0  0  0  0
    2.2141   -3.9327   -0.7684 H   0  0  0  0  0  0  0  0  0  0  0  0
    0.7275   -4.4391   -1.5957 H   0  0  0  0  0  0  0  0  0  0  0  0
    2.3778   -4.1431   -2.8416 N   0  0  0  0  0  0  0  0  0  0  0  0
    2.6779   -5.1037   -2.7631 H   0  0  0  0  0  0  0  0  0  0  0  0
    1.7988   -4.0385   -3.6626 H   0  0  0  0  0  0  0  0  0  0  0  0
   -1.2990    1.3650    0.7800 C   0  0  0  0  0  0  0  0  0  0  0  0
   -0.8869    2.0333    1.7258 O   0  0  0  0  0  0  0  0  0  0  0  0
   -2.0015    1.8949   -0.2281 N   0  0  0  0  0  0  0  0  0  0  0  0
   -2.2910    1.2836   -0.9738 H   0  0  0  0  0  0  0  0  0  0  0  0
   -2.3601    3.3095   -0.3178 C   0  0  0  0  0  0  0  0  0  0  0  0
   -1.4596    3.9236   -0.2479 H   0  0  0  0  0  0  0  0  0  0  0  0
   -2.8630    3.5143   -1.2640 H   0  0  0  0  0  0  0  0  0  0  0  0
   -3.0235    3.5731    0.5085 H   0  0  0  0  0  0  0  0  0  0  0  0
  5  6  2  0  0  0  0
  5  7  1  0  0  0  0
  2  3  1  0  0  0  0
  2  4  1  0  0  0  0
  2  5  1  0  0  0  0
  1  2  1  0  0  0  0
 26 27  2  0  0  0  0
 26 28  1  0  0  0  0
 23 24  1  0  0  0  0
 23 25  1  0  0  0  0
 20 21  1  0  0  0  0
 20 22  1  0  0  0  0
 20 23  1  0  0  0  0
 17 18  1  0  0  0  0
 17 19  1  0  0  0  0
 17 20  1  0  0  0  0
 14 15  1  0  0  0  0
 14 16  1  0  0  0  0
 14 17  1  0  0  0  0
 11 12  1  0  0  0  0
 11 13  1  0  0  0  0
 11 14  1  0  0  0  0
  9 10  1  0  0  0  0
  9 11  1  0  0  0  0
  9 26  1  0  0  0  0
  7  8  1  0  0  0  0
  7  9  1  0  0  0  0
 30 31  1  0  0  0  0
 30 32  1  0  0  0  0
 30 33  1  0  0  0  0
 28 29  1  0  0  0  0
 28 30  1  0  0  0  0
M  END
$$$$
default_name
  -OEChem-01062215323D

 33 32  0     1  0  0  0  0  0999 V2000
   -3.8420   -3.6918    1.5562 H   0  0  0  0  0  0  0  0  0  0  0  0
   -3.8430   -2.7008    1.1032 C   0  0  0  0  0  0  0  0  0  0  0  0
   -4.5510   -2.0608    1.6242 H   0  0  0  0  0  0  0  0  0  0  0  0
   -4.1140   -2.7798    0.0522 H   0  0  0  0  0  0  0  0  0  0  0  0
   -2.4570   -2.1098    1.2172 C   0  0  0  0  0  0  0  0  0  0  0  0
   -1.5600   -2.7438    1.7572 O   0  0  0  0  0  0  0  0  0  0  0  0
   -2.2870   -0.8898    0.7102 N   0  0  0  0  0  0  0  0  0  0  0  0
   -3.0820   -0.4218    0.2992 H   0  0  0  0  0  0  0  0  0  0  0  0
   -1.0240   -0.1468    0.7262 C   0  0  1  0  0  0  0  0  0  0  0  0
   -0.4678   -0.4274    1.6218 H   0  0  0  0  0  0  0  0  0  0  0  0
   -0.1989   -0.5467   -0.5124 C   0  0  0  0  0  0  0  0  0  0  0  0
   -0.8250   -0.4291   -1.3992 H   0  0  0  0  0  0  0  0  0  0  0  0
    0.6556    0.1247   -0.6074 H   0  0  0  0  0  0  0  0  0  0  0  0
    0.3006   -1.9992   -0.4672 C   0  0  0  0  0  0  0  0  0  0  0  0
    0.9191   -2.1462    0.4186 H   0  0  0  0  0  0  0  0  0  0  0  0
   -0.5572   -2.6725   -0.4200 H   0  0  0  0  0  0  0  0  0  0  0  0
    1.1335   -2.3305   -1.7107 C   0  0  0  0  0  0  0  0  0  0  0  0
    0.5302   -2.1805   -2.6066 H   0  0  0  0  0  0  0  0  0  0  0  0
    2.0049   -1.6761   -1.7496 H   0  0  0  0  0  0  0  0  0  0  0  0
    1.5960   -3.7851   -1.6525 C   0  0  0  0  0  0  0  0  0  0  0  0
    2.2141   -3.9327   -0.7684 H   0  0  0  0  0  0  0  0  0  0  0  0
    0.7275   -4.4391   -1.5957 H   0  0  0  0  0  0  0  0  0  0  0  0
    2.3778   -4.1431   -2.8416 N   0  0  0  0  0  0  0  0  0  0  0  0
    2.6779   -5.1037   -2.7631 H   0  0  0  0  0  0  0  0  0  0  0  0
    1.7988   -4.0385   -3.6626 H   0  0  0  0  0  0  0  0  0  0  0  0
   -1.2990    1.3650    0.7800 C   0  0  0  0  0  0  0  0  0  0  0  0
   -0.6700    2.0787    1.5585 O   0  0  0  0  0  0  0  0  0  0  0  0
   -2.2426    1.8443   -0.0387 N   0  0  0  0  0  0  0  0  0  0  0  0
   -2.7030    1.1974   -0.6577 H   0  0  0  0  0  0  0  0  0  0  0  0
   -2.6335    3.2519   -0.0979 C   0  0  0  0  0  0  0  0  0  0  0  0
   -1.7542    3.8714   -0.2874 H   0  0  0  0  0  0  0  0  0  0  0  0
   -3.3635    3.4101   -0.8931 H   0  0  0  0  0  0  0  0  0  0  0  0
   -3.0689    3.5525    0.8573 H   0  0  0  0  0  0  0  0  0  0  0  0
  5  6  2  0  0  0  0
  5  7  1  0  0  0  0
  2  3  1  0  0  0  0
  2  4  1  0  0  0  0
  2  5  1  0  0  0  0
  1  2  1  0  0  0  0
 26 27  2  0  0  0  0
 26 28  1  0  0  0  0
 23 24  1  0  0  0  0
 23 25  1  0  0  0  0
 20 21  1  0  0  0  0
 20 22  1  0  0  0  0
 20 23  1  0  0  0  0
 17 18  1  0  0  0  0
 17 19  1  0  0  0  0
 17 20  1  0  0  0  0
 14 15  1  0  0  0  0
 14 16  1  0  0  0  0
 14 17  1  0  0  0  0
 11 12  1  0  0  0  0
 11 13  1  0  0  0  0
 11 14  1  0  0  0  0
  9 10  1  0  0  0  0
  9 11  1  0  0  0  0
  9 26  1  0  0  0  0
  7  8  1  0  0  0  0
  7  9  1  0  0  0  0
 30 31  1  0  0  0  0
 30 32  1  0  0  0  0
 30 33  1  0  0  0  0
 28 29  1  0  0  0  0
 28 30  1  0  0  0  0
M  END
$$$$
default_name
  -OEChem-01062215323D

 33 32  0     1  0  0  0  0  0999 V2000
   -3.8420   -3.6918    1.5562 H   0  0  0  0  0  0  0  0  0  0  0  0
   -3.8430   -2.7008    1.1032 C   0  0  0  0  0  0  0  0  0  0  0  0
   -4.5510   -2.0608    1.6242 H   0  0  0  0  0  0  0  0  0  0  0  0
   -4.1140   -2.7798    0.0522 H   0  0  0  0  0  0  0  0  0  0  0  0
   -2.4570   -2.1098    1.2172 C   0  0  0  0  0  0  0  0  0  0  0  0
   -1.5600   -2.7438    1.7572 O   0  0  0  0  0  0  0  0  0  0  0  0
   -2.2870   -0.8898    0.7102 N   0  0  0  0  0  0  0  0  0  0  0  0
   -3.0820   -0.4218    0.2992 H   0  0  0  0  0  0  0  0  0  0  0  0
   -1.0240   -0.1468    0.7262 C   0  0  1  0  0  0  0  0  0  0  0  0
   -0.4678   -0.4274    1.6218 H   0  0  0  0  0  0  0  0  0  0  0  0
   -0.1989   -0.5467   -0.5124 C   0  0  0  0  0  0  0  0  0  0  0  0
   -0.8250   -0.4291   -1.3992 H   0  0  0  0  0  0  0  0  0  0  0  0
    0.6556    0.1247   -0.6074 H   0  0  0  0  0  0  0  0  0  0  0  0
    0.3006   -1.9992   -0.4672 C   0  0  0  0  0  0  0  0  0  0  0  0
    0.9191   -2.1462    0.4186 H   0  0  0  0  0  0  0  0  0  0  0  0
   -0.5572   -2.6725   -0.4200 H   0  0  0  0  0  0  0  0  0  0  0  0
    1.1335   -2.3305   -1.7107 C   0  0  0  0  0  0  0  0  0  0  0  0
    0.5302   -2.1805   -2.6066 H   0  0  0  0  0  0  0  0  0  0  0  0
    2.0049   -1.6761   -1.7496 H   0  0  0  0  0  0  0  0  0  0  0  0
    1.5960   -3.7851   -1.6525 C   0  0  0  0  0  0  0  0  0  0  0  0
    2.2141   -3.9327   -0.7684 H   0  0  0  0  0  0  0  0  0  0  0  0
    0.7275   -4.4391   -1.5957 H   0  0  0  0  0  0  0  0  0  0  0  0
    2.3778   -4.1431   -2.8416 N   0  0  0  0  0  0  0  0  0  0  0  0
    2.6779   -5.1037   -2.7631 H   0  0  0  0  0  0  0  0  0  0  0  0
    1.7988   -4.0385   -3.6626 H   0  0  0  0  0  0  0  0  0  0  0  0
   -1.2990    1.3650    0.7800 C   0  0  0  0  0  0  0  0  0  0  0  0
   -0.5036    2.1168    1.3396 O   0  0  0  0  0  0  0  0  0  0  0  0
   -2.4269    1.8020    0.2079 N   0  0  0  0  0  0  0  0  0  0  0  0
   -3.0198    1.1250   -0.2436 H   0  0  0  0  0  0  0  0  0  0  0  0
   -2.8411    3.2040    0.1867 C   0  0  0  0  0  0  0  0  0  0  0  0
   -2.0483    3.8166   -0.2482 H   0  0  0  0  0  0  0  0  0  0  0  0
   -3.7516    3.3221   -0.4025 H   0  0  0  0  0  0  0  0  0  0  0  0
   -3.0238    3.5482    1.2068 H   0  0  0  0  0  0  0  0  0  0  0  0
  5  6  2  0  0  0  0
  5  7  1  0  0  0  0
  2  3  1  0  0  0  0
  2  4  1  0  0  0  0
  2  5  1  0  0  0  0
  1  2  1  0  0  0  0
 26 27  2  0  0  0  0
 26 28  1  0  0  0  0
 23 24  1  0  0  0  0
 23 25  1  0  0  0  0
 20 21  1  0  0  0  0
 20 22  1  0  0  0  0
 20 23  1  0  0  0  0
 17 18  1  0  0  0  0
 17 19  1  0  0  0  0
 17 20  1  0  0  0  0
 14 15  1  0  0  0  0
 14 16  1  0  0  0  0
 14 17  1  0  0  0  0
 11 12  1  0  0  0  0
 11 13  1  0  0  0  0
 11 14  1  0  0  0  0
  9 10  1  0  0  0  0
  9 11  1  0  0  0  0
  9 26  1  0  0  0  0
  7  8  1  0  0  0  0
  7  9  1  0  0  0  0
 30 31  1  0  0  0  0
 30 32  1  0  0  0  0
 30 33  1  0  0  0  0
 28 29  1  0  0  0  0
 28 30  1  0  0  0  0
M  END
$$$$
default_name
  -OEChem-01062215323D

 33 32  0     1  0  0  0  0  0999 V2000
   -3.8420   -3.6918    1.5562 H   0  0  0  0  0  0  0  0  0  0  0  0
   -3.8430   -2.7008    1.1032 C   0  0  0  0  0  0  0  0  0  0  0  0
   -4.5510   -2.0608    1.6242 H   0  0  0  0  0  0  0  0  0  0  0  0
   -4.1140   -2.7798    0.0522 H   0  0  0  0  0  0  0  0  0  0  0  0
   -2.4570   -2.1098    1.2172 C   0  0  0  0  0  0  0  0  0  0  0  0
   -1.5600   -2.7438    1.7572 O   0  0  0  0  0  0  0  0  0  0  0  0
   -2.2870   -0.8898    0.7102 N   0  0  0  0  0  0  0  0  0  0  0  0
   -3.0820   -0.4218    0.2992 H   0  0  0  0  0  0  0  0  0  0  0  0
   -1.0240   -0.1468    0.7262 C   0  0  1  0  0  0  0  0  0  0  0  0
   -0.4678   -0.4274    1.6218 H   0  0  0  0  0  0  0  0  0  0  0  0
   -0.1989   -0.5467   -0.5124 C   0  0  0  0  0  0  0  0  0  0  0  0
   -0.8250   -0.4291   -1.3992 H   0  0  0  0  0  0  0  0  0  0  0  0
    0.6556    0.1247   -0.6074 H   0  0  0  0  0  0  0  0  0  0  0  0
    0.3006   -1.9992   -0.4672 C   0  0  0  0  0  0  0  0  0  0  0  0
    0.9191   -2.1462    0.4186 H   0  0  0  0  0  0  0  0  0  0  0  0
   -0.5572   -2.6725   -0.4200 H   0  0  0  0  0  0  0  0  0  0  0  0
    1.1335   -2.3305   -1.7107 C   0  0  0  0  0  0  0  0  0  0  0  0
    0.5302   -2.1805   -2.6066 H   0  0  0  0  0  0  0  0  0  0  0  0
    2.0049   -1.6761   -1.7496 H   0  0  0  0  0  0  0  0  0  0  0  0
    1.5960   -3.7851   -1.6525 C   0  0  0  0  0  0  0  0  0  0  0  0
    2.2141   -3.9327   -0.7684 H   0  0  0  0  0  0  0  0  0  0  0  0
    0.7275   -4.4391   -1.5957 H   0  0  0  0  0  0  0  0  0  0  0  0
    2.3778   -4.1431   -2.8416 N   0  0  0  0  0  0  0  0  0  0  0  0
    2.6779   -5.1037   -2.7631 H   0  0  0  0  0  0  0  0  0  0  0  0
    1.7988   -4.0385   -3.6626 H   0  0  0  0  0  0  0  0  0  0  0  0
   -1.2990    1.3650    0.7800 C   0  0  0  0  0  0  0  0  0  0  0  0
   -0.3988    2.1449    1.0840 O   0  0  0  0  0  0  0  0  0  0  0  0
   -2.5417    1.7709    0.4949 N   0  0  0  0  0  0  0  0  0  0  0  0
   -3.2197    1.0715    0.2403 H   0  0  0  0  0  0  0  0  0  0  0  0
   -2.9688    3.1691    0.5167 C   0  0  0  0  0  0  0  0  0  0  0  0
   -2.3219    3.7627   -0.1330 H   0  0  0  0  0  0  0  0  0  0  0  0
   -4.0008    3.2562    0.1741 H   0  0  0  0  0  0  0  0  0  0  0  0
   -2.8912    3.5608    1.5331 H   0  0  0  0  0  0  0  0  0  0  0  0
  5  6  2  0  0  0  0
  5  7  1  0  0  0  0
  2  3  1  0  0  0  0
  2  4  1  0  0  0  0
  2  5  1  0  0  0  0
  1  2  1  0  0  0  0
 26 27  2  0  0  0  0
 26 28  1  0  0  0  0
 23 24  1  0  0  0  0
 23 25  1  0  0  0  0
 20 21  1  0  0  0  0
 20 22  1  0  0  0  0
 20 23  1  0  0  0  0
 17 18  1  0  0  0  0
 17 19  1  0  0  0  0
 17 20  1  0  0  0  0
 14 15  1  0  0  0  0
 14 16  1  0  0  0  0
 14 17  1  0  0  0  0
 11 12  1  0  0  0  0
 11 13  1  0  0  0  0
 11 14  1  0  0  0  0
  9 10  1  0  0  0  0
  9 11  1  0  0  0  0
  9 26  1  0  0  0  0
  7  8  1  0  0  0  0
  7  9  1  0  0  0  0
 30 31  1  0  0  0  0
 30 32  1  0  0  0  0
 30 33  1  0  0  0  0
 28 29  1  0  0  0  0
 28 30  1  0  0  0  0
M  END
$$$$
default_name
  -OEChem-01062215323D

 33 32  0     1  0  0  0  0  0999 V2000
   -3.8420   -3.6918    1.5562 H   0  0  0  0  0  0  0  0  0  0  0  0
   -3.8430   -2.7008    1.1032 C   0  0  0  0  0  0  0  0  0  0  0  0
   -4.5510   -2.0608    1.6242 H   0  0  0  0  0  0  0  0  0  0  0  0
   -4.1140   -2.7798    0.0522 H   0  0  0  0  0  0  0  0  0  0  0  0
   -2.4570   -2.1098    1.2172 C   0  0  0  0  0  0  0  0  0  0  0  0
   -1.5600   -2.7438    1.7572 O   0  0  0  0  0  0  0  0  0  0  0  0
   -2.2870   -0.8898    0.7102 N   0  0  0  0  0  0  0  0  0  0  0  0
   -3.0820   -0.4218    0.2992 H   0  0  0  0  0  0  0  0  0  0  0  0
   -1.0240   -0.1468    0.7262 C   0  0  1  0  0  0  0  0  0  0  0  0
   -0.4678   -0.4274    1.6218 H   0  0  0  0  0  0  0  0  0  0  0  0
   -0.1989   -0.5467   -0.5124 C   0  0  0  0  0  0  0  0  0  0  0  0
   -0.8250   -0.4291   -1.3992 H   0  0  0  0  0  0  0  0  0  0  0  0
    0.6556    0.1247   -0.6074 H   0  0  0  0  0  0  0  0  0  0  0  0
    0.3006   -1.9992   -0.4672 C   0  0  0  0  0  0  0  0  0  0  0  0
    0.9191   -2.1462    0.4186 H   0  0  0  0  0  0  0  0  0  0  0  0
   -0.5572   -2.6725   -0.4200 H   0  0  0  0  0  0  0  0  0  0  0  0
    1.1335   -2.3305   -1.7107 C   0  0  0  0  0  0  0  0  0  0  0  0
    0.5302   -2.1805   -2.6066 H   0  0  0  0  0  0  0  0  0  0  0  0
    2.0049   -1.6761   -1.7496 H   0  0  0  0  0  0  0  0  0  0  0  0
    1.5960   -3.7851   -1.6525 C   0  0  0  0  0  0  0  0  0  0  0  0
    2.2141   -3.9327   -0.7684 H   0  0  0  0  0  0  0  0  0  0  0  0
    0.7275   -4.4391   -1.5957 H   0  0  0  0  0  0  0  0  0  0  0  0
    2.3778   -4.1431   -2.8416 N   0  0  0  0  0  0  0  0  0  0  0  0
    2.6779   -5.1037   -2.7631 H   0  0  0  0  0  0  0  0  0  0  0  0
    1.7988   -4.0385   -3.6626 H   0  0  0  0  0  0  0  0  0  0  0  0
   -1.2990    1.3650    0.7800 C   0  0  0  0  0  0  0  0  0  0  0  0
   -0.3629    2.1612    0.8092 O   0  0  0  0  0  0  0  0  0  0  0  0
   -2.5793    1.7531    0.8028 N   0  0  0  0  0  0  0  0  0  0  0  0
   -3.2891    1.0403    0.7611 H   0  0  0  0  0  0  0  0  0  0  0  0
   -3.0078    3.1494    0.8696 C   0  0  0  0  0  0  0  0  0  0  0  0
   -2.5564    3.7135    0.0505 H   0  0  0  0  0  0  0  0  0  0  0  0
   -4.0942    3.2170    0.7976 H   0  0  0  0  0  0  0  0  0  0  0  0
   -2.6802    3.5891    1.8140 H   0  0  0  0  0  0  0  0  0  0  0  0
  5  6  2  0  0  0  0
  5  7  1  0  0  0  0
  2  3  1  0  0  0  0
  2  4  1  0  0  0  0
  2  5  1  0  0  0  0
  1  2  1  0  0  0  0
 26 27  2  0  0  0  0
 26 28  1  0  0  0  0
 23 24  1  0  0  0  0
 23 25  1  0  0  0  0
 20 21  1  0  0  0  0
 20 22  1  0  0  0  0
 20 23  1  0  0  0  0
 17 18  1  0  0  0  0
 17 19  1  0  0  0  0
 17 20  1  0  0  0  0
 14 15  1  0  0  0  0
 14 16  1  0  0  0  0
 14 17  1  0  0  0  0
 11 12  1  0  0  0  0
 11 13  1  0  0  0  0
 11 14  1  0  0  0  0
  9 10  1  0  0  0  0
  9 11  1  0  0  0  0
  9 26  1  0  0  0  0
  7  8  1  0  0  0  0
  7  9  1  0  0  0  0
 30 31  1  0  0  0  0
 30 32  1  0  0  0  0
 30 33  1  0  0  0  0
 28 29  1  0  0  0  0
 28 30  1  0  0  0  0
M  END
$$$$
default_name
  -OEChem-01062215323D

 33 32  0     1  0  0  0  0  0999 V2000
   -3.8420   -3.6918    1.5562 H   0  0  0  0  0  0  0  0  0  0  0  0
   -3.8430   -2.7008    1.1032 C   0  0  0  0  0  0  0  0  0  0  0  0
   -4.5510   -2.0608    1.6242 H   0  0  0  0  0  0  0  0  0  0  0  0
   -4.1140   -2.7798    0.0522 H   0  0  0  0  0  0  0  0  0  0  0  0
   -2.4570   -2.1098    1.2172 C   0  0  0  0  0  0  0  0  0  0  0  0
   -1.5600   -2.7438    1.7572 O   0  0  0  0  0  0  0  0  0  0  0  0
   -2.2870   -0.8898    0.7102 N   0  0  0  0  0  0  0  0  0  0  0  0
   -3.0820   -0.4218    0.2992 H   0  0  0  0  0  0  0  0  0  0  0  0
   -1.0240   -0.1468    0.7262 C   0  0  1  0  0  0  0  0  0  0  0  0
   -0.4678   -0.4274    1.6218 H   0  0  0  0  0  0  0  0  0  0  0  0
   -0.1989   -0.5467   -0.5124 C   0  0  0  0  0  0  0  0  0  0  0  0
   -0.8250   -0.4291   -1.3992 H   0  0  0  0  0  0  0  0  0  0  0  0
    0.6556    0.1247   -0.6074 H   0  0  0  0  0  0  0  0  0  0  0  0
    0.3006   -1.9992   -0.4672 C   0  0  0  0  0  0  0  0  0  0  0  0
    0.9191   -2.1462    0.4186 H   0  0  0  0  0  0  0  0  0  0  0  0
   -0.5572   -2.6725   -0.4200 H   0  0  0  0  0  0  0  0  0  0  0  0
    1.1335   -2.3305   -1.7107 C   0  0  0  0  0  0  0  0  0  0  0  0
    0.5302   -2.1805   -2.6066 H   0  0  0  0  0  0  0  0  0  0  0  0
    2.0049   -1.6761   -1.7496 H   0  0  0  0  0  0  0  0  0  0  0  0
    1.5960   -3.7851   -1.6525 C   0  0  0  0  0  0  0  0  0  0  0  0
    2.2141   -3.9327   -0.7684 H   0  0  0  0  0  0  0  0  0  0  0  0
    0.7275   -4.4391   -1.5957 H   0  0  0  0  0  0  0  0  0  0  0  0
    2.3778   -4.1431   -2.8416 N   0  0  0  0  0  0  0  0  0  0  0  0
    2.6779   -5.1037   -2.7631 H   0  0  0  0  0  0  0  0  0  0  0  0
    1.7988   -4.0385   -3.6626 H   0  0  0  0  0  0  0  0  0  0  0  0
   -1.2990    1.3650    0.7800 C   0  0  0  0  0  0  0  0  0  0  0  0
   -0.3983    2.1646    0.5339 O   0  0  0  0  0  0  0  0  0  0  0  0
   -2.5371    1.7498    1.1106 N   0  0  0  0  0  0  0  0  0  0  0  0
   -3.2234    1.0337    1.2833 H   0  0  0  0  0  0  0  0  0  0  0  0
   -2.9554    3.1464    1.2213 C   0  0  0  0  0  0  0  0  0  0  0  0
   -2.7357    3.6724    0.2896 H   0  0  0  0  0  0  0  0  0  0  0  0
   -4.0254    3.2072    1.4254 H   0  0  0  0  0  0  0  0  0  0  0  0
   -2.4052    3.6315    2.0302 H   0  0  0  0  0  0  0  0  0  0  0  0
  5  6  2  0  0  0  0
  5  7  1  0  0  0  0
  2  3  1  0  0  0  0
  2  4  1  0  0  0  0
  2  5  1  0  0  0  0
  1  2  1  0  0  0  0
 26 27  2  0  0  0  0
 26 28  1  0  0  0  0
 23 24  1  0  0  0  0
 23 25  1  0  0  0  0
 20 21  1  0  0  0  0
 20 22  1  0  0  0  0
 20 23  1  0  0  0  0
 17 18  1  0  0  0  0
 17 19  1  0  0  0  0
 17 20  1  0  0  0  0
 14 15  1  0  0  0  0
 14 16  1  0  0  0  0
 14 17  1  0  0  0  0
 11 12  1  0  0  0  0
 11 13  1  0  0  0  0
 11 14  1  0  0  0  0
  9 10  1  0  0  0  0
  9 11  1  0  0  0  0
  9 26  1  0  0  0  0
  7  8  1  0  0  0  0
  7  9  1  0  0  0  0
 30 31  1  0  0  0  0
 30 32  1  0  0  0  0
 30 33  1  0  0  0  0
 28 29  1  0  0  0  0
 28 30  1  0  0  0  0
M  END
$$$$
default_name
  -OEChem-01062215323D

 33 32  0     1  0  0  0  0  0999 V2000
   -3.8420   -3.6918    1.5562 H   0  0  0  0  0  0  0  0  0  0  0  0
   -3.8430   -2.7008    1.1032 C   0  0  0  0  0  0  0  0  0  0  0  0
   -4.5510   -2.0608    1.6242 H   0  0  0  0  0  0  0  0  0  0  0  0
   -4.1140   -2.7798    0.0522 H   0  0  0  0  0  0  0  0  0  0  0  0
   -2.4570   -2.1098    1.2172 C   0  0  0  0  0  0  0  0  0  0  0  0
   -1.5600   -2.7438    1.7572 O   0  0  0  0  0  0  0  0  0  0  0  0
   -2.2870   -0.8898    0.7102 N   0  0  0  0  0  0  0  0  0  0  0  0
   -3.0820   -0.4218    0.2992 H   0  0  0  0  0  0  0  0  0  0  0  0
   -1.0240   -0.1468    0.7262 C   0  0  1  0  0  0  0  0  0  0  0  0
   -0.4678   -0.4274    1.6218 H   0  0  0  0  0  0  0  0  0  0  0  0
   -0.1989   -0.5467   -0.5124 C   0  0  0  0  0  0  0  0  0  0  0  0
   -0.8250   -0.4291   -1.3992 H   0  0  0  0  0  0  0  0  0  0  0  0
    0.6556    0.1247   -0.6074 H   0  0  0  0  0  0  0  0  0  0  0  0
    0.3006   -1.9992   -0.4672 C   0  0  0  0  0  0  0  0  0  0  0  0
    0.9191   -2.1462    0.4186 H   0  0  0  0  0  0  0  0  0  0  0  0
   -0.5572   -2.6725   -0.4200 H   0  0  0  0  0  0  0  0  0  0  0  0
    1.1335   -2.3305   -1.7107 C   0  0  0  0  0  0  0  0  0  0  0  0
    0.5302   -2.1805   -2.6066 H   0  0  0  0  0  0  0  0  0  0  0  0
    2.0049   -1.6761   -1.7496 H   0  0  0  0  0  0  0  0  0  0  0  0
    1.5960   -3.7851   -1.6525 C   0  0  0  0  0  0  0  0  0  0  0  0
    2.2141   -3.9327   -0.7684 H   0  0  0  0  0  0  0  0  0  0  0  0
    0.7275   -4.4391   -1.5957 H   0  0  0  0  0  0  0  0  0  0  0  0
    2.3778   -4.1431   -2.8416 N   0  0  0  0  0  0  0  0  0  0  0  0
    2.6779   -5.1037   -2.7631 H   0  0  0  0  0  0  0  0  0  0  0  0
    1.7988   -4.0385   -3.6626 H   0  0  0  0  0  0  0  0  0  0  0  0
   -1.2990    1.3650    0.7800 C   0  0  0  0  0  0  0  0  0  0  0  0
   -0.5026    2.1547    0.2768 O   0  0  0  0  0  0  0  0  0  0  0  0
   -2.4180    1.7613    1.3974 N   0  0  0  0  0  0  0  0  0  0  0  0
   -3.0269    1.0521    1.7713 H   0  0  0  0  0  0  0  0  0  0  0  0
   -2.8154    3.1603    1.5478 C   0  0  0  0  0  0  0  0  0  0  0  0
   -2.8477    3.6421    0.5681 H   0  0  0  0  0  0  0  0  0  0  0  0
   -3.7991    3.2274    2.0147 H   0  0  0  0  0  0  0  0  0  0  0  0
   -2.0849    3.6848    2.1672 H   0  0  0  0  0  0  0  0  0  0  0  0
  5  6  2  0  0  0  0
  5  7  1  0  0  0  0
  2  3  1  0  0  0  0
  2  4  1  0  0  0  0
  2  5  1  0  0  0  0
  1  2  1  0  0  0  0
 26 27  2  0  0  0  0
 26 28  1  0  0  0  0
 23 24  1  0  0  0  0
 23 25  1  0  0  0  0
 20 21  1  0  0  0  0
 20 22  1  0  0  0  0
 20 23  1  0  0  0  0
 17 18  1  0  0  0  0
 17 19  1  0  0  0  0
 17 20  1  0  0  0  0
 14 15  1  0  0  0  0
 14 16  1  0  0  0  0
 14 17  1  0  0  0  0
 11 12  1  0  0  0  0
 11 13  1  0  0  0  0
 11 14  1  0  0  0  0
  9 10  1  0  0  0  0
  9 11  1  0  0  0  0
  9 26  1  0  0  0  0
  7  8  1  0  0  0  0
  7  9  1  0  0  0  0
 30 31  1  0  0  0  0
 30 32  1  0  0  0  0
 30 33  1  0  0  0  0
 28 29  1  0  0  0  0
 28 30  1  0  0  0  0
M  END
$$$$
default_name
  -OEChem-01062215323D

 33 32  0     1  0  0  0  0  0999 V2000
   -3.8420   -3.6918    1.5562 H   0  0  0  0  0  0  0  0  0  0  0  0
   -3.8430   -2.7008    1.1032 C   0  0  0  0  0  0  0  0  0  0  0  0
   -4.5510   -2.0608    1.6242 H   0  0  0  0  0  0  0  0  0  0  0  0
   -4.1140   -2.7798    0.0522 H   0  0  0  0  0  0  0  0  0  0  0  0
   -2.4570   -2.1098    1.2172 C   0  0  0  0  0  0  0  0  0  0  0  0
   -1.5600   -2.7438    1.7572 O   0  0  0  0  0  0  0  0  0  0  0  0
   -2.2870   -0.8898    0.7102 N   0  0  0  0  0  0  0  0  0  0  0  0
   -3.0820   -0.4218    0.2992 H   0  0  0  0  0  0  0  0  0  0  0  0
   -1.0240   -0.1468    0.7262 C   0  0  1  0  0  0  0  0  0  0  0  0
   -0.4678   -0.4274    1.6218 H   0  0  0  0  0  0  0  0  0  0  0  0
   -0.1989   -0.5467   -0.5124 C   0  0  0  0  0  0  0  0  0  0  0  0
   -0.8250   -0.4291   -1.3992 H   0  0  0  0  0  0  0  0  0  0  0  0
    0.6556    0.1247   -0.6074 H   0  0  0  0  0  0  0  0  0  0  0  0
    0.3006   -1.9992   -0.4672 C   0  0  0  0  0  0  0  0  0  0  0  0
    0.9191   -2.1462    0.4186 H   0  0  0  0  0  0  0  0  0  0  0  0
   -0.5572   -2.6725   -0.4200 H   0  0  0  0  0  0  0  0  0  0  0  0
    1.1335   -2.3305   -1.7107 C   0  0  0  0  0  0  0  0  0  0  0  0
    0.5302   -2.1805   -2.6066 H   0  0  0  0  0  0  0  0  0  0  0  0
    2.0049   -1.6761   -1.7496 H   0  0  0  0  0  0  0  0  0  0  0  0
    1.5960   -3.7851   -1.6525 C   0  0  0  0  0  0  0  0  0  0  0  0
    2.2141   -3.9327   -0.7684 H   0  0  0  0  0  0  0  0  0  0  0  0
    0.7275   -4.4391   -1.5957 H   0  0  0  0  0  0  0  0  0  0  0  0
    2.3778   -4.1431   -2.8416 N   0  0  0  0  0  0  0  0  0  0  0  0
    2.6779   -5.1037   -2.7631 H   0  0  0  0  0  0  0  0  0  0  0  0
    1.7988   -4.0385   -3.6626 H   0  0  0  0  0  0  0  0  0  0  0  0
   -1.2990    1.3650    0.7800 C   0  0  0  0  0  0  0  0  0  0  0  0
   -0.6687    2.1324    0.0555 O   0  0  0  0  0  0  0  0  0  0  0  0
   -2.2301    1.7867    1.6435 N   0  0  0  0  0  0  0  0  0  0  0  0
   -2.7132    1.0942    2.1918 H   0  0  0  0  0  0  0  0  0  0  0  0
   -2.5971    3.1901    1.8269 C   0  0  0  0  0  0  0  0  0  0  0  0
   -2.8848    3.6247    0.8671 H   0  0  0  0  0  0  0  0  0  0  0  0
   -3.4307    3.2763    2.5255 H   0  0  0  0  0  0  0  0  0  0  0  0
   -1.7411    3.7456    2.2155 H   0  0  0  0  0  0  0  0  0  0  0  0
  5  6  2  0  0  0  0
  5  7  1  0  0  0  0
  2  3  1  0  0  0  0
  2  4  1  0  0  0  0
  2  5  1  0  0  0  0
  1  2  1  0  0  0  0
 26 27  2  0  0  0  0
 26 28  1  0  0  0  0
 23 24  1  0  0  0  0
 23 25  1  0  0  0  0
 20 21  1  0  0  0  0
 20 22  1  0  0  0  0
 20 23  1  0  0  0  0
 17 18  1  0  0  0  0
 17 19  1  0  0  0  0
 17 20  1  0  0  0  0
 14 15  1  0  0  0  0
 14 16  1  0  0  0  0
 14 17  1  0  0  0  0
 11 12  1  0  0  0  0
 11 13  1  0  0  0  0
 11 14  1  0  0  0  0
  9 10  1  0  0  0  0
  9 11  1  0  0  0  0
  9 26  1  0  0  0  0
  7  8  1  0  0  0  0
  7  9  1  0  0  0  0
 30 31  1  0  0  0  0
 30 32  1  0  0  0  0
 30 33  1  0  0  0  0
 28 29  1  0  0  0  0
 28 30  1  0  0  0  0
M  END
$$$$
default_name
  -OEChem-01062215323D

 33 32  0     1  0  0  0  0  0999 V2000
   -3.8420   -3.6918    1.5562 H   0  0  0  0  0  0  0  0  0  0  0  0
   -3.8430   -2.7008    1.1032 C   0  0  0  0  0  0  0  0  0  0  0  0
   -4.5510   -2.0608    1.6242 H   0  0  0  0  0  0  0  0  0  0  0  0
   -4.1140   -2.7798    0.0522 H   0  0  0  0  0  0  0  0  0  0  0  0
   -2.4570   -2.1098    1.2172 C   0  0  0  0  0  0  0  0  0  0  0  0
   -1.5600   -2.7438    1.7572 O   0  0  0  0  0  0  0  0  0  0  0  0
   -2.2870   -0.8898    0.7102 N   0  0  0  0  0  0  0  0  0  0  0  0
   -3.0820   -0.4218    0.2992 H   0  0  0  0  0  0  0  0  0  0  0  0
   -1.0240   -0.1468    0.7262 C   0  0  1  0  0  0  0  0  0  0  0  0
   -0.4678   -0.4274    1.6218 H   0  0  0  0  0  0  0  0  0  0  0  0
   -0.1989   -0.5467   -0.5124 C   0  0  0  0  0  0  0  0  0  0  0  0
   -0.8250   -0.4291   -1.3992 H   0  0  0  0  0  0  0  0  0  0  0  0
    0.6556    0.1247   -0.6074 H   0  0  0  0  0  0  0  0  0  0  0  0
    0.3006   -1.9992   -0.4672 C   0  0  0  0  0  0  0  0  0  0  0  0
    0.9191   -2.1462    0.4186 H   0  0  0  0  0  0  0  0  0  0  0  0
   -0.5572   -2.6725   -0.4200 H   0  0  0  0  0  0  0  0  0  0  0  0
    1.1335   -2.3305   -1.7107 C   0  0  0  0  0  0  0  0  0  0  0  0
    0.5302   -2.1805   -2.6066 H   0  0  0  0  0  0  0  0  0  0  0  0
    2.0049   -1.6761   -1.7496 H   0  0  0  0  0  0  0  0  0  0  0  0
    1.5960   -3.7851   -1.6525 C   0  0  0  0  0  0  0  0  0  0  0  0
    2.2141   -3.9327   -0.7684 H   0  0  0  0  0  0  0  0  0  0  0  0
    0.7275   -4.4391   -1.5957 H   0  0  0  0  0  0  0  0  0  0  0  0
    2.3778   -4.1431   -2.8416 N   0  0  0  0  0  0  0  0  0  0  0  0
    2.6779   -5.1037   -2.7631 H   0  0  0  0  0  0  0  0  0  0  0  0
    1.7988   -4.0385   -3.6626 H   0  0  0  0  0  0  0  0  0  0  0  0
   -1.2990    1.3650    0.7800 C   0  0  0  0  0  0  0  0  0  0  0  0
   -0.8853    2.0991   -0.1150 O   0  0  0  0  0  0  0  0  0  0  0  0
   -1.9861    1.8244    1.8322 N   0  0  0  0  0  0  0  0  0  0  0  0
   -2.3035    1.1572    2.5161 H   0  0  0  0  0  0  0  0  0  0  0  0
   -2.3156    3.2337    2.0396 C   0  0  0  0  0  0  0  0  0  0  0  0
   -2.8443    3.6215    1.1661 H   0  0  0  0  0  0  0  0  0  0  0  0
   -2.9453    3.3504    2.9228 H   0  0  0  0  0  0  0  0  0  0  0  0
   -1.3973    3.8097    2.1719 H   0  0  0  0  0  0  0  0  0  0  0  0
  5  6  2  0  0  0  0
  5  7  1  0  0  0  0
  2  3  1  0  0  0  0
  2  4  1  0  0  0  0
  2  5  1  0  0  0  0
  1  2  1  0  0  0  0
 26 27  2  0  0  0  0
 26 28  1  0  0  0  0
 23 24  1  0  0  0  0
 23 25  1  0  0  0  0
 20 21  1  0  0  0  0
 20 22  1  0  0  0  0
 20 23  1  0  0  0  0
 17 18  1  0  0  0  0
 17 19  1  0  0  0  0
 17 20  1  0  0  0  0
 14 15  1  0  0  0  0
 14 16  1  0  0  0  0
 14 17  1  0  0  0  0
 11 12  1  0  0  0  0
 11 13  1  0  0  0  0
 11 14  1  0  0  0  0
  9 10  1  0  0  0  0
  9 11  1  0  0  0  0
  9 26  1  0  0  0  0
  7  8  1  0  0  0  0
  7  9  1  0  0  0  0
 30 31  1  0  0  0  0
 30 32  1  0  0  0  0
 30 33  1  0  0  0  0
 28 29  1  0  0  0  0
 28 30  1  0  0  0  0
M  END
$$$$
default_name
  -OEChem-01062215323D

 33 32  0     1  0  0  0  0  0999 V2000
   -3.8420   -3.6918    1.5562 H   0  0  0  0  0  0  0  0  0  0  0  0
   -3.8430   -2.7008    1.1032 C   0  0  0  0  0  0  0  0  0  0  0  0
   -4.5510   -2.0608    1.6242 H   0  0  0  0  0  0  0  0  0  0  0  0
   -4.1140   -2.7798    0.0522 H   0  0  0  0  0  0  0  0  0  0  0  0
   -2.4570   -2.1098    1.2172 C   0  0  0  0  0  0  0  0  0  0  0  0
   -1.5600   -2.7438    1.7572 O   0  0  0  0  0  0  0  0  0  0  0  0
   -2.2870   -0.8898    0.7102 N   0  0  0  0  0  0  0  0  0  0  0  0
   -3.0820   -0.4218    0.2992 H   0  0  0  0  0  0  0  0  0  0  0  0
   -1.0240   -0.1468    0.7262 C   0  0  1  0  0  0  0  0  0  0  0  0
   -0.4678   -0.4274    1.6218 H   0  0  0  0  0  0  0  0  0  0  0  0
   -0.1989   -0.5467   -0.5124 C   0  0  0  0  0  0  0  0  0  0  0  0
   -0.8250   -0.4291   -1.3992 H   0  0  0  0  0  0  0  0  0  0  0  0
    0.6556    0.1247   -0.6074 H   0  0  0  0  0  0  0  0  0  0  0  0
    0.3006   -1.9992   -0.4672 C   0  0  0  0  0  0  0  0  0  0  0  0
    0.9191   -2.1462    0.4186 H   0  0  0  0  0  0  0  0  0  0  0  0
   -0.5572   -2.6725   -0.4200 H   0  0  0  0  0  0  0  0  0  0  0  0
    1.1335   -2.3305   -1.7107 C   0  0  0  0  0  0  0  0  0  0  0  0
    0.5302   -2.1805   -2.6066 H   0  0  0  0  0  0  0  0  0  0  0  0
    2.0049   -1.6761   -1.7496 H   0  0  0  0  0  0  0  0  0  0  0  0
    1.5960   -3.7851   -1.6525 C   0  0  0  0  0  0  0  0  0  0  0  0
    2.2141   -3.9327   -0.7684 H   0  0  0  0  0  0  0  0  0  0  0  0
    0.7275   -4.4391   -1.5957 H   0  0  0  0  0  0  0  0  0  0  0  0
    2.3778   -4.1431   -2.8416 N   0  0  0  0  0  0  0  0  0  0  0  0
    2.6779   -5.1037   -2.7631 H   0  0  0  0  0  0  0  0  0  0  0  0
    1.7988   -4.0385   -3.6626 H   0  0  0  0  0  0  0  0  0  0  0  0
   -1.2990    1.3650    0.7800 C   0  0  0  0  0  0  0  0  0  0  0  0
   -1.1375    2.0570   -0.2230 O   0  0  0  0  0  0  0  0  0  0  0  0
   -1.7028    1.8717    1.9507 N   0  0  0  0  0  0  0  0  0  0  0  0
   -1.8257    1.2367    2.7223 H   0  0  0  0  0  0  0  0  0  0  0  0
   -1.9899    3.2883    2.1714 C   0  0  0  0  0  0  0  0  0  0  0  0
   -2.7291    3.6325    1.4448 H   0  0  0  0  0  0  0  0  0  0  0  0
   -2.3760    3.4448    3.1796 H   0  0  0  0  0  0  0  0  0  0  0  0
   -1.0770    3.8727    2.0393 H   0  0  0  0  0  0  0  0  0  0  0  0
  5  6  2  0  0  0  0
  5  7  1  0  0  0  0
  2  3  1  0  0  0  0
  2  4  1  0  0  0  0
  2  5  1  0  0  0  0
  1  2  1  0  0  0  0
 26 27  2  0  0  0  0
 26 28  1  0  0  0  0
 23 24  1  0  0  0  0
 23 25  1  0  0  0  0
 20 21  1  0  0  0  0
 20 22  1  0  0  0  0
 20 23  1  0  0  0  0
 17 18  1  0  0  0  0
 17 19  1  0  0  0  0
 17 20  1  0  0  0  0
 14 15  1  0  0  0  0
 14 16  1  0  0  0  0
 14 17  1  0  0  0  0
 11 12  1  0  0  0  0
 11 13  1  0  0  0  0
 11 14  1  0  0  0  0
  9 10  1  0  0  0  0
  9 11  1  0  0  0  0
  9 26  1  0  0  0  0
  7  8  1  0  0  0  0
  7  9  1  0  0  0  0
 30 31  1  0  0  0  0
 30 32  1  0  0  0  0
 30 33  1  0  0  0  0
 28 29  1  0  0  0  0
 28 30  1  0  0  0  0
M  END
$$$$
default_name
  -OEChem-01062215323D

 33 32  0     1  0  0  0  0  0999 V2000
   -3.8420   -3.6918    1.5562 H   0  0  0  0  0  0  0  0  0  0  0  0
   -3.8430   -2.7008    1.1032 C   0  0  0  0  0  0  0  0  0  0  0  0
   -4.5510   -2.0608    1.6242 H   0  0  0  0  0  0  0  0  0  0  0  0
   -4.1140   -2.7798    0.0522 H   0  0  0  0  0  0  0  0  0  0  0  0
   -2.4570   -2.1098    1.2172 C   0  0  0  0  0  0  0  0  0  0  0  0
   -1.5600   -2.7438    1.7572 O   0  0  0  0  0  0  0  0  0  0  0  0
   -2.2870   -0.8898    0.7102 N   0  0  0  0  0  0  0  0  0  0  0  0
   -3.0820   -0.4218    0.2992 H   0  0  0  0  0  0  0  0  0  0  0  0
   -1.0240   -0.1468    0.7262 C   0  0  1  0  0  0  0  0  0  0  0  0
   -0.4678   -0.4274    1.6218 H   0  0  0  0  0  0  0  0  0  0  0  0
   -0.1989   -0.5467   -0.5124 C   0  0  0  0  0  0  0  0  0  0  0  0
   -0.8250   -0.4291   -1.3992 H   0  0  0  0  0  0  0  0  0  0  0  0
    0.6556    0.1247   -0.6074 H   0  0  0  0  0  0  0  0  0  0  0  0
    0.3006   -1.9992   -0.4672 C   0  0  0  0  0  0  0  0  0  0  0  0
    0.9191   -2.1462    0.4186 H   0  0  0  0  0  0  0  0  0  0  0  0
   -0.5572   -2.6725   -0.4200 H   0  0  0  0  0  0  0  0  0  0  0  0
    1.1335   -2.3305   -1.7107 C   0  0  0  0  0  0  0  0  0  0  0  0
    0.5302   -2.1805   -2.6066 H   0  0  0  0  0  0  0  0  0  0  0  0
    2.0049   -1.6761   -1.7496 H   0  0  0  0  0  0  0  0  0  0  0  0
    1.5960   -3.7851   -1.6525 C   0  0  0  0  0  0  0  0  0  0  0  0
    2.2141   -3.9327   -0.7684 H   0  0  0  0  0  0  0  0  0  0  0  0
    0.7275   -4.4391   -1.5957 H   0  0  0  0  0  0  0  0  0  0  0  0
    2.3778   -4.1431   -2.8416 N   0  0  0  0  0  0  0  0  0  0  0  0
    2.6779   -5.1037   -2.7631 H   0  0  0  0  0  0  0  0  0  0  0  0
    1.7988   -4.0385   -3.6626 H   0  0  0  0  0  0  0  0  0  0  0  0
   -1.2990    1.3650    0.7800 C   0  0  0  0  0  0  0  0  0  0  0  0
   -1.4083    2.0092   -0.2612 O   0  0  0  0  0  0  0  0  0  0  0  0
   -1.3994    1.9254    1.9909 N   0  0  0  0  0  0  0  0  0  0  0  0
   -1.3126    1.3274    2.7961 H   0  0  0  0  0  0  0  0  0  0  0  0
   -1.6422    3.3500    2.2132 C   0  0  0  0  0  0  0  0  0  0  0  0
   -2.5470    3.6571    1.6841 H   0  0  0  0  0  0  0  0  0  0  0  0
   -1.7616    3.5530    3.2784 H   0  0  0  0  0  0  0  0  0  0  0  0
   -0.8018    3.9303    1.8267 H   0  0  0  0  0  0  0  0  0  0  0  0
  5  6  2  0  0  0  0
  5  7  1  0  0  0  0
  2  3  1  0  0  0  0
  2  4  1  0  0  0  0
  2  5  1  0  0  0  0
  1  2  1  0  0  0  0
 26 27  2  0  0  0  0
 26 28  1  0  0  0  0
 23 24  1  0  0  0  0
 23 25  1  0  0  0  0
 20 21  1  0  0  0  0
 20 22  1  0  0  0  0
 20 23  1  0  0  0  0
 17 18  1  0  0  0  0
 17 19  1  0  0  0  0
 17 20  1  0  0  0  0
 14 15  1  0  0  0  0
 14 16  1  0  0  0  0
 14 17  1  0  0  0  0
 11 12  1  0  0  0  0
 11 13  1  0  0  0  0
 11 14  1  0  0  0  0
  9 10  1  0  0  0  0
  9 11  1  0  0  0  0
  9 26  1  0  0  0  0
  7  8  1  0  0  0  0
  7  9  1  0  0  0  0
 30 31  1  0  0  0  0
 30 32  1  0  0  0  0
 30 33  1  0  0  0  0
 28 29  1  0  0  0  0
 28 30  1  0  0  0  0
M  END
$$$$
default_name
  -OEChem-01062215323D

 33 32  0     1  0  0  0  0  0999 V2000
   -3.8420   -3.6918    1.5562 H   0  0  0  0  0  0  0  0  0  0  0  0
   -3.8430   -2.7008    1.1032 C   0  0  0  0  0  0  0  0  0  0  0  0
   -4.5510   -2.0608    1.6242 H   0  0  0  0  0  0  0  0  0  0  0  0
   -4.1140   -2.7798    0.0522 H   0  0  0  0  0  0  0  0  0  0  0  0
   -2.4570   -2.1098    1.2172 C   0  0  0  0  0  0  0  0  0  0  0  0
   -1.5600   -2.7438    1.7572 O   0  0  0  0  0  0  0  0  0  0  0  0
   -2.2870   -0.8898    0.7102 N   0  0  0  0  0  0  0  0  0  0  0  0
   -3.0820   -0.4218    0.2992 H   0  0  0  0  0  0  0  0  0  0  0  0
   -1.0240   -0.1468    0.7262 C   0  0  1  0  0  0  0  0  0  0  0  0
   -0.4678   -0.4274    1.6218 H   0  0  0  0  0  0  0  0  0  0  0  0
   -0.1989   -0.5467   -0.5124 C   0  0  0  0  0  0  0  0  0  0  0  0
   -0.8250   -0.4291   -1.3992 H   0  0  0  0  0  0  0  0  0  0  0  0
    0.6556    0.1247   -0.6074 H   0  0  0  0  0  0  0  0  0  0  0  0
    0.3006   -1.9992   -0.4672 C   0  0  0  0  0  0  0  0  0  0  0  0
    0.9191   -2.1462    0.4186 H   0  0  0  0  0  0  0  0  0  0  0  0
   -0.5572   -2.6725   -0.4200 H   0  0  0  0  0  0  0  0  0  0  0  0
    1.1335   -2.3305   -1.7107 C   0  0  0  0  0  0  0  0  0  0  0  0
    0.5302   -2.1805   -2.6066 H   0  0  0  0  0  0  0  0  0  0  0  0
    2.0049   -1.6761   -1.7496 H   0  0  0  0  0  0  0  0  0  0  0  0
    1.5960   -3.7851   -1.6525 C   0  0  0  0  0  0  0  0  0  0  0  0
    2.2141   -3.9327   -0.7684 H   0  0  0  0  0  0  0  0  0  0  0  0
    0.7275   -4.4391   -1.5957 H   0  0  0  0  0  0  0  0  0  0  0  0
    2.3778   -4.1431   -2.8416 N   0  0  0  0  0  0  0  0  0  0  0  0
    2.6779   -5.1037   -2.7631 H   0  0  0  0  0  0  0  0  0  0  0  0
    1.7988   -4.0385   -3.6626 H   0  0  0  0  0  0  0  0  0  0  0  0
   -1.2990    1.3650    0.7800 C   0  0  0  0  0  0  0  0  0  0  0  0
   -1.6791    1.9587   -0.2270 O   0  0  0  0  0  0  0  0  0  0  0  0
   -1.0966    1.9820    1.9500 N   0  0  0  0  0  0  0  0  0  0  0  0
   -0.7989    1.4231    2.7327 H   0  0  0  0  0  0  0  0  0  0  0  0
   -1.2963    3.4147    2.1623 C   0  0  0  0  0  0  0  0  0  0  0  0
   -2.3104    3.6936    1.8678 H   0  0  0  0  0  0  0  0  0  0  0  0
   -1.1440    3.6677    3.2125 H   0  0  0  0  0  0  0  0  0  0  0  0
   -0.5906    3.9786    1.5488 H   0  0  0  0  0  0  0  0  0  0  0  0
  5  6  2  0  0  0  0
  5  7  1  0  0  0  0
  2  3  1  0  0  0  0
  2  4  1  0  0  0  0
  2  5  1  0  0  0  0
  1  2  1  0  0  0  0
 26 27  2  0  0  0  0
 26 28  1  0  0  0  0
 23 24  1  0  0  0  0
 23 25  1  0  0  0  0
 20 21  1  0  0  0  0
 20 22  1  0  0  0  0
 20 23  1  0  0  0  0
 17 18  1  0  0  0  0
 17 19  1  0  0  0  0
 17 20  1  0  0  0  0
 14 15  1  0  0  0  0
 14 16  1  0  0  0  0
 14 17  1  0  0  0  0
 11 12  1  0  0  0  0
 11 13  1  0  0  0  0
 11 14  1  0  0  0  0
  9 10  1  0  0  0  0
  9 11  1  0  0  0  0
  9 26  1  0  0  0  0
  7  8  1  0  0  0  0
  7  9  1  0  0  0  0
 30 31  1  0  0  0  0
 30 32  1  0  0  0  0
 30 33  1  0  0  0  0
 28 29  1  0  0  0  0
 28 30  1  0  0  0  0
M  END
$$$$
default_name
  -OEChem-01062215323D

 33 32  0     1  0  0  0  0  0999 V2000
   -3.8420   -3.6918    1.5562 H   0  0  0  0  0  0  0  0  0  0  0  0
   -3.8430   -2.7008    1.1032 C   0  0  0  0  0  0  0  0  0  0  0  0
   -4.5510   -2.0608    1.6242 H   0  0  0  0  0  0  0  0  0  0  0  0
   -4.1140   -2.7798    0.0522 H   0  0  0  0  0  0  0  0  0  0  0  0
   -2.4570   -2.1098    1.2172 C   0  0  0  0  0  0  0  0  0  0  0  0
   -1.5600   -2.7438    1.7572 O   0  0  0  0  0  0  0  0  0  0  0  0
   -2.2870   -0.8898    0.7102 N   0  0  0  0  0  0  0  0  0  0  0  0
   -3.0820   -0.4218    0.2992 H   0  0  0  0  0  0  0  0  0  0  0  0
   -1.0240   -0.1468    0.7262 C   0  0  1  0  0  0  0  0  0  0  0  0
   -0.4678   -0.4274    1.6218 H   0  0  0  0  0  0  0  0  0  0  0  0
   -0.1989   -0.5467   -0.5124 C   0  0  0  0  0  0  0  0  0  0  0  0
   -0.8250   -0.4291   -1.3992 H   0  0  0  0  0  0  0  0  0  0  0  0
    0.6556    0.1247   -0.6074 H   0  0  0  0  0  0  0  0  0  0  0  0
    0.3006   -1.9992   -0.4672 C   0  0  0  0  0  0  0  0  0  0  0  0
    0.9191   -2.1462    0.4186 H   0  0  0  0  0  0  0  0  0  0  0  0
   -0.5572   -2.6725   -0.4200 H   0  0  0  0  0  0  0  0  0  0  0  0
    1.1335   -2.3305   -1.7107 C   0  0  0  0  0  0  0  0  0  0  0  0
    0.5302   -2.1805   -2.6066 H   0  0  0  0  0  0  0  0  0  0  0  0
    2.0049   -1.6761   -1.7496 H   0  0  0  0  0  0  0  0  0  0  0  0
    1.5960   -3.7851   -1.6525 C   0  0  0  0  0  0  0  0  0  0  0  0
    2.2141   -3.9327   -0.7684 H   0  0  0  0  0  0  0  0  0  0  0  0
    0.7275   -4.4391   -1.5957 H   0  0  0  0  0  0  0  0  0  0  0  0
    2.3778   -4.1431   -2.8416 N   0  0  0  0  0  0  0  0  0  0  0  0
    2.6779   -5.1037   -2.7631 H   0  0  0  0  0  0  0  0  0  0  0  0
    1.7988   -4.0385   -3.6626 H   0  0  0  0  0  0  0  0  0  0  0  0
   -1.2990    1.3650    0.7800 C   0  0  0  0  0  0  0  0  0  0  0  0
   -1.9315    1.9091   -0.1227 O   0  0  0  0  0  0  0  0  0  0  0  0
   -0.8151    2.0374    1.8308 N   0  0  0  0  0  0  0  0  0  0  0  0
   -0.3197    1.5172    2.5363 H   0  0  0  0  0  0  0  0  0  0  0  0
   -0.9758    3.4780    2.0221 C   0  0  0  0  0  0  0  0  0  0  0  0
   -2.0355    3.7395    1.9834 H   0  0  0  0  0  0  0  0  0  0  0  0
   -0.5652    3.7810    2.9864 H   0  0  0  0  0  0  0  0  0  0  0  0
   -0.4578    4.0143    1.2243 H   0  0  0  0  0  0  0  0  0  0  0  0
  5  6  2  0  0  0  0
  5  7  1  0  0  0  0
  2  3  1  0  0  0  0
  2  4  1  0  0  0  0
  2  5  1  0  0  0  0
  1  2  1  0  0  0  0
 26 27  2  0  0  0  0
 26 28  1  0  0  0  0
 23 24  1  0  0  0  0
 23 25  1  0  0  0  0
 20 21  1  0  0  0  0
 20 22  1  0  0  0  0
 20 23  1  0  0  0  0
 17 18  1  0  0  0  0
 17 19  1  0  0  0  0
 17 20  1  0  0  0  0
 14 15  1  0  0  0  0
 14 16  1  0  0  0  0
 14 17  1  0  0  0  0
 11 12  1  0  0  0  0
 11 13  1  0  0  0  0
 11 14  1  0  0  0  0
  9 10  1  0  0  0  0
  9 11  1  0  0  0  0
  9 26  1  0  0  0  0
  7  8  1  0  0  0  0
  7  9  1  0  0  0  0
 30 31  1  0  0  0  0
 30 32  1  0  0  0  0
 30 33  1  0  0  0  0
 28 29  1  0  0  0  0
 28 30  1  0  0  0  0
M  END
$$$$
default_name
  -OEChem-01062215323D

 33 32  0     1  0  0  0  0  0999 V2000
   -3.8420   -3.6918    1.5562 H   0  0  0  0  0  0  0  0  0  0  0  0
   -3.8430   -2.7008    1.1032 C   0  0  0  0  0  0  0  0  0  0  0  0
   -4.5510   -2.0608    1.6242 H   0  0  0  0  0  0  0  0  0  0  0  0
   -4.1140   -2.7798    0.0522 H   0  0  0  0  0  0  0  0  0  0  0  0
   -2.4570   -2.1098    1.2172 C   0  0  0  0  0  0  0  0  0  0  0  0
   -1.5600   -2.7438    1.7572 O   0  0  0  0  0  0  0  0  0  0  0  0
   -2.2870   -0.8898    0.7102 N   0  0  0  0  0  0  0  0  0  0  0  0
   -3.0820   -0.4218    0.2992 H   0  0  0  0  0  0  0  0  0  0  0  0
   -1.0240   -0.1468    0.7262 C   0  0  1  0  0  0  0  0  0  0  0  0
   -0.4678   -0.4274    1.6218 H   0  0  0  0  0  0  0  0  0  0  0  0
   -0.1989   -0.5467   -0.5124 C   0  0  0  0  0  0  0  0  0  0  0  0
   -0.8250   -0.4291   -1.3992 H   0  0  0  0  0  0  0  0  0  0  0  0
    0.6556    0.1247   -0.6074 H   0  0  0  0  0  0  0  0  0  0  0  0
    0.3006   -1.9992   -0.4672 C   0  0  0  0  0  0  0  0  0  0  0  0
    0.9191   -2.1462    0.4186 H   0  0  0  0  0  0  0  0  0  0  0  0
   -0.5572   -2.6725   -0.4200 H   0  0  0  0  0  0  0  0  0  0  0  0
    1.1335   -2.3305   -1.7107 C   0  0  0  0  0  0  0  0  0  0  0  0
    0.5302   -2.1805   -2.6066 H   0  0  0  0  0  0  0  0  0  0  0  0
    2.0049   -1.6761   -1.7496 H   0  0  0  0  0  0  0  0  0  0  0  0
    1.5960   -3.7851   -1.6525 C   0  0  0  0  0  0  0  0  0  0  0  0
    2.2141   -3.9327   -0.7684 H   0  0  0  0  0  0  0  0  0  0  0  0
    0.7275   -4.4391   -1.5957 H   0  0  0  0  0  0  0  0  0  0  0  0
    2.3778   -4.1431   -2.8416 N   0  0  0  0  0  0  0  0  0  0  0  0
    2.6779   -5.1037   -2.7631 H   0  0  0  0  0  0  0  0  0  0  0  0
    1.7988   -4.0385   -3.6626 H   0  0  0  0  0  0  0  0  0  0  0  0
   -1.2990    1.3650    0.7800 C   0  0  0  0  0  0  0  0  0  0  0  0
   -2.1484    1.8637    0.0446 O   0  0  0  0  0  0  0  0  0  0  0  0
   -0.5740    2.0880    1.6415 N   0  0  0  0  0  0  0  0  0  0  0  0
    0.0922    1.6034    2.2202 H   0  0  0  0  0  0  0  0  0  0  0  0
   -0.7024    3.5356    1.8022 C   0  0  0  0  0  0  0  0  0  0  0  0
   -1.7409    3.7917    2.0229 H   0  0  0  0  0  0  0  0  0  0  0  0
   -0.0647    3.8853    2.6154 H   0  0  0  0  0  0  0  0  0  0  0  0
   -0.4125    4.0350    0.8754 H   0  0  0  0  0  0  0  0  0  0  0  0
  5  6  2  0  0  0  0
  5  7  1  0  0  0  0
  2  3  1  0  0  0  0
  2  4  1  0  0  0  0
  2  5  1  0  0  0  0
  1  2  1  0  0  0  0
 26 27  2  0  0  0  0
 26 28  1  0  0  0  0
 23 24  1  0  0  0  0
 23 25  1  0  0  0  0
 20 21  1  0  0  0  0
 20 22  1  0  0  0  0
 20 23  1  0  0  0  0
 17 18  1  0  0  0  0
 17 19  1  0  0  0  0
 17 20  1  0  0  0  0
 14 15  1  0  0  0  0
 14 16  1  0  0  0  0
 14 17  1  0  0  0  0
 11 12  1  0  0  0  0
 11 13  1  0  0  0  0
 11 14  1  0  0  0  0
  9 10  1  0  0  0  0
  9 11  1  0  0  0  0
  9 26  1  0  0  0  0
  7  8  1  0  0  0  0
  7  9  1  0  0  0  0
 30 31  1  0  0  0  0
 30 32  1  0  0  0  0
 30 33  1  0  0  0  0
 28 29  1  0  0  0  0
 28 30  1  0  0  0  0
M  END
$$$$
default_name
  -OEChem-01062215323D

 33 32  0     1  0  0  0  0  0999 V2000
   -3.8420   -3.6918    1.5562 H   0  0  0  0  0  0  0  0  0  0  0  0
   -3.8430   -2.7008    1.1032 C   0  0  0  0  0  0  0  0  0  0  0  0
   -4.5510   -2.0608    1.6242 H   0  0  0  0  0  0  0  0  0  0  0  0
   -4.1140   -2.7798    0.0522 H   0  0  0  0  0  0  0  0  0  0  0  0
   -2.4570   -2.1098    1.2172 C   0  0  0  0  0  0  0  0  0  0  0  0
   -1.5600   -2.7438    1.7572 O   0  0  0  0  0  0  0  0  0  0  0  0
   -2.2870   -0.8898    0.7102 N   0  0  0  0  0  0  0  0  0  0  0  0
   -3.0820   -0.4218    0.2992 H   0  0  0  0  0  0  0  0  0  0  0  0
   -1.0240   -0.1468    0.7262 C   0  0  1  0  0  0  0  0  0  0  0  0
   -0.4678   -0.4274    1.6218 H   0  0  0  0  0  0  0  0  0  0  0  0
   -0.1989   -0.5467   -0.5124 C   0  0  0  0  0  0  0  0  0  0  0  0
   -0.8250   -0.4291   -1.3992 H   0  0  0  0  0  0  0  0  0  0  0  0
    0.6556    0.1247   -0.6074 H   0  0  0  0  0  0  0  0  0  0  0  0
    0.3006   -1.9992   -0.4672 C   0  0  0  0  0  0  0  0  0  0  0  0
    0.9191   -2.1462    0.4186 H   0  0  0  0  0  0  0  0  0  0  0  0
   -0.5572   -2.6725   -0.4200 H   0  0  0  0  0  0  0  0  0  0  0  0
    1.1335   -2.3305   -1.7107 C   0  0  0  0  0  0  0  0  0  0  0  0
    0.5302   -2.1805   -2.6066 H   0  0  0  0  0  0  0  0  0  0  0  0
    2.0049   -1.6761   -1.7496 H   0  0  0  0  0  0  0  0  0  0  0  0
    1.5960   -3.7851   -1.6525 C   0  0  0  0  0  0  0  0  0  0  0  0
    2.2141   -3.9327   -0.7684 H   0  0  0  0  0  0  0  0  0  0  0  0
    0.7275   -4.4391   -1.5957 H   0  0  0  0  0  0  0  0  0  0  0  0
    2.3778   -4.1431   -2.8416 N   0  0  0  0  0  0  0  0  0  0  0  0
    2.6779   -5.1037   -2.7631 H   0  0  0  0  0  0  0  0  0  0  0  0
    1.7988   -4.0385   -3.6626 H   0  0  0  0  0  0  0  0  0  0  0  0
   -1.2990    1.3650    0.7800 C   0  0  0  0  0  0  0  0  0  0  0  0
   -2.3148    1.8256    0.2635 O   0  0  0  0  0  0  0  0  0  0  0  0
   -0.3897    2.1303    1.3949 N   0  0  0  0  0  0  0  0  0  0  0  0
    0.4090    1.6757    1.8061 H   0  0  0  0  0  0  0  0  0  0  0  0
   -0.4948    3.5834    1.5176 C   0  0  0  0  0  0  0  0  0  0  0  0
   -1.4468    3.8466    1.9837 H   0  0  0  0  0  0  0  0  0  0  0  0
    0.3234    3.9733    2.1249 H   0  0  0  0  0  0  0  0  0  0  0  0
   -0.4576    4.0392    0.5259 H   0  0  0  0  0  0  0  0  0  0  0  0
  5  6  2  0  0  0  0
  5  7  1  0  0  0  0
  2  3  1  0  0  0  0
  2  4  1  0  0  0  0
  2  5  1  0  0  0  0
  1  2  1  0  0  0  0
 26 27  2  0  0  0  0
 26 28  1  0  0  0  0
 23 24  1  0  0  0  0
 23 25  1  0  0  0  0
 20 21  1  0  0  0  0
 20 22  1  0  0  0  0
 20 23  1  0  0  0  0
 17 18  1  0  0  0  0
 17 19  1  0  0  0  0
 17 20  1  0  0  0  0
 14 15  1  0  0  0  0
 14 16  1  0  0  0  0
 14 17  1  0  0  0  0
 11 12  1  0  0  0  0
 11 13  1  0  0  0  0
 11 14  1  0  0  0  0
  9 10  1  0  0  0  0
  9 11  1  0  0  0  0
  9 26  1  0  0  0  0
  7  8  1  0  0  0  0
  7  9  1  0  0  0  0
 30 31  1  0  0  0  0
 30 32  1  0  0  0  0
 30 33  1  0  0  0  0
 28 29  1  0  0  0  0
 28 30  1  0  0  0  0
M  END
$$$$
default_name
  -OEChem-01062215323D

 33 32  0     1  0  0  0  0  0999 V2000
   -3.8420   -3.6918    1.5562 H   0  0  0  0  0  0  0  0  0  0  0  0
   -3.8430   -2.7008    1.1032 C   0  0  0  0  0  0  0  0  0  0  0  0
   -4.5510   -2.0608    1.6242 H   0  0  0  0  0  0  0  0  0  0  0  0
   -4.1140   -2.7798    0.0522 H   0  0  0  0  0  0  0  0  0  0  0  0
   -2.4570   -2.1098    1.2172 C   0  0  0  0  0  0  0  0  0  0  0  0
   -1.5600   -2.7438    1.7572 O   0  0  0  0  0  0  0  0  0  0  0  0
   -2.2870   -0.8898    0.7102 N   0  0  0  0  0  0  0  0  0  0  0  0
   -3.0820   -0.4218    0.2992 H   0  0  0  0  0  0  0  0  0  0  0  0
   -1.0240   -0.1468    0.7262 C   0  0  1  0  0  0  0  0  0  0  0  0
   -0.4678   -0.4274    1.6218 H   0  0  0  0  0  0  0  0  0  0  0  0
   -0.1989   -0.5467   -0.5124 C   0  0  0  0  0  0  0  0  0  0  0  0
   -0.8250   -0.4291   -1.3992 H   0  0  0  0  0  0  0  0  0  0  0  0
    0.6556    0.1247   -0.6074 H   0  0  0  0  0  0  0  0  0  0  0  0
    0.3006   -1.9992   -0.4672 C   0  0  0  0  0  0  0  0  0  0  0  0
    0.9191   -2.1462    0.4186 H   0  0  0  0  0  0  0  0  0  0  0  0
   -0.5572   -2.6725   -0.4200 H   0  0  0  0  0  0  0  0  0  0  0  0
    1.1335   -2.3305   -1.7107 C   0  0  0  0  0  0  0  0  0  0  0  0
    0.5302   -2.1805   -2.6066 H   0  0  0  0  0  0  0  0  0  0  0  0
    2.0049   -1.6761   -1.7496 H   0  0  0  0  0  0  0  0  0  0  0  0
    1.5960   -3.7851   -1.6525 C   0  0  0  0  0  0  0  0  0  0  0  0
    2.2141   -3.9327   -0.7684 H   0  0  0  0  0  0  0  0  0  0  0  0
    0.7275   -4.4391   -1.5957 H   0  0  0  0  0  0  0  0  0  0  0  0
    2.3778   -4.1431   -2.8416 N   0  0  0  0  0  0  0  0  0  0  0  0
    2.6779   -5.1037   -2.7631 H   0  0  0  0  0  0  0  0  0  0  0  0
    1.7988   -4.0385   -3.6626 H   0  0  0  0  0  0  0  0  0  0  0  0
   -1.2990    1.3650    0.7800 C   0  0  0  0  0  0  0  0  0  0  0  0
   -2.4196    1.7975    0.5191 O   0  0  0  0  0  0  0  0  0  0  0  0
   -0.2749    2.1614    1.1078 N   0  0  0  0  0  0  0  0  0  0  0  0
    0.6089    1.7293    1.3222 H   0  0  0  0  0  0  0  0  0  0  0  0
   -0.3671    3.6184    1.1876 C   0  0  0  0  0  0  0  0  0  0  0  0
   -1.1732    3.9004    1.8684 H   0  0  0  0  0  0  0  0  0  0  0  0
    0.5726    4.0391    1.5483 H   0  0  0  0  0  0  0  0  0  0  0  0
   -0.5902    4.0267    0.1996 H   0  0  0  0  0  0  0  0  0  0  0  0
  5  6  2  0  0  0  0
  5  7  1  0  0  0  0
  2  3  1  0  0  0  0
  2  4  1  0  0  0  0
  2  5  1  0  0  0  0
  1  2  1  0  0  0  0
 26 27  2  0  0  0  0
 26 28  1  0  0  0  0
 23 24  1  0  0  0  0
 23 25  1  0  0  0  0
 20 21  1  0  0  0  0
 20 22  1  0  0  0  0
 20 23  1  0  0  0  0
 17 18  1  0  0  0  0
 17 19  1  0  0  0  0
 17 20  1  0  0  0  0
 14 15  1  0  0  0  0
 14 16  1  0  0  0  0
 14 17  1  0  0  0  0
 11 12  1  0  0  0  0
 11 13  1  0  0  0  0
 11 14  1  0  0  0  0
  9 10  1  0  0  0  0
  9 11  1  0  0  0  0
  9 26  1  0  0  0  0
  7  8  1  0  0  0  0
  7  9  1  0  0  0  0
 30 31  1  0  0  0  0
 30 32  1  0  0  0  0
 30 33  1  0  0  0  0
 28 29  1  0  0  0  0
 28 30  1  0  0  0  0
M  END
$$$$
default_name
  -OEChem-01062215323D

 33 32  0     1  0  0  0  0  0999 V2000
   -3.8420   -3.6918    1.5562 H   0  0  0  0  0  0  0  0  0  0  0  0
   -3.8430   -2.7008    1.1032 C   0  0  0  0  0  0  0  0  0  0  0  0
   -4.5510   -2.0608    1.6242 H   0  0  0  0  0  0  0  0  0  0  0  0
   -4.1140   -2.7798    0.0522 H   0  0  0  0  0  0  0  0  0  0  0  0
   -2.4570   -2.1098    1.2172 C   0  0  0  0  0  0  0  0  0  0  0  0
   -1.5600   -2.7438    1.7572 O   0  0  0  0  0  0  0  0  0  0  0  0
   -2.2870   -0.8898    0.7102 N   0  0  0  0  0  0  0  0  0  0  0  0
   -3.0820   -0.4218    0.2992 H   0  0  0  0  0  0  0  0  0  0  0  0
   -1.0240   -0.1468    0.7262 C   0  0  1  0  0  0  0  0  0  0  0  0
   -0.3583   -0.6100    1.4558 H   0  0  0  0  0  0  0  0  0  0  0  0
   -0.3739   -0.2459   -0.6675 C   0  0  0  0  0  0  0  0  0  0  0  0
   -1.1098    0.0553   -1.4159 H   0  0  0  0  0  0  0  0  0  0  0  0
    0.4687    0.4448   -0.7213 H   0  0  0  0  0  0  0  0  0  0  0  0
    0.1097   -1.6629   -1.0135 C   0  0  0  0  0  0  0  0  0  0  0  0
    0.8375   -1.9926   -0.2717 H   0  0  0  0  0  0  0  0  0  0  0  0
   -0.7425   -2.3449   -1.0059 H   0  0  0  0  0  0  0  0  0  0  0  0
    0.7677   -1.6938   -2.3977 C   0  0  0  0  0  0  0  0  0  0  0  0
    0.0536   -1.3587   -3.1505 H   0  0  0  0  0  0  0  0  0  0  0  0
    1.6342   -1.0319   -2.4032 H   0  0  0  0  0  0  0  0  0  0  0  0
    1.2163   -3.1164   -2.7267 C   0  0  0  0  0  0  0  0  0  0  0  0
    1.9435   -3.4464   -1.9866 H   0  0  0  0  0  0  0  0  0  0  0  0
    0.3549   -3.7820   -2.7042 H   0  0  0  0  0  0  0  0  0  0  0  0
    1.8304   -3.1864   -4.0576 N   0  0  0  0  0  0  0  0  0  0  0  0
    2.1266   -4.1349   -4.2355 H   0  0  0  0  0  0  0  0  0  0  0  0
    1.1497   -2.9117   -4.7515 H   0  0  0  0  0  0  0  0  0  0  0  0
   -1.2712    1.3099    1.1517 C   0  0  0  0  0  0  0  0  0  0  0  0
   -2.4108    1.6919    1.4094 O   0  0  0  0  0  0  0  0  0  0  0  0
   -0.2064    2.1178    1.2137 N   0  0  0  0  0  0  0  0  0  0  0  0
    0.6963    1.7256    1.0017 H   0  0  0  0  0  0  0  0  0  0  0  0
   -0.2743    3.5304    1.5849 C   0  0  0  0  0  0  0  0  0  0  0  0
   -0.7639    3.6337    2.5557 H   0  0  0  0  0  0  0  0  0  0  0  0
    0.7283    3.9570    1.6401 H   0  0  0  0  0  0  0  0  0  0  0  0
   -0.8593    4.0773    0.8425 H   0  0  0  0  0  0  0  0  0  0  0  0
  5  6  2  0  0  0  0
  5  7  1  0  0  0  0
  2  3  1  0  0  0  0
  2  4  1  0  0  0  0
  2  5  1  0  0  0  0
  1  2  1  0  0  0  0
 26 27  2  0  0  0  0
 26 28  1  0  0  0  0
 23 24  1  0  0  0  0
 23 25  1  0  0  0  0
 20 21  1  0  0  0  0
 20 22  1  0  0  0  0
 20 23  1  0  0  0  0
 17 18  1  0  0  0  0
 17 19  1  0  0  0  0
 17 20  1  0  0  0  0
 14 15  1  0  0  0  0
 14 16  1  0  0  0  0
 14 17  1  0  0  0  0
 11 12  1  0  0  0  0
 11 13  1  0  0  0  0
 11 14  1  0  0  0  0
  9 10  1  0  0  0  0
  9 11  1  0  0  0  0
  9 26  1  0  0  0  0
  7  8  1  0  0  0  0
  7  9  1  0  0  0  0
 30 31  1  0  0  0  0
 30 32  1  0  0  0  0
 30 33  1  0  0  0  0
 28 29  1  0  0  0  0
 28 30  1  0  0  0  0
M  END
$$$$
default_name
  -OEChem-01062215323D

 33 32  0     1  0  0  0  0  0999 V2000
   -3.8420   -3.6918    1.5562 H   0  0  0  0  0  0  0  0  0  0  0  0
   -3.8430   -2.7008    1.1032 C   0  0  0  0  0  0  0  0  0  0  0  0
   -4.5510   -2.0608    1.6242 H   0  0  0  0  0  0  0  0  0  0  0  0
   -4.1140   -2.7798    0.0522 H   0  0  0  0  0  0  0  0  0  0  0  0
   -2.4570   -2.1098    1.2172 C   0  0  0  0  0  0  0  0  0  0  0  0
   -1.5600   -2.7438    1.7572 O   0  0  0  0  0  0  0  0  0  0  0  0
   -2.2870   -0.8898    0.7102 N   0  0  0  0  0  0  0  0  0  0  0  0
   -3.0820   -0.4218    0.2992 H   0  0  0  0  0  0  0  0  0  0  0  0
   -1.0240   -0.1468    0.7262 C   0  0  1  0  0  0  0  0  0  0  0  0
   -0.3583   -0.6100    1.4558 H   0  0  0  0  0  0  0  0  0  0  0  0
   -0.3739   -0.2459   -0.6675 C   0  0  0  0  0  0  0  0  0  0  0  0
   -1.1098    0.0553   -1.4159 H   0  0  0  0  0  0  0  0  0  0  0  0
    0.4687    0.4448   -0.7213 H   0  0  0  0  0  0  0  0  0  0  0  0
    0.1097   -1.6629   -1.0135 C   0  0  0  0  0  0  0  0  0  0  0  0
    0.8375   -1.9926   -0.2717 H   0  0  0  0  0  0  0  0  0  0  0  0
   -0.7425   -2.3449   -1.0059 H   0  0  0  0  0  0  0  0  0  0  0  0
    0.7677   -1.6938   -2.3977 C   0  0  0  0  0  0  0  0  0  0  0  0
    0.0536   -1.3587   -3.1505 H   0  0  0  0  0  0  0  0  0  0  0  0
    1.6342   -1.0319   -2.4032 H   0  0  0  0  0  0  0  0  0  0  0  0
    1.2163   -3.1164   -2.7267 C   0  0  0  0  0  0  0  0  0  0  0  0
    1.9435   -3.4464   -1.9866 H   0  0  0  0  0  0  0  0  0  0  0  0
    0.3549   -3.7820   -2.7042 H   0  0  0  0  0  0  0  0  0  0  0  0
    1.8304   -3.1864   -4.0576 N   0  0  0  0  0  0  0  0  0  0  0  0
    2.1266   -4.1349   -4.2355 H   0  0  0  0  0  0  0  0  0  0  0  0
    1.1497   -2.9117   -4.7515 H   0  0  0  0  0  0  0  0  0  0  0  0
   -1.2712    1.3099    1.1517 C   0  0  0  0  0  0  0  0  0  0  0  0
   -2.3395    1.6279    1.6699 O   0  0  0  0  0  0  0  0  0  0  0  0
   -0.2887    2.1889    0.9226 N   0  0  0  0  0  0  0  0  0  0  0  0
    0.5625    1.8473    0.5074 H   0  0  0  0  0  0  0  0  0  0  0  0
   -0.3724    3.6108    1.2527 C   0  0  0  0  0  0  0  0  0  0  0  0
   -0.6171    3.7303    2.3104 H   0  0  0  0  0  0  0  0  0  0  0  0
    0.5776    4.1053    1.0449 H   0  0  0  0  0  0  0  0  0  0  0  0
   -1.1609    4.0793    0.6602 H   0  0  0  0  0  0  0  0  0  0  0  0
  5  6  2  0  0  0  0
  5  7  1  0  0  0  0
  2  3  1  0  0  0  0
  2  4  1  0  0  0  0
  2  5  1  0  0  0  0
  1  2  1  0  0  0  0
 26 27  2  0  0  0  0
 26 28  1  0  0  0  0
 23 24  1  0  0  0  0
 23 25  1  0  0  0  0
 20 21  1  0  0  0  0
 20 22  1  0  0  0  0
 20 23  1  0  0  0  0
 17 18  1  0  0  0  0
 17 19  1  0  0  0  0
 17 20  1  0  0  0  0
 14 15  1  0  0  0  0
 14 16  1  0  0  0  0
 14 17  1  0  0  0  0
 11 12  1  0  0  0  0
 11 13  1  0  0  0  0
 11 14  1  0  0  0  0
  9 10  1  0  0  0  0
  9 11  1  0  0  0  0
  9 26  1  0  0  0  0
  7  8  1  0  0  0  0
  7  9  1  0  0  0  0
 30 31  1  0  0  0  0
 30 32  1  0  0  0  0
 30 33  1  0  0  0  0
 28 29  1  0  0  0  0
 28 30  1  0  0  0  0
M  END
$$$$
default_name
  -OEChem-01062215323D

 33 32  0     1  0  0  0  0  0999 V2000
   -3.8420   -3.6918    1.5562 H   0  0  0  0  0  0  0  0  0  0  0  0
   -3.8430   -2.7008    1.1032 C   0  0  0  0  0  0  0  0  0  0  0  0
   -4.5510   -2.0608    1.6242 H   0  0  0  0  0  0  0  0  0  0  0  0
   -4.1140   -2.7798    0.0522 H   0  0  0  0  0  0  0  0  0  0  0  0
   -2.4570   -2.1098    1.2172 C   0  0  0  0  0  0  0  0  0  0  0  0
   -1.5600   -2.7438    1.7572 O   0  0  0  0  0  0  0  0  0  0  0  0
   -2.2870   -0.8898    0.7102 N   0  0  0  0  0  0  0  0  0  0  0  0
   -3.0820   -0.4218    0.2992 H   0  0  0  0  0  0  0  0  0  0  0  0
   -1.0240   -0.1468    0.7262 C   0  0  1  0  0  0  0  0  0  0  0  0
   -0.3583   -0.6100    1.4558 H   0  0  0  0  0  0  0  0  0  0  0  0
   -0.3739   -0.2459   -0.6675 C   0  0  0  0  0  0  0  0  0  0  0  0
   -1.1098    0.0553   -1.4159 H   0  0  0  0  0  0  0  0  0  0  0  0
    0.4687    0.4448   -0.7213 H   0  0  0  0  0  0  0  0  0  0  0  0
    0.1097   -1.6629   -1.0135 C   0  0  0  0  0  0  0  0  0  0  0  0
    0.8375   -1.9926   -0.2717 H   0  0  0  0  0  0  0  0  0  0  0  0
   -0.7425   -2.3449   -1.0059 H   0  0  0  0  0  0  0  0  0  0  0  0
    0.7677   -1.6938   -2.3977 C   0  0  0  0  0  0  0  0  0  0  0  0
    0.0536   -1.3587   -3.1505 H   0  0  0  0  0  0  0  0  0  0  0  0
    1.6342   -1.0319   -2.4032 H   0  0  0  0  0  0  0  0  0  0  0  0
    1.2163   -3.1164   -2.7267 C   0  0  0  0  0  0  0  0  0  0  0  0
    1.9435   -3.4464   -1.9866 H   0  0  0  0  0  0  0  0  0  0  0  0
    0.3549   -3.7820   -2.7042 H   0  0  0  0  0  0  0  0  0  0  0  0
    1.8304   -3.1864   -4.0576 N   0  0  0  0  0  0  0  0  0  0  0  0
    2.1266   -4.1349   -4.2355 H   0  0  0  0  0  0  0  0  0  0  0  0
    1.1497   -2.9117   -4.7515 H   0  0  0  0  0  0  0  0  0  0  0  0
   -1.2712    1.3099    1.1517 C   0  0  0  0  0  0  0  0  0  0  0  0
   -2.2022    1.5821    1.9068 O   0  0  0  0  0  0  0  0  0  0  0  0
   -0.4446    2.2395    0.6587 N   0  0  0  0  0  0  0  0  0  0  0  0
    0.3034    1.9346    0.0577 H   0  0  0  0  0  0  0  0  0  0  0  0
   -0.5543    3.6675    0.9525 C   0  0  0  0  0  0  0  0  0  0  0  0
   -0.5424    3.8239    2.0334 H   0  0  0  0  0  0  0  0  0  0  0  0
    0.2755    4.2129    0.5007 H   0  0  0  0  0  0  0  0  0  0  0  0
   -1.4970    4.0522    0.5579 H   0  0  0  0  0  0  0  0  0  0  0  0
  5  6  2  0  0  0  0
  5  7  1  0  0  0  0
  2  3  1  0  0  0  0
  2  4  1  0  0  0  0
  2  5  1  0  0  0  0
  1  2  1  0  0  0  0
 26 27  2  0  0  0  0
 26 28  1  0  0  0  0
 23 24  1  0  0  0  0
 23 25  1  0  0  0  0
 20 21  1  0  0  0  0
 20 22  1  0  0  0  0
 20 23  1  0  0  0  0
 17 18  1  0  0  0  0
 17 19  1  0  0  0  0
 17 20  1  0  0  0  0
 14 15  1  0  0  0  0
 14 16  1  0  0  0  0
 14 17  1  0  0  0  0
 11 12  1  0  0  0  0
 11 13  1  0  0  0  0
 11 14  1  0  0  0  0
  9 10  1  0  0  0  0
  9 11  1  0  0  0  0
  9 26  1  0  0  0  0
  7  8  1  0  0  0  0
  7  9  1  0  0  0  0
 30 31  1  0  0  0  0
 30 32  1  0  0  0  0
 30 33  1  0  0  0  0
 28 29  1  0  0  0  0
 28 30  1  0  0  0  0
M  END
$$$$
default_name
  -OEChem-01062215323D

 33 32  0     1  0  0  0  0  0999 V2000
   -3.8420   -3.6918    1.5562 H   0  0  0  0  0  0  0  0  0  0  0  0
   -3.8430   -2.7008    1.1032 C   0  0  0  0  0  0  0  0  0  0  0  0
   -4.5510   -2.0608    1.6242 H   0  0  0  0  0  0  0  0  0  0  0  0
   -4.1140   -2.7798    0.0522 H   0  0  0  0  0  0  0  0  0  0  0  0
   -2.4570   -2.1098    1.2172 C   0  0  0  0  0  0  0  0  0  0  0  0
   -1.5600   -2.7438    1.7572 O   0  0  0  0  0  0  0  0  0  0  0  0
   -2.2870   -0.8898    0.7102 N   0  0  0  0  0  0  0  0  0  0  0  0
   -3.0820   -0.4218    0.2992 H   0  0  0  0  0  0  0  0  0  0  0  0
   -1.0240   -0.1468    0.7262 C   0  0  1  0  0  0  0  0  0  0  0  0
   -0.3583   -0.6100    1.4558 H   0  0  0  0  0  0  0  0  0  0  0  0
   -0.3739   -0.2459   -0.6675 C   0  0  0  0  0  0  0  0  0  0  0  0
   -1.1098    0.0553   -1.4159 H   0  0  0  0  0  0  0  0  0  0  0  0
    0.4687    0.4448   -0.7213 H   0  0  0  0  0  0  0  0  0  0  0  0
    0.1097   -1.6629   -1.0135 C   0  0  0  0  0  0  0  0  0  0  0  0
    0.8375   -1.9926   -0.2717 H   0  0  0  0  0  0  0  0  0  0  0  0
   -0.7425   -2.3449   -1.0059 H   0  0  0  0  0  0  0  0  0  0  0  0
    0.7677   -1.6938   -2.3977 C   0  0  0  0  0  0  0  0  0  0  0  0
    0.0536   -1.3587   -3.1505 H   0  0  0  0  0  0  0  0  0  0  0  0
    1.6342   -1.0319   -2.4032 H   0  0  0  0  0  0  0  0  0  0  0  0
    1.2163   -3.1164   -2.7267 C   0  0  0  0  0  0  0  0  0  0  0  0
    1.9435   -3.4464   -1.9866 H   0  0  0  0  0  0  0  0  0  0  0  0
    0.3549   -3.7820   -2.7042 H   0  0  0  0  0  0  0  0  0  0  0  0
    1.8304   -3.1864   -4.0576 N   0  0  0  0  0  0  0  0  0  0  0  0
    2.1266   -4.1349   -4.2355 H   0  0  0  0  0  0  0  0  0  0  0  0
    1.1497   -2.9117   -4.7515 H   0  0  0  0  0  0  0  0  0  0  0  0
   -1.2712    1.3099    1.1517 C   0  0  0  0  0  0  0  0  0  0  0  0
   -2.0082    1.5574    2.1038 O   0  0  0  0  0  0  0  0  0  0  0  0
   -0.6636    2.2662    0.4399 N   0  0  0  0  0  0  0  0  0  0  0  0
   -0.0634    1.9818   -0.3168 H   0  0  0  0  0  0  0  0  0  0  0  0
   -0.8077    3.6969    0.7049 C   0  0  0  0  0  0  0  0  0  0  0  0
   -0.5448    3.9081    1.7437 H   0  0  0  0  0  0  0  0  0  0  0  0
   -0.1575    4.2726    0.0447 H   0  0  0  0  0  0  0  0  0  0  0  0
   -1.8449    3.9976    0.5427 H   0  0  0  0  0  0  0  0  0  0  0  0
  5  6  2  0  0  0  0
  5  7  1  0  0  0  0
  2  3  1  0  0  0  0
  2  4  1  0  0  0  0
  2  5  1  0  0  0  0
  1  2  1  0  0  0  0
 26 27  2  0  0  0  0
 26 28  1  0  0  0  0
 23 24  1  0  0  0  0
 23 25  1  0  0  0  0
 20 21  1  0  0  0  0
 20 22  1  0  0  0  0
 20 23  1  0  0  0  0
 17 18  1  0  0  0  0
 17 19  1  0  0  0  0
 17 20  1  0  0  0  0
 14 15  1  0  0  0  0
 14 16  1  0  0  0  0
 14 17  1  0  0  0  0
 11 12  1  0  0  0  0
 11 13  1  0  0  0  0
 11 14  1  0  0  0  0
  9 10  1  0  0  0  0
  9 11  1  0  0  0  0
  9 26  1  0  0  0  0
  7  8  1  0  0  0  0
  7  9  1  0  0  0  0
 30 31  1  0  0  0  0
 30 32  1  0  0  0  0
 30 33  1  0  0  0  0
 28 29  1  0  0  0  0
 28 30  1  0  0  0  0
M  END
$$$$
default_name
  -OEChem-01062215323D

 33 32  0     1  0  0  0  0  0999 V2000
   -3.8420   -3.6918    1.5562 H   0  0  0  0  0  0  0  0  0  0  0  0
   -3.8430   -2.7008    1.1032 C   0  0  0  0  0  0  0  0  0  0  0  0
   -4.5510   -2.0608    1.6242 H   0  0  0  0  0  0  0  0  0  0  0  0
   -4.1140   -2.7798    0.0522 H   0  0  0  0  0  0  0  0  0  0  0  0
   -2.4570   -2.1098    1.2172 C   0  0  0  0  0  0  0  0  0  0  0  0
   -1.5600   -2.7438    1.7572 O   0  0  0  0  0  0  0  0  0  0  0  0
   -2.2870   -0.8898    0.7102 N   0  0  0  0  0  0  0  0  0  0  0  0
   -3.0820   -0.4218    0.2992 H   0  0  0  0  0  0  0  0  0  0  0  0
   -1.0240   -0.1468    0.7262 C   0  0  1  0  0  0  0  0  0  0  0  0
   -0.3583   -0.6100    1.4558 H   0  0  0  0  0  0  0  0  0  0  0  0
   -0.3739   -0.2459   -0.6675 C   0  0  0  0  0  0  0  0  0  0  0  0
   -1.1098    0.0553   -1.4159 H   0  0  0  0  0  0  0  0  0  0  0  0
    0.4687    0.4448   -0.7213 H   0  0  0  0  0  0  0  0  0  0  0  0
    0.1097   -1.6629   -1.0135 C   0  0  0  0  0  0  0  0  0  0  0  0
    0.8375   -1.9926   -0.2717 H   0  0  0  0  0  0  0  0  0  0  0  0
   -0.7425   -2.3449   -1.0059 H   0  0  0  0  0  0  0  0  0  0  0  0
    0.7677   -1.6938   -2.3977 C   0  0  0  0  0  0  0  0  0  0  0  0
    0.0536   -1.3587   -3.1505 H   0  0  0  0  0  0  0  0  0  0  0  0
    1.6342   -1.0319   -2.4032 H   0  0  0  0  0  0  0  0  0  0  0  0
    1.2163   -3.1164   -2.7267 C   0  0  0  0  0  0  0  0  0  0  0  0
    1.9435   -3.4464   -1.9866 H   0  0  0  0  0  0  0  0  0  0  0  0
    0.3549   -3.7820   -2.7042 H   0  0  0  0  0  0  0  0  0  0  0  0
    1.8304   -3.1864   -4.0576 N   0  0  0  0  0  0  0  0  0  0  0  0
    2.1266   -4.1349   -4.2355 H   0  0  0  0  0  0  0  0  0  0  0  0
    1.1497   -2.9117   -4.7515 H   0  0  0  0  0  0  0  0  0  0  0  0
   -1.2712    1.3099    1.1517 C   0  0  0  0  0  0  0  0  0  0  0  0
   -1.7707    1.5557    2.2476 O   0  0  0  0  0  0  0  0  0  0  0  0
   -0.9307    2.2673    0.2811 N   0  0  0  0  0  0  0  0  0  0  0  0
   -0.5130    1.9854   -0.5905 H   0  0  0  0  0  0  0  0  0  0  0  0
   -1.1153    3.6967    0.5265 C   0  0  0  0  0  0  0  0  0  0  0  0
   -0.6242    3.9772    1.4609 H   0  0  0  0  0  0  0  0  0  0  0  0
   -0.6918    4.2803   -0.2921 H   0  0  0  0  0  0  0  0  0  0  0  0
   -2.1807    3.9193    0.6155 H   0  0  0  0  0  0  0  0  0  0  0  0
  5  6  2  0  0  0  0
  5  7  1  0  0  0  0
  2  3  1  0  0  0  0
  2  4  1  0  0  0  0
  2  5  1  0  0  0  0
  1  2  1  0  0  0  0
 26 27  2  0  0  0  0
 26 28  1  0  0  0  0
 23 24  1  0  0  0  0
 23 25  1  0  0  0  0
 20 21  1  0  0  0  0
 20 22  1  0  0  0  0
 20 23  1  0  0  0  0
 17 18  1  0  0  0  0
 17 19  1  0  0  0  0
 17 20  1  0  0  0  0
 14 15  1  0  0  0  0
 14 16  1  0  0  0  0
 14 17  1  0  0  0  0
 11 12  1  0  0  0  0
 11 13  1  0  0  0  0
 11 14  1  0  0  0  0
  9 10  1  0  0  0  0
  9 11  1  0  0  0  0
  9 26  1  0  0  0  0
  7  8  1  0  0  0  0
  7  9  1  0  0  0  0
 30 31  1  0  0  0  0
 30 32  1  0  0  0  0
 30 33  1  0  0  0  0
 28 29  1  0  0  0  0
 28 30  1  0  0  0  0
M  END
$$$$
default_name
  -OEChem-01062215323D

 33 32  0     1  0  0  0  0  0999 V2000
   -3.8420   -3.6918    1.5562 H   0  0  0  0  0  0  0  0  0  0  0  0
   -3.8430   -2.7008    1.1032 C   0  0  0  0  0  0  0  0  0  0  0  0
   -4.5510   -2.0608    1.6242 H   0  0  0  0  0  0  0  0  0  0  0  0
   -4.1140   -2.7798    0.0522 H   0  0  0  0  0  0  0  0  0  0  0  0
   -2.4570   -2.1098    1.2172 C   0  0  0  0  0  0  0  0  0  0  0  0
   -1.5600   -2.7438    1.7572 O   0  0  0  0  0  0  0  0  0  0  0  0
   -2.2870   -0.8898    0.7102 N   0  0  0  0  0  0  0  0  0  0  0  0
   -3.0820   -0.4218    0.2992 H   0  0  0  0  0  0  0  0  0  0  0  0
   -1.0240   -0.1468    0.7262 C   0  0  1  0  0  0  0  0  0  0  0  0
   -0.3583   -0.6100    1.4558 H   0  0  0  0  0  0  0  0  0  0  0  0
   -0.3739   -0.2459   -0.6675 C   0  0  0  0  0  0  0  0  0  0  0  0
   -1.1098    0.0553   -1.4159 H   0  0  0  0  0  0  0  0  0  0  0  0
    0.4687    0.4448   -0.7213 H   0  0  0  0  0  0  0  0  0  0  0  0
    0.1097   -1.6629   -1.0135 C   0  0  0  0  0  0  0  0  0  0  0  0
    0.8375   -1.9926   -0.2717 H   0  0  0  0  0  0  0  0  0  0  0  0
   -0.7425   -2.3449   -1.0059 H   0  0  0  0  0  0  0  0  0  0  0  0
    0.7677   -1.6938   -2.3977 C   0  0  0  0  0  0  0  0  0  0  0  0
    0.0536   -1.3587   -3.1505 H   0  0  0  0  0  0  0  0  0  0  0  0
    1.6342   -1.0319   -2.4032 H   0  0  0  0  0  0  0  0  0  0  0  0
    1.2163   -3.1164   -2.7267 C   0  0  0  0  0  0  0  0  0  0  0  0
    1.9435   -3.4464   -1.9866 H   0  0  0  0  0  0  0  0  0  0  0  0
    0.3549   -3.7820   -2.7042 H   0  0  0  0  0  0  0  0  0  0  0  0
    1.8304   -3.1864   -4.0576 N   0  0  0  0  0  0  0  0  0  0  0  0
    2.1266   -4.1349   -4.2355 H   0  0  0  0  0  0  0  0  0  0  0  0
    1.1497   -2.9117   -4.7515 H   0  0  0  0  0  0  0  0  0  0  0  0
   -1.2712    1.3099    1.1517 C   0  0  0  0  0  0  0  0  0  0  0  0
   -1.5059    1.5771    2.3283 O   0  0  0  0  0  0  0  0  0  0  0  0
   -1.2277    2.2425    0.1932 N   0  0  0  0  0  0  0  0  0  0  0  0
   -1.0146    1.9454   -0.7449 H   0  0  0  0  0  0  0  0  0  0  0  0
   -1.4562    3.6672    0.4297 C   0  0  0  0  0  0  0  0  0  0  0  0
   -0.7752    4.0265    1.2044 H   0  0  0  0  0  0  0  0  0  0  0  0
   -1.2910    4.2355   -0.4867 H   0  0  0  0  0  0  0  0  0  0  0  0
   -2.4816    3.8227    0.7715 H   0  0  0  0  0  0  0  0  0  0  0  0
  5  6  2  0  0  0  0
  5  7  1  0  0  0  0
  2  3  1  0  0  0  0
  2  4  1  0  0  0  0
  2  5  1  0  0  0  0
  1  2  1  0  0  0  0
 26 27  2  0  0  0  0
 26 28  1  0  0  0  0
 23 24  1  0  0  0  0
 23 25  1  0  0  0  0
 20 21  1  0  0  0  0
 20 22  1  0  0  0  0
 20 23  1  0  0  0  0
 17 18  1  0  0  0  0
 17 19  1  0  0  0  0
 17 20  1  0  0  0  0
 14 15  1  0  0  0  0
 14 16  1  0  0  0  0
 14 17  1  0  0  0  0
 11 12  1  0  0  0  0
 11 13  1  0  0  0  0
 11 14  1  0  0  0  0
  9 10  1  0  0  0  0
  9 11  1  0  0  0  0
  9 26  1  0  0  0  0
  7  8  1  0  0  0  0
  7  9  1  0  0  0  0
 30 31  1  0  0  0  0
 30 32  1  0  0  0  0
 30 33  1  0  0  0  0
 28 29  1  0  0  0  0
 28 30  1  0  0  0  0
M  END
$$$$
default_name
  -OEChem-01062215323D

 33 32  0     1  0  0  0  0  0999 V2000
   -3.8420   -3.6918    1.5562 H   0  0  0  0  0  0  0  0  0  0  0  0
   -3.8430   -2.7008    1.1032 C   0  0  0  0  0  0  0  0  0  0  0  0
   -4.5510   -2.0608    1.6242 H   0  0  0  0  0  0  0  0  0  0  0  0
   -4.1140   -2.7798    0.0522 H   0  0  0  0  0  0  0  0  0  0  0  0
   -2.4570   -2.1098    1.2172 C   0  0  0  0  0  0  0  0  0  0  0  0
   -1.5600   -2.7438    1.7572 O   0  0  0  0  0  0  0  0  0  0  0  0
   -2.2870   -0.8898    0.7102 N   0  0  0  0  0  0  0  0  0  0  0  0
   -3.0820   -0.4218    0.2992 H   0  0  0  0  0  0  0  0  0  0  0  0
   -1.0240   -0.1468    0.7262 C   0  0  1  0  0  0  0  0  0  0  0  0
   -0.3583   -0.6100    1.4558 H   0  0  0  0  0  0  0  0  0  0  0  0
   -0.3739   -0.2459   -0.6675 C   0  0  0  0  0  0  0  0  0  0  0  0
   -1.1098    0.0553   -1.4159 H   0  0  0  0  0  0  0  0  0  0  0  0
    0.4687    0.4448   -0.7213 H   0  0  0  0  0  0  0  0  0  0  0  0
    0.1097   -1.6629   -1.0135 C   0  0  0  0  0  0  0  0  0  0  0  0
    0.8375   -1.9926   -0.2717 H   0  0  0  0  0  0  0  0  0  0  0  0
   -0.7425   -2.3449   -1.0059 H   0  0  0  0  0  0  0  0  0  0  0  0
    0.7677   -1.6938   -2.3977 C   0  0  0  0  0  0  0  0  0  0  0  0
    0.0536   -1.3587   -3.1505 H   0  0  0  0  0  0  0  0  0  0  0  0
    1.6342   -1.0319   -2.4032 H   0  0  0  0  0  0  0  0  0  0  0  0
    1.2163   -3.1164   -2.7267 C   0  0  0  0  0  0  0  0  0  0  0  0
    1.9435   -3.4464   -1.9866 H   0  0  0  0  0  0  0  0  0  0  0  0
    0.3549   -3.7820   -2.7042 H   0  0  0  0  0  0  0  0  0  0  0  0
    1.8304   -3.1864   -4.0576 N   0  0  0  0  0  0  0  0  0  0  0  0
    2.1266   -4.1349   -4.2355 H   0  0  0  0  0  0  0  0  0  0  0  0
    1.1497   -2.9117   -4.7515 H   0  0  0  0  0  0  0  0  0  0  0  0
   -1.2712    1.3099    1.1517 C   0  0  0  0  0  0  0  0  0  0  0  0
   -1.2319    1.6201    2.3404 O   0  0  0  0  0  0  0  0  0  0  0  0
   -1.5343    2.1937    0.1821 N   0  0  0  0  0  0  0  0  0  0  0  0
   -1.5341    1.8643   -0.7693 H   0  0  0  0  0  0  0  0  0  0  0  0
   -1.8070    3.6102    0.4210 C   0  0  0  0  0  0  0  0  0  0  0  0
   -0.9875    4.0526    0.9915 H   0  0  0  0  0  0  0  0  0  0  0  0
   -1.9143    4.1411   -0.5259 H   0  0  0  0  0  0  0  0  0  0  0  0
   -2.7270    3.7143    0.9999 H   0  0  0  0  0  0  0  0  0  0  0  0
  5  6  2  0  0  0  0
  5  7  1  0  0  0  0
  2  3  1  0  0  0  0
  2  4  1  0  0  0  0
  2  5  1  0  0  0  0
  1  2  1  0  0  0  0
 26 27  2  0  0  0  0
 26 28  1  0  0  0  0
 23 24  1  0  0  0  0
 23 25  1  0  0  0  0
 20 21  1  0  0  0  0
 20 22  1  0  0  0  0
 20 23  1  0  0  0  0
 17 18  1  0  0  0  0
 17 19  1  0  0  0  0
 17 20  1  0  0  0  0
 14 15  1  0  0  0  0
 14 16  1  0  0  0  0
 14 17  1  0  0  0  0
 11 12  1  0  0  0  0
 11 13  1  0  0  0  0
 11 14  1  0  0  0  0
  9 10  1  0  0  0  0
  9 11  1  0  0  0  0
  9 26  1  0  0  0  0
  7  8  1  0  0  0  0
  7  9  1  0  0  0  0
 30 31  1  0  0  0  0
 30 32  1  0  0  0  0
 30 33  1  0  0  0  0
 28 29  1  0  0  0  0
 28 30  1  0  0  0  0
M  END
$$$$
default_name
  -OEChem-01062215323D

 33 32  0     1  0  0  0  0  0999 V2000
   -3.8420   -3.6918    1.5562 H   0  0  0  0  0  0  0  0  0  0  0  0
   -3.8430   -2.7008    1.1032 C   0  0  0  0  0  0  0  0  0  0  0  0
   -4.5510   -2.0608    1.6242 H   0  0  0  0  0  0  0  0  0  0  0  0
   -4.1140   -2.7798    0.0522 H   0  0  0  0  0  0  0  0  0  0  0  0
   -2.4570   -2.1098    1.2172 C   0  0  0  0  0  0  0  0  0  0  0  0
   -1.5600   -2.7438    1.7572 O   0  0  0  0  0  0  0  0  0  0  0  0
   -2.2870   -0.8898    0.7102 N   0  0  0  0  0  0  0  0  0  0  0  0
   -3.0820   -0.4218    0.2992 H   0  0  0  0  0  0  0  0  0  0  0  0
   -1.0240   -0.1468    0.7262 C   0  0  1  0  0  0  0  0  0  0  0  0
   -0.3583   -0.6100    1.4558 H   0  0  0  0  0  0  0  0  0  0  0  0
   -0.3739   -0.2459   -0.6675 C   0  0  0  0  0  0  0  0  0  0  0  0
   -1.1098    0.0553   -1.4159 H   0  0  0  0  0  0  0  0  0  0  0  0
    0.4687    0.4448   -0.7213 H   0  0  0  0  0  0  0  0  0  0  0  0
    0.1097   -1.6629   -1.0135 C   0  0  0  0  0  0  0  0  0  0  0  0
    0.8375   -1.9926   -0.2717 H   0  0  0  0  0  0  0  0  0  0  0  0
   -0.7425   -2.3449   -1.0059 H   0  0  0  0  0  0  0  0  0  0  0  0
    0.7677   -1.6938   -2.3977 C   0  0  0  0  0  0  0  0  0  0  0  0
    0.0536   -1.3587   -3.1505 H   0  0  0  0  0  0  0  0  0  0  0  0
    1.6342   -1.0319   -2.4032 H   0  0  0  0  0  0  0  0  0  0  0  0
    1.2163   -3.1164   -2.7267 C   0  0  0  0  0  0  0  0  0  0  0  0
    1.9435   -3.4464   -1.9866 H   0  0  0  0  0  0  0  0  0  0  0  0
    0.3549   -3.7820   -2.7042 H   0  0  0  0  0  0  0  0  0  0  0  0
    1.8304   -3.1864   -4.0576 N   0  0  0  0  0  0  0  0  0  0  0  0
    2.1266   -4.1349   -4.2355 H   0  0  0  0  0  0  0  0  0  0  0  0
    1.1497   -2.9117   -4.7515 H   0  0  0  0  0  0  0  0  0  0  0  0
   -1.2712    1.3099    1.1517 C   0  0  0  0  0  0  0  0  0  0  0  0
   -0.9674    1.6817    2.2832 O   0  0  0  0  0  0  0  0  0  0  0  0
   -1.8298    2.1242    0.2486 N   0  0  0  0  0  0  0  0  0  0  0  0
   -2.0361    1.7478   -0.6621 H   0  0  0  0  0  0  0  0  0  0  0  0
   -2.1440    3.5296    0.5010 C   0  0  0  0  0  0  0  0  0  0  0  0
   -1.2466    4.0538    0.8369 H   0  0  0  0  0  0  0  0  0  0  0  0
   -2.5192    4.0037   -0.4070 H   0  0  0  0  0  0  0  0  0  0  0  0
   -2.9004    3.6015    1.2853 H   0  0  0  0  0  0  0  0  0  0  0  0
  5  6  2  0  0  0  0
  5  7  1  0  0  0  0
  2  3  1  0  0  0  0
  2  4  1  0  0  0  0
  2  5  1  0  0  0  0
  1  2  1  0  0  0  0
 26 27  2  0  0  0  0
 26 28  1  0  0  0  0
 23 24  1  0  0  0  0
 23 25  1  0  0  0  0
 20 21  1  0  0  0  0
 20 22  1  0  0  0  0
 20 23  1  0  0  0  0
 17 18  1  0  0  0  0
 17 19  1  0  0  0  0
 17 20  1  0  0  0  0
 14 15  1  0  0  0  0
 14 16  1  0  0  0  0
 14 17  1  0  0  0  0
 11 12  1  0  0  0  0
 11 13  1  0  0  0  0
 11 14  1  0  0  0  0
  9 10  1  0  0  0  0
  9 11  1  0  0  0  0
  9 26  1  0  0  0  0
  7  8  1  0  0  0  0
  7  9  1  0  0  0  0
 30 31  1  0  0  0  0
 30 32  1  0  0  0  0
 30 33  1  0  0  0  0
 28 29  1  0  0  0  0
 28 30  1  0  0  0  0
M  END
$$$$
default_name
  -OEChem-01062215323D

 33 32  0     1  0  0  0  0  0999 V2000
   -3.8420   -3.6918    1.5562 H   0  0  0  0  0  0  0  0  0  0  0  0
   -3.8430   -2.7008    1.1032 C   0  0  0  0  0  0  0  0  0  0  0  0
   -4.5510   -2.0608    1.6242 H   0  0  0  0  0  0  0  0  0  0  0  0
   -4.1140   -2.7798    0.0522 H   0  0  0  0  0  0  0  0  0  0  0  0
   -2.4570   -2.1098    1.2172 C   0  0  0  0  0  0  0  0  0  0  0  0
   -1.5600   -2.7438    1.7572 O   0  0  0  0  0  0  0  0  0  0  0  0
   -2.2870   -0.8898    0.7102 N   0  0  0  0  0  0  0  0  0  0  0  0
   -3.0820   -0.4218    0.2992 H   0  0  0  0  0  0  0  0  0  0  0  0
   -1.0240   -0.1468    0.7262 C   0  0  1  0  0  0  0  0  0  0  0  0
   -0.3583   -0.6100    1.4558 H   0  0  0  0  0  0  0  0  0  0  0  0
   -0.3739   -0.2459   -0.6675 C   0  0  0  0  0  0  0  0  0  0  0  0
   -1.1098    0.0553   -1.4159 H   0  0  0  0  0  0  0  0  0  0  0  0
    0.4687    0.4448   -0.7213 H   0  0  0  0  0  0  0  0  0  0  0  0
    0.1097   -1.6629   -1.0135 C   0  0  0  0  0  0  0  0  0  0  0  0
    0.8375   -1.9926   -0.2717 H   0  0  0  0  0  0  0  0  0  0  0  0
   -0.7425   -2.3449   -1.0059 H   0  0  0  0  0  0  0  0  0  0  0  0
    0.7677   -1.6938   -2.3977 C   0  0  0  0  0  0  0  0  0  0  0  0
    0.0536   -1.3587   -3.1505 H   0  0  0  0  0  0  0  0  0  0  0  0
    1.6342   -1.0319   -2.4032 H   0  0  0  0  0  0  0  0  0  0  0  0
    1.2163   -3.1164   -2.7267 C   0  0  0  0  0  0  0  0  0  0  0  0
    1.9435   -3.4464   -1.9866 H   0  0  0  0  0  0  0  0  0  0  0  0
    0.3549   -3.7820   -2.7042 H   0  0  0  0  0  0  0  0  0  0  0  0
    1.8304   -3.1864   -4.0576 N   0  0  0  0  0  0  0  0  0  0  0  0
    2.1266   -4.1349   -4.2355 H   0  0  0  0  0  0  0  0  0  0  0  0
    1.1497   -2.9117   -4.7515 H   0  0  0  0  0  0  0  0  0  0  0  0
   -1.2712    1.3099    1.1517 C   0  0  0  0  0  0  0  0  0  0  0  0
   -0.7303    1.7578    2.1605 O   0  0  0  0  0  0  0  0  0  0  0  0
   -2.0938    2.0386    0.3882 N   0  0  0  0  0  0  0  0  0  0  0  0
   -2.4863    1.6038   -0.4307 H   0  0  0  0  0  0  0  0  0  0  0  0
   -2.4441    3.4310    0.6643 C   0  0  0  0  0  0  0  0  0  0  0  0
   -1.5349    4.0300    0.7510 H   0  0  0  0  0  0  0  0  0  0  0  0
   -3.0646    3.8326   -0.1381 H   0  0  0  0  0  0  0  0  0  0  0  0
   -2.9898    3.4921    1.6081 H   0  0  0  0  0  0  0  0  0  0  0  0
  5  6  2  0  0  0  0
  5  7  1  0  0  0  0
  2  3  1  0  0  0  0
  2  4  1  0  0  0  0
  2  5  1  0  0  0  0
  1  2  1  0  0  0  0
 26 27  2  0  0  0  0
 26 28  1  0  0  0  0
 23 24  1  0  0  0  0
 23 25  1  0  0  0  0
 20 21  1  0  0  0  0
 20 22  1  0  0  0  0
 20 23  1  0  0  0  0
 17 18  1  0  0  0  0
 17 19  1  0  0  0  0
 17 20  1  0  0  0  0
 14 15  1  0  0  0  0
 14 16  1  0  0  0  0
 14 17  1  0  0  0  0
 11 12  1  0  0  0  0
 11 13  1  0  0  0  0
 11 14  1  0  0  0  0
  9 10  1  0  0  0  0
  9 11  1  0  0  0  0
  9 26  1  0  0  0  0
  7  8  1  0  0  0  0
  7  9  1  0  0  0  0
 30 31  1  0  0  0  0
 30 32  1  0  0  0  0
 30 33  1  0  0  0  0
 28 29  1  0  0  0  0
 28 30  1  0  0  0  0
M  END
$$$$
default_name
  -OEChem-01062215323D

 33 32  0     1  0  0  0  0  0999 V2000
   -3.8420   -3.6918    1.5562 H   0  0  0  0  0  0  0  0  0  0  0  0
   -3.8430   -2.7008    1.1032 C   0  0  0  0  0  0  0  0  0  0  0  0
   -4.5510   -2.0608    1.6242 H   0  0  0  0  0  0  0  0  0  0  0  0
   -4.1140   -2.7798    0.0522 H   0  0  0  0  0  0  0  0  0  0  0  0
   -2.4570   -2.1098    1.2172 C   0  0  0  0  0  0  0  0  0  0  0  0
   -1.5600   -2.7438    1.7572 O   0  0  0  0  0  0  0  0  0  0  0  0
   -2.2870   -0.8898    0.7102 N   0  0  0  0  0  0  0  0  0  0  0  0
   -3.0820   -0.4218    0.2992 H   0  0  0  0  0  0  0  0  0  0  0  0
   -1.0240   -0.1468    0.7262 C   0  0  1  0  0  0  0  0  0  0  0  0
   -0.3583   -0.6100    1.4558 H   0  0  0  0  0  0  0  0  0  0  0  0
   -0.3739   -0.2459   -0.6675 C   0  0  0  0  0  0  0  0  0  0  0  0
   -1.1098    0.0553   -1.4159 H   0  0  0  0  0  0  0  0  0  0  0  0
    0.4687    0.4448   -0.7213 H   0  0  0  0  0  0  0  0  0  0  0  0
    0.1097   -1.6629   -1.0135 C   0  0  0  0  0  0  0  0  0  0  0  0
    0.8375   -1.9926   -0.2717 H   0  0  0  0  0  0  0  0  0  0  0  0
   -0.7425   -2.3449   -1.0059 H   0  0  0  0  0  0  0  0  0  0  0  0
    0.7677   -1.6938   -2.3977 C   0  0  0  0  0  0  0  0  0  0  0  0
    0.0536   -1.3587   -3.1505 H   0  0  0  0  0  0  0  0  0  0  0  0
    1.6342   -1.0319   -2.4032 H   0  0  0  0  0  0  0  0  0  0  0  0
    1.2163   -3.1164   -2.7267 C   0  0  0  0  0  0  0  0  0  0  0  0
    1.9435   -3.4464   -1.9866 H   0  0  0  0  0  0  0  0  0  0  0  0
    0.3549   -3.7820   -2.7042 H   0  0  0  0  0  0  0  0  0  0  0  0
    1.8304   -3.1864   -4.0576 N   0  0  0  0  0  0  0  0  0  0  0  0
    2.1266   -4.1349   -4.2355 H   0  0  0  0  0  0  0  0  0  0  0  0
    1.1497   -2.9117   -4.7515 H   0  0  0  0  0  0  0  0  0  0  0  0
   -1.2712    1.3099    1.1517 C   0  0  0  0  0  0  0  0  0  0  0  0
   -0.5368    1.8431    1.9806 O   0  0  0  0  0  0  0  0  0  0  0  0
   -2.3085    1.9428    0.5914 N   0  0  0  0  0  0  0  0  0  0  0  0
   -2.8541    1.4421   -0.0907 H   0  0  0  0  0  0  0  0  0  0  0  0
   -2.6868    3.3211    0.8996 C   0  0  0  0  0  0  0  0  0  0  0  0
   -1.8327    3.9827    0.7398 H   0  0  0  0  0  0  0  0  0  0  0  0
   -3.5131    3.6395    0.2624 H   0  0  0  0  0  0  0  0  0  0  0  0
   -2.9891    3.3934    1.9464 H   0  0  0  0  0  0  0  0  0  0  0  0
  5  6  2  0  0  0  0
  5  7  1  0  0  0  0
  2  3  1  0  0  0  0
  2  4  1  0  0  0  0
  2  5  1  0  0  0  0
  1  2  1  0  0  0  0
 26 27  2  0  0  0  0
 26 28  1  0  0  0  0
 23 24  1  0  0  0  0
 23 25  1  0  0  0  0
 20 21  1  0  0  0  0
 20 22  1  0  0  0  0
 20 23  1  0  0  0  0
 17 18  1  0  0  0  0
 17 19  1  0  0  0  0
 17 20  1  0  0  0  0
 14 15  1  0  0  0  0
 14 16  1  0  0  0  0
 14 17  1  0  0  0  0
 11 12  1  0  0  0  0
 11 13  1  0  0  0  0
 11 14  1  0  0  0  0
  9 10  1  0  0  0  0
  9 11  1  0  0  0  0
  9 26  1  0  0  0  0
  7  8  1  0  0  0  0
  7  9  1  0  0  0  0
 30 31  1  0  0  0  0
 30 32  1  0  0  0  0
 30 33  1  0  0  0  0
 28 29  1  0  0  0  0
 28 30  1  0  0  0  0
M  END
$$$$
default_name
  -OEChem-01062215323D

 33 32  0     1  0  0  0  0  0999 V2000
   -3.8420   -3.6918    1.5562 H   0  0  0  0  0  0  0  0  0  0  0  0
   -3.8430   -2.7008    1.1032 C   0  0  0  0  0  0  0  0  0  0  0  0
   -4.5510   -2.0608    1.6242 H   0  0  0  0  0  0  0  0  0  0  0  0
   -4.1140   -2.7798    0.0522 H   0  0  0  0  0  0  0  0  0  0  0  0
   -2.4570   -2.1098    1.2172 C   0  0  0  0  0  0  0  0  0  0  0  0
   -1.5600   -2.7438    1.7572 O   0  0  0  0  0  0  0  0  0  0  0  0
   -2.2870   -0.8898    0.7102 N   0  0  0  0  0  0  0  0  0  0  0  0
   -3.0820   -0.4218    0.2992 H   0  0  0  0  0  0  0  0  0  0  0  0
   -1.0240   -0.1468    0.7262 C   0  0  1  0  0  0  0  0  0  0  0  0
   -0.3583   -0.6100    1.4558 H   0  0  0  0  0  0  0  0  0  0  0  0
   -0.3739   -0.2459   -0.6675 C   0  0  0  0  0  0  0  0  0  0  0  0
   -1.1098    0.0553   -1.4159 H   0  0  0  0  0  0  0  0  0  0  0  0
    0.4687    0.4448   -0.7213 H   0  0  0  0  0  0  0  0  0  0  0  0
    0.1097   -1.6629   -1.0135 C   0  0  0  0  0  0  0  0  0  0  0  0
    0.8375   -1.9926   -0.2717 H   0  0  0  0  0  0  0  0  0  0  0  0
   -0.7425   -2.3449   -1.0059 H   0  0  0  0  0  0  0  0  0  0  0  0
    0.7677   -1.6938   -2.3977 C   0  0  0  0  0  0  0  0  0  0  0  0
    0.0536   -1.3587   -3.1505 H   0  0  0  0  0  0  0  0  0  0  0  0
    1.6342   -1.0319   -2.4032 H   0  0  0  0  0  0  0  0  0  0  0  0
    1.2163   -3.1164   -2.7267 C   0  0  0  0  0  0  0  0  0  0  0  0
    1.9435   -3.4464   -1.9866 H   0  0  0  0  0  0  0  0  0  0  0  0
    0.3549   -3.7820   -2.7042 H   0  0  0  0  0  0  0  0  0  0  0  0
    1.8304   -3.1864   -4.0576 N   0  0  0  0  0  0  0  0  0  0  0  0
    2.1266   -4.1349   -4.2355 H   0  0  0  0  0  0  0  0  0  0  0  0
    1.1497   -2.9117   -4.7515 H   0  0  0  0  0  0  0  0  0  0  0  0
   -1.2712    1.3099    1.1517 C   0  0  0  0  0  0  0  0  0  0  0  0
   -0.4001    1.9320    1.7559 O   0  0  0  0  0  0  0  0  0  0  0  0
   -2.4592    1.8433    0.8442 N   0  0  0  0  0  0  0  0  0  0  0  0
   -3.1145    1.2736    0.3346 H   0  0  0  0  0  0  0  0  0  0  0  0
   -2.8557    3.2073    1.1911 C   0  0  0  0  0  0  0  0  0  0  0  0
   -2.1197    3.9153    0.8039 H   0  0  0  0  0  0  0  0  0  0  0  0
   -3.8343    3.4375    0.7674 H   0  0  0  0  0  0  0  0  0  0  0  0
   -2.8984    3.3122    2.2772 H   0  0  0  0  0  0  0  0  0  0  0  0
  5  6  2  0  0  0  0
  5  7  1  0  0  0  0
  2  3  1  0  0  0  0
  2  4  1  0  0  0  0
  2  5  1  0  0  0  0
  1  2  1  0  0  0  0
 26 27  2  0  0  0  0
 26 28  1  0  0  0  0
 23 24  1  0  0  0  0
 23 25  1  0  0  0  0
 20 21  1  0  0  0  0
 20 22  1  0  0  0  0
 20 23  1  0  0  0  0
 17 18  1  0  0  0  0
 17 19  1  0  0  0  0
 17 20  1  0  0  0  0
 14 15  1  0  0  0  0
 14 16  1  0  0  0  0
 14 17  1  0  0  0  0
 11 12  1  0  0  0  0
 11 13  1  0  0  0  0
 11 14  1  0  0  0  0
  9 10  1  0  0  0  0
  9 11  1  0  0  0  0
  9 26  1  0  0  0  0
  7  8  1  0  0  0  0
  7  9  1  0  0  0  0
 30 31  1  0  0  0  0
 30 32  1  0  0  0  0
 30 33  1  0  0  0  0
 28 29  1  0  0  0  0
 28 30  1  0  0  0  0
M  END
$$$$
default_name
  -OEChem-01062215323D

 33 32  0     1  0  0  0  0  0999 V2000
   -3.8420   -3.6918    1.5562 H   0  0  0  0  0  0  0  0  0  0  0  0
   -3.8430   -2.7008    1.1032 C   0  0  0  0  0  0  0  0  0  0  0  0
   -4.5510   -2.0608    1.6242 H   0  0  0  0  0  0  0  0  0  0  0  0
   -4.1140   -2.7798    0.0522 H   0  0  0  0  0  0  0  0  0  0  0  0
   -2.4570   -2.1098    1.2172 C   0  0  0  0  0  0  0  0  0  0  0  0
   -1.5600   -2.7438    1.7572 O   0  0  0  0  0  0  0  0  0  0  0  0
   -2.2870   -0.8898    0.7102 N   0  0  0  0  0  0  0  0  0  0  0  0
   -3.0820   -0.4218    0.2992 H   0  0  0  0  0  0  0  0  0  0  0  0
   -1.0240   -0.1468    0.7262 C   0  0  1  0  0  0  0  0  0  0  0  0
   -0.3583   -0.6100    1.4558 H   0  0  0  0  0  0  0  0  0  0  0  0
   -0.3739   -0.2459   -0.6675 C   0  0  0  0  0  0  0  0  0  0  0  0
   -1.1098    0.0553   -1.4159 H   0  0  0  0  0  0  0  0  0  0  0  0
    0.4687    0.4448   -0.7213 H   0  0  0  0  0  0  0  0  0  0  0  0
    0.1097   -1.6629   -1.0135 C   0  0  0  0  0  0  0  0  0  0  0  0
    0.8375   -1.9926   -0.2717 H   0  0  0  0  0  0  0  0  0  0  0  0
   -0.7425   -2.3449   -1.0059 H   0  0  0  0  0  0  0  0  0  0  0  0
    0.7677   -1.6938   -2.3977 C   0  0  0  0  0  0  0  0  0  0  0  0
    0.0536   -1.3587   -3.1505 H   0  0  0  0  0  0  0  0  0  0  0  0
    1.6342   -1.0319   -2.4032 H   0  0  0  0  0  0  0  0  0  0  0  0
    1.2163   -3.1164   -2.7267 C   0  0  0  0  0  0  0  0  0  0  0  0
    1.9435   -3.4464   -1.9866 H   0  0  0  0  0  0  0  0  0  0  0  0
    0.3549   -3.7820   -2.7042 H   0  0  0  0  0  0  0  0  0  0  0  0
    1.8304   -3.1864   -4.0576 N   0  0  0  0  0  0  0  0  0  0  0  0
    2.1266   -4.1349   -4.2355 H   0  0  0  0  0  0  0  0  0  0  0  0
    1.1497   -2.9117   -4.7515 H   0  0  0  0  0  0  0  0  0  0  0  0
   -1.2712    1.3099    1.1517 C   0  0  0  0  0  0  0  0  0  0  0  0
   -0.3296    2.0182    1.5016 O   0  0  0  0  0  0  0  0  0  0  0  0
   -2.5357    1.7470    1.1296 N   0  0  0  0  0  0  0  0  0  0  0  0
   -3.2496    1.1100    0.8163 H   0  0  0  0  0  0  0  0  0  0  0  0
   -2.9393    3.0974    1.5187 C   0  0  0  0  0  0  0  0  0  0  0  0
   -2.3764    3.8322    0.9390 H   0  0  0  0  0  0  0  0  0  0  0  0
   -4.0063    3.2404    1.3423 H   0  0  0  0  0  0  0  0  0  0  0  0
   -2.7239    3.2540    2.5778 H   0  0  0  0  0  0  0  0  0  0  0  0
  5  6  2  0  0  0  0
  5  7  1  0  0  0  0
  2  3  1  0  0  0  0
  2  4  1  0  0  0  0
  2  5  1  0  0  0  0
  1  2  1  0  0  0  0
 26 27  2  0  0  0  0
 26 28  1  0  0  0  0
 23 24  1  0  0  0  0
 23 25  1  0  0  0  0
 20 21  1  0  0  0  0
 20 22  1  0  0  0  0
 20 23  1  0  0  0  0
 17 18  1  0  0  0  0
 17 19  1  0  0  0  0
 17 20  1  0  0  0  0
 14 15  1  0  0  0  0
 14 16  1  0  0  0  0
 14 17  1  0  0  0  0
 11 12  1  0  0  0  0
 11 13  1  0  0  0  0
 11 14  1  0  0  0  0
  9 10  1  0  0  0  0
  9 11  1  0  0  0  0
  9 26  1  0  0  0  0
  7  8  1  0  0  0  0
  7  9  1  0  0  0  0
 30 31  1  0  0  0  0
 30 32  1  0  0  0  0
 30 33  1  0  0  0  0
 28 29  1  0  0  0  0
 28 30  1  0  0  0  0
M  END
$$$$
default_name
  -OEChem-01062215323D

 33 32  0     1  0  0  0  0  0999 V2000
   -3.8420   -3.6918    1.5562 H   0  0  0  0  0  0  0  0  0  0  0  0
   -3.8430   -2.7008    1.1032 C   0  0  0  0  0  0  0  0  0  0  0  0
   -4.5510   -2.0608    1.6242 H   0  0  0  0  0  0  0  0  0  0  0  0
   -4.1140   -2.7798    0.0522 H   0  0  0  0  0  0  0  0  0  0  0  0
   -2.4570   -2.1098    1.2172 C   0  0  0  0  0  0  0  0  0  0  0  0
   -1.5600   -2.7438    1.7572 O   0  0  0  0  0  0  0  0  0  0  0  0
   -2.2870   -0.8898    0.7102 N   0  0  0  0  0  0  0  0  0  0  0  0
   -3.0820   -0.4218    0.2992 H   0  0  0  0  0  0  0  0  0  0  0  0
   -1.0240   -0.1468    0.7262 C   0  0  1  0  0  0  0  0  0  0  0  0
   -0.3583   -0.6100    1.4558 H   0  0  0  0  0  0  0  0  0  0  0  0
   -0.3739   -0.2459   -0.6675 C   0  0  0  0  0  0  0  0  0  0  0  0
   -1.1098    0.0553   -1.4159 H   0  0  0  0  0  0  0  0  0  0  0  0
    0.4687    0.4448   -0.7213 H   0  0  0  0  0  0  0  0  0  0  0  0
    0.1097   -1.6629   -1.0135 C   0  0  0  0  0  0  0  0  0  0  0  0
    0.8375   -1.9926   -0.2717 H   0  0  0  0  0  0  0  0  0  0  0  0
   -0.7425   -2.3449   -1.0059 H   0  0  0  0  0  0  0  0  0  0  0  0
    0.7677   -1.6938   -2.3977 C   0  0  0  0  0  0  0  0  0  0  0  0
    0.0536   -1.3587   -3.1505 H   0  0  0  0  0  0  0  0  0  0  0  0
    1.6342   -1.0319   -2.4032 H   0  0  0  0  0  0  0  0  0  0  0  0
    1.2163   -3.1164   -2.7267 C   0  0  0  0  0  0  0  0  0  0  0  0
    1.9435   -3.4464   -1.9866 H   0  0  0  0  0  0  0  0  0  0  0  0
    0.3549   -3.7820   -2.7042 H   0  0  0  0  0  0  0  0  0  0  0  0
    1.8304   -3.1864   -4.0576 N   0  0  0  0  0  0  0  0  0  0  0  0
    2.1266   -4.1349   -4.2355 H   0  0  0  0  0  0  0  0  0  0  0  0
    1.1497   -2.9117   -4.7515 H   0  0  0  0  0  0  0  0  0  0  0  0
   -1.2712    1.3099    1.1517 C   0  0  0  0  0  0  0  0  0  0  0  0
   -0.3300    2.0960    1.2351 O   0  0  0  0  0  0  0  0  0  0  0  0
   -2.5327    1.6604    1.4280 N   0  0  0  0  0  0  0  0  0  0  0  0
   -3.2503    0.9624    1.3215 H   0  0  0  0  0  0  0  0  0  0  0  0
   -2.9317    2.9989    1.8603 C   0  0  0  0  0  0  0  0  0  0  0  0
   -2.5853    3.7393    1.1359 H   0  0  0  0  0  0  0  0  0  0  0  0
   -4.0173    3.0616    1.9480 H   0  0  0  0  0  0  0  0  0  0  0  0
   -2.4775    3.2228    2.8278 H   0  0  0  0  0  0  0  0  0  0  0  0
  5  6  2  0  0  0  0
  5  7  1  0  0  0  0
  2  3  1  0  0  0  0
  2  4  1  0  0  0  0
  2  5  1  0  0  0  0
  1  2  1  0  0  0  0
 26 27  2  0  0  0  0
 26 28  1  0  0  0  0
 23 24  1  0  0  0  0
 23 25  1  0  0  0  0
 20 21  1  0  0  0  0
 20 22  1  0  0  0  0
 20 23  1  0  0  0  0
 17 18  1  0  0  0  0
 17 19  1  0  0  0  0
 17 20  1  0  0  0  0
 14 15  1  0  0  0  0
 14 16  1  0  0  0  0
 14 17  1  0  0  0  0
 11 12  1  0  0  0  0
 11 13  1  0  0  0  0
 11 14  1  0  0  0  0
  9 10  1  0  0  0  0
  9 11  1  0  0  0  0
  9 26  1  0  0  0  0
  7  8  1  0  0  0  0
  7  9  1  0  0  0  0
 30 31  1  0  0  0  0
 30 32  1  0  0  0  0
 30 33  1  0  0  0  0
 28 29  1  0  0  0  0
 28 30  1  0  0  0  0
M  END
$$$$
default_name
  -OEChem-01062215323D

 33 32  0     1  0  0  0  0  0999 V2000
   -3.8420   -3.6918    1.5562 H   0  0  0  0  0  0  0  0  0  0  0  0
   -3.8430   -2.7008    1.1032 C   0  0  0  0  0  0  0  0  0  0  0  0
   -4.5510   -2.0608    1.6242 H   0  0  0  0  0  0  0  0  0  0  0  0
   -4.1140   -2.7798    0.0522 H   0  0  0  0  0  0  0  0  0  0  0  0
   -2.4570   -2.1098    1.2172 C   0  0  0  0  0  0  0  0  0  0  0  0
   -1.5600   -2.7438    1.7572 O   0  0  0  0  0  0  0  0  0  0  0  0
   -2.2870   -0.8898    0.7102 N   0  0  0  0  0  0  0  0  0  0  0  0
   -3.0820   -0.4218    0.2992 H   0  0  0  0  0  0  0  0  0  0  0  0
   -1.0240   -0.1468    0.7262 C   0  0  1  0  0  0  0  0  0  0  0  0
   -0.3583   -0.6100    1.4558 H   0  0  0  0  0  0  0  0  0  0  0  0
   -0.3739   -0.2459   -0.6675 C   0  0  0  0  0  0  0  0  0  0  0  0
   -1.1098    0.0553   -1.4159 H   0  0  0  0  0  0  0  0  0  0  0  0
    0.4687    0.4448   -0.7213 H   0  0  0  0  0  0  0  0  0  0  0  0
    0.1097   -1.6629   -1.0135 C   0  0  0  0  0  0  0  0  0  0  0  0
    0.8375   -1.9926   -0.2717 H   0  0  0  0  0  0  0  0  0  0  0  0
   -0.7425   -2.3449   -1.0059 H   0  0  0  0  0  0  0  0  0  0  0  0
    0.7677   -1.6938   -2.3977 C   0  0  0  0  0  0  0  0  0  0  0  0
    0.0536   -1.3587   -3.1505 H   0  0  0  0  0  0  0  0  0  0  0  0
    1.6342   -1.0319   -2.4032 H   0  0  0  0  0  0  0  0  0  0  0  0
    1.2163   -3.1164   -2.7267 C   0  0  0  0  0  0  0  0  0  0  0  0
    1.9435   -3.4464   -1.9866 H   0  0  0  0  0  0  0  0  0  0  0  0
    0.3549   -3.7820   -2.7042 H   0  0  0  0  0  0  0  0  0  0  0  0
    1.8304   -3.1864   -4.0576 N   0  0  0  0  0  0  0  0  0  0  0  0
    2.1266   -4.1349   -4.2355 H   0  0  0  0  0  0  0  0  0  0  0  0
    1.1497   -2.9117   -4.7515 H   0  0  0  0  0  0  0  0  0  0  0  0
   -1.2712    1.3099    1.1517 C   0  0  0  0  0  0  0  0  0  0  0  0
   -0.4012    2.1600    0.9746 O   0  0  0  0  0  0  0  0  0  0  0  0
   -2.4504    1.5893    1.7190 N   0  0  0  0  0  0  0  0  0  0  0  0
   -3.1166    0.8407    1.8158 H   0  0  0  0  0  0  0  0  0  0  0  0
   -2.8337    2.9185    2.1925 C   0  0  0  0  0  0  0  0  0  0  0  0
   -2.7321    3.6427    1.3812 H   0  0  0  0  0  0  0  0  0  0  0  0
   -3.8667    2.9133    2.5432 H   0  0  0  0  0  0  0  0  0  0  0  0
   -2.1760    3.2207    3.0101 H   0  0  0  0  0  0  0  0  0  0  0  0
  5  6  2  0  0  0  0
  5  7  1  0  0  0  0
  2  3  1  0  0  0  0
  2  4  1  0  0  0  0
  2  5  1  0  0  0  0
  1  2  1  0  0  0  0
 26 27  2  0  0  0  0
 26 28  1  0  0  0  0
 23 24  1  0  0  0  0
 23 25  1  0  0  0  0
 20 21  1  0  0  0  0
 20 22  1  0  0  0  0
 20 23  1  0  0  0  0
 17 18  1  0  0  0  0
 17 19  1  0  0  0  0
 17 20  1  0  0  0  0
 14 15  1  0  0  0  0
 14 16  1  0  0  0  0
 14 17  1  0  0  0  0
 11 12  1  0  0  0  0
 11 13  1  0  0  0  0
 11 14  1  0  0  0  0
  9 10  1  0  0  0  0
  9 11  1  0  0  0  0
  9 26  1  0  0  0  0
  7  8  1  0  0  0  0
  7  9  1  0  0  0  0
 30 31  1  0  0  0  0
 30 32  1  0  0  0  0
 30 33  1  0  0  0  0
 28 29  1  0  0  0  0
 28 30  1  0  0  0  0
M  END
$$$$
default_name
  -OEChem-01062215323D

 33 32  0     1  0  0  0  0  0999 V2000
   -3.8420   -3.6918    1.5562 H   0  0  0  0  0  0  0  0  0  0  0  0
   -3.8430   -2.7008    1.1032 C   0  0  0  0  0  0  0  0  0  0  0  0
   -4.5510   -2.0608    1.6242 H   0  0  0  0  0  0  0  0  0  0  0  0
   -4.1140   -2.7798    0.0522 H   0  0  0  0  0  0  0  0  0  0  0  0
   -2.4570   -2.1098    1.2172 C   0  0  0  0  0  0  0  0  0  0  0  0
   -1.5600   -2.7438    1.7572 O   0  0  0  0  0  0  0  0  0  0  0  0
   -2.2870   -0.8898    0.7102 N   0  0  0  0  0  0  0  0  0  0  0  0
   -3.0820   -0.4218    0.2992 H   0  0  0  0  0  0  0  0  0  0  0  0
   -1.0240   -0.1468    0.7262 C   0  0  1  0  0  0  0  0  0  0  0  0
   -0.3583   -0.6100    1.4558 H   0  0  0  0  0  0  0  0  0  0  0  0
   -0.3739   -0.2459   -0.6675 C   0  0  0  0  0  0  0  0  0  0  0  0
   -1.1098    0.0553   -1.4159 H   0  0  0  0  0  0  0  0  0  0  0  0
    0.4687    0.4448   -0.7213 H   0  0  0  0  0  0  0  0  0  0  0  0
    0.1097   -1.6629   -1.0135 C   0  0  0  0  0  0  0  0  0  0  0  0
    0.8375   -1.9926   -0.2717 H   0  0  0  0  0  0  0  0  0  0  0  0
   -0.7425   -2.3449   -1.0059 H   0  0  0  0  0  0  0  0  0  0  0  0
    0.7677   -1.6938   -2.3977 C   0  0  0  0  0  0  0  0  0  0  0  0
    0.0536   -1.3587   -3.1505 H   0  0  0  0  0  0  0  0  0  0  0  0
    1.6342   -1.0319   -2.4032 H   0  0  0  0  0  0  0  0  0  0  0  0
    1.2163   -3.1164   -2.7267 C   0  0  0  0  0  0  0  0  0  0  0  0
    1.9435   -3.4464   -1.9866 H   0  0  0  0  0  0  0  0  0  0  0  0
    0.3549   -3.7820   -2.7042 H   0  0  0  0  0  0  0  0  0  0  0  0
    1.8304   -3.1864   -4.0576 N   0  0  0  0  0  0  0  0  0  0  0  0
    2.1266   -4.1349   -4.2355 H   0  0  0  0  0  0  0  0  0  0  0  0
    1.1497   -2.9117   -4.7515 H   0  0  0  0  0  0  0  0  0  0  0  0
   -1.2712    1.3099    1.1517 C   0  0  0  0  0  0  0  0  0  0  0  0
   -0.5386    2.2059    0.7377 O   0  0  0  0  0  0  0  0  0  0  0  0
   -2.2945    1.5387    1.9830 N   0  0  0  0  0  0  0  0  0  0  0  0
   -2.8574    0.7533    2.2655 H   0  0  0  0  0  0  0  0  0  0  0  0
   -2.6517    2.8617    2.4926 C   0  0  0  0  0  0  0  0  0  0  0  0
   -2.8068    3.5491    1.6582 H   0  0  0  0  0  0  0  0  0  0  0  0
   -3.5646    2.8057    3.0874 H   0  0  0  0  0  0  0  0  0  0  0  0
   -1.8398    3.2479    3.1124 H   0  0  0  0  0  0  0  0  0  0  0  0
  5  6  2  0  0  0  0
  5  7  1  0  0  0  0
  2  3  1  0  0  0  0
  2  4  1  0  0  0  0
  2  5  1  0  0  0  0
  1  2  1  0  0  0  0
 26 27  2  0  0  0  0
 26 28  1  0  0  0  0
 23 24  1  0  0  0  0
 23 25  1  0  0  0  0
 20 21  1  0  0  0  0
 20 22  1  0  0  0  0
 20 23  1  0  0  0  0
 17 18  1  0  0  0  0
 17 19  1  0  0  0  0
 17 20  1  0  0  0  0
 14 15  1  0  0  0  0
 14 16  1  0  0  0  0
 14 17  1  0  0  0  0
 11 12  1  0  0  0  0
 11 13  1  0  0  0  0
 11 14  1  0  0  0  0
  9 10  1  0  0  0  0
  9 11  1  0  0  0  0
  9 26  1  0  0  0  0
  7  8  1  0  0  0  0
  7  9  1  0  0  0  0
 30 31  1  0  0  0  0
 30 32  1  0  0  0  0
 30 33  1  0  0  0  0
 28 29  1  0  0  0  0
 28 30  1  0  0  0  0
M  END
$$$$
default_name
  -OEChem-01062215323D

 33 32  0     1  0  0  0  0  0999 V2000
   -3.8420   -3.6918    1.5562 H   0  0  0  0  0  0  0  0  0  0  0  0
   -3.8430   -2.7008    1.1032 C   0  0  0  0  0  0  0  0  0  0  0  0
   -4.5510   -2.0608    1.6242 H   0  0  0  0  0  0  0  0  0  0  0  0
   -4.1140   -2.7798    0.0522 H   0  0  0  0  0  0  0  0  0  0  0  0
   -2.4570   -2.1098    1.2172 C   0  0  0  0  0  0  0  0  0  0  0  0
   -1.5600   -2.7438    1.7572 O   0  0  0  0  0  0  0  0  0  0  0  0
   -2.2870   -0.8898    0.7102 N   0  0  0  0  0  0  0  0  0  0  0  0
   -3.0820   -0.4218    0.2992 H   0  0  0  0  0  0  0  0  0  0  0  0
   -1.0240   -0.1468    0.7262 C   0  0  1  0  0  0  0  0  0  0  0  0
   -0.3583   -0.6100    1.4558 H   0  0  0  0  0  0  0  0  0  0  0  0
   -0.3739   -0.2459   -0.6675 C   0  0  0  0  0  0  0  0  0  0  0  0
   -1.1098    0.0553   -1.4159 H   0  0  0  0  0  0  0  0  0  0  0  0
    0.4687    0.4448   -0.7213 H   0  0  0  0  0  0  0  0  0  0  0  0
    0.1097   -1.6629   -1.0135 C   0  0  0  0  0  0  0  0  0  0  0  0
    0.8375   -1.9926   -0.2717 H   0  0  0  0  0  0  0  0  0  0  0  0
   -0.7425   -2.3449   -1.0059 H   0  0  0  0  0  0  0  0  0  0  0  0
    0.7677   -1.6938   -2.3977 C   0  0  0  0  0  0  0  0  0  0  0  0
    0.0536   -1.3587   -3.1505 H   0  0  0  0  0  0  0  0  0  0  0  0
    1.6342   -1.0319   -2.4032 H   0  0  0  0  0  0  0  0  0  0  0  0
    1.2163   -3.1164   -2.7267 C   0  0  0  0  0  0  0  0  0  0  0  0
    1.9435   -3.4464   -1.9866 H   0  0  0  0  0  0  0  0  0  0  0  0
    0.3549   -3.7820   -2.7042 H   0  0  0  0  0  0  0  0  0  0  0  0
    1.8304   -3.1864   -4.0576 N   0  0  0  0  0  0  0  0  0  0  0  0
    2.1266   -4.1349   -4.2355 H   0  0  0  0  0  0  0  0  0  0  0  0
    1.1497   -2.9117   -4.7515 H   0  0  0  0  0  0  0  0  0  0  0  0
   -1.2712    1.3099    1.1517 C   0  0  0  0  0  0  0  0  0  0  0  0
   -0.7326    2.2305    0.5407 O   0  0  0  0  0  0  0  0  0  0  0  0
   -2.0755    1.5120    2.2018 N   0  0  0  0  0  0  0  0  0  0  0  0
   -2.4906    0.7062    2.6400 H   0  0  0  0  0  0  0  0  0  0  0  0
   -2.3983    2.8324    2.7403 C   0  0  0  0  0  0  0  0  0  0  0  0
   -2.8044    3.4649    1.9479 H   0  0  0  0  0  0  0  0  0  0  0  0
   -3.1316    2.7460    3.5434 H   0  0  0  0  0  0  0  0  0  0  0  0
   -1.4920    3.3025    3.1276 H   0  0  0  0  0  0  0  0  0  0  0  0
  5  6  2  0  0  0  0
  5  7  1  0  0  0  0
  2  3  1  0  0  0  0
  2  4  1  0  0  0  0
  2  5  1  0  0  0  0
  1  2  1  0  0  0  0
 26 27  2  0  0  0  0
 26 28  1  0  0  0  0
 23 24  1  0  0  0  0
 23 25  1  0  0  0  0
 20 21  1  0  0  0  0
 20 22  1  0  0  0  0
 20 23  1  0  0  0  0
 17 18  1  0  0  0  0
 17 19  1  0  0  0  0
 17 20  1  0  0  0  0
 14 15  1  0  0  0  0
 14 16  1  0  0  0  0
 14 17  1  0  0  0  0
 11 12  1  0  0  0  0
 11 13  1  0  0  0  0
 11 14  1  0  0  0  0
  9 10  1  0  0  0  0
  9 11  1  0  0  0  0
  9 26  1  0  0  0  0
  7  8  1  0  0  0  0
  7  9  1  0  0  0  0
 30 31  1  0  0  0  0
 30 32  1  0  0  0  0
 30 33  1  0  0  0  0
 28 29  1  0  0  0  0
 28 30  1  0  0  0  0
M  END
$$$$
default_name
  -OEChem-01062215323D

 33 32  0     1  0  0  0  0  0999 V2000
   -3.8420   -3.6918    1.5562 H   0  0  0  0  0  0  0  0  0  0  0  0
   -3.8430   -2.7008    1.1032 C   0  0  0  0  0  0  0  0  0  0  0  0
   -4.5510   -2.0608    1.6242 H   0  0  0  0  0  0  0  0  0  0  0  0
   -4.1140   -2.7798    0.0522 H   0  0  0  0  0  0  0  0  0  0  0  0
   -2.4570   -2.1098    1.2172 C   0  0  0  0  0  0  0  0  0  0  0  0
   -1.5600   -2.7438    1.7572 O   0  0  0  0  0  0  0  0  0  0  0  0
   -2.2870   -0.8898    0.7102 N   0  0  0  0  0  0  0  0  0  0  0  0
   -3.0820   -0.4218    0.2992 H   0  0  0  0  0  0  0  0  0  0  0  0
   -1.0240   -0.1468    0.7262 C   0  0  1  0  0  0  0  0  0  0  0  0
   -0.3583   -0.6100    1.4558 H   0  0  0  0  0  0  0  0  0  0  0  0
   -0.3739   -0.2459   -0.6675 C   0  0  0  0  0  0  0  0  0  0  0  0
   -1.1098    0.0553   -1.4159 H   0  0  0  0  0  0  0  0  0  0  0  0
    0.4687    0.4448   -0.7213 H   0  0  0  0  0  0  0  0  0  0  0  0
    0.1097   -1.6629   -1.0135 C   0  0  0  0  0  0  0  0  0  0  0  0
    0.8375   -1.9926   -0.2717 H   0  0  0  0  0  0  0  0  0  0  0  0
   -0.7425   -2.3449   -1.0059 H   0  0  0  0  0  0  0  0  0  0  0  0
    0.7677   -1.6938   -2.3977 C   0  0  0  0  0  0  0  0  0  0  0  0
    0.0536   -1.3587   -3.1505 H   0  0  0  0  0  0  0  0  0  0  0  0
    1.6342   -1.0319   -2.4032 H   0  0  0  0  0  0  0  0  0  0  0  0
    1.2163   -3.1164   -2.7267 C   0  0  0  0  0  0  0  0  0  0  0  0
    1.9435   -3.4464   -1.9866 H   0  0  0  0  0  0  0  0  0  0  0  0
    0.3549   -3.7820   -2.7042 H   0  0  0  0  0  0  0  0  0  0  0  0
    1.8304   -3.1864   -4.0576 N   0  0  0  0  0  0  0  0  0  0  0  0
    2.1266   -4.1349   -4.2355 H   0  0  0  0  0  0  0  0  0  0  0  0
    1.1497   -2.9117   -4.7515 H   0  0  0  0  0  0  0  0  0  0  0  0
   -1.2712    1.3099    1.1517 C   0  0  0  0  0  0  0  0  0  0  0  0
   -0.9700    2.2322    0.3969 O   0  0  0  0  0  0  0  0  0  0  0  0
   -1.8084    1.5109    2.3606 N   0  0  0  0  0  0  0  0  0  0  0  0
   -2.0411    0.7025    2.9138 H   0  0  0  0  0  0  0  0  0  0  0  0
   -2.0907    2.8325    2.9186 C   0  0  0  0  0  0  0  0  0  0  0  0
   -2.7250    3.3958    2.2307 H   0  0  0  0  0  0  0  0  0  0  0  0
   -2.5973    2.7383    3.8802 H   0  0  0  0  0  0  0  0  0  0  0  0
   -1.1562    3.3807    3.0548 H   0  0  0  0  0  0  0  0  0  0  0  0
  5  6  2  0  0  0  0
  5  7  1  0  0  0  0
  2  3  1  0  0  0  0
  2  4  1  0  0  0  0
  2  5  1  0  0  0  0
  1  2  1  0  0  0  0
 26 27  2  0  0  0  0
 26 28  1  0  0  0  0
 23 24  1  0  0  0  0
 23 25  1  0  0  0  0
 20 21  1  0  0  0  0
 20 22  1  0  0  0  0
 20 23  1  0  0  0  0
 17 18  1  0  0  0  0
 17 19  1  0  0  0  0
 17 20  1  0  0  0  0
 14 15  1  0  0  0  0
 14 16  1  0  0  0  0
 14 17  1  0  0  0  0
 11 12  1  0  0  0  0
 11 13  1  0  0  0  0
 11 14  1  0  0  0  0
  9 10  1  0  0  0  0
  9 11  1  0  0  0  0
  9 26  1  0  0  0  0
  7  8  1  0  0  0  0
  7  9  1  0  0  0  0
 30 31  1  0  0  0  0
 30 32  1  0  0  0  0
 30 33  1  0  0  0  0
 28 29  1  0  0  0  0
 28 30  1  0  0  0  0
M  END
$$$$
default_name
  -OEChem-01062215323D

 33 32  0     1  0  0  0  0  0999 V2000
   -3.8420   -3.6918    1.5562 H   0  0  0  0  0  0  0  0  0  0  0  0
   -3.8430   -2.7008    1.1032 C   0  0  0  0  0  0  0  0  0  0  0  0
   -4.5510   -2.0608    1.6242 H   0  0  0  0  0  0  0  0  0  0  0  0
   -4.1140   -2.7798    0.0522 H   0  0  0  0  0  0  0  0  0  0  0  0
   -2.4570   -2.1098    1.2172 C   0  0  0  0  0  0  0  0  0  0  0  0
   -1.5600   -2.7438    1.7572 O   0  0  0  0  0  0  0  0  0  0  0  0
   -2.2870   -0.8898    0.7102 N   0  0  0  0  0  0  0  0  0  0  0  0
   -3.0820   -0.4218    0.2992 H   0  0  0  0  0  0  0  0  0  0  0  0
   -1.0240   -0.1468    0.7262 C   0  0  1  0  0  0  0  0  0  0  0  0
   -0.3583   -0.6100    1.4558 H   0  0  0  0  0  0  0  0  0  0  0  0
   -0.3739   -0.2459   -0.6675 C   0  0  0  0  0  0  0  0  0  0  0  0
   -1.1098    0.0553   -1.4159 H   0  0  0  0  0  0  0  0  0  0  0  0
    0.4687    0.4448   -0.7213 H   0  0  0  0  0  0  0  0  0  0  0  0
    0.1097   -1.6629   -1.0135 C   0  0  0  0  0  0  0  0  0  0  0  0
    0.8375   -1.9926   -0.2717 H   0  0  0  0  0  0  0  0  0  0  0  0
   -0.7425   -2.3449   -1.0059 H   0  0  0  0  0  0  0  0  0  0  0  0
    0.7677   -1.6938   -2.3977 C   0  0  0  0  0  0  0  0  0  0  0  0
    0.0536   -1.3587   -3.1505 H   0  0  0  0  0  0  0  0  0  0  0  0
    1.6342   -1.0319   -2.4032 H   0  0  0  0  0  0  0  0  0  0  0  0
    1.2163   -3.1164   -2.7267 C   0  0  0  0  0  0  0  0  0  0  0  0
    1.9435   -3.4464   -1.9866 H   0  0  0  0  0  0  0  0  0  0  0  0
    0.3549   -3.7820   -2.7042 H   0  0  0  0  0  0  0  0  0  0  0  0
    1.8304   -3.1864   -4.0576 N   0  0  0  0  0  0  0  0  0  0  0  0
    2.1266   -4.1349   -4.2355 H   0  0  0  0  0  0  0  0  0  0  0  0
    1.1497   -2.9117   -4.7515 H   0  0  0  0  0  0  0  0  0  0  0  0
   -1.2712    1.3099    1.1517 C   0  0  0  0  0  0  0  0  0  0  0  0
   -1.2348    2.2108    0.3162 O   0  0  0  0  0  0  0  0  0  0  0  0
   -1.5114    1.5357    2.4485 N   0  0  0  0  0  0  0  0  0  0  0  0
   -1.5395    0.7426    3.0681 H   0  0  0  0  0  0  0  0  0  0  0  0
   -1.7499    2.8621    3.0155 C   0  0  0  0  0  0  0  0  0  0  0  0
   -2.5740    3.3465    2.4872 H   0  0  0  0  0  0  0  0  0  0  0  0
   -1.9981    2.7831    4.0748 H   0  0  0  0  0  0  0  0  0  0  0  0
   -0.8553    3.4774    2.8988 H   0  0  0  0  0  0  0  0  0  0  0  0
  5  6  2  0  0  0  0
  5  7  1  0  0  0  0
  2  3  1  0  0  0  0
  2  4  1  0  0  0  0
  2  5  1  0  0  0  0
  1  2  1  0  0  0  0
 26 27  2  0  0  0  0
 26 28  1  0  0  0  0
 23 24  1  0  0  0  0
 23 25  1  0  0  0  0
 20 21  1  0  0  0  0
 20 22  1  0  0  0  0
 20 23  1  0  0  0  0
 17 18  1  0  0  0  0
 17 19  1  0  0  0  0
 17 20  1  0  0  0  0
 14 15  1  0  0  0  0
 14 16  1  0  0  0  0
 14 17  1  0  0  0  0
 11 12  1  0  0  0  0
 11 13  1  0  0  0  0
 11 14  1  0  0  0  0
  9 10  1  0  0  0  0
  9 11  1  0  0  0  0
  9 26  1  0  0  0  0
  7  8  1  0  0  0  0
  7  9  1  0  0  0  0
 30 31  1  0  0  0  0
 30 32  1  0  0  0  0
 30 33  1  0  0  0  0
 28 29  1  0  0  0  0
 28 30  1  0  0  0  0
M  END
$$$$
default_name
  -OEChem-01062215323D

 33 32  0     1  0  0  0  0  0999 V2000
   -3.8420   -3.6918    1.5562 H   0  0  0  0  0  0  0  0  0  0  0  0
   -3.8430   -2.7008    1.1032 C   0  0  0  0  0  0  0  0  0  0  0  0
   -4.5510   -2.0608    1.6242 H   0  0  0  0  0  0  0  0  0  0  0  0
   -4.1140   -2.7798    0.0522 H   0  0  0  0  0  0  0  0  0  0  0  0
   -2.4570   -2.1098    1.2172 C   0  0  0  0  0  0  0  0  0  0  0  0
   -1.5600   -2.7438    1.7572 O   0  0  0  0  0  0  0  0  0  0  0  0
   -2.2870   -0.8898    0.7102 N   0  0  0  0  0  0  0  0  0  0  0  0
   -3.0820   -0.4218    0.2992 H   0  0  0  0  0  0  0  0  0  0  0  0
   -1.0240   -0.1468    0.7262 C   0  0  1  0  0  0  0  0  0  0  0  0
   -0.3583   -0.6100    1.4558 H   0  0  0  0  0  0  0  0  0  0  0  0
   -0.3739   -0.2459   -0.6675 C   0  0  0  0  0  0  0  0  0  0  0  0
   -1.1098    0.0553   -1.4159 H   0  0  0  0  0  0  0  0  0  0  0  0
    0.4687    0.4448   -0.7213 H   0  0  0  0  0  0  0  0  0  0  0  0
    0.1097   -1.6629   -1.0135 C   0  0  0  0  0  0  0  0  0  0  0  0
    0.8375   -1.9926   -0.2717 H   0  0  0  0  0  0  0  0  0  0  0  0
   -0.7425   -2.3449   -1.0059 H   0  0  0  0  0  0  0  0  0  0  0  0
    0.7677   -1.6938   -2.3977 C   0  0  0  0  0  0  0  0  0  0  0  0
    0.0536   -1.3587   -3.1505 H   0  0  0  0  0  0  0  0  0  0  0  0
    1.6342   -1.0319   -2.4032 H   0  0  0  0  0  0  0  0  0  0  0  0
    1.2163   -3.1164   -2.7267 C   0  0  0  0  0  0  0  0  0  0  0  0
    1.9435   -3.4464   -1.9866 H   0  0  0  0  0  0  0  0  0  0  0  0
    0.3549   -3.7820   -2.7042 H   0  0  0  0  0  0  0  0  0  0  0  0
    1.8304   -3.1864   -4.0576 N   0  0  0  0  0  0  0  0  0  0  0  0
    2.1266   -4.1349   -4.2355 H   0  0  0  0  0  0  0  0  0  0  0  0
    1.1497   -2.9117   -4.7515 H   0  0  0  0  0  0  0  0  0  0  0  0
   -1.2712    1.3099    1.1517 C   0  0  0  0  0  0  0  0  0  0  0  0
   -1.5088    2.1678    0.3041 O   0  0  0  0  0  0  0  0  0  0  0  0
   -1.2048    1.5845    2.4596 N   0  0  0  0  0  0  0  0  0  0  0  0
   -1.0200    0.8236    3.0925 H   0  0  0  0  0  0  0  0  0  0  0  0
   -1.3990    2.9191    3.0242 C   0  0  0  0  0  0  0  0  0  0  0  0
   -2.3618    3.3203    2.7001 H   0  0  0  0  0  0  0  0  0  0  0  0
   -1.3748    2.8775    4.1140 H   0  0  0  0  0  0  0  0  0  0  0  0
   -0.6098    3.5858    2.6704 H   0  0  0  0  0  0  0  0  0  0  0  0
  5  6  2  0  0  0  0
  5  7  1  0  0  0  0
  2  3  1  0  0  0  0
  2  4  1  0  0  0  0
  2  5  1  0  0  0  0
  1  2  1  0  0  0  0
 26 27  2  0  0  0  0
 26 28  1  0  0  0  0
 23 24  1  0  0  0  0
 23 25  1  0  0  0  0
 20 21  1  0  0  0  0
 20 22  1  0  0  0  0
 20 23  1  0  0  0  0
 17 18  1  0  0  0  0
 17 19  1  0  0  0  0
 17 20  1  0  0  0  0
 14 15  1  0  0  0  0
 14 16  1  0  0  0  0
 14 17  1  0  0  0  0
 11 12  1  0  0  0  0
 11 13  1  0  0  0  0
 11 14  1  0  0  0  0
  9 10  1  0  0  0  0
  9 11  1  0  0  0  0
  9 26  1  0  0  0  0
  7  8  1  0  0  0  0
  7  9  1  0  0  0  0
 30 31  1  0  0  0  0
 30 32  1  0  0  0  0
 30 33  1  0  0  0  0
 28 29  1  0  0  0  0
 28 30  1  0  0  0  0
M  END
$$$$
default_name
  -OEChem-01062215323D

 33 32  0     1  0  0  0  0  0999 V2000
   -3.8420   -3.6918    1.5562 H   0  0  0  0  0  0  0  0  0  0  0  0
   -3.8430   -2.7008    1.1032 C   0  0  0  0  0  0  0  0  0  0  0  0
   -4.5510   -2.0608    1.6242 H   0  0  0  0  0  0  0  0  0  0  0  0
   -4.1140   -2.7798    0.0522 H   0  0  0  0  0  0  0  0  0  0  0  0
   -2.4570   -2.1098    1.2172 C   0  0  0  0  0  0  0  0  0  0  0  0
   -1.5600   -2.7438    1.7572 O   0  0  0  0  0  0  0  0  0  0  0  0
   -2.2870   -0.8898    0.7102 N   0  0  0  0  0  0  0  0  0  0  0  0
   -3.0820   -0.4218    0.2992 H   0  0  0  0  0  0  0  0  0  0  0  0
   -1.0240   -0.1468    0.7262 C   0  0  1  0  0  0  0  0  0  0  0  0
   -0.3583   -0.6100    1.4558 H   0  0  0  0  0  0  0  0  0  0  0  0
   -0.3739   -0.2459   -0.6675 C   0  0  0  0  0  0  0  0  0  0  0  0
   -1.1098    0.0553   -1.4159 H   0  0  0  0  0  0  0  0  0  0  0  0
    0.4687    0.4448   -0.7213 H   0  0  0  0  0  0  0  0  0  0  0  0
    0.1097   -1.6629   -1.0135 C   0  0  0  0  0  0  0  0  0  0  0  0
    0.8375   -1.9926   -0.2717 H   0  0  0  0  0  0  0  0  0  0  0  0
   -0.7425   -2.3449   -1.0059 H   0  0  0  0  0  0  0  0  0  0  0  0
    0.7677   -1.6938   -2.3977 C   0  0  0  0  0  0  0  0  0  0  0  0
    0.0536   -1.3587   -3.1505 H   0  0  0  0  0  0  0  0  0  0  0  0
    1.6342   -1.0319   -2.4032 H   0  0  0  0  0  0  0  0  0  0  0  0
    1.2163   -3.1164   -2.7267 C   0  0  0  0  0  0  0  0  0  0  0  0
    1.9435   -3.4464   -1.9866 H   0  0  0  0  0  0  0  0  0  0  0  0
    0.3549   -3.7820   -2.7042 H   0  0  0  0  0  0  0  0  0  0  0  0
    1.8304   -3.1864   -4.0576 N   0  0  0  0  0  0  0  0  0  0  0  0
    2.1266   -4.1349   -4.2355 H   0  0  0  0  0  0  0  0  0  0  0  0
    1.1497   -2.9117   -4.7515 H   0  0  0  0  0  0  0  0  0  0  0  0
   -1.2712    1.3099    1.1517 C   0  0  0  0  0  0  0  0  0  0  0  0
   -1.7734    2.1062    0.3613 O   0  0  0  0  0  0  0  0  0  0  0  0
   -0.9093    1.6540    2.3930 N   0  0  0  0  0  0  0  0  0  0  0  0
   -0.5180    0.9401    2.9853 H   0  0  0  0  0  0  0  0  0  0  0  0
   -1.0621    2.9997    2.9442 C   0  0  0  0  0  0  0  0  0  0  0  0
   -2.1027    3.3192    2.8547 H   0  0  0  0  0  0  0  0  0  0  0  0
   -0.7698    3.0149    3.9951 H   0  0  0  0  0  0  0  0  0  0  0  0
   -0.4365    3.6985    2.3850 H   0  0  0  0  0  0  0  0  0  0  0  0
  5  6  2  0  0  0  0
  5  7  1  0  0  0  0
  2  3  1  0  0  0  0
  2  4  1  0  0  0  0
  2  5  1  0  0  0  0
  1  2  1  0  0  0  0
 26 27  2  0  0  0  0
 26 28  1  0  0  0  0
 23 24  1  0  0  0  0
 23 25  1  0  0  0  0
 20 21  1  0  0  0  0
 20 22  1  0  0  0  0
 20 23  1  0  0  0  0
 17 18  1  0  0  0  0
 17 19  1  0  0  0  0
 17 20  1  0  0  0  0
 14 15  1  0  0  0  0
 14 16  1  0  0  0  0
 14 17  1  0  0  0  0
 11 12  1  0  0  0  0
 11 13  1  0  0  0  0
 11 14  1  0  0  0  0
  9 10  1  0  0  0  0
  9 11  1  0  0  0  0
  9 26  1  0  0  0  0
  7  8  1  0  0  0  0
  7  9  1  0  0  0  0
 30 31  1  0  0  0  0
 30 32  1  0  0  0  0
 30 33  1  0  0  0  0
 28 29  1  0  0  0  0
 28 30  1  0  0  0  0
M  END
$$$$
default_name
  -OEChem-01062215323D

 33 32  0     1  0  0  0  0  0999 V2000
   -3.8420   -3.6918    1.5562 H   0  0  0  0  0  0  0  0  0  0  0  0
   -3.8430   -2.7008    1.1032 C   0  0  0  0  0  0  0  0  0  0  0  0
   -4.5510   -2.0608    1.6242 H   0  0  0  0  0  0  0  0  0  0  0  0
   -4.1140   -2.7798    0.0522 H   0  0  0  0  0  0  0  0  0  0  0  0
   -2.4570   -2.1098    1.2172 C   0  0  0  0  0  0  0  0  0  0  0  0
   -1.5600   -2.7438    1.7572 O   0  0  0  0  0  0  0  0  0  0  0  0
   -2.2870   -0.8898    0.7102 N   0  0  0  0  0  0  0  0  0  0  0  0
   -3.0820   -0.4218    0.2992 H   0  0  0  0  0  0  0  0  0  0  0  0
   -1.0240   -0.1468    0.7262 C   0  0  1  0  0  0  0  0  0  0  0  0
   -0.3583   -0.6100    1.4558 H   0  0  0  0  0  0  0  0  0  0  0  0
   -0.3739   -0.2459   -0.6675 C   0  0  0  0  0  0  0  0  0  0  0  0
   -1.1098    0.0553   -1.4159 H   0  0  0  0  0  0  0  0  0  0  0  0
    0.4687    0.4448   -0.7213 H   0  0  0  0  0  0  0  0  0  0  0  0
    0.1097   -1.6629   -1.0135 C   0  0  0  0  0  0  0  0  0  0  0  0
    0.8375   -1.9926   -0.2717 H   0  0  0  0  0  0  0  0  0  0  0  0
   -0.7425   -2.3449   -1.0059 H   0  0  0  0  0  0  0  0  0  0  0  0
    0.7677   -1.6938   -2.3977 C   0  0  0  0  0  0  0  0  0  0  0  0
    0.0536   -1.3587   -3.1505 H   0  0  0  0  0  0  0  0  0  0  0  0
    1.6342   -1.0319   -2.4032 H   0  0  0  0  0  0  0  0  0  0  0  0
    1.2163   -3.1164   -2.7267 C   0  0  0  0  0  0  0  0  0  0  0  0
    1.9435   -3.4464   -1.9866 H   0  0  0  0  0  0  0  0  0  0  0  0
    0.3549   -3.7820   -2.7042 H   0  0  0  0  0  0  0  0  0  0  0  0
    1.8304   -3.1864   -4.0576 N   0  0  0  0  0  0  0  0  0  0  0  0
    2.1266   -4.1349   -4.2355 H   0  0  0  0  0  0  0  0  0  0  0  0
    1.1497   -2.9117   -4.7515 H   0  0  0  0  0  0  0  0  0  0  0  0
   -1.2712    1.3099    1.1517 C   0  0  0  0  0  0  0  0  0  0  0  0
   -2.0105    2.0301    0.4840 O   0  0  0  0  0  0  0  0  0  0  0  0
   -0.6453    1.7396    2.2534 N   0  0  0  0  0  0  0  0  0  0  0  0
   -0.0677    1.0842    2.7539 H   0  0  0  0  0  0  0  0  0  0  0  0
   -0.7620    3.0983    2.7809 C   0  0  0  0  0  0  0  0  0  0  0  0
   -1.8144    3.3430    2.9406 H   0  0  0  0  0  0  0  0  0  0  0  0
   -0.2245    3.1860    3.7262 H   0  0  0  0  0  0  0  0  0  0  0  0
   -0.3471    3.8080    2.0622 H   0  0  0  0  0  0  0  0  0  0  0  0
  5  6  2  0  0  0  0
  5  7  1  0  0  0  0
  2  3  1  0  0  0  0
  2  4  1  0  0  0  0
  2  5  1  0  0  0  0
  1  2  1  0  0  0  0
 26 27  2  0  0  0  0
 26 28  1  0  0  0  0
 23 24  1  0  0  0  0
 23 25  1  0  0  0  0
 20 21  1  0  0  0  0
 20 22  1  0  0  0  0
 20 23  1  0  0  0  0
 17 18  1  0  0  0  0
 17 19  1  0  0  0  0
 17 20  1  0  0  0  0
 14 15  1  0  0  0  0
 14 16  1  0  0  0  0
 14 17  1  0  0  0  0
 11 12  1  0  0  0  0
 11 13  1  0  0  0  0
 11 14  1  0  0  0  0
  9 10  1  0  0  0  0
  9 11  1  0  0  0  0
  9 26  1  0  0  0  0
  7  8  1  0  0  0  0
  7  9  1  0  0  0  0
 30 31  1  0  0  0  0
 30 32  1  0  0  0  0
 30 33  1  0  0  0  0
 28 29  1  0  0  0  0
 28 30  1  0  0  0  0
M  END
$$$$
default_name
  -OEChem-01062215323D

 33 32  0     1  0  0  0  0  0999 V2000
   -3.8420   -3.6918    1.5562 H   0  0  0  0  0  0  0  0  0  0  0  0
   -3.8430   -2.7008    1.1032 C   0  0  0  0  0  0  0  0  0  0  0  0
   -4.5510   -2.0608    1.6242 H   0  0  0  0  0  0  0  0  0  0  0  0
   -4.1140   -2.7798    0.0522 H   0  0  0  0  0  0  0  0  0  0  0  0
   -2.4570   -2.1098    1.2172 C   0  0  0  0  0  0  0  0  0  0  0  0
   -1.5600   -2.7438    1.7572 O   0  0  0  0  0  0  0  0  0  0  0  0
   -2.2870   -0.8898    0.7102 N   0  0  0  0  0  0  0  0  0  0  0  0
   -3.0820   -0.4218    0.2992 H   0  0  0  0  0  0  0  0  0  0  0  0
   -1.0240   -0.1468    0.7262 C   0  0  1  0  0  0  0  0  0  0  0  0
   -0.3583   -0.6100    1.4558 H   0  0  0  0  0  0  0  0  0  0  0  0
   -0.3739   -0.2459   -0.6675 C   0  0  0  0  0  0  0  0  0  0  0  0
   -1.1098    0.0553   -1.4159 H   0  0  0  0  0  0  0  0  0  0  0  0
    0.4687    0.4448   -0.7213 H   0  0  0  0  0  0  0  0  0  0  0  0
    0.1097   -1.6629   -1.0135 C   0  0  0  0  0  0  0  0  0  0  0  0
    0.8375   -1.9926   -0.2717 H   0  0  0  0  0  0  0  0  0  0  0  0
   -0.7425   -2.3449   -1.0059 H   0  0  0  0  0  0  0  0  0  0  0  0
    0.7677   -1.6938   -2.3977 C   0  0  0  0  0  0  0  0  0  0  0  0
    0.0536   -1.3587   -3.1505 H   0  0  0  0  0  0  0  0  0  0  0  0
    1.6342   -1.0319   -2.4032 H   0  0  0  0  0  0  0  0  0  0  0  0
    1.2163   -3.1164   -2.7267 C   0  0  0  0  0  0  0  0  0  0  0  0
    1.9435   -3.4464   -1.9866 H   0  0  0  0  0  0  0  0  0  0  0  0
    0.3549   -3.7820   -2.7042 H   0  0  0  0  0  0  0  0  0  0  0  0
    1.8304   -3.1864   -4.0576 N   0  0  0  0  0  0  0  0  0  0  0  0
    2.1266   -4.1349   -4.2355 H   0  0  0  0  0  0  0  0  0  0  0  0
    1.1497   -2.9117   -4.7515 H   0  0  0  0  0  0  0  0  0  0  0  0
   -1.2712    1.3099    1.1517 C   0  0  0  0  0  0  0  0  0  0  0  0
   -2.2039    1.9448    0.6639 O   0  0  0  0  0  0  0  0  0  0  0  0
   -0.4306    1.8354    2.0503 N   0  0  0  0  0  0  0  0  0  0  0  0
    0.3001    1.2459    2.4139 H   0  0  0  0  0  0  0  0  0  0  0  0
   -0.5192    3.2082    2.5456 C   0  0  0  0  0  0  0  0  0  0  0  0
   -1.5166    3.3903    2.9518 H   0  0  0  0  0  0  0  0  0  0  0  0
    0.2240    3.3791    3.3257 H   0  0  0  0  0  0  0  0  0  0  0  0
   -0.3477    3.9067    1.7239 H   0  0  0  0  0  0  0  0  0  0  0  0
  5  6  2  0  0  0  0
  5  7  1  0  0  0  0
  2  3  1  0  0  0  0
  2  4  1  0  0  0  0
  2  5  1  0  0  0  0
  1  2  1  0  0  0  0
 26 27  2  0  0  0  0
 26 28  1  0  0  0  0
 23 24  1  0  0  0  0
 23 25  1  0  0  0  0
 20 21  1  0  0  0  0
 20 22  1  0  0  0  0
 20 23  1  0  0  0  0
 17 18  1  0  0  0  0
 17 19  1  0  0  0  0
 17 20  1  0  0  0  0
 14 15  1  0  0  0  0
 14 16  1  0  0  0  0
 14 17  1  0  0  0  0
 11 12  1  0  0  0  0
 11 13  1  0  0  0  0
 11 14  1  0  0  0  0
  9 10  1  0  0  0  0
  9 11  1  0  0  0  0
  9 26  1  0  0  0  0
  7  8  1  0  0  0  0
  7  9  1  0  0  0  0
 30 31  1  0  0  0  0
 30 32  1  0  0  0  0
 30 33  1  0  0  0  0
 28 29  1  0  0  0  0
 28 30  1  0  0  0  0
M  END
$$$$
default_name
  -OEChem-01062215323D

 33 32  0     1  0  0  0  0  0999 V2000
   -3.8420   -3.6918    1.5562 H   0  0  0  0  0  0  0  0  0  0  0  0
   -3.8430   -2.7008    1.1032 C   0  0  0  0  0  0  0  0  0  0  0  0
   -4.5510   -2.0608    1.6242 H   0  0  0  0  0  0  0  0  0  0  0  0
   -4.1140   -2.7798    0.0522 H   0  0  0  0  0  0  0  0  0  0  0  0
   -2.4570   -2.1098    1.2172 C   0  0  0  0  0  0  0  0  0  0  0  0
   -1.5600   -2.7438    1.7572 O   0  0  0  0  0  0  0  0  0  0  0  0
   -2.2870   -0.8898    0.7102 N   0  0  0  0  0  0  0  0  0  0  0  0
   -3.0820   -0.4218    0.2992 H   0  0  0  0  0  0  0  0  0  0  0  0
   -1.0240   -0.1468    0.7262 C   0  0  1  0  0  0  0  0  0  0  0  0
   -0.3583   -0.6100    1.4558 H   0  0  0  0  0  0  0  0  0  0  0  0
   -0.3739   -0.2459   -0.6675 C   0  0  0  0  0  0  0  0  0  0  0  0
   -1.1098    0.0553   -1.4159 H   0  0  0  0  0  0  0  0  0  0  0  0
    0.4687    0.4448   -0.7213 H   0  0  0  0  0  0  0  0  0  0  0  0
    0.1097   -1.6629   -1.0135 C   0  0  0  0  0  0  0  0  0  0  0  0
    0.8375   -1.9926   -0.2717 H   0  0  0  0  0  0  0  0  0  0  0  0
   -0.7425   -2.3449   -1.0059 H   0  0  0  0  0  0  0  0  0  0  0  0
    0.7677   -1.6938   -2.3977 C   0  0  0  0  0  0  0  0  0  0  0  0
    0.0536   -1.3587   -3.1505 H   0  0  0  0  0  0  0  0  0  0  0  0
    1.6342   -1.0319   -2.4032 H   0  0  0  0  0  0  0  0  0  0  0  0
    1.2163   -3.1164   -2.7267 C   0  0  0  0  0  0  0  0  0  0  0  0
    1.9435   -3.4464   -1.9866 H   0  0  0  0  0  0  0  0  0  0  0  0
    0.3549   -3.7820   -2.7042 H   0  0  0  0  0  0  0  0  0  0  0  0
    1.8304   -3.1864   -4.0576 N   0  0  0  0  0  0  0  0  0  0  0  0
    2.1266   -4.1349   -4.2355 H   0  0  0  0  0  0  0  0  0  0  0  0
    1.1497   -2.9117   -4.7515 H   0  0  0  0  0  0  0  0  0  0  0  0
   -1.2712    1.3099    1.1517 C   0  0  0  0  0  0  0  0  0  0  0  0
   -2.3406    1.8559    0.8886 O   0  0  0  0  0  0  0  0  0  0  0  0
   -0.2798    1.9349    1.7974 N   0  0  0  0  0  0  0  0  0  0  0  0
    0.5605    1.4143    1.9886 H   0  0  0  0  0  0  0  0  0  0  0  0
   -0.3503    3.3220    2.2541 C   0  0  0  0  0  0  0  0  0  0  0  0
   -1.2295    3.4577    2.8877 H   0  0  0  0  0  0  0  0  0  0  0  0
    0.5453    3.5811    2.8207 H   0  0  0  0  0  0  0  0  0  0  0  0
   -0.4384    3.9879    1.3932 H   0  0  0  0  0  0  0  0  0  0  0  0
  5  6  2  0  0  0  0
  5  7  1  0  0  0  0
  2  3  1  0  0  0  0
  2  4  1  0  0  0  0
  2  5  1  0  0  0  0
  1  2  1  0  0  0  0
 26 27  2  0  0  0  0
 26 28  1  0  0  0  0
 23 24  1  0  0  0  0
 23 25  1  0  0  0  0
 20 21  1  0  0  0  0
 20 22  1  0  0  0  0
 20 23  1  0  0  0  0
 17 18  1  0  0  0  0
 17 19  1  0  0  0  0
 17 20  1  0  0  0  0
 14 15  1  0  0  0  0
 14 16  1  0  0  0  0
 14 17  1  0  0  0  0
 11 12  1  0  0  0  0
 11 13  1  0  0  0  0
 11 14  1  0  0  0  0
  9 10  1  0  0  0  0
  9 11  1  0  0  0  0
  9 26  1  0  0  0  0
  7  8  1  0  0  0  0
  7  9  1  0  0  0  0
 30 31  1  0  0  0  0
 30 32  1  0  0  0  0
 30 33  1  0  0  0  0
 28 29  1  0  0  0  0
 28 30  1  0  0  0  0
M  END
$$$$
default_name
  -OEChem-01062215323D

 33 32  0     1  0  0  0  0  0999 V2000
   -3.8420   -3.6918    1.5562 H   0  0  0  0  0  0  0  0  0  0  0  0
   -3.8430   -2.7008    1.1032 C   0  0  0  0  0  0  0  0  0  0  0  0
   -4.5510   -2.0608    1.6242 H   0  0  0  0  0  0  0  0  0  0  0  0
   -4.1140   -2.7798    0.0522 H   0  0  0  0  0  0  0  0  0  0  0  0
   -2.4570   -2.1098    1.2172 C   0  0  0  0  0  0  0  0  0  0  0  0
   -1.5600   -2.7438    1.7572 O   0  0  0  0  0  0  0  0  0  0  0  0
   -2.2870   -0.8898    0.7102 N   0  0  0  0  0  0  0  0  0  0  0  0
   -3.0820   -0.4218    0.2992 H   0  0  0  0  0  0  0  0  0  0  0  0
   -1.0240   -0.1468    0.7262 C   0  0  1  0  0  0  0  0  0  0  0  0
   -0.3583   -0.6100    1.4558 H   0  0  0  0  0  0  0  0  0  0  0  0
   -0.3739   -0.2459   -0.6675 C   0  0  0  0  0  0  0  0  0  0  0  0
   -1.1098    0.0553   -1.4159 H   0  0  0  0  0  0  0  0  0  0  0  0
    0.4687    0.4448   -0.7213 H   0  0  0  0  0  0  0  0  0  0  0  0
    0.1097   -1.6629   -1.0135 C   0  0  0  0  0  0  0  0  0  0  0  0
    0.8375   -1.9926   -0.2717 H   0  0  0  0  0  0  0  0  0  0  0  0
   -0.7425   -2.3449   -1.0059 H   0  0  0  0  0  0  0  0  0  0  0  0
    0.7677   -1.6938   -2.3977 C   0  0  0  0  0  0  0  0  0  0  0  0
    0.0536   -1.3587   -3.1505 H   0  0  0  0  0  0  0  0  0  0  0  0
    1.6342   -1.0319   -2.4032 H   0  0  0  0  0  0  0  0  0  0  0  0
    1.2163   -3.1164   -2.7267 C   0  0  0  0  0  0  0  0  0  0  0  0
    1.9435   -3.4464   -1.9866 H   0  0  0  0  0  0  0  0  0  0  0  0
    0.3549   -3.7820   -2.7042 H   0  0  0  0  0  0  0  0  0  0  0  0
    1.8304   -3.1864   -4.0576 N   0  0  0  0  0  0  0  0  0  0  0  0
    2.1266   -4.1349   -4.2355 H   0  0  0  0  0  0  0  0  0  0  0  0
    1.1497   -2.9117   -4.7515 H   0  0  0  0  0  0  0  0  0  0  0  0
   -1.2712    1.3099    1.1517 C   0  0  0  0  0  0  0  0  0  0  0  0
   -2.4112    1.7697    1.1429 O   0  0  0  0  0  0  0  0  0  0  0  0
   -0.2034    2.0312    1.5121 N   0  0  0  0  0  0  0  0  0  0  0  0
    0.6956    1.5779    1.5069 H   0  0  0  0  0  0  0  0  0  0  0  0
   -0.2668    3.4319    1.9264 C   0  0  0  0  0  0  0  0  0  0  0  0
   -0.9728    3.5407    2.7526 H   0  0  0  0  0  0  0  0  0  0  0  0
    0.7172    3.7782    2.2458 H   0  0  0  0  0  0  0  0  0  0  0  0
   -0.6129    4.0461    1.0925 H   0  0  0  0  0  0  0  0  0  0  0  0
  5  6  2  0  0  0  0
  5  7  1  0  0  0  0
  2  3  1  0  0  0  0
  2  4  1  0  0  0  0
  2  5  1  0  0  0  0
  1  2  1  0  0  0  0
 26 27  2  0  0  0  0
 26 28  1  0  0  0  0
 23 24  1  0  0  0  0
 23 25  1  0  0  0  0
 20 21  1  0  0  0  0
 20 22  1  0  0  0  0
 20 23  1  0  0  0  0
 17 18  1  0  0  0  0
 17 19  1  0  0  0  0
 17 20  1  0  0  0  0
 14 15  1  0  0  0  0
 14 16  1  0  0  0  0
 14 17  1  0  0  0  0
 11 12  1  0  0  0  0
 11 13  1  0  0  0  0
 11 14  1  0  0  0  0
  9 10  1  0  0  0  0
  9 11  1  0  0  0  0
  9 26  1  0  0  0  0
  7  8  1  0  0  0  0
  7  9  1  0  0  0  0
 30 31  1  0  0  0  0
 30 32  1  0  0  0  0
 30 33  1  0  0  0  0
 28 29  1  0  0  0  0
 28 30  1  0  0  0  0
M  END
$$$$
default_name
  -OEChem-01062215323D

 33 32  0     1  0  0  0  0  0999 V2000
   -3.8420   -3.6918    1.5562 H   0  0  0  0  0  0  0  0  0  0  0  0
   -3.8430   -2.7008    1.1032 C   0  0  0  0  0  0  0  0  0  0  0  0
   -4.5510   -2.0608    1.6242 H   0  0  0  0  0  0  0  0  0  0  0  0
   -4.1140   -2.7798    0.0522 H   0  0  0  0  0  0  0  0  0  0  0  0
   -2.4570   -2.1098    1.2172 C   0  0  0  0  0  0  0  0  0  0  0  0
   -1.5600   -2.7438    1.7572 O   0  0  0  0  0  0  0  0  0  0  0  0
   -2.2870   -0.8898    0.7102 N   0  0  0  0  0  0  0  0  0  0  0  0
   -3.0820   -0.4218    0.2992 H   0  0  0  0  0  0  0  0  0  0  0  0
   -1.0240   -0.1468    0.7262 C   0  0  1  0  0  0  0  0  0  0  0  0
   -0.2737   -0.7491    1.2404 H   0  0  0  0  0  0  0  0  0  0  0  0
   -0.5641    0.0787   -0.7272 C   0  0  0  0  0  0  0  0  0  0  0  0
   -1.3884    0.5261   -1.2866 H   0  0  0  0  0  0  0  0  0  0  0  0
    0.2724    0.7789   -0.7353 H   0  0  0  0  0  0  0  0  0  0  0  0
   -0.1474   -1.2166   -1.4411 C   0  0  0  0  0  0  0  0  0  0  0  0
    0.6677   -1.6905   -0.8934 H   0  0  0  0  0  0  0  0  0  0  0  0
   -0.9994   -1.8982   -1.4745 H   0  0  0  0  0  0  0  0  0  0  0  0
    0.3224   -0.9267   -2.8712 C   0  0  0  0  0  0  0  0  0  0  0  0
   -0.4804   -0.4449   -3.4301 H   0  0  0  0  0  0  0  0  0  0  0  0
    1.1886   -0.2650   -2.8422 H   0  0  0  0  0  0  0  0  0  0  0  0
    0.7066   -2.2319   -3.5653 C   0  0  0  0  0  0  0  0  0  0  0  0
    1.5208   -2.7057   -3.0193 H   0  0  0  0  0  0  0  0  0  0  0  0
   -0.1523   -2.9009   -3.5794 H   0  0  0  0  0  0  0  0  0  0  0  0
    1.1395   -1.9927   -4.9469 N   0  0  0  0  0  0  0  0  0  0  0  0
    1.3982   -2.8723   -5.3693 H   0  0  0  0  0  0  0  0  0  0  0  0
    0.3768   -1.5824   -5.4667 H   0  0  0  0  0  0  0  0  0  0  0  0
   -1.1955    1.1738    1.4947 C   0  0  0  0  0  0  0  0  0  0  0  0
   -2.2866    1.4686    1.9781 O   0  0  0  0  0  0  0  0  0  0  0  0
   -0.1221    1.9663    1.5956 N   0  0  0  0  0  0  0  0  0  0  0  0
    0.7401    1.6473    1.1852 H   0  0  0  0  0  0  0  0  0  0  0  0
   -0.1235    3.2592    2.2784 C   0  0  0  0  0  0  0  0  0  0  0  0
   -0.4800    3.1349    3.3033 H   0  0  0  0  0  0  0  0  0  0  0  0
    0.8826    3.6805    2.2958 H   0  0  0  0  0  0  0  0  0  0  0  0
   -0.7945    3.9473    1.7601 H   0  0  0  0  0  0  0  0  0  0  0  0
  5  6  2  0  0  0  0
  5  7  1  0  0  0  0
  2  3  1  0  0  0  0
  2  4  1  0  0  0  0
  2  5  1  0  0  0  0
  1  2  1  0  0  0  0
 26 27  2  0  0  0  0
 26 28  1  0  0  0  0
 23 24  1  0  0  0  0
 23 25  1  0  0  0  0
 20 21  1  0  0  0  0
 20 22  1  0  0  0  0
 20 23  1  0  0  0  0
 17 18  1  0  0  0  0
 17 19  1  0  0  0  0
 17 20  1  0  0  0  0
 14 15  1  0  0  0  0
 14 16  1  0  0  0  0
 14 17  1  0  0  0  0
 11 12  1  0  0  0  0
 11 13  1  0  0  0  0
 11 14  1  0  0  0  0
  9 10  1  0  0  0  0
  9 11  1  0  0  0  0
  9 26  1  0  0  0  0
  7  8  1  0  0  0  0
  7  9  1  0  0  0  0
 30 31  1  0  0  0  0
 30 32  1  0  0  0  0
 30 33  1  0  0  0  0
 28 29  1  0  0  0  0
 28 30  1  0  0  0  0
M  END
$$$$
default_name
  -OEChem-01062215323D

 33 32  0     1  0  0  0  0  0999 V2000
   -3.8420   -3.6918    1.5562 H   0  0  0  0  0  0  0  0  0  0  0  0
   -3.8430   -2.7008    1.1032 C   0  0  0  0  0  0  0  0  0  0  0  0
   -4.5510   -2.0608    1.6242 H   0  0  0  0  0  0  0  0  0  0  0  0
   -4.1140   -2.7798    0.0522 H   0  0  0  0  0  0  0  0  0  0  0  0
   -2.4570   -2.1098    1.2172 C   0  0  0  0  0  0  0  0  0  0  0  0
   -1.5600   -2.7438    1.7572 O   0  0  0  0  0  0  0  0  0  0  0  0
   -2.2870   -0.8898    0.7102 N   0  0  0  0  0  0  0  0  0  0  0  0
   -3.0820   -0.4218    0.2992 H   0  0  0  0  0  0  0  0  0  0  0  0
   -1.0240   -0.1468    0.7262 C   0  0  1  0  0  0  0  0  0  0  0  0
   -0.2737   -0.7491    1.2404 H   0  0  0  0  0  0  0  0  0  0  0  0
   -0.5641    0.0787   -0.7272 C   0  0  0  0  0  0  0  0  0  0  0  0
   -1.3884    0.5261   -1.2866 H   0  0  0  0  0  0  0  0  0  0  0  0
    0.2724    0.7789   -0.7353 H   0  0  0  0  0  0  0  0  0  0  0  0
   -0.1474   -1.2166   -1.4411 C   0  0  0  0  0  0  0  0  0  0  0  0
    0.6677   -1.6905   -0.8934 H   0  0  0  0  0  0  0  0  0  0  0  0
   -0.9994   -1.8982   -1.4745 H   0  0  0  0  0  0  0  0  0  0  0  0
    0.3224   -0.9267   -2.8712 C   0  0  0  0  0  0  0  0  0  0  0  0
   -0.4804   -0.4449   -3.4301 H   0  0  0  0  0  0  0  0  0  0  0  0
    1.1886   -0.2650   -2.8422 H   0  0  0  0  0  0  0  0  0  0  0  0
    0.7066   -2.2319   -3.5653 C   0  0  0  0  0  0  0  0  0  0  0  0
    1.5208   -2.7057   -3.0193 H   0  0  0  0  0  0  0  0  0  0  0  0
   -0.1523   -2.9009   -3.5794 H   0  0  0  0  0  0  0  0  0  0  0  0
    1.1395   -1.9927   -4.9469 N   0  0  0  0  0  0  0  0  0  0  0  0
    1.3982   -2.8723   -5.3693 H   0  0  0  0  0  0  0  0  0  0  0  0
    0.3768   -1.5824   -5.4667 H   0  0  0  0  0  0  0  0  0  0  0  0
   -1.1955    1.1738    1.4947 C   0  0  0  0  0  0  0  0  0  0  0  0
   -2.1824    1.3494    2.2062 O   0  0  0  0  0  0  0  0  0  0  0  0
   -0.2411    2.0990    1.3411 N   0  0  0  0  0  0  0  0  0  0  0  0
    0.5439    1.8737    0.7524 H   0  0  0  0  0  0  0  0  0  0  0  0
   -0.2635    3.4098    1.9883 C   0  0  0  0  0  0  0  0  0  0  0  0
   -0.3655    3.2863    3.0687 H   0  0  0  0  0  0  0  0  0  0  0  0
    0.6568    3.9550    1.7736 H   0  0  0  0  0  0  0  0  0  0  0  0
   -1.1174    3.9847    1.6239 H   0  0  0  0  0  0  0  0  0  0  0  0
  5  6  2  0  0  0  0
  5  7  1  0  0  0  0
  2  3  1  0  0  0  0
  2  4  1  0  0  0  0
  2  5  1  0  0  0  0
  1  2  1  0  0  0  0
 26 27  2  0  0  0  0
 26 28  1  0  0  0  0
 23 24  1  0  0  0  0
 23 25  1  0  0  0  0
 20 21  1  0  0  0  0
 20 22  1  0  0  0  0
 20 23  1  0  0  0  0
 17 18  1  0  0  0  0
 17 19  1  0  0  0  0
 17 20  1  0  0  0  0
 14 15  1  0  0  0  0
 14 16  1  0  0  0  0
 14 17  1  0  0  0  0
 11 12  1  0  0  0  0
 11 13  1  0  0  0  0
 11 14  1  0  0  0  0
  9 10  1  0  0  0  0
  9 11  1  0  0  0  0
  9 26  1  0  0  0  0
  7  8  1  0  0  0  0
  7  9  1  0  0  0  0
 30 31  1  0  0  0  0
 30 32  1  0  0  0  0
 30 33  1  0  0  0  0
 28 29  1  0  0  0  0
 28 30  1  0  0  0  0
M  END
$$$$
default_name
  -OEChem-01062215323D

 33 32  0     1  0  0  0  0  0999 V2000
   -3.8420   -3.6918    1.5562 H   0  0  0  0  0  0  0  0  0  0  0  0
   -3.8430   -2.7008    1.1032 C   0  0  0  0  0  0  0  0  0  0  0  0
   -4.5510   -2.0608    1.6242 H   0  0  0  0  0  0  0  0  0  0  0  0
   -4.1140   -2.7798    0.0522 H   0  0  0  0  0  0  0  0  0  0  0  0
   -2.4570   -2.1098    1.2172 C   0  0  0  0  0  0  0  0  0  0  0  0
   -1.5600   -2.7438    1.7572 O   0  0  0  0  0  0  0  0  0  0  0  0
   -2.2870   -0.8898    0.7102 N   0  0  0  0  0  0  0  0  0  0  0  0
   -3.0820   -0.4218    0.2992 H   0  0  0  0  0  0  0  0  0  0  0  0
   -1.0240   -0.1468    0.7262 C   0  0  1  0  0  0  0  0  0  0  0  0
   -0.2737   -0.7491    1.2404 H   0  0  0  0  0  0  0  0  0  0  0  0
   -0.5641    0.0787   -0.7272 C   0  0  0  0  0  0  0  0  0  0  0  0
   -1.3884    0.5261   -1.2866 H   0  0  0  0  0  0  0  0  0  0  0  0
    0.2724    0.7789   -0.7353 H   0  0  0  0  0  0  0  0  0  0  0  0
   -0.1474   -1.2166   -1.4411 C   0  0  0  0  0  0  0  0  0  0  0  0
    0.6677   -1.6905   -0.8934 H   0  0  0  0  0  0  0  0  0  0  0  0
   -0.9994   -1.8982   -1.4745 H   0  0  0  0  0  0  0  0  0  0  0  0
    0.3224   -0.9267   -2.8712 C   0  0  0  0  0  0  0  0  0  0  0  0
   -0.4804   -0.4449   -3.4301 H   0  0  0  0  0  0  0  0  0  0  0  0
    1.1886   -0.2650   -2.8422 H   0  0  0  0  0  0  0  0  0  0  0  0
    0.7066   -2.2319   -3.5653 C   0  0  0  0  0  0  0  0  0  0  0  0
    1.5208   -2.7057   -3.0193 H   0  0  0  0  0  0  0  0  0  0  0  0
   -0.1523   -2.9009   -3.5794 H   0  0  0  0  0  0  0  0  0  0  0  0
    1.1395   -1.9927   -4.9469 N   0  0  0  0  0  0  0  0  0  0  0  0
    1.3982   -2.8723   -5.3693 H   0  0  0  0  0  0  0  0  0  0  0  0
    0.3768   -1.5824   -5.4667 H   0  0  0  0  0  0  0  0  0  0  0  0
   -1.1955    1.1738    1.4947 C   0  0  0  0  0  0  0  0  0  0  0  0
   -2.0157    1.2543    2.4068 O   0  0  0  0  0  0  0  0  0  0  0  0
   -0.4298    2.2044    1.1179 N   0  0  0  0  0  0  0  0  0  0  0  0
    0.2289    2.0545    0.3714 H   0  0  0  0  0  0  0  0  0  0  0  0
   -0.4826    3.5289    1.7349 C   0  0  0  0  0  0  0  0  0  0  0  0
   -0.3267    3.4405    2.8123 H   0  0  0  0  0  0  0  0  0  0  0  0
    0.2870    4.1759    1.3116 H   0  0  0  0  0  0  0  0  0  0  0  0
   -1.4644    3.9750    1.5630 H   0  0  0  0  0  0  0  0  0  0  0  0
  5  6  2  0  0  0  0
  5  7  1  0  0  0  0
  2  3  1  0  0  0  0
  2  4  1  0  0  0  0
  2  5  1  0  0  0  0
  1  2  1  0  0  0  0
 26 27  2  0  0  0  0
 26 28  1  0  0  0  0
 23 24  1  0  0  0  0
 23 25  1  0  0  0  0
 20 21  1  0  0  0  0
 20 22  1  0  0  0  0
 20 23  1  0  0  0  0
 17 18  1  0  0  0  0
 17 19  1  0  0  0  0
 17 20  1  0  0  0  0
 14 15  1  0  0  0  0
 14 16  1  0  0  0  0
 14 17  1  0  0  0  0
 11 12  1  0  0  0  0
 11 13  1  0  0  0  0
 11 14  1  0  0  0  0
  9 10  1  0  0  0  0
  9 11  1  0  0  0  0
  9 26  1  0  0  0  0
  7  8  1  0  0  0  0
  7  9  1  0  0  0  0
 30 31  1  0  0  0  0
 30 32  1  0  0  0  0
 30 33  1  0  0  0  0
 28 29  1  0  0  0  0
 28 30  1  0  0  0  0
M  END
$$$$
default_name
  -OEChem-01062215323D

 33 32  0     1  0  0  0  0  0999 V2000
   -3.8420   -3.6918    1.5562 H   0  0  0  0  0  0  0  0  0  0  0  0
   -3.8430   -2.7008    1.1032 C   0  0  0  0  0  0  0  0  0  0  0  0
   -4.5510   -2.0608    1.6242 H   0  0  0  0  0  0  0  0  0  0  0  0
   -4.1140   -2.7798    0.0522 H   0  0  0  0  0  0  0  0  0  0  0  0
   -2.4570   -2.1098    1.2172 C   0  0  0  0  0  0  0  0  0  0  0  0
   -1.5600   -2.7438    1.7572 O   0  0  0  0  0  0  0  0  0  0  0  0
   -2.2870   -0.8898    0.7102 N   0  0  0  0  0  0  0  0  0  0  0  0
   -3.0820   -0.4218    0.2992 H   0  0  0  0  0  0  0  0  0  0  0  0
   -1.0240   -0.1468    0.7262 C   0  0  1  0  0  0  0  0  0  0  0  0
   -0.2737   -0.7491    1.2404 H   0  0  0  0  0  0  0  0  0  0  0  0
   -0.5641    0.0787   -0.7272 C   0  0  0  0  0  0  0  0  0  0  0  0
   -1.3884    0.5261   -1.2866 H   0  0  0  0  0  0  0  0  0  0  0  0
    0.2724    0.7789   -0.7353 H   0  0  0  0  0  0  0  0  0  0  0  0
   -0.1474   -1.2166   -1.4411 C   0  0  0  0  0  0  0  0  0  0  0  0
    0.6677   -1.6905   -0.8934 H   0  0  0  0  0  0  0  0  0  0  0  0
   -0.9994   -1.8982   -1.4745 H   0  0  0  0  0  0  0  0  0  0  0  0
    0.3224   -0.9267   -2.8712 C   0  0  0  0  0  0  0  0  0  0  0  0
   -0.4804   -0.4449   -3.4301 H   0  0  0  0  0  0  0  0  0  0  0  0
    1.1886   -0.2650   -2.8422 H   0  0  0  0  0  0  0  0  0  0  0  0
    0.7066   -2.2319   -3.5653 C   0  0  0  0  0  0  0  0  0  0  0  0
    1.5208   -2.7057   -3.0193 H   0  0  0  0  0  0  0  0  0  0  0  0
   -0.1523   -2.9009   -3.5794 H   0  0  0  0  0  0  0  0  0  0  0  0
    1.1395   -1.9927   -4.9469 N   0  0  0  0  0  0  0  0  0  0  0  0
    1.3982   -2.8723   -5.3693 H   0  0  0  0  0  0  0  0  0  0  0  0
    0.3768   -1.5824   -5.4667 H   0  0  0  0  0  0  0  0  0  0  0  0
   -1.1955    1.1738    1.4947 C   0  0  0  0  0  0  0  0  0  0  0  0
   -1.7978    1.1898    2.5662 O   0  0  0  0  0  0  0  0  0  0  0  0
   -0.6753    2.2753    0.9412 N   0  0  0  0  0  0  0  0  0  0  0  0
   -0.1834    2.1774    0.0682 H   0  0  0  0  0  0  0  0  0  0  0  0
   -0.7661    3.6082    1.5354 C   0  0  0  0  0  0  0  0  0  0  0  0
   -0.3662    3.5871    2.5516 H   0  0  0  0  0  0  0  0  0  0  0  0
   -0.2014    4.3280    0.9411 H   0  0  0  0  0  0  0  0  0  0  0  0
   -1.8118    3.9190    1.5816 H   0  0  0  0  0  0  0  0  0  0  0  0
  5  6  2  0  0  0  0
  5  7  1  0  0  0  0
  2  3  1  0  0  0  0
  2  4  1  0  0  0  0
  2  5  1  0  0  0  0
  1  2  1  0  0  0  0
 26 27  2  0  0  0  0
 26 28  1  0  0  0  0
 23 24  1  0  0  0  0
 23 25  1  0  0  0  0
 20 21  1  0  0  0  0
 20 22  1  0  0  0  0
 20 23  1  0  0  0  0
 17 18  1  0  0  0  0
 17 19  1  0  0  0  0
 17 20  1  0  0  0  0
 14 15  1  0  0  0  0
 14 16  1  0  0  0  0
 14 17  1  0  0  0  0
 11 12  1  0  0  0  0
 11 13  1  0  0  0  0
 11 14  1  0  0  0  0
  9 10  1  0  0  0  0
  9 11  1  0  0  0  0
  9 26  1  0  0  0  0
  7  8  1  0  0  0  0
  7  9  1  0  0  0  0
 30 31  1  0  0  0  0
 30 32  1  0  0  0  0
 30 33  1  0  0  0  0
 28 29  1  0  0  0  0
 28 30  1  0  0  0  0
M  END
$$$$
default_name
  -OEChem-01062215323D

 33 32  0     1  0  0  0  0  0999 V2000
   -3.8420   -3.6918    1.5562 H   0  0  0  0  0  0  0  0  0  0  0  0
   -3.8430   -2.7008    1.1032 C   0  0  0  0  0  0  0  0  0  0  0  0
   -4.5510   -2.0608    1.6242 H   0  0  0  0  0  0  0  0  0  0  0  0
   -4.1140   -2.7798    0.0522 H   0  0  0  0  0  0  0  0  0  0  0  0
   -2.4570   -2.1098    1.2172 C   0  0  0  0  0  0  0  0  0  0  0  0
   -1.5600   -2.7438    1.7572 O   0  0  0  0  0  0  0  0  0  0  0  0
   -2.2870   -0.8898    0.7102 N   0  0  0  0  0  0  0  0  0  0  0  0
   -3.0820   -0.4218    0.2992 H   0  0  0  0  0  0  0  0  0  0  0  0
   -1.0240   -0.1468    0.7262 C   0  0  1  0  0  0  0  0  0  0  0  0
   -0.2737   -0.7491    1.2404 H   0  0  0  0  0  0  0  0  0  0  0  0
   -0.5641    0.0787   -0.7272 C   0  0  0  0  0  0  0  0  0  0  0  0
   -1.3884    0.5261   -1.2866 H   0  0  0  0  0  0  0  0  0  0  0  0
    0.2724    0.7789   -0.7353 H   0  0  0  0  0  0  0  0  0  0  0  0
   -0.1474   -1.2166   -1.4411 C   0  0  0  0  0  0  0  0  0  0  0  0
    0.6677   -1.6905   -0.8934 H   0  0  0  0  0  0  0  0  0  0  0  0
   -0.9994   -1.8982   -1.4745 H   0  0  0  0  0  0  0  0  0  0  0  0
    0.3224   -0.9267   -2.8712 C   0  0  0  0  0  0  0  0  0  0  0  0
   -0.4804   -0.4449   -3.4301 H   0  0  0  0  0  0  0  0  0  0  0  0
    1.1886   -0.2650   -2.8422 H   0  0  0  0  0  0  0  0  0  0  0  0
    0.7066   -2.2319   -3.5653 C   0  0  0  0  0  0  0  0  0  0  0  0
    1.5208   -2.7057   -3.0193 H   0  0  0  0  0  0  0  0  0  0  0  0
   -0.1523   -2.9009   -3.5794 H   0  0  0  0  0  0  0  0  0  0  0  0
    1.1395   -1.9927   -4.9469 N   0  0  0  0  0  0  0  0  0  0  0  0
    1.3982   -2.8723   -5.3693 H   0  0  0  0  0  0  0  0  0  0  0  0
    0.3768   -1.5824   -5.4667 H   0  0  0  0  0  0  0  0  0  0  0  0
   -1.1955    1.1738    1.4947 C   0  0  0  0  0  0  0  0  0  0  0  0
   -1.5435    1.1603    2.6736 O   0  0  0  0  0  0  0  0  0  0  0  0
   -0.9609    2.3070    0.8230 N   0  0  0  0  0  0  0  0  0  0  0  0
   -0.6650    2.2340   -0.1365 H   0  0  0  0  0  0  0  0  0  0  0  0
   -1.0944    3.6423    1.4034 C   0  0  0  0  0  0  0  0  0  0  0  0
   -0.4813    3.7161    2.3042 H   0  0  0  0  0  0  0  0  0  0  0  0
   -0.7752    4.4011    0.6875 H   0  0  0  0  0  0  0  0  0  0  0  0
   -2.1360    3.8206    1.6785 H   0  0  0  0  0  0  0  0  0  0  0  0
  5  6  2  0  0  0  0
  5  7  1  0  0  0  0
  2  3  1  0  0  0  0
  2  4  1  0  0  0  0
  2  5  1  0  0  0  0
  1  2  1  0  0  0  0
 26 27  2  0  0  0  0
 26 28  1  0  0  0  0
 23 24  1  0  0  0  0
 23 25  1  0  0  0  0
 20 21  1  0  0  0  0
 20 22  1  0  0  0  0
 20 23  1  0  0  0  0
 17 18  1  0  0  0  0
 17 19  1  0  0  0  0
 17 20  1  0  0  0  0
 14 15  1  0  0  0  0
 14 16  1  0  0  0  0
 14 17  1  0  0  0  0
 11 12  1  0  0  0  0
 11 13  1  0  0  0  0
 11 14  1  0  0  0  0
  9 10  1  0  0  0  0
  9 11  1  0  0  0  0
  9 26  1  0  0  0  0
  7  8  1  0  0  0  0
  7  9  1  0  0  0  0
 30 31  1  0  0  0  0
 30 32  1  0  0  0  0
 30 33  1  0  0  0  0
 28 29  1  0  0  0  0
 28 30  1  0  0  0  0
M  END
$$$$
default_name
  -OEChem-01062215323D

 33 32  0     1  0  0  0  0  0999 V2000
   -3.8420   -3.6918    1.5562 H   0  0  0  0  0  0  0  0  0  0  0  0
   -3.8430   -2.7008    1.1032 C   0  0  0  0  0  0  0  0  0  0  0  0
   -4.5510   -2.0608    1.6242 H   0  0  0  0  0  0  0  0  0  0  0  0
   -4.1140   -2.7798    0.0522 H   0  0  0  0  0  0  0  0  0  0  0  0
   -2.4570   -2.1098    1.2172 C   0  0  0  0  0  0  0  0  0  0  0  0
   -1.5600   -2.7438    1.7572 O   0  0  0  0  0  0  0  0  0  0  0  0
   -2.2870   -0.8898    0.7102 N   0  0  0  0  0  0  0  0  0  0  0  0
   -3.0820   -0.4218    0.2992 H   0  0  0  0  0  0  0  0  0  0  0  0
   -1.0240   -0.1468    0.7262 C   0  0  1  0  0  0  0  0  0  0  0  0
   -0.2737   -0.7491    1.2404 H   0  0  0  0  0  0  0  0  0  0  0  0
   -0.5641    0.0787   -0.7272 C   0  0  0  0  0  0  0  0  0  0  0  0
   -1.3884    0.5261   -1.2866 H   0  0  0  0  0  0  0  0  0  0  0  0
    0.2724    0.7789   -0.7353 H   0  0  0  0  0  0  0  0  0  0  0  0
   -0.1474   -1.2166   -1.4411 C   0  0  0  0  0  0  0  0  0  0  0  0
    0.6677   -1.6905   -0.8934 H   0  0  0  0  0  0  0  0  0  0  0  0
   -0.9994   -1.8982   -1.4745 H   0  0  0  0  0  0  0  0  0  0  0  0
    0.3224   -0.9267   -2.8712 C   0  0  0  0  0  0  0  0  0  0  0  0
   -0.4804   -0.4449   -3.4301 H   0  0  0  0  0  0  0  0  0  0  0  0
    1.1886   -0.2650   -2.8422 H   0  0  0  0  0  0  0  0  0  0  0  0
    0.7066   -2.2319   -3.5653 C   0  0  0  0  0  0  0  0  0  0  0  0
    1.5208   -2.7057   -3.0193 H   0  0  0  0  0  0  0  0  0  0  0  0
   -0.1523   -2.9009   -3.5794 H   0  0  0  0  0  0  0  0  0  0  0  0
    1.1395   -1.9927   -4.9469 N   0  0  0  0  0  0  0  0  0  0  0  0
    1.3982   -2.8723   -5.3693 H   0  0  0  0  0  0  0  0  0  0  0  0
    0.3768   -1.5824   -5.4667 H   0  0  0  0  0  0  0  0  0  0  0  0
   -1.1955    1.1738    1.4947 C   0  0  0  0  0  0  0  0  0  0  0  0
   -1.2702    1.1679    2.7217 O   0  0  0  0  0  0  0  0  0  0  0  0
   -1.2672    2.2973    0.7714 N   0  0  0  0  0  0  0  0  0  0  0  0
   -1.1829    2.2204   -0.2289 H   0  0  0  0  0  0  0  0  0  0  0  0
   -1.4454    3.6291    1.3479 C   0  0  0  0  0  0  0  0  0  0  0  0
   -0.6641    3.8187    2.0872 H   0  0  0  0  0  0  0  0  0  0  0  0
   -1.3953    4.3902    0.5679 H   0  0  0  0  0  0  0  0  0  0  0  0
   -2.4150    3.6863    1.8469 H   0  0  0  0  0  0  0  0  0  0  0  0
  5  6  2  0  0  0  0
  5  7  1  0  0  0  0
  2  3  1  0  0  0  0
  2  4  1  0  0  0  0
  2  5  1  0  0  0  0
  1  2  1  0  0  0  0
 26 27  2  0  0  0  0
 26 28  1  0  0  0  0
 23 24  1  0  0  0  0
 23 25  1  0  0  0  0
 20 21  1  0  0  0  0
 20 22  1  0  0  0  0
 20 23  1  0  0  0  0
 17 18  1  0  0  0  0
 17 19  1  0  0  0  0
 17 20  1  0  0  0  0
 14 15  1  0  0  0  0
 14 16  1  0  0  0  0
 14 17  1  0  0  0  0
 11 12  1  0  0  0  0
 11 13  1  0  0  0  0
 11 14  1  0  0  0  0
  9 10  1  0  0  0  0
  9 11  1  0  0  0  0
  9 26  1  0  0  0  0
  7  8  1  0  0  0  0
  7  9  1  0  0  0  0
 30 31  1  0  0  0  0
 30 32  1  0  0  0  0
 30 33  1  0  0  0  0
 28 29  1  0  0  0  0
 28 30  1  0  0  0  0
M  END
$$$$
default_name
  -OEChem-01062215323D

 33 32  0     1  0  0  0  0  0999 V2000
   -3.8420   -3.6918    1.5562 H   0  0  0  0  0  0  0  0  0  0  0  0
   -3.8430   -2.7008    1.1032 C   0  0  0  0  0  0  0  0  0  0  0  0
   -4.5510   -2.0608    1.6242 H   0  0  0  0  0  0  0  0  0  0  0  0
   -4.1140   -2.7798    0.0522 H   0  0  0  0  0  0  0  0  0  0  0  0
   -2.4570   -2.1098    1.2172 C   0  0  0  0  0  0  0  0  0  0  0  0
   -1.5600   -2.7438    1.7572 O   0  0  0  0  0  0  0  0  0  0  0  0
   -2.2870   -0.8898    0.7102 N   0  0  0  0  0  0  0  0  0  0  0  0
   -3.0820   -0.4218    0.2992 H   0  0  0  0  0  0  0  0  0  0  0  0
   -1.0240   -0.1468    0.7262 C   0  0  1  0  0  0  0  0  0  0  0  0
   -0.2737   -0.7491    1.2404 H   0  0  0  0  0  0  0  0  0  0  0  0
   -0.5641    0.0787   -0.7272 C   0  0  0  0  0  0  0  0  0  0  0  0
   -1.3884    0.5261   -1.2866 H   0  0  0  0  0  0  0  0  0  0  0  0
    0.2724    0.7789   -0.7353 H   0  0  0  0  0  0  0  0  0  0  0  0
   -0.1474   -1.2166   -1.4411 C   0  0  0  0  0  0  0  0  0  0  0  0
    0.6677   -1.6905   -0.8934 H   0  0  0  0  0  0  0  0  0  0  0  0
   -0.9994   -1.8982   -1.4745 H   0  0  0  0  0  0  0  0  0  0  0  0
    0.3224   -0.9267   -2.8712 C   0  0  0  0  0  0  0  0  0  0  0  0
   -0.4804   -0.4449   -3.4301 H   0  0  0  0  0  0  0  0  0  0  0  0
    1.1886   -0.2650   -2.8422 H   0  0  0  0  0  0  0  0  0  0  0  0
    0.7066   -2.2319   -3.5653 C   0  0  0  0  0  0  0  0  0  0  0  0
    1.5208   -2.7057   -3.0193 H   0  0  0  0  0  0  0  0  0  0  0  0
   -0.1523   -2.9009   -3.5794 H   0  0  0  0  0  0  0  0  0  0  0  0
    1.1395   -1.9927   -4.9469 N   0  0  0  0  0  0  0  0  0  0  0  0
    1.3982   -2.8723   -5.3693 H   0  0  0  0  0  0  0  0  0  0  0  0
    0.3768   -1.5824   -5.4667 H   0  0  0  0  0  0  0  0  0  0  0  0
   -1.1955    1.1738    1.4947 C   0  0  0  0  0  0  0  0  0  0  0  0
   -0.9965    1.2119    2.7071 O   0  0  0  0  0  0  0  0  0  0  0  0
   -1.5732    2.2467    0.7900 N   0  0  0  0  0  0  0  0  0  0  0  0
   -1.7021    2.1377   -0.2026 H   0  0  0  0  0  0  0  0  0  0  0  0
   -1.7950    3.5692    1.3727 C   0  0  0  0  0  0  0  0  0  0  0  0
   -0.9022    3.8878    1.9152 H   0  0  0  0  0  0  0  0  0  0  0  0
   -2.0195    4.2959    0.5906 H   0  0  0  0  0  0  0  0  0  0  0  0
   -2.6295    3.5254    2.0755 H   0  0  0  0  0  0  0  0  0  0  0  0
  5  6  2  0  0  0  0
  5  7  1  0  0  0  0
  2  3  1  0  0  0  0
  2  4  1  0  0  0  0
  2  5  1  0  0  0  0
  1  2  1  0  0  0  0
 26 27  2  0  0  0  0
 26 28  1  0  0  0  0
 23 24  1  0  0  0  0
 23 25  1  0  0  0  0
 20 21  1  0  0  0  0
 20 22  1  0  0  0  0
 20 23  1  0  0  0  0
 17 18  1  0  0  0  0
 17 19  1  0  0  0  0
 17 20  1  0  0  0  0
 14 15  1  0  0  0  0
 14 16  1  0  0  0  0
 14 17  1  0  0  0  0
 11 12  1  0  0  0  0
 11 13  1  0  0  0  0
 11 14  1  0  0  0  0
  9 10  1  0  0  0  0
  9 11  1  0  0  0  0
  9 26  1  0  0  0  0
  7  8  1  0  0  0  0
  7  9  1  0  0  0  0
 30 31  1  0  0  0  0
 30 32  1  0  0  0  0
 30 33  1  0  0  0  0
 28 29  1  0  0  0  0
 28 30  1  0  0  0  0
M  END
$$$$
default_name
  -OEChem-01062215323D

 33 32  0     1  0  0  0  0  0999 V2000
   -3.8420   -3.6918    1.5562 H   0  0  0  0  0  0  0  0  0  0  0  0
   -3.8430   -2.7008    1.1032 C   0  0  0  0  0  0  0  0  0  0  0  0
   -4.5510   -2.0608    1.6242 H   0  0  0  0  0  0  0  0  0  0  0  0
   -4.1140   -2.7798    0.0522 H   0  0  0  0  0  0  0  0  0  0  0  0
   -2.4570   -2.1098    1.2172 C   0  0  0  0  0  0  0  0  0  0  0  0
   -1.5600   -2.7438    1.7572 O   0  0  0  0  0  0  0  0  0  0  0  0
   -2.2870   -0.8898    0.7102 N   0  0  0  0  0  0  0  0  0  0  0  0
   -3.0820   -0.4218    0.2992 H   0  0  0  0  0  0  0  0  0  0  0  0
   -1.0240   -0.1468    0.7262 C   0  0  1  0  0  0  0  0  0  0  0  0
   -0.2737   -0.7491    1.2404 H   0  0  0  0  0  0  0  0  0  0  0  0
   -0.5641    0.0787   -0.7272 C   0  0  0  0  0  0  0  0  0  0  0  0
   -1.3884    0.5261   -1.2866 H   0  0  0  0  0  0  0  0  0  0  0  0
    0.2724    0.7789   -0.7353 H   0  0  0  0  0  0  0  0  0  0  0  0
   -0.1474   -1.2166   -1.4411 C   0  0  0  0  0  0  0  0  0  0  0  0
    0.6677   -1.6905   -0.8934 H   0  0  0  0  0  0  0  0  0  0  0  0
   -0.9994   -1.8982   -1.4745 H   0  0  0  0  0  0  0  0  0  0  0  0
    0.3224   -0.9267   -2.8712 C   0  0  0  0  0  0  0  0  0  0  0  0
   -0.4804   -0.4449   -3.4301 H   0  0  0  0  0  0  0  0  0  0  0  0
    1.1886   -0.2650   -2.8422 H   0  0  0  0  0  0  0  0  0  0  0  0
    0.7066   -2.2319   -3.5653 C   0  0  0  0  0  0  0  0  0  0  0  0
    1.5208   -2.7057   -3.0193 H   0  0  0  0  0  0  0  0  0  0  0  0
   -0.1523   -2.9009   -3.5794 H   0  0  0  0  0  0  0  0  0  0  0  0
    1.1395   -1.9927   -4.9469 N   0  0  0  0  0  0  0  0  0  0  0  0
    1.3982   -2.8723   -5.3693 H   0  0  0  0  0  0  0  0  0  0  0  0
    0.3768   -1.5824   -5.4667 H   0  0  0  0  0  0  0  0  0  0  0  0
   -1.1955    1.1738    1.4947 C   0  0  0  0  0  0  0  0  0  0  0  0
   -0.7410    1.2894    2.6309 O   0  0  0  0  0  0  0  0  0  0  0  0
   -1.8581    2.1588    0.8774 N   0  0  0  0  0  0  0  0  0  0  0  0
   -2.1870    1.9913   -0.0594 H   0  0  0  0  0  0  0  0  0  0  0  0
   -2.1194    3.4669    1.4761 C   0  0  0  0  0  0  0  0  0  0  0  0
   -1.1794    3.9189    1.8001 H   0  0  0  0  0  0  0  0  0  0  0  0
   -2.6051    4.1247    0.7539 H   0  0  0  0  0  0  0  0  0  0  0  0
   -2.7652    3.3488    2.3487 H   0  0  0  0  0  0  0  0  0  0  0  0
  5  6  2  0  0  0  0
  5  7  1  0  0  0  0
  2  3  1  0  0  0  0
  2  4  1  0  0  0  0
  2  5  1  0  0  0  0
  1  2  1  0  0  0  0
 26 27  2  0  0  0  0
 26 28  1  0  0  0  0
 23 24  1  0  0  0  0
 23 25  1  0  0  0  0
 20 21  1  0  0  0  0
 20 22  1  0  0  0  0
 20 23  1  0  0  0  0
 17 18  1  0  0  0  0
 17 19  1  0  0  0  0
 17 20  1  0  0  0  0
 14 15  1  0  0  0  0
 14 16  1  0  0  0  0
 14 17  1  0  0  0  0
 11 12  1  0  0  0  0
 11 13  1  0  0  0  0
 11 14  1  0  0  0  0
  9 10  1  0  0  0  0
  9 11  1  0  0  0  0
  9 26  1  0  0  0  0
  7  8  1  0  0  0  0
  7  9  1  0  0  0  0
 30 31  1  0  0  0  0
 30 32  1  0  0  0  0
 30 33  1  0  0  0  0
 28 29  1  0  0  0  0
 28 30  1  0  0  0  0
M  END
$$$$
default_name
  -OEChem-01062215323D

 33 32  0     1  0  0  0  0  0999 V2000
   -3.8420   -3.6918    1.5562 H   0  0  0  0  0  0  0  0  0  0  0  0
   -3.8430   -2.7008    1.1032 C   0  0  0  0  0  0  0  0  0  0  0  0
   -4.5510   -2.0608    1.6242 H   0  0  0  0  0  0  0  0  0  0  0  0
   -4.1140   -2.7798    0.0522 H   0  0  0  0  0  0  0  0  0  0  0  0
   -2.4570   -2.1098    1.2172 C   0  0  0  0  0  0  0  0  0  0  0  0
   -1.5600   -2.7438    1.7572 O   0  0  0  0  0  0  0  0  0  0  0  0
   -2.2870   -0.8898    0.7102 N   0  0  0  0  0  0  0  0  0  0  0  0
   -3.0820   -0.4218    0.2992 H   0  0  0  0  0  0  0  0  0  0  0  0
   -1.0240   -0.1468    0.7262 C   0  0  1  0  0  0  0  0  0  0  0  0
   -0.2737   -0.7491    1.2404 H   0  0  0  0  0  0  0  0  0  0  0  0
   -0.5641    0.0787   -0.7272 C   0  0  0  0  0  0  0  0  0  0  0  0
   -1.3884    0.5261   -1.2866 H   0  0  0  0  0  0  0  0  0  0  0  0
    0.2724    0.7789   -0.7353 H   0  0  0  0  0  0  0  0  0  0  0  0
   -0.1474   -1.2166   -1.4411 C   0  0  0  0  0  0  0  0  0  0  0  0
    0.6677   -1.6905   -0.8934 H   0  0  0  0  0  0  0  0  0  0  0  0
   -0.9994   -1.8982   -1.4745 H   0  0  0  0  0  0  0  0  0  0  0  0
    0.3224   -0.9267   -2.8712 C   0  0  0  0  0  0  0  0  0  0  0  0
   -0.4804   -0.4449   -3.4301 H   0  0  0  0  0  0  0  0  0  0  0  0
    1.1886   -0.2650   -2.8422 H   0  0  0  0  0  0  0  0  0  0  0  0
    0.7066   -2.2319   -3.5653 C   0  0  0  0  0  0  0  0  0  0  0  0
    1.5208   -2.7057   -3.0193 H   0  0  0  0  0  0  0  0  0  0  0  0
   -0.1523   -2.9009   -3.5794 H   0  0  0  0  0  0  0  0  0  0  0  0
    1.1395   -1.9927   -4.9469 N   0  0  0  0  0  0  0  0  0  0  0  0
    1.3982   -2.8723   -5.3693 H   0  0  0  0  0  0  0  0  0  0  0  0
    0.3768   -1.5824   -5.4667 H   0  0  0  0  0  0  0  0  0  0  0  0
   -1.1955    1.1738    1.4947 C   0  0  0  0  0  0  0  0  0  0  0  0
   -0.5212    1.3951    2.4984 O   0  0  0  0  0  0  0  0  0  0  0  0
   -2.1025    2.0396    1.0277 N   0  0  0  0  0  0  0  0  0  0  0  0
   -2.6046    1.7914    0.1910 H   0  0  0  0  0  0  0  0  0  0  0  0
   -2.3966    3.3291    1.6510 C   0  0  0  0  0  0  0  0  0  0  0  0
   -1.4767    3.9097    1.7495 H   0  0  0  0  0  0  0  0  0  0  0  0
   -3.1124    3.8884    1.0469 H   0  0  0  0  0  0  0  0  0  0  0  0
   -2.8126    3.1686    2.6478 H   0  0  0  0  0  0  0  0  0  0  0  0
  5  6  2  0  0  0  0
  5  7  1  0  0  0  0
  2  3  1  0  0  0  0
  2  4  1  0  0  0  0
  2  5  1  0  0  0  0
  1  2  1  0  0  0  0
 26 27  2  0  0  0  0
 26 28  1  0  0  0  0
 23 24  1  0  0  0  0
 23 25  1  0  0  0  0
 20 21  1  0  0  0  0
 20 22  1  0  0  0  0
 20 23  1  0  0  0  0
 17 18  1  0  0  0  0
 17 19  1  0  0  0  0
 17 20  1  0  0  0  0
 14 15  1  0  0  0  0
 14 16  1  0  0  0  0
 14 17  1  0  0  0  0
 11 12  1  0  0  0  0
 11 13  1  0  0  0  0
 11 14  1  0  0  0  0
  9 10  1  0  0  0  0
  9 11  1  0  0  0  0
  9 26  1  0  0  0  0
  7  8  1  0  0  0  0
  7  9  1  0  0  0  0
 30 31  1  0  0  0  0
 30 32  1  0  0  0  0
 30 33  1  0  0  0  0
 28 29  1  0  0  0  0
 28 30  1  0  0  0  0
M  END
$$$$
default_name
  -OEChem-01062215323D

 33 32  0     1  0  0  0  0  0999 V2000
   -3.8420   -3.6918    1.5562 H   0  0  0  0  0  0  0  0  0  0  0  0
   -3.8430   -2.7008    1.1032 C   0  0  0  0  0  0  0  0  0  0  0  0
   -4.5510   -2.0608    1.6242 H   0  0  0  0  0  0  0  0  0  0  0  0
   -4.1140   -2.7798    0.0522 H   0  0  0  0  0  0  0  0  0  0  0  0
   -2.4570   -2.1098    1.2172 C   0  0  0  0  0  0  0  0  0  0  0  0
   -1.5600   -2.7438    1.7572 O   0  0  0  0  0  0  0  0  0  0  0  0
   -2.2870   -0.8898    0.7102 N   0  0  0  0  0  0  0  0  0  0  0  0
   -3.0820   -0.4218    0.2992 H   0  0  0  0  0  0  0  0  0  0  0  0
   -1.0240   -0.1468    0.7262 C   0  0  1  0  0  0  0  0  0  0  0  0
   -0.2737   -0.7491    1.2404 H   0  0  0  0  0  0  0  0  0  0  0  0
   -0.5641    0.0787   -0.7272 C   0  0  0  0  0  0  0  0  0  0  0  0
   -1.3884    0.5261   -1.2866 H   0  0  0  0  0  0  0  0  0  0  0  0
    0.2724    0.7789   -0.7353 H   0  0  0  0  0  0  0  0  0  0  0  0
   -0.1474   -1.2166   -1.4411 C   0  0  0  0  0  0  0  0  0  0  0  0
    0.6677   -1.6905   -0.8934 H   0  0  0  0  0  0  0  0  0  0  0  0
   -0.9994   -1.8982   -1.4745 H   0  0  0  0  0  0  0  0  0  0  0  0
    0.3224   -0.9267   -2.8712 C   0  0  0  0  0  0  0  0  0  0  0  0
   -0.4804   -0.4449   -3.4301 H   0  0  0  0  0  0  0  0  0  0  0  0
    1.1886   -0.2650   -2.8422 H   0  0  0  0  0  0  0  0  0  0  0  0
    0.7066   -2.2319   -3.5653 C   0  0  0  0  0  0  0  0  0  0  0  0
    1.5208   -2.7057   -3.0193 H   0  0  0  0  0  0  0  0  0  0  0  0
   -0.1523   -2.9009   -3.5794 H   0  0  0  0  0  0  0  0  0  0  0  0
    1.1395   -1.9927   -4.9469 N   0  0  0  0  0  0  0  0  0  0  0  0
    1.3982   -2.8723   -5.3693 H   0  0  0  0  0  0  0  0  0  0  0  0
    0.3768   -1.5824   -5.4667 H   0  0  0  0  0  0  0  0  0  0  0  0
   -1.1955    1.1738    1.4947 C   0  0  0  0  0  0  0  0  0  0  0  0
   -0.3520    1.5218    2.3184 O   0  0  0  0  0  0  0  0  0  0  0  0
   -2.2898    1.8972    1.2306 N   0  0  0  0  0  0  0  0  0  0  0  0
   -2.9264    1.5515    0.5314 H   0  0  0  0  0  0  0  0  0  0  0  0
   -2.6076    3.1652    1.8856 C   0  0  0  0  0  0  0  0  0  0  0  0
   -1.7740    3.8608    1.7671 H   0  0  0  0  0  0  0  0  0  0  0  0
   -3.5066    3.6029    1.4494 H   0  0  0  0  0  0  0  0  0  0  0  0
   -2.7687    2.9970    2.9525 H   0  0  0  0  0  0  0  0  0  0  0  0
  5  6  2  0  0  0  0
  5  7  1  0  0  0  0
  2  3  1  0  0  0  0
  2  4  1  0  0  0  0
  2  5  1  0  0  0  0
  1  2  1  0  0  0  0
 26 27  2  0  0  0  0
 26 28  1  0  0  0  0
 23 24  1  0  0  0  0
 23 25  1  0  0  0  0
 20 21  1  0  0  0  0
 20 22  1  0  0  0  0
 20 23  1  0  0  0  0
 17 18  1  0  0  0  0
 17 19  1  0  0  0  0
 17 20  1  0  0  0  0
 14 15  1  0  0  0  0
 14 16  1  0  0  0  0
 14 17  1  0  0  0  0
 11 12  1  0  0  0  0
 11 13  1  0  0  0  0
 11 14  1  0  0  0  0
  9 10  1  0  0  0  0
  9 11  1  0  0  0  0
  9 26  1  0  0  0  0
  7  8  1  0  0  0  0
  7  9  1  0  0  0  0
 30 31  1  0  0  0  0
 30 32  1  0  0  0  0
 30 33  1  0  0  0  0
 28 29  1  0  0  0  0
 28 30  1  0  0  0  0
M  END
$$$$
default_name
  -OEChem-01062215323D

 33 32  0     1  0  0  0  0  0999 V2000
   -3.8420   -3.6918    1.5562 H   0  0  0  0  0  0  0  0  0  0  0  0
   -3.8430   -2.7008    1.1032 C   0  0  0  0  0  0  0  0  0  0  0  0
   -4.5510   -2.0608    1.6242 H   0  0  0  0  0  0  0  0  0  0  0  0
   -4.1140   -2.7798    0.0522 H   0  0  0  0  0  0  0  0  0  0  0  0
   -2.4570   -2.1098    1.2172 C   0  0  0  0  0  0  0  0  0  0  0  0
   -1.5600   -2.7438    1.7572 O   0  0  0  0  0  0  0  0  0  0  0  0
   -2.2870   -0.8898    0.7102 N   0  0  0  0  0  0  0  0  0  0  0  0
   -3.0820   -0.4218    0.2992 H   0  0  0  0  0  0  0  0  0  0  0  0
   -1.0240   -0.1468    0.7262 C   0  0  1  0  0  0  0  0  0  0  0  0
   -0.2737   -0.7491    1.2404 H   0  0  0  0  0  0  0  0  0  0  0  0
   -0.5641    0.0787   -0.7272 C   0  0  0  0  0  0  0  0  0  0  0  0
   -1.3884    0.5261   -1.2866 H   0  0  0  0  0  0  0  0  0  0  0  0
    0.2724    0.7789   -0.7353 H   0  0  0  0  0  0  0  0  0  0  0  0
   -0.1474   -1.2166   -1.4411 C   0  0  0  0  0  0  0  0  0  0  0  0
    0.6677   -1.6905   -0.8934 H   0  0  0  0  0  0  0  0  0  0  0  0
   -0.9994   -1.8982   -1.4745 H   0  0  0  0  0  0  0  0  0  0  0  0
    0.3224   -0.9267   -2.8712 C   0  0  0  0  0  0  0  0  0  0  0  0
   -0.4804   -0.4449   -3.4301 H   0  0  0  0  0  0  0  0  0  0  0  0
    1.1886   -0.2650   -2.8422 H   0  0  0  0  0  0  0  0  0  0  0  0
    0.7066   -2.2319   -3.5653 C   0  0  0  0  0  0  0  0  0  0  0  0
    1.5208   -2.7057   -3.0193 H   0  0  0  0  0  0  0  0  0  0  0  0
   -0.1523   -2.9009   -3.5794 H   0  0  0  0  0  0  0  0  0  0  0  0
    1.1395   -1.9927   -4.9469 N   0  0  0  0  0  0  0  0  0  0  0  0
    1.3982   -2.8723   -5.3693 H   0  0  0  0  0  0  0  0  0  0  0  0
    0.3768   -1.5824   -5.4667 H   0  0  0  0  0  0  0  0  0  0  0  0
   -1.1955    1.1738    1.4947 C   0  0  0  0  0  0  0  0  0  0  0  0
   -0.2451    1.6609    2.1032 O   0  0  0  0  0  0  0  0  0  0  0  0
   -2.4071    1.7412    1.4724 N   0  0  0  0  0  0  0  0  0  0  0  0
   -3.1306    1.2879    0.9387 H   0  0  0  0  0  0  0  0  0  0  0  0
   -2.7381    2.9863    2.1638 C   0  0  0  0  0  0  0  0  0  0  0  0
   -2.0509    3.7757    1.8515 H   0  0  0  0  0  0  0  0  0  0  0  0
   -3.7610    3.2878    1.9341 H   0  0  0  0  0  0  0  0  0  0  0  0
   -2.6363    2.8457    3.2419 H   0  0  0  0  0  0  0  0  0  0  0  0
  5  6  2  0  0  0  0
  5  7  1  0  0  0  0
  2  3  1  0  0  0  0
  2  4  1  0  0  0  0
  2  5  1  0  0  0  0
  1  2  1  0  0  0  0
 26 27  2  0  0  0  0
 26 28  1  0  0  0  0
 23 24  1  0  0  0  0
 23 25  1  0  0  0  0
 20 21  1  0  0  0  0
 20 22  1  0  0  0  0
 20 23  1  0  0  0  0
 17 18  1  0  0  0  0
 17 19  1  0  0  0  0
 17 20  1  0  0  0  0
 14 15  1  0  0  0  0
 14 16  1  0  0  0  0
 14 17  1  0  0  0  0
 11 12  1  0  0  0  0
 11 13  1  0  0  0  0
 11 14  1  0  0  0  0
  9 10  1  0  0  0  0
  9 11  1  0  0  0  0
  9 26  1  0  0  0  0
  7  8  1  0  0  0  0
  7  9  1  0  0  0  0
 30 31  1  0  0  0  0
 30 32  1  0  0  0  0
 30 33  1  0  0  0  0
 28 29  1  0  0  0  0
 28 30  1  0  0  0  0
M  END
$$$$
default_name
  -OEChem-01062215323D

 33 32  0     1  0  0  0  0  0999 V2000
   -3.8420   -3.6918    1.5562 H   0  0  0  0  0  0  0  0  0  0  0  0
   -3.8430   -2.7008    1.1032 C   0  0  0  0  0  0  0  0  0  0  0  0
   -4.5510   -2.0608    1.6242 H   0  0  0  0  0  0  0  0  0  0  0  0
   -4.1140   -2.7798    0.0522 H   0  0  0  0  0  0  0  0  0  0  0  0
   -2.4570   -2.1098    1.2172 C   0  0  0  0  0  0  0  0  0  0  0  0
   -1.5600   -2.7438    1.7572 O   0  0  0  0  0  0  0  0  0  0  0  0
   -2.2870   -0.8898    0.7102 N   0  0  0  0  0  0  0  0  0  0  0  0
   -3.0820   -0.4218    0.2992 H   0  0  0  0  0  0  0  0  0  0  0  0
   -1.0240   -0.1468    0.7262 C   0  0  1  0  0  0  0  0  0  0  0  0
   -0.2737   -0.7491    1.2404 H   0  0  0  0  0  0  0  0  0  0  0  0
   -0.5641    0.0787   -0.7272 C   0  0  0  0  0  0  0  0  0  0  0  0
   -1.3884    0.5261   -1.2866 H   0  0  0  0  0  0  0  0  0  0  0  0
    0.2724    0.7789   -0.7353 H   0  0  0  0  0  0  0  0  0  0  0  0
   -0.1474   -1.2166   -1.4411 C   0  0  0  0  0  0  0  0  0  0  0  0
    0.6677   -1.6905   -0.8934 H   0  0  0  0  0  0  0  0  0  0  0  0
   -0.9994   -1.8982   -1.4745 H   0  0  0  0  0  0  0  0  0  0  0  0
    0.3224   -0.9267   -2.8712 C   0  0  0  0  0  0  0  0  0  0  0  0
   -0.4804   -0.4449   -3.4301 H   0  0  0  0  0  0  0  0  0  0  0  0
    1.1886   -0.2650   -2.8422 H   0  0  0  0  0  0  0  0  0  0  0  0
    0.7066   -2.2319   -3.5653 C   0  0  0  0  0  0  0  0  0  0  0  0
    1.5208   -2.7057   -3.0193 H   0  0  0  0  0  0  0  0  0  0  0  0
   -0.1523   -2.9009   -3.5794 H   0  0  0  0  0  0  0  0  0  0  0  0
    1.1395   -1.9927   -4.9469 N   0  0  0  0  0  0  0  0  0  0  0  0
    1.3982   -2.8723   -5.3693 H   0  0  0  0  0  0  0  0  0  0  0  0
    0.3768   -1.5824   -5.4667 H   0  0  0  0  0  0  0  0  0  0  0  0
   -1.1955    1.1738    1.4947 C   0  0  0  0  0  0  0  0  0  0  0  0
   -0.2075    1.8029    1.8677 O   0  0  0  0  0  0  0  0  0  0  0  0
   -2.4465    1.5824    1.7365 N   0  0  0  0  0  0  0  0  0  0  0  0
   -3.2031    1.0187    1.3852 H   0  0  0  0  0  0  0  0  0  0  0  0
   -2.7791    2.8047    2.4667 C   0  0  0  0  0  0  0  0  0  0  0  0
   -2.2886    3.6601    1.9971 H   0  0  0  0  0  0  0  0  0  0  0  0
   -3.8583    2.9645    2.4679 H   0  0  0  0  0  0  0  0  0  0  0  0
   -2.4245    2.7251    3.4964 H   0  0  0  0  0  0  0  0  0  0  0  0
  5  6  2  0  0  0  0
  5  7  1  0  0  0  0
  2  3  1  0  0  0  0
  2  4  1  0  0  0  0
  2  5  1  0  0  0  0
  1  2  1  0  0  0  0
 26 27  2  0  0  0  0
 26 28  1  0  0  0  0
 23 24  1  0  0  0  0
 23 25  1  0  0  0  0
 20 21  1  0  0  0  0
 20 22  1  0  0  0  0
 20 23  1  0  0  0  0
 17 18  1  0  0  0  0
 17 19  1  0  0  0  0
 17 20  1  0  0  0  0
 14 15  1  0  0  0  0
 14 16  1  0  0  0  0
 14 17  1  0  0  0  0
 11 12  1  0  0  0  0
 11 13  1  0  0  0  0
 11 14  1  0  0  0  0
  9 10  1  0  0  0  0
  9 11  1  0  0  0  0
  9 26  1  0  0  0  0
  7  8  1  0  0  0  0
  7  9  1  0  0  0  0
 30 31  1  0  0  0  0
 30 32  1  0  0  0  0
 30 33  1  0  0  0  0
 28 29  1  0  0  0  0
 28 30  1  0  0  0  0
M  END
$$$$
default_name
  -OEChem-01062215323D

 33 32  0     1  0  0  0  0  0999 V2000
   -3.8420   -3.6918    1.5562 H   0  0  0  0  0  0  0  0  0  0  0  0
   -3.8430   -2.7008    1.1032 C   0  0  0  0  0  0  0  0  0  0  0  0
   -4.5510   -2.0608    1.6242 H   0  0  0  0  0  0  0  0  0  0  0  0
   -4.1140   -2.7798    0.0522 H   0  0  0  0  0  0  0  0  0  0  0  0
   -2.4570   -2.1098    1.2172 C   0  0  0  0  0  0  0  0  0  0  0  0
   -1.5600   -2.7438    1.7572 O   0  0  0  0  0  0  0  0  0  0  0  0
   -2.2870   -0.8898    0.7102 N   0  0  0  0  0  0  0  0  0  0  0  0
   -3.0820   -0.4218    0.2992 H   0  0  0  0  0  0  0  0  0  0  0  0
   -1.0240   -0.1468    0.7262 C   0  0  1  0  0  0  0  0  0  0  0  0
   -0.2737   -0.7491    1.2404 H   0  0  0  0  0  0  0  0  0  0  0  0
   -0.5641    0.0787   -0.7272 C   0  0  0  0  0  0  0  0  0  0  0  0
   -1.3884    0.5261   -1.2866 H   0  0  0  0  0  0  0  0  0  0  0  0
    0.2724    0.7789   -0.7353 H   0  0  0  0  0  0  0  0  0  0  0  0
   -0.1474   -1.2166   -1.4411 C   0  0  0  0  0  0  0  0  0  0  0  0
    0.6677   -1.6905   -0.8934 H   0  0  0  0  0  0  0  0  0  0  0  0
   -0.9994   -1.8982   -1.4745 H   0  0  0  0  0  0  0  0  0  0  0  0
    0.3224   -0.9267   -2.8712 C   0  0  0  0  0  0  0  0  0  0  0  0
   -0.4804   -0.4449   -3.4301 H   0  0  0  0  0  0  0  0  0  0  0  0
    1.1886   -0.2650   -2.8422 H   0  0  0  0  0  0  0  0  0  0  0  0
    0.7066   -2.2319   -3.5653 C   0  0  0  0  0  0  0  0  0  0  0  0
    1.5208   -2.7057   -3.0193 H   0  0  0  0  0  0  0  0  0  0  0  0
   -0.1523   -2.9009   -3.5794 H   0  0  0  0  0  0  0  0  0  0  0  0
    1.1395   -1.9927   -4.9469 N   0  0  0  0  0  0  0  0  0  0  0  0
    1.3982   -2.8723   -5.3693 H   0  0  0  0  0  0  0  0  0  0  0  0
    0.3768   -1.5824   -5.4667 H   0  0  0  0  0  0  0  0  0  0  0  0
   -1.1955    1.1738    1.4947 C   0  0  0  0  0  0  0  0  0  0  0  0
   -0.2420    1.9381    1.6277 O   0  0  0  0  0  0  0  0  0  0  0  0
   -2.4053    1.4315    2.0050 N   0  0  0  0  0  0  0  0  0  0  0  0
   -3.1391    0.7622    1.8403 H   0  0  0  0  0  0  0  0  0  0  0  0
   -2.7279    2.6327    2.7737 C   0  0  0  0  0  0  0  0  0  0  0  0
   -2.4708    3.5219    2.1939 H   0  0  0  0  0  0  0  0  0  0  0  0
   -3.7917    2.6550    3.0145 H   0  0  0  0  0  0  0  0  0  0  0  0
   -2.1477    2.6433    3.6987 H   0  0  0  0  0  0  0  0  0  0  0  0
  5  6  2  0  0  0  0
  5  7  1  0  0  0  0
  2  3  1  0  0  0  0
  2  4  1  0  0  0  0
  2  5  1  0  0  0  0
  1  2  1  0  0  0  0
 26 27  2  0  0  0  0
 26 28  1  0  0  0  0
 23 24  1  0  0  0  0
 23 25  1  0  0  0  0
 20 21  1  0  0  0  0
 20 22  1  0  0  0  0
 20 23  1  0  0  0  0
 17 18  1  0  0  0  0
 17 19  1  0  0  0  0
 17 20  1  0  0  0  0
 14 15  1  0  0  0  0
 14 16  1  0  0  0  0
 14 17  1  0  0  0  0
 11 12  1  0  0  0  0
 11 13  1  0  0  0  0
 11 14  1  0  0  0  0
  9 10  1  0  0  0  0
  9 11  1  0  0  0  0
  9 26  1  0  0  0  0
  7  8  1  0  0  0  0
  7  9  1  0  0  0  0
 30 31  1  0  0  0  0
 30 32  1  0  0  0  0
 30 33  1  0  0  0  0
 28 29  1  0  0  0  0
 28 30  1  0  0  0  0
M  END
$$$$
default_name
  -OEChem-01062215323D

 33 32  0     1  0  0  0  0  0999 V2000
   -3.8420   -3.6918    1.5562 H   0  0  0  0  0  0  0  0  0  0  0  0
   -3.8430   -2.7008    1.1032 C   0  0  0  0  0  0  0  0  0  0  0  0
   -4.5510   -2.0608    1.6242 H   0  0  0  0  0  0  0  0  0  0  0  0
   -4.1140   -2.7798    0.0522 H   0  0  0  0  0  0  0  0  0  0  0  0
   -2.4570   -2.1098    1.2172 C   0  0  0  0  0  0  0  0  0  0  0  0
   -1.5600   -2.7438    1.7572 O   0  0  0  0  0  0  0  0  0  0  0  0
   -2.2870   -0.8898    0.7102 N   0  0  0  0  0  0  0  0  0  0  0  0
   -3.0820   -0.4218    0.2992 H   0  0  0  0  0  0  0  0  0  0  0  0
   -1.0240   -0.1468    0.7262 C   0  0  1  0  0  0  0  0  0  0  0  0
   -0.2737   -0.7491    1.2404 H   0  0  0  0  0  0  0  0  0  0  0  0
   -0.5641    0.0787   -0.7272 C   0  0  0  0  0  0  0  0  0  0  0  0
   -1.3884    0.5261   -1.2866 H   0  0  0  0  0  0  0  0  0  0  0  0
    0.2724    0.7789   -0.7353 H   0  0  0  0  0  0  0  0  0  0  0  0
   -0.1474   -1.2166   -1.4411 C   0  0  0  0  0  0  0  0  0  0  0  0
    0.6677   -1.6905   -0.8934 H   0  0  0  0  0  0  0  0  0  0  0  0
   -0.9994   -1.8982   -1.4745 H   0  0  0  0  0  0  0  0  0  0  0  0
    0.3224   -0.9267   -2.8712 C   0  0  0  0  0  0  0  0  0  0  0  0
   -0.4804   -0.4449   -3.4301 H   0  0  0  0  0  0  0  0  0  0  0  0
    1.1886   -0.2650   -2.8422 H   0  0  0  0  0  0  0  0  0  0  0  0
    0.7066   -2.2319   -3.5653 C   0  0  0  0  0  0  0  0  0  0  0  0
    1.5208   -2.7057   -3.0193 H   0  0  0  0  0  0  0  0  0  0  0  0
   -0.1523   -2.9009   -3.5794 H   0  0  0  0  0  0  0  0  0  0  0  0
    1.1395   -1.9927   -4.9469 N   0  0  0  0  0  0  0  0  0  0  0  0
    1.3982   -2.8723   -5.3693 H   0  0  0  0  0  0  0  0  0  0  0  0
    0.3768   -1.5824   -5.4667 H   0  0  0  0  0  0  0  0  0  0  0  0
   -1.1955    1.1738    1.4947 C   0  0  0  0  0  0  0  0  0  0  0  0
   -0.3462    2.0573    1.3996 O   0  0  0  0  0  0  0  0  0  0  0  0
   -2.2864    1.2988    2.2595 N   0  0  0  0  0  0  0  0  0  0  0  0
   -2.9430    0.5358    2.2731 H   0  0  0  0  0  0  0  0  0  0  0  0
   -2.5879    2.4821    3.0638 C   0  0  0  0  0  0  0  0  0  0  0  0
   -2.5852    3.3705    2.4285 H   0  0  0  0  0  0  0  0  0  0  0  0
   -3.5658    2.3805    3.5366 H   0  0  0  0  0  0  0  0  0  0  0  0
   -1.8248    2.6060    3.8349 H   0  0  0  0  0  0  0  0  0  0  0  0
  5  6  2  0  0  0  0
  5  7  1  0  0  0  0
  2  3  1  0  0  0  0
  2  4  1  0  0  0  0
  2  5  1  0  0  0  0
  1  2  1  0  0  0  0
 26 27  2  0  0  0  0
 26 28  1  0  0  0  0
 23 24  1  0  0  0  0
 23 25  1  0  0  0  0
 20 21  1  0  0  0  0
 20 22  1  0  0  0  0
 20 23  1  0  0  0  0
 17 18  1  0  0  0  0
 17 19  1  0  0  0  0
 17 20  1  0  0  0  0
 14 15  1  0  0  0  0
 14 16  1  0  0  0  0
 14 17  1  0  0  0  0
 11 12  1  0  0  0  0
 11 13  1  0  0  0  0
 11 14  1  0  0  0  0
  9 10  1  0  0  0  0
  9 11  1  0  0  0  0
  9 26  1  0  0  0  0
  7  8  1  0  0  0  0
  7  9  1  0  0  0  0
 30 31  1  0  0  0  0
 30 32  1  0  0  0  0
 30 33  1  0  0  0  0
 28 29  1  0  0  0  0
 28 30  1  0  0  0  0
M  END
$$$$
default_name
  -OEChem-01062215323D

 33 32  0     1  0  0  0  0  0999 V2000
   -3.8420   -3.6918    1.5562 H   0  0  0  0  0  0  0  0  0  0  0  0
   -3.8430   -2.7008    1.1032 C   0  0  0  0  0  0  0  0  0  0  0  0
   -4.5510   -2.0608    1.6242 H   0  0  0  0  0  0  0  0  0  0  0  0
   -4.1140   -2.7798    0.0522 H   0  0  0  0  0  0  0  0  0  0  0  0
   -2.4570   -2.1098    1.2172 C   0  0  0  0  0  0  0  0  0  0  0  0
   -1.5600   -2.7438    1.7572 O   0  0  0  0  0  0  0  0  0  0  0  0
   -2.2870   -0.8898    0.7102 N   0  0  0  0  0  0  0  0  0  0  0  0
   -3.0820   -0.4218    0.2992 H   0  0  0  0  0  0  0  0  0  0  0  0
   -1.0240   -0.1468    0.7262 C   0  0  1  0  0  0  0  0  0  0  0  0
   -0.2737   -0.7491    1.2404 H   0  0  0  0  0  0  0  0  0  0  0  0
   -0.5641    0.0787   -0.7272 C   0  0  0  0  0  0  0  0  0  0  0  0
   -1.3884    0.5261   -1.2866 H   0  0  0  0  0  0  0  0  0  0  0  0
    0.2724    0.7789   -0.7353 H   0  0  0  0  0  0  0  0  0  0  0  0
   -0.1474   -1.2166   -1.4411 C   0  0  0  0  0  0  0  0  0  0  0  0
    0.6677   -1.6905   -0.8934 H   0  0  0  0  0  0  0  0  0  0  0  0
   -0.9994   -1.8982   -1.4745 H   0  0  0  0  0  0  0  0  0  0  0  0
    0.3224   -0.9267   -2.8712 C   0  0  0  0  0  0  0  0  0  0  0  0
   -0.4804   -0.4449   -3.4301 H   0  0  0  0  0  0  0  0  0  0  0  0
    1.1886   -0.2650   -2.8422 H   0  0  0  0  0  0  0  0  0  0  0  0
    0.7066   -2.2319   -3.5653 C   0  0  0  0  0  0  0  0  0  0  0  0
    1.5208   -2.7057   -3.0193 H   0  0  0  0  0  0  0  0  0  0  0  0
   -0.1523   -2.9009   -3.5794 H   0  0  0  0  0  0  0  0  0  0  0  0
    1.1395   -1.9927   -4.9469 N   0  0  0  0  0  0  0  0  0  0  0  0
    1.3982   -2.8723   -5.3693 H   0  0  0  0  0  0  0  0  0  0  0  0
    0.3768   -1.5824   -5.4667 H   0  0  0  0  0  0  0  0  0  0  0  0
   -1.1955    1.1738    1.4947 C   0  0  0  0  0  0  0  0  0  0  0  0
   -0.5129    2.1523    1.1990 O   0  0  0  0  0  0  0  0  0  0  0  0
   -2.0977    1.1934    2.4828 N   0  0  0  0  0  0  0  0  0  0  0  0
   -2.6280    0.3550    2.6540 H   0  0  0  0  0  0  0  0  0  0  0  0
   -2.3688    2.3630    3.3172 C   0  0  0  0  0  0  0  0  0  0  0  0
   -2.6240    3.2163    2.6849 H   0  0  0  0  0  0  0  0  0  0  0  0
   -3.1961    2.1597    3.9987 H   0  0  0  0  0  0  0  0  0  0  0  0
   -1.4778    2.6157    3.8958 H   0  0  0  0  0  0  0  0  0  0  0  0
  5  6  2  0  0  0  0
  5  7  1  0  0  0  0
  2  3  1  0  0  0  0
  2  4  1  0  0  0  0
  2  5  1  0  0  0  0
  1  2  1  0  0  0  0
 26 27  2  0  0  0  0
 26 28  1  0  0  0  0
 23 24  1  0  0  0  0
 23 25  1  0  0  0  0
 20 21  1  0  0  0  0
 20 22  1  0  0  0  0
 20 23  1  0  0  0  0
 17 18  1  0  0  0  0
 17 19  1  0  0  0  0
 17 20  1  0  0  0  0
 14 15  1  0  0  0  0
 14 16  1  0  0  0  0
 14 17  1  0  0  0  0
 11 12  1  0  0  0  0
 11 13  1  0  0  0  0
 11 14  1  0  0  0  0
  9 10  1  0  0  0  0
  9 11  1  0  0  0  0
  9 26  1  0  0  0  0
  7  8  1  0  0  0  0
  7  9  1  0  0  0  0
 30 31  1  0  0  0  0
 30 32  1  0  0  0  0
 30 33  1  0  0  0  0
 28 29  1  0  0  0  0
 28 30  1  0  0  0  0
M  END
$$$$
default_name
  -OEChem-01062215323D

 33 32  0     1  0  0  0  0  0999 V2000
   -3.8420   -3.6918    1.5562 H   0  0  0  0  0  0  0  0  0  0  0  0
   -3.8430   -2.7008    1.1032 C   0  0  0  0  0  0  0  0  0  0  0  0
   -4.5510   -2.0608    1.6242 H   0  0  0  0  0  0  0  0  0  0  0  0
   -4.1140   -2.7798    0.0522 H   0  0  0  0  0  0  0  0  0  0  0  0
   -2.4570   -2.1098    1.2172 C   0  0  0  0  0  0  0  0  0  0  0  0
   -1.5600   -2.7438    1.7572 O   0  0  0  0  0  0  0  0  0  0  0  0
   -2.2870   -0.8898    0.7102 N   0  0  0  0  0  0  0  0  0  0  0  0
   -3.0820   -0.4218    0.2992 H   0  0  0  0  0  0  0  0  0  0  0  0
   -1.0240   -0.1468    0.7262 C   0  0  1  0  0  0  0  0  0  0  0  0
   -0.2737   -0.7491    1.2404 H   0  0  0  0  0  0  0  0  0  0  0  0
   -0.5641    0.0787   -0.7272 C   0  0  0  0  0  0  0  0  0  0  0  0
   -1.3884    0.5261   -1.2866 H   0  0  0  0  0  0  0  0  0  0  0  0
    0.2724    0.7789   -0.7353 H   0  0  0  0  0  0  0  0  0  0  0  0
   -0.1474   -1.2166   -1.4411 C   0  0  0  0  0  0  0  0  0  0  0  0
    0.6677   -1.6905   -0.8934 H   0  0  0  0  0  0  0  0  0  0  0  0
   -0.9994   -1.8982   -1.4745 H   0  0  0  0  0  0  0  0  0  0  0  0
    0.3224   -0.9267   -2.8712 C   0  0  0  0  0  0  0  0  0  0  0  0
   -0.4804   -0.4449   -3.4301 H   0  0  0  0  0  0  0  0  0  0  0  0
    1.1886   -0.2650   -2.8422 H   0  0  0  0  0  0  0  0  0  0  0  0
    0.7066   -2.2319   -3.5653 C   0  0  0  0  0  0  0  0  0  0  0  0
    1.5208   -2.7057   -3.0193 H   0  0  0  0  0  0  0  0  0  0  0  0
   -0.1523   -2.9009   -3.5794 H   0  0  0  0  0  0  0  0  0  0  0  0
    1.1395   -1.9927   -4.9469 N   0  0  0  0  0  0  0  0  0  0  0  0
    1.3982   -2.8723   -5.3693 H   0  0  0  0  0  0  0  0  0  0  0  0
    0.3768   -1.5824   -5.4667 H   0  0  0  0  0  0  0  0  0  0  0  0
   -1.1955    1.1738    1.4947 C   0  0  0  0  0  0  0  0  0  0  0  0
   -0.7308    2.2168    1.0396 O   0  0  0  0  0  0  0  0  0  0  0  0
   -1.8522    1.1225    2.6595 N   0  0  0  0  0  0  0  0  0  0  0  0
   -2.2157    0.2321    2.9572 H   0  0  0  0  0  0  0  0  0  0  0  0
   -2.0854    2.2837    3.5167 C   0  0  0  0  0  0  0  0  0  0  0  0
   -2.5846    3.0696    2.9457 H   0  0  0  0  0  0  0  0  0  0  0  0
   -2.7077    2.0075    4.3691 H   0  0  0  0  0  0  0  0  0  0  0  0
   -1.1304    2.6716    3.8771 H   0  0  0  0  0  0  0  0  0  0  0  0
  5  6  2  0  0  0  0
  5  7  1  0  0  0  0
  2  3  1  0  0  0  0
  2  4  1  0  0  0  0
  2  5  1  0  0  0  0
  1  2  1  0  0  0  0
 26 27  2  0  0  0  0
 26 28  1  0  0  0  0
 23 24  1  0  0  0  0
 23 25  1  0  0  0  0
 20 21  1  0  0  0  0
 20 22  1  0  0  0  0
 20 23  1  0  0  0  0
 17 18  1  0  0  0  0
 17 19  1  0  0  0  0
 17 20  1  0  0  0  0
 14 15  1  0  0  0  0
 14 16  1  0  0  0  0
 14 17  1  0  0  0  0
 11 12  1  0  0  0  0
 11 13  1  0  0  0  0
 11 14  1  0  0  0  0
  9 10  1  0  0  0  0
  9 11  1  0  0  0  0
  9 26  1  0  0  0  0
  7  8  1  0  0  0  0
  7  9  1  0  0  0  0
 30 31  1  0  0  0  0
 30 32  1  0  0  0  0
 30 33  1  0  0  0  0
 28 29  1  0  0  0  0
 28 30  1  0  0  0  0
M  END
$$$$
default_name
  -OEChem-01062215323D

 33 32  0     1  0  0  0  0  0999 V2000
   -3.8420   -3.6918    1.5562 H   0  0  0  0  0  0  0  0  0  0  0  0
   -3.8430   -2.7008    1.1032 C   0  0  0  0  0  0  0  0  0  0  0  0
   -4.5510   -2.0608    1.6242 H   0  0  0  0  0  0  0  0  0  0  0  0
   -4.1140   -2.7798    0.0522 H   0  0  0  0  0  0  0  0  0  0  0  0
   -2.4570   -2.1098    1.2172 C   0  0  0  0  0  0  0  0  0  0  0  0
   -1.5600   -2.7438    1.7572 O   0  0  0  0  0  0  0  0  0  0  0  0
   -2.2870   -0.8898    0.7102 N   0  0  0  0  0  0  0  0  0  0  0  0
   -3.0820   -0.4218    0.2992 H   0  0  0  0  0  0  0  0  0  0  0  0
   -1.0240   -0.1468    0.7262 C   0  0  1  0  0  0  0  0  0  0  0  0
   -0.2737   -0.7491    1.2404 H   0  0  0  0  0  0  0  0  0  0  0  0
   -0.5641    0.0787   -0.7272 C   0  0  0  0  0  0  0  0  0  0  0  0
   -1.3884    0.5261   -1.2866 H   0  0  0  0  0  0  0  0  0  0  0  0
    0.2724    0.7789   -0.7353 H   0  0  0  0  0  0  0  0  0  0  0  0
   -0.1474   -1.2166   -1.4411 C   0  0  0  0  0  0  0  0  0  0  0  0
    0.6677   -1.6905   -0.8934 H   0  0  0  0  0  0  0  0  0  0  0  0
   -0.9994   -1.8982   -1.4745 H   0  0  0  0  0  0  0  0  0  0  0  0
    0.3224   -0.9267   -2.8712 C   0  0  0  0  0  0  0  0  0  0  0  0
   -0.4804   -0.4449   -3.4301 H   0  0  0  0  0  0  0  0  0  0  0  0
    1.1886   -0.2650   -2.8422 H   0  0  0  0  0  0  0  0  0  0  0  0
    0.7066   -2.2319   -3.5653 C   0  0  0  0  0  0  0  0  0  0  0  0
    1.5208   -2.7057   -3.0193 H   0  0  0  0  0  0  0  0  0  0  0  0
   -0.1523   -2.9009   -3.5794 H   0  0  0  0  0  0  0  0  0  0  0  0
    1.1395   -1.9927   -4.9469 N   0  0  0  0  0  0  0  0  0  0  0  0
    1.3982   -2.8723   -5.3693 H   0  0  0  0  0  0  0  0  0  0  0  0
    0.3768   -1.5824   -5.4667 H   0  0  0  0  0  0  0  0  0  0  0  0
   -1.1955    1.1738    1.4947 C   0  0  0  0  0  0  0  0  0  0  0  0
   -0.9851    2.2463    0.9322 O   0  0  0  0  0  0  0  0  0  0  0  0
   -1.5665    1.0908    2.7777 N   0  0  0  0  0  0  0  0  0  0  0  0
   -1.7341    0.1755    3.1620 H   0  0  0  0  0  0  0  0  0  0  0  0
   -1.7570    2.2496    3.6487 C   0  0  0  0  0  0  0  0  0  0  0  0
   -2.4695    2.9407    3.1930 H   0  0  0  0  0  0  0  0  0  0  0  0
   -2.1338    1.9344    4.6228 H   0  0  0  0  0  0  0  0  0  0  0  0
   -0.8061    2.7701    3.7803 H   0  0  0  0  0  0  0  0  0  0  0  0
  5  6  2  0  0  0  0
  5  7  1  0  0  0  0
  2  3  1  0  0  0  0
  2  4  1  0  0  0  0
  2  5  1  0  0  0  0
  1  2  1  0  0  0  0
 26 27  2  0  0  0  0
 26 28  1  0  0  0  0
 23 24  1  0  0  0  0
 23 25  1  0  0  0  0
 20 21  1  0  0  0  0
 20 22  1  0  0  0  0
 20 23  1  0  0  0  0
 17 18  1  0  0  0  0
 17 19  1  0  0  0  0
 17 20  1  0  0  0  0
 14 15  1  0  0  0  0
 14 16  1  0  0  0  0
 14 17  1  0  0  0  0
 11 12  1  0  0  0  0
 11 13  1  0  0  0  0
 11 14  1  0  0  0  0
  9 10  1  0  0  0  0
  9 11  1  0  0  0  0
  9 26  1  0  0  0  0
  7  8  1  0  0  0  0
  7  9  1  0  0  0  0
 30 31  1  0  0  0  0
 30 32  1  0  0  0  0
 30 33  1  0  0  0  0
 28 29  1  0  0  0  0
 28 30  1  0  0  0  0
M  END
$$$$
default_name
  -OEChem-01062215323D

 33 32  0     1  0  0  0  0  0999 V2000
   -3.8420   -3.6918    1.5562 H   0  0  0  0  0  0  0  0  0  0  0  0
   -3.8430   -2.7008    1.1032 C   0  0  0  0  0  0  0  0  0  0  0  0
   -4.5510   -2.0608    1.6242 H   0  0  0  0  0  0  0  0  0  0  0  0
   -4.1140   -2.7798    0.0522 H   0  0  0  0  0  0  0  0  0  0  0  0
   -2.4570   -2.1098    1.2172 C   0  0  0  0  0  0  0  0  0  0  0  0
   -1.5600   -2.7438    1.7572 O   0  0  0  0  0  0  0  0  0  0  0  0
   -2.2870   -0.8898    0.7102 N   0  0  0  0  0  0  0  0  0  0  0  0
   -3.0820   -0.4218    0.2992 H   0  0  0  0  0  0  0  0  0  0  0  0
   -1.0240   -0.1468    0.7262 C   0  0  1  0  0  0  0  0  0  0  0  0
   -0.2737   -0.7491    1.2404 H   0  0  0  0  0  0  0  0  0  0  0  0
   -0.5641    0.0787   -0.7272 C   0  0  0  0  0  0  0  0  0  0  0  0
   -1.3884    0.5261   -1.2866 H   0  0  0  0  0  0  0  0  0  0  0  0
    0.2724    0.7789   -0.7353 H   0  0  0  0  0  0  0  0  0  0  0  0
   -0.1474   -1.2166   -1.4411 C   0  0  0  0  0  0  0  0  0  0  0  0
    0.6677   -1.6905   -0.8934 H   0  0  0  0  0  0  0  0  0  0  0  0
   -0.9994   -1.8982   -1.4745 H   0  0  0  0  0  0  0  0  0  0  0  0
    0.3224   -0.9267   -2.8712 C   0  0  0  0  0  0  0  0  0  0  0  0
   -0.4804   -0.4449   -3.4301 H   0  0  0  0  0  0  0  0  0  0  0  0
    1.1886   -0.2650   -2.8422 H   0  0  0  0  0  0  0  0  0  0  0  0
    0.7066   -2.2319   -3.5653 C   0  0  0  0  0  0  0  0  0  0  0  0
    1.5208   -2.7057   -3.0193 H   0  0  0  0  0  0  0  0  0  0  0  0
   -0.1523   -2.9009   -3.5794 H   0  0  0  0  0  0  0  0  0  0  0  0
    1.1395   -1.9927   -4.9469 N   0  0  0  0  0  0  0  0  0  0  0  0
    1.3982   -2.8723   -5.3693 H   0  0  0  0  0  0  0  0  0  0  0  0
    0.3768   -1.5824   -5.4667 H   0  0  0  0  0  0  0  0  0  0  0  0
   -1.1955    1.1738    1.4947 C   0  0  0  0  0  0  0  0  0  0  0  0
   -1.2584    2.2388    0.8841 O   0  0  0  0  0  0  0  0  0  0  0  0
   -1.2603    1.1006    2.8292 N   0  0  0  0  0  0  0  0  0  0  0  0
   -1.2161    0.1890    3.2543 H   0  0  0  0  0  0  0  0  0  0  0  0
   -1.4060    2.2629    3.7042 C   0  0  0  0  0  0  0  0  0  0  0  0
   -2.2867    2.8381    3.4100 H   0  0  0  0  0  0  0  0  0  0  0  0
   -1.5137    1.9454    4.7424 H   0  0  0  0  0  0  0  0  0  0  0  0
   -0.5272    2.9044    3.6118 H   0  0  0  0  0  0  0  0  0  0  0  0
  5  6  2  0  0  0  0
  5  7  1  0  0  0  0
  2  3  1  0  0  0  0
  2  4  1  0  0  0  0
  2  5  1  0  0  0  0
  1  2  1  0  0  0  0
 26 27  2  0  0  0  0
 26 28  1  0  0  0  0
 23 24  1  0  0  0  0
 23 25  1  0  0  0  0
 20 21  1  0  0  0  0
 20 22  1  0  0  0  0
 20 23  1  0  0  0  0
 17 18  1  0  0  0  0
 17 19  1  0  0  0  0
 17 20  1  0  0  0  0
 14 15  1  0  0  0  0
 14 16  1  0  0  0  0
 14 17  1  0  0  0  0
 11 12  1  0  0  0  0
 11 13  1  0  0  0  0
 11 14  1  0  0  0  0
  9 10  1  0  0  0  0
  9 11  1  0  0  0  0
  9 26  1  0  0  0  0
  7  8  1  0  0  0  0
  7  9  1  0  0  0  0
 30 31  1  0  0  0  0
 30 32  1  0  0  0  0
 30 33  1  0  0  0  0
 28 29  1  0  0  0  0
 28 30  1  0  0  0  0
M  END
$$$$
default_name
  -OEChem-01062215323D

 33 32  0     1  0  0  0  0  0999 V2000
   -3.8420   -3.6918    1.5562 H   0  0  0  0  0  0  0  0  0  0  0  0
   -3.8430   -2.7008    1.1032 C   0  0  0  0  0  0  0  0  0  0  0  0
   -4.5510   -2.0608    1.6242 H   0  0  0  0  0  0  0  0  0  0  0  0
   -4.1140   -2.7798    0.0522 H   0  0  0  0  0  0  0  0  0  0  0  0
   -2.4570   -2.1098    1.2172 C   0  0  0  0  0  0  0  0  0  0  0  0
   -1.5600   -2.7438    1.7572 O   0  0  0  0  0  0  0  0  0  0  0  0
   -2.2870   -0.8898    0.7102 N   0  0  0  0  0  0  0  0  0  0  0  0
   -3.0820   -0.4218    0.2992 H   0  0  0  0  0  0  0  0  0  0  0  0
   -1.0240   -0.1468    0.7262 C   0  0  1  0  0  0  0  0  0  0  0  0
   -0.2737   -0.7491    1.2404 H   0  0  0  0  0  0  0  0  0  0  0  0
   -0.5641    0.0787   -0.7272 C   0  0  0  0  0  0  0  0  0  0  0  0
   -1.3884    0.5261   -1.2866 H   0  0  0  0  0  0  0  0  0  0  0  0
    0.2724    0.7789   -0.7353 H   0  0  0  0  0  0  0  0  0  0  0  0
   -0.1474   -1.2166   -1.4411 C   0  0  0  0  0  0  0  0  0  0  0  0
    0.6677   -1.6905   -0.8934 H   0  0  0  0  0  0  0  0  0  0  0  0
   -0.9994   -1.8982   -1.4745 H   0  0  0  0  0  0  0  0  0  0  0  0
    0.3224   -0.9267   -2.8712 C   0  0  0  0  0  0  0  0  0  0  0  0
   -0.4804   -0.4449   -3.4301 H   0  0  0  0  0  0  0  0  0  0  0  0
    1.1886   -0.2650   -2.8422 H   0  0  0  0  0  0  0  0  0  0  0  0
    0.7066   -2.2319   -3.5653 C   0  0  0  0  0  0  0  0  0  0  0  0
    1.5208   -2.7057   -3.0193 H   0  0  0  0  0  0  0  0  0  0  0  0
   -0.1523   -2.9009   -3.5794 H   0  0  0  0  0  0  0  0  0  0  0  0
    1.1395   -1.9927   -4.9469 N   0  0  0  0  0  0  0  0  0  0  0  0
    1.3982   -2.8723   -5.3693 H   0  0  0  0  0  0  0  0  0  0  0  0
    0.3768   -1.5824   -5.4667 H   0  0  0  0  0  0  0  0  0  0  0  0
   -1.1955    1.1738    1.4947 C   0  0  0  0  0  0  0  0  0  0  0  0
   -1.5322    2.1948    0.8987 O   0  0  0  0  0  0  0  0  0  0  0  0
   -0.9543    1.1511    2.8107 N   0  0  0  0  0  0  0  0  0  0  0  0
   -0.6970    0.2718    3.2280 H   0  0  0  0  0  0  0  0  0  0  0  0
   -1.0564    2.3227    3.6794 C   0  0  0  0  0  0  0  0  0  0  0  0
   -2.0486    2.7689    3.5820 H   0  0  0  0  0  0  0  0  0  0  0  0
   -0.8896    2.0396    4.7197 H   0  0  0  0  0  0  0  0  0  0  0  0
   -0.3126    3.0653    3.3832 H   0  0  0  0  0  0  0  0  0  0  0  0
  5  6  2  0  0  0  0
  5  7  1  0  0  0  0
  2  3  1  0  0  0  0
  2  4  1  0  0  0  0
  2  5  1  0  0  0  0
  1  2  1  0  0  0  0
 26 27  2  0  0  0  0
 26 28  1  0  0  0  0
 23 24  1  0  0  0  0
 23 25  1  0  0  0  0
 20 21  1  0  0  0  0
 20 22  1  0  0  0  0
 20 23  1  0  0  0  0
 17 18  1  0  0  0  0
 17 19  1  0  0  0  0
 17 20  1  0  0  0  0
 14 15  1  0  0  0  0
 14 16  1  0  0  0  0
 14 17  1  0  0  0  0
 11 12  1  0  0  0  0
 11 13  1  0  0  0  0
 11 14  1  0  0  0  0
  9 10  1  0  0  0  0
  9 11  1  0  0  0  0
  9 26  1  0  0  0  0
  7  8  1  0  0  0  0
  7  9  1  0  0  0  0
 30 31  1  0  0  0  0
 30 32  1  0  0  0  0
 30 33  1  0  0  0  0
 28 29  1  0  0  0  0
 28 30  1  0  0  0  0
M  END
$$$$
default_name
  -OEChem-01062215323D

 33 32  0     1  0  0  0  0  0999 V2000
   -3.8420   -3.6918    1.5562 H   0  0  0  0  0  0  0  0  0  0  0  0
   -3.8430   -2.7008    1.1032 C   0  0  0  0  0  0  0  0  0  0  0  0
   -4.5510   -2.0608    1.6242 H   0  0  0  0  0  0  0  0  0  0  0  0
   -4.1140   -2.7798    0.0522 H   0  0  0  0  0  0  0  0  0  0  0  0
   -2.4570   -2.1098    1.2172 C   0  0  0  0  0  0  0  0  0  0  0  0
   -1.5600   -2.7438    1.7572 O   0  0  0  0  0  0  0  0  0  0  0  0
   -2.2870   -0.8898    0.7102 N   0  0  0  0  0  0  0  0  0  0  0  0
   -3.0820   -0.4218    0.2992 H   0  0  0  0  0  0  0  0  0  0  0  0
   -1.0240   -0.1468    0.7262 C   0  0  1  0  0  0  0  0  0  0  0  0
   -0.2737   -0.7491    1.2404 H   0  0  0  0  0  0  0  0  0  0  0  0
   -0.5641    0.0787   -0.7272 C   0  0  0  0  0  0  0  0  0  0  0  0
   -1.3884    0.5261   -1.2866 H   0  0  0  0  0  0  0  0  0  0  0  0
    0.2724    0.7789   -0.7353 H   0  0  0  0  0  0  0  0  0  0  0  0
   -0.1474   -1.2166   -1.4411 C   0  0  0  0  0  0  0  0  0  0  0  0
    0.6677   -1.6905   -0.8934 H   0  0  0  0  0  0  0  0  0  0  0  0
   -0.9994   -1.8982   -1.4745 H   0  0  0  0  0  0  0  0  0  0  0  0
    0.3224   -0.9267   -2.8712 C   0  0  0  0  0  0  0  0  0  0  0  0
   -0.4804   -0.4449   -3.4301 H   0  0  0  0  0  0  0  0  0  0  0  0
    1.1886   -0.2650   -2.8422 H   0  0  0  0  0  0  0  0  0  0  0  0
    0.7066   -2.2319   -3.5653 C   0  0  0  0  0  0  0  0  0  0  0  0
    1.5208   -2.7057   -3.0193 H   0  0  0  0  0  0  0  0  0  0  0  0
   -0.1523   -2.9009   -3.5794 H   0  0  0  0  0  0  0  0  0  0  0  0
    1.1395   -1.9927   -4.9469 N   0  0  0  0  0  0  0  0  0  0  0  0
    1.3982   -2.8723   -5.3693 H   0  0  0  0  0  0  0  0  0  0  0  0
    0.3768   -1.5824   -5.4667 H   0  0  0  0  0  0  0  0  0  0  0  0
   -1.1955    1.1738    1.4947 C   0  0  0  0  0  0  0  0  0  0  0  0
   -1.7876    2.1172    0.9748 O   0  0  0  0  0  0  0  0  0  0  0  0
   -0.6693    1.2390    2.7233 N   0  0  0  0  0  0  0  0  0  0  0  0
   -0.2121    0.4181    3.0848 H   0  0  0  0  0  0  0  0  0  0  0  0
   -0.7320    2.4250    3.5760 C   0  0  0  0  0  0  0  0  0  0  0  0
   -1.7714    2.7379    3.6972 H   0  0  0  0  0  0  0  0  0  0  0  0
   -0.3039    2.2108    4.5564 H   0  0  0  0  0  0  0  0  0  0  0  0
   -0.1770    3.2419    3.1101 H   0  0  0  0  0  0  0  0  0  0  0  0
  5  6  2  0  0  0  0
  5  7  1  0  0  0  0
  2  3  1  0  0  0  0
  2  4  1  0  0  0  0
  2  5  1  0  0  0  0
  1  2  1  0  0  0  0
 26 27  2  0  0  0  0
 26 28  1  0  0  0  0
 23 24  1  0  0  0  0
 23 25  1  0  0  0  0
 20 21  1  0  0  0  0
 20 22  1  0  0  0  0
 20 23  1  0  0  0  0
 17 18  1  0  0  0  0
 17 19  1  0  0  0  0
 17 20  1  0  0  0  0
 14 15  1  0  0  0  0
 14 16  1  0  0  0  0
 14 17  1  0  0  0  0
 11 12  1  0  0  0  0
 11 13  1  0  0  0  0
 11 14  1  0  0  0  0
  9 10  1  0  0  0  0
  9 11  1  0  0  0  0
  9 26  1  0  0  0  0
  7  8  1  0  0  0  0
  7  9  1  0  0  0  0
 30 31  1  0  0  0  0
 30 32  1  0  0  0  0
 30 33  1  0  0  0  0
 28 29  1  0  0  0  0
 28 30  1  0  0  0  0
M  END
$$$$
default_name
  -OEChem-01062215323D

 33 32  0     1  0  0  0  0  0999 V2000
   -3.8420   -3.6918    1.5562 H   0  0  0  0  0  0  0  0  0  0  0  0
   -3.8430   -2.7008    1.1032 C   0  0  0  0  0  0  0  0  0  0  0  0
   -4.5510   -2.0608    1.6242 H   0  0  0  0  0  0  0  0  0  0  0  0
   -4.1140   -2.7798    0.0522 H   0  0  0  0  0  0  0  0  0  0  0  0
   -2.4570   -2.1098    1.2172 C   0  0  0  0  0  0  0  0  0  0  0  0
   -1.5600   -2.7438    1.7572 O   0  0  0  0  0  0  0  0  0  0  0  0
   -2.2870   -0.8898    0.7102 N   0  0  0  0  0  0  0  0  0  0  0  0
   -3.0820   -0.4218    0.2992 H   0  0  0  0  0  0  0  0  0  0  0  0
   -1.0240   -0.1468    0.7262 C   0  0  1  0  0  0  0  0  0  0  0  0
   -0.2737   -0.7491    1.2404 H   0  0  0  0  0  0  0  0  0  0  0  0
   -0.5641    0.0787   -0.7272 C   0  0  0  0  0  0  0  0  0  0  0  0
   -1.3884    0.5261   -1.2866 H   0  0  0  0  0  0  0  0  0  0  0  0
    0.2724    0.7789   -0.7353 H   0  0  0  0  0  0  0  0  0  0  0  0
   -0.1474   -1.2166   -1.4411 C   0  0  0  0  0  0  0  0  0  0  0  0
    0.6677   -1.6905   -0.8934 H   0  0  0  0  0  0  0  0  0  0  0  0
   -0.9994   -1.8982   -1.4745 H   0  0  0  0  0  0  0  0  0  0  0  0
    0.3224   -0.9267   -2.8712 C   0  0  0  0  0  0  0  0  0  0  0  0
   -0.4804   -0.4449   -3.4301 H   0  0  0  0  0  0  0  0  0  0  0  0
    1.1886   -0.2650   -2.8422 H   0  0  0  0  0  0  0  0  0  0  0  0
    0.7066   -2.2319   -3.5653 C   0  0  0  0  0  0  0  0  0  0  0  0
    1.5208   -2.7057   -3.0193 H   0  0  0  0  0  0  0  0  0  0  0  0
   -0.1523   -2.9009   -3.5794 H   0  0  0  0  0  0  0  0  0  0  0  0
    1.1395   -1.9927   -4.9469 N   0  0  0  0  0  0  0  0  0  0  0  0
    1.3982   -2.8723   -5.3693 H   0  0  0  0  0  0  0  0  0  0  0  0
    0.3768   -1.5824   -5.4667 H   0  0  0  0  0  0  0  0  0  0  0  0
   -1.1955    1.1738    1.4947 C   0  0  0  0  0  0  0  0  0  0  0  0
   -2.0074    2.0115    1.1074 O   0  0  0  0  0  0  0  0  0  0  0  0
   -0.4249    1.3582    2.5730 N   0  0  0  0  0  0  0  0  0  0  0  0
    0.2055    0.6180    2.8344 H   0  0  0  0  0  0  0  0  0  0  0  0
   -0.4548    2.5628    3.4011 C   0  0  0  0  0  0  0  0  0  0  0  0
   -1.4741    2.7471    3.7477 H   0  0  0  0  0  0  0  0  0  0  0  0
    0.2033    2.4471    4.2634 H   0  0  0  0  0  0  0  0  0  0  0  0
   -0.1296    3.4221    2.8110 H   0  0  0  0  0  0  0  0  0  0  0  0
  5  6  2  0  0  0  0
  5  7  1  0  0  0  0
  2  3  1  0  0  0  0
  2  4  1  0  0  0  0
  2  5  1  0  0  0  0
  1  2  1  0  0  0  0
 26 27  2  0  0  0  0
 26 28  1  0  0  0  0
 23 24  1  0  0  0  0
 23 25  1  0  0  0  0
 20 21  1  0  0  0  0
 20 22  1  0  0  0  0
 20 23  1  0  0  0  0
 17 18  1  0  0  0  0
 17 19  1  0  0  0  0
 17 20  1  0  0  0  0
 14 15  1  0  0  0  0
 14 16  1  0  0  0  0
 14 17  1  0  0  0  0
 11 12  1  0  0  0  0
 11 13  1  0  0  0  0
 11 14  1  0  0  0  0
  9 10  1  0  0  0  0
  9 11  1  0  0  0  0
  9 26  1  0  0  0  0
  7  8  1  0  0  0  0
  7  9  1  0  0  0  0
 30 31  1  0  0  0  0
 30 32  1  0  0  0  0
 30 33  1  0  0  0  0
 28 29  1  0  0  0  0
 28 30  1  0  0  0  0
M  END
$$$$
default_name
  -OEChem-01062215323D

 33 32  0     1  0  0  0  0  0999 V2000
   -3.8420   -3.6918    1.5562 H   0  0  0  0  0  0  0  0  0  0  0  0
   -3.8430   -2.7008    1.1032 C   0  0  0  0  0  0  0  0  0  0  0  0
   -4.5510   -2.0608    1.6242 H   0  0  0  0  0  0  0  0  0  0  0  0
   -4.1140   -2.7798    0.0522 H   0  0  0  0  0  0  0  0  0  0  0  0
   -2.4570   -2.1098    1.2172 C   0  0  0  0  0  0  0  0  0  0  0  0
   -1.5600   -2.7438    1.7572 O   0  0  0  0  0  0  0  0  0  0  0  0
   -2.2870   -0.8898    0.7102 N   0  0  0  0  0  0  0  0  0  0  0  0
   -3.0820   -0.4218    0.2992 H   0  0  0  0  0  0  0  0  0  0  0  0
   -1.0240   -0.1468    0.7262 C   0  0  1  0  0  0  0  0  0  0  0  0
   -0.2737   -0.7491    1.2404 H   0  0  0  0  0  0  0  0  0  0  0  0
   -0.5641    0.0787   -0.7272 C   0  0  0  0  0  0  0  0  0  0  0  0
   -1.3884    0.5261   -1.2866 H   0  0  0  0  0  0  0  0  0  0  0  0
    0.2724    0.7789   -0.7353 H   0  0  0  0  0  0  0  0  0  0  0  0
   -0.1474   -1.2166   -1.4411 C   0  0  0  0  0  0  0  0  0  0  0  0
    0.6677   -1.6905   -0.8934 H   0  0  0  0  0  0  0  0  0  0  0  0
   -0.9994   -1.8982   -1.4745 H   0  0  0  0  0  0  0  0  0  0  0  0
    0.3224   -0.9267   -2.8712 C   0  0  0  0  0  0  0  0  0  0  0  0
   -0.4804   -0.4449   -3.4301 H   0  0  0  0  0  0  0  0  0  0  0  0
    1.1886   -0.2650   -2.8422 H   0  0  0  0  0  0  0  0  0  0  0  0
    0.7066   -2.2319   -3.5653 C   0  0  0  0  0  0  0  0  0  0  0  0
    1.5208   -2.7057   -3.0193 H   0  0  0  0  0  0  0  0  0  0  0  0
   -0.1523   -2.9009   -3.5794 H   0  0  0  0  0  0  0  0  0  0  0  0
    1.1395   -1.9927   -4.9469 N   0  0  0  0  0  0  0  0  0  0  0  0
    1.3982   -2.8723   -5.3693 H   0  0  0  0  0  0  0  0  0  0  0  0
    0.3768   -1.5824   -5.4667 H   0  0  0  0  0  0  0  0  0  0  0  0
   -1.1955    1.1738    1.4947 C   0  0  0  0  0  0  0  0  0  0  0  0
   -2.1766    1.8848    1.2874 O   0  0  0  0  0  0  0  0  0  0  0  0
   -0.2377    1.5006    2.3700 N   0  0  0  0  0  0  0  0  0  0  0  0
    0.5273    0.8579    2.4940 H   0  0  0  0  0  0  0  0  0  0  0  0
   -0.2438    2.7267    3.1665 C   0  0  0  0  0  0  0  0  0  0  0  0
   -1.1768    2.7960    3.7302 H   0  0  0  0  0  0  0  0  0  0  0  0
    0.5976    2.7326    3.8609 H   0  0  0  0  0  0  0  0  0  0  0  0
   -0.1735    3.5937    2.5063 H   0  0  0  0  0  0  0  0  0  0  0  0
  5  6  2  0  0  0  0
  5  7  1  0  0  0  0
  2  3  1  0  0  0  0
  2  4  1  0  0  0  0
  2  5  1  0  0  0  0
  1  2  1  0  0  0  0
 26 27  2  0  0  0  0
 26 28  1  0  0  0  0
 23 24  1  0  0  0  0
 23 25  1  0  0  0  0
 20 21  1  0  0  0  0
 20 22  1  0  0  0  0
 20 23  1  0  0  0  0
 17 18  1  0  0  0  0
 17 19  1  0  0  0  0
 17 20  1  0  0  0  0
 14 15  1  0  0  0  0
 14 16  1  0  0  0  0
 14 17  1  0  0  0  0
 11 12  1  0  0  0  0
 11 13  1  0  0  0  0
 11 14  1  0  0  0  0
  9 10  1  0  0  0  0
  9 11  1  0  0  0  0
  9 26  1  0  0  0  0
  7  8  1  0  0  0  0
  7  9  1  0  0  0  0
 30 31  1  0  0  0  0
 30 32  1  0  0  0  0
 30 33  1  0  0  0  0
 28 29  1  0  0  0  0
 28 30  1  0  0  0  0
M  END
$$$$
default_name
  -OEChem-01062215323D

 33 32  0     1  0  0  0  0  0999 V2000
   -3.8420   -3.6918    1.5562 H   0  0  0  0  0  0  0  0  0  0  0  0
   -3.8430   -2.7008    1.1032 C   0  0  0  0  0  0  0  0  0  0  0  0
   -4.5510   -2.0608    1.6242 H   0  0  0  0  0  0  0  0  0  0  0  0
   -4.1140   -2.7798    0.0522 H   0  0  0  0  0  0  0  0  0  0  0  0
   -2.4570   -2.1098    1.2172 C   0  0  0  0  0  0  0  0  0  0  0  0
   -1.5600   -2.7438    1.7572 O   0  0  0  0  0  0  0  0  0  0  0  0
   -2.2870   -0.8898    0.7102 N   0  0  0  0  0  0  0  0  0  0  0  0
   -3.0820   -0.4218    0.2992 H   0  0  0  0  0  0  0  0  0  0  0  0
   -1.0240   -0.1468    0.7262 C   0  0  1  0  0  0  0  0  0  0  0  0
   -0.2737   -0.7491    1.2404 H   0  0  0  0  0  0  0  0  0  0  0  0
   -0.5641    0.0787   -0.7272 C   0  0  0  0  0  0  0  0  0  0  0  0
   -1.3884    0.5261   -1.2866 H   0  0  0  0  0  0  0  0  0  0  0  0
    0.2724    0.7789   -0.7353 H   0  0  0  0  0  0  0  0  0  0  0  0
   -0.1474   -1.2166   -1.4411 C   0  0  0  0  0  0  0  0  0  0  0  0
    0.6677   -1.6905   -0.8934 H   0  0  0  0  0  0  0  0  0  0  0  0
   -0.9994   -1.8982   -1.4745 H   0  0  0  0  0  0  0  0  0  0  0  0
    0.3224   -0.9267   -2.8712 C   0  0  0  0  0  0  0  0  0  0  0  0
   -0.4804   -0.4449   -3.4301 H   0  0  0  0  0  0  0  0  0  0  0  0
    1.1886   -0.2650   -2.8422 H   0  0  0  0  0  0  0  0  0  0  0  0
    0.7066   -2.2319   -3.5653 C   0  0  0  0  0  0  0  0  0  0  0  0
    1.5208   -2.7057   -3.0193 H   0  0  0  0  0  0  0  0  0  0  0  0
   -0.1523   -2.9009   -3.5794 H   0  0  0  0  0  0  0  0  0  0  0  0
    1.1395   -1.9927   -4.9469 N   0  0  0  0  0  0  0  0  0  0  0  0
    1.3982   -2.8723   -5.3693 H   0  0  0  0  0  0  0  0  0  0  0  0
    0.3768   -1.5824   -5.4667 H   0  0  0  0  0  0  0  0  0  0  0  0
   -1.1955    1.1738    1.4947 C   0  0  0  0  0  0  0  0  0  0  0  0
   -2.2835    1.7457    1.5025 O   0  0  0  0  0  0  0  0  0  0  0  0
   -0.1203    1.6566    2.1282 N   0  0  0  0  0  0  0  0  0  0  0  0
    0.7315    1.1215    2.0867 H   0  0  0  0  0  0  0  0  0  0  0  0
   -0.1134    2.9056    2.8883 C   0  0  0  0  0  0  0  0  0  0  0  0
   -0.8999    2.8811    3.6457 H   0  0  0  0  0  0  0  0  0  0  0  0
    0.8520    3.0477    3.3762 H   0  0  0  0  0  0  0  0  0  0  0  0
   -0.3059    3.7450    2.2169 H   0  0  0  0  0  0  0  0  0  0  0  0
  5  6  2  0  0  0  0
  5  7  1  0  0  0  0
  2  3  1  0  0  0  0
  2  4  1  0  0  0  0
  2  5  1  0  0  0  0
  1  2  1  0  0  0  0
 26 27  2  0  0  0  0
 26 28  1  0  0  0  0
 23 24  1  0  0  0  0
 23 25  1  0  0  0  0
 20 21  1  0  0  0  0
 20 22  1  0  0  0  0
 20 23  1  0  0  0  0
 17 18  1  0  0  0  0
 17 19  1  0  0  0  0
 17 20  1  0  0  0  0
 14 15  1  0  0  0  0
 14 16  1  0  0  0  0
 14 17  1  0  0  0  0
 11 12  1  0  0  0  0
 11 13  1  0  0  0  0
 11 14  1  0  0  0  0
  9 10  1  0  0  0  0
  9 11  1  0  0  0  0
  9 26  1  0  0  0  0
  7  8  1  0  0  0  0
  7  9  1  0  0  0  0
 30 31  1  0  0  0  0
 30 32  1  0  0  0  0
 30 33  1  0  0  0  0
 28 29  1  0  0  0  0
 28 30  1  0  0  0  0
M  END
$$$$
default_name
  -OEChem-01062215323D

 33 32  0     1  0  0  0  0  0999 V2000
   -3.8420   -3.6918    1.5562 H   0  0  0  0  0  0  0  0  0  0  0  0
   -3.8430   -2.7008    1.1032 C   0  0  0  0  0  0  0  0  0  0  0  0
   -4.5510   -2.0608    1.6242 H   0  0  0  0  0  0  0  0  0  0  0  0
   -4.1140   -2.7798    0.0522 H   0  0  0  0  0  0  0  0  0  0  0  0
   -2.4570   -2.1098    1.2172 C   0  0  0  0  0  0  0  0  0  0  0  0
   -1.5600   -2.7438    1.7572 O   0  0  0  0  0  0  0  0  0  0  0  0
   -2.2870   -0.8898    0.7102 N   0  0  0  0  0  0  0  0  0  0  0  0
   -3.0820   -0.4218    0.2992 H   0  0  0  0  0  0  0  0  0  0  0  0
   -1.0240   -0.1468    0.7262 C   0  0  1  0  0  0  0  0  0  0  0  0
   -0.2737   -0.7491    1.2404 H   0  0  0  0  0  0  0  0  0  0  0  0
   -0.5641    0.0787   -0.7272 C   0  0  0  0  0  0  0  0  0  0  0  0
   -1.3884    0.5261   -1.2866 H   0  0  0  0  0  0  0  0  0  0  0  0
    0.2724    0.7789   -0.7353 H   0  0  0  0  0  0  0  0  0  0  0  0
   -0.1474   -1.2166   -1.4411 C   0  0  0  0  0  0  0  0  0  0  0  0
    0.6677   -1.6905   -0.8934 H   0  0  0  0  0  0  0  0  0  0  0  0
   -0.9994   -1.8982   -1.4745 H   0  0  0  0  0  0  0  0  0  0  0  0
    0.3224   -0.9267   -2.8712 C   0  0  0  0  0  0  0  0  0  0  0  0
   -0.4804   -0.4449   -3.4301 H   0  0  0  0  0  0  0  0  0  0  0  0
    1.1886   -0.2650   -2.8422 H   0  0  0  0  0  0  0  0  0  0  0  0
    0.7066   -2.2319   -3.5653 C   0  0  0  0  0  0  0  0  0  0  0  0
    1.5208   -2.7057   -3.0193 H   0  0  0  0  0  0  0  0  0  0  0  0
   -0.1523   -2.9009   -3.5794 H   0  0  0  0  0  0  0  0  0  0  0  0
    1.1395   -1.9927   -4.9469 N   0  0  0  0  0  0  0  0  0  0  0  0
    1.3982   -2.8723   -5.3693 H   0  0  0  0  0  0  0  0  0  0  0  0
    0.3768   -1.5824   -5.4667 H   0  0  0  0  0  0  0  0  0  0  0  0
   -1.1955    1.1738    1.4947 C   0  0  0  0  0  0  0  0  0  0  0  0
   -2.3211    1.6037    1.7381 O   0  0  0  0  0  0  0  0  0  0  0  0
   -0.0809    1.8154    1.8641 N   0  0  0  0  0  0  0  0  0  0  0  0
    0.8040    1.3907    1.6403 H   0  0  0  0  0  0  0  0  0  0  0  0
   -0.0723    3.0872    2.5854 C   0  0  0  0  0  0  0  0  0  0  0  0
   -0.6622    2.9967    3.5001 H   0  0  0  0  0  0  0  0  0  0  0  0
    0.9492    3.3710    2.8424 H   0  0  0  0  0  0  0  0  0  0  0  0
   -0.5177    3.8656    1.9623 H   0  0  0  0  0  0  0  0  0  0  0  0
  5  6  2  0  0  0  0
  5  7  1  0  0  0  0
  2  3  1  0  0  0  0
  2  4  1  0  0  0  0
  2  5  1  0  0  0  0
  1  2  1  0  0  0  0
 26 27  2  0  0  0  0
 26 28  1  0  0  0  0
 23 24  1  0  0  0  0
 23 25  1  0  0  0  0
 20 21  1  0  0  0  0
 20 22  1  0  0  0  0
 20 23  1  0  0  0  0
 17 18  1  0  0  0  0
 17 19  1  0  0  0  0
 17 20  1  0  0  0  0
 14 15  1  0  0  0  0
 14 16  1  0  0  0  0
 14 17  1  0  0  0  0
 11 12  1  0  0  0  0
 11 13  1  0  0  0  0
 11 14  1  0  0  0  0
  9 10  1  0  0  0  0
  9 11  1  0  0  0  0
  9 26  1  0  0  0  0
  7  8  1  0  0  0  0
  7  9  1  0  0  0  0
 30 31  1  0  0  0  0
 30 32  1  0  0  0  0
 30 33  1  0  0  0  0
 28 29  1  0  0  0  0
 28 30  1  0  0  0  0
M  END
$$$$
default_name
  -OEChem-01062215323D

 33 32  0     1  0  0  0  0  0999 V2000
   -3.8420   -3.6918    1.5562 H   0  0  0  0  0  0  0  0  0  0  0  0
   -3.8430   -2.7008    1.1032 C   0  0  0  0  0  0  0  0  0  0  0  0
   -4.5510   -2.0608    1.6242 H   0  0  0  0  0  0  0  0  0  0  0  0
   -4.1140   -2.7798    0.0522 H   0  0  0  0  0  0  0  0  0  0  0  0
   -2.4570   -2.1098    1.2172 C   0  0  0  0  0  0  0  0  0  0  0  0
   -1.5600   -2.7438    1.7572 O   0  0  0  0  0  0  0  0  0  0  0  0
   -2.2870   -0.8898    0.7102 N   0  0  0  0  0  0  0  0  0  0  0  0
   -3.0820   -0.4218    0.2992 H   0  0  0  0  0  0  0  0  0  0  0  0
   -1.0240   -0.1468    0.7262 C   0  0  1  0  0  0  0  0  0  0  0  0
   -0.2200   -0.8351    0.9902 H   0  0  0  0  0  0  0  0  0  0  0  0
   -0.7566    0.4051   -0.6876 C   0  0  0  0  0  0  0  0  0  0  0  0
   -1.6418    0.9512   -1.0201 H   0  0  0  0  0  0  0  0  0  0  0  0
    0.0799    1.1041   -0.6486 H   0  0  0  0  0  0  0  0  0  0  0  0
   -0.4531   -0.6910   -1.7209 C   0  0  0  0  0  0  0  0  0  0  0  0
    0.4212   -1.2605   -1.4043 H   0  0  0  0  0  0  0  0  0  0  0  0
   -1.3102   -1.3629   -1.7938 H   0  0  0  0  0  0  0  0  0  0  0  0
   -0.1720   -0.0813   -3.0990 C   0  0  0  0  0  0  0  0  0  0  0  0
   -1.0355    0.4986   -3.4262 H   0  0  0  0  0  0  0  0  0  0  0  0
    0.6983    0.5725   -3.0366 H   0  0  0  0  0  0  0  0  0  0  0  0
    0.1017   -1.1920   -4.1112 C   0  0  0  0  0  0  0  0  0  0  0  0
    0.9749   -1.7610   -3.7961 H   0  0  0  0  0  0  0  0  0  0  0  0
   -0.7595   -1.8562   -4.1617 H   0  0  0  0  0  0  0  0  0  0  0  0
    0.3520   -0.6433   -5.4489 N   0  0  0  0  0  0  0  0  0  0  0  0
    0.5422   -1.4018   -6.0872 H   0  0  0  0  0  0  0  0  0  0  0  0
   -0.4675   -0.1410   -5.7596 H   0  0  0  0  0  0  0  0  0  0  0  0
   -1.0770    0.9661    1.7858 C   0  0  0  0  0  0  0  0  0  0  0  0
   -2.0913    1.1263    2.4614 O   0  0  0  0  0  0  0  0  0  0  0  0
    0.0098    1.7350    1.9197 N   0  0  0  0  0  0  0  0  0  0  0  0
    0.8066    1.5308    1.3391 H   0  0  0  0  0  0  0  0  0  0  0  0
    0.1138    2.8430    2.8681 C   0  0  0  0  0  0  0  0  0  0  0  0
   -0.1061    2.4870    3.8770 H   0  0  0  0  0  0  0  0  0  0  0  0
    1.1186    3.2676    2.8471 H   0  0  0  0  0  0  0  0  0  0  0  0
   -0.6111    3.6173    2.6088 H   0  0  0  0  0  0  0  0  0  0  0  0
  5  6  2  0  0  0  0
  5  7  1  0  0  0  0
  2  3  1  0  0  0  0
  2  4  1  0  0  0  0
  2  5  1  0  0  0  0
  1  2  1  0  0  0  0
 26 27  2  0  0  0  0
 26 28  1  0  0  0  0
 23 24  1  0  0  0  0
 23 25  1  0  0  0  0
 20 21  1  0  0  0  0
 20 22  1  0  0  0  0
 20 23  1  0  0  0  0
 17 18  1  0  0  0  0
 17 19  1  0  0  0  0
 17 20  1  0  0  0  0
 14 15  1  0  0  0  0
 14 16  1  0  0  0  0
 14 17  1  0  0  0  0
 11 12  1  0  0  0  0
 11 13  1  0  0  0  0
 11 14  1  0  0  0  0
  9 10  1  0  0  0  0
  9 11  1  0  0  0  0
  9 26  1  0  0  0  0
  7  8  1  0  0  0  0
  7  9  1  0  0  0  0
 30 31  1  0  0  0  0
 30 32  1  0  0  0  0
 30 33  1  0  0  0  0
 28 29  1  0  0  0  0
 28 30  1  0  0  0  0
M  END
$$$$
default_name
  -OEChem-01062215323D

 33 32  0     1  0  0  0  0  0999 V2000
   -3.8420   -3.6918    1.5562 H   0  0  0  0  0  0  0  0  0  0  0  0
   -3.8430   -2.7008    1.1032 C   0  0  0  0  0  0  0  0  0  0  0  0
   -4.5510   -2.0608    1.6242 H   0  0  0  0  0  0  0  0  0  0  0  0
   -4.1140   -2.7798    0.0522 H   0  0  0  0  0  0  0  0  0  0  0  0
   -2.4570   -2.1098    1.2172 C   0  0  0  0  0  0  0  0  0  0  0  0
   -1.5600   -2.7438    1.7572 O   0  0  0  0  0  0  0  0  0  0  0  0
   -2.2870   -0.8898    0.7102 N   0  0  0  0  0  0  0  0  0  0  0  0
   -3.0820   -0.4218    0.2992 H   0  0  0  0  0  0  0  0  0  0  0  0
   -1.0240   -0.1468    0.7262 C   0  0  1  0  0  0  0  0  0  0  0  0
   -0.2200   -0.8351    0.9902 H   0  0  0  0  0  0  0  0  0  0  0  0
   -0.7566    0.4051   -0.6876 C   0  0  0  0  0  0  0  0  0  0  0  0
   -1.6418    0.9512   -1.0201 H   0  0  0  0  0  0  0  0  0  0  0  0
    0.0799    1.1041   -0.6486 H   0  0  0  0  0  0  0  0  0  0  0  0
   -0.4531   -0.6910   -1.7209 C   0  0  0  0  0  0  0  0  0  0  0  0
    0.4212   -1.2605   -1.4043 H   0  0  0  0  0  0  0  0  0  0  0  0
   -1.3102   -1.3629   -1.7938 H   0  0  0  0  0  0  0  0  0  0  0  0
   -0.1720   -0.0813   -3.0990 C   0  0  0  0  0  0  0  0  0  0  0  0
   -1.0355    0.4986   -3.4262 H   0  0  0  0  0  0  0  0  0  0  0  0
    0.6983    0.5725   -3.0366 H   0  0  0  0  0  0  0  0  0  0  0  0
    0.1017   -1.1920   -4.1112 C   0  0  0  0  0  0  0  0  0  0  0  0
    0.9749   -1.7610   -3.7961 H   0  0  0  0  0  0  0  0  0  0  0  0
   -0.7595   -1.8562   -4.1617 H   0  0  0  0  0  0  0  0  0  0  0  0
    0.3520   -0.6433   -5.4489 N   0  0  0  0  0  0  0  0  0  0  0  0
    0.5422   -1.4018   -6.0872 H   0  0  0  0  0  0  0  0  0  0  0  0
   -0.4675   -0.1410   -5.7596 H   0  0  0  0  0  0  0  0  0  0  0  0
   -1.0770    0.9661    1.7858 C   0  0  0  0  0  0  0  0  0  0  0  0
   -1.9595    0.9611    2.6414 O   0  0  0  0  0  0  0  0  0  0  0  0
   -0.1400    1.9190    1.7191 N   0  0  0  0  0  0  0  0  0  0  0  0
    0.5580    1.8445    0.9973 H   0  0  0  0  0  0  0  0  0  0  0  0
   -0.0612    3.0520    2.6398 C   0  0  0  0  0  0  0  0  0  0  0  0
   -0.0217    2.6889    3.6692 H   0  0  0  0  0  0  0  0  0  0  0  0
    0.8293    3.6475    2.4337 H   0  0  0  0  0  0  0  0  0  0  0  0
   -0.9486    3.6783    2.5279 H   0  0  0  0  0  0  0  0  0  0  0  0
  5  6  2  0  0  0  0
  5  7  1  0  0  0  0
  2  3  1  0  0  0  0
  2  4  1  0  0  0  0
  2  5  1  0  0  0  0
  1  2  1  0  0  0  0
 26 27  2  0  0  0  0
 26 28  1  0  0  0  0
 23 24  1  0  0  0  0
 23 25  1  0  0  0  0
 20 21  1  0  0  0  0
 20 22  1  0  0  0  0
 20 23  1  0  0  0  0
 17 18  1  0  0  0  0
 17 19  1  0  0  0  0
 17 20  1  0  0  0  0
 14 15  1  0  0  0  0
 14 16  1  0  0  0  0
 14 17  1  0  0  0  0
 11 12  1  0  0  0  0
 11 13  1  0  0  0  0
 11 14  1  0  0  0  0
  9 10  1  0  0  0  0
  9 11  1  0  0  0  0
  9 26  1  0  0  0  0
  7  8  1  0  0  0  0
  7  9  1  0  0  0  0
 30 31  1  0  0  0  0
 30 32  1  0  0  0  0
 30 33  1  0  0  0  0
 28 29  1  0  0  0  0
 28 30  1  0  0  0  0
M  END
$$$$
default_name
  -OEChem-01062215323D

 33 32  0     1  0  0  0  0  0999 V2000
   -3.8420   -3.6918    1.5562 H   0  0  0  0  0  0  0  0  0  0  0  0
   -3.8430   -2.7008    1.1032 C   0  0  0  0  0  0  0  0  0  0  0  0
   -4.5510   -2.0608    1.6242 H   0  0  0  0  0  0  0  0  0  0  0  0
   -4.1140   -2.7798    0.0522 H   0  0  0  0  0  0  0  0  0  0  0  0
   -2.4570   -2.1098    1.2172 C   0  0  0  0  0  0  0  0  0  0  0  0
   -1.5600   -2.7438    1.7572 O   0  0  0  0  0  0  0  0  0  0  0  0
   -2.2870   -0.8898    0.7102 N   0  0  0  0  0  0  0  0  0  0  0  0
   -3.0820   -0.4218    0.2992 H   0  0  0  0  0  0  0  0  0  0  0  0
   -1.0240   -0.1468    0.7262 C   0  0  1  0  0  0  0  0  0  0  0  0
   -0.2200   -0.8351    0.9902 H   0  0  0  0  0  0  0  0  0  0  0  0
   -0.7566    0.4051   -0.6876 C   0  0  0  0  0  0  0  0  0  0  0  0
   -1.6418    0.9512   -1.0201 H   0  0  0  0  0  0  0  0  0  0  0  0
    0.0799    1.1041   -0.6486 H   0  0  0  0  0  0  0  0  0  0  0  0
   -0.4531   -0.6910   -1.7209 C   0  0  0  0  0  0  0  0  0  0  0  0
    0.4212   -1.2605   -1.4043 H   0  0  0  0  0  0  0  0  0  0  0  0
   -1.3102   -1.3629   -1.7938 H   0  0  0  0  0  0  0  0  0  0  0  0
   -0.1720   -0.0813   -3.0990 C   0  0  0  0  0  0  0  0  0  0  0  0
   -1.0355    0.4986   -3.4262 H   0  0  0  0  0  0  0  0  0  0  0  0
    0.6983    0.5725   -3.0366 H   0  0  0  0  0  0  0  0  0  0  0  0
    0.1017   -1.1920   -4.1112 C   0  0  0  0  0  0  0  0  0  0  0  0
    0.9749   -1.7610   -3.7961 H   0  0  0  0  0  0  0  0  0  0  0  0
   -0.7595   -1.8562   -4.1617 H   0  0  0  0  0  0  0  0  0  0  0  0
    0.3520   -0.6433   -5.4489 N   0  0  0  0  0  0  0  0  0  0  0  0
    0.5422   -1.4018   -6.0872 H   0  0  0  0  0  0  0  0  0  0  0  0
   -0.4675   -0.1410   -5.7596 H   0  0  0  0  0  0  0  0  0  0  0  0
   -1.0770    0.9661    1.7858 C   0  0  0  0  0  0  0  0  0  0  0  0
   -1.7690    0.8267    2.7921 O   0  0  0  0  0  0  0  0  0  0  0  0
   -0.3551    2.0681    1.5517 N   0  0  0  0  0  0  0  0  0  0  0  0
    0.1978    2.1000    0.7109 H   0  0  0  0  0  0  0  0  0  0  0  0
   -0.3103    3.2206    2.4503 C   0  0  0  0  0  0  0  0  0  0  0  0
   -0.0151    2.8971    3.4508 H   0  0  0  0  0  0  0  0  0  0  0  0
    0.4047    3.9592    2.0851 H   0  0  0  0  0  0  0  0  0  0  0  0
   -1.3007    3.6764    2.5123 H   0  0  0  0  0  0  0  0  0  0  0  0
  5  6  2  0  0  0  0
  5  7  1  0  0  0  0
  2  3  1  0  0  0  0
  2  4  1  0  0  0  0
  2  5  1  0  0  0  0
  1  2  1  0  0  0  0
 26 27  2  0  0  0  0
 26 28  1  0  0  0  0
 23 24  1  0  0  0  0
 23 25  1  0  0  0  0
 20 21  1  0  0  0  0
 20 22  1  0  0  0  0
 20 23  1  0  0  0  0
 17 18  1  0  0  0  0
 17 19  1  0  0  0  0
 17 20  1  0  0  0  0
 14 15  1  0  0  0  0
 14 16  1  0  0  0  0
 14 17  1  0  0  0  0
 11 12  1  0  0  0  0
 11 13  1  0  0  0  0
 11 14  1  0  0  0  0
  9 10  1  0  0  0  0
  9 11  1  0  0  0  0
  9 26  1  0  0  0  0
  7  8  1  0  0  0  0
  7  9  1  0  0  0  0
 30 31  1  0  0  0  0
 30 32  1  0  0  0  0
 30 33  1  0  0  0  0
 28 29  1  0  0  0  0
 28 30  1  0  0  0  0
M  END
$$$$
default_name
  -OEChem-01062215323D

 33 32  0     1  0  0  0  0  0999 V2000
   -3.8420   -3.6918    1.5562 H   0  0  0  0  0  0  0  0  0  0  0  0
   -3.8430   -2.7008    1.1032 C   0  0  0  0  0  0  0  0  0  0  0  0
   -4.5510   -2.0608    1.6242 H   0  0  0  0  0  0  0  0  0  0  0  0
   -4.1140   -2.7798    0.0522 H   0  0  0  0  0  0  0  0  0  0  0  0
   -2.4570   -2.1098    1.2172 C   0  0  0  0  0  0  0  0  0  0  0  0
   -1.5600   -2.7438    1.7572 O   0  0  0  0  0  0  0  0  0  0  0  0
   -2.2870   -0.8898    0.7102 N   0  0  0  0  0  0  0  0  0  0  0  0
   -3.0820   -0.4218    0.2992 H   0  0  0  0  0  0  0  0  0  0  0  0
   -1.0240   -0.1468    0.7262 C   0  0  1  0  0  0  0  0  0  0  0  0
   -0.2200   -0.8351    0.9902 H   0  0  0  0  0  0  0  0  0  0  0  0
   -0.7566    0.4051   -0.6876 C   0  0  0  0  0  0  0  0  0  0  0  0
   -1.6418    0.9512   -1.0201 H   0  0  0  0  0  0  0  0  0  0  0  0
    0.0799    1.1041   -0.6486 H   0  0  0  0  0  0  0  0  0  0  0  0
   -0.4531   -0.6910   -1.7209 C   0  0  0  0  0  0  0  0  0  0  0  0
    0.4212   -1.2605   -1.4043 H   0  0  0  0  0  0  0  0  0  0  0  0
   -1.3102   -1.3629   -1.7938 H   0  0  0  0  0  0  0  0  0  0  0  0
   -0.1720   -0.0813   -3.0990 C   0  0  0  0  0  0  0  0  0  0  0  0
   -1.0355    0.4986   -3.4262 H   0  0  0  0  0  0  0  0  0  0  0  0
    0.6983    0.5725   -3.0366 H   0  0  0  0  0  0  0  0  0  0  0  0
    0.1017   -1.1920   -4.1112 C   0  0  0  0  0  0  0  0  0  0  0  0
    0.9749   -1.7610   -3.7961 H   0  0  0  0  0  0  0  0  0  0  0  0
   -0.7595   -1.8562   -4.1617 H   0  0  0  0  0  0  0  0  0  0  0  0
    0.3520   -0.6433   -5.4489 N   0  0  0  0  0  0  0  0  0  0  0  0
    0.5422   -1.4018   -6.0872 H   0  0  0  0  0  0  0  0  0  0  0  0
   -0.4675   -0.1410   -5.7596 H   0  0  0  0  0  0  0  0  0  0  0  0
   -1.0770    0.9661    1.7858 C   0  0  0  0  0  0  0  0  0  0  0  0
   -1.5328    0.7322    2.9032 O   0  0  0  0  0  0  0  0  0  0  0  0
   -0.6209    2.1723    1.4289 N   0  0  0  0  0  0  0  0  0  0  0  0
   -0.2493    2.2801    0.4995 H   0  0  0  0  0  0  0  0  0  0  0  0
   -0.6166    3.3373    2.3124 C   0  0  0  0  0  0  0  0  0  0  0  0
   -0.0868    3.0974    3.2369 H   0  0  0  0  0  0  0  0  0  0  0  0
   -0.1263    4.1814    1.8251 H   0  0  0  0  0  0  0  0  0  0  0  0
   -1.6433    3.6115    2.5633 H   0  0  0  0  0  0  0  0  0  0  0  0
  5  6  2  0  0  0  0
  5  7  1  0  0  0  0
  2  3  1  0  0  0  0
  2  4  1  0  0  0  0
  2  5  1  0  0  0  0
  1  2  1  0  0  0  0
 26 27  2  0  0  0  0
 26 28  1  0  0  0  0
 23 24  1  0  0  0  0
 23 25  1  0  0  0  0
 20 21  1  0  0  0  0
 20 22  1  0  0  0  0
 20 23  1  0  0  0  0
 17 18  1  0  0  0  0
 17 19  1  0  0  0  0
 17 20  1  0  0  0  0
 14 15  1  0  0  0  0
 14 16  1  0  0  0  0
 14 17  1  0  0  0  0
 11 12  1  0  0  0  0
 11 13  1  0  0  0  0
 11 14  1  0  0  0  0
  9 10  1  0  0  0  0
  9 11  1  0  0  0  0
  9 26  1  0  0  0  0
  7  8  1  0  0  0  0
  7  9  1  0  0  0  0
 30 31  1  0  0  0  0
 30 32  1  0  0  0  0
 30 33  1  0  0  0  0
 28 29  1  0  0  0  0
 28 30  1  0  0  0  0
M  END
$$$$
default_name
  -OEChem-01062215323D

 33 32  0     1  0  0  0  0  0999 V2000
   -3.8420   -3.6918    1.5562 H   0  0  0  0  0  0  0  0  0  0  0  0
   -3.8430   -2.7008    1.1032 C   0  0  0  0  0  0  0  0  0  0  0  0
   -4.5510   -2.0608    1.6242 H   0  0  0  0  0  0  0  0  0  0  0  0
   -4.1140   -2.7798    0.0522 H   0  0  0  0  0  0  0  0  0  0  0  0
   -2.4570   -2.1098    1.2172 C   0  0  0  0  0  0  0  0  0  0  0  0
   -1.5600   -2.7438    1.7572 O   0  0  0  0  0  0  0  0  0  0  0  0
   -2.2870   -0.8898    0.7102 N   0  0  0  0  0  0  0  0  0  0  0  0
   -3.0820   -0.4218    0.2992 H   0  0  0  0  0  0  0  0  0  0  0  0
   -1.0240   -0.1468    0.7262 C   0  0  1  0  0  0  0  0  0  0  0  0
   -0.2200   -0.8351    0.9902 H   0  0  0  0  0  0  0  0  0  0  0  0
   -0.7566    0.4051   -0.6876 C   0  0  0  0  0  0  0  0  0  0  0  0
   -1.6418    0.9512   -1.0201 H   0  0  0  0  0  0  0  0  0  0  0  0
    0.0799    1.1041   -0.6486 H   0  0  0  0  0  0  0  0  0  0  0  0
   -0.4531   -0.6910   -1.7209 C   0  0  0  0  0  0  0  0  0  0  0  0
    0.4212   -1.2605   -1.4043 H   0  0  0  0  0  0  0  0  0  0  0  0
   -1.3102   -1.3629   -1.7938 H   0  0  0  0  0  0  0  0  0  0  0  0
   -0.1720   -0.0813   -3.0990 C   0  0  0  0  0  0  0  0  0  0  0  0
   -1.0355    0.4986   -3.4262 H   0  0  0  0  0  0  0  0  0  0  0  0
    0.6983    0.5725   -3.0366 H   0  0  0  0  0  0  0  0  0  0  0  0
    0.1017   -1.1920   -4.1112 C   0  0  0  0  0  0  0  0  0  0  0  0
    0.9749   -1.7610   -3.7961 H   0  0  0  0  0  0  0  0  0  0  0  0
   -0.7595   -1.8562   -4.1617 H   0  0  0  0  0  0  0  0  0  0  0  0
    0.3520   -0.6433   -5.4489 N   0  0  0  0  0  0  0  0  0  0  0  0
    0.5422   -1.4018   -6.0872 H   0  0  0  0  0  0  0  0  0  0  0  0
   -0.4675   -0.1410   -5.7596 H   0  0  0  0  0  0  0  0  0  0  0  0
   -1.0770    0.9661    1.7858 C   0  0  0  0  0  0  0  0  0  0  0  0
   -1.2670    0.6840    2.9671 O   0  0  0  0  0  0  0  0  0  0  0  0
   -0.9191    2.2245    1.3593 N   0  0  0  0  0  0  0  0  0  0  0  0
   -0.7529    2.3723    0.3774 H   0  0  0  0  0  0  0  0  0  0  0  0
   -0.9590    3.3942    2.2355 C   0  0  0  0  0  0  0  0  0  0  0  0
   -0.2319    3.2762    3.0418 H   0  0  0  0  0  0  0  0  0  0  0  0
   -0.7276    4.2990    1.6716 H   0  0  0  0  0  0  0  0  0  0  0  0
   -1.9532    3.4882    2.6773 H   0  0  0  0  0  0  0  0  0  0  0  0
  5  6  2  0  0  0  0
  5  7  1  0  0  0  0
  2  3  1  0  0  0  0
  2  4  1  0  0  0  0
  2  5  1  0  0  0  0
  1  2  1  0  0  0  0
 26 27  2  0  0  0  0
 26 28  1  0  0  0  0
 23 24  1  0  0  0  0
 23 25  1  0  0  0  0
 20 21  1  0  0  0  0
 20 22  1  0  0  0  0
 20 23  1  0  0  0  0
 17 18  1  0  0  0  0
 17 19  1  0  0  0  0
 17 20  1  0  0  0  0
 14 15  1  0  0  0  0
 14 16  1  0  0  0  0
 14 17  1  0  0  0  0
 11 12  1  0  0  0  0
 11 13  1  0  0  0  0
 11 14  1  0  0  0  0
  9 10  1  0  0  0  0
  9 11  1  0  0  0  0
  9 26  1  0  0  0  0
  7  8  1  0  0  0  0
  7  9  1  0  0  0  0
 30 31  1  0  0  0  0
 30 32  1  0  0  0  0
 30 33  1  0  0  0  0
 28 29  1  0  0  0  0
 28 30  1  0  0  0  0
M  END
$$$$
default_name
  -OEChem-01062215323D

 33 32  0     1  0  0  0  0  0999 V2000
   -3.8420   -3.6918    1.5562 H   0  0  0  0  0  0  0  0  0  0  0  0
   -3.8430   -2.7008    1.1032 C   0  0  0  0  0  0  0  0  0  0  0  0
   -4.5510   -2.0608    1.6242 H   0  0  0  0  0  0  0  0  0  0  0  0
   -4.1140   -2.7798    0.0522 H   0  0  0  0  0  0  0  0  0  0  0  0
   -2.4570   -2.1098    1.2172 C   0  0  0  0  0  0  0  0  0  0  0  0
   -1.5600   -2.7438    1.7572 O   0  0  0  0  0  0  0  0  0  0  0  0
   -2.2870   -0.8898    0.7102 N   0  0  0  0  0  0  0  0  0  0  0  0
   -3.0820   -0.4218    0.2992 H   0  0  0  0  0  0  0  0  0  0  0  0
   -1.0240   -0.1468    0.7262 C   0  0  1  0  0  0  0  0  0  0  0  0
   -0.2200   -0.8351    0.9902 H   0  0  0  0  0  0  0  0  0  0  0  0
   -0.7566    0.4051   -0.6876 C   0  0  0  0  0  0  0  0  0  0  0  0
   -1.6418    0.9512   -1.0201 H   0  0  0  0  0  0  0  0  0  0  0  0
    0.0799    1.1041   -0.6486 H   0  0  0  0  0  0  0  0  0  0  0  0
   -0.4531   -0.6910   -1.7209 C   0  0  0  0  0  0  0  0  0  0  0  0
    0.4212   -1.2605   -1.4043 H   0  0  0  0  0  0  0  0  0  0  0  0
   -1.3102   -1.3629   -1.7938 H   0  0  0  0  0  0  0  0  0  0  0  0
   -0.1720   -0.0813   -3.0990 C   0  0  0  0  0  0  0  0  0  0  0  0
   -1.0355    0.4986   -3.4262 H   0  0  0  0  0  0  0  0  0  0  0  0
    0.6983    0.5725   -3.0366 H   0  0  0  0  0  0  0  0  0  0  0  0
    0.1017   -1.1920   -4.1112 C   0  0  0  0  0  0  0  0  0  0  0  0
    0.9749   -1.7610   -3.7961 H   0  0  0  0  0  0  0  0  0  0  0  0
   -0.7595   -1.8562   -4.1617 H   0  0  0  0  0  0  0  0  0  0  0  0
    0.3520   -0.6433   -5.4489 N   0  0  0  0  0  0  0  0  0  0  0  0
    0.5422   -1.4018   -6.0872 H   0  0  0  0  0  0  0  0  0  0  0  0
   -0.4675   -0.1410   -5.7596 H   0  0  0  0  0  0  0  0  0  0  0  0
   -1.0770    0.9661    1.7858 C   0  0  0  0  0  0  0  0  0  0  0  0
   -0.9897    0.6855    2.9794 O   0  0  0  0  0  0  0  0  0  0  0  0
   -1.2296    2.2210    1.3473 N   0  0  0  0  0  0  0  0  0  0  0  0
   -1.2786    2.3706    0.3529 H   0  0  0  0  0  0  0  0  0  0  0  0
   -1.3144    3.3874    2.2248 C   0  0  0  0  0  0  0  0  0  0  0  0
   -0.4404    3.4213    2.8790 H   0  0  0  0  0  0  0  0  0  0  0  0
   -1.3582    4.3040    1.6348 H   0  0  0  0  0  0  0  0  0  0  0  0
   -2.2091    3.3148    2.8466 H   0  0  0  0  0  0  0  0  0  0  0  0
  5  6  2  0  0  0  0
  5  7  1  0  0  0  0
  2  3  1  0  0  0  0
  2  4  1  0  0  0  0
  2  5  1  0  0  0  0
  1  2  1  0  0  0  0
 26 27  2  0  0  0  0
 26 28  1  0  0  0  0
 23 24  1  0  0  0  0
 23 25  1  0  0  0  0
 20 21  1  0  0  0  0
 20 22  1  0  0  0  0
 20 23  1  0  0  0  0
 17 18  1  0  0  0  0
 17 19  1  0  0  0  0
 17 20  1  0  0  0  0
 14 15  1  0  0  0  0
 14 16  1  0  0  0  0
 14 17  1  0  0  0  0
 11 12  1  0  0  0  0
 11 13  1  0  0  0  0
 11 14  1  0  0  0  0
  9 10  1  0  0  0  0
  9 11  1  0  0  0  0
  9 26  1  0  0  0  0
  7  8  1  0  0  0  0
  7  9  1  0  0  0  0
 30 31  1  0  0  0  0
 30 32  1  0  0  0  0
 30 33  1  0  0  0  0
 28 29  1  0  0  0  0
 28 30  1  0  0  0  0
M  END
$$$$
default_name
  -OEChem-01062215323D

 33 32  0     1  0  0  0  0  0999 V2000
   -3.8420   -3.6918    1.5562 H   0  0  0  0  0  0  0  0  0  0  0  0
   -3.8430   -2.7008    1.1032 C   0  0  0  0  0  0  0  0  0  0  0  0
   -4.5510   -2.0608    1.6242 H   0  0  0  0  0  0  0  0  0  0  0  0
   -4.1140   -2.7798    0.0522 H   0  0  0  0  0  0  0  0  0  0  0  0
   -2.4570   -2.1098    1.2172 C   0  0  0  0  0  0  0  0  0  0  0  0
   -1.5600   -2.7438    1.7572 O   0  0  0  0  0  0  0  0  0  0  0  0
   -2.2870   -0.8898    0.7102 N   0  0  0  0  0  0  0  0  0  0  0  0
   -3.0820   -0.4218    0.2992 H   0  0  0  0  0  0  0  0  0  0  0  0
   -1.0240   -0.1468    0.7262 C   0  0  1  0  0  0  0  0  0  0  0  0
   -0.2200   -0.8351    0.9902 H   0  0  0  0  0  0  0  0  0  0  0  0
   -0.7566    0.4051   -0.6876 C   0  0  0  0  0  0  0  0  0  0  0  0
   -1.6418    0.9512   -1.0201 H   0  0  0  0  0  0  0  0  0  0  0  0
    0.0799    1.1041   -0.6486 H   0  0  0  0  0  0  0  0  0  0  0  0
   -0.4531   -0.6910   -1.7209 C   0  0  0  0  0  0  0  0  0  0  0  0
    0.4212   -1.2605   -1.4043 H   0  0  0  0  0  0  0  0  0  0  0  0
   -1.3102   -1.3629   -1.7938 H   0  0  0  0  0  0  0  0  0  0  0  0
   -0.1720   -0.0813   -3.0990 C   0  0  0  0  0  0  0  0  0  0  0  0
   -1.0355    0.4986   -3.4262 H   0  0  0  0  0  0  0  0  0  0  0  0
    0.6983    0.5725   -3.0366 H   0  0  0  0  0  0  0  0  0  0  0  0
    0.1017   -1.1920   -4.1112 C   0  0  0  0  0  0  0  0  0  0  0  0
    0.9749   -1.7610   -3.7961 H   0  0  0  0  0  0  0  0  0  0  0  0
   -0.7595   -1.8562   -4.1617 H   0  0  0  0  0  0  0  0  0  0  0  0
    0.3520   -0.6433   -5.4489 N   0  0  0  0  0  0  0  0  0  0  0  0
    0.5422   -1.4018   -6.0872 H   0  0  0  0  0  0  0  0  0  0  0  0
   -0.4675   -0.1410   -5.7596 H   0  0  0  0  0  0  0  0  0  0  0  0
   -1.0770    0.9661    1.7858 C   0  0  0  0  0  0  0  0  0  0  0  0
   -0.7197    0.7365    2.9393 O   0  0  0  0  0  0  0  0  0  0  0  0
   -1.5311    2.1622    1.3940 N   0  0  0  0  0  0  0  0  0  0  0  0
   -1.7908    2.2748    0.4278 H   0  0  0  0  0  0  0  0  0  0  0  0
   -1.6584    3.3174    2.2812 C   0  0  0  0  0  0  0  0  0  0  0  0
   -0.6982    3.5229    2.7595 H   0  0  0  0  0  0  0  0  0  0  0  0
   -1.9750    4.1960    1.7173 H   0  0  0  0  0  0  0  0  0  0  0  0
   -2.3937    3.1033    3.0596 H   0  0  0  0  0  0  0  0  0  0  0  0
  5  6  2  0  0  0  0
  5  7  1  0  0  0  0
  2  3  1  0  0  0  0
  2  4  1  0  0  0  0
  2  5  1  0  0  0  0
  1  2  1  0  0  0  0
 26 27  2  0  0  0  0
 26 28  1  0  0  0  0
 23 24  1  0  0  0  0
 23 25  1  0  0  0  0
 20 21  1  0  0  0  0
 20 22  1  0  0  0  0
 20 23  1  0  0  0  0
 17 18  1  0  0  0  0
 17 19  1  0  0  0  0
 17 20  1  0  0  0  0
 14 15  1  0  0  0  0
 14 16  1  0  0  0  0
 14 17  1  0  0  0  0
 11 12  1  0  0  0  0
 11 13  1  0  0  0  0
 11 14  1  0  0  0  0
  9 10  1  0  0  0  0
  9 11  1  0  0  0  0
  9 26  1  0  0  0  0
  7  8  1  0  0  0  0
  7  9  1  0  0  0  0
 30 31  1  0  0  0  0
 30 32  1  0  0  0  0
 30 33  1  0  0  0  0
 28 29  1  0  0  0  0
 28 30  1  0  0  0  0
M  END
$$$$
default_name
  -OEChem-01062215323D

 33 32  0     1  0  0  0  0  0999 V2000
   -3.8420   -3.6918    1.5562 H   0  0  0  0  0  0  0  0  0  0  0  0
   -3.8430   -2.7008    1.1032 C   0  0  0  0  0  0  0  0  0  0  0  0
   -4.5510   -2.0608    1.6242 H   0  0  0  0  0  0  0  0  0  0  0  0
   -4.1140   -2.7798    0.0522 H   0  0  0  0  0  0  0  0  0  0  0  0
   -2.4570   -2.1098    1.2172 C   0  0  0  0  0  0  0  0  0  0  0  0
   -1.5600   -2.7438    1.7572 O   0  0  0  0  0  0  0  0  0  0  0  0
   -2.2870   -0.8898    0.7102 N   0  0  0  0  0  0  0  0  0  0  0  0
   -3.0820   -0.4218    0.2992 H   0  0  0  0  0  0  0  0  0  0  0  0
   -1.0240   -0.1468    0.7262 C   0  0  1  0  0  0  0  0  0  0  0  0
   -0.2200   -0.8351    0.9902 H   0  0  0  0  0  0  0  0  0  0  0  0
   -0.7566    0.4051   -0.6876 C   0  0  0  0  0  0  0  0  0  0  0  0
   -1.6418    0.9512   -1.0201 H   0  0  0  0  0  0  0  0  0  0  0  0
    0.0799    1.1041   -0.6486 H   0  0  0  0  0  0  0  0  0  0  0  0
   -0.4531   -0.6910   -1.7209 C   0  0  0  0  0  0  0  0  0  0  0  0
    0.4212   -1.2605   -1.4043 H   0  0  0  0  0  0  0  0  0  0  0  0
   -1.3102   -1.3629   -1.7938 H   0  0  0  0  0  0  0  0  0  0  0  0
   -0.1720   -0.0813   -3.0990 C   0  0  0  0  0  0  0  0  0  0  0  0
   -1.0355    0.4986   -3.4262 H   0  0  0  0  0  0  0  0  0  0  0  0
    0.6983    0.5725   -3.0366 H   0  0  0  0  0  0  0  0  0  0  0  0
    0.1017   -1.1920   -4.1112 C   0  0  0  0  0  0  0  0  0  0  0  0
    0.9749   -1.7610   -3.7961 H   0  0  0  0  0  0  0  0  0  0  0  0
   -0.7595   -1.8562   -4.1617 H   0  0  0  0  0  0  0  0  0  0  0  0
    0.3520   -0.6433   -5.4489 N   0  0  0  0  0  0  0  0  0  0  0  0
    0.5422   -1.4018   -6.0872 H   0  0  0  0  0  0  0  0  0  0  0  0
   -0.4675   -0.1410   -5.7596 H   0  0  0  0  0  0  0  0  0  0  0  0
   -1.0770    0.9661    1.7858 C   0  0  0  0  0  0  0  0  0  0  0  0
   -0.4756    0.8335    2.8496 O   0  0  0  0  0  0  0  0  0  0  0  0
   -1.8031    2.0520    1.4961 N   0  0  0  0  0  0  0  0  0  0  0  0
   -2.2543    2.0917    0.5970 H   0  0  0  0  0  0  0  0  0  0  0  0
   -1.9676    3.1889    2.4007 C   0  0  0  0  0  0  0  0  0  0  0  0
   -0.9877    3.5739    2.6915 H   0  0  0  0  0  0  0  0  0  0  0  0
   -2.5361    3.9824    1.9136 H   0  0  0  0  0  0  0  0  0  0  0  0
   -2.4943    2.8679    3.3017 H   0  0  0  0  0  0  0  0  0  0  0  0
  5  6  2  0  0  0  0
  5  7  1  0  0  0  0
  2  3  1  0  0  0  0
  2  4  1  0  0  0  0
  2  5  1  0  0  0  0
  1  2  1  0  0  0  0
 26 27  2  0  0  0  0
 26 28  1  0  0  0  0
 23 24  1  0  0  0  0
 23 25  1  0  0  0  0
 20 21  1  0  0  0  0
 20 22  1  0  0  0  0
 20 23  1  0  0  0  0
 17 18  1  0  0  0  0
 17 19  1  0  0  0  0
 17 20  1  0  0  0  0
 14 15  1  0  0  0  0
 14 16  1  0  0  0  0
 14 17  1  0  0  0  0
 11 12  1  0  0  0  0
 11 13  1  0  0  0  0
 11 14  1  0  0  0  0
  9 10  1  0  0  0  0
  9 11  1  0  0  0  0
  9 26  1  0  0  0  0
  7  8  1  0  0  0  0
  7  9  1  0  0  0  0
 30 31  1  0  0  0  0
 30 32  1  0  0  0  0
 30 33  1  0  0  0  0
 28 29  1  0  0  0  0
 28 30  1  0  0  0  0
M  END
$$$$
default_name
  -OEChem-01062215323D

 33 32  0     1  0  0  0  0  0999 V2000
   -3.8420   -3.6918    1.5562 H   0  0  0  0  0  0  0  0  0  0  0  0
   -3.8430   -2.7008    1.1032 C   0  0  0  0  0  0  0  0  0  0  0  0
   -4.5510   -2.0608    1.6242 H   0  0  0  0  0  0  0  0  0  0  0  0
   -4.1140   -2.7798    0.0522 H   0  0  0  0  0  0  0  0  0  0  0  0
   -2.4570   -2.1098    1.2172 C   0  0  0  0  0  0  0  0  0  0  0  0
   -1.5600   -2.7438    1.7572 O   0  0  0  0  0  0  0  0  0  0  0  0
   -2.2870   -0.8898    0.7102 N   0  0  0  0  0  0  0  0  0  0  0  0
   -3.0820   -0.4218    0.2992 H   0  0  0  0  0  0  0  0  0  0  0  0
   -1.0240   -0.1468    0.7262 C   0  0  1  0  0  0  0  0  0  0  0  0
   -0.2200   -0.8351    0.9902 H   0  0  0  0  0  0  0  0  0  0  0  0
   -0.7566    0.4051   -0.6876 C   0  0  0  0  0  0  0  0  0  0  0  0
   -1.6418    0.9512   -1.0201 H   0  0  0  0  0  0  0  0  0  0  0  0
    0.0799    1.1041   -0.6486 H   0  0  0  0  0  0  0  0  0  0  0  0
   -0.4531   -0.6910   -1.7209 C   0  0  0  0  0  0  0  0  0  0  0  0
    0.4212   -1.2605   -1.4043 H   0  0  0  0  0  0  0  0  0  0  0  0
   -1.3102   -1.3629   -1.7938 H   0  0  0  0  0  0  0  0  0  0  0  0
   -0.1720   -0.0813   -3.0990 C   0  0  0  0  0  0  0  0  0  0  0  0
   -1.0355    0.4986   -3.4262 H   0  0  0  0  0  0  0  0  0  0  0  0
    0.6983    0.5725   -3.0366 H   0  0  0  0  0  0  0  0  0  0  0  0
    0.1017   -1.1920   -4.1112 C   0  0  0  0  0  0  0  0  0  0  0  0
    0.9749   -1.7610   -3.7961 H   0  0  0  0  0  0  0  0  0  0  0  0
   -0.7595   -1.8562   -4.1617 H   0  0  0  0  0  0  0  0  0  0  0  0
    0.3520   -0.6433   -5.4489 N   0  0  0  0  0  0  0  0  0  0  0  0
    0.5422   -1.4018   -6.0872 H   0  0  0  0  0  0  0  0  0  0  0  0
   -0.4675   -0.1410   -5.7596 H   0  0  0  0  0  0  0  0  0  0  0  0
   -1.0770    0.9661    1.7858 C   0  0  0  0  0  0  0  0  0  0  0  0
   -0.2739    0.9700    2.7164 O   0  0  0  0  0  0  0  0  0  0  0  0
   -2.0271    1.8980    1.6467 N   0  0  0  0  0  0  0  0  0  0  0  0
   -2.6377    1.8336    0.8488 H   0  0  0  0  0  0  0  0  0  0  0  0
   -2.2210    3.0107    2.5752 C   0  0  0  0  0  0  0  0  0  0  0  0
   -1.2892    3.5709    2.6795 H   0  0  0  0  0  0  0  0  0  0  0  0
   -3.0032    3.6778    2.2102 H   0  0  0  0  0  0  0  0  0  0  0  0
   -2.5042    2.6247    3.5566 H   0  0  0  0  0  0  0  0  0  0  0  0
  5  6  2  0  0  0  0
  5  7  1  0  0  0  0
  2  3  1  0  0  0  0
  2  4  1  0  0  0  0
  2  5  1  0  0  0  0
  1  2  1  0  0  0  0
 26 27  2  0  0  0  0
 26 28  1  0  0  0  0
 23 24  1  0  0  0  0
 23 25  1  0  0  0  0
 20 21  1  0  0  0  0
 20 22  1  0  0  0  0
 20 23  1  0  0  0  0
 17 18  1  0  0  0  0
 17 19  1  0  0  0  0
 17 20  1  0  0  0  0
 14 15  1  0  0  0  0
 14 16  1  0  0  0  0
 14 17  1  0  0  0  0
 11 12  1  0  0  0  0
 11 13  1  0  0  0  0
 11 14  1  0  0  0  0
  9 10  1  0  0  0  0
  9 11  1  0  0  0  0
  9 26  1  0  0  0  0
  7  8  1  0  0  0  0
  7  9  1  0  0  0  0
 30 31  1  0  0  0  0
 30 32  1  0  0  0  0
 30 33  1  0  0  0  0
 28 29  1  0  0  0  0
 28 30  1  0  0  0  0
M  END
$$$$
default_name
  -OEChem-01062215323D

 33 32  0     1  0  0  0  0  0999 V2000
   -3.8420   -3.6918    1.5562 H   0  0  0  0  0  0  0  0  0  0  0  0
   -3.8430   -2.7008    1.1032 C   0  0  0  0  0  0  0  0  0  0  0  0
   -4.5510   -2.0608    1.6242 H   0  0  0  0  0  0  0  0  0  0  0  0
   -4.1140   -2.7798    0.0522 H   0  0  0  0  0  0  0  0  0  0  0  0
   -2.4570   -2.1098    1.2172 C   0  0  0  0  0  0  0  0  0  0  0  0
   -1.5600   -2.7438    1.7572 O   0  0  0  0  0  0  0  0  0  0  0  0
   -2.2870   -0.8898    0.7102 N   0  0  0  0  0  0  0  0  0  0  0  0
   -3.0820   -0.4218    0.2992 H   0  0  0  0  0  0  0  0  0  0  0  0
   -1.0240   -0.1468    0.7262 C   0  0  1  0  0  0  0  0  0  0  0  0
   -0.2200   -0.8351    0.9902 H   0  0  0  0  0  0  0  0  0  0  0  0
   -0.7566    0.4051   -0.6876 C   0  0  0  0  0  0  0  0  0  0  0  0
   -1.6418    0.9512   -1.0201 H   0  0  0  0  0  0  0  0  0  0  0  0
    0.0799    1.1041   -0.6486 H   0  0  0  0  0  0  0  0  0  0  0  0
   -0.4531   -0.6910   -1.7209 C   0  0  0  0  0  0  0  0  0  0  0  0
    0.4212   -1.2605   -1.4043 H   0  0  0  0  0  0  0  0  0  0  0  0
   -1.3102   -1.3629   -1.7938 H   0  0  0  0  0  0  0  0  0  0  0  0
   -0.1720   -0.0813   -3.0990 C   0  0  0  0  0  0  0  0  0  0  0  0
   -1.0355    0.4986   -3.4262 H   0  0  0  0  0  0  0  0  0  0  0  0
    0.6983    0.5725   -3.0366 H   0  0  0  0  0  0  0  0  0  0  0  0
    0.1017   -1.1920   -4.1112 C   0  0  0  0  0  0  0  0  0  0  0  0
    0.9749   -1.7610   -3.7961 H   0  0  0  0  0  0  0  0  0  0  0  0
   -0.7595   -1.8562   -4.1617 H   0  0  0  0  0  0  0  0  0  0  0  0
    0.3520   -0.6433   -5.4489 N   0  0  0  0  0  0  0  0  0  0  0  0
    0.5422   -1.4018   -6.0872 H   0  0  0  0  0  0  0  0  0  0  0  0
   -0.4675   -0.1410   -5.7596 H   0  0  0  0  0  0  0  0  0  0  0  0
   -1.0770    0.9661    1.7858 C   0  0  0  0  0  0  0  0  0  0  0  0
   -0.1284    1.1366    2.5487 O   0  0  0  0  0  0  0  0  0  0  0  0
   -2.1877    1.7106    1.8355 N   0  0  0  0  0  0  0  0  0  0  0  0
   -2.9149    1.5182    1.1662 H   0  0  0  0  0  0  0  0  0  0  0  0
   -2.4013    2.7949    2.7928 C   0  0  0  0  0  0  0  0  0  0  0  0
   -1.5821    3.5141    2.7245 H   0  0  0  0  0  0  0  0  0  0  0  0
   -3.3445    3.3028    2.5869 H   0  0  0  0  0  0  0  0  0  0  0  0
   -2.4226    2.3903    3.8068 H   0  0  0  0  0  0  0  0  0  0  0  0
  5  6  2  0  0  0  0
  5  7  1  0  0  0  0
  2  3  1  0  0  0  0
  2  4  1  0  0  0  0
  2  5  1  0  0  0  0
  1  2  1  0  0  0  0
 26 27  2  0  0  0  0
 26 28  1  0  0  0  0
 23 24  1  0  0  0  0
 23 25  1  0  0  0  0
 20 21  1  0  0  0  0
 20 22  1  0  0  0  0
 20 23  1  0  0  0  0
 17 18  1  0  0  0  0
 17 19  1  0  0  0  0
 17 20  1  0  0  0  0
 14 15  1  0  0  0  0
 14 16  1  0  0  0  0
 14 17  1  0  0  0  0
 11 12  1  0  0  0  0
 11 13  1  0  0  0  0
 11 14  1  0  0  0  0
  9 10  1  0  0  0  0
  9 11  1  0  0  0  0
  9 26  1  0  0  0  0
  7  8  1  0  0  0  0
  7  9  1  0  0  0  0
 30 31  1  0  0  0  0
 30 32  1  0  0  0  0
 30 33  1  0  0  0  0
 28 29  1  0  0  0  0
 28 30  1  0  0  0  0
M  END
$$$$
default_name
  -OEChem-01062215323D

 33 32  0     1  0  0  0  0  0999 V2000
   -3.8420   -3.6918    1.5562 H   0  0  0  0  0  0  0  0  0  0  0  0
   -3.8430   -2.7008    1.1032 C   0  0  0  0  0  0  0  0  0  0  0  0
   -4.5510   -2.0608    1.6242 H   0  0  0  0  0  0  0  0  0  0  0  0
   -4.1140   -2.7798    0.0522 H   0  0  0  0  0  0  0  0  0  0  0  0
   -2.4570   -2.1098    1.2172 C   0  0  0  0  0  0  0  0  0  0  0  0
   -1.5600   -2.7438    1.7572 O   0  0  0  0  0  0  0  0  0  0  0  0
   -2.2870   -0.8898    0.7102 N   0  0  0  0  0  0  0  0  0  0  0  0
   -3.0820   -0.4218    0.2992 H   0  0  0  0  0  0  0  0  0  0  0  0
   -1.0240   -0.1468    0.7262 C   0  0  1  0  0  0  0  0  0  0  0  0
   -0.2200   -0.8351    0.9902 H   0  0  0  0  0  0  0  0  0  0  0  0
   -0.7566    0.4051   -0.6876 C   0  0  0  0  0  0  0  0  0  0  0  0
   -1.6418    0.9512   -1.0201 H   0  0  0  0  0  0  0  0  0  0  0  0
    0.0799    1.1041   -0.6486 H   0  0  0  0  0  0  0  0  0  0  0  0
   -0.4531   -0.6910   -1.7209 C   0  0  0  0  0  0  0  0  0  0  0  0
    0.4212   -1.2605   -1.4043 H   0  0  0  0  0  0  0  0  0  0  0  0
   -1.3102   -1.3629   -1.7938 H   0  0  0  0  0  0  0  0  0  0  0  0
   -0.1720   -0.0813   -3.0990 C   0  0  0  0  0  0  0  0  0  0  0  0
   -1.0355    0.4986   -3.4262 H   0  0  0  0  0  0  0  0  0  0  0  0
    0.6983    0.5725   -3.0366 H   0  0  0  0  0  0  0  0  0  0  0  0
    0.1017   -1.1920   -4.1112 C   0  0  0  0  0  0  0  0  0  0  0  0
    0.9749   -1.7610   -3.7961 H   0  0  0  0  0  0  0  0  0  0  0  0
   -0.7595   -1.8562   -4.1617 H   0  0  0  0  0  0  0  0  0  0  0  0
    0.3520   -0.6433   -5.4489 N   0  0  0  0  0  0  0  0  0  0  0  0
    0.5422   -1.4018   -6.0872 H   0  0  0  0  0  0  0  0  0  0  0  0
   -0.4675   -0.1410   -5.7596 H   0  0  0  0  0  0  0  0  0  0  0  0
   -1.0770    0.9661    1.7858 C   0  0  0  0  0  0  0  0  0  0  0  0
   -0.0489    1.3220    2.3579 O   0  0  0  0  0  0  0  0  0  0  0  0
   -2.2741    1.5026    2.0495 N   0  0  0  0  0  0  0  0  0  0  0  0
   -3.0668    1.1669    1.5276 H   0  0  0  0  0  0  0  0  0  0  0  0
   -2.4961    2.5562    3.0387 C   0  0  0  0  0  0  0  0  0  0  0  0
   -1.8465    3.4074    2.8233 H   0  0  0  0  0  0  0  0  0  0  0  0
   -3.5367    2.8832    3.0180 H   0  0  0  0  0  0  0  0  0  0  0  0
   -2.2551    2.1807    4.0353 H   0  0  0  0  0  0  0  0  0  0  0  0
  5  6  2  0  0  0  0
  5  7  1  0  0  0  0
  2  3  1  0  0  0  0
  2  4  1  0  0  0  0
  2  5  1  0  0  0  0
  1  2  1  0  0  0  0
 26 27  2  0  0  0  0
 26 28  1  0  0  0  0
 23 24  1  0  0  0  0
 23 25  1  0  0  0  0
 20 21  1  0  0  0  0
 20 22  1  0  0  0  0
 20 23  1  0  0  0  0
 17 18  1  0  0  0  0
 17 19  1  0  0  0  0
 17 20  1  0  0  0  0
 14 15  1  0  0  0  0
 14 16  1  0  0  0  0
 14 17  1  0  0  0  0
 11 12  1  0  0  0  0
 11 13  1  0  0  0  0
 11 14  1  0  0  0  0
  9 10  1  0  0  0  0
  9 11  1  0  0  0  0
  9 26  1  0  0  0  0
  7  8  1  0  0  0  0
  7  9  1  0  0  0  0
 30 31  1  0  0  0  0
 30 32  1  0  0  0  0
 30 33  1  0  0  0  0
 28 29  1  0  0  0  0
 28 30  1  0  0  0  0
M  END
$$$$
default_name
  -OEChem-01062215323D

 33 32  0     1  0  0  0  0  0999 V2000
   -3.8420   -3.6918    1.5562 H   0  0  0  0  0  0  0  0  0  0  0  0
   -3.8430   -2.7008    1.1032 C   0  0  0  0  0  0  0  0  0  0  0  0
   -4.5510   -2.0608    1.6242 H   0  0  0  0  0  0  0  0  0  0  0  0
   -4.1140   -2.7798    0.0522 H   0  0  0  0  0  0  0  0  0  0  0  0
   -2.4570   -2.1098    1.2172 C   0  0  0  0  0  0  0  0  0  0  0  0
   -1.5600   -2.7438    1.7572 O   0  0  0  0  0  0  0  0  0  0  0  0
   -2.2870   -0.8898    0.7102 N   0  0  0  0  0  0  0  0  0  0  0  0
   -3.0820   -0.4218    0.2992 H   0  0  0  0  0  0  0  0  0  0  0  0
   -1.0240   -0.1468    0.7262 C   0  0  1  0  0  0  0  0  0  0  0  0
   -0.2200   -0.8351    0.9902 H   0  0  0  0  0  0  0  0  0  0  0  0
   -0.7566    0.4051   -0.6876 C   0  0  0  0  0  0  0  0  0  0  0  0
   -1.6418    0.9512   -1.0201 H   0  0  0  0  0  0  0  0  0  0  0  0
    0.0799    1.1041   -0.6486 H   0  0  0  0  0  0  0  0  0  0  0  0
   -0.4531   -0.6910   -1.7209 C   0  0  0  0  0  0  0  0  0  0  0  0
    0.4212   -1.2605   -1.4043 H   0  0  0  0  0  0  0  0  0  0  0  0
   -1.3102   -1.3629   -1.7938 H   0  0  0  0  0  0  0  0  0  0  0  0
   -0.1720   -0.0813   -3.0990 C   0  0  0  0  0  0  0  0  0  0  0  0
   -1.0355    0.4986   -3.4262 H   0  0  0  0  0  0  0  0  0  0  0  0
    0.6983    0.5725   -3.0366 H   0  0  0  0  0  0  0  0  0  0  0  0
    0.1017   -1.1920   -4.1112 C   0  0  0  0  0  0  0  0  0  0  0  0
    0.9749   -1.7610   -3.7961 H   0  0  0  0  0  0  0  0  0  0  0  0
   -0.7595   -1.8562   -4.1617 H   0  0  0  0  0  0  0  0  0  0  0  0
    0.3520   -0.6433   -5.4489 N   0  0  0  0  0  0  0  0  0  0  0  0
    0.5422   -1.4018   -6.0872 H   0  0  0  0  0  0  0  0  0  0  0  0
   -0.4675   -0.1410   -5.7596 H   0  0  0  0  0  0  0  0  0  0  0  0
   -1.0770    0.9661    1.7858 C   0  0  0  0  0  0  0  0  0  0  0  0
   -0.0410    1.5136    2.1572 O   0  0  0  0  0  0  0  0  0  0  0  0
   -2.2803    1.2883    2.2744 N   0  0  0  0  0  0  0  0  0  0  0  0
   -3.0833    0.8037    1.9082 H   0  0  0  0  0  0  0  0  0  0  0  0
   -2.4991    2.3110    3.2961 C   0  0  0  0  0  0  0  0  0  0  0  0
   -2.0644    3.2581    2.9693 H   0  0  0  0  0  0  0  0  0  0  0  0
   -3.5668    2.4473    3.4742 H   0  0  0  0  0  0  0  0  0  0  0  0
   -2.0131    2.0102    4.2266 H   0  0  0  0  0  0  0  0  0  0  0  0
  5  6  2  0  0  0  0
  5  7  1  0  0  0  0
  2  3  1  0  0  0  0
  2  4  1  0  0  0  0
  2  5  1  0  0  0  0
  1  2  1  0  0  0  0
 26 27  2  0  0  0  0
 26 28  1  0  0  0  0
 23 24  1  0  0  0  0
 23 25  1  0  0  0  0
 20 21  1  0  0  0  0
 20 22  1  0  0  0  0
 20 23  1  0  0  0  0
 17 18  1  0  0  0  0
 17 19  1  0  0  0  0
 17 20  1  0  0  0  0
 14 15  1  0  0  0  0
 14 16  1  0  0  0  0
 14 17  1  0  0  0  0
 11 12  1  0  0  0  0
 11 13  1  0  0  0  0
 11 14  1  0  0  0  0
  9 10  1  0  0  0  0
  9 11  1  0  0  0  0
  9 26  1  0  0  0  0
  7  8  1  0  0  0  0
  7  9  1  0  0  0  0
 30 31  1  0  0  0  0
 30 32  1  0  0  0  0
 30 33  1  0  0  0  0
 28 29  1  0  0  0  0
 28 30  1  0  0  0  0
M  END
$$$$
default_name
  -OEChem-01062215323D

 33 32  0     1  0  0  0  0  0999 V2000
   -3.8420   -3.6918    1.5562 H   0  0  0  0  0  0  0  0  0  0  0  0
   -3.8430   -2.7008    1.1032 C   0  0  0  0  0  0  0  0  0  0  0  0
   -4.5510   -2.0608    1.6242 H   0  0  0  0  0  0  0  0  0  0  0  0
   -4.1140   -2.7798    0.0522 H   0  0  0  0  0  0  0  0  0  0  0  0
   -2.4570   -2.1098    1.2172 C   0  0  0  0  0  0  0  0  0  0  0  0
   -1.5600   -2.7438    1.7572 O   0  0  0  0  0  0  0  0  0  0  0  0
   -2.2870   -0.8898    0.7102 N   0  0  0  0  0  0  0  0  0  0  0  0
   -3.0820   -0.4218    0.2992 H   0  0  0  0  0  0  0  0  0  0  0  0
   -1.0240   -0.1468    0.7262 C   0  0  1  0  0  0  0  0  0  0  0  0
   -0.2200   -0.8351    0.9902 H   0  0  0  0  0  0  0  0  0  0  0  0
   -0.7566    0.4051   -0.6876 C   0  0  0  0  0  0  0  0  0  0  0  0
   -1.6418    0.9512   -1.0201 H   0  0  0  0  0  0  0  0  0  0  0  0
    0.0799    1.1041   -0.6486 H   0  0  0  0  0  0  0  0  0  0  0  0
   -0.4531   -0.6910   -1.7209 C   0  0  0  0  0  0  0  0  0  0  0  0
    0.4212   -1.2605   -1.4043 H   0  0  0  0  0  0  0  0  0  0  0  0
   -1.3102   -1.3629   -1.7938 H   0  0  0  0  0  0  0  0  0  0  0  0
   -0.1720   -0.0813   -3.0990 C   0  0  0  0  0  0  0  0  0  0  0  0
   -1.0355    0.4986   -3.4262 H   0  0  0  0  0  0  0  0  0  0  0  0
    0.6983    0.5725   -3.0366 H   0  0  0  0  0  0  0  0  0  0  0  0
    0.1017   -1.1920   -4.1112 C   0  0  0  0  0  0  0  0  0  0  0  0
    0.9749   -1.7610   -3.7961 H   0  0  0  0  0  0  0  0  0  0  0  0
   -0.7595   -1.8562   -4.1617 H   0  0  0  0  0  0  0  0  0  0  0  0
    0.3520   -0.6433   -5.4489 N   0  0  0  0  0  0  0  0  0  0  0  0
    0.5422   -1.4018   -6.0872 H   0  0  0  0  0  0  0  0  0  0  0  0
   -0.4675   -0.1410   -5.7596 H   0  0  0  0  0  0  0  0  0  0  0  0
   -1.0770    0.9661    1.7858 C   0  0  0  0  0  0  0  0  0  0  0  0
   -0.1051    1.6982    1.9600 O   0  0  0  0  0  0  0  0  0  0  0  0
   -2.2060    1.0821    2.4946 N   0  0  0  0  0  0  0  0  0  0  0  0
   -2.9631    0.4534    2.2821 H   0  0  0  0  0  0  0  0  0  0  0  0
   -2.4101    2.0758    3.5475 C   0  0  0  0  0  0  0  0  0  0  0  0
   -2.2208    3.0763    3.1524 H   0  0  0  0  0  0  0  0  0  0  0  0
   -3.4326    2.0251    3.9244 H   0  0  0  0  0  0  0  0  0  0  0  0
   -1.7131    1.8903    4.3674 H   0  0  0  0  0  0  0  0  0  0  0  0
  5  6  2  0  0  0  0
  5  7  1  0  0  0  0
  2  3  1  0  0  0  0
  2  4  1  0  0  0  0
  2  5  1  0  0  0  0
  1  2  1  0  0  0  0
 26 27  2  0  0  0  0
 26 28  1  0  0  0  0
 23 24  1  0  0  0  0
 23 25  1  0  0  0  0
 20 21  1  0  0  0  0
 20 22  1  0  0  0  0
 20 23  1  0  0  0  0
 17 18  1  0  0  0  0
 17 19  1  0  0  0  0
 17 20  1  0  0  0  0
 14 15  1  0  0  0  0
 14 16  1  0  0  0  0
 14 17  1  0  0  0  0
 11 12  1  0  0  0  0
 11 13  1  0  0  0  0
 11 14  1  0  0  0  0
  9 10  1  0  0  0  0
  9 11  1  0  0  0  0
  9 26  1  0  0  0  0
  7  8  1  0  0  0  0
  7  9  1  0  0  0  0
 30 31  1  0  0  0  0
 30 32  1  0  0  0  0
 30 33  1  0  0  0  0
 28 29  1  0  0  0  0
 28 30  1  0  0  0  0
M  END
$$$$
default_name
  -OEChem-01062215323D

 33 32  0     1  0  0  0  0  0999 V2000
   -3.8420   -3.6918    1.5562 H   0  0  0  0  0  0  0  0  0  0  0  0
   -3.8430   -2.7008    1.1032 C   0  0  0  0  0  0  0  0  0  0  0  0
   -4.5510   -2.0608    1.6242 H   0  0  0  0  0  0  0  0  0  0  0  0
   -4.1140   -2.7798    0.0522 H   0  0  0  0  0  0  0  0  0  0  0  0
   -2.4570   -2.1098    1.2172 C   0  0  0  0  0  0  0  0  0  0  0  0
   -1.5600   -2.7438    1.7572 O   0  0  0  0  0  0  0  0  0  0  0  0
   -2.2870   -0.8898    0.7102 N   0  0  0  0  0  0  0  0  0  0  0  0
   -3.0820   -0.4218    0.2992 H   0  0  0  0  0  0  0  0  0  0  0  0
   -1.0240   -0.1468    0.7262 C   0  0  1  0  0  0  0  0  0  0  0  0
   -0.2200   -0.8351    0.9902 H   0  0  0  0  0  0  0  0  0  0  0  0
   -0.7566    0.4051   -0.6876 C   0  0  0  0  0  0  0  0  0  0  0  0
   -1.6418    0.9512   -1.0201 H   0  0  0  0  0  0  0  0  0  0  0  0
    0.0799    1.1041   -0.6486 H   0  0  0  0  0  0  0  0  0  0  0  0
   -0.4531   -0.6910   -1.7209 C   0  0  0  0  0  0  0  0  0  0  0  0
    0.4212   -1.2605   -1.4043 H   0  0  0  0  0  0  0  0  0  0  0  0
   -1.3102   -1.3629   -1.7938 H   0  0  0  0  0  0  0  0  0  0  0  0
   -0.1720   -0.0813   -3.0990 C   0  0  0  0  0  0  0  0  0  0  0  0
   -1.0355    0.4986   -3.4262 H   0  0  0  0  0  0  0  0  0  0  0  0
    0.6983    0.5725   -3.0366 H   0  0  0  0  0  0  0  0  0  0  0  0
    0.1017   -1.1920   -4.1112 C   0  0  0  0  0  0  0  0  0  0  0  0
    0.9749   -1.7610   -3.7961 H   0  0  0  0  0  0  0  0  0  0  0  0
   -0.7595   -1.8562   -4.1617 H   0  0  0  0  0  0  0  0  0  0  0  0
    0.3520   -0.6433   -5.4489 N   0  0  0  0  0  0  0  0  0  0  0  0
    0.5422   -1.4018   -6.0872 H   0  0  0  0  0  0  0  0  0  0  0  0
   -0.4675   -0.1410   -5.7596 H   0  0  0  0  0  0  0  0  0  0  0  0
   -1.0770    0.9661    1.7858 C   0  0  0  0  0  0  0  0  0  0  0  0
   -0.2370    1.8634    1.7800 O   0  0  0  0  0  0  0  0  0  0  0  0
   -2.0561    0.8981    2.6953 N   0  0  0  0  0  0  0  0  0  0  0  0
   -2.7145    0.1397    2.6239 H   0  0  0  0  0  0  0  0  0  0  0  0
   -2.2350    1.8668    3.7758 C   0  0  0  0  0  0  0  0  0  0  0  0
   -2.3052    2.8744    3.3601 H   0  0  0  0  0  0  0  0  0  0  0  0
   -3.1434    1.6451    4.3379 H   0  0  0  0  0  0  0  0  0  0  0  0
   -1.3756    1.8293    4.4484 H   0  0  0  0  0  0  0  0  0  0  0  0
  5  6  2  0  0  0  0
  5  7  1  0  0  0  0
  2  3  1  0  0  0  0
  2  4  1  0  0  0  0
  2  5  1  0  0  0  0
  1  2  1  0  0  0  0
 26 27  2  0  0  0  0
 26 28  1  0  0  0  0
 23 24  1  0  0  0  0
 23 25  1  0  0  0  0
 20 21  1  0  0  0  0
 20 22  1  0  0  0  0
 20 23  1  0  0  0  0
 17 18  1  0  0  0  0
 17 19  1  0  0  0  0
 17 20  1  0  0  0  0
 14 15  1  0  0  0  0
 14 16  1  0  0  0  0
 14 17  1  0  0  0  0
 11 12  1  0  0  0  0
 11 13  1  0  0  0  0
 11 14  1  0  0  0  0
  9 10  1  0  0  0  0
  9 11  1  0  0  0  0
  9 26  1  0  0  0  0
  7  8  1  0  0  0  0
  7  9  1  0  0  0  0
 30 31  1  0  0  0  0
 30 32  1  0  0  0  0
 30 33  1  0  0  0  0
 28 29  1  0  0  0  0
 28 30  1  0  0  0  0
M  END
$$$$
default_name
  -OEChem-01062215323D

 33 32  0     1  0  0  0  0  0999 V2000
   -3.8420   -3.6918    1.5562 H   0  0  0  0  0  0  0  0  0  0  0  0
   -3.8430   -2.7008    1.1032 C   0  0  0  0  0  0  0  0  0  0  0  0
   -4.5510   -2.0608    1.6242 H   0  0  0  0  0  0  0  0  0  0  0  0
   -4.1140   -2.7798    0.0522 H   0  0  0  0  0  0  0  0  0  0  0  0
   -2.4570   -2.1098    1.2172 C   0  0  0  0  0  0  0  0  0  0  0  0
   -1.5600   -2.7438    1.7572 O   0  0  0  0  0  0  0  0  0  0  0  0
   -2.2870   -0.8898    0.7102 N   0  0  0  0  0  0  0  0  0  0  0  0
   -3.0820   -0.4218    0.2992 H   0  0  0  0  0  0  0  0  0  0  0  0
   -1.0240   -0.1468    0.7262 C   0  0  1  0  0  0  0  0  0  0  0  0
   -0.2200   -0.8351    0.9902 H   0  0  0  0  0  0  0  0  0  0  0  0
   -0.7566    0.4051   -0.6876 C   0  0  0  0  0  0  0  0  0  0  0  0
   -1.6418    0.9512   -1.0201 H   0  0  0  0  0  0  0  0  0  0  0  0
    0.0799    1.1041   -0.6486 H   0  0  0  0  0  0  0  0  0  0  0  0
   -0.4531   -0.6910   -1.7209 C   0  0  0  0  0  0  0  0  0  0  0  0
    0.4212   -1.2605   -1.4043 H   0  0  0  0  0  0  0  0  0  0  0  0
   -1.3102   -1.3629   -1.7938 H   0  0  0  0  0  0  0  0  0  0  0  0
   -0.1720   -0.0813   -3.0990 C   0  0  0  0  0  0  0  0  0  0  0  0
   -1.0355    0.4986   -3.4262 H   0  0  0  0  0  0  0  0  0  0  0  0
    0.6983    0.5725   -3.0366 H   0  0  0  0  0  0  0  0  0  0  0  0
    0.1017   -1.1920   -4.1112 C   0  0  0  0  0  0  0  0  0  0  0  0
    0.9749   -1.7610   -3.7961 H   0  0  0  0  0  0  0  0  0  0  0  0
   -0.7595   -1.8562   -4.1617 H   0  0  0  0  0  0  0  0  0  0  0  0
    0.3520   -0.6433   -5.4489 N   0  0  0  0  0  0  0  0  0  0  0  0
    0.5422   -1.4018   -6.0872 H   0  0  0  0  0  0  0  0  0  0  0  0
   -0.4675   -0.1410   -5.7596 H   0  0  0  0  0  0  0  0  0  0  0  0
   -1.0770    0.9661    1.7858 C   0  0  0  0  0  0  0  0  0  0  0  0
   -0.4275    1.9978    1.6293 O   0  0  0  0  0  0  0  0  0  0  0  0
   -1.8410    0.7490    2.8627 N   0  0  0  0  0  0  0  0  0  0  0  0
   -2.3543   -0.1158    2.9103 H   0  0  0  0  0  0  0  0  0  0  0  0
   -1.9859    1.6982    3.9653 C   0  0  0  0  0  0  0  0  0  0  0  0
   -2.3118    2.6662    3.5785 H   0  0  0  0  0  0  0  0  0  0  0  0
   -2.7187    1.3334    4.6864 H   0  0  0  0  0  0  0  0  0  0  0  0
   -1.0236    1.8313    4.4639 H   0  0  0  0  0  0  0  0  0  0  0  0
  5  6  2  0  0  0  0
  5  7  1  0  0  0  0
  2  3  1  0  0  0  0
  2  4  1  0  0  0  0
  2  5  1  0  0  0  0
  1  2  1  0  0  0  0
 26 27  2  0  0  0  0
 26 28  1  0  0  0  0
 23 24  1  0  0  0  0
 23 25  1  0  0  0  0
 20 21  1  0  0  0  0
 20 22  1  0  0  0  0
 20 23  1  0  0  0  0
 17 18  1  0  0  0  0
 17 19  1  0  0  0  0
 17 20  1  0  0  0  0
 14 15  1  0  0  0  0
 14 16  1  0  0  0  0
 14 17  1  0  0  0  0
 11 12  1  0  0  0  0
 11 13  1  0  0  0  0
 11 14  1  0  0  0  0
  9 10  1  0  0  0  0
  9 11  1  0  0  0  0
  9 26  1  0  0  0  0
  7  8  1  0  0  0  0
  7  9  1  0  0  0  0
 30 31  1  0  0  0  0
 30 32  1  0  0  0  0
 30 33  1  0  0  0  0
 28 29  1  0  0  0  0
 28 30  1  0  0  0  0
M  END
$$$$
default_name
  -OEChem-01062215323D

 33 32  0     1  0  0  0  0  0999 V2000
   -3.8420   -3.6918    1.5562 H   0  0  0  0  0  0  0  0  0  0  0  0
   -3.8430   -2.7008    1.1032 C   0  0  0  0  0  0  0  0  0  0  0  0
   -4.5510   -2.0608    1.6242 H   0  0  0  0  0  0  0  0  0  0  0  0
   -4.1140   -2.7798    0.0522 H   0  0  0  0  0  0  0  0  0  0  0  0
   -2.4570   -2.1098    1.2172 C   0  0  0  0  0  0  0  0  0  0  0  0
   -1.5600   -2.7438    1.7572 O   0  0  0  0  0  0  0  0  0  0  0  0
   -2.2870   -0.8898    0.7102 N   0  0  0  0  0  0  0  0  0  0  0  0
   -3.0820   -0.4218    0.2992 H   0  0  0  0  0  0  0  0  0  0  0  0
   -1.0240   -0.1468    0.7262 C   0  0  1  0  0  0  0  0  0  0  0  0
   -0.2200   -0.8351    0.9902 H   0  0  0  0  0  0  0  0  0  0  0  0
   -0.7566    0.4051   -0.6876 C   0  0  0  0  0  0  0  0  0  0  0  0
   -1.6418    0.9512   -1.0201 H   0  0  0  0  0  0  0  0  0  0  0  0
    0.0799    1.1041   -0.6486 H   0  0  0  0  0  0  0  0  0  0  0  0
   -0.4531   -0.6910   -1.7209 C   0  0  0  0  0  0  0  0  0  0  0  0
    0.4212   -1.2605   -1.4043 H   0  0  0  0  0  0  0  0  0  0  0  0
   -1.3102   -1.3629   -1.7938 H   0  0  0  0  0  0  0  0  0  0  0  0
   -0.1720   -0.0813   -3.0990 C   0  0  0  0  0  0  0  0  0  0  0  0
   -1.0355    0.4986   -3.4262 H   0  0  0  0  0  0  0  0  0  0  0  0
    0.6983    0.5725   -3.0366 H   0  0  0  0  0  0  0  0  0  0  0  0
    0.1017   -1.1920   -4.1112 C   0  0  0  0  0  0  0  0  0  0  0  0
    0.9749   -1.7610   -3.7961 H   0  0  0  0  0  0  0  0  0  0  0  0
   -0.7595   -1.8562   -4.1617 H   0  0  0  0  0  0  0  0  0  0  0  0
    0.3520   -0.6433   -5.4489 N   0  0  0  0  0  0  0  0  0  0  0  0
    0.5422   -1.4018   -6.0872 H   0  0  0  0  0  0  0  0  0  0  0  0
   -0.4675   -0.1410   -5.7596 H   0  0  0  0  0  0  0  0  0  0  0  0
   -1.0770    0.9661    1.7858 C   0  0  0  0  0  0  0  0  0  0  0  0
   -0.6637    2.0923    1.5182 O   0  0  0  0  0  0  0  0  0  0  0  0
   -1.5753    0.6448    2.9854 N   0  0  0  0  0  0  0  0  0  0  0  0
   -1.9072   -0.2959    3.1218 H   0  0  0  0  0  0  0  0  0  0  0  0
   -1.6797    1.5815    4.1032 C   0  0  0  0  0  0  0  0  0  0  0  0
   -2.2401    2.4659    3.7924 H   0  0  0  0  0  0  0  0  0  0  0  0
   -2.1877    1.1112    4.9464 H   0  0  0  0  0  0  0  0  0  0  0  0
   -0.6809    1.8961    4.4129 H   0  0  0  0  0  0  0  0  0  0  0  0
  5  6  2  0  0  0  0
  5  7  1  0  0  0  0
  2  3  1  0  0  0  0
  2  4  1  0  0  0  0
  2  5  1  0  0  0  0
  1  2  1  0  0  0  0
 26 27  2  0  0  0  0
 26 28  1  0  0  0  0
 23 24  1  0  0  0  0
 23 25  1  0  0  0  0
 20 21  1  0  0  0  0
 20 22  1  0  0  0  0
 20 23  1  0  0  0  0
 17 18  1  0  0  0  0
 17 19  1  0  0  0  0
 17 20  1  0  0  0  0
 14 15  1  0  0  0  0
 14 16  1  0  0  0  0
 14 17  1  0  0  0  0
 11 12  1  0  0  0  0
 11 13  1  0  0  0  0
 11 14  1  0  0  0  0
  9 10  1  0  0  0  0
  9 11  1  0  0  0  0
  9 26  1  0  0  0  0
  7  8  1  0  0  0  0
  7  9  1  0  0  0  0
 30 31  1  0  0  0  0
 30 32  1  0  0  0  0
 30 33  1  0  0  0  0
 28 29  1  0  0  0  0
 28 30  1  0  0  0  0
M  END
$$$$
default_name
  -OEChem-01062215323D

 33 32  0     1  0  0  0  0  0999 V2000
   -3.8420   -3.6918    1.5562 H   0  0  0  0  0  0  0  0  0  0  0  0
   -3.8430   -2.7008    1.1032 C   0  0  0  0  0  0  0  0  0  0  0  0
   -4.5510   -2.0608    1.6242 H   0  0  0  0  0  0  0  0  0  0  0  0
   -4.1140   -2.7798    0.0522 H   0  0  0  0  0  0  0  0  0  0  0  0
   -2.4570   -2.1098    1.2172 C   0  0  0  0  0  0  0  0  0  0  0  0
   -1.5600   -2.7438    1.7572 O   0  0  0  0  0  0  0  0  0  0  0  0
   -2.2870   -0.8898    0.7102 N   0  0  0  0  0  0  0  0  0  0  0  0
   -3.0820   -0.4218    0.2992 H   0  0  0  0  0  0  0  0  0  0  0  0
   -1.0240   -0.1468    0.7262 C   0  0  1  0  0  0  0  0  0  0  0  0
   -0.2200   -0.8351    0.9902 H   0  0  0  0  0  0  0  0  0  0  0  0
   -0.7566    0.4051   -0.6876 C   0  0  0  0  0  0  0  0  0  0  0  0
   -1.6418    0.9512   -1.0201 H   0  0  0  0  0  0  0  0  0  0  0  0
    0.0799    1.1041   -0.6486 H   0  0  0  0  0  0  0  0  0  0  0  0
   -0.4531   -0.6910   -1.7209 C   0  0  0  0  0  0  0  0  0  0  0  0
    0.4212   -1.2605   -1.4043 H   0  0  0  0  0  0  0  0  0  0  0  0
   -1.3102   -1.3629   -1.7938 H   0  0  0  0  0  0  0  0  0  0  0  0
   -0.1720   -0.0813   -3.0990 C   0  0  0  0  0  0  0  0  0  0  0  0
   -1.0355    0.4986   -3.4262 H   0  0  0  0  0  0  0  0  0  0  0  0
    0.6983    0.5725   -3.0366 H   0  0  0  0  0  0  0  0  0  0  0  0
    0.1017   -1.1920   -4.1112 C   0  0  0  0  0  0  0  0  0  0  0  0
    0.9749   -1.7610   -3.7961 H   0  0  0  0  0  0  0  0  0  0  0  0
   -0.7595   -1.8562   -4.1617 H   0  0  0  0  0  0  0  0  0  0  0  0
    0.3520   -0.6433   -5.4489 N   0  0  0  0  0  0  0  0  0  0  0  0
    0.5422   -1.4018   -6.0872 H   0  0  0  0  0  0  0  0  0  0  0  0
   -0.4675   -0.1410   -5.7596 H   0  0  0  0  0  0  0  0  0  0  0  0
   -1.0770    0.9661    1.7858 C   0  0  0  0  0  0  0  0  0  0  0  0
   -0.9295    2.1405    1.4543 O   0  0  0  0  0  0  0  0  0  0  0  0
   -1.2770    0.5926    3.0551 N   0  0  0  0  0  0  0  0  0  0  0  0
   -1.4036   -0.3882    3.2439 H   0  0  0  0  0  0  0  0  0  0  0  0
   -1.3372    1.5246    4.1801 C   0  0  0  0  0  0  0  0  0  0  0  0
   -2.0951    2.2871    3.9875 H   0  0  0  0  0  0  0  0  0  0  0  0
   -1.5864    0.9936    5.1000 H   0  0  0  0  0  0  0  0  0  0  0  0
   -0.3711    2.0194    4.2989 H   0  0  0  0  0  0  0  0  0  0  0  0
  5  6  2  0  0  0  0
  5  7  1  0  0  0  0
  2  3  1  0  0  0  0
  2  4  1  0  0  0  0
  2  5  1  0  0  0  0
  1  2  1  0  0  0  0
 26 27  2  0  0  0  0
 26 28  1  0  0  0  0
 23 24  1  0  0  0  0
 23 25  1  0  0  0  0
 20 21  1  0  0  0  0
 20 22  1  0  0  0  0
 20 23  1  0  0  0  0
 17 18  1  0  0  0  0
 17 19  1  0  0  0  0
 17 20  1  0  0  0  0
 14 15  1  0  0  0  0
 14 16  1  0  0  0  0
 14 17  1  0  0  0  0
 11 12  1  0  0  0  0
 11 13  1  0  0  0  0
 11 14  1  0  0  0  0
  9 10  1  0  0  0  0
  9 11  1  0  0  0  0
  9 26  1  0  0  0  0
  7  8  1  0  0  0  0
  7  9  1  0  0  0  0
 30 31  1  0  0  0  0
 30 32  1  0  0  0  0
 30 33  1  0  0  0  0
 28 29  1  0  0  0  0
 28 30  1  0  0  0  0
M  END
$$$$
default_name
  -OEChem-01062215323D

 33 32  0     1  0  0  0  0  0999 V2000
   -3.8420   -3.6918    1.5562 H   0  0  0  0  0  0  0  0  0  0  0  0
   -3.8430   -2.7008    1.1032 C   0  0  0  0  0  0  0  0  0  0  0  0
   -4.5510   -2.0608    1.6242 H   0  0  0  0  0  0  0  0  0  0  0  0
   -4.1140   -2.7798    0.0522 H   0  0  0  0  0  0  0  0  0  0  0  0
   -2.4570   -2.1098    1.2172 C   0  0  0  0  0  0  0  0  0  0  0  0
   -1.5600   -2.7438    1.7572 O   0  0  0  0  0  0  0  0  0  0  0  0
   -2.2870   -0.8898    0.7102 N   0  0  0  0  0  0  0  0  0  0  0  0
   -3.0820   -0.4218    0.2992 H   0  0  0  0  0  0  0  0  0  0  0  0
   -1.0240   -0.1468    0.7262 C   0  0  1  0  0  0  0  0  0  0  0  0
   -0.2200   -0.8351    0.9902 H   0  0  0  0  0  0  0  0  0  0  0  0
   -0.7566    0.4051   -0.6876 C   0  0  0  0  0  0  0  0  0  0  0  0
   -1.6418    0.9512   -1.0201 H   0  0  0  0  0  0  0  0  0  0  0  0
    0.0799    1.1041   -0.6486 H   0  0  0  0  0  0  0  0  0  0  0  0
   -0.4531   -0.6910   -1.7209 C   0  0  0  0  0  0  0  0  0  0  0  0
    0.4212   -1.2605   -1.4043 H   0  0  0  0  0  0  0  0  0  0  0  0
   -1.3102   -1.3629   -1.7938 H   0  0  0  0  0  0  0  0  0  0  0  0
   -0.1720   -0.0813   -3.0990 C   0  0  0  0  0  0  0  0  0  0  0  0
   -1.0355    0.4986   -3.4262 H   0  0  0  0  0  0  0  0  0  0  0  0
    0.6983    0.5725   -3.0366 H   0  0  0  0  0  0  0  0  0  0  0  0
    0.1017   -1.1920   -4.1112 C   0  0  0  0  0  0  0  0  0  0  0  0
    0.9749   -1.7610   -3.7961 H   0  0  0  0  0  0  0  0  0  0  0  0
   -0.7595   -1.8562   -4.1617 H   0  0  0  0  0  0  0  0  0  0  0  0
    0.3520   -0.6433   -5.4489 N   0  0  0  0  0  0  0  0  0  0  0  0
    0.5422   -1.4018   -6.0872 H   0  0  0  0  0  0  0  0  0  0  0  0
   -0.4675   -0.1410   -5.7596 H   0  0  0  0  0  0  0  0  0  0  0  0
   -1.0770    0.9661    1.7858 C   0  0  0  0  0  0  0  0  0  0  0  0
   -1.2068    2.1390    1.4420 O   0  0  0  0  0  0  0  0  0  0  0  0
   -0.9665    0.5961    3.0670 N   0  0  0  0  0  0  0  0  0  0  0  0
   -0.8778   -0.3864    3.2683 H   0  0  0  0  0  0  0  0  0  0  0  0
   -0.9819    1.5313    4.1907 C   0  0  0  0  0  0  0  0  0  0  0  0
   -1.8865    2.1420    4.1503 H   0  0  0  0  0  0  0  0  0  0  0  0
   -0.9559    0.9886    5.1367 H   0  0  0  0  0  0  0  0  0  0  0  0
   -0.1152    2.1928    4.1297 H   0  0  0  0  0  0  0  0  0  0  0  0
  5  6  2  0  0  0  0
  5  7  1  0  0  0  0
  2  3  1  0  0  0  0
  2  4  1  0  0  0  0
  2  5  1  0  0  0  0
  1  2  1  0  0  0  0
 26 27  2  0  0  0  0
 26 28  1  0  0  0  0
 23 24  1  0  0  0  0
 23 25  1  0  0  0  0
 20 21  1  0  0  0  0
 20 22  1  0  0  0  0
 20 23  1  0  0  0  0
 17 18  1  0  0  0  0
 17 19  1  0  0  0  0
 17 20  1  0  0  0  0
 14 15  1  0  0  0  0
 14 16  1  0  0  0  0
 14 17  1  0  0  0  0
 11 12  1  0  0  0  0
 11 13  1  0  0  0  0
 11 14  1  0  0  0  0
  9 10  1  0  0  0  0
  9 11  1  0  0  0  0
  9 26  1  0  0  0  0
  7  8  1  0  0  0  0
  7  9  1  0  0  0  0
 30 31  1  0  0  0  0
 30 32  1  0  0  0  0
 30 33  1  0  0  0  0
 28 29  1  0  0  0  0
 28 30  1  0  0  0  0
M  END
$$$$
default_name
  -OEChem-01062215323D

 33 32  0     1  0  0  0  0  0999 V2000
   -3.8420   -3.6918    1.5562 H   0  0  0  0  0  0  0  0  0  0  0  0
   -3.8430   -2.7008    1.1032 C   0  0  0  0  0  0  0  0  0  0  0  0
   -4.5510   -2.0608    1.6242 H   0  0  0  0  0  0  0  0  0  0  0  0
   -4.1140   -2.7798    0.0522 H   0  0  0  0  0  0  0  0  0  0  0  0
   -2.4570   -2.1098    1.2172 C   0  0  0  0  0  0  0  0  0  0  0  0
   -1.5600   -2.7438    1.7572 O   0  0  0  0  0  0  0  0  0  0  0  0
   -2.2870   -0.8898    0.7102 N   0  0  0  0  0  0  0  0  0  0  0  0
   -3.0820   -0.4218    0.2992 H   0  0  0  0  0  0  0  0  0  0  0  0
   -1.0240   -0.1468    0.7262 C   0  0  1  0  0  0  0  0  0  0  0  0
   -0.2200   -0.8351    0.9902 H   0  0  0  0  0  0  0  0  0  0  0  0
   -0.7566    0.4051   -0.6876 C   0  0  0  0  0  0  0  0  0  0  0  0
   -1.6418    0.9512   -1.0201 H   0  0  0  0  0  0  0  0  0  0  0  0
    0.0799    1.1041   -0.6486 H   0  0  0  0  0  0  0  0  0  0  0  0
   -0.4531   -0.6910   -1.7209 C   0  0  0  0  0  0  0  0  0  0  0  0
    0.4212   -1.2605   -1.4043 H   0  0  0  0  0  0  0  0  0  0  0  0
   -1.3102   -1.3629   -1.7938 H   0  0  0  0  0  0  0  0  0  0  0  0
   -0.1720   -0.0813   -3.0990 C   0  0  0  0  0  0  0  0  0  0  0  0
   -1.0355    0.4986   -3.4262 H   0  0  0  0  0  0  0  0  0  0  0  0
    0.6983    0.5725   -3.0366 H   0  0  0  0  0  0  0  0  0  0  0  0
    0.1017   -1.1920   -4.1112 C   0  0  0  0  0  0  0  0  0  0  0  0
    0.9749   -1.7610   -3.7961 H   0  0  0  0  0  0  0  0  0  0  0  0
   -0.7595   -1.8562   -4.1617 H   0  0  0  0  0  0  0  0  0  0  0  0
    0.3520   -0.6433   -5.4489 N   0  0  0  0  0  0  0  0  0  0  0  0
    0.5422   -1.4018   -6.0872 H   0  0  0  0  0  0  0  0  0  0  0  0
   -0.4675   -0.1410   -5.7596 H   0  0  0  0  0  0  0  0  0  0  0  0
   -1.0770    0.9661    1.7858 C   0  0  0  0  0  0  0  0  0  0  0  0
   -1.4768    2.0880    1.4821 O   0  0  0  0  0  0  0  0  0  0  0  0
   -0.6650    0.6549    3.0203 N   0  0  0  0  0  0  0  0  0  0  0  0
   -0.3657   -0.2906    3.1934 H   0  0  0  0  0  0  0  0  0  0  0  0
   -0.6379    1.6014    4.1344 C   0  0  0  0  0  0  0  0  0  0  0  0
   -1.6287    2.0405    4.2698 H   0  0  0  0  0  0  0  0  0  0  0  0
   -0.3390    1.0966    5.0542 H   0  0  0  0  0  0  0  0  0  0  0  0
    0.0694    2.4044    3.9167 H   0  0  0  0  0  0  0  0  0  0  0  0
  5  6  2  0  0  0  0
  5  7  1  0  0  0  0
  2  3  1  0  0  0  0
  2  4  1  0  0  0  0
  2  5  1  0  0  0  0
  1  2  1  0  0  0  0
 26 27  2  0  0  0  0
 26 28  1  0  0  0  0
 23 24  1  0  0  0  0
 23 25  1  0  0  0  0
 20 21  1  0  0  0  0
 20 22  1  0  0  0  0
 20 23  1  0  0  0  0
 17 18  1  0  0  0  0
 17 19  1  0  0  0  0
 17 20  1  0  0  0  0
 14 15  1  0  0  0  0
 14 16  1  0  0  0  0
 14 17  1  0  0  0  0
 11 12  1  0  0  0  0
 11 13  1  0  0  0  0
 11 14  1  0  0  0  0
  9 10  1  0  0  0  0
  9 11  1  0  0  0  0
  9 26  1  0  0  0  0
  7  8  1  0  0  0  0
  7  9  1  0  0  0  0
 30 31  1  0  0  0  0
 30 32  1  0  0  0  0
 30 33  1  0  0  0  0
 28 29  1  0  0  0  0
 28 30  1  0  0  0  0
M  END
$$$$
default_name
  -OEChem-01062215323D

 33 32  0     1  0  0  0  0  0999 V2000
   -3.8420   -3.6918    1.5562 H   0  0  0  0  0  0  0  0  0  0  0  0
   -3.8430   -2.7008    1.1032 C   0  0  0  0  0  0  0  0  0  0  0  0
   -4.5510   -2.0608    1.6242 H   0  0  0  0  0  0  0  0  0  0  0  0
   -4.1140   -2.7798    0.0522 H   0  0  0  0  0  0  0  0  0  0  0  0
   -2.4570   -2.1098    1.2172 C   0  0  0  0  0  0  0  0  0  0  0  0
   -1.5600   -2.7438    1.7572 O   0  0  0  0  0  0  0  0  0  0  0  0
   -2.2870   -0.8898    0.7102 N   0  0  0  0  0  0  0  0  0  0  0  0
   -3.0820   -0.4218    0.2992 H   0  0  0  0  0  0  0  0  0  0  0  0
   -1.0240   -0.1468    0.7262 C   0  0  1  0  0  0  0  0  0  0  0  0
   -0.2200   -0.8351    0.9902 H   0  0  0  0  0  0  0  0  0  0  0  0
   -0.7566    0.4051   -0.6876 C   0  0  0  0  0  0  0  0  0  0  0  0
   -1.6418    0.9512   -1.0201 H   0  0  0  0  0  0  0  0  0  0  0  0
    0.0799    1.1041   -0.6486 H   0  0  0  0  0  0  0  0  0  0  0  0
   -0.4531   -0.6910   -1.7209 C   0  0  0  0  0  0  0  0  0  0  0  0
    0.4212   -1.2605   -1.4043 H   0  0  0  0  0  0  0  0  0  0  0  0
   -1.3102   -1.3629   -1.7938 H   0  0  0  0  0  0  0  0  0  0  0  0
   -0.1720   -0.0813   -3.0990 C   0  0  0  0  0  0  0  0  0  0  0  0
   -1.0355    0.4986   -3.4262 H   0  0  0  0  0  0  0  0  0  0  0  0
    0.6983    0.5725   -3.0366 H   0  0  0  0  0  0  0  0  0  0  0  0
    0.1017   -1.1920   -4.1112 C   0  0  0  0  0  0  0  0  0  0  0  0
    0.9749   -1.7610   -3.7961 H   0  0  0  0  0  0  0  0  0  0  0  0
   -0.7595   -1.8562   -4.1617 H   0  0  0  0  0  0  0  0  0  0  0  0
    0.3520   -0.6433   -5.4489 N   0  0  0  0  0  0  0  0  0  0  0  0
    0.5422   -1.4018   -6.0872 H   0  0  0  0  0  0  0  0  0  0  0  0
   -0.4675   -0.1410   -5.7596 H   0  0  0  0  0  0  0  0  0  0  0  0
   -1.0770    0.9661    1.7858 C   0  0  0  0  0  0  0  0  0  0  0  0
   -1.7209    1.9910    1.5718 O   0  0  0  0  0  0  0  0  0  0  0  0
   -0.3930    0.7651    2.9182 N   0  0  0  0  0  0  0  0  0  0  0  0
    0.0978   -0.1075    3.0243 H   0  0  0  0  0  0  0  0  0  0  0  0
   -0.3286    1.7299    4.0149 C   0  0  0  0  0  0  0  0  0  0  0  0
   -1.3392    1.9895    4.3378 H   0  0  0  0  0  0  0  0  0  0  0  0
    0.2221    1.3102    4.8579 H   0  0  0  0  0  0  0  0  0  0  0  0
    0.1700    2.6398    3.6745 H   0  0  0  0  0  0  0  0  0  0  0  0
  5  6  2  0  0  0  0
  5  7  1  0  0  0  0
  2  3  1  0  0  0  0
  2  4  1  0  0  0  0
  2  5  1  0  0  0  0
  1  2  1  0  0  0  0
 26 27  2  0  0  0  0
 26 28  1  0  0  0  0
 23 24  1  0  0  0  0
 23 25  1  0  0  0  0
 20 21  1  0  0  0  0
 20 22  1  0  0  0  0
 20 23  1  0  0  0  0
 17 18  1  0  0  0  0
 17 19  1  0  0  0  0
 17 20  1  0  0  0  0
 14 15  1  0  0  0  0
 14 16  1  0  0  0  0
 14 17  1  0  0  0  0
 11 12  1  0  0  0  0
 11 13  1  0  0  0  0
 11 14  1  0  0  0  0
  9 10  1  0  0  0  0
  9 11  1  0  0  0  0
  9 26  1  0  0  0  0
  7  8  1  0  0  0  0
  7  9  1  0  0  0  0
 30 31  1  0  0  0  0
 30 32  1  0  0  0  0
 30 33  1  0  0  0  0
 28 29  1  0  0  0  0
 28 30  1  0  0  0  0
M  END
$$$$
default_name
  -OEChem-01062215323D

 33 32  0     1  0  0  0  0  0999 V2000
   -3.8420   -3.6918    1.5562 H   0  0  0  0  0  0  0  0  0  0  0  0
   -3.8430   -2.7008    1.1032 C   0  0  0  0  0  0  0  0  0  0  0  0
   -4.5510   -2.0608    1.6242 H   0  0  0  0  0  0  0  0  0  0  0  0
   -4.1140   -2.7798    0.0522 H   0  0  0  0  0  0  0  0  0  0  0  0
   -2.4570   -2.1098    1.2172 C   0  0  0  0  0  0  0  0  0  0  0  0
   -1.5600   -2.7438    1.7572 O   0  0  0  0  0  0  0  0  0  0  0  0
   -2.2870   -0.8898    0.7102 N   0  0  0  0  0  0  0  0  0  0  0  0
   -3.0820   -0.4218    0.2992 H   0  0  0  0  0  0  0  0  0  0  0  0
   -1.0240   -0.1468    0.7262 C   0  0  1  0  0  0  0  0  0  0  0  0
   -0.2200   -0.8351    0.9902 H   0  0  0  0  0  0  0  0  0  0  0  0
   -0.7566    0.4051   -0.6876 C   0  0  0  0  0  0  0  0  0  0  0  0
   -1.6418    0.9512   -1.0201 H   0  0  0  0  0  0  0  0  0  0  0  0
    0.0799    1.1041   -0.6486 H   0  0  0  0  0  0  0  0  0  0  0  0
   -0.4531   -0.6910   -1.7209 C   0  0  0  0  0  0  0  0  0  0  0  0
    0.4212   -1.2605   -1.4043 H   0  0  0  0  0  0  0  0  0  0  0  0
   -1.3102   -1.3629   -1.7938 H   0  0  0  0  0  0  0  0  0  0  0  0
   -0.1720   -0.0813   -3.0990 C   0  0  0  0  0  0  0  0  0  0  0  0
   -1.0355    0.4986   -3.4262 H   0  0  0  0  0  0  0  0  0  0  0  0
    0.6983    0.5725   -3.0366 H   0  0  0  0  0  0  0  0  0  0  0  0
    0.1017   -1.1920   -4.1112 C   0  0  0  0  0  0  0  0  0  0  0  0
    0.9749   -1.7610   -3.7961 H   0  0  0  0  0  0  0  0  0  0  0  0
   -0.7595   -1.8562   -4.1617 H   0  0  0  0  0  0  0  0  0  0  0  0
    0.3520   -0.6433   -5.4489 N   0  0  0  0  0  0  0  0  0  0  0  0
    0.5422   -1.4018   -6.0872 H   0  0  0  0  0  0  0  0  0  0  0  0
   -0.4675   -0.1410   -5.7596 H   0  0  0  0  0  0  0  0  0  0  0  0
   -1.0770    0.9661    1.7858 C   0  0  0  0  0  0  0  0  0  0  0  0
   -1.9226    1.8545    1.7050 O   0  0  0  0  0  0  0  0  0  0  0  0
   -0.1691    0.9191    2.7676 N   0  0  0  0  0  0  0  0  0  0  0  0
    0.4813    0.1506    2.7724 H   0  0  0  0  0  0  0  0  0  0  0  0
   -0.0753    1.9081    3.8404 C   0  0  0  0  0  0  0  0  0  0  0  0
   -1.0377    1.9925    4.3498 H   0  0  0  0  0  0  0  0  0  0  0  0
    0.6892    1.6148    4.5614 H   0  0  0  0  0  0  0  0  0  0  0  0
    0.1799    2.8830    3.4196 H   0  0  0  0  0  0  0  0  0  0  0  0
  5  6  2  0  0  0  0
  5  7  1  0  0  0  0
  2  3  1  0  0  0  0
  2  4  1  0  0  0  0
  2  5  1  0  0  0  0
  1  2  1  0  0  0  0
 26 27  2  0  0  0  0
 26 28  1  0  0  0  0
 23 24  1  0  0  0  0
 23 25  1  0  0  0  0
 20 21  1  0  0  0  0
 20 22  1  0  0  0  0
 20 23  1  0  0  0  0
 17 18  1  0  0  0  0
 17 19  1  0  0  0  0
 17 20  1  0  0  0  0
 14 15  1  0  0  0  0
 14 16  1  0  0  0  0
 14 17  1  0  0  0  0
 11 12  1  0  0  0  0
 11 13  1  0  0  0  0
 11 14  1  0  0  0  0
  9 10  1  0  0  0  0
  9 11  1  0  0  0  0
  9 26  1  0  0  0  0
  7  8  1  0  0  0  0
  7  9  1  0  0  0  0
 30 31  1  0  0  0  0
 30 32  1  0  0  0  0
 30 33  1  0  0  0  0
 28 29  1  0  0  0  0
 28 30  1  0  0  0  0
M  END
$$$$
default_name
  -OEChem-01062215323D

 33 32  0     1  0  0  0  0  0999 V2000
   -3.8420   -3.6918    1.5562 H   0  0  0  0  0  0  0  0  0  0  0  0
   -3.8430   -2.7008    1.1032 C   0  0  0  0  0  0  0  0  0  0  0  0
   -4.5510   -2.0608    1.6242 H   0  0  0  0  0  0  0  0  0  0  0  0
   -4.1140   -2.7798    0.0522 H   0  0  0  0  0  0  0  0  0  0  0  0
   -2.4570   -2.1098    1.2172 C   0  0  0  0  0  0  0  0  0  0  0  0
   -1.5600   -2.7438    1.7572 O   0  0  0  0  0  0  0  0  0  0  0  0
   -2.2870   -0.8898    0.7102 N   0  0  0  0  0  0  0  0  0  0  0  0
   -3.0820   -0.4218    0.2992 H   0  0  0  0  0  0  0  0  0  0  0  0
   -1.0240   -0.1468    0.7262 C   0  0  1  0  0  0  0  0  0  0  0  0
   -0.2200   -0.8351    0.9902 H   0  0  0  0  0  0  0  0  0  0  0  0
   -0.7566    0.4051   -0.6876 C   0  0  0  0  0  0  0  0  0  0  0  0
   -1.6418    0.9512   -1.0201 H   0  0  0  0  0  0  0  0  0  0  0  0
    0.0799    1.1041   -0.6486 H   0  0  0  0  0  0  0  0  0  0  0  0
   -0.4531   -0.6910   -1.7209 C   0  0  0  0  0  0  0  0  0  0  0  0
    0.4212   -1.2605   -1.4043 H   0  0  0  0  0  0  0  0  0  0  0  0
   -1.3102   -1.3629   -1.7938 H   0  0  0  0  0  0  0  0  0  0  0  0
   -0.1720   -0.0813   -3.0990 C   0  0  0  0  0  0  0  0  0  0  0  0
   -1.0355    0.4986   -3.4262 H   0  0  0  0  0  0  0  0  0  0  0  0
    0.6983    0.5725   -3.0366 H   0  0  0  0  0  0  0  0  0  0  0  0
    0.1017   -1.1920   -4.1112 C   0  0  0  0  0  0  0  0  0  0  0  0
    0.9749   -1.7610   -3.7961 H   0  0  0  0  0  0  0  0  0  0  0  0
   -0.7595   -1.8562   -4.1617 H   0  0  0  0  0  0  0  0  0  0  0  0
    0.3520   -0.6433   -5.4489 N   0  0  0  0  0  0  0  0  0  0  0  0
    0.5422   -1.4018   -6.0872 H   0  0  0  0  0  0  0  0  0  0  0  0
   -0.4675   -0.1410   -5.7596 H   0  0  0  0  0  0  0  0  0  0  0  0
   -1.0770    0.9661    1.7858 C   0  0  0  0  0  0  0  0  0  0  0  0
   -2.0681    1.6879    1.8727 O   0  0  0  0  0  0  0  0  0  0  0  0
   -0.0084    1.1065    2.5789 N   0  0  0  0  0  0  0  0  0  0  0  0
    0.7584    0.4660    2.4550 H   0  0  0  0  0  0  0  0  0  0  0  0
    0.1050    2.1239    3.6228 C   0  0  0  0  0  0  0  0  0  0  0  0
   -0.7448    2.0492    4.3048 H   0  0  0  0  0  0  0  0  0  0  0  0
    1.0305    1.9898    4.1847 H   0  0  0  0  0  0  0  0  0  0  0  0
    0.0983    3.1173    3.1694 H   0  0  0  0  0  0  0  0  0  0  0  0
  5  6  2  0  0  0  0
  5  7  1  0  0  0  0
  2  3  1  0  0  0  0
  2  4  1  0  0  0  0
  2  5  1  0  0  0  0
  1  2  1  0  0  0  0
 26 27  2  0  0  0  0
 26 28  1  0  0  0  0
 23 24  1  0  0  0  0
 23 25  1  0  0  0  0
 20 21  1  0  0  0  0
 20 22  1  0  0  0  0
 20 23  1  0  0  0  0
 17 18  1  0  0  0  0
 17 19  1  0  0  0  0
 17 20  1  0  0  0  0
 14 15  1  0  0  0  0
 14 16  1  0  0  0  0
 14 17  1  0  0  0  0
 11 12  1  0  0  0  0
 11 13  1  0  0  0  0
 11 14  1  0  0  0  0
  9 10  1  0  0  0  0
  9 11  1  0  0  0  0
  9 26  1  0  0  0  0
  7  8  1  0  0  0  0
  7  9  1  0  0  0  0
 30 31  1  0  0  0  0
 30 32  1  0  0  0  0
 30 33  1  0  0  0  0
 28 29  1  0  0  0  0
 28 30  1  0  0  0  0
M  END
$$$$
default_name
  -OEChem-01062215323D

 33 32  0     1  0  0  0  0  0999 V2000
   -3.8420   -3.6918    1.5562 H   0  0  0  0  0  0  0  0  0  0  0  0
   -3.8430   -2.7008    1.1032 C   0  0  0  0  0  0  0  0  0  0  0  0
   -4.5510   -2.0608    1.6242 H   0  0  0  0  0  0  0  0  0  0  0  0
   -4.1140   -2.7798    0.0522 H   0  0  0  0  0  0  0  0  0  0  0  0
   -2.4570   -2.1098    1.2172 C   0  0  0  0  0  0  0  0  0  0  0  0
   -1.5600   -2.7438    1.7572 O   0  0  0  0  0  0  0  0  0  0  0  0
   -2.2870   -0.8898    0.7102 N   0  0  0  0  0  0  0  0  0  0  0  0
   -3.0820   -0.4218    0.2992 H   0  0  0  0  0  0  0  0  0  0  0  0
   -1.0240   -0.1468    0.7262 C   0  0  1  0  0  0  0  0  0  0  0  0
   -0.2200   -0.8351    0.9902 H   0  0  0  0  0  0  0  0  0  0  0  0
   -0.7566    0.4051   -0.6876 C   0  0  0  0  0  0  0  0  0  0  0  0
   -1.6418    0.9512   -1.0201 H   0  0  0  0  0  0  0  0  0  0  0  0
    0.0799    1.1041   -0.6486 H   0  0  0  0  0  0  0  0  0  0  0  0
   -0.4531   -0.6910   -1.7209 C   0  0  0  0  0  0  0  0  0  0  0  0
    0.4212   -1.2605   -1.4043 H   0  0  0  0  0  0  0  0  0  0  0  0
   -1.3102   -1.3629   -1.7938 H   0  0  0  0  0  0  0  0  0  0  0  0
   -0.1720   -0.0813   -3.0990 C   0  0  0  0  0  0  0  0  0  0  0  0
   -1.0355    0.4986   -3.4262 H   0  0  0  0  0  0  0  0  0  0  0  0
    0.6983    0.5725   -3.0366 H   0  0  0  0  0  0  0  0  0  0  0  0
    0.1017   -1.1920   -4.1112 C   0  0  0  0  0  0  0  0  0  0  0  0
    0.9749   -1.7610   -3.7961 H   0  0  0  0  0  0  0  0  0  0  0  0
   -0.7595   -1.8562   -4.1617 H   0  0  0  0  0  0  0  0  0  0  0  0
    0.3520   -0.6433   -5.4489 N   0  0  0  0  0  0  0  0  0  0  0  0
    0.5422   -1.4018   -6.0872 H   0  0  0  0  0  0  0  0  0  0  0  0
   -0.4675   -0.1410   -5.7596 H   0  0  0  0  0  0  0  0  0  0  0  0
   -1.0770    0.9661    1.7858 C   0  0  0  0  0  0  0  0  0  0  0  0
   -2.1476    1.5025    2.0635 O   0  0  0  0  0  0  0  0  0  0  0  0
    0.0779    1.3145    2.3648 N   0  0  0  0  0  0  0  0  0  0  0  0
    0.9104    0.8173    2.0937 H   0  0  0  0  0  0  0  0  0  0  0  0
    0.1999    2.3626    3.3769 C   0  0  0  0  0  0  0  0  0  0  0  0
   -0.4804    2.1559    4.2060 H   0  0  0  0  0  0  0  0  0  0  0  0
    1.2227    2.4095    3.7535 H   0  0  0  0  0  0  0  0  0  0  0  0
   -0.0692    3.3269    2.9409 H   0  0  0  0  0  0  0  0  0  0  0  0
  5  6  2  0  0  0  0
  5  7  1  0  0  0  0
  2  3  1  0  0  0  0
  2  4  1  0  0  0  0
  2  5  1  0  0  0  0
  1  2  1  0  0  0  0
 26 27  2  0  0  0  0
 26 28  1  0  0  0  0
 23 24  1  0  0  0  0
 23 25  1  0  0  0  0
 20 21  1  0  0  0  0
 20 22  1  0  0  0  0
 20 23  1  0  0  0  0
 17 18  1  0  0  0  0
 17 19  1  0  0  0  0
 17 20  1  0  0  0  0
 14 15  1  0  0  0  0
 14 16  1  0  0  0  0
 14 17  1  0  0  0  0
 11 12  1  0  0  0  0
 11 13  1  0  0  0  0
 11 14  1  0  0  0  0
  9 10  1  0  0  0  0
  9 11  1  0  0  0  0
  9 26  1  0  0  0  0
  7  8  1  0  0  0  0
  7  9  1  0  0  0  0
 30 31  1  0  0  0  0
 30 32  1  0  0  0  0
 30 33  1  0  0  0  0
 28 29  1  0  0  0  0
 28 30  1  0  0  0  0
M  END
$$$$
default_name
  -OEChem-01062215323D

 33 32  0     1  0  0  0  0  0999 V2000
   -3.8420   -3.6918    1.5562 H   0  0  0  0  0  0  0  0  0  0  0  0
   -3.8430   -2.7008    1.1032 C   0  0  0  0  0  0  0  0  0  0  0  0
   -4.5510   -2.0608    1.6242 H   0  0  0  0  0  0  0  0  0  0  0  0
   -4.1140   -2.7798    0.0522 H   0  0  0  0  0  0  0  0  0  0  0  0
   -2.4570   -2.1098    1.2172 C   0  0  0  0  0  0  0  0  0  0  0  0
   -1.5600   -2.7438    1.7572 O   0  0  0  0  0  0  0  0  0  0  0  0
   -2.2870   -0.8898    0.7102 N   0  0  0  0  0  0  0  0  0  0  0  0
   -3.0820   -0.4218    0.2992 H   0  0  0  0  0  0  0  0  0  0  0  0
   -1.0240   -0.1468    0.7262 C   0  0  1  0  0  0  0  0  0  0  0  0
   -0.2200   -0.8351    0.9902 H   0  0  0  0  0  0  0  0  0  0  0  0
   -0.7566    0.4051   -0.6876 C   0  0  0  0  0  0  0  0  0  0  0  0
   -1.6418    0.9512   -1.0201 H   0  0  0  0  0  0  0  0  0  0  0  0
    0.0799    1.1041   -0.6486 H   0  0  0  0  0  0  0  0  0  0  0  0
   -0.4531   -0.6910   -1.7209 C   0  0  0  0  0  0  0  0  0  0  0  0
    0.4212   -1.2605   -1.4043 H   0  0  0  0  0  0  0  0  0  0  0  0
   -1.3102   -1.3629   -1.7938 H   0  0  0  0  0  0  0  0  0  0  0  0
   -0.1720   -0.0813   -3.0990 C   0  0  0  0  0  0  0  0  0  0  0  0
   -1.0355    0.4986   -3.4262 H   0  0  0  0  0  0  0  0  0  0  0  0
    0.6983    0.5725   -3.0366 H   0  0  0  0  0  0  0  0  0  0  0  0
    0.1017   -1.1920   -4.1112 C   0  0  0  0  0  0  0  0  0  0  0  0
    0.9749   -1.7610   -3.7961 H   0  0  0  0  0  0  0  0  0  0  0  0
   -0.7595   -1.8562   -4.1617 H   0  0  0  0  0  0  0  0  0  0  0  0
    0.3520   -0.6433   -5.4489 N   0  0  0  0  0  0  0  0  0  0  0  0
    0.5422   -1.4018   -6.0872 H   0  0  0  0  0  0  0  0  0  0  0  0
   -0.4675   -0.1410   -5.7596 H   0  0  0  0  0  0  0  0  0  0  0  0
   -1.0770    0.9661    1.7858 C   0  0  0  0  0  0  0  0  0  0  0  0
   -2.1555    1.3109    2.2642 O   0  0  0  0  0  0  0  0  0  0  0  0
    0.0842    1.5288    2.1400 N   0  0  0  0  0  0  0  0  0  0  0  0
    0.9268    1.1805    1.7131 H   0  0  0  0  0  0  0  0  0  0  0  0
    0.2029    2.6078    3.1195 C   0  0  0  0  0  0  0  0  0  0  0  0
   -0.2626    2.3053    4.0600 H   0  0  0  0  0  0  0  0  0  0  0  0
    1.2527    2.8453    3.2973 H   0  0  0  0  0  0  0  0  0  0  0  0
   -0.3112    3.4975    2.7497 H   0  0  0  0  0  0  0  0  0  0  0  0
  5  6  2  0  0  0  0
  5  7  1  0  0  0  0
  2  3  1  0  0  0  0
  2  4  1  0  0  0  0
  2  5  1  0  0  0  0
  1  2  1  0  0  0  0
 26 27  2  0  0  0  0
 26 28  1  0  0  0  0
 23 24  1  0  0  0  0
 23 25  1  0  0  0  0
 20 21  1  0  0  0  0
 20 22  1  0  0  0  0
 20 23  1  0  0  0  0
 17 18  1  0  0  0  0
 17 19  1  0  0  0  0
 17 20  1  0  0  0  0
 14 15  1  0  0  0  0
 14 16  1  0  0  0  0
 14 17  1  0  0  0  0
 11 12  1  0  0  0  0
 11 13  1  0  0  0  0
 11 14  1  0  0  0  0
  9 10  1  0  0  0  0
  9 11  1  0  0  0  0
  9 26  1  0  0  0  0
  7  8  1  0  0  0  0
  7  9  1  0  0  0  0
 30 31  1  0  0  0  0
 30 32  1  0  0  0  0
 30 33  1  0  0  0  0
 28 29  1  0  0  0  0
 28 30  1  0  0  0  0
M  END
$$$$
default_name
  -OEChem-01062215323D

 33 32  0     1  0  0  0  0  0999 V2000
   -3.8420   -3.6918    1.5562 H   0  0  0  0  0  0  0  0  0  0  0  0
   -3.8430   -2.7008    1.1032 C   0  0  0  0  0  0  0  0  0  0  0  0
   -4.5510   -2.0608    1.6242 H   0  0  0  0  0  0  0  0  0  0  0  0
   -4.1140   -2.7798    0.0522 H   0  0  0  0  0  0  0  0  0  0  0  0
   -2.4570   -2.1098    1.2172 C   0  0  0  0  0  0  0  0  0  0  0  0
   -1.5600   -2.7438    1.7572 O   0  0  0  0  0  0  0  0  0  0  0  0
   -2.2870   -0.8898    0.7102 N   0  0  0  0  0  0  0  0  0  0  0  0
   -3.0820   -0.4218    0.2992 H   0  0  0  0  0  0  0  0  0  0  0  0
   -1.0240   -0.1468    0.7262 C   0  0  1  0  0  0  0  0  0  0  0  0
   -0.2006   -0.8623    0.7222 H   0  0  0  0  0  0  0  0  0  0  0  0
   -0.9383    0.7110   -0.5512 C   0  0  0  0  0  0  0  0  0  0  0  0
   -1.8529    1.3017   -0.6346 H   0  0  0  0  0  0  0  0  0  0  0  0
   -0.0955    1.3984   -0.4670 H   0  0  0  0  0  0  0  0  0  0  0  0
   -0.7866   -0.1217   -1.8338 C   0  0  0  0  0  0  0  0  0  0  0  0
    0.1148   -0.7318   -1.7696 H   0  0  0  0  0  0  0  0  0  0  0  0
   -1.6539   -0.7755   -1.9420 H   0  0  0  0  0  0  0  0  0  0  0  0
   -0.6819    0.7847   -3.0656 C   0  0  0  0  0  0  0  0  0  0  0  0
   -1.5739    1.4076   -3.1391 H   0  0  0  0  0  0  0  0  0  0  0  0
    0.1969    1.4235   -2.9733 H   0  0  0  0  0  0  0  0  0  0  0  0
   -0.5571   -0.0675   -4.3271 C   0  0  0  0  0  0  0  0  0  0  0  0
    0.3430   -0.6768   -4.2641 H   0  0  0  0  0  0  0  0  0  0  0  0
   -1.4254   -0.7188   -4.4114 H   0  0  0  0  0  0  0  0  0  0  0  0
   -0.4784    0.7700   -5.5295 N   0  0  0  0  0  0  0  0  0  0  0  0
   -0.3829    0.1763   -6.3403 H   0  0  0  0  0  0  0  0  0  0  0  0
   -1.3255    1.3143   -5.6102 H   0  0  0  0  0  0  0  0  0  0  0  0
   -0.9237    0.7008    2.0051 C   0  0  0  0  0  0  0  0  0  0  0  0
   -1.8384    0.6884    2.8262 O   0  0  0  0  0  0  0  0  0  0  0  0
    0.1805    1.4397    2.1638 N   0  0  0  0  0  0  0  0  0  0  0  0
    0.8914    1.3842    1.4531 H   0  0  0  0  0  0  0  0  0  0  0  0
    0.4217    2.3101    3.3136 C   0  0  0  0  0  0  0  0  0  0  0  0
    0.3321    1.7344    4.2375 H   0  0  0  0  0  0  0  0  0  0  0  0
    1.4200    2.7464    3.2567 H   0  0  0  0  0  0  0  0  0  0  0  0
   -0.3217    3.1098    3.3310 H   0  0  0  0  0  0  0  0  0  0  0  0
  5  6  2  0  0  0  0
  5  7  1  0  0  0  0
  2  3  1  0  0  0  0
  2  4  1  0  0  0  0
  2  5  1  0  0  0  0
  1  2  1  0  0  0  0
 26 27  2  0  0  0  0
 26 28  1  0  0  0  0
 23 24  1  0  0  0  0
 23 25  1  0  0  0  0
 20 21  1  0  0  0  0
 20 22  1  0  0  0  0
 20 23  1  0  0  0  0
 17 18  1  0  0  0  0
 17 19  1  0  0  0  0
 17 20  1  0  0  0  0
 14 15  1  0  0  0  0
 14 16  1  0  0  0  0
 14 17  1  0  0  0  0
 11 12  1  0  0  0  0
 11 13  1  0  0  0  0
 11 14  1  0  0  0  0
  9 10  1  0  0  0  0
  9 11  1  0  0  0  0
  9 26  1  0  0  0  0
  7  8  1  0  0  0  0
  7  9  1  0  0  0  0
 30 31  1  0  0  0  0
 30 32  1  0  0  0  0
 30 33  1  0  0  0  0
 28 29  1  0  0  0  0
 28 30  1  0  0  0  0
M  END
$$$$
default_name
  -OEChem-01062215323D

 33 32  0     1  0  0  0  0  0999 V2000
   -3.8420   -3.6918    1.5562 H   0  0  0  0  0  0  0  0  0  0  0  0
   -3.8430   -2.7008    1.1032 C   0  0  0  0  0  0  0  0  0  0  0  0
   -4.5510   -2.0608    1.6242 H   0  0  0  0  0  0  0  0  0  0  0  0
   -4.1140   -2.7798    0.0522 H   0  0  0  0  0  0  0  0  0  0  0  0
   -2.4570   -2.1098    1.2172 C   0  0  0  0  0  0  0  0  0  0  0  0
   -1.5600   -2.7438    1.7572 O   0  0  0  0  0  0  0  0  0  0  0  0
   -2.2870   -0.8898    0.7102 N   0  0  0  0  0  0  0  0  0  0  0  0
   -3.0820   -0.4218    0.2992 H   0  0  0  0  0  0  0  0  0  0  0  0
   -1.0240   -0.1468    0.7262 C   0  0  1  0  0  0  0  0  0  0  0  0
   -0.2006   -0.8623    0.7222 H   0  0  0  0  0  0  0  0  0  0  0  0
   -0.9383    0.7110   -0.5512 C   0  0  0  0  0  0  0  0  0  0  0  0
   -1.8529    1.3017   -0.6346 H   0  0  0  0  0  0  0  0  0  0  0  0
   -0.0955    1.3984   -0.4670 H   0  0  0  0  0  0  0  0  0  0  0  0
   -0.7866   -0.1217   -1.8338 C   0  0  0  0  0  0  0  0  0  0  0  0
    0.1148   -0.7318   -1.7696 H   0  0  0  0  0  0  0  0  0  0  0  0
   -1.6539   -0.7755   -1.9420 H   0  0  0  0  0  0  0  0  0  0  0  0
   -0.6819    0.7847   -3.0656 C   0  0  0  0  0  0  0  0  0  0  0  0
   -1.5739    1.4076   -3.1391 H   0  0  0  0  0  0  0  0  0  0  0  0
    0.1969    1.4235   -2.9733 H   0  0  0  0  0  0  0  0  0  0  0  0
   -0.5571   -0.0675   -4.3271 C   0  0  0  0  0  0  0  0  0  0  0  0
    0.3430   -0.6768   -4.2641 H   0  0  0  0  0  0  0  0  0  0  0  0
   -1.4254   -0.7188   -4.4114 H   0  0  0  0  0  0  0  0  0  0  0  0
   -0.4784    0.7700   -5.5295 N   0  0  0  0  0  0  0  0  0  0  0  0
   -0.3829    0.1763   -6.3403 H   0  0  0  0  0  0  0  0  0  0  0  0
   -1.3255    1.3143   -5.6102 H   0  0  0  0  0  0  0  0  0  0  0  0
   -0.9237    0.7008    2.0051 C   0  0  0  0  0  0  0  0  0  0  0  0
   -1.6860    0.4896    2.9460 O   0  0  0  0  0  0  0  0  0  0  0  0
    0.0078    1.6610    2.0307 N   0  0  0  0  0  0  0  0  0  0  0  0
    0.6038    1.7617    1.2255 H   0  0  0  0  0  0  0  0  0  0  0  0
    0.2207    2.5616    3.1627 C   0  0  0  0  0  0  0  0  0  0  0  0
    0.3908    1.9790    4.0708 H   0  0  0  0  0  0  0  0  0  0  0  0
    1.0835    3.2037    2.9800 H   0  0  0  0  0  0  0  0  0  0  0  0
   -0.6662    3.1813    3.3106 H   0  0  0  0  0  0  0  0  0  0  0  0
  5  6  2  0  0  0  0
  5  7  1  0  0  0  0
  2  3  1  0  0  0  0
  2  4  1  0  0  0  0
  2  5  1  0  0  0  0
  1  2  1  0  0  0  0
 26 27  2  0  0  0  0
 26 28  1  0  0  0  0
 23 24  1  0  0  0  0
 23 25  1  0  0  0  0
 20 21  1  0  0  0  0
 20 22  1  0  0  0  0
 20 23  1  0  0  0  0
 17 18  1  0  0  0  0
 17 19  1  0  0  0  0
 17 20  1  0  0  0  0
 14 15  1  0  0  0  0
 14 16  1  0  0  0  0
 14 17  1  0  0  0  0
 11 12  1  0  0  0  0
 11 13  1  0  0  0  0
 11 14  1  0  0  0  0
  9 10  1  0  0  0  0
  9 11  1  0  0  0  0
  9 26  1  0  0  0  0
  7  8  1  0  0  0  0
  7  9  1  0  0  0  0
 30 31  1  0  0  0  0
 30 32  1  0  0  0  0
 30 33  1  0  0  0  0
 28 29  1  0  0  0  0
 28 30  1  0  0  0  0
M  END
$$$$
default_name
  -OEChem-01062215323D

 33 32  0     1  0  0  0  0  0999 V2000
   -3.8420   -3.6918    1.5562 H   0  0  0  0  0  0  0  0  0  0  0  0
   -3.8430   -2.7008    1.1032 C   0  0  0  0  0  0  0  0  0  0  0  0
   -4.5510   -2.0608    1.6242 H   0  0  0  0  0  0  0  0  0  0  0  0
   -4.1140   -2.7798    0.0522 H   0  0  0  0  0  0  0  0  0  0  0  0
   -2.4570   -2.1098    1.2172 C   0  0  0  0  0  0  0  0  0  0  0  0
   -1.5600   -2.7438    1.7572 O   0  0  0  0  0  0  0  0  0  0  0  0
   -2.2870   -0.8898    0.7102 N   0  0  0  0  0  0  0  0  0  0  0  0
   -3.0820   -0.4218    0.2992 H   0  0  0  0  0  0  0  0  0  0  0  0
   -1.0240   -0.1468    0.7262 C   0  0  1  0  0  0  0  0  0  0  0  0
   -0.2006   -0.8623    0.7222 H   0  0  0  0  0  0  0  0  0  0  0  0
   -0.9383    0.7110   -0.5512 C   0  0  0  0  0  0  0  0  0  0  0  0
   -1.8529    1.3017   -0.6346 H   0  0  0  0  0  0  0  0  0  0  0  0
   -0.0955    1.3984   -0.4670 H   0  0  0  0  0  0  0  0  0  0  0  0
   -0.7866   -0.1217   -1.8338 C   0  0  0  0  0  0  0  0  0  0  0  0
    0.1148   -0.7318   -1.7696 H   0  0  0  0  0  0  0  0  0  0  0  0
   -1.6539   -0.7755   -1.9420 H   0  0  0  0  0  0  0  0  0  0  0  0
   -0.6819    0.7847   -3.0656 C   0  0  0  0  0  0  0  0  0  0  0  0
   -1.5739    1.4076   -3.1391 H   0  0  0  0  0  0  0  0  0  0  0  0
    0.1969    1.4235   -2.9733 H   0  0  0  0  0  0  0  0  0  0  0  0
   -0.5571   -0.0675   -4.3271 C   0  0  0  0  0  0  0  0  0  0  0  0
    0.3430   -0.6768   -4.2641 H   0  0  0  0  0  0  0  0  0  0  0  0
   -1.4254   -0.7188   -4.4114 H   0  0  0  0  0  0  0  0  0  0  0  0
   -0.4784    0.7700   -5.5295 N   0  0  0  0  0  0  0  0  0  0  0  0
   -0.3829    0.1763   -6.3403 H   0  0  0  0  0  0  0  0  0  0  0  0
   -1.3255    1.3143   -5.6102 H   0  0  0  0  0  0  0  0  0  0  0  0
   -0.9237    0.7008    2.0051 C   0  0  0  0  0  0  0  0  0  0  0  0
   -1.4790    0.3284    3.0366 O   0  0  0  0  0  0  0  0  0  0  0  0
   -0.2257    1.8399    1.9305 N   0  0  0  0  0  0  0  0  0  0  0  0
    0.2122    2.0682    1.0531 H   0  0  0  0  0  0  0  0  0  0  0  0
   -0.0492    2.7637    3.0499 C   0  0  0  0  0  0  0  0  0  0  0  0
    0.3712    2.2307    3.9055 H   0  0  0  0  0  0  0  0  0  0  0  0
    0.6205    3.5777    2.7684 H   0  0  0  0  0  0  0  0  0  0  0  0
   -1.0172    3.1766    3.3412 H   0  0  0  0  0  0  0  0  0  0  0  0
  5  6  2  0  0  0  0
  5  7  1  0  0  0  0
  2  3  1  0  0  0  0
  2  4  1  0  0  0  0
  2  5  1  0  0  0  0
  1  2  1  0  0  0  0
 26 27  2  0  0  0  0
 26 28  1  0  0  0  0
 23 24  1  0  0  0  0
 23 25  1  0  0  0  0
 20 21  1  0  0  0  0
 20 22  1  0  0  0  0
 20 23  1  0  0  0  0
 17 18  1  0  0  0  0
 17 19  1  0  0  0  0
 17 20  1  0  0  0  0
 14 15  1  0  0  0  0
 14 16  1  0  0  0  0
 14 17  1  0  0  0  0
 11 12  1  0  0  0  0
 11 13  1  0  0  0  0
 11 14  1  0  0  0  0
  9 10  1  0  0  0  0
  9 11  1  0  0  0  0
  9 26  1  0  0  0  0
  7  8  1  0  0  0  0
  7  9  1  0  0  0  0
 30 31  1  0  0  0  0
 30 32  1  0  0  0  0
 30 33  1  0  0  0  0
 28 29  1  0  0  0  0
 28 30  1  0  0  0  0
M  END
$$$$
default_name
  -OEChem-01062215323D

 33 32  0     1  0  0  0  0  0999 V2000
   -3.8420   -3.6918    1.5562 H   0  0  0  0  0  0  0  0  0  0  0  0
   -3.8430   -2.7008    1.1032 C   0  0  0  0  0  0  0  0  0  0  0  0
   -4.5510   -2.0608    1.6242 H   0  0  0  0  0  0  0  0  0  0  0  0
   -4.1140   -2.7798    0.0522 H   0  0  0  0  0  0  0  0  0  0  0  0
   -2.4570   -2.1098    1.2172 C   0  0  0  0  0  0  0  0  0  0  0  0
   -1.5600   -2.7438    1.7572 O   0  0  0  0  0  0  0  0  0  0  0  0
   -2.2870   -0.8898    0.7102 N   0  0  0  0  0  0  0  0  0  0  0  0
   -3.0820   -0.4218    0.2992 H   0  0  0  0  0  0  0  0  0  0  0  0
   -1.0240   -0.1468    0.7262 C   0  0  1  0  0  0  0  0  0  0  0  0
   -0.2006   -0.8623    0.7222 H   0  0  0  0  0  0  0  0  0  0  0  0
   -0.9383    0.7110   -0.5512 C   0  0  0  0  0  0  0  0  0  0  0  0
   -1.8529    1.3017   -0.6346 H   0  0  0  0  0  0  0  0  0  0  0  0
   -0.0955    1.3984   -0.4670 H   0  0  0  0  0  0  0  0  0  0  0  0
   -0.7866   -0.1217   -1.8338 C   0  0  0  0  0  0  0  0  0  0  0  0
    0.1148   -0.7318   -1.7696 H   0  0  0  0  0  0  0  0  0  0  0  0
   -1.6539   -0.7755   -1.9420 H   0  0  0  0  0  0  0  0  0  0  0  0
   -0.6819    0.7847   -3.0656 C   0  0  0  0  0  0  0  0  0  0  0  0
   -1.5739    1.4076   -3.1391 H   0  0  0  0  0  0  0  0  0  0  0  0
    0.1969    1.4235   -2.9733 H   0  0  0  0  0  0  0  0  0  0  0  0
   -0.5571   -0.0675   -4.3271 C   0  0  0  0  0  0  0  0  0  0  0  0
    0.3430   -0.6768   -4.2641 H   0  0  0  0  0  0  0  0  0  0  0  0
   -1.4254   -0.7188   -4.4114 H   0  0  0  0  0  0  0  0  0  0  0  0
   -0.4784    0.7700   -5.5295 N   0  0  0  0  0  0  0  0  0  0  0  0
   -0.3829    0.1763   -6.3403 H   0  0  0  0  0  0  0  0  0  0  0  0
   -1.3255    1.3143   -5.6102 H   0  0  0  0  0  0  0  0  0  0  0  0
   -0.9237    0.7008    2.0051 C   0  0  0  0  0  0  0  0  0  0  0  0
   -1.2314    0.2157    3.0918 O   0  0  0  0  0  0  0  0  0  0  0  0
   -0.5040    1.9641    1.8700 N   0  0  0  0  0  0  0  0  0  0  0  0
   -0.2566    2.2829    0.9476 H   0  0  0  0  0  0  0  0  0  0  0  0
   -0.3695    2.9028    2.9828 C   0  0  0  0  0  0  0  0  0  0  0  0
    0.2744    2.4723    3.7529 H   0  0  0  0  0  0  0  0  0  0  0  0
    0.0626    3.8428    2.6365 H   0  0  0  0  0  0  0  0  0  0  0  0
   -1.3509    3.0959    3.4209 H   0  0  0  0  0  0  0  0  0  0  0  0
  5  6  2  0  0  0  0
  5  7  1  0  0  0  0
  2  3  1  0  0  0  0
  2  4  1  0  0  0  0
  2  5  1  0  0  0  0
  1  2  1  0  0  0  0
 26 27  2  0  0  0  0
 26 28  1  0  0  0  0
 23 24  1  0  0  0  0
 23 25  1  0  0  0  0
 20 21  1  0  0  0  0
 20 22  1  0  0  0  0
 20 23  1  0  0  0  0
 17 18  1  0  0  0  0
 17 19  1  0  0  0  0
 17 20  1  0  0  0  0
 14 15  1  0  0  0  0
 14 16  1  0  0  0  0
 14 17  1  0  0  0  0
 11 12  1  0  0  0  0
 11 13  1  0  0  0  0
 11 14  1  0  0  0  0
  9 10  1  0  0  0  0
  9 11  1  0  0  0  0
  9 26  1  0  0  0  0
  7  8  1  0  0  0  0
  7  9  1  0  0  0  0
 30 31  1  0  0  0  0
 30 32  1  0  0  0  0
 30 33  1  0  0  0  0
 28 29  1  0  0  0  0
 28 30  1  0  0  0  0
M  END
$$$$
default_name
  -OEChem-01062215323D

 33 32  0     1  0  0  0  0  0999 V2000
   -3.8420   -3.6918    1.5562 H   0  0  0  0  0  0  0  0  0  0  0  0
   -3.8430   -2.7008    1.1032 C   0  0  0  0  0  0  0  0  0  0  0  0
   -4.5510   -2.0608    1.6242 H   0  0  0  0  0  0  0  0  0  0  0  0
   -4.1140   -2.7798    0.0522 H   0  0  0  0  0  0  0  0  0  0  0  0
   -2.4570   -2.1098    1.2172 C   0  0  0  0  0  0  0  0  0  0  0  0
   -1.5600   -2.7438    1.7572 O   0  0  0  0  0  0  0  0  0  0  0  0
   -2.2870   -0.8898    0.7102 N   0  0  0  0  0  0  0  0  0  0  0  0
   -3.0820   -0.4218    0.2992 H   0  0  0  0  0  0  0  0  0  0  0  0
   -1.0240   -0.1468    0.7262 C   0  0  1  0  0  0  0  0  0  0  0  0
   -0.2006   -0.8623    0.7222 H   0  0  0  0  0  0  0  0  0  0  0  0
   -0.9383    0.7110   -0.5512 C   0  0  0  0  0  0  0  0  0  0  0  0
   -1.8529    1.3017   -0.6346 H   0  0  0  0  0  0  0  0  0  0  0  0
   -0.0955    1.3984   -0.4670 H   0  0  0  0  0  0  0  0  0  0  0  0
   -0.7866   -0.1217   -1.8338 C   0  0  0  0  0  0  0  0  0  0  0  0
    0.1148   -0.7318   -1.7696 H   0  0  0  0  0  0  0  0  0  0  0  0
   -1.6539   -0.7755   -1.9420 H   0  0  0  0  0  0  0  0  0  0  0  0
   -0.6819    0.7847   -3.0656 C   0  0  0  0  0  0  0  0  0  0  0  0
   -1.5739    1.4076   -3.1391 H   0  0  0  0  0  0  0  0  0  0  0  0
    0.1969    1.4235   -2.9733 H   0  0  0  0  0  0  0  0  0  0  0  0
   -0.5571   -0.0675   -4.3271 C   0  0  0  0  0  0  0  0  0  0  0  0
    0.3430   -0.6768   -4.2641 H   0  0  0  0  0  0  0  0  0  0  0  0
   -1.4254   -0.7188   -4.4114 H   0  0  0  0  0  0  0  0  0  0  0  0
   -0.4784    0.7700   -5.5295 N   0  0  0  0  0  0  0  0  0  0  0  0
   -0.3829    0.1763   -6.3403 H   0  0  0  0  0  0  0  0  0  0  0  0
   -1.3255    1.3143   -5.6102 H   0  0  0  0  0  0  0  0  0  0  0  0
   -0.9237    0.7008    2.0051 C   0  0  0  0  0  0  0  0  0  0  0  0
   -0.9601    0.1593    3.1080 O   0  0  0  0  0  0  0  0  0  0  0  0
   -0.8082    2.0252    1.8533 N   0  0  0  0  0  0  0  0  0  0  0  0
   -0.7707    2.3911    0.9162 H   0  0  0  0  0  0  0  0  0  0  0  0
   -0.7183    2.9694    2.9661 C   0  0  0  0  0  0  0  0  0  0  0  0
    0.1071    2.6875    3.6235 H   0  0  0  0  0  0  0  0  0  0  0  0
   -0.5522    3.9810    2.5931 H   0  0  0  0  0  0  0  0  0  0  0  0
   -1.6445    2.9449    3.5440 H   0  0  0  0  0  0  0  0  0  0  0  0
  5  6  2  0  0  0  0
  5  7  1  0  0  0  0
  2  3  1  0  0  0  0
  2  4  1  0  0  0  0
  2  5  1  0  0  0  0
  1  2  1  0  0  0  0
 26 27  2  0  0  0  0
 26 28  1  0  0  0  0
 23 24  1  0  0  0  0
 23 25  1  0  0  0  0
 20 21  1  0  0  0  0
 20 22  1  0  0  0  0
 20 23  1  0  0  0  0
 17 18  1  0  0  0  0
 17 19  1  0  0  0  0
 17 20  1  0  0  0  0
 14 15  1  0  0  0  0
 14 16  1  0  0  0  0
 14 17  1  0  0  0  0
 11 12  1  0  0  0  0
 11 13  1  0  0  0  0
 11 14  1  0  0  0  0
  9 10  1  0  0  0  0
  9 11  1  0  0  0  0
  9 26  1  0  0  0  0
  7  8  1  0  0  0  0
  7  9  1  0  0  0  0
 30 31  1  0  0  0  0
 30 32  1  0  0  0  0
 30 33  1  0  0  0  0
 28 29  1  0  0  0  0
 28 30  1  0  0  0  0
M  END
$$$$
default_name
  -OEChem-01062215323D

 33 32  0     1  0  0  0  0  0999 V2000
   -3.8420   -3.6918    1.5562 H   0  0  0  0  0  0  0  0  0  0  0  0
   -3.8430   -2.7008    1.1032 C   0  0  0  0  0  0  0  0  0  0  0  0
   -4.5510   -2.0608    1.6242 H   0  0  0  0  0  0  0  0  0  0  0  0
   -4.1140   -2.7798    0.0522 H   0  0  0  0  0  0  0  0  0  0  0  0
   -2.4570   -2.1098    1.2172 C   0  0  0  0  0  0  0  0  0  0  0  0
   -1.5600   -2.7438    1.7572 O   0  0  0  0  0  0  0  0  0  0  0  0
   -2.2870   -0.8898    0.7102 N   0  0  0  0  0  0  0  0  0  0  0  0
   -3.0820   -0.4218    0.2992 H   0  0  0  0  0  0  0  0  0  0  0  0
   -1.0240   -0.1468    0.7262 C   0  0  1  0  0  0  0  0  0  0  0  0
   -0.2006   -0.8623    0.7222 H   0  0  0  0  0  0  0  0  0  0  0  0
   -0.9383    0.7110   -0.5512 C   0  0  0  0  0  0  0  0  0  0  0  0
   -1.8529    1.3017   -0.6346 H   0  0  0  0  0  0  0  0  0  0  0  0
   -0.0955    1.3984   -0.4670 H   0  0  0  0  0  0  0  0  0  0  0  0
   -0.7866   -0.1217   -1.8338 C   0  0  0  0  0  0  0  0  0  0  0  0
    0.1148   -0.7318   -1.7696 H   0  0  0  0  0  0  0  0  0  0  0  0
   -1.6539   -0.7755   -1.9420 H   0  0  0  0  0  0  0  0  0  0  0  0
   -0.6819    0.7847   -3.0656 C   0  0  0  0  0  0  0  0  0  0  0  0
   -1.5739    1.4076   -3.1391 H   0  0  0  0  0  0  0  0  0  0  0  0
    0.1969    1.4235   -2.9733 H   0  0  0  0  0  0  0  0  0  0  0  0
   -0.5571   -0.0675   -4.3271 C   0  0  0  0  0  0  0  0  0  0  0  0
    0.3430   -0.6768   -4.2641 H   0  0  0  0  0  0  0  0  0  0  0  0
   -1.4254   -0.7188   -4.4114 H   0  0  0  0  0  0  0  0  0  0  0  0
   -0.4784    0.7700   -5.5295 N   0  0  0  0  0  0  0  0  0  0  0  0
   -0.3829    0.1763   -6.3403 H   0  0  0  0  0  0  0  0  0  0  0  0
   -1.3255    1.3143   -5.6102 H   0  0  0  0  0  0  0  0  0  0  0  0
   -0.9237    0.7008    2.0051 C   0  0  0  0  0  0  0  0  0  0  0  0
   -0.6835    0.1628    3.0839 O   0  0  0  0  0  0  0  0  0  0  0  0
   -1.1175    2.0190    1.8817 N   0  0  0  0  0  0  0  0  0  0  0  0
   -1.2951    2.3855    0.9610 H   0  0  0  0  0  0  0  0  0  0  0  0
   -1.0720    2.9588    3.0008 C   0  0  0  0  0  0  0  0  0  0  0  0
   -0.1193    2.8615    3.5259 H   0  0  0  0  0  0  0  0  0  0  0  0
   -1.1820    3.9829    2.6412 H   0  0  0  0  0  0  0  0  0  0  0  0
   -1.8780    2.7336    3.7023 H   0  0  0  0  0  0  0  0  0  0  0  0
  5  6  2  0  0  0  0
  5  7  1  0  0  0  0
  2  3  1  0  0  0  0
  2  4  1  0  0  0  0
  2  5  1  0  0  0  0
  1  2  1  0  0  0  0
 26 27  2  0  0  0  0
 26 28  1  0  0  0  0
 23 24  1  0  0  0  0
 23 25  1  0  0  0  0
 20 21  1  0  0  0  0
 20 22  1  0  0  0  0
 20 23  1  0  0  0  0
 17 18  1  0  0  0  0
 17 19  1  0  0  0  0
 17 20  1  0  0  0  0
 14 15  1  0  0  0  0
 14 16  1  0  0  0  0
 14 17  1  0  0  0  0
 11 12  1  0  0  0  0
 11 13  1  0  0  0  0
 11 14  1  0  0  0  0
  9 10  1  0  0  0  0
  9 11  1  0  0  0  0
  9 26  1  0  0  0  0
  7  8  1  0  0  0  0
  7  9  1  0  0  0  0
 30 31  1  0  0  0  0
 30 32  1  0  0  0  0
 30 33  1  0  0  0  0
 28 29  1  0  0  0  0
 28 30  1  0  0  0  0
M  END
$$$$
default_name
  -OEChem-01062215323D

 33 32  0     1  0  0  0  0  0999 V2000
   -3.8420   -3.6918    1.5562 H   0  0  0  0  0  0  0  0  0  0  0  0
   -3.8430   -2.7008    1.1032 C   0  0  0  0  0  0  0  0  0  0  0  0
   -4.5510   -2.0608    1.6242 H   0  0  0  0  0  0  0  0  0  0  0  0
   -4.1140   -2.7798    0.0522 H   0  0  0  0  0  0  0  0  0  0  0  0
   -2.4570   -2.1098    1.2172 C   0  0  0  0  0  0  0  0  0  0  0  0
   -1.5600   -2.7438    1.7572 O   0  0  0  0  0  0  0  0  0  0  0  0
   -2.2870   -0.8898    0.7102 N   0  0  0  0  0  0  0  0  0  0  0  0
   -3.0820   -0.4218    0.2992 H   0  0  0  0  0  0  0  0  0  0  0  0
   -1.0240   -0.1468    0.7262 C   0  0  1  0  0  0  0  0  0  0  0  0
   -0.2006   -0.8623    0.7222 H   0  0  0  0  0  0  0  0  0  0  0  0
   -0.9383    0.7110   -0.5512 C   0  0  0  0  0  0  0  0  0  0  0  0
   -1.8529    1.3017   -0.6346 H   0  0  0  0  0  0  0  0  0  0  0  0
   -0.0955    1.3984   -0.4670 H   0  0  0  0  0  0  0  0  0  0  0  0
   -0.7866   -0.1217   -1.8338 C   0  0  0  0  0  0  0  0  0  0  0  0
    0.1148   -0.7318   -1.7696 H   0  0  0  0  0  0  0  0  0  0  0  0
   -1.6539   -0.7755   -1.9420 H   0  0  0  0  0  0  0  0  0  0  0  0
   -0.6819    0.7847   -3.0656 C   0  0  0  0  0  0  0  0  0  0  0  0
   -1.5739    1.4076   -3.1391 H   0  0  0  0  0  0  0  0  0  0  0  0
    0.1969    1.4235   -2.9733 H   0  0  0  0  0  0  0  0  0  0  0  0
   -0.5571   -0.0675   -4.3271 C   0  0  0  0  0  0  0  0  0  0  0  0
    0.3430   -0.6768   -4.2641 H   0  0  0  0  0  0  0  0  0  0  0  0
   -1.4254   -0.7188   -4.4114 H   0  0  0  0  0  0  0  0  0  0  0  0
   -0.4784    0.7700   -5.5295 N   0  0  0  0  0  0  0  0  0  0  0  0
   -0.3829    0.1763   -6.3403 H   0  0  0  0  0  0  0  0  0  0  0  0
   -1.3255    1.3143   -5.6102 H   0  0  0  0  0  0  0  0  0  0  0  0
   -0.9237    0.7008    2.0051 C   0  0  0  0  0  0  0  0  0  0  0  0
   -0.4206    0.2263    3.0213 O   0  0  0  0  0  0  0  0  0  0  0  0
   -1.4110    1.9459    1.9532 N   0  0  0  0  0  0  0  0  0  0  0  0
   -1.7941    2.2665    1.0790 H   0  0  0  0  0  0  0  0  0  0  0  0
   -1.4065    2.8719    3.0846 C   0  0  0  0  0  0  0  0  0  0  0  0
   -0.3893    2.9825    3.4669 H   0  0  0  0  0  0  0  0  0  0  0  0
   -1.7839    3.8483    2.7776 H   0  0  0  0  0  0  0  0  0  0  0  0
   -2.0355    2.4767    3.8849 H   0  0  0  0  0  0  0  0  0  0  0  0
  5  6  2  0  0  0  0
  5  7  1  0  0  0  0
  2  3  1  0  0  0  0
  2  4  1  0  0  0  0
  2  5  1  0  0  0  0
  1  2  1  0  0  0  0
 26 27  2  0  0  0  0
 26 28  1  0  0  0  0
 23 24  1  0  0  0  0
 23 25  1  0  0  0  0
 20 21  1  0  0  0  0
 20 22  1  0  0  0  0
 20 23  1  0  0  0  0
 17 18  1  0  0  0  0
 17 19  1  0  0  0  0
 17 20  1  0  0  0  0
 14 15  1  0  0  0  0
 14 16  1  0  0  0  0
 14 17  1  0  0  0  0
 11 12  1  0  0  0  0
 11 13  1  0  0  0  0
 11 14  1  0  0  0  0
  9 10  1  0  0  0  0
  9 11  1  0  0  0  0
  9 26  1  0  0  0  0
  7  8  1  0  0  0  0
  7  9  1  0  0  0  0
 30 31  1  0  0  0  0
 30 32  1  0  0  0  0
 30 33  1  0  0  0  0
 28 29  1  0  0  0  0
 28 30  1  0  0  0  0
M  END
$$$$
default_name
  -OEChem-01062215323D

 33 32  0     1  0  0  0  0  0999 V2000
   -3.8420   -3.6918    1.5562 H   0  0  0  0  0  0  0  0  0  0  0  0
   -3.8430   -2.7008    1.1032 C   0  0  0  0  0  0  0  0  0  0  0  0
   -4.5510   -2.0608    1.6242 H   0  0  0  0  0  0  0  0  0  0  0  0
   -4.1140   -2.7798    0.0522 H   0  0  0  0  0  0  0  0  0  0  0  0
   -2.4570   -2.1098    1.2172 C   0  0  0  0  0  0  0  0  0  0  0  0
   -1.5600   -2.7438    1.7572 O   0  0  0  0  0  0  0  0  0  0  0  0
   -2.2870   -0.8898    0.7102 N   0  0  0  0  0  0  0  0  0  0  0  0
   -3.0820   -0.4218    0.2992 H   0  0  0  0  0  0  0  0  0  0  0  0
   -1.0240   -0.1468    0.7262 C   0  0  1  0  0  0  0  0  0  0  0  0
   -0.2006   -0.8623    0.7222 H   0  0  0  0  0  0  0  0  0  0  0  0
   -0.9383    0.7110   -0.5512 C   0  0  0  0  0  0  0  0  0  0  0  0
   -1.8529    1.3017   -0.6346 H   0  0  0  0  0  0  0  0  0  0  0  0
   -0.0955    1.3984   -0.4670 H   0  0  0  0  0  0  0  0  0  0  0  0
   -0.7866   -0.1217   -1.8338 C   0  0  0  0  0  0  0  0  0  0  0  0
    0.1148   -0.7318   -1.7696 H   0  0  0  0  0  0  0  0  0  0  0  0
   -1.6539   -0.7755   -1.9420 H   0  0  0  0  0  0  0  0  0  0  0  0
   -0.6819    0.7847   -3.0656 C   0  0  0  0  0  0  0  0  0  0  0  0
   -1.5739    1.4076   -3.1391 H   0  0  0  0  0  0  0  0  0  0  0  0
    0.1969    1.4235   -2.9733 H   0  0  0  0  0  0  0  0  0  0  0  0
   -0.5571   -0.0675   -4.3271 C   0  0  0  0  0  0  0  0  0  0  0  0
    0.3430   -0.6768   -4.2641 H   0  0  0  0  0  0  0  0  0  0  0  0
   -1.4254   -0.7188   -4.4114 H   0  0  0  0  0  0  0  0  0  0  0  0
   -0.4784    0.7700   -5.5295 N   0  0  0  0  0  0  0  0  0  0  0  0
   -0.3829    0.1763   -6.3403 H   0  0  0  0  0  0  0  0  0  0  0  0
   -1.3255    1.3143   -5.6102 H   0  0  0  0  0  0  0  0  0  0  0  0
   -0.9237    0.7008    2.0051 C   0  0  0  0  0  0  0  0  0  0  0  0
   -0.1892    0.3452    2.9244 O   0  0  0  0  0  0  0  0  0  0  0  0
   -1.6685    1.8109    2.0628 N   0  0  0  0  0  0  0  0  0  0  0  0
   -2.2335    2.0420    1.2622 H   0  0  0  0  0  0  0  0  0  0  0  0
   -1.6988    2.7145    3.2119 C   0  0  0  0  0  0  0  0  0  0  0  0
   -0.6846    3.0423    3.4504 H   0  0  0  0  0  0  0  0  0  0  0  0
   -2.3168    3.5865    2.9929 H   0  0  0  0  0  0  0  0  0  0  0  0
   -2.1063    2.1915    4.0795 H   0  0  0  0  0  0  0  0  0  0  0  0
  5  6  2  0  0  0  0
  5  7  1  0  0  0  0
  2  3  1  0  0  0  0
  2  4  1  0  0  0  0
  2  5  1  0  0  0  0
  1  2  1  0  0  0  0
 26 27  2  0  0  0  0
 26 28  1  0  0  0  0
 23 24  1  0  0  0  0
 23 25  1  0  0  0  0
 20 21  1  0  0  0  0
 20 22  1  0  0  0  0
 20 23  1  0  0  0  0
 17 18  1  0  0  0  0
 17 19  1  0  0  0  0
 17 20  1  0  0  0  0
 14 15  1  0  0  0  0
 14 16  1  0  0  0  0
 14 17  1  0  0  0  0
 11 12  1  0  0  0  0
 11 13  1  0  0  0  0
 11 14  1  0  0  0  0
  9 10  1  0  0  0  0
  9 11  1  0  0  0  0
  9 26  1  0  0  0  0
  7  8  1  0  0  0  0
  7  9  1  0  0  0  0
 30 31  1  0  0  0  0
 30 32  1  0  0  0  0
 30 33  1  0  0  0  0
 28 29  1  0  0  0  0
 28 30  1  0  0  0  0
M  END
$$$$
default_name
  -OEChem-01062215323D

 33 32  0     1  0  0  0  0  0999 V2000
   -3.8420   -3.6918    1.5562 H   0  0  0  0  0  0  0  0  0  0  0  0
   -3.8430   -2.7008    1.1032 C   0  0  0  0  0  0  0  0  0  0  0  0
   -4.5510   -2.0608    1.6242 H   0  0  0  0  0  0  0  0  0  0  0  0
   -4.1140   -2.7798    0.0522 H   0  0  0  0  0  0  0  0  0  0  0  0
   -2.4570   -2.1098    1.2172 C   0  0  0  0  0  0  0  0  0  0  0  0
   -1.5600   -2.7438    1.7572 O   0  0  0  0  0  0  0  0  0  0  0  0
   -2.2870   -0.8898    0.7102 N   0  0  0  0  0  0  0  0  0  0  0  0
   -3.0820   -0.4218    0.2992 H   0  0  0  0  0  0  0  0  0  0  0  0
   -1.0240   -0.1468    0.7262 C   0  0  1  0  0  0  0  0  0  0  0  0
   -0.2006   -0.8623    0.7222 H   0  0  0  0  0  0  0  0  0  0  0  0
   -0.9383    0.7110   -0.5512 C   0  0  0  0  0  0  0  0  0  0  0  0
   -1.8529    1.3017   -0.6346 H   0  0  0  0  0  0  0  0  0  0  0  0
   -0.0955    1.3984   -0.4670 H   0  0  0  0  0  0  0  0  0  0  0  0
   -0.7866   -0.1217   -1.8338 C   0  0  0  0  0  0  0  0  0  0  0  0
    0.1148   -0.7318   -1.7696 H   0  0  0  0  0  0  0  0  0  0  0  0
   -1.6539   -0.7755   -1.9420 H   0  0  0  0  0  0  0  0  0  0  0  0
   -0.6819    0.7847   -3.0656 C   0  0  0  0  0  0  0  0  0  0  0  0
   -1.5739    1.4076   -3.1391 H   0  0  0  0  0  0  0  0  0  0  0  0
    0.1969    1.4235   -2.9733 H   0  0  0  0  0  0  0  0  0  0  0  0
   -0.5571   -0.0675   -4.3271 C   0  0  0  0  0  0  0  0  0  0  0  0
    0.3430   -0.6768   -4.2641 H   0  0  0  0  0  0  0  0  0  0  0  0
   -1.4254   -0.7188   -4.4114 H   0  0  0  0  0  0  0  0  0  0  0  0
   -0.4784    0.7700   -5.5295 N   0  0  0  0  0  0  0  0  0  0  0  0
   -0.3829    0.1763   -6.3403 H   0  0  0  0  0  0  0  0  0  0  0  0
   -1.3255    1.3143   -5.6102 H   0  0  0  0  0  0  0  0  0  0  0  0
   -0.9237    0.7008    2.0051 C   0  0  0  0  0  0  0  0  0  0  0  0
   -0.0052    0.5115    2.7997 O   0  0  0  0  0  0  0  0  0  0  0  0
   -1.8725    1.6233    2.2031 N   0  0  0  0  0  0  0  0  0  0  0  0
   -2.5836    1.7276    1.4980 H   0  0  0  0  0  0  0  0  0  0  0  0
   -1.9292    2.4974    3.3738 C   0  0  0  0  0  0  0  0  0  0  0  0
   -0.9851    3.0367    3.4777 H   0  0  0  0  0  0  0  0  0  0  0  0
   -2.7445    3.2152    3.2726 H   0  0  0  0  0  0  0  0  0  0  0  0
   -2.0854    1.8975    4.2727 H   0  0  0  0  0  0  0  0  0  0  0  0
  5  6  2  0  0  0  0
  5  7  1  0  0  0  0
  2  3  1  0  0  0  0
  2  4  1  0  0  0  0
  2  5  1  0  0  0  0
  1  2  1  0  0  0  0
 26 27  2  0  0  0  0
 26 28  1  0  0  0  0
 23 24  1  0  0  0  0
 23 25  1  0  0  0  0
 20 21  1  0  0  0  0
 20 22  1  0  0  0  0
 20 23  1  0  0  0  0
 17 18  1  0  0  0  0
 17 19  1  0  0  0  0
 17 20  1  0  0  0  0
 14 15  1  0  0  0  0
 14 16  1  0  0  0  0
 14 17  1  0  0  0  0
 11 12  1  0  0  0  0
 11 13  1  0  0  0  0
 11 14  1  0  0  0  0
  9 10  1  0  0  0  0
  9 11  1  0  0  0  0
  9 26  1  0  0  0  0
  7  8  1  0  0  0  0
  7  9  1  0  0  0  0
 30 31  1  0  0  0  0
 30 32  1  0  0  0  0
 30 33  1  0  0  0  0
 28 29  1  0  0  0  0
 28 30  1  0  0  0  0
M  END
$$$$
default_name
  -OEChem-01062215323D

 33 32  0     1  0  0  0  0  0999 V2000
   -3.8420   -3.6918    1.5562 H   0  0  0  0  0  0  0  0  0  0  0  0
   -3.8430   -2.7008    1.1032 C   0  0  0  0  0  0  0  0  0  0  0  0
   -4.5510   -2.0608    1.6242 H   0  0  0  0  0  0  0  0  0  0  0  0
   -4.1140   -2.7798    0.0522 H   0  0  0  0  0  0  0  0  0  0  0  0
   -2.4570   -2.1098    1.2172 C   0  0  0  0  0  0  0  0  0  0  0  0
   -1.5600   -2.7438    1.7572 O   0  0  0  0  0  0  0  0  0  0  0  0
   -2.2870   -0.8898    0.7102 N   0  0  0  0  0  0  0  0  0  0  0  0
   -3.0820   -0.4218    0.2992 H   0  0  0  0  0  0  0  0  0  0  0  0
   -1.0240   -0.1468    0.7262 C   0  0  1  0  0  0  0  0  0  0  0  0
   -0.2006   -0.8623    0.7222 H   0  0  0  0  0  0  0  0  0  0  0  0
   -0.9383    0.7110   -0.5512 C   0  0  0  0  0  0  0  0  0  0  0  0
   -1.8529    1.3017   -0.6346 H   0  0  0  0  0  0  0  0  0  0  0  0
   -0.0955    1.3984   -0.4670 H   0  0  0  0  0  0  0  0  0  0  0  0
   -0.7866   -0.1217   -1.8338 C   0  0  0  0  0  0  0  0  0  0  0  0
    0.1148   -0.7318   -1.7696 H   0  0  0  0  0  0  0  0  0  0  0  0
   -1.6539   -0.7755   -1.9420 H   0  0  0  0  0  0  0  0  0  0  0  0
   -0.6819    0.7847   -3.0656 C   0  0  0  0  0  0  0  0  0  0  0  0
   -1.5739    1.4076   -3.1391 H   0  0  0  0  0  0  0  0  0  0  0  0
    0.1969    1.4235   -2.9733 H   0  0  0  0  0  0  0  0  0  0  0  0
   -0.5571   -0.0675   -4.3271 C   0  0  0  0  0  0  0  0  0  0  0  0
    0.3430   -0.6768   -4.2641 H   0  0  0  0  0  0  0  0  0  0  0  0
   -1.4254   -0.7188   -4.4114 H   0  0  0  0  0  0  0  0  0  0  0  0
   -0.4784    0.7700   -5.5295 N   0  0  0  0  0  0  0  0  0  0  0  0
   -0.3829    0.1763   -6.3403 H   0  0  0  0  0  0  0  0  0  0  0  0
   -1.3255    1.3143   -5.6102 H   0  0  0  0  0  0  0  0  0  0  0  0
   -0.9237    0.7008    2.0051 C   0  0  0  0  0  0  0  0  0  0  0  0
    0.1190    0.7138    2.6559 O   0  0  0  0  0  0  0  0  0  0  0  0
   -2.0092    1.3957    2.3647 N   0  0  0  0  0  0  0  0  0  0  0  0
   -2.8203    1.3445    1.7705 H   0  0  0  0  0  0  0  0  0  0  0  0
   -2.0818    2.2354    3.5594 C   0  0  0  0  0  0  0  0  0  0  0  0
   -1.2702    2.9662    3.5468 H   0  0  0  0  0  0  0  0  0  0  0  0
   -3.0378    2.7597    3.5974 H   0  0  0  0  0  0  0  0  0  0  0  0
   -1.9745    1.6147    4.4514 H   0  0  0  0  0  0  0  0  0  0  0  0
  5  6  2  0  0  0  0
  5  7  1  0  0  0  0
  2  3  1  0  0  0  0
  2  4  1  0  0  0  0
  2  5  1  0  0  0  0
  1  2  1  0  0  0  0
 26 27  2  0  0  0  0
 26 28  1  0  0  0  0
 23 24  1  0  0  0  0
 23 25  1  0  0  0  0
 20 21  1  0  0  0  0
 20 22  1  0  0  0  0
 20 23  1  0  0  0  0
 17 18  1  0  0  0  0
 17 19  1  0  0  0  0
 17 20  1  0  0  0  0
 14 15  1  0  0  0  0
 14 16  1  0  0  0  0
 14 17  1  0  0  0  0
 11 12  1  0  0  0  0
 11 13  1  0  0  0  0
 11 14  1  0  0  0  0
  9 10  1  0  0  0  0
  9 11  1  0  0  0  0
  9 26  1  0  0  0  0
  7  8  1  0  0  0  0
  7  9  1  0  0  0  0
 30 31  1  0  0  0  0
 30 32  1  0  0  0  0
 30 33  1  0  0  0  0
 28 29  1  0  0  0  0
 28 30  1  0  0  0  0
M  END
$$$$
default_name
  -OEChem-01062215323D

 33 32  0     1  0  0  0  0  0999 V2000
   -3.8420   -3.6918    1.5562 H   0  0  0  0  0  0  0  0  0  0  0  0
   -3.8430   -2.7008    1.1032 C   0  0  0  0  0  0  0  0  0  0  0  0
   -4.5510   -2.0608    1.6242 H   0  0  0  0  0  0  0  0  0  0  0  0
   -4.1140   -2.7798    0.0522 H   0  0  0  0  0  0  0  0  0  0  0  0
   -2.4570   -2.1098    1.2172 C   0  0  0  0  0  0  0  0  0  0  0  0
   -1.5600   -2.7438    1.7572 O   0  0  0  0  0  0  0  0  0  0  0  0
   -2.2870   -0.8898    0.7102 N   0  0  0  0  0  0  0  0  0  0  0  0
   -3.0820   -0.4218    0.2992 H   0  0  0  0  0  0  0  0  0  0  0  0
   -1.0240   -0.1468    0.7262 C   0  0  1  0  0  0  0  0  0  0  0  0
   -0.2006   -0.8623    0.7222 H   0  0  0  0  0  0  0  0  0  0  0  0
   -0.9383    0.7110   -0.5512 C   0  0  0  0  0  0  0  0  0  0  0  0
   -1.8529    1.3017   -0.6346 H   0  0  0  0  0  0  0  0  0  0  0  0
   -0.0955    1.3984   -0.4670 H   0  0  0  0  0  0  0  0  0  0  0  0
   -0.7866   -0.1217   -1.8338 C   0  0  0  0  0  0  0  0  0  0  0  0
    0.1148   -0.7318   -1.7696 H   0  0  0  0  0  0  0  0  0  0  0  0
   -1.6539   -0.7755   -1.9420 H   0  0  0  0  0  0  0  0  0  0  0  0
   -0.6819    0.7847   -3.0656 C   0  0  0  0  0  0  0  0  0  0  0  0
   -1.5739    1.4076   -3.1391 H   0  0  0  0  0  0  0  0  0  0  0  0
    0.1969    1.4235   -2.9733 H   0  0  0  0  0  0  0  0  0  0  0  0
   -0.5571   -0.0675   -4.3271 C   0  0  0  0  0  0  0  0  0  0  0  0
    0.3430   -0.6768   -4.2641 H   0  0  0  0  0  0  0  0  0  0  0  0
   -1.4254   -0.7188   -4.4114 H   0  0  0  0  0  0  0  0  0  0  0  0
   -0.4784    0.7700   -5.5295 N   0  0  0  0  0  0  0  0  0  0  0  0
   -0.3829    0.1763   -6.3403 H   0  0  0  0  0  0  0  0  0  0  0  0
   -1.3255    1.3143   -5.6102 H   0  0  0  0  0  0  0  0  0  0  0  0
   -0.9237    0.7008    2.0051 C   0  0  0  0  0  0  0  0  0  0  0  0
    0.1749    0.9385    2.5026 O   0  0  0  0  0  0  0  0  0  0  0  0
   -2.0691    1.1438    2.5363 N   0  0  0  0  0  0  0  0  0  0  0  0
   -2.9277    0.9189    2.0610 H   0  0  0  0  0  0  0  0  0  0  0  0
   -2.1464    1.9463    3.7561 C   0  0  0  0  0  0  0  0  0  0  0  0
   -1.5206    2.8355    3.6530 H   0  0  0  0  0  0  0  0  0  0  0  0
   -3.1767    2.2511    3.9453 H   0  0  0  0  0  0  0  0  0  0  0  0
   -1.7809    1.3624    4.6034 H   0  0  0  0  0  0  0  0  0  0  0  0
  5  6  2  0  0  0  0
  5  7  1  0  0  0  0
  2  3  1  0  0  0  0
  2  4  1  0  0  0  0
  2  5  1  0  0  0  0
  1  2  1  0  0  0  0
 26 27  2  0  0  0  0
 26 28  1  0  0  0  0
 23 24  1  0  0  0  0
 23 25  1  0  0  0  0
 20 21  1  0  0  0  0
 20 22  1  0  0  0  0
 20 23  1  0  0  0  0
 17 18  1  0  0  0  0
 17 19  1  0  0  0  0
 17 20  1  0  0  0  0
 14 15  1  0  0  0  0
 14 16  1  0  0  0  0
 14 17  1  0  0  0  0
 11 12  1  0  0  0  0
 11 13  1  0  0  0  0
 11 14  1  0  0  0  0
  9 10  1  0  0  0  0
  9 11  1  0  0  0  0
  9 26  1  0  0  0  0
  7  8  1  0  0  0  0
  7  9  1  0  0  0  0
 30 31  1  0  0  0  0
 30 32  1  0  0  0  0
 30 33  1  0  0  0  0
 28 29  1  0  0  0  0
 28 30  1  0  0  0  0
M  END
$$$$
default_name
  -OEChem-01062215323D

 33 32  0     1  0  0  0  0  0999 V2000
   -3.8420   -3.6918    1.5562 H   0  0  0  0  0  0  0  0  0  0  0  0
   -3.8430   -2.7008    1.1032 C   0  0  0  0  0  0  0  0  0  0  0  0
   -4.5510   -2.0608    1.6242 H   0  0  0  0  0  0  0  0  0  0  0  0
   -4.1140   -2.7798    0.0522 H   0  0  0  0  0  0  0  0  0  0  0  0
   -2.4570   -2.1098    1.2172 C   0  0  0  0  0  0  0  0  0  0  0  0
   -1.5600   -2.7438    1.7572 O   0  0  0  0  0  0  0  0  0  0  0  0
   -2.2870   -0.8898    0.7102 N   0  0  0  0  0  0  0  0  0  0  0  0
   -3.0820   -0.4218    0.2992 H   0  0  0  0  0  0  0  0  0  0  0  0
   -1.0240   -0.1468    0.7262 C   0  0  1  0  0  0  0  0  0  0  0  0
   -0.2006   -0.8623    0.7222 H   0  0  0  0  0  0  0  0  0  0  0  0
   -0.9383    0.7110   -0.5512 C   0  0  0  0  0  0  0  0  0  0  0  0
   -1.8529    1.3017   -0.6346 H   0  0  0  0  0  0  0  0  0  0  0  0
   -0.0955    1.3984   -0.4670 H   0  0  0  0  0  0  0  0  0  0  0  0
   -0.7866   -0.1217   -1.8338 C   0  0  0  0  0  0  0  0  0  0  0  0
    0.1148   -0.7318   -1.7696 H   0  0  0  0  0  0  0  0  0  0  0  0
   -1.6539   -0.7755   -1.9420 H   0  0  0  0  0  0  0  0  0  0  0  0
   -0.6819    0.7847   -3.0656 C   0  0  0  0  0  0  0  0  0  0  0  0
   -1.5739    1.4076   -3.1391 H   0  0  0  0  0  0  0  0  0  0  0  0
    0.1969    1.4235   -2.9733 H   0  0  0  0  0  0  0  0  0  0  0  0
   -0.5571   -0.0675   -4.3271 C   0  0  0  0  0  0  0  0  0  0  0  0
    0.3430   -0.6768   -4.2641 H   0  0  0  0  0  0  0  0  0  0  0  0
   -1.4254   -0.7188   -4.4114 H   0  0  0  0  0  0  0  0  0  0  0  0
   -0.4784    0.7700   -5.5295 N   0  0  0  0  0  0  0  0  0  0  0  0
   -0.3829    0.1763   -6.3403 H   0  0  0  0  0  0  0  0  0  0  0  0
   -1.3255    1.3143   -5.6102 H   0  0  0  0  0  0  0  0  0  0  0  0
   -0.9237    0.7008    2.0051 C   0  0  0  0  0  0  0  0  0  0  0  0
    0.1586    1.1700    2.3504 O   0  0  0  0  0  0  0  0  0  0  0  0
   -2.0483    0.8846    2.7065 N   0  0  0  0  0  0  0  0  0  0  0  0
   -2.8983    0.4798    2.3497 H   0  0  0  0  0  0  0  0  0  0  0  0
   -2.1185    1.6498    3.9504 C   0  0  0  0  0  0  0  0  0  0  0  0
   -1.7191    2.6535    3.7892 H   0  0  0  0  0  0  0  0  0  0  0  0
   -3.1517    1.7241    4.2926 H   0  0  0  0  0  0  0  0  0  0  0  0
   -1.5180    1.1579    4.7183 H   0  0  0  0  0  0  0  0  0  0  0  0
  5  6  2  0  0  0  0
  5  7  1  0  0  0  0
  2  3  1  0  0  0  0
  2  4  1  0  0  0  0
  2  5  1  0  0  0  0
  1  2  1  0  0  0  0
 26 27  2  0  0  0  0
 26 28  1  0  0  0  0
 23 24  1  0  0  0  0
 23 25  1  0  0  0  0
 20 21  1  0  0  0  0
 20 22  1  0  0  0  0
 20 23  1  0  0  0  0
 17 18  1  0  0  0  0
 17 19  1  0  0  0  0
 17 20  1  0  0  0  0
 14 15  1  0  0  0  0
 14 16  1  0  0  0  0
 14 17  1  0  0  0  0
 11 12  1  0  0  0  0
 11 13  1  0  0  0  0
 11 14  1  0  0  0  0
  9 10  1  0  0  0  0
  9 11  1  0  0  0  0
  9 26  1  0  0  0  0
  7  8  1  0  0  0  0
  7  9  1  0  0  0  0
 30 31  1  0  0  0  0
 30 32  1  0  0  0  0
 30 33  1  0  0  0  0
 28 29  1  0  0  0  0
 28 30  1  0  0  0  0
M  END
$$$$
default_name
  -OEChem-01062215323D

 33 32  0     1  0  0  0  0  0999 V2000
   -3.8420   -3.6918    1.5562 H   0  0  0  0  0  0  0  0  0  0  0  0
   -3.8430   -2.7008    1.1032 C   0  0  0  0  0  0  0  0  0  0  0  0
   -4.5510   -2.0608    1.6242 H   0  0  0  0  0  0  0  0  0  0  0  0
   -4.1140   -2.7798    0.0522 H   0  0  0  0  0  0  0  0  0  0  0  0
   -2.4570   -2.1098    1.2172 C   0  0  0  0  0  0  0  0  0  0  0  0
   -1.5600   -2.7438    1.7572 O   0  0  0  0  0  0  0  0  0  0  0  0
   -2.2870   -0.8898    0.7102 N   0  0  0  0  0  0  0  0  0  0  0  0
   -3.0820   -0.4218    0.2992 H   0  0  0  0  0  0  0  0  0  0  0  0
   -1.0240   -0.1468    0.7262 C   0  0  1  0  0  0  0  0  0  0  0  0
   -0.2006   -0.8623    0.7222 H   0  0  0  0  0  0  0  0  0  0  0  0
   -0.9383    0.7110   -0.5512 C   0  0  0  0  0  0  0  0  0  0  0  0
   -1.8529    1.3017   -0.6346 H   0  0  0  0  0  0  0  0  0  0  0  0
   -0.0955    1.3984   -0.4670 H   0  0  0  0  0  0  0  0  0  0  0  0
   -0.7866   -0.1217   -1.8338 C   0  0  0  0  0  0  0  0  0  0  0  0
    0.1148   -0.7318   -1.7696 H   0  0  0  0  0  0  0  0  0  0  0  0
   -1.6539   -0.7755   -1.9420 H   0  0  0  0  0  0  0  0  0  0  0  0
   -0.6819    0.7847   -3.0656 C   0  0  0  0  0  0  0  0  0  0  0  0
   -1.5739    1.4076   -3.1391 H   0  0  0  0  0  0  0  0  0  0  0  0
    0.1969    1.4235   -2.9733 H   0  0  0  0  0  0  0  0  0  0  0  0
   -0.5571   -0.0675   -4.3271 C   0  0  0  0  0  0  0  0  0  0  0  0
    0.3430   -0.6768   -4.2641 H   0  0  0  0  0  0  0  0  0  0  0  0
   -1.4254   -0.7188   -4.4114 H   0  0  0  0  0  0  0  0  0  0  0  0
   -0.4784    0.7700   -5.5295 N   0  0  0  0  0  0  0  0  0  0  0  0
   -0.3829    0.1763   -6.3403 H   0  0  0  0  0  0  0  0  0  0  0  0
   -1.3255    1.3143   -5.6102 H   0  0  0  0  0  0  0  0  0  0  0  0
   -0.9237    0.7008    2.0051 C   0  0  0  0  0  0  0  0  0  0  0  0
    0.0714    1.3928    2.2096 O   0  0  0  0  0  0  0  0  0  0  0  0
   -1.9482    0.6359    2.8634 N   0  0  0  0  0  0  0  0  0  0  0  0
   -2.7342    0.0571    2.6169 H   0  0  0  0  0  0  0  0  0  0  0  0
   -2.0000    1.3662    4.1290 C   0  0  0  0  0  0  0  0  0  0  0  0
   -1.8523    2.4328    3.9459 H   0  0  0  0  0  0  0  0  0  0  0  0
   -2.9646    1.2146    4.6156 H   0  0  0  0  0  0  0  0  0  0  0  0
   -1.2035    1.0150    4.7884 H   0  0  0  0  0  0  0  0  0  0  0  0
  5  6  2  0  0  0  0
  5  7  1  0  0  0  0
  2  3  1  0  0  0  0
  2  4  1  0  0  0  0
  2  5  1  0  0  0  0
  1  2  1  0  0  0  0
 26 27  2  0  0  0  0
 26 28  1  0  0  0  0
 23 24  1  0  0  0  0
 23 25  1  0  0  0  0
 20 21  1  0  0  0  0
 20 22  1  0  0  0  0
 20 23  1  0  0  0  0
 17 18  1  0  0  0  0
 17 19  1  0  0  0  0
 17 20  1  0  0  0  0
 14 15  1  0  0  0  0
 14 16  1  0  0  0  0
 14 17  1  0  0  0  0
 11 12  1  0  0  0  0
 11 13  1  0  0  0  0
 11 14  1  0  0  0  0
  9 10  1  0  0  0  0
  9 11  1  0  0  0  0
  9 26  1  0  0  0  0
  7  8  1  0  0  0  0
  7  9  1  0  0  0  0
 30 31  1  0  0  0  0
 30 32  1  0  0  0  0
 30 33  1  0  0  0  0
 28 29  1  0  0  0  0
 28 30  1  0  0  0  0
M  END
$$$$
default_name
  -OEChem-01062215323D

 33 32  0     1  0  0  0  0  0999 V2000
   -3.8420   -3.6918    1.5562 H   0  0  0  0  0  0  0  0  0  0  0  0
   -3.8430   -2.7008    1.1032 C   0  0  0  0  0  0  0  0  0  0  0  0
   -4.5510   -2.0608    1.6242 H   0  0  0  0  0  0  0  0  0  0  0  0
   -4.1140   -2.7798    0.0522 H   0  0  0  0  0  0  0  0  0  0  0  0
   -2.4570   -2.1098    1.2172 C   0  0  0  0  0  0  0  0  0  0  0  0
   -1.5600   -2.7438    1.7572 O   0  0  0  0  0  0  0  0  0  0  0  0
   -2.2870   -0.8898    0.7102 N   0  0  0  0  0  0  0  0  0  0  0  0
   -3.0820   -0.4218    0.2992 H   0  0  0  0  0  0  0  0  0  0  0  0
   -1.0240   -0.1468    0.7262 C   0  0  1  0  0  0  0  0  0  0  0  0
   -0.2006   -0.8623    0.7222 H   0  0  0  0  0  0  0  0  0  0  0  0
   -0.9383    0.7110   -0.5512 C   0  0  0  0  0  0  0  0  0  0  0  0
   -1.8529    1.3017   -0.6346 H   0  0  0  0  0  0  0  0  0  0  0  0
   -0.0955    1.3984   -0.4670 H   0  0  0  0  0  0  0  0  0  0  0  0
   -0.7866   -0.1217   -1.8338 C   0  0  0  0  0  0  0  0  0  0  0  0
    0.1148   -0.7318   -1.7696 H   0  0  0  0  0  0  0  0  0  0  0  0
   -1.6539   -0.7755   -1.9420 H   0  0  0  0  0  0  0  0  0  0  0  0
   -0.6819    0.7847   -3.0656 C   0  0  0  0  0  0  0  0  0  0  0  0
   -1.5739    1.4076   -3.1391 H   0  0  0  0  0  0  0  0  0  0  0  0
    0.1969    1.4235   -2.9733 H   0  0  0  0  0  0  0  0  0  0  0  0
   -0.5571   -0.0675   -4.3271 C   0  0  0  0  0  0  0  0  0  0  0  0
    0.3430   -0.6768   -4.2641 H   0  0  0  0  0  0  0  0  0  0  0  0
   -1.4254   -0.7188   -4.4114 H   0  0  0  0  0  0  0  0  0  0  0  0
   -0.4784    0.7700   -5.5295 N   0  0  0  0  0  0  0  0  0  0  0  0
   -0.3829    0.1763   -6.3403 H   0  0  0  0  0  0  0  0  0  0  0  0
   -1.3255    1.3143   -5.6102 H   0  0  0  0  0  0  0  0  0  0  0  0
   -0.9237    0.7008    2.0051 C   0  0  0  0  0  0  0  0  0  0  0  0
   -0.0810    1.5916    2.0898 O   0  0  0  0  0  0  0  0  0  0  0  0
   -1.7755    0.4145    2.9966 N   0  0  0  0  0  0  0  0  0  0  0  0
   -2.4465   -0.3204    2.8445 H   0  0  0  0  0  0  0  0  0  0  0  0
   -1.7990    1.1147    4.2799 C   0  0  0  0  0  0  0  0  0  0  0  0
   -1.9110    2.1882    4.1126 H   0  0  0  0  0  0  0  0  0  0  0  0
   -2.6281    0.7573    4.8923 H   0  0  0  0  0  0  0  0  0  0  0  0
   -0.8591    0.9434    4.8088 H   0  0  0  0  0  0  0  0  0  0  0  0
  5  6  2  0  0  0  0
  5  7  1  0  0  0  0
  2  3  1  0  0  0  0
  2  4  1  0  0  0  0
  2  5  1  0  0  0  0
  1  2  1  0  0  0  0
 26 27  2  0  0  0  0
 26 28  1  0  0  0  0
 23 24  1  0  0  0  0
 23 25  1  0  0  0  0
 20 21  1  0  0  0  0
 20 22  1  0  0  0  0
 20 23  1  0  0  0  0
 17 18  1  0  0  0  0
 17 19  1  0  0  0  0
 17 20  1  0  0  0  0
 14 15  1  0  0  0  0
 14 16  1  0  0  0  0
 14 17  1  0  0  0  0
 11 12  1  0  0  0  0
 11 13  1  0  0  0  0
 11 14  1  0  0  0  0
  9 10  1  0  0  0  0
  9 11  1  0  0  0  0
  9 26  1  0  0  0  0
  7  8  1  0  0  0  0
  7  9  1  0  0  0  0
 30 31  1  0  0  0  0
 30 32  1  0  0  0  0
 30 33  1  0  0  0  0
 28 29  1  0  0  0  0
 28 30  1  0  0  0  0
M  END
$$$$
default_name
  -OEChem-01062215323D

 33 32  0     1  0  0  0  0  0999 V2000
   -3.8420   -3.6918    1.5562 H   0  0  0  0  0  0  0  0  0  0  0  0
   -3.8430   -2.7008    1.1032 C   0  0  0  0  0  0  0  0  0  0  0  0
   -4.5510   -2.0608    1.6242 H   0  0  0  0  0  0  0  0  0  0  0  0
   -4.1140   -2.7798    0.0522 H   0  0  0  0  0  0  0  0  0  0  0  0
   -2.4570   -2.1098    1.2172 C   0  0  0  0  0  0  0  0  0  0  0  0
   -1.5600   -2.7438    1.7572 O   0  0  0  0  0  0  0  0  0  0  0  0
   -2.2870   -0.8898    0.7102 N   0  0  0  0  0  0  0  0  0  0  0  0
   -3.0820   -0.4218    0.2992 H   0  0  0  0  0  0  0  0  0  0  0  0
   -1.0240   -0.1468    0.7262 C   0  0  1  0  0  0  0  0  0  0  0  0
   -0.2006   -0.8623    0.7222 H   0  0  0  0  0  0  0  0  0  0  0  0
   -0.9383    0.7110   -0.5512 C   0  0  0  0  0  0  0  0  0  0  0  0
   -1.8529    1.3017   -0.6346 H   0  0  0  0  0  0  0  0  0  0  0  0
   -0.0955    1.3984   -0.4670 H   0  0  0  0  0  0  0  0  0  0  0  0
   -0.7866   -0.1217   -1.8338 C   0  0  0  0  0  0  0  0  0  0  0  0
    0.1148   -0.7318   -1.7696 H   0  0  0  0  0  0  0  0  0  0  0  0
   -1.6539   -0.7755   -1.9420 H   0  0  0  0  0  0  0  0  0  0  0  0
   -0.6819    0.7847   -3.0656 C   0  0  0  0  0  0  0  0  0  0  0  0
   -1.5739    1.4076   -3.1391 H   0  0  0  0  0  0  0  0  0  0  0  0
    0.1969    1.4235   -2.9733 H   0  0  0  0  0  0  0  0  0  0  0  0
   -0.5571   -0.0675   -4.3271 C   0  0  0  0  0  0  0  0  0  0  0  0
    0.3430   -0.6768   -4.2641 H   0  0  0  0  0  0  0  0  0  0  0  0
   -1.4254   -0.7188   -4.4114 H   0  0  0  0  0  0  0  0  0  0  0  0
   -0.4784    0.7700   -5.5295 N   0  0  0  0  0  0  0  0  0  0  0  0
   -0.3829    0.1763   -6.3403 H   0  0  0  0  0  0  0  0  0  0  0  0
   -1.3255    1.3143   -5.6102 H   0  0  0  0  0  0  0  0  0  0  0  0
   -0.9237    0.7008    2.0051 C   0  0  0  0  0  0  0  0  0  0  0  0
   -0.2880    1.7528    1.9992 O   0  0  0  0  0  0  0  0  0  0  0  0
   -1.5420    0.2357    3.0968 N   0  0  0  0  0  0  0  0  0  0  0  0
   -2.0550   -0.6270    3.0170 H   0  0  0  0  0  0  0  0  0  0  0  0
   -1.5291    0.9125    4.3928 C   0  0  0  0  0  0  0  0  0  0  0  0
   -1.8914    1.9365    4.2779 H   0  0  0  0  0  0  0  0  0  0  0  0
   -2.1651    0.3833    5.1038 H   0  0  0  0  0  0  0  0  0  0  0  0
   -0.5080    0.9482    4.7781 H   0  0  0  0  0  0  0  0  0  0  0  0
  5  6  2  0  0  0  0
  5  7  1  0  0  0  0
  2  3  1  0  0  0  0
  2  4  1  0  0  0  0
  2  5  1  0  0  0  0
  1  2  1  0  0  0  0
 26 27  2  0  0  0  0
 26 28  1  0  0  0  0
 23 24  1  0  0  0  0
 23 25  1  0  0  0  0
 20 21  1  0  0  0  0
 20 22  1  0  0  0  0
 20 23  1  0  0  0  0
 17 18  1  0  0  0  0
 17 19  1  0  0  0  0
 17 20  1  0  0  0  0
 14 15  1  0  0  0  0
 14 16  1  0  0  0  0
 14 17  1  0  0  0  0
 11 12  1  0  0  0  0
 11 13  1  0  0  0  0
 11 14  1  0  0  0  0
  9 10  1  0  0  0  0
  9 11  1  0  0  0  0
  9 26  1  0  0  0  0
  7  8  1  0  0  0  0
  7  9  1  0  0  0  0
 30 31  1  0  0  0  0
 30 32  1  0  0  0  0
 30 33  1  0  0  0  0
 28 29  1  0  0  0  0
 28 30  1  0  0  0  0
M  END
$$$$
default_name
  -OEChem-01062215323D

 33 32  0     1  0  0  0  0  0999 V2000
   -3.8420   -3.6918    1.5562 H   0  0  0  0  0  0  0  0  0  0  0  0
   -3.8430   -2.7008    1.1032 C   0  0  0  0  0  0  0  0  0  0  0  0
   -4.5510   -2.0608    1.6242 H   0  0  0  0  0  0  0  0  0  0  0  0
   -4.1140   -2.7798    0.0522 H   0  0  0  0  0  0  0  0  0  0  0  0
   -2.4570   -2.1098    1.2172 C   0  0  0  0  0  0  0  0  0  0  0  0
   -1.5600   -2.7438    1.7572 O   0  0  0  0  0  0  0  0  0  0  0  0
   -2.2870   -0.8898    0.7102 N   0  0  0  0  0  0  0  0  0  0  0  0
   -3.0820   -0.4218    0.2992 H   0  0  0  0  0  0  0  0  0  0  0  0
   -1.0240   -0.1468    0.7262 C   0  0  1  0  0  0  0  0  0  0  0  0
   -0.2006   -0.8623    0.7222 H   0  0  0  0  0  0  0  0  0  0  0  0
   -0.9383    0.7110   -0.5512 C   0  0  0  0  0  0  0  0  0  0  0  0
   -1.8529    1.3017   -0.6346 H   0  0  0  0  0  0  0  0  0  0  0  0
   -0.0955    1.3984   -0.4670 H   0  0  0  0  0  0  0  0  0  0  0  0
   -0.7866   -0.1217   -1.8338 C   0  0  0  0  0  0  0  0  0  0  0  0
    0.1148   -0.7318   -1.7696 H   0  0  0  0  0  0  0  0  0  0  0  0
   -1.6539   -0.7755   -1.9420 H   0  0  0  0  0  0  0  0  0  0  0  0
   -0.6819    0.7847   -3.0656 C   0  0  0  0  0  0  0  0  0  0  0  0
   -1.5739    1.4076   -3.1391 H   0  0  0  0  0  0  0  0  0  0  0  0
    0.1969    1.4235   -2.9733 H   0  0  0  0  0  0  0  0  0  0  0  0
   -0.5571   -0.0675   -4.3271 C   0  0  0  0  0  0  0  0  0  0  0  0
    0.3430   -0.6768   -4.2641 H   0  0  0  0  0  0  0  0  0  0  0  0
   -1.4254   -0.7188   -4.4114 H   0  0  0  0  0  0  0  0  0  0  0  0
   -0.4784    0.7700   -5.5295 N   0  0  0  0  0  0  0  0  0  0  0  0
   -0.3829    0.1763   -6.3403 H   0  0  0  0  0  0  0  0  0  0  0  0
   -1.3255    1.3143   -5.6102 H   0  0  0  0  0  0  0  0  0  0  0  0
   -0.9237    0.7008    2.0051 C   0  0  0  0  0  0  0  0  0  0  0  0
   -0.5356    1.8655    1.9440 O   0  0  0  0  0  0  0  0  0  0  0  0
   -1.2637    0.1115    3.1573 N   0  0  0  0  0  0  0  0  0  0  0  0
   -1.5861   -0.8417    3.1225 H   0  0  0  0  0  0  0  0  0  0  0  0
   -1.2088    0.7734    4.4598 C   0  0  0  0  0  0  0  0  0  0  0  0
   -1.7946    1.6948    4.4304 H   0  0  0  0  0  0  0  0  0  0  0  0
   -1.6072    0.1182    5.2358 H   0  0  0  0  0  0  0  0  0  0  0  0
   -0.1743    1.0288    4.6985 H   0  0  0  0  0  0  0  0  0  0  0  0
  5  6  2  0  0  0  0
  5  7  1  0  0  0  0
  2  3  1  0  0  0  0
  2  4  1  0  0  0  0
  2  5  1  0  0  0  0
  1  2  1  0  0  0  0
 26 27  2  0  0  0  0
 26 28  1  0  0  0  0
 23 24  1  0  0  0  0
 23 25  1  0  0  0  0
 20 21  1  0  0  0  0
 20 22  1  0  0  0  0
 20 23  1  0  0  0  0
 17 18  1  0  0  0  0
 17 19  1  0  0  0  0
 17 20  1  0  0  0  0
 14 15  1  0  0  0  0
 14 16  1  0  0  0  0
 14 17  1  0  0  0  0
 11 12  1  0  0  0  0
 11 13  1  0  0  0  0
 11 14  1  0  0  0  0
  9 10  1  0  0  0  0
  9 11  1  0  0  0  0
  9 26  1  0  0  0  0
  7  8  1  0  0  0  0
  7  9  1  0  0  0  0
 30 31  1  0  0  0  0
 30 32  1  0  0  0  0
 30 33  1  0  0  0  0
 28 29  1  0  0  0  0
 28 30  1  0  0  0  0
M  END
$$$$
default_name
  -OEChem-01062215323D

 33 32  0     1  0  0  0  0  0999 V2000
   -3.8420   -3.6918    1.5562 H   0  0  0  0  0  0  0  0  0  0  0  0
   -3.8430   -2.7008    1.1032 C   0  0  0  0  0  0  0  0  0  0  0  0
   -4.5510   -2.0608    1.6242 H   0  0  0  0  0  0  0  0  0  0  0  0
   -4.1140   -2.7798    0.0522 H   0  0  0  0  0  0  0  0  0  0  0  0
   -2.4570   -2.1098    1.2172 C   0  0  0  0  0  0  0  0  0  0  0  0
   -1.5600   -2.7438    1.7572 O   0  0  0  0  0  0  0  0  0  0  0  0
   -2.2870   -0.8898    0.7102 N   0  0  0  0  0  0  0  0  0  0  0  0
   -3.0820   -0.4218    0.2992 H   0  0  0  0  0  0  0  0  0  0  0  0
   -1.0240   -0.1468    0.7262 C   0  0  1  0  0  0  0  0  0  0  0  0
   -0.2006   -0.8623    0.7222 H   0  0  0  0  0  0  0  0  0  0  0  0
   -0.9383    0.7110   -0.5512 C   0  0  0  0  0  0  0  0  0  0  0  0
   -1.8529    1.3017   -0.6346 H   0  0  0  0  0  0  0  0  0  0  0  0
   -0.0955    1.3984   -0.4670 H   0  0  0  0  0  0  0  0  0  0  0  0
   -0.7866   -0.1217   -1.8338 C   0  0  0  0  0  0  0  0  0  0  0  0
    0.1148   -0.7318   -1.7696 H   0  0  0  0  0  0  0  0  0  0  0  0
   -1.6539   -0.7755   -1.9420 H   0  0  0  0  0  0  0  0  0  0  0  0
   -0.6819    0.7847   -3.0656 C   0  0  0  0  0  0  0  0  0  0  0  0
   -1.5739    1.4076   -3.1391 H   0  0  0  0  0  0  0  0  0  0  0  0
    0.1969    1.4235   -2.9733 H   0  0  0  0  0  0  0  0  0  0  0  0
   -0.5571   -0.0675   -4.3271 C   0  0  0  0  0  0  0  0  0  0  0  0
    0.3430   -0.6768   -4.2641 H   0  0  0  0  0  0  0  0  0  0  0  0
   -1.4254   -0.7188   -4.4114 H   0  0  0  0  0  0  0  0  0  0  0  0
   -0.4784    0.7700   -5.5295 N   0  0  0  0  0  0  0  0  0  0  0  0
   -0.3829    0.1763   -6.3403 H   0  0  0  0  0  0  0  0  0  0  0  0
   -1.3255    1.3143   -5.6102 H   0  0  0  0  0  0  0  0  0  0  0  0
   -0.9237    0.7008    2.0051 C   0  0  0  0  0  0  0  0  0  0  0  0
   -0.8070    1.9220    1.9278 O   0  0  0  0  0  0  0  0  0  0  0  0
   -0.9595    0.0504    3.1739 N   0  0  0  0  0  0  0  0  0  0  0  0
   -1.0720   -0.9499    3.1539 H   0  0  0  0  0  0  0  0  0  0  0  0
   -0.8600    0.7069    4.4766 C   0  0  0  0  0  0  0  0  0  0  0  0
   -1.6273    1.4796    4.5599 H   0  0  0  0  0  0  0  0  0  0  0  0
   -0.9924   -0.0201    5.2792 H   0  0  0  0  0  0  0  0  0  0  0  0
    0.1193    1.1799    4.5754 H   0  0  0  0  0  0  0  0  0  0  0  0
  5  6  2  0  0  0  0
  5  7  1  0  0  0  0
  2  3  1  0  0  0  0
  2  4  1  0  0  0  0
  2  5  1  0  0  0  0
  1  2  1  0  0  0  0
 26 27  2  0  0  0  0
 26 28  1  0  0  0  0
 23 24  1  0  0  0  0
 23 25  1  0  0  0  0
 20 21  1  0  0  0  0
 20 22  1  0  0  0  0
 20 23  1  0  0  0  0
 17 18  1  0  0  0  0
 17 19  1  0  0  0  0
 17 20  1  0  0  0  0
 14 15  1  0  0  0  0
 14 16  1  0  0  0  0
 14 17  1  0  0  0  0
 11 12  1  0  0  0  0
 11 13  1  0  0  0  0
 11 14  1  0  0  0  0
  9 10  1  0  0  0  0
  9 11  1  0  0  0  0
  9 26  1  0  0  0  0
  7  8  1  0  0  0  0
  7  9  1  0  0  0  0
 30 31  1  0  0  0  0
 30 32  1  0  0  0  0
 30 33  1  0  0  0  0
 28 29  1  0  0  0  0
 28 30  1  0  0  0  0
M  END
$$$$
default_name
  -OEChem-01062215323D

 33 32  0     1  0  0  0  0  0999 V2000
   -3.8420   -3.6918    1.5562 H   0  0  0  0  0  0  0  0  0  0  0  0
   -3.8430   -2.7008    1.1032 C   0  0  0  0  0  0  0  0  0  0  0  0
   -4.5510   -2.0608    1.6242 H   0  0  0  0  0  0  0  0  0  0  0  0
   -4.1140   -2.7798    0.0522 H   0  0  0  0  0  0  0  0  0  0  0  0
   -2.4570   -2.1098    1.2172 C   0  0  0  0  0  0  0  0  0  0  0  0
   -1.5600   -2.7438    1.7572 O   0  0  0  0  0  0  0  0  0  0  0  0
   -2.2870   -0.8898    0.7102 N   0  0  0  0  0  0  0  0  0  0  0  0
   -3.0820   -0.4218    0.2992 H   0  0  0  0  0  0  0  0  0  0  0  0
   -1.0240   -0.1468    0.7262 C   0  0  1  0  0  0  0  0  0  0  0  0
   -0.2006   -0.8623    0.7222 H   0  0  0  0  0  0  0  0  0  0  0  0
   -0.9383    0.7110   -0.5512 C   0  0  0  0  0  0  0  0  0  0  0  0
   -1.8529    1.3017   -0.6346 H   0  0  0  0  0  0  0  0  0  0  0  0
   -0.0955    1.3984   -0.4670 H   0  0  0  0  0  0  0  0  0  0  0  0
   -0.7866   -0.1217   -1.8338 C   0  0  0  0  0  0  0  0  0  0  0  0
    0.1148   -0.7318   -1.7696 H   0  0  0  0  0  0  0  0  0  0  0  0
   -1.6539   -0.7755   -1.9420 H   0  0  0  0  0  0  0  0  0  0  0  0
   -0.6819    0.7847   -3.0656 C   0  0  0  0  0  0  0  0  0  0  0  0
   -1.5739    1.4076   -3.1391 H   0  0  0  0  0  0  0  0  0  0  0  0
    0.1969    1.4235   -2.9733 H   0  0  0  0  0  0  0  0  0  0  0  0
   -0.5571   -0.0675   -4.3271 C   0  0  0  0  0  0  0  0  0  0  0  0
    0.3430   -0.6768   -4.2641 H   0  0  0  0  0  0  0  0  0  0  0  0
   -1.4254   -0.7188   -4.4114 H   0  0  0  0  0  0  0  0  0  0  0  0
   -0.4784    0.7700   -5.5295 N   0  0  0  0  0  0  0  0  0  0  0  0
   -0.3829    0.1763   -6.3403 H   0  0  0  0  0  0  0  0  0  0  0  0
   -1.3255    1.3143   -5.6102 H   0  0  0  0  0  0  0  0  0  0  0  0
   -0.9237    0.7008    2.0051 C   0  0  0  0  0  0  0  0  0  0  0  0
   -1.0835    1.9184    1.9519 O   0  0  0  0  0  0  0  0  0  0  0  0
   -0.6501    0.0566    3.1456 N   0  0  0  0  0  0  0  0  0  0  0  0
   -0.5476   -0.9443    3.1091 H   0  0  0  0  0  0  0  0  0  0  0  0
   -0.5063    0.7174    4.4418 C   0  0  0  0  0  0  0  0  0  0  0  0
   -1.4009    1.3056    4.6575 H   0  0  0  0  0  0  0  0  0  0  0  0
   -0.3626   -0.0219    5.2310 H   0  0  0  0  0  0  0  0  0  0  0  0
    0.3528    1.3911    4.4171 H   0  0  0  0  0  0  0  0  0  0  0  0
  5  6  2  0  0  0  0
  5  7  1  0  0  0  0
  2  3  1  0  0  0  0
  2  4  1  0  0  0  0
  2  5  1  0  0  0  0
  1  2  1  0  0  0  0
 26 27  2  0  0  0  0
 26 28  1  0  0  0  0
 23 24  1  0  0  0  0
 23 25  1  0  0  0  0
 20 21  1  0  0  0  0
 20 22  1  0  0  0  0
 20 23  1  0  0  0  0
 17 18  1  0  0  0  0
 17 19  1  0  0  0  0
 17 20  1  0  0  0  0
 14 15  1  0  0  0  0
 14 16  1  0  0  0  0
 14 17  1  0  0  0  0
 11 12  1  0  0  0  0
 11 13  1  0  0  0  0
 11 14  1  0  0  0  0
  9 10  1  0  0  0  0
  9 11  1  0  0  0  0
  9 26  1  0  0  0  0
  7  8  1  0  0  0  0
  7  9  1  0  0  0  0
 30 31  1  0  0  0  0
 30 32  1  0  0  0  0
 30 33  1  0  0  0  0
 28 29  1  0  0  0  0
 28 30  1  0  0  0  0
M  END
$$$$
default_name
  -OEChem-01062215323D

 33 32  0     1  0  0  0  0  0999 V2000
   -3.8420   -3.6918    1.5562 H   0  0  0  0  0  0  0  0  0  0  0  0
   -3.8430   -2.7008    1.1032 C   0  0  0  0  0  0  0  0  0  0  0  0
   -4.5510   -2.0608    1.6242 H   0  0  0  0  0  0  0  0  0  0  0  0
   -4.1140   -2.7798    0.0522 H   0  0  0  0  0  0  0  0  0  0  0  0
   -2.4570   -2.1098    1.2172 C   0  0  0  0  0  0  0  0  0  0  0  0
   -1.5600   -2.7438    1.7572 O   0  0  0  0  0  0  0  0  0  0  0  0
   -2.2870   -0.8898    0.7102 N   0  0  0  0  0  0  0  0  0  0  0  0
   -3.0820   -0.4218    0.2992 H   0  0  0  0  0  0  0  0  0  0  0  0
   -1.0240   -0.1468    0.7262 C   0  0  1  0  0  0  0  0  0  0  0  0
   -0.2006   -0.8623    0.7222 H   0  0  0  0  0  0  0  0  0  0  0  0
   -0.9383    0.7110   -0.5512 C   0  0  0  0  0  0  0  0  0  0  0  0
   -1.8529    1.3017   -0.6346 H   0  0  0  0  0  0  0  0  0  0  0  0
   -0.0955    1.3984   -0.4670 H   0  0  0  0  0  0  0  0  0  0  0  0
   -0.7866   -0.1217   -1.8338 C   0  0  0  0  0  0  0  0  0  0  0  0
    0.1148   -0.7318   -1.7696 H   0  0  0  0  0  0  0  0  0  0  0  0
   -1.6539   -0.7755   -1.9420 H   0  0  0  0  0  0  0  0  0  0  0  0
   -0.6819    0.7847   -3.0656 C   0  0  0  0  0  0  0  0  0  0  0  0
   -1.5739    1.4076   -3.1391 H   0  0  0  0  0  0  0  0  0  0  0  0
    0.1969    1.4235   -2.9733 H   0  0  0  0  0  0  0  0  0  0  0  0
   -0.5571   -0.0675   -4.3271 C   0  0  0  0  0  0  0  0  0  0  0  0
    0.3430   -0.6768   -4.2641 H   0  0  0  0  0  0  0  0  0  0  0  0
   -1.4254   -0.7188   -4.4114 H   0  0  0  0  0  0  0  0  0  0  0  0
   -0.4784    0.7700   -5.5295 N   0  0  0  0  0  0  0  0  0  0  0  0
   -0.3829    0.1763   -6.3403 H   0  0  0  0  0  0  0  0  0  0  0  0
   -1.3255    1.3143   -5.6102 H   0  0  0  0  0  0  0  0  0  0  0  0
   -0.9237    0.7008    2.0051 C   0  0  0  0  0  0  0  0  0  0  0  0
   -1.3464    1.8550    2.0145 O   0  0  0  0  0  0  0  0  0  0  0  0
   -0.3567    0.1297    3.0741 N   0  0  0  0  0  0  0  0  0  0  0  0
   -0.0487   -0.8252    2.9911 H   0  0  0  0  0  0  0  0  0  0  0  0
   -0.1718    0.8044    4.3580 C   0  0  0  0  0  0  0  0  0  0  0  0
   -1.1309    1.1846    4.7165 H   0  0  0  0  0  0  0  0  0  0  0  0
    0.2393    0.1126    5.0947 H   0  0  0  0  0  0  0  0  0  0  0  0
    0.5103    1.6481    4.2344 H   0  0  0  0  0  0  0  0  0  0  0  0
  5  6  2  0  0  0  0
  5  7  1  0  0  0  0
  2  3  1  0  0  0  0
  2  4  1  0  0  0  0
  2  5  1  0  0  0  0
  1  2  1  0  0  0  0
 26 27  2  0  0  0  0
 26 28  1  0  0  0  0
 23 24  1  0  0  0  0
 23 25  1  0  0  0  0
 20 21  1  0  0  0  0
 20 22  1  0  0  0  0
 20 23  1  0  0  0  0
 17 18  1  0  0  0  0
 17 19  1  0  0  0  0
 17 20  1  0  0  0  0
 14 15  1  0  0  0  0
 14 16  1  0  0  0  0
 14 17  1  0  0  0  0
 11 12  1  0  0  0  0
 11 13  1  0  0  0  0
 11 14  1  0  0  0  0
  9 10  1  0  0  0  0
  9 11  1  0  0  0  0
  9 26  1  0  0  0  0
  7  8  1  0  0  0  0
  7  9  1  0  0  0  0
 30 31  1  0  0  0  0
 30 32  1  0  0  0  0
 30 33  1  0  0  0  0
 28 29  1  0  0  0  0
 28 30  1  0  0  0  0
M  END
$$$$
default_name
  -OEChem-01062215323D

 33 32  0     1  0  0  0  0  0999 V2000
   -3.8420   -3.6918    1.5562 H   0  0  0  0  0  0  0  0  0  0  0  0
   -3.8430   -2.7008    1.1032 C   0  0  0  0  0  0  0  0  0  0  0  0
   -4.5510   -2.0608    1.6242 H   0  0  0  0  0  0  0  0  0  0  0  0
   -4.1140   -2.7798    0.0522 H   0  0  0  0  0  0  0  0  0  0  0  0
   -2.4570   -2.1098    1.2172 C   0  0  0  0  0  0  0  0  0  0  0  0
   -1.5600   -2.7438    1.7572 O   0  0  0  0  0  0  0  0  0  0  0  0
   -2.2870   -0.8898    0.7102 N   0  0  0  0  0  0  0  0  0  0  0  0
   -3.0820   -0.4218    0.2992 H   0  0  0  0  0  0  0  0  0  0  0  0
   -1.0240   -0.1468    0.7262 C   0  0  1  0  0  0  0  0  0  0  0  0
   -0.2006   -0.8623    0.7222 H   0  0  0  0  0  0  0  0  0  0  0  0
   -0.9383    0.7110   -0.5512 C   0  0  0  0  0  0  0  0  0  0  0  0
   -1.8529    1.3017   -0.6346 H   0  0  0  0  0  0  0  0  0  0  0  0
   -0.0955    1.3984   -0.4670 H   0  0  0  0  0  0  0  0  0  0  0  0
   -0.7866   -0.1217   -1.8338 C   0  0  0  0  0  0  0  0  0  0  0  0
    0.1148   -0.7318   -1.7696 H   0  0  0  0  0  0  0  0  0  0  0  0
   -1.6539   -0.7755   -1.9420 H   0  0  0  0  0  0  0  0  0  0  0  0
   -0.6819    0.7847   -3.0656 C   0  0  0  0  0  0  0  0  0  0  0  0
   -1.5739    1.4076   -3.1391 H   0  0  0  0  0  0  0  0  0  0  0  0
    0.1969    1.4235   -2.9733 H   0  0  0  0  0  0  0  0  0  0  0  0
   -0.5571   -0.0675   -4.3271 C   0  0  0  0  0  0  0  0  0  0  0  0
    0.3430   -0.6768   -4.2641 H   0  0  0  0  0  0  0  0  0  0  0  0
   -1.4254   -0.7188   -4.4114 H   0  0  0  0  0  0  0  0  0  0  0  0
   -0.4784    0.7700   -5.5295 N   0  0  0  0  0  0  0  0  0  0  0  0
   -0.3829    0.1763   -6.3403 H   0  0  0  0  0  0  0  0  0  0  0  0
   -1.3255    1.3143   -5.6102 H   0  0  0  0  0  0  0  0  0  0  0  0
   -0.9237    0.7008    2.0051 C   0  0  0  0  0  0  0  0  0  0  0  0
   -1.5778    1.7361    2.1115 O   0  0  0  0  0  0  0  0  0  0  0  0
   -0.0992    0.2646    2.9645 N   0  0  0  0  0  0  0  0  0  0  0  0
    0.3908   -0.6008    2.8079 H   0  0  0  0  0  0  0  0  0  0  0  0
    0.1205    0.9617    4.2308 C   0  0  0  0  0  0  0  0  0  0  0  0
   -0.8356    1.1249    4.7330 H   0  0  0  0  0  0  0  0  0  0  0  0
    0.7722    0.3745    4.8793 H   0  0  0  0  0  0  0  0  0  0  0  0
    0.5810    1.9333    4.0399 H   0  0  0  0  0  0  0  0  0  0  0  0
  5  6  2  0  0  0  0
  5  7  1  0  0  0  0
  2  3  1  0  0  0  0
  2  4  1  0  0  0  0
  2  5  1  0  0  0  0
  1  2  1  0  0  0  0
 26 27  2  0  0  0  0
 26 28  1  0  0  0  0
 23 24  1  0  0  0  0
 23 25  1  0  0  0  0
 20 21  1  0  0  0  0
 20 22  1  0  0  0  0
 20 23  1  0  0  0  0
 17 18  1  0  0  0  0
 17 19  1  0  0  0  0
 17 20  1  0  0  0  0
 14 15  1  0  0  0  0
 14 16  1  0  0  0  0
 14 17  1  0  0  0  0
 11 12  1  0  0  0  0
 11 13  1  0  0  0  0
 11 14  1  0  0  0  0
  9 10  1  0  0  0  0
  9 11  1  0  0  0  0
  9 26  1  0  0  0  0
  7  8  1  0  0  0  0
  7  9  1  0  0  0  0
 30 31  1  0  0  0  0
 30 32  1  0  0  0  0
 30 33  1  0  0  0  0
 28 29  1  0  0  0  0
 28 30  1  0  0  0  0
M  END
$$$$
default_name
  -OEChem-01062215323D

 33 32  0     1  0  0  0  0  0999 V2000
   -3.8420   -3.6918    1.5562 H   0  0  0  0  0  0  0  0  0  0  0  0
   -3.8430   -2.7008    1.1032 C   0  0  0  0  0  0  0  0  0  0  0  0
   -4.5510   -2.0608    1.6242 H   0  0  0  0  0  0  0  0  0  0  0  0
   -4.1140   -2.7798    0.0522 H   0  0  0  0  0  0  0  0  0  0  0  0
   -2.4570   -2.1098    1.2172 C   0  0  0  0  0  0  0  0  0  0  0  0
   -1.5600   -2.7438    1.7572 O   0  0  0  0  0  0  0  0  0  0  0  0
   -2.2870   -0.8898    0.7102 N   0  0  0  0  0  0  0  0  0  0  0  0
   -3.0820   -0.4218    0.2992 H   0  0  0  0  0  0  0  0  0  0  0  0
   -1.0240   -0.1468    0.7262 C   0  0  1  0  0  0  0  0  0  0  0  0
   -0.2006   -0.8623    0.7222 H   0  0  0  0  0  0  0  0  0  0  0  0
   -0.9383    0.7110   -0.5512 C   0  0  0  0  0  0  0  0  0  0  0  0
   -1.8529    1.3017   -0.6346 H   0  0  0  0  0  0  0  0  0  0  0  0
   -0.0955    1.3984   -0.4670 H   0  0  0  0  0  0  0  0  0  0  0  0
   -0.7866   -0.1217   -1.8338 C   0  0  0  0  0  0  0  0  0  0  0  0
    0.1148   -0.7318   -1.7696 H   0  0  0  0  0  0  0  0  0  0  0  0
   -1.6539   -0.7755   -1.9420 H   0  0  0  0  0  0  0  0  0  0  0  0
   -0.6819    0.7847   -3.0656 C   0  0  0  0  0  0  0  0  0  0  0  0
   -1.5739    1.4076   -3.1391 H   0  0  0  0  0  0  0  0  0  0  0  0
    0.1969    1.4235   -2.9733 H   0  0  0  0  0  0  0  0  0  0  0  0
   -0.5571   -0.0675   -4.3271 C   0  0  0  0  0  0  0  0  0  0  0  0
    0.3430   -0.6768   -4.2641 H   0  0  0  0  0  0  0  0  0  0  0  0
   -1.4254   -0.7188   -4.4114 H   0  0  0  0  0  0  0  0  0  0  0  0
   -0.4784    0.7700   -5.5295 N   0  0  0  0  0  0  0  0  0  0  0  0
   -0.3829    0.1763   -6.3403 H   0  0  0  0  0  0  0  0  0  0  0  0
   -1.3255    1.3143   -5.6102 H   0  0  0  0  0  0  0  0  0  0  0  0
   -0.9237    0.7008    2.0051 C   0  0  0  0  0  0  0  0  0  0  0  0
   -1.7618    1.5698    2.2361 O   0  0  0  0  0  0  0  0  0  0  0  0
    0.1048    0.4523    2.8241 N   0  0  0  0  0  0  0  0  0  0  0  0
    0.7408   -0.2863    2.5720 H   0  0  0  0  0  0  0  0  0  0  0  0
    0.3509    1.1788    4.0689 C   0  0  0  0  0  0  0  0  0  0  0  0
   -0.5351    1.1305    4.7057 H   0  0  0  0  0  0  0  0  0  0  0  0
    1.1999    0.7458    4.5997 H   0  0  0  0  0  0  0  0  0  0  0  0
    0.5602    2.2273    3.8467 H   0  0  0  0  0  0  0  0  0  0  0  0
  5  6  2  0  0  0  0
  5  7  1  0  0  0  0
  2  3  1  0  0  0  0
  2  4  1  0  0  0  0
  2  5  1  0  0  0  0
  1  2  1  0  0  0  0
 26 27  2  0  0  0  0
 26 28  1  0  0  0  0
 23 24  1  0  0  0  0
 23 25  1  0  0  0  0
 20 21  1  0  0  0  0
 20 22  1  0  0  0  0
 20 23  1  0  0  0  0
 17 18  1  0  0  0  0
 17 19  1  0  0  0  0
 17 20  1  0  0  0  0
 14 15  1  0  0  0  0
 14 16  1  0  0  0  0
 14 17  1  0  0  0  0
 11 12  1  0  0  0  0
 11 13  1  0  0  0  0
 11 14  1  0  0  0  0
  9 10  1  0  0  0  0
  9 11  1  0  0  0  0
  9 26  1  0  0  0  0
  7  8  1  0  0  0  0
  7  9  1  0  0  0  0
 30 31  1  0  0  0  0
 30 32  1  0  0  0  0
 30 33  1  0  0  0  0
 28 29  1  0  0  0  0
 28 30  1  0  0  0  0
M  END
$$$$
default_name
  -OEChem-01062215323D

 33 32  0     1  0  0  0  0  0999 V2000
   -3.8420   -3.6918    1.5562 H   0  0  0  0  0  0  0  0  0  0  0  0
   -3.8430   -2.7008    1.1032 C   0  0  0  0  0  0  0  0  0  0  0  0
   -4.5510   -2.0608    1.6242 H   0  0  0  0  0  0  0  0  0  0  0  0
   -4.1140   -2.7798    0.0522 H   0  0  0  0  0  0  0  0  0  0  0  0
   -2.4570   -2.1098    1.2172 C   0  0  0  0  0  0  0  0  0  0  0  0
   -1.5600   -2.7438    1.7572 O   0  0  0  0  0  0  0  0  0  0  0  0
   -2.2870   -0.8898    0.7102 N   0  0  0  0  0  0  0  0  0  0  0  0
   -3.0820   -0.4218    0.2992 H   0  0  0  0  0  0  0  0  0  0  0  0
   -1.0240   -0.1468    0.7262 C   0  0  1  0  0  0  0  0  0  0  0  0
   -0.2006   -0.8623    0.7222 H   0  0  0  0  0  0  0  0  0  0  0  0
   -0.9383    0.7110   -0.5512 C   0  0  0  0  0  0  0  0  0  0  0  0
   -1.8529    1.3017   -0.6346 H   0  0  0  0  0  0  0  0  0  0  0  0
   -0.0955    1.3984   -0.4670 H   0  0  0  0  0  0  0  0  0  0  0  0
   -0.7866   -0.1217   -1.8338 C   0  0  0  0  0  0  0  0  0  0  0  0
    0.1148   -0.7318   -1.7696 H   0  0  0  0  0  0  0  0  0  0  0  0
   -1.6539   -0.7755   -1.9420 H   0  0  0  0  0  0  0  0  0  0  0  0
   -0.6819    0.7847   -3.0656 C   0  0  0  0  0  0  0  0  0  0  0  0
   -1.5739    1.4076   -3.1391 H   0  0  0  0  0  0  0  0  0  0  0  0
    0.1969    1.4235   -2.9733 H   0  0  0  0  0  0  0  0  0  0  0  0
   -0.5571   -0.0675   -4.3271 C   0  0  0  0  0  0  0  0  0  0  0  0
    0.3430   -0.6768   -4.2641 H   0  0  0  0  0  0  0  0  0  0  0  0
   -1.4254   -0.7188   -4.4114 H   0  0  0  0  0  0  0  0  0  0  0  0
   -0.4784    0.7700   -5.5295 N   0  0  0  0  0  0  0  0  0  0  0  0
   -0.3829    0.1763   -6.3403 H   0  0  0  0  0  0  0  0  0  0  0  0
   -1.3255    1.3143   -5.6102 H   0  0  0  0  0  0  0  0  0  0  0  0
   -0.9237    0.7008    2.0051 C   0  0  0  0  0  0  0  0  0  0  0  0
   -1.8860    1.3674    2.3799 O   0  0  0  0  0  0  0  0  0  0  0  0
    0.2415    0.6798    2.6626 N   0  0  0  0  0  0  0  0  0  0  0  0
    0.9776    0.0967    2.2996 H   0  0  0  0  0  0  0  0  0  0  0  0
    0.5036    1.4409    3.8832 C   0  0  0  0  0  0  0  0  0  0  0  0
   -0.2500    1.2010    4.6366 H   0  0  0  0  0  0  0  0  0  0  0  0
    1.4932    1.2013    4.2749 H   0  0  0  0  0  0  0  0  0  0  0  0
    0.4492    2.5100    3.6680 H   0  0  0  0  0  0  0  0  0  0  0  0
  5  6  2  0  0  0  0
  5  7  1  0  0  0  0
  2  3  1  0  0  0  0
  2  4  1  0  0  0  0
  2  5  1  0  0  0  0
  1  2  1  0  0  0  0
 26 27  2  0  0  0  0
 26 28  1  0  0  0  0
 23 24  1  0  0  0  0
 23 25  1  0  0  0  0
 20 21  1  0  0  0  0
 20 22  1  0  0  0  0
 20 23  1  0  0  0  0
 17 18  1  0  0  0  0
 17 19  1  0  0  0  0
 17 20  1  0  0  0  0
 14 15  1  0  0  0  0
 14 16  1  0  0  0  0
 14 17  1  0  0  0  0
 11 12  1  0  0  0  0
 11 13  1  0  0  0  0
 11 14  1  0  0  0  0
  9 10  1  0  0  0  0
  9 11  1  0  0  0  0
  9 26  1  0  0  0  0
  7  8  1  0  0  0  0
  7  9  1  0  0  0  0
 30 31  1  0  0  0  0
 30 32  1  0  0  0  0
 30 33  1  0  0  0  0
 28 29  1  0  0  0  0
 28 30  1  0  0  0  0
M  END
$$$$
default_name
  -OEChem-01062215323D

 33 32  0     1  0  0  0  0  0999 V2000
   -3.8420   -3.6918    1.5562 H   0  0  0  0  0  0  0  0  0  0  0  0
   -3.8430   -2.7008    1.1032 C   0  0  0  0  0  0  0  0  0  0  0  0
   -4.5510   -2.0608    1.6242 H   0  0  0  0  0  0  0  0  0  0  0  0
   -4.1140   -2.7798    0.0522 H   0  0  0  0  0  0  0  0  0  0  0  0
   -2.4570   -2.1098    1.2172 C   0  0  0  0  0  0  0  0  0  0  0  0
   -1.5600   -2.7438    1.7572 O   0  0  0  0  0  0  0  0  0  0  0  0
   -2.2870   -0.8898    0.7102 N   0  0  0  0  0  0  0  0  0  0  0  0
   -3.0820   -0.4218    0.2992 H   0  0  0  0  0  0  0  0  0  0  0  0
   -1.0240   -0.1468    0.7262 C   0  0  1  0  0  0  0  0  0  0  0  0
   -0.2006   -0.8623    0.7222 H   0  0  0  0  0  0  0  0  0  0  0  0
   -0.9383    0.7110   -0.5512 C   0  0  0  0  0  0  0  0  0  0  0  0
   -1.8529    1.3017   -0.6346 H   0  0  0  0  0  0  0  0  0  0  0  0
   -0.0955    1.3984   -0.4670 H   0  0  0  0  0  0  0  0  0  0  0  0
   -0.7866   -0.1217   -1.8338 C   0  0  0  0  0  0  0  0  0  0  0  0
    0.1148   -0.7318   -1.7696 H   0  0  0  0  0  0  0  0  0  0  0  0
   -1.6539   -0.7755   -1.9420 H   0  0  0  0  0  0  0  0  0  0  0  0
   -0.6819    0.7847   -3.0656 C   0  0  0  0  0  0  0  0  0  0  0  0
   -1.5739    1.4076   -3.1391 H   0  0  0  0  0  0  0  0  0  0  0  0
    0.1969    1.4235   -2.9733 H   0  0  0  0  0  0  0  0  0  0  0  0
   -0.5571   -0.0675   -4.3271 C   0  0  0  0  0  0  0  0  0  0  0  0
    0.3430   -0.6768   -4.2641 H   0  0  0  0  0  0  0  0  0  0  0  0
   -1.4254   -0.7188   -4.4114 H   0  0  0  0  0  0  0  0  0  0  0  0
   -0.4784    0.7700   -5.5295 N   0  0  0  0  0  0  0  0  0  0  0  0
   -0.3829    0.1763   -6.3403 H   0  0  0  0  0  0  0  0  0  0  0  0
   -1.3255    1.3143   -5.6102 H   0  0  0  0  0  0  0  0  0  0  0  0
   -0.9237    0.7008    2.0051 C   0  0  0  0  0  0  0  0  0  0  0  0
   -1.9419    1.1428    2.5332 O   0  0  0  0  0  0  0  0  0  0  0  0
    0.3015    0.9318    2.4909 N   0  0  0  0  0  0  0  0  0  0  0  0
    1.0849    0.5223    2.0091 H   0  0  0  0  0  0  0  0  0  0  0  0
    0.5681    1.7300    3.6866 C   0  0  0  0  0  0  0  0  0  0  0  0
    0.0004    1.3317    4.5303 H   0  0  0  0  0  0  0  0  0  0  0  0
    1.6321    1.7098    3.9270 H   0  0  0  0  0  0  0  0  0  0  0  0
    0.2557    2.7623    3.5160 H   0  0  0  0  0  0  0  0  0  0  0  0
  5  6  2  0  0  0  0
  5  7  1  0  0  0  0
  2  3  1  0  0  0  0
  2  4  1  0  0  0  0
  2  5  1  0  0  0  0
  1  2  1  0  0  0  0
 26 27  2  0  0  0  0
 26 28  1  0  0  0  0
 23 24  1  0  0  0  0
 23 25  1  0  0  0  0
 20 21  1  0  0  0  0
 20 22  1  0  0  0  0
 20 23  1  0  0  0  0
 17 18  1  0  0  0  0
 17 19  1  0  0  0  0
 17 20  1  0  0  0  0
 14 15  1  0  0  0  0
 14 16  1  0  0  0  0
 14 17  1  0  0  0  0
 11 12  1  0  0  0  0
 11 13  1  0  0  0  0
 11 14  1  0  0  0  0
  9 10  1  0  0  0  0
  9 11  1  0  0  0  0
  9 26  1  0  0  0  0
  7  8  1  0  0  0  0
  7  9  1  0  0  0  0
 30 31  1  0  0  0  0
 30 32  1  0  0  0  0
 30 33  1  0  0  0  0
 28 29  1  0  0  0  0
 28 30  1  0  0  0  0
M  END
$$$$
default_name
  -OEChem-01062215323D

 33 32  0     1  0  0  0  0  0999 V2000
   -3.8420   -3.6918    1.5562 H   0  0  0  0  0  0  0  0  0  0  0  0
   -3.8430   -2.7008    1.1032 C   0  0  0  0  0  0  0  0  0  0  0  0
   -4.5510   -2.0608    1.6242 H   0  0  0  0  0  0  0  0  0  0  0  0
   -4.1140   -2.7798    0.0522 H   0  0  0  0  0  0  0  0  0  0  0  0
   -2.4570   -2.1098    1.2172 C   0  0  0  0  0  0  0  0  0  0  0  0
   -1.5600   -2.7438    1.7572 O   0  0  0  0  0  0  0  0  0  0  0  0
   -2.2870   -0.8898    0.7102 N   0  0  0  0  0  0  0  0  0  0  0  0
   -3.0820   -0.4218    0.2992 H   0  0  0  0  0  0  0  0  0  0  0  0
   -1.0240   -0.1468    0.7262 C   0  0  1  0  0  0  0  0  0  0  0  0
   -0.2006   -0.8623    0.7222 H   0  0  0  0  0  0  0  0  0  0  0  0
   -0.9383    0.7110   -0.5512 C   0  0  0  0  0  0  0  0  0  0  0  0
   -1.8529    1.3017   -0.6346 H   0  0  0  0  0  0  0  0  0  0  0  0
   -0.0955    1.3984   -0.4670 H   0  0  0  0  0  0  0  0  0  0  0  0
   -0.7866   -0.1217   -1.8338 C   0  0  0  0  0  0  0  0  0  0  0  0
    0.1148   -0.7318   -1.7696 H   0  0  0  0  0  0  0  0  0  0  0  0
   -1.6539   -0.7755   -1.9420 H   0  0  0  0  0  0  0  0  0  0  0  0
   -0.6819    0.7847   -3.0656 C   0  0  0  0  0  0  0  0  0  0  0  0
   -1.5739    1.4076   -3.1391 H   0  0  0  0  0  0  0  0  0  0  0  0
    0.1969    1.4235   -2.9733 H   0  0  0  0  0  0  0  0  0  0  0  0
   -0.5571   -0.0675   -4.3271 C   0  0  0  0  0  0  0  0  0  0  0  0
    0.3430   -0.6768   -4.2641 H   0  0  0  0  0  0  0  0  0  0  0  0
   -1.4254   -0.7188   -4.4114 H   0  0  0  0  0  0  0  0  0  0  0  0
   -0.4784    0.7700   -5.5295 N   0  0  0  0  0  0  0  0  0  0  0  0
   -0.3829    0.1763   -6.3403 H   0  0  0  0  0  0  0  0  0  0  0  0
   -1.3255    1.3143   -5.6102 H   0  0  0  0  0  0  0  0  0  0  0  0
   -0.9237    0.7008    2.0051 C   0  0  0  0  0  0  0  0  0  0  0  0
   -1.9257    0.9112    2.6854 O   0  0  0  0  0  0  0  0  0  0  0  0
    0.2806    1.1910    2.3208 N   0  0  0  0  0  0  0  0  0  0  0  0
    1.0555    0.9615    1.7204 H   0  0  0  0  0  0  0  0  0  0  0  0
    0.5402    2.0264    3.4923 C   0  0  0  0  0  0  0  0  0  0  0  0
    0.1989    1.5136    4.3942 H   0  0  0  0  0  0  0  0  0  0  0  0
    1.6071    2.2368    3.5797 H   0  0  0  0  0  0  0  0  0  0  0  0
   -0.0073    2.9668    3.4010 H   0  0  0  0  0  0  0  0  0  0  0  0
  5  6  2  0  0  0  0
  5  7  1  0  0  0  0
  2  3  1  0  0  0  0
  2  4  1  0  0  0  0
  2  5  1  0  0  0  0
  1  2  1  0  0  0  0
 26 27  2  0  0  0  0
 26 28  1  0  0  0  0
 23 24  1  0  0  0  0
 23 25  1  0  0  0  0
 20 21  1  0  0  0  0
 20 22  1  0  0  0  0
 20 23  1  0  0  0  0
 17 18  1  0  0  0  0
 17 19  1  0  0  0  0
 17 20  1  0  0  0  0
 14 15  1  0  0  0  0
 14 16  1  0  0  0  0
 14 17  1  0  0  0  0
 11 12  1  0  0  0  0
 11 13  1  0  0  0  0
 11 14  1  0  0  0  0
  9 10  1  0  0  0  0
  9 11  1  0  0  0  0
  9 26  1  0  0  0  0
  7  8  1  0  0  0  0
  7  9  1  0  0  0  0
 30 31  1  0  0  0  0
 30 32  1  0  0  0  0
 30 33  1  0  0  0  0
 28 29  1  0  0  0  0
 28 30  1  0  0  0  0
M  END
$$$$
default_name
  -OEChem-01062215323D

 33 32  0     1  0  0  0  0  0999 V2000
   -3.8420   -3.6918    1.5562 H   0  0  0  0  0  0  0  0  0  0  0  0
   -3.8430   -2.7008    1.1032 C   0  0  0  0  0  0  0  0  0  0  0  0
   -4.5510   -2.0608    1.6242 H   0  0  0  0  0  0  0  0  0  0  0  0
   -4.1140   -2.7798    0.0522 H   0  0  0  0  0  0  0  0  0  0  0  0
   -2.4570   -2.1098    1.2172 C   0  0  0  0  0  0  0  0  0  0  0  0
   -1.5600   -2.7438    1.7572 O   0  0  0  0  0  0  0  0  0  0  0  0
   -2.2870   -0.8898    0.7102 N   0  0  0  0  0  0  0  0  0  0  0  0
   -3.0820   -0.4218    0.2992 H   0  0  0  0  0  0  0  0  0  0  0  0
   -1.0240   -0.1468    0.7262 C   0  0  1  0  0  0  0  0  0  0  0  0
   -0.2170   -0.8287    0.4548 H   0  0  0  0  0  0  0  0  0  0  0  0
   -1.0968    0.9755   -0.3274 C   0  0  0  0  0  0  0  0  0  0  0  0
   -2.0072    1.5536   -0.1564 H   0  0  0  0  0  0  0  0  0  0  0  0
   -0.2420    1.6417   -0.2029 H   0  0  0  0  0  0  0  0  0  0  0  0
   -1.1251    0.4525   -1.7720 C   0  0  0  0  0  0  0  0  0  0  0  0
   -0.2306   -0.1406   -1.9642 H   0  0  0  0  0  0  0  0  0  0  0  0
   -2.0069   -0.1761   -1.9090 H   0  0  0  0  0  0  0  0  0  0  0  0
   -1.1725    1.6123   -2.7732 C   0  0  0  0  0  0  0  0  0  0  0  0
   -2.0588    2.2200   -2.5884 H   0  0  0  0  0  0  0  0  0  0  0  0
   -0.2815    2.2299   -2.6565 H   0  0  0  0  0  0  0  0  0  0  0  0
   -1.2250    1.0651   -4.1983 C   0  0  0  0  0  0  0  0  0  0  0  0
   -0.3318    0.4731   -4.3914 H   0  0  0  0  0  0  0  0  0  0  0  0
   -2.1047    0.4336   -4.3115 H   0  0  0  0  0  0  0  0  0  0  0  0
   -1.2950    2.1507   -5.1831 N   0  0  0  0  0  0  0  0  0  0  0  0
   -1.3142    1.7544   -6.1113 H   0  0  0  0  0  0  0  0  0  0  0  0
   -2.1387    2.6842   -5.0286 H   0  0  0  0  0  0  0  0  0  0  0  0
   -0.7461    0.3961    2.1376 C   0  0  0  0  0  0  0  0  0  0  0  0
   -1.5449    0.1848    3.0477 O   0  0  0  0  0  0  0  0  0  0  0  0
    0.3782    1.1005    2.3114 N   0  0  0  0  0  0  0  0  0  0  0  0
    0.9888    1.2173    1.5194 H   0  0  0  0  0  0  0  0  0  0  0  0
    0.7790    1.6968    3.5847 C   0  0  0  0  0  0  0  0  0  0  0  0
    0.8048    0.9282    4.3603 H   0  0  0  0  0  0  0  0  0  0  0  0
    1.7663    2.1524    3.4964 H   0  0  0  0  0  0  0  0  0  0  0  0
    0.0541    2.4592    3.8773 H   0  0  0  0  0  0  0  0  0  0  0  0
  5  6  2  0  0  0  0
  5  7  1  0  0  0  0
  2  3  1  0  0  0  0
  2  4  1  0  0  0  0
  2  5  1  0  0  0  0
  1  2  1  0  0  0  0
 26 27  2  0  0  0  0
 26 28  1  0  0  0  0
 23 24  1  0  0  0  0
 23 25  1  0  0  0  0
 20 21  1  0  0  0  0
 20 22  1  0  0  0  0
 20 23  1  0  0  0  0
 17 18  1  0  0  0  0
 17 19  1  0  0  0  0
 17 20  1  0  0  0  0
 14 15  1  0  0  0  0
 14 16  1  0  0  0  0
 14 17  1  0  0  0  0
 11 12  1  0  0  0  0
 11 13  1  0  0  0  0
 11 14  1  0  0  0  0
  9 10  1  0  0  0  0
  9 11  1  0  0  0  0
  9 26  1  0  0  0  0
  7  8  1  0  0  0  0
  7  9  1  0  0  0  0
 30 31  1  0  0  0  0
 30 32  1  0  0  0  0
 30 33  1  0  0  0  0
 28 29  1  0  0  0  0
 28 30  1  0  0  0  0
M  END
$$$$
default_name
  -OEChem-01062215323D

 33 32  0     1  0  0  0  0  0999 V2000
   -3.8420   -3.6918    1.5562 H   0  0  0  0  0  0  0  0  0  0  0  0
   -3.8430   -2.7008    1.1032 C   0  0  0  0  0  0  0  0  0  0  0  0
   -4.5510   -2.0608    1.6242 H   0  0  0  0  0  0  0  0  0  0  0  0
   -4.1140   -2.7798    0.0522 H   0  0  0  0  0  0  0  0  0  0  0  0
   -2.4570   -2.1098    1.2172 C   0  0  0  0  0  0  0  0  0  0  0  0
   -1.5600   -2.7438    1.7572 O   0  0  0  0  0  0  0  0  0  0  0  0
   -2.2870   -0.8898    0.7102 N   0  0  0  0  0  0  0  0  0  0  0  0
   -3.0820   -0.4218    0.2992 H   0  0  0  0  0  0  0  0  0  0  0  0
   -1.0240   -0.1468    0.7262 C   0  0  1  0  0  0  0  0  0  0  0  0
   -0.2170   -0.8287    0.4548 H   0  0  0  0  0  0  0  0  0  0  0  0
   -1.0968    0.9755   -0.3274 C   0  0  0  0  0  0  0  0  0  0  0  0
   -2.0072    1.5536   -0.1564 H   0  0  0  0  0  0  0  0  0  0  0  0
   -0.2420    1.6417   -0.2029 H   0  0  0  0  0  0  0  0  0  0  0  0
   -1.1251    0.4525   -1.7720 C   0  0  0  0  0  0  0  0  0  0  0  0
   -0.2306   -0.1406   -1.9642 H   0  0  0  0  0  0  0  0  0  0  0  0
   -2.0069   -0.1761   -1.9090 H   0  0  0  0  0  0  0  0  0  0  0  0
   -1.1725    1.6123   -2.7732 C   0  0  0  0  0  0  0  0  0  0  0  0
   -2.0588    2.2200   -2.5884 H   0  0  0  0  0  0  0  0  0  0  0  0
   -0.2815    2.2299   -2.6565 H   0  0  0  0  0  0  0  0  0  0  0  0
   -1.2250    1.0651   -4.1983 C   0  0  0  0  0  0  0  0  0  0  0  0
   -0.3318    0.4731   -4.3914 H   0  0  0  0  0  0  0  0  0  0  0  0
   -2.1047    0.4336   -4.3115 H   0  0  0  0  0  0  0  0  0  0  0  0
   -1.2950    2.1507   -5.1831 N   0  0  0  0  0  0  0  0  0  0  0  0
   -1.3142    1.7544   -6.1113 H   0  0  0  0  0  0  0  0  0  0  0  0
   -2.1387    2.6842   -5.0286 H   0  0  0  0  0  0  0  0  0  0  0  0
   -0.7461    0.3961    2.1376 C   0  0  0  0  0  0  0  0  0  0  0  0
   -1.3806   -0.0329    3.0991 O   0  0  0  0  0  0  0  0  0  0  0  0
    0.1922    1.3428    2.2548 N   0  0  0  0  0  0  0  0  0  0  0  0
    0.6782    1.6309    1.4215 H   0  0  0  0  0  0  0  0  0  0  0  0
    0.5629    1.9720    3.5214 C   0  0  0  0  0  0  0  0  0  0  0  0
    0.8440    1.2048    4.2462 H   0  0  0  0  0  0  0  0  0  0  0  0
    1.4019    2.6539    3.3753 H   0  0  0  0  0  0  0  0  0  0  0  0
   -0.2892    2.5274    3.9187 H   0  0  0  0  0  0  0  0  0  0  0  0
  5  6  2  0  0  0  0
  5  7  1  0  0  0  0
  2  3  1  0  0  0  0
  2  4  1  0  0  0  0
  2  5  1  0  0  0  0
  1  2  1  0  0  0  0
 26 27  2  0  0  0  0
 26 28  1  0  0  0  0
 23 24  1  0  0  0  0
 23 25  1  0  0  0  0
 20 21  1  0  0  0  0
 20 22  1  0  0  0  0
 20 23  1  0  0  0  0
 17 18  1  0  0  0  0
 17 19  1  0  0  0  0
 17 20  1  0  0  0  0
 14 15  1  0  0  0  0
 14 16  1  0  0  0  0
 14 17  1  0  0  0  0
 11 12  1  0  0  0  0
 11 13  1  0  0  0  0
 11 14  1  0  0  0  0
  9 10  1  0  0  0  0
  9 11  1  0  0  0  0
  9 26  1  0  0  0  0
  7  8  1  0  0  0  0
  7  9  1  0  0  0  0
 30 31  1  0  0  0  0
 30 32  1  0  0  0  0
 30 33  1  0  0  0  0
 28 29  1  0  0  0  0
 28 30  1  0  0  0  0
M  END
$$$$
default_name
  -OEChem-01062215323D

 33 32  0     1  0  0  0  0  0999 V2000
   -3.8420   -3.6918    1.5562 H   0  0  0  0  0  0  0  0  0  0  0  0
   -3.8430   -2.7008    1.1032 C   0  0  0  0  0  0  0  0  0  0  0  0
   -4.5510   -2.0608    1.6242 H   0  0  0  0  0  0  0  0  0  0  0  0
   -4.1140   -2.7798    0.0522 H   0  0  0  0  0  0  0  0  0  0  0  0
   -2.4570   -2.1098    1.2172 C   0  0  0  0  0  0  0  0  0  0  0  0
   -1.5600   -2.7438    1.7572 O   0  0  0  0  0  0  0  0  0  0  0  0
   -2.2870   -0.8898    0.7102 N   0  0  0  0  0  0  0  0  0  0  0  0
   -3.0820   -0.4218    0.2992 H   0  0  0  0  0  0  0  0  0  0  0  0
   -1.0240   -0.1468    0.7262 C   0  0  1  0  0  0  0  0  0  0  0  0
   -0.2170   -0.8287    0.4548 H   0  0  0  0  0  0  0  0  0  0  0  0
   -1.0968    0.9755   -0.3274 C   0  0  0  0  0  0  0  0  0  0  0  0
   -2.0072    1.5536   -0.1564 H   0  0  0  0  0  0  0  0  0  0  0  0
   -0.2420    1.6417   -0.2029 H   0  0  0  0  0  0  0  0  0  0  0  0
   -1.1251    0.4525   -1.7720 C   0  0  0  0  0  0  0  0  0  0  0  0
   -0.2306   -0.1406   -1.9642 H   0  0  0  0  0  0  0  0  0  0  0  0
   -2.0069   -0.1761   -1.9090 H   0  0  0  0  0  0  0  0  0  0  0  0
   -1.1725    1.6123   -2.7732 C   0  0  0  0  0  0  0  0  0  0  0  0
   -2.0588    2.2200   -2.5884 H   0  0  0  0  0  0  0  0  0  0  0  0
   -0.2815    2.2299   -2.6565 H   0  0  0  0  0  0  0  0  0  0  0  0
   -1.2250    1.0651   -4.1983 C   0  0  0  0  0  0  0  0  0  0  0  0
   -0.3318    0.4731   -4.3914 H   0  0  0  0  0  0  0  0  0  0  0  0
   -2.1047    0.4336   -4.3115 H   0  0  0  0  0  0  0  0  0  0  0  0
   -1.2950    2.1507   -5.1831 N   0  0  0  0  0  0  0  0  0  0  0  0
   -1.3142    1.7544   -6.1113 H   0  0  0  0  0  0  0  0  0  0  0  0
   -2.1387    2.6842   -5.0286 H   0  0  0  0  0  0  0  0  0  0  0  0
   -0.7461    0.3961    2.1376 C   0  0  0  0  0  0  0  0  0  0  0  0
   -1.1654   -0.2066    3.1235 O   0  0  0  0  0  0  0  0  0  0  0  0
   -0.0503    1.5354    2.2285 N   0  0  0  0  0  0  0  0  0  0  0  0
    0.2711    1.9612    1.3746 H   0  0  0  0  0  0  0  0  0  0  0  0
    0.2831    2.1894    3.4929 C   0  0  0  0  0  0  0  0  0  0  0  0
    0.8058    1.4866    4.1453 H   0  0  0  0  0  0  0  0  0  0  0  0
    0.9196    3.0574    3.3151 H   0  0  0  0  0  0  0  0  0  0  0  0
   -0.6332    2.5097    3.9932 H   0  0  0  0  0  0  0  0  0  0  0  0
  5  6  2  0  0  0  0
  5  7  1  0  0  0  0
  2  3  1  0  0  0  0
  2  4  1  0  0  0  0
  2  5  1  0  0  0  0
  1  2  1  0  0  0  0
 26 27  2  0  0  0  0
 26 28  1  0  0  0  0
 23 24  1  0  0  0  0
 23 25  1  0  0  0  0
 20 21  1  0  0  0  0
 20 22  1  0  0  0  0
 20 23  1  0  0  0  0
 17 18  1  0  0  0  0
 17 19  1  0  0  0  0
 17 20  1  0  0  0  0
 14 15  1  0  0  0  0
 14 16  1  0  0  0  0
 14 17  1  0  0  0  0
 11 12  1  0  0  0  0
 11 13  1  0  0  0  0
 11 14  1  0  0  0  0
  9 10  1  0  0  0  0
  9 11  1  0  0  0  0
  9 26  1  0  0  0  0
  7  8  1  0  0  0  0
  7  9  1  0  0  0  0
 30 31  1  0  0  0  0
 30 32  1  0  0  0  0
 30 33  1  0  0  0  0
 28 29  1  0  0  0  0
 28 30  1  0  0  0  0
M  END
$$$$
default_name
  -OEChem-01062215323D

 33 32  0     1  0  0  0  0  0999 V2000
   -3.8420   -3.6918    1.5562 H   0  0  0  0  0  0  0  0  0  0  0  0
   -3.8430   -2.7008    1.1032 C   0  0  0  0  0  0  0  0  0  0  0  0
   -4.5510   -2.0608    1.6242 H   0  0  0  0  0  0  0  0  0  0  0  0
   -4.1140   -2.7798    0.0522 H   0  0  0  0  0  0  0  0  0  0  0  0
   -2.4570   -2.1098    1.2172 C   0  0  0  0  0  0  0  0  0  0  0  0
   -1.5600   -2.7438    1.7572 O   0  0  0  0  0  0  0  0  0  0  0  0
   -2.2870   -0.8898    0.7102 N   0  0  0  0  0  0  0  0  0  0  0  0
   -3.0820   -0.4218    0.2992 H   0  0  0  0  0  0  0  0  0  0  0  0
   -1.0240   -0.1468    0.7262 C   0  0  1  0  0  0  0  0  0  0  0  0
   -0.2170   -0.8287    0.4548 H   0  0  0  0  0  0  0  0  0  0  0  0
   -1.0968    0.9755   -0.3274 C   0  0  0  0  0  0  0  0  0  0  0  0
   -2.0072    1.5536   -0.1564 H   0  0  0  0  0  0  0  0  0  0  0  0
   -0.2420    1.6417   -0.2029 H   0  0  0  0  0  0  0  0  0  0  0  0
   -1.1251    0.4525   -1.7720 C   0  0  0  0  0  0  0  0  0  0  0  0
   -0.2306   -0.1406   -1.9642 H   0  0  0  0  0  0  0  0  0  0  0  0
   -2.0069   -0.1761   -1.9090 H   0  0  0  0  0  0  0  0  0  0  0  0
   -1.1725    1.6123   -2.7732 C   0  0  0  0  0  0  0  0  0  0  0  0
   -2.0588    2.2200   -2.5884 H   0  0  0  0  0  0  0  0  0  0  0  0
   -0.2815    2.2299   -2.6565 H   0  0  0  0  0  0  0  0  0  0  0  0
   -1.2250    1.0651   -4.1983 C   0  0  0  0  0  0  0  0  0  0  0  0
   -0.3318    0.4731   -4.3914 H   0  0  0  0  0  0  0  0  0  0  0  0
   -2.1047    0.4336   -4.3115 H   0  0  0  0  0  0  0  0  0  0  0  0
   -1.2950    2.1507   -5.1831 N   0  0  0  0  0  0  0  0  0  0  0  0
   -1.3142    1.7544   -6.1113 H   0  0  0  0  0  0  0  0  0  0  0  0
   -2.1387    2.6842   -5.0286 H   0  0  0  0  0  0  0  0  0  0  0  0
   -0.7461    0.3961    2.1376 C   0  0  0  0  0  0  0  0  0  0  0  0
   -0.9140   -0.3244    3.1193 O   0  0  0  0  0  0  0  0  0  0  0  0
   -0.3326    1.6650    2.2342 N   0  0  0  0  0  0  0  0  0  0  0  0
   -0.2049    2.1856    1.3820 H   0  0  0  0  0  0  0  0  0  0  0  0
   -0.0416    2.3343    3.5011 C   0  0  0  0  0  0  0  0  0  0  0  0
    0.6928    1.7544    4.0646 H   0  0  0  0  0  0  0  0  0  0  0  0
    0.3525    3.3353    3.3199 H   0  0  0  0  0  0  0  0  0  0  0  0
   -0.9544    2.4075    4.0958 H   0  0  0  0  0  0  0  0  0  0  0  0
  5  6  2  0  0  0  0
  5  7  1  0  0  0  0
  2  3  1  0  0  0  0
  2  4  1  0  0  0  0
  2  5  1  0  0  0  0
  1  2  1  0  0  0  0
 26 27  2  0  0  0  0
 26 28  1  0  0  0  0
 23 24  1  0  0  0  0
 23 25  1  0  0  0  0
 20 21  1  0  0  0  0
 20 22  1  0  0  0  0
 20 23  1  0  0  0  0
 17 18  1  0  0  0  0
 17 19  1  0  0  0  0
 17 20  1  0  0  0  0
 14 15  1  0  0  0  0
 14 16  1  0  0  0  0
 14 17  1  0  0  0  0
 11 12  1  0  0  0  0
 11 13  1  0  0  0  0
 11 14  1  0  0  0  0
  9 10  1  0  0  0  0
  9 11  1  0  0  0  0
  9 26  1  0  0  0  0
  7  8  1  0  0  0  0
  7  9  1  0  0  0  0
 30 31  1  0  0  0  0
 30 32  1  0  0  0  0
 30 33  1  0  0  0  0
 28 29  1  0  0  0  0
 28 30  1  0  0  0  0
M  END
$$$$
default_name
  -OEChem-01062215323D

 33 32  0     1  0  0  0  0  0999 V2000
   -3.8420   -3.6918    1.5562 H   0  0  0  0  0  0  0  0  0  0  0  0
   -3.8430   -2.7008    1.1032 C   0  0  0  0  0  0  0  0  0  0  0  0
   -4.5510   -2.0608    1.6242 H   0  0  0  0  0  0  0  0  0  0  0  0
   -4.1140   -2.7798    0.0522 H   0  0  0  0  0  0  0  0  0  0  0  0
   -2.4570   -2.1098    1.2172 C   0  0  0  0  0  0  0  0  0  0  0  0
   -1.5600   -2.7438    1.7572 O   0  0  0  0  0  0  0  0  0  0  0  0
   -2.2870   -0.8898    0.7102 N   0  0  0  0  0  0  0  0  0  0  0  0
   -3.0820   -0.4218    0.2992 H   0  0  0  0  0  0  0  0  0  0  0  0
   -1.0240   -0.1468    0.7262 C   0  0  1  0  0  0  0  0  0  0  0  0
   -0.2170   -0.8287    0.4548 H   0  0  0  0  0  0  0  0  0  0  0  0
   -1.0968    0.9755   -0.3274 C   0  0  0  0  0  0  0  0  0  0  0  0
   -2.0072    1.5536   -0.1564 H   0  0  0  0  0  0  0  0  0  0  0  0
   -0.2420    1.6417   -0.2029 H   0  0  0  0  0  0  0  0  0  0  0  0
   -1.1251    0.4525   -1.7720 C   0  0  0  0  0  0  0  0  0  0  0  0
   -0.2306   -0.1406   -1.9642 H   0  0  0  0  0  0  0  0  0  0  0  0
   -2.0069   -0.1761   -1.9090 H   0  0  0  0  0  0  0  0  0  0  0  0
   -1.1725    1.6123   -2.7732 C   0  0  0  0  0  0  0  0  0  0  0  0
   -2.0588    2.2200   -2.5884 H   0  0  0  0  0  0  0  0  0  0  0  0
   -0.2815    2.2299   -2.6565 H   0  0  0  0  0  0  0  0  0  0  0  0
   -1.2250    1.0651   -4.1983 C   0  0  0  0  0  0  0  0  0  0  0  0
   -0.3318    0.4731   -4.3914 H   0  0  0  0  0  0  0  0  0  0  0  0
   -2.1047    0.4336   -4.3115 H   0  0  0  0  0  0  0  0  0  0  0  0
   -1.2950    2.1507   -5.1831 N   0  0  0  0  0  0  0  0  0  0  0  0
   -1.3142    1.7544   -6.1113 H   0  0  0  0  0  0  0  0  0  0  0  0
   -2.1387    2.6842   -5.0286 H   0  0  0  0  0  0  0  0  0  0  0  0
   -0.7461    0.3961    2.1376 C   0  0  0  0  0  0  0  0  0  0  0  0
   -0.6436   -0.3782    3.0868 O   0  0  0  0  0  0  0  0  0  0  0  0
   -0.6356    1.7228    2.2716 N   0  0  0  0  0  0  0  0  0  0  0  0
   -0.7174    2.2890    1.4431 H   0  0  0  0  0  0  0  0  0  0  0  0
   -0.3888    2.3967    3.5455 C   0  0  0  0  0  0  0  0  0  0  0  0
    0.5125    1.9901    4.0095 H   0  0  0  0  0  0  0  0  0  0  0  0
   -0.2610    3.4688    3.3893 H   0  0  0  0  0  0  0  0  0  0  0  0
   -1.2311    2.2276    4.2195 H   0  0  0  0  0  0  0  0  0  0  0  0
  5  6  2  0  0  0  0
  5  7  1  0  0  0  0
  2  3  1  0  0  0  0
  2  4  1  0  0  0  0
  2  5  1  0  0  0  0
  1  2  1  0  0  0  0
 26 27  2  0  0  0  0
 26 28  1  0  0  0  0
 23 24  1  0  0  0  0
 23 25  1  0  0  0  0
 20 21  1  0  0  0  0
 20 22  1  0  0  0  0
 20 23  1  0  0  0  0
 17 18  1  0  0  0  0
 17 19  1  0  0  0  0
 17 20  1  0  0  0  0
 14 15  1  0  0  0  0
 14 16  1  0  0  0  0
 14 17  1  0  0  0  0
 11 12  1  0  0  0  0
 11 13  1  0  0  0  0
 11 14  1  0  0  0  0
  9 10  1  0  0  0  0
  9 11  1  0  0  0  0
  9 26  1  0  0  0  0
  7  8  1  0  0  0  0
  7  9  1  0  0  0  0
 30 31  1  0  0  0  0
 30 32  1  0  0  0  0
 30 33  1  0  0  0  0
 28 29  1  0  0  0  0
 28 30  1  0  0  0  0
M  END
$$$$
default_name
  -OEChem-01062215323D

 33 32  0     1  0  0  0  0  0999 V2000
   -3.8420   -3.6918    1.5562 H   0  0  0  0  0  0  0  0  0  0  0  0
   -3.8430   -2.7008    1.1032 C   0  0  0  0  0  0  0  0  0  0  0  0
   -4.5510   -2.0608    1.6242 H   0  0  0  0  0  0  0  0  0  0  0  0
   -4.1140   -2.7798    0.0522 H   0  0  0  0  0  0  0  0  0  0  0  0
   -2.4570   -2.1098    1.2172 C   0  0  0  0  0  0  0  0  0  0  0  0
   -1.5600   -2.7438    1.7572 O   0  0  0  0  0  0  0  0  0  0  0  0
   -2.2870   -0.8898    0.7102 N   0  0  0  0  0  0  0  0  0  0  0  0
   -3.0820   -0.4218    0.2992 H   0  0  0  0  0  0  0  0  0  0  0  0
   -1.0240   -0.1468    0.7262 C   0  0  1  0  0  0  0  0  0  0  0  0
   -0.2170   -0.8287    0.4548 H   0  0  0  0  0  0  0  0  0  0  0  0
   -1.0968    0.9755   -0.3274 C   0  0  0  0  0  0  0  0  0  0  0  0
   -2.0072    1.5536   -0.1564 H   0  0  0  0  0  0  0  0  0  0  0  0
   -0.2420    1.6417   -0.2029 H   0  0  0  0  0  0  0  0  0  0  0  0
   -1.1251    0.4525   -1.7720 C   0  0  0  0  0  0  0  0  0  0  0  0
   -0.2306   -0.1406   -1.9642 H   0  0  0  0  0  0  0  0  0  0  0  0
   -2.0069   -0.1761   -1.9090 H   0  0  0  0  0  0  0  0  0  0  0  0
   -1.1725    1.6123   -2.7732 C   0  0  0  0  0  0  0  0  0  0  0  0
   -2.0588    2.2200   -2.5884 H   0  0  0  0  0  0  0  0  0  0  0  0
   -0.2815    2.2299   -2.6565 H   0  0  0  0  0  0  0  0  0  0  0  0
   -1.2250    1.0651   -4.1983 C   0  0  0  0  0  0  0  0  0  0  0  0
   -0.3318    0.4731   -4.3914 H   0  0  0  0  0  0  0  0  0  0  0  0
   -2.1047    0.4336   -4.3115 H   0  0  0  0  0  0  0  0  0  0  0  0
   -1.2950    2.1507   -5.1831 N   0  0  0  0  0  0  0  0  0  0  0  0
   -1.3142    1.7544   -6.1113 H   0  0  0  0  0  0  0  0  0  0  0  0
   -2.1387    2.6842   -5.0286 H   0  0  0  0  0  0  0  0  0  0  0  0
   -0.7461    0.3961    2.1376 C   0  0  0  0  0  0  0  0  0  0  0  0
   -0.3726   -0.3644    3.0282 O   0  0  0  0  0  0  0  0  0  0  0  0
   -0.9386    1.7050    2.3381 N   0  0  0  0  0  0  0  0  0  0  0  0
   -1.2313    2.2643    1.5538 H   0  0  0  0  0  0  0  0  0  0  0  0
   -0.7349    2.3724    3.6229 C   0  0  0  0  0  0  0  0  0  0  0  0
    0.2774    2.1774    3.9837 H   0  0  0  0  0  0  0  0  0  0  0  0
   -0.8789    3.4488    3.5187 H   0  0  0  0  0  0  0  0  0  0  0  0
   -1.4443    1.9823    4.3558 H   0  0  0  0  0  0  0  0  0  0  0  0
  5  6  2  0  0  0  0
  5  7  1  0  0  0  0
  2  3  1  0  0  0  0
  2  4  1  0  0  0  0
  2  5  1  0  0  0  0
  1  2  1  0  0  0  0
 26 27  2  0  0  0  0
 26 28  1  0  0  0  0
 23 24  1  0  0  0  0
 23 25  1  0  0  0  0
 20 21  1  0  0  0  0
 20 22  1  0  0  0  0
 20 23  1  0  0  0  0
 17 18  1  0  0  0  0
 17 19  1  0  0  0  0
 17 20  1  0  0  0  0
 14 15  1  0  0  0  0
 14 16  1  0  0  0  0
 14 17  1  0  0  0  0
 11 12  1  0  0  0  0
 11 13  1  0  0  0  0
 11 14  1  0  0  0  0
  9 10  1  0  0  0  0
  9 11  1  0  0  0  0
  9 26  1  0  0  0  0
  7  8  1  0  0  0  0
  7  9  1  0  0  0  0
 30 31  1  0  0  0  0
 30 32  1  0  0  0  0
 30 33  1  0  0  0  0
 28 29  1  0  0  0  0
 28 30  1  0  0  0  0
M  END
$$$$
default_name
  -OEChem-01062215323D

 33 32  0     1  0  0  0  0  0999 V2000
   -3.8420   -3.6918    1.5562 H   0  0  0  0  0  0  0  0  0  0  0  0
   -3.8430   -2.7008    1.1032 C   0  0  0  0  0  0  0  0  0  0  0  0
   -4.5510   -2.0608    1.6242 H   0  0  0  0  0  0  0  0  0  0  0  0
   -4.1140   -2.7798    0.0522 H   0  0  0  0  0  0  0  0  0  0  0  0
   -2.4570   -2.1098    1.2172 C   0  0  0  0  0  0  0  0  0  0  0  0
   -1.5600   -2.7438    1.7572 O   0  0  0  0  0  0  0  0  0  0  0  0
   -2.2870   -0.8898    0.7102 N   0  0  0  0  0  0  0  0  0  0  0  0
   -3.0820   -0.4218    0.2992 H   0  0  0  0  0  0  0  0  0  0  0  0
   -1.0240   -0.1468    0.7262 C   0  0  1  0  0  0  0  0  0  0  0  0
   -0.2170   -0.8287    0.4548 H   0  0  0  0  0  0  0  0  0  0  0  0
   -1.0968    0.9755   -0.3274 C   0  0  0  0  0  0  0  0  0  0  0  0
   -2.0072    1.5536   -0.1564 H   0  0  0  0  0  0  0  0  0  0  0  0
   -0.2420    1.6417   -0.2029 H   0  0  0  0  0  0  0  0  0  0  0  0
   -1.1251    0.4525   -1.7720 C   0  0  0  0  0  0  0  0  0  0  0  0
   -0.2306   -0.1406   -1.9642 H   0  0  0  0  0  0  0  0  0  0  0  0
   -2.0069   -0.1761   -1.9090 H   0  0  0  0  0  0  0  0  0  0  0  0
   -1.1725    1.6123   -2.7732 C   0  0  0  0  0  0  0  0  0  0  0  0
   -2.0588    2.2200   -2.5884 H   0  0  0  0  0  0  0  0  0  0  0  0
   -0.2815    2.2299   -2.6565 H   0  0  0  0  0  0  0  0  0  0  0  0
   -1.2250    1.0651   -4.1983 C   0  0  0  0  0  0  0  0  0  0  0  0
   -0.3318    0.4731   -4.3914 H   0  0  0  0  0  0  0  0  0  0  0  0
   -2.1047    0.4336   -4.3115 H   0  0  0  0  0  0  0  0  0  0  0  0
   -1.2950    2.1507   -5.1831 N   0  0  0  0  0  0  0  0  0  0  0  0
   -1.3142    1.7544   -6.1113 H   0  0  0  0  0  0  0  0  0  0  0  0
   -2.1387    2.6842   -5.0286 H   0  0  0  0  0  0  0  0  0  0  0  0
   -0.7461    0.3961    2.1376 C   0  0  0  0  0  0  0  0  0  0  0  0
   -0.1195   -0.2840    2.9474 O   0  0  0  0  0  0  0  0  0  0  0  0
   -1.2209    1.6126    2.4292 N   0  0  0  0  0  0  0  0  0  0  0  0
   -1.7118    2.1131    1.7066 H   0  0  0  0  0  0  0  0  0  0  0  0
   -1.0564    2.2631    3.7283 C   0  0  0  0  0  0  0  0  0  0  0  0
    0.0034    2.3037    3.9890 H   0  0  0  0  0  0  0  0  0  0  0  0
   -1.4592    3.2765    3.6991 H   0  0  0  0  0  0  0  0  0  0  0  0
   -1.5795    1.6883    4.4954 H   0  0  0  0  0  0  0  0  0  0  0  0
  5  6  2  0  0  0  0
  5  7  1  0  0  0  0
  2  3  1  0  0  0  0
  2  4  1  0  0  0  0
  2  5  1  0  0  0  0
  1  2  1  0  0  0  0
 26 27  2  0  0  0  0
 26 28  1  0  0  0  0
 23 24  1  0  0  0  0
 23 25  1  0  0  0  0
 20 21  1  0  0  0  0
 20 22  1  0  0  0  0
 20 23  1  0  0  0  0
 17 18  1  0  0  0  0
 17 19  1  0  0  0  0
 17 20  1  0  0  0  0
 14 15  1  0  0  0  0
 14 16  1  0  0  0  0
 14 17  1  0  0  0  0
 11 12  1  0  0  0  0
 11 13  1  0  0  0  0
 11 14  1  0  0  0  0
  9 10  1  0  0  0  0
  9 11  1  0  0  0  0
  9 26  1  0  0  0  0
  7  8  1  0  0  0  0
  7  9  1  0  0  0  0
 30 31  1  0  0  0  0
 30 32  1  0  0  0  0
 30 33  1  0  0  0  0
 28 29  1  0  0  0  0
 28 30  1  0  0  0  0
M  END
$$$$
default_name
  -OEChem-01062215323D

 33 32  0     1  0  0  0  0  0999 V2000
   -3.8420   -3.6918    1.5562 H   0  0  0  0  0  0  0  0  0  0  0  0
   -3.8430   -2.7008    1.1032 C   0  0  0  0  0  0  0  0  0  0  0  0
   -4.5510   -2.0608    1.6242 H   0  0  0  0  0  0  0  0  0  0  0  0
   -4.1140   -2.7798    0.0522 H   0  0  0  0  0  0  0  0  0  0  0  0
   -2.4570   -2.1098    1.2172 C   0  0  0  0  0  0  0  0  0  0  0  0
   -1.5600   -2.7438    1.7572 O   0  0  0  0  0  0  0  0  0  0  0  0
   -2.2870   -0.8898    0.7102 N   0  0  0  0  0  0  0  0  0  0  0  0
   -3.0820   -0.4218    0.2992 H   0  0  0  0  0  0  0  0  0  0  0  0
   -1.0240   -0.1468    0.7262 C   0  0  1  0  0  0  0  0  0  0  0  0
   -0.2170   -0.8287    0.4548 H   0  0  0  0  0  0  0  0  0  0  0  0
   -1.0968    0.9755   -0.3274 C   0  0  0  0  0  0  0  0  0  0  0  0
   -2.0072    1.5536   -0.1564 H   0  0  0  0  0  0  0  0  0  0  0  0
   -0.2420    1.6417   -0.2029 H   0  0  0  0  0  0  0  0  0  0  0  0
   -1.1251    0.4525   -1.7720 C   0  0  0  0  0  0  0  0  0  0  0  0
   -0.2306   -0.1406   -1.9642 H   0  0  0  0  0  0  0  0  0  0  0  0
   -2.0069   -0.1761   -1.9090 H   0  0  0  0  0  0  0  0  0  0  0  0
   -1.1725    1.6123   -2.7732 C   0  0  0  0  0  0  0  0  0  0  0  0
   -2.0588    2.2200   -2.5884 H   0  0  0  0  0  0  0  0  0  0  0  0
   -0.2815    2.2299   -2.6565 H   0  0  0  0  0  0  0  0  0  0  0  0
   -1.2250    1.0651   -4.1983 C   0  0  0  0  0  0  0  0  0  0  0  0
   -0.3318    0.4731   -4.3914 H   0  0  0  0  0  0  0  0  0  0  0  0
   -2.1047    0.4336   -4.3115 H   0  0  0  0  0  0  0  0  0  0  0  0
   -1.2950    2.1507   -5.1831 N   0  0  0  0  0  0  0  0  0  0  0  0
   -1.3142    1.7544   -6.1113 H   0  0  0  0  0  0  0  0  0  0  0  0
   -2.1387    2.6842   -5.0286 H   0  0  0  0  0  0  0  0  0  0  0  0
   -0.7461    0.3961    2.1376 C   0  0  0  0  0  0  0  0  0  0  0  0
    0.0985   -0.1424    2.8500 O   0  0  0  0  0  0  0  0  0  0  0  0
   -1.4634    1.4521    2.5387 N   0  0  0  0  0  0  0  0  0  0  0  0
   -2.1260    1.8457    1.8909 H   0  0  0  0  0  0  0  0  0  0  0  0
   -1.3314    2.0761    3.8543 C   0  0  0  0  0  0  0  0  0  0  0  0
   -0.2908    2.3604    4.0252 H   0  0  0  0  0  0  0  0  0  0  0  0
   -1.9623    2.9639    3.9184 H   0  0  0  0  0  0  0  0  0  0  0  0
   -1.6275    1.3657    4.6289 H   0  0  0  0  0  0  0  0  0  0  0  0
  5  6  2  0  0  0  0
  5  7  1  0  0  0  0
  2  3  1  0  0  0  0
  2  4  1  0  0  0  0
  2  5  1  0  0  0  0
  1  2  1  0  0  0  0
 26 27  2  0  0  0  0
 26 28  1  0  0  0  0
 23 24  1  0  0  0  0
 23 25  1  0  0  0  0
 20 21  1  0  0  0  0
 20 22  1  0  0  0  0
 20 23  1  0  0  0  0
 17 18  1  0  0  0  0
 17 19  1  0  0  0  0
 17 20  1  0  0  0  0
 14 15  1  0  0  0  0
 14 16  1  0  0  0  0
 14 17  1  0  0  0  0
 11 12  1  0  0  0  0
 11 13  1  0  0  0  0
 11 14  1  0  0  0  0
  9 10  1  0  0  0  0
  9 11  1  0  0  0  0
  9 26  1  0  0  0  0
  7  8  1  0  0  0  0
  7  9  1  0  0  0  0
 30 31  1  0  0  0  0
 30 32  1  0  0  0  0
 30 33  1  0  0  0  0
 28 29  1  0  0  0  0
 28 30  1  0  0  0  0
M  END
$$$$
default_name
  -OEChem-01062215323D

 33 32  0     1  0  0  0  0  0999 V2000
   -3.8420   -3.6918    1.5562 H   0  0  0  0  0  0  0  0  0  0  0  0
   -3.8430   -2.7008    1.1032 C   0  0  0  0  0  0  0  0  0  0  0  0
   -4.5510   -2.0608    1.6242 H   0  0  0  0  0  0  0  0  0  0  0  0
   -4.1140   -2.7798    0.0522 H   0  0  0  0  0  0  0  0  0  0  0  0
   -2.4570   -2.1098    1.2172 C   0  0  0  0  0  0  0  0  0  0  0  0
   -1.5600   -2.7438    1.7572 O   0  0  0  0  0  0  0  0  0  0  0  0
   -2.2870   -0.8898    0.7102 N   0  0  0  0  0  0  0  0  0  0  0  0
   -3.0820   -0.4218    0.2992 H   0  0  0  0  0  0  0  0  0  0  0  0
   -1.0240   -0.1468    0.7262 C   0  0  1  0  0  0  0  0  0  0  0  0
   -0.2170   -0.8287    0.4548 H   0  0  0  0  0  0  0  0  0  0  0  0
   -1.0968    0.9755   -0.3274 C   0  0  0  0  0  0  0  0  0  0  0  0
   -2.0072    1.5536   -0.1564 H   0  0  0  0  0  0  0  0  0  0  0  0
   -0.2420    1.6417   -0.2029 H   0  0  0  0  0  0  0  0  0  0  0  0
   -1.1251    0.4525   -1.7720 C   0  0  0  0  0  0  0  0  0  0  0  0
   -0.2306   -0.1406   -1.9642 H   0  0  0  0  0  0  0  0  0  0  0  0
   -2.0069   -0.1761   -1.9090 H   0  0  0  0  0  0  0  0  0  0  0  0
   -1.1725    1.6123   -2.7732 C   0  0  0  0  0  0  0  0  0  0  0  0
   -2.0588    2.2200   -2.5884 H   0  0  0  0  0  0  0  0  0  0  0  0
   -0.2815    2.2299   -2.6565 H   0  0  0  0  0  0  0  0  0  0  0  0
   -1.2250    1.0651   -4.1983 C   0  0  0  0  0  0  0  0  0  0  0  0
   -0.3318    0.4731   -4.3914 H   0  0  0  0  0  0  0  0  0  0  0  0
   -2.1047    0.4336   -4.3115 H   0  0  0  0  0  0  0  0  0  0  0  0
   -1.2950    2.1507   -5.1831 N   0  0  0  0  0  0  0  0  0  0  0  0
   -1.3142    1.7544   -6.1113 H   0  0  0  0  0  0  0  0  0  0  0  0
   -2.1387    2.6842   -5.0286 H   0  0  0  0  0  0  0  0  0  0  0  0
   -0.7461    0.3961    2.1376 C   0  0  0  0  0  0  0  0  0  0  0  0
    0.2666    0.0507    2.7427 O   0  0  0  0  0  0  0  0  0  0  0  0
   -1.6494    1.2343    2.6591 N   0  0  0  0  0  0  0  0  0  0  0  0
   -2.4458    1.4805    2.0944 H   0  0  0  0  0  0  0  0  0  0  0  0
   -1.5411    1.8244    3.9924 C   0  0  0  0  0  0  0  0  0  0  0  0
   -0.5851    2.3436    4.0896 H   0  0  0  0  0  0  0  0  0  0  0  0
   -2.3539    2.5320    4.1616 H   0  0  0  0  0  0  0  0  0  0  0  0
   -1.5849    1.0365    4.7472 H   0  0  0  0  0  0  0  0  0  0  0  0
  5  6  2  0  0  0  0
  5  7  1  0  0  0  0
  2  3  1  0  0  0  0
  2  4  1  0  0  0  0
  2  5  1  0  0  0  0
  1  2  1  0  0  0  0
 26 27  2  0  0  0  0
 26 28  1  0  0  0  0
 23 24  1  0  0  0  0
 23 25  1  0  0  0  0
 20 21  1  0  0  0  0
 20 22  1  0  0  0  0
 20 23  1  0  0  0  0
 17 18  1  0  0  0  0
 17 19  1  0  0  0  0
 17 20  1  0  0  0  0
 14 15  1  0  0  0  0
 14 16  1  0  0  0  0
 14 17  1  0  0  0  0
 11 12  1  0  0  0  0
 11 13  1  0  0  0  0
 11 14  1  0  0  0  0
  9 10  1  0  0  0  0
  9 11  1  0  0  0  0
  9 26  1  0  0  0  0
  7  8  1  0  0  0  0
  7  9  1  0  0  0  0
 30 31  1  0  0  0  0
 30 32  1  0  0  0  0
 30 33  1  0  0  0  0
 28 29  1  0  0  0  0
 28 30  1  0  0  0  0
M  END
$$$$
default_name
  -OEChem-01062215323D

 33 32  0     1  0  0  0  0  0999 V2000
   -3.8420   -3.6918    1.5562 H   0  0  0  0  0  0  0  0  0  0  0  0
   -3.8430   -2.7008    1.1032 C   0  0  0  0  0  0  0  0  0  0  0  0
   -4.5510   -2.0608    1.6242 H   0  0  0  0  0  0  0  0  0  0  0  0
   -4.1140   -2.7798    0.0522 H   0  0  0  0  0  0  0  0  0  0  0  0
   -2.4570   -2.1098    1.2172 C   0  0  0  0  0  0  0  0  0  0  0  0
   -1.5600   -2.7438    1.7572 O   0  0  0  0  0  0  0  0  0  0  0  0
   -2.2870   -0.8898    0.7102 N   0  0  0  0  0  0  0  0  0  0  0  0
   -3.0820   -0.4218    0.2992 H   0  0  0  0  0  0  0  0  0  0  0  0
   -1.0240   -0.1468    0.7262 C   0  0  1  0  0  0  0  0  0  0  0  0
   -0.2170   -0.8287    0.4548 H   0  0  0  0  0  0  0  0  0  0  0  0
   -1.0968    0.9755   -0.3274 C   0  0  0  0  0  0  0  0  0  0  0  0
   -2.0072    1.5536   -0.1564 H   0  0  0  0  0  0  0  0  0  0  0  0
   -0.2420    1.6417   -0.2029 H   0  0  0  0  0  0  0  0  0  0  0  0
   -1.1251    0.4525   -1.7720 C   0  0  0  0  0  0  0  0  0  0  0  0
   -0.2306   -0.1406   -1.9642 H   0  0  0  0  0  0  0  0  0  0  0  0
   -2.0069   -0.1761   -1.9090 H   0  0  0  0  0  0  0  0  0  0  0  0
   -1.1725    1.6123   -2.7732 C   0  0  0  0  0  0  0  0  0  0  0  0
   -2.0588    2.2200   -2.5884 H   0  0  0  0  0  0  0  0  0  0  0  0
   -0.2815    2.2299   -2.6565 H   0  0  0  0  0  0  0  0  0  0  0  0
   -1.2250    1.0651   -4.1983 C   0  0  0  0  0  0  0  0  0  0  0  0
   -0.3318    0.4731   -4.3914 H   0  0  0  0  0  0  0  0  0  0  0  0
   -2.1047    0.4336   -4.3115 H   0  0  0  0  0  0  0  0  0  0  0  0
   -1.2950    2.1507   -5.1831 N   0  0  0  0  0  0  0  0  0  0  0  0
   -1.3142    1.7544   -6.1113 H   0  0  0  0  0  0  0  0  0  0  0  0
   -2.1387    2.6842   -5.0286 H   0  0  0  0  0  0  0  0  0  0  0  0
   -0.7461    0.3961    2.1376 C   0  0  0  0  0  0  0  0  0  0  0  0
    0.3732    0.2822    2.6326 O   0  0  0  0  0  0  0  0  0  0  0  0
   -1.7664    0.9741    2.7822 N   0  0  0  0  0  0  0  0  0  0  0  0
   -2.6492    1.0422    2.3030 H   0  0  0  0  0  0  0  0  0  0  0  0
   -1.6711    1.5249    4.1332 C   0  0  0  0  0  0  0  0  0  0  0  0
   -0.8595    2.2543    4.1779 H   0  0  0  0  0  0  0  0  0  0  0  0
   -2.6074    2.0105    4.4121 H   0  0  0  0  0  0  0  0  0  0  0  0
   -1.4549    0.7230    4.8421 H   0  0  0  0  0  0  0  0  0  0  0  0
  5  6  2  0  0  0  0
  5  7  1  0  0  0  0
  2  3  1  0  0  0  0
  2  4  1  0  0  0  0
  2  5  1  0  0  0  0
  1  2  1  0  0  0  0
 26 27  2  0  0  0  0
 26 28  1  0  0  0  0
 23 24  1  0  0  0  0
 23 25  1  0  0  0  0
 20 21  1  0  0  0  0
 20 22  1  0  0  0  0
 20 23  1  0  0  0  0
 17 18  1  0  0  0  0
 17 19  1  0  0  0  0
 17 20  1  0  0  0  0
 14 15  1  0  0  0  0
 14 16  1  0  0  0  0
 14 17  1  0  0  0  0
 11 12  1  0  0  0  0
 11 13  1  0  0  0  0
 11 14  1  0  0  0  0
  9 10  1  0  0  0  0
  9 11  1  0  0  0  0
  9 26  1  0  0  0  0
  7  8  1  0  0  0  0
  7  9  1  0  0  0  0
 30 31  1  0  0  0  0
 30 32  1  0  0  0  0
 30 33  1  0  0  0  0
 28 29  1  0  0  0  0
 28 30  1  0  0  0  0
M  END
$$$$
default_name
  -OEChem-01062215323D

 33 32  0     1  0  0  0  0  0999 V2000
   -3.8420   -3.6918    1.5562 H   0  0  0  0  0  0  0  0  0  0  0  0
   -3.8430   -2.7008    1.1032 C   0  0  0  0  0  0  0  0  0  0  0  0
   -4.5510   -2.0608    1.6242 H   0  0  0  0  0  0  0  0  0  0  0  0
   -4.1140   -2.7798    0.0522 H   0  0  0  0  0  0  0  0  0  0  0  0
   -2.4570   -2.1098    1.2172 C   0  0  0  0  0  0  0  0  0  0  0  0
   -1.5600   -2.7438    1.7572 O   0  0  0  0  0  0  0  0  0  0  0  0
   -2.2870   -0.8898    0.7102 N   0  0  0  0  0  0  0  0  0  0  0  0
   -3.0820   -0.4218    0.2992 H   0  0  0  0  0  0  0  0  0  0  0  0
   -1.0240   -0.1468    0.7262 C   0  0  1  0  0  0  0  0  0  0  0  0
   -0.2170   -0.8287    0.4548 H   0  0  0  0  0  0  0  0  0  0  0  0
   -1.0968    0.9755   -0.3274 C   0  0  0  0  0  0  0  0  0  0  0  0
   -2.0072    1.5536   -0.1564 H   0  0  0  0  0  0  0  0  0  0  0  0
   -0.2420    1.6417   -0.2029 H   0  0  0  0  0  0  0  0  0  0  0  0
   -1.1251    0.4525   -1.7720 C   0  0  0  0  0  0  0  0  0  0  0  0
   -0.2306   -0.1406   -1.9642 H   0  0  0  0  0  0  0  0  0  0  0  0
   -2.0069   -0.1761   -1.9090 H   0  0  0  0  0  0  0  0  0  0  0  0
   -1.1725    1.6123   -2.7732 C   0  0  0  0  0  0  0  0  0  0  0  0
   -2.0588    2.2200   -2.5884 H   0  0  0  0  0  0  0  0  0  0  0  0
   -0.2815    2.2299   -2.6565 H   0  0  0  0  0  0  0  0  0  0  0  0
   -1.2250    1.0651   -4.1983 C   0  0  0  0  0  0  0  0  0  0  0  0
   -0.3318    0.4731   -4.3914 H   0  0  0  0  0  0  0  0  0  0  0  0
   -2.1047    0.4336   -4.3115 H   0  0  0  0  0  0  0  0  0  0  0  0
   -1.2950    2.1507   -5.1831 N   0  0  0  0  0  0  0  0  0  0  0  0
   -1.3142    1.7544   -6.1113 H   0  0  0  0  0  0  0  0  0  0  0  0
   -2.1387    2.6842   -5.0286 H   0  0  0  0  0  0  0  0  0  0  0  0
   -0.7461    0.3961    2.1376 C   0  0  0  0  0  0  0  0  0  0  0  0
    0.4112    0.5363    2.5274 O   0  0  0  0  0  0  0  0  0  0  0  0
   -1.8063    0.6892    2.8996 N   0  0  0  0  0  0  0  0  0  0  0  0
   -2.7225    0.5607    2.5026 H   0  0  0  0  0  0  0  0  0  0  0  0
   -1.7128    1.1981    4.2671 C   0  0  0  0  0  0  0  0  0  0  0  0
   -1.0952    2.0988    4.2841 H   0  0  0  0  0  0  0  0  0  0  0  0
   -2.7054    1.4348    4.6528 H   0  0  0  0  0  0  0  0  0  0  0  0
   -1.2460    0.4467    4.9073 H   0  0  0  0  0  0  0  0  0  0  0  0
  5  6  2  0  0  0  0
  5  7  1  0  0  0  0
  2  3  1  0  0  0  0
  2  4  1  0  0  0  0
  2  5  1  0  0  0  0
  1  2  1  0  0  0  0
 26 27  2  0  0  0  0
 26 28  1  0  0  0  0
 23 24  1  0  0  0  0
 23 25  1  0  0  0  0
 20 21  1  0  0  0  0
 20 22  1  0  0  0  0
 20 23  1  0  0  0  0
 17 18  1  0  0  0  0
 17 19  1  0  0  0  0
 17 20  1  0  0  0  0
 14 15  1  0  0  0  0
 14 16  1  0  0  0  0
 14 17  1  0  0  0  0
 11 12  1  0  0  0  0
 11 13  1  0  0  0  0
 11 14  1  0  0  0  0
  9 10  1  0  0  0  0
  9 11  1  0  0  0  0
  9 26  1  0  0  0  0
  7  8  1  0  0  0  0
  7  9  1  0  0  0  0
 30 31  1  0  0  0  0
 30 32  1  0  0  0  0
 30 33  1  0  0  0  0
 28 29  1  0  0  0  0
 28 30  1  0  0  0  0
M  END
$$$$
default_name
  -OEChem-01062215323D

 33 32  0     1  0  0  0  0  0999 V2000
   -3.8420   -3.6918    1.5562 H   0  0  0  0  0  0  0  0  0  0  0  0
   -3.8430   -2.7008    1.1032 C   0  0  0  0  0  0  0  0  0  0  0  0
   -4.5510   -2.0608    1.6242 H   0  0  0  0  0  0  0  0  0  0  0  0
   -4.1140   -2.7798    0.0522 H   0  0  0  0  0  0  0  0  0  0  0  0
   -2.4570   -2.1098    1.2172 C   0  0  0  0  0  0  0  0  0  0  0  0
   -1.5600   -2.7438    1.7572 O   0  0  0  0  0  0  0  0  0  0  0  0
   -2.2870   -0.8898    0.7102 N   0  0  0  0  0  0  0  0  0  0  0  0
   -3.0820   -0.4218    0.2992 H   0  0  0  0  0  0  0  0  0  0  0  0
   -1.0240   -0.1468    0.7262 C   0  0  1  0  0  0  0  0  0  0  0  0
   -0.2170   -0.8287    0.4548 H   0  0  0  0  0  0  0  0  0  0  0  0
   -1.0968    0.9755   -0.3274 C   0  0  0  0  0  0  0  0  0  0  0  0
   -2.0072    1.5536   -0.1564 H   0  0  0  0  0  0  0  0  0  0  0  0
   -0.2420    1.6417   -0.2029 H   0  0  0  0  0  0  0  0  0  0  0  0
   -1.1251    0.4525   -1.7720 C   0  0  0  0  0  0  0  0  0  0  0  0
   -0.2306   -0.1406   -1.9642 H   0  0  0  0  0  0  0  0  0  0  0  0
   -2.0069   -0.1761   -1.9090 H   0  0  0  0  0  0  0  0  0  0  0  0
   -1.1725    1.6123   -2.7732 C   0  0  0  0  0  0  0  0  0  0  0  0
   -2.0588    2.2200   -2.5884 H   0  0  0  0  0  0  0  0  0  0  0  0
   -0.2815    2.2299   -2.6565 H   0  0  0  0  0  0  0  0  0  0  0  0
   -1.2250    1.0651   -4.1983 C   0  0  0  0  0  0  0  0  0  0  0  0
   -0.3318    0.4731   -4.3914 H   0  0  0  0  0  0  0  0  0  0  0  0
   -2.1047    0.4336   -4.3115 H   0  0  0  0  0  0  0  0  0  0  0  0
   -1.2950    2.1507   -5.1831 N   0  0  0  0  0  0  0  0  0  0  0  0
   -1.3142    1.7544   -6.1113 H   0  0  0  0  0  0  0  0  0  0  0  0
   -2.1387    2.6842   -5.0286 H   0  0  0  0  0  0  0  0  0  0  0  0
   -0.7461    0.3961    2.1376 C   0  0  0  0  0  0  0  0  0  0  0  0
    0.3778    0.7957    2.4342 O   0  0  0  0  0  0  0  0  0  0  0  0
   -1.7664    0.3990    3.0033 N   0  0  0  0  0  0  0  0  0  0  0  0
   -2.6607    0.0689    2.6796 H   0  0  0  0  0  0  0  0  0  0  0  0
   -1.6631    0.8664    4.3849 C   0  0  0  0  0  0  0  0  0  0  0  0
   -1.2763    1.8877    4.4010 H   0  0  0  0  0  0  0  0  0  0  0  0
   -2.6413    0.8442    4.8673 H   0  0  0  0  0  0  0  0  0  0  0  0
   -0.9728    0.2264    4.9382 H   0  0  0  0  0  0  0  0  0  0  0  0
  5  6  2  0  0  0  0
  5  7  1  0  0  0  0
  2  3  1  0  0  0  0
  2  4  1  0  0  0  0
  2  5  1  0  0  0  0
  1  2  1  0  0  0  0
 26 27  2  0  0  0  0
 26 28  1  0  0  0  0
 23 24  1  0  0  0  0
 23 25  1  0  0  0  0
 20 21  1  0  0  0  0
 20 22  1  0  0  0  0
 20 23  1  0  0  0  0
 17 18  1  0  0  0  0
 17 19  1  0  0  0  0
 17 20  1  0  0  0  0
 14 15  1  0  0  0  0
 14 16  1  0  0  0  0
 14 17  1  0  0  0  0
 11 12  1  0  0  0  0
 11 13  1  0  0  0  0
 11 14  1  0  0  0  0
  9 10  1  0  0  0  0
  9 11  1  0  0  0  0
  9 26  1  0  0  0  0
  7  8  1  0  0  0  0
  7  9  1  0  0  0  0
 30 31  1  0  0  0  0
 30 32  1  0  0  0  0
 30 33  1  0  0  0  0
 28 29  1  0  0  0  0
 28 30  1  0  0  0  0
M  END
$$$$
default_name
  -OEChem-01062215323D

 33 32  0     1  0  0  0  0  0999 V2000
   -3.8420   -3.6918    1.5562 H   0  0  0  0  0  0  0  0  0  0  0  0
   -3.8430   -2.7008    1.1032 C   0  0  0  0  0  0  0  0  0  0  0  0
   -4.5510   -2.0608    1.6242 H   0  0  0  0  0  0  0  0  0  0  0  0
   -4.1140   -2.7798    0.0522 H   0  0  0  0  0  0  0  0  0  0  0  0
   -2.4570   -2.1098    1.2172 C   0  0  0  0  0  0  0  0  0  0  0  0
   -1.5600   -2.7438    1.7572 O   0  0  0  0  0  0  0  0  0  0  0  0
   -2.2870   -0.8898    0.7102 N   0  0  0  0  0  0  0  0  0  0  0  0
   -3.0820   -0.4218    0.2992 H   0  0  0  0  0  0  0  0  0  0  0  0
   -1.0240   -0.1468    0.7262 C   0  0  1  0  0  0  0  0  0  0  0  0
   -0.2170   -0.8287    0.4548 H   0  0  0  0  0  0  0  0  0  0  0  0
   -1.0968    0.9755   -0.3274 C   0  0  0  0  0  0  0  0  0  0  0  0
   -2.0072    1.5536   -0.1564 H   0  0  0  0  0  0  0  0  0  0  0  0
   -0.2420    1.6417   -0.2029 H   0  0  0  0  0  0  0  0  0  0  0  0
   -1.1251    0.4525   -1.7720 C   0  0  0  0  0  0  0  0  0  0  0  0
   -0.2306   -0.1406   -1.9642 H   0  0  0  0  0  0  0  0  0  0  0  0
   -2.0069   -0.1761   -1.9090 H   0  0  0  0  0  0  0  0  0  0  0  0
   -1.1725    1.6123   -2.7732 C   0  0  0  0  0  0  0  0  0  0  0  0
   -2.0588    2.2200   -2.5884 H   0  0  0  0  0  0  0  0  0  0  0  0
   -0.2815    2.2299   -2.6565 H   0  0  0  0  0  0  0  0  0  0  0  0
   -1.2250    1.0651   -4.1983 C   0  0  0  0  0  0  0  0  0  0  0  0
   -0.3318    0.4731   -4.3914 H   0  0  0  0  0  0  0  0  0  0  0  0
   -2.1047    0.4336   -4.3115 H   0  0  0  0  0  0  0  0  0  0  0  0
   -1.2950    2.1507   -5.1831 N   0  0  0  0  0  0  0  0  0  0  0  0
   -1.3142    1.7544   -6.1113 H   0  0  0  0  0  0  0  0  0  0  0  0
   -2.1387    2.6842   -5.0286 H   0  0  0  0  0  0  0  0  0  0  0  0
   -0.7461    0.3961    2.1376 C   0  0  0  0  0  0  0  0  0  0  0  0
    0.2755    1.0426    2.3594 O   0  0  0  0  0  0  0  0  0  0  0  0
   -1.6495    0.1234    3.0863 N   0  0  0  0  0  0  0  0  0  0  0  0
   -2.4680   -0.3998    2.8219 H   0  0  0  0  0  0  0  0  0  0  0  0
   -1.5256    0.5522    4.4786 C   0  0  0  0  0  0  0  0  0  0  0  0
   -1.3904    1.6352    4.5206 H   0  0  0  0  0  0  0  0  0  0  0  0
   -2.4195    0.2789    5.0411 H   0  0  0  0  0  0  0  0  0  0  0  0
   -0.6536    0.0770    4.9328 H   0  0  0  0  0  0  0  0  0  0  0  0
  5  6  2  0  0  0  0
  5  7  1  0  0  0  0
  2  3  1  0  0  0  0
  2  4  1  0  0  0  0
  2  5  1  0  0  0  0
  1  2  1  0  0  0  0
 26 27  2  0  0  0  0
 26 28  1  0  0  0  0
 23 24  1  0  0  0  0
 23 25  1  0  0  0  0
 20 21  1  0  0  0  0
 20 22  1  0  0  0  0
 20 23  1  0  0  0  0
 17 18  1  0  0  0  0
 17 19  1  0  0  0  0
 17 20  1  0  0  0  0
 14 15  1  0  0  0  0
 14 16  1  0  0  0  0
 14 17  1  0  0  0  0
 11 12  1  0  0  0  0
 11 13  1  0  0  0  0
 11 14  1  0  0  0  0
  9 10  1  0  0  0  0
  9 11  1  0  0  0  0
  9 26  1  0  0  0  0
  7  8  1  0  0  0  0
  7  9  1  0  0  0  0
 30 31  1  0  0  0  0
 30 32  1  0  0  0  0
 30 33  1  0  0  0  0
 28 29  1  0  0  0  0
 28 30  1  0  0  0  0
M  END
$$$$
default_name
  -OEChem-01062215323D

 33 32  0     1  0  0  0  0  0999 V2000
   -3.8420   -3.6918    1.5562 H   0  0  0  0  0  0  0  0  0  0  0  0
   -3.8430   -2.7008    1.1032 C   0  0  0  0  0  0  0  0  0  0  0  0
   -4.5510   -2.0608    1.6242 H   0  0  0  0  0  0  0  0  0  0  0  0
   -4.1140   -2.7798    0.0522 H   0  0  0  0  0  0  0  0  0  0  0  0
   -2.4570   -2.1098    1.2172 C   0  0  0  0  0  0  0  0  0  0  0  0
   -1.5600   -2.7438    1.7572 O   0  0  0  0  0  0  0  0  0  0  0  0
   -2.2870   -0.8898    0.7102 N   0  0  0  0  0  0  0  0  0  0  0  0
   -3.0820   -0.4218    0.2992 H   0  0  0  0  0  0  0  0  0  0  0  0
   -1.0240   -0.1468    0.7262 C   0  0  1  0  0  0  0  0  0  0  0  0
   -0.2170   -0.8287    0.4548 H   0  0  0  0  0  0  0  0  0  0  0  0
   -1.0968    0.9755   -0.3274 C   0  0  0  0  0  0  0  0  0  0  0  0
   -2.0072    1.5536   -0.1564 H   0  0  0  0  0  0  0  0  0  0  0  0
   -0.2420    1.6417   -0.2029 H   0  0  0  0  0  0  0  0  0  0  0  0
   -1.1251    0.4525   -1.7720 C   0  0  0  0  0  0  0  0  0  0  0  0
   -0.2306   -0.1406   -1.9642 H   0  0  0  0  0  0  0  0  0  0  0  0
   -2.0069   -0.1761   -1.9090 H   0  0  0  0  0  0  0  0  0  0  0  0
   -1.1725    1.6123   -2.7732 C   0  0  0  0  0  0  0  0  0  0  0  0
   -2.0588    2.2200   -2.5884 H   0  0  0  0  0  0  0  0  0  0  0  0
   -0.2815    2.2299   -2.6565 H   0  0  0  0  0  0  0  0  0  0  0  0
   -1.2250    1.0651   -4.1983 C   0  0  0  0  0  0  0  0  0  0  0  0
   -0.3318    0.4731   -4.3914 H   0  0  0  0  0  0  0  0  0  0  0  0
   -2.1047    0.4336   -4.3115 H   0  0  0  0  0  0  0  0  0  0  0  0
   -1.2950    2.1507   -5.1831 N   0  0  0  0  0  0  0  0  0  0  0  0
   -1.3142    1.7544   -6.1113 H   0  0  0  0  0  0  0  0  0  0  0  0
   -2.1387    2.6842   -5.0286 H   0  0  0  0  0  0  0  0  0  0  0  0
   -0.7461    0.3961    2.1376 C   0  0  0  0  0  0  0  0  0  0  0  0
    0.1111    1.2604    2.3080 O   0  0  0  0  0  0  0  0  0  0  0  0
   -1.4635   -0.1190    3.1429 N   0  0  0  0  0  0  0  0  0  0  0  0
   -2.1575   -0.8134    2.9198 H   0  0  0  0  0  0  0  0  0  0  0  0
   -1.3095    0.2770    4.5419 C   0  0  0  0  0  0  0  0  0  0  0  0
   -1.4296    1.3586    4.6347 H   0  0  0  0  0  0  0  0  0  0  0  0
   -2.0551   -0.2226    5.1622 H   0  0  0  0  0  0  0  0  0  0  0  0
   -0.3103    0.0088    4.8915 H   0  0  0  0  0  0  0  0  0  0  0  0
  5  6  2  0  0  0  0
  5  7  1  0  0  0  0
  2  3  1  0  0  0  0
  2  4  1  0  0  0  0
  2  5  1  0  0  0  0
  1  2  1  0  0  0  0
 26 27  2  0  0  0  0
 26 28  1  0  0  0  0
 23 24  1  0  0  0  0
 23 25  1  0  0  0  0
 20 21  1  0  0  0  0
 20 22  1  0  0  0  0
 20 23  1  0  0  0  0
 17 18  1  0  0  0  0
 17 19  1  0  0  0  0
 17 20  1  0  0  0  0
 14 15  1  0  0  0  0
 14 16  1  0  0  0  0
 14 17  1  0  0  0  0
 11 12  1  0  0  0  0
 11 13  1  0  0  0  0
 11 14  1  0  0  0  0
  9 10  1  0  0  0  0
  9 11  1  0  0  0  0
  9 26  1  0  0  0  0
  7  8  1  0  0  0  0
  7  9  1  0  0  0  0
 30 31  1  0  0  0  0
 30 32  1  0  0  0  0
 30 33  1  0  0  0  0
 28 29  1  0  0  0  0
 28 30  1  0  0  0  0
M  END
$$$$
default_name
  -OEChem-01062215323D

 33 32  0     1  0  0  0  0  0999 V2000
   -3.8420   -3.6918    1.5562 H   0  0  0  0  0  0  0  0  0  0  0  0
   -3.8430   -2.7008    1.1032 C   0  0  0  0  0  0  0  0  0  0  0  0
   -4.5510   -2.0608    1.6242 H   0  0  0  0  0  0  0  0  0  0  0  0
   -4.1140   -2.7798    0.0522 H   0  0  0  0  0  0  0  0  0  0  0  0
   -2.4570   -2.1098    1.2172 C   0  0  0  0  0  0  0  0  0  0  0  0
   -1.5600   -2.7438    1.7572 O   0  0  0  0  0  0  0  0  0  0  0  0
   -2.2870   -0.8898    0.7102 N   0  0  0  0  0  0  0  0  0  0  0  0
   -3.0820   -0.4218    0.2992 H   0  0  0  0  0  0  0  0  0  0  0  0
   -1.0240   -0.1468    0.7262 C   0  0  1  0  0  0  0  0  0  0  0  0
   -0.2170   -0.8287    0.4548 H   0  0  0  0  0  0  0  0  0  0  0  0
   -1.0968    0.9755   -0.3274 C   0  0  0  0  0  0  0  0  0  0  0  0
   -2.0072    1.5536   -0.1564 H   0  0  0  0  0  0  0  0  0  0  0  0
   -0.2420    1.6417   -0.2029 H   0  0  0  0  0  0  0  0  0  0  0  0
   -1.1251    0.4525   -1.7720 C   0  0  0  0  0  0  0  0  0  0  0  0
   -0.2306   -0.1406   -1.9642 H   0  0  0  0  0  0  0  0  0  0  0  0
   -2.0069   -0.1761   -1.9090 H   0  0  0  0  0  0  0  0  0  0  0  0
   -1.1725    1.6123   -2.7732 C   0  0  0  0  0  0  0  0  0  0  0  0
   -2.0588    2.2200   -2.5884 H   0  0  0  0  0  0  0  0  0  0  0  0
   -0.2815    2.2299   -2.6565 H   0  0  0  0  0  0  0  0  0  0  0  0
   -1.2250    1.0651   -4.1983 C   0  0  0  0  0  0  0  0  0  0  0  0
   -0.3318    0.4731   -4.3914 H   0  0  0  0  0  0  0  0  0  0  0  0
   -2.1047    0.4336   -4.3115 H   0  0  0  0  0  0  0  0  0  0  0  0
   -1.2950    2.1507   -5.1831 N   0  0  0  0  0  0  0  0  0  0  0  0
   -1.3142    1.7544   -6.1113 H   0  0  0  0  0  0  0  0  0  0  0  0
   -2.1387    2.6842   -5.0286 H   0  0  0  0  0  0  0  0  0  0  0  0
   -0.7461    0.3961    2.1376 C   0  0  0  0  0  0  0  0  0  0  0  0
   -0.1041    1.4340    2.2836 O   0  0  0  0  0  0  0  0  0  0  0  0
   -1.2210   -0.3115    3.1692 N   0  0  0  0  0  0  0  0  0  0  0  0
   -1.7504   -1.1436    2.9667 H   0  0  0  0  0  0  0  0  0  0  0  0
   -1.0296    0.0596    4.5705 C   0  0  0  0  0  0  0  0  0  0  0  0
   -1.3914    1.0768    4.7355 H   0  0  0  0  0  0  0  0  0  0  0  0
   -1.5728   -0.6260    5.2224 H   0  0  0  0  0  0  0  0  0  0  0  0
    0.0337    0.0265    4.8170 H   0  0  0  0  0  0  0  0  0  0  0  0
  5  6  2  0  0  0  0
  5  7  1  0  0  0  0
  2  3  1  0  0  0  0
  2  4  1  0  0  0  0
  2  5  1  0  0  0  0
  1  2  1  0  0  0  0
 26 27  2  0  0  0  0
 26 28  1  0  0  0  0
 23 24  1  0  0  0  0
 23 25  1  0  0  0  0
 20 21  1  0  0  0  0
 20 22  1  0  0  0  0
 20 23  1  0  0  0  0
 17 18  1  0  0  0  0
 17 19  1  0  0  0  0
 17 20  1  0  0  0  0
 14 15  1  0  0  0  0
 14 16  1  0  0  0  0
 14 17  1  0  0  0  0
 11 12  1  0  0  0  0
 11 13  1  0  0  0  0
 11 14  1  0  0  0  0
  9 10  1  0  0  0  0
  9 11  1  0  0  0  0
  9 26  1  0  0  0  0
  7  8  1  0  0  0  0
  7  9  1  0  0  0  0
 30 31  1  0  0  0  0
 30 32  1  0  0  0  0
 30 33  1  0  0  0  0
 28 29  1  0  0  0  0
 28 30  1  0  0  0  0
M  END
$$$$
default_name
  -OEChem-01062215323D

 33 32  0     1  0  0  0  0  0999 V2000
   -3.8420   -3.6918    1.5562 H   0  0  0  0  0  0  0  0  0  0  0  0
   -3.8430   -2.7008    1.1032 C   0  0  0  0  0  0  0  0  0  0  0  0
   -4.5510   -2.0608    1.6242 H   0  0  0  0  0  0  0  0  0  0  0  0
   -4.1140   -2.7798    0.0522 H   0  0  0  0  0  0  0  0  0  0  0  0
   -2.4570   -2.1098    1.2172 C   0  0  0  0  0  0  0  0  0  0  0  0
   -1.5600   -2.7438    1.7572 O   0  0  0  0  0  0  0  0  0  0  0  0
   -2.2870   -0.8898    0.7102 N   0  0  0  0  0  0  0  0  0  0  0  0
   -3.0820   -0.4218    0.2992 H   0  0  0  0  0  0  0  0  0  0  0  0
   -1.0240   -0.1468    0.7262 C   0  0  1  0  0  0  0  0  0  0  0  0
   -0.2170   -0.8287    0.4548 H   0  0  0  0  0  0  0  0  0  0  0  0
   -1.0968    0.9755   -0.3274 C   0  0  0  0  0  0  0  0  0  0  0  0
   -2.0072    1.5536   -0.1564 H   0  0  0  0  0  0  0  0  0  0  0  0
   -0.2420    1.6417   -0.2029 H   0  0  0  0  0  0  0  0  0  0  0  0
   -1.1251    0.4525   -1.7720 C   0  0  0  0  0  0  0  0  0  0  0  0
   -0.2306   -0.1406   -1.9642 H   0  0  0  0  0  0  0  0  0  0  0  0
   -2.0069   -0.1761   -1.9090 H   0  0  0  0  0  0  0  0  0  0  0  0
   -1.1725    1.6123   -2.7732 C   0  0  0  0  0  0  0  0  0  0  0  0
   -2.0588    2.2200   -2.5884 H   0  0  0  0  0  0  0  0  0  0  0  0
   -0.2815    2.2299   -2.6565 H   0  0  0  0  0  0  0  0  0  0  0  0
   -1.2250    1.0651   -4.1983 C   0  0  0  0  0  0  0  0  0  0  0  0
   -0.3318    0.4731   -4.3914 H   0  0  0  0  0  0  0  0  0  0  0  0
   -2.1047    0.4336   -4.3115 H   0  0  0  0  0  0  0  0  0  0  0  0
   -1.2950    2.1507   -5.1831 N   0  0  0  0  0  0  0  0  0  0  0  0
   -1.3142    1.7544   -6.1113 H   0  0  0  0  0  0  0  0  0  0  0  0
   -2.1387    2.6842   -5.0286 H   0  0  0  0  0  0  0  0  0  0  0  0
   -0.7461    0.3961    2.1376 C   0  0  0  0  0  0  0  0  0  0  0  0
   -0.3554    1.5518    2.2878 O   0  0  0  0  0  0  0  0  0  0  0  0
   -0.9387   -0.4412    3.1635 N   0  0  0  0  0  0  0  0  0  0  0  0
   -1.2744   -1.3681    2.9593 H   0  0  0  0  0  0  0  0  0  0  0  0
   -0.7050   -0.0853    4.5623 C   0  0  0  0  0  0  0  0  0  0  0  0
   -1.2783    0.8090    4.8163 H   0  0  0  0  0  0  0  0  0  0  0  0
   -1.0056   -0.9040    5.2176 H   0  0  0  0  0  0  0  0  0  0  0  0
    0.3550    0.1288    4.7144 H   0  0  0  0  0  0  0  0  0  0  0  0
  5  6  2  0  0  0  0
  5  7  1  0  0  0  0
  2  3  1  0  0  0  0
  2  4  1  0  0  0  0
  2  5  1  0  0  0  0
  1  2  1  0  0  0  0
 26 27  2  0  0  0  0
 26 28  1  0  0  0  0
 23 24  1  0  0  0  0
 23 25  1  0  0  0  0
 20 21  1  0  0  0  0
 20 22  1  0  0  0  0
 20 23  1  0  0  0  0
 17 18  1  0  0  0  0
 17 19  1  0  0  0  0
 17 20  1  0  0  0  0
 14 15  1  0  0  0  0
 14 16  1  0  0  0  0
 14 17  1  0  0  0  0
 11 12  1  0  0  0  0
 11 13  1  0  0  0  0
 11 14  1  0  0  0  0
  9 10  1  0  0  0  0
  9 11  1  0  0  0  0
  9 26  1  0  0  0  0
  7  8  1  0  0  0  0
  7  9  1  0  0  0  0
 30 31  1  0  0  0  0
 30 32  1  0  0  0  0
 30 33  1  0  0  0  0
 28 29  1  0  0  0  0
 28 30  1  0  0  0  0
M  END
$$$$
default_name
  -OEChem-01062215323D

 33 32  0     1  0  0  0  0  0999 V2000
   -3.8420   -3.6918    1.5562 H   0  0  0  0  0  0  0  0  0  0  0  0
   -3.8430   -2.7008    1.1032 C   0  0  0  0  0  0  0  0  0  0  0  0
   -4.5510   -2.0608    1.6242 H   0  0  0  0  0  0  0  0  0  0  0  0
   -4.1140   -2.7798    0.0522 H   0  0  0  0  0  0  0  0  0  0  0  0
   -2.4570   -2.1098    1.2172 C   0  0  0  0  0  0  0  0  0  0  0  0
   -1.5600   -2.7438    1.7572 O   0  0  0  0  0  0  0  0  0  0  0  0
   -2.2870   -0.8898    0.7102 N   0  0  0  0  0  0  0  0  0  0  0  0
   -3.0820   -0.4218    0.2992 H   0  0  0  0  0  0  0  0  0  0  0  0
   -1.0240   -0.1468    0.7262 C   0  0  1  0  0  0  0  0  0  0  0  0
   -0.2170   -0.8287    0.4548 H   0  0  0  0  0  0  0  0  0  0  0  0
   -1.0968    0.9755   -0.3274 C   0  0  0  0  0  0  0  0  0  0  0  0
   -2.0072    1.5536   -0.1564 H   0  0  0  0  0  0  0  0  0  0  0  0
   -0.2420    1.6417   -0.2029 H   0  0  0  0  0  0  0  0  0  0  0  0
   -1.1251    0.4525   -1.7720 C   0  0  0  0  0  0  0  0  0  0  0  0
   -0.2306   -0.1406   -1.9642 H   0  0  0  0  0  0  0  0  0  0  0  0
   -2.0069   -0.1761   -1.9090 H   0  0  0  0  0  0  0  0  0  0  0  0
   -1.1725    1.6123   -2.7732 C   0  0  0  0  0  0  0  0  0  0  0  0
   -2.0588    2.2200   -2.5884 H   0  0  0  0  0  0  0  0  0  0  0  0
   -0.2815    2.2299   -2.6565 H   0  0  0  0  0  0  0  0  0  0  0  0
   -1.2250    1.0651   -4.1983 C   0  0  0  0  0  0  0  0  0  0  0  0
   -0.3318    0.4731   -4.3914 H   0  0  0  0  0  0  0  0  0  0  0  0
   -2.1047    0.4336   -4.3115 H   0  0  0  0  0  0  0  0  0  0  0  0
   -1.2950    2.1507   -5.1831 N   0  0  0  0  0  0  0  0  0  0  0  0
   -1.3142    1.7544   -6.1113 H   0  0  0  0  0  0  0  0  0  0  0  0
   -2.1387    2.6842   -5.0286 H   0  0  0  0  0  0  0  0  0  0  0  0
   -0.7461    0.3961    2.1376 C   0  0  0  0  0  0  0  0  0  0  0  0
   -0.6258    1.6056    2.3203 O   0  0  0  0  0  0  0  0  0  0  0  0
   -0.6357   -0.4990    3.1261 N   0  0  0  0  0  0  0  0  0  0  0  0
   -0.7619   -1.4715    2.8982 H   0  0  0  0  0  0  0  0  0  0  0  0
   -0.3578   -0.1477    4.5179 C   0  0  0  0  0  0  0  0  0  0  0  0
   -1.0981    0.5733    4.8714 H   0  0  0  0  0  0  0  0  0  0  0  0
   -0.3922   -1.0375    5.1482 H   0  0  0  0  0  0  0  0  0  0  0  0
    0.6316    0.3087    4.5907 H   0  0  0  0  0  0  0  0  0  0  0  0
  5  6  2  0  0  0  0
  5  7  1  0  0  0  0
  2  3  1  0  0  0  0
  2  4  1  0  0  0  0
  2  5  1  0  0  0  0
  1  2  1  0  0  0  0
 26 27  2  0  0  0  0
 26 28  1  0  0  0  0
 23 24  1  0  0  0  0
 23 25  1  0  0  0  0
 20 21  1  0  0  0  0
 20 22  1  0  0  0  0
 20 23  1  0  0  0  0
 17 18  1  0  0  0  0
 17 19  1  0  0  0  0
 17 20  1  0  0  0  0
 14 15  1  0  0  0  0
 14 16  1  0  0  0  0
 14 17  1  0  0  0  0
 11 12  1  0  0  0  0
 11 13  1  0  0  0  0
 11 14  1  0  0  0  0
  9 10  1  0  0  0  0
  9 11  1  0  0  0  0
  9 26  1  0  0  0  0
  7  8  1  0  0  0  0
  7  9  1  0  0  0  0
 30 31  1  0  0  0  0
 30 32  1  0  0  0  0
 30 33  1  0  0  0  0
 28 29  1  0  0  0  0
 28 30  1  0  0  0  0
M  END
$$$$
default_name
  -OEChem-01062215323D

 33 32  0     1  0  0  0  0  0999 V2000
   -3.8420   -3.6918    1.5562 H   0  0  0  0  0  0  0  0  0  0  0  0
   -3.8430   -2.7008    1.1032 C   0  0  0  0  0  0  0  0  0  0  0  0
   -4.5510   -2.0608    1.6242 H   0  0  0  0  0  0  0  0  0  0  0  0
   -4.1140   -2.7798    0.0522 H   0  0  0  0  0  0  0  0  0  0  0  0
   -2.4570   -2.1098    1.2172 C   0  0  0  0  0  0  0  0  0  0  0  0
   -1.5600   -2.7438    1.7572 O   0  0  0  0  0  0  0  0  0  0  0  0
   -2.2870   -0.8898    0.7102 N   0  0  0  0  0  0  0  0  0  0  0  0
   -3.0820   -0.4218    0.2992 H   0  0  0  0  0  0  0  0  0  0  0  0
   -1.0240   -0.1468    0.7262 C   0  0  1  0  0  0  0  0  0  0  0  0
   -0.2170   -0.8287    0.4548 H   0  0  0  0  0  0  0  0  0  0  0  0
   -1.0968    0.9755   -0.3274 C   0  0  0  0  0  0  0  0  0  0  0  0
   -2.0072    1.5536   -0.1564 H   0  0  0  0  0  0  0  0  0  0  0  0
   -0.2420    1.6417   -0.2029 H   0  0  0  0  0  0  0  0  0  0  0  0
   -1.1251    0.4525   -1.7720 C   0  0  0  0  0  0  0  0  0  0  0  0
   -0.2306   -0.1406   -1.9642 H   0  0  0  0  0  0  0  0  0  0  0  0
   -2.0069   -0.1761   -1.9090 H   0  0  0  0  0  0  0  0  0  0  0  0
   -1.1725    1.6123   -2.7732 C   0  0  0  0  0  0  0  0  0  0  0  0
   -2.0588    2.2200   -2.5884 H   0  0  0  0  0  0  0  0  0  0  0  0
   -0.2815    2.2299   -2.6565 H   0  0  0  0  0  0  0  0  0  0  0  0
   -1.2250    1.0651   -4.1983 C   0  0  0  0  0  0  0  0  0  0  0  0
   -0.3318    0.4731   -4.3914 H   0  0  0  0  0  0  0  0  0  0  0  0
   -2.1047    0.4336   -4.3115 H   0  0  0  0  0  0  0  0  0  0  0  0
   -1.2950    2.1507   -5.1831 N   0  0  0  0  0  0  0  0  0  0  0  0
   -1.3142    1.7544   -6.1113 H   0  0  0  0  0  0  0  0  0  0  0  0
   -2.1387    2.6842   -5.0286 H   0  0  0  0  0  0  0  0  0  0  0  0
   -0.7461    0.3961    2.1376 C   0  0  0  0  0  0  0  0  0  0  0  0
   -0.8968    1.5919    2.3790 O   0  0  0  0  0  0  0  0  0  0  0  0
   -0.3327   -0.4811    3.0596 N   0  0  0  0  0  0  0  0  0  0  0  0
   -0.2479   -1.4468    2.7875 H   0  0  0  0  0  0  0  0  0  0  0  0
   -0.0116   -0.1234    4.4404 C   0  0  0  0  0  0  0  0  0  0  0  0
   -0.8630    0.3860    4.8972 H   0  0  0  0  0  0  0  0  0  0  0  0
    0.2257   -1.0174    5.0188 H   0  0  0  0  0  0  0  0  0  0  0  0
    0.8448    0.5540    4.4544 H   0  0  0  0  0  0  0  0  0  0  0  0
  5  6  2  0  0  0  0
  5  7  1  0  0  0  0
  2  3  1  0  0  0  0
  2  4  1  0  0  0  0
  2  5  1  0  0  0  0
  1  2  1  0  0  0  0
 26 27  2  0  0  0  0
 26 28  1  0  0  0  0
 23 24  1  0  0  0  0
 23 25  1  0  0  0  0
 20 21  1  0  0  0  0
 20 22  1  0  0  0  0
 20 23  1  0  0  0  0
 17 18  1  0  0  0  0
 17 19  1  0  0  0  0
 17 20  1  0  0  0  0
 14 15  1  0  0  0  0
 14 16  1  0  0  0  0
 14 17  1  0  0  0  0
 11 12  1  0  0  0  0
 11 13  1  0  0  0  0
 11 14  1  0  0  0  0
  9 10  1  0  0  0  0
  9 11  1  0  0  0  0
  9 26  1  0  0  0  0
  7  8  1  0  0  0  0
  7  9  1  0  0  0  0
 30 31  1  0  0  0  0
 30 32  1  0  0  0  0
 30 33  1  0  0  0  0
 28 29  1  0  0  0  0
 28 30  1  0  0  0  0
M  END
$$$$
default_name
  -OEChem-01062215323D

 33 32  0     1  0  0  0  0  0999 V2000
   -3.8420   -3.6918    1.5562 H   0  0  0  0  0  0  0  0  0  0  0  0
   -3.8430   -2.7008    1.1032 C   0  0  0  0  0  0  0  0  0  0  0  0
   -4.5510   -2.0608    1.6242 H   0  0  0  0  0  0  0  0  0  0  0  0
   -4.1140   -2.7798    0.0522 H   0  0  0  0  0  0  0  0  0  0  0  0
   -2.4570   -2.1098    1.2172 C   0  0  0  0  0  0  0  0  0  0  0  0
   -1.5600   -2.7438    1.7572 O   0  0  0  0  0  0  0  0  0  0  0  0
   -2.2870   -0.8898    0.7102 N   0  0  0  0  0  0  0  0  0  0  0  0
   -3.0820   -0.4218    0.2992 H   0  0  0  0  0  0  0  0  0  0  0  0
   -1.0240   -0.1468    0.7262 C   0  0  1  0  0  0  0  0  0  0  0  0
   -0.2170   -0.8287    0.4548 H   0  0  0  0  0  0  0  0  0  0  0  0
   -1.0968    0.9755   -0.3274 C   0  0  0  0  0  0  0  0  0  0  0  0
   -2.0072    1.5536   -0.1564 H   0  0  0  0  0  0  0  0  0  0  0  0
   -0.2420    1.6417   -0.2029 H   0  0  0  0  0  0  0  0  0  0  0  0
   -1.1251    0.4525   -1.7720 C   0  0  0  0  0  0  0  0  0  0  0  0
   -0.2306   -0.1406   -1.9642 H   0  0  0  0  0  0  0  0  0  0  0  0
   -2.0069   -0.1761   -1.9090 H   0  0  0  0  0  0  0  0  0  0  0  0
   -1.1725    1.6123   -2.7732 C   0  0  0  0  0  0  0  0  0  0  0  0
   -2.0588    2.2200   -2.5884 H   0  0  0  0  0  0  0  0  0  0  0  0
   -0.2815    2.2299   -2.6565 H   0  0  0  0  0  0  0  0  0  0  0  0
   -1.2250    1.0651   -4.1983 C   0  0  0  0  0  0  0  0  0  0  0  0
   -0.3318    0.4731   -4.3914 H   0  0  0  0  0  0  0  0  0  0  0  0
   -2.1047    0.4336   -4.3115 H   0  0  0  0  0  0  0  0  0  0  0  0
   -1.2950    2.1507   -5.1831 N   0  0  0  0  0  0  0  0  0  0  0  0
   -1.3142    1.7544   -6.1113 H   0  0  0  0  0  0  0  0  0  0  0  0
   -2.1387    2.6842   -5.0286 H   0  0  0  0  0  0  0  0  0  0  0  0
   -0.7461    0.3961    2.1376 C   0  0  0  0  0  0  0  0  0  0  0  0
   -1.1500    1.5115    2.4597 O   0  0  0  0  0  0  0  0  0  0  0  0
   -0.0504   -0.3888    2.9685 N   0  0  0  0  0  0  0  0  0  0  0  0
    0.2325   -1.2956    2.6347 H   0  0  0  0  0  0  0  0  0  0  0  0
    0.3099   -0.0141    4.3351 C   0  0  0  0  0  0  0  0  0  0  0  0
   -0.5890    0.2597    4.8918 H   0  0  0  0  0  0  0  0  0  0  0  0
    0.8060   -0.8452    4.8384 H   0  0  0  0  0  0  0  0  0  0  0  0
    0.9800    0.8479    4.3148 H   0  0  0  0  0  0  0  0  0  0  0  0
  5  6  2  0  0  0  0
  5  7  1  0  0  0  0
  2  3  1  0  0  0  0
  2  4  1  0  0  0  0
  2  5  1  0  0  0  0
  1  2  1  0  0  0  0
 26 27  2  0  0  0  0
 26 28  1  0  0  0  0
 23 24  1  0  0  0  0
 23 25  1  0  0  0  0
 20 21  1  0  0  0  0
 20 22  1  0  0  0  0
 20 23  1  0  0  0  0
 17 18  1  0  0  0  0
 17 19  1  0  0  0  0
 17 20  1  0  0  0  0
 14 15  1  0  0  0  0
 14 16  1  0  0  0  0
 14 17  1  0  0  0  0
 11 12  1  0  0  0  0
 11 13  1  0  0  0  0
 11 14  1  0  0  0  0
  9 10  1  0  0  0  0
  9 11  1  0  0  0  0
  9 26  1  0  0  0  0
  7  8  1  0  0  0  0
  7  9  1  0  0  0  0
 30 31  1  0  0  0  0
 30 32  1  0  0  0  0
 30 33  1  0  0  0  0
 28 29  1  0  0  0  0
 28 30  1  0  0  0  0
M  END
$$$$
default_name
  -OEChem-01062215323D

 33 32  0     1  0  0  0  0  0999 V2000
   -3.8420   -3.6918    1.5562 H   0  0  0  0  0  0  0  0  0  0  0  0
   -3.8430   -2.7008    1.1032 C   0  0  0  0  0  0  0  0  0  0  0  0
   -4.5510   -2.0608    1.6242 H   0  0  0  0  0  0  0  0  0  0  0  0
   -4.1140   -2.7798    0.0522 H   0  0  0  0  0  0  0  0  0  0  0  0
   -2.4570   -2.1098    1.2172 C   0  0  0  0  0  0  0  0  0  0  0  0
   -1.5600   -2.7438    1.7572 O   0  0  0  0  0  0  0  0  0  0  0  0
   -2.2870   -0.8898    0.7102 N   0  0  0  0  0  0  0  0  0  0  0  0
   -3.0820   -0.4218    0.2992 H   0  0  0  0  0  0  0  0  0  0  0  0
   -1.0240   -0.1468    0.7262 C   0  0  1  0  0  0  0  0  0  0  0  0
   -0.2170   -0.8287    0.4548 H   0  0  0  0  0  0  0  0  0  0  0  0
   -1.0968    0.9755   -0.3274 C   0  0  0  0  0  0  0  0  0  0  0  0
   -2.0072    1.5536   -0.1564 H   0  0  0  0  0  0  0  0  0  0  0  0
   -0.2420    1.6417   -0.2029 H   0  0  0  0  0  0  0  0  0  0  0  0
   -1.1251    0.4525   -1.7720 C   0  0  0  0  0  0  0  0  0  0  0  0
   -0.2306   -0.1406   -1.9642 H   0  0  0  0  0  0  0  0  0  0  0  0
   -2.0069   -0.1761   -1.9090 H   0  0  0  0  0  0  0  0  0  0  0  0
   -1.1725    1.6123   -2.7732 C   0  0  0  0  0  0  0  0  0  0  0  0
   -2.0588    2.2200   -2.5884 H   0  0  0  0  0  0  0  0  0  0  0  0
   -0.2815    2.2299   -2.6565 H   0  0  0  0  0  0  0  0  0  0  0  0
   -1.2250    1.0651   -4.1983 C   0  0  0  0  0  0  0  0  0  0  0  0
   -0.3318    0.4731   -4.3914 H   0  0  0  0  0  0  0  0  0  0  0  0
   -2.1047    0.4336   -4.3115 H   0  0  0  0  0  0  0  0  0  0  0  0
   -1.2950    2.1507   -5.1831 N   0  0  0  0  0  0  0  0  0  0  0  0
   -1.3142    1.7544   -6.1113 H   0  0  0  0  0  0  0  0  0  0  0  0
   -2.1387    2.6842   -5.0286 H   0  0  0  0  0  0  0  0  0  0  0  0
   -0.7461    0.3961    2.1376 C   0  0  0  0  0  0  0  0  0  0  0  0
   -1.3680    1.3699    2.5571 O   0  0  0  0  0  0  0  0  0  0  0  0
    0.1921   -0.2283    2.8590 N   0  0  0  0  0  0  0  0  0  0  0  0
    0.6467   -1.0282    2.4504 H   0  0  0  0  0  0  0  0  0  0  0  0
    0.5849    0.1729    4.2090 C   0  0  0  0  0  0  0  0  0  0  0  0
   -0.2948    0.2030    4.8557 H   0  0  0  0  0  0  0  0  0  0  0  0
    1.3091   -0.5325    4.6191 H   0  0  0  0  0  0  0  0  0  0  0  0
    1.0280    1.1705    4.1813 H   0  0  0  0  0  0  0  0  0  0  0  0
  5  6  2  0  0  0  0
  5  7  1  0  0  0  0
  2  3  1  0  0  0  0
  2  4  1  0  0  0  0
  2  5  1  0  0  0  0
  1  2  1  0  0  0  0
 26 27  2  0  0  0  0
 26 28  1  0  0  0  0
 23 24  1  0  0  0  0
 23 25  1  0  0  0  0
 20 21  1  0  0  0  0
 20 22  1  0  0  0  0
 20 23  1  0  0  0  0
 17 18  1  0  0  0  0
 17 19  1  0  0  0  0
 17 20  1  0  0  0  0
 14 15  1  0  0  0  0
 14 16  1  0  0  0  0
 14 17  1  0  0  0  0
 11 12  1  0  0  0  0
 11 13  1  0  0  0  0
 11 14  1  0  0  0  0
  9 10  1  0  0  0  0
  9 11  1  0  0  0  0
  9 26  1  0  0  0  0
  7  8  1  0  0  0  0
  7  9  1  0  0  0  0
 30 31  1  0  0  0  0
 30 32  1  0  0  0  0
 30 33  1  0  0  0  0
 28 29  1  0  0  0  0
 28 30  1  0  0  0  0
M  END
$$$$
default_name
  -OEChem-01062215323D

 33 32  0     1  0  0  0  0  0999 V2000
   -3.8420   -3.6918    1.5562 H   0  0  0  0  0  0  0  0  0  0  0  0
   -3.8430   -2.7008    1.1032 C   0  0  0  0  0  0  0  0  0  0  0  0
   -4.5510   -2.0608    1.6242 H   0  0  0  0  0  0  0  0  0  0  0  0
   -4.1140   -2.7798    0.0522 H   0  0  0  0  0  0  0  0  0  0  0  0
   -2.4570   -2.1098    1.2172 C   0  0  0  0  0  0  0  0  0  0  0  0
   -1.5600   -2.7438    1.7572 O   0  0  0  0  0  0  0  0  0  0  0  0
   -2.2870   -0.8898    0.7102 N   0  0  0  0  0  0  0  0  0  0  0  0
   -3.0820   -0.4218    0.2992 H   0  0  0  0  0  0  0  0  0  0  0  0
   -1.0240   -0.1468    0.7262 C   0  0  1  0  0  0  0  0  0  0  0  0
   -0.2170   -0.8287    0.4548 H   0  0  0  0  0  0  0  0  0  0  0  0
   -1.0968    0.9755   -0.3274 C   0  0  0  0  0  0  0  0  0  0  0  0
   -2.0072    1.5536   -0.1564 H   0  0  0  0  0  0  0  0  0  0  0  0
   -0.2420    1.6417   -0.2029 H   0  0  0  0  0  0  0  0  0  0  0  0
   -1.1251    0.4525   -1.7720 C   0  0  0  0  0  0  0  0  0  0  0  0
   -0.2306   -0.1406   -1.9642 H   0  0  0  0  0  0  0  0  0  0  0  0
   -2.0069   -0.1761   -1.9090 H   0  0  0  0  0  0  0  0  0  0  0  0
   -1.1725    1.6123   -2.7732 C   0  0  0  0  0  0  0  0  0  0  0  0
   -2.0588    2.2200   -2.5884 H   0  0  0  0  0  0  0  0  0  0  0  0
   -0.2815    2.2299   -2.6565 H   0  0  0  0  0  0  0  0  0  0  0  0
   -1.2250    1.0651   -4.1983 C   0  0  0  0  0  0  0  0  0  0  0  0
   -0.3318    0.4731   -4.3914 H   0  0  0  0  0  0  0  0  0  0  0  0
   -2.1047    0.4336   -4.3115 H   0  0  0  0  0  0  0  0  0  0  0  0
   -1.2950    2.1507   -5.1831 N   0  0  0  0  0  0  0  0  0  0  0  0
   -1.3142    1.7544   -6.1113 H   0  0  0  0  0  0  0  0  0  0  0  0
   -2.1387    2.6842   -5.0286 H   0  0  0  0  0  0  0  0  0  0  0  0
   -0.7461    0.3961    2.1376 C   0  0  0  0  0  0  0  0  0  0  0  0
   -1.5360    1.1767    2.6645 O   0  0  0  0  0  0  0  0  0  0  0  0
    0.3781   -0.0105    2.7386 N   0  0  0  0  0  0  0  0  0  0  0  0
    0.9665   -0.6629    2.2470 H   0  0  0  0  0  0  0  0  0  0  0  0
    0.7945    0.4246    4.0709 C   0  0  0  0  0  0  0  0  0  0  0  0
   -0.0005    0.2199    4.7913 H   0  0  0  0  0  0  0  0  0  0  0  0
    1.7007   -0.1007    4.3759 H   0  0  0  0  0  0  0  0  0  0  0  0
    0.9855    1.4998    4.0630 H   0  0  0  0  0  0  0  0  0  0  0  0
  5  6  2  0  0  0  0
  5  7  1  0  0  0  0
  2  3  1  0  0  0  0
  2  4  1  0  0  0  0
  2  5  1  0  0  0  0
  1  2  1  0  0  0  0
 26 27  2  0  0  0  0
 26 28  1  0  0  0  0
 23 24  1  0  0  0  0
 23 25  1  0  0  0  0
 20 21  1  0  0  0  0
 20 22  1  0  0  0  0
 20 23  1  0  0  0  0
 17 18  1  0  0  0  0
 17 19  1  0  0  0  0
 17 20  1  0  0  0  0
 14 15  1  0  0  0  0
 14 16  1  0  0  0  0
 14 17  1  0  0  0  0
 11 12  1  0  0  0  0
 11 13  1  0  0  0  0
 11 14  1  0  0  0  0
  9 10  1  0  0  0  0
  9 11  1  0  0  0  0
  9 26  1  0  0  0  0
  7  8  1  0  0  0  0
  7  9  1  0  0  0  0
 30 31  1  0  0  0  0
 30 32  1  0  0  0  0
 30 33  1  0  0  0  0
 28 29  1  0  0  0  0
 28 30  1  0  0  0  0
M  END
$$$$
default_name
  -OEChem-01062215323D

 33 32  0     1  0  0  0  0  0999 V2000
   -3.8420   -3.6918    1.5562 H   0  0  0  0  0  0  0  0  0  0  0  0
   -3.8430   -2.7008    1.1032 C   0  0  0  0  0  0  0  0  0  0  0  0
   -4.5510   -2.0608    1.6242 H   0  0  0  0  0  0  0  0  0  0  0  0
   -4.1140   -2.7798    0.0522 H   0  0  0  0  0  0  0  0  0  0  0  0
   -2.4570   -2.1098    1.2172 C   0  0  0  0  0  0  0  0  0  0  0  0
   -1.5600   -2.7438    1.7572 O   0  0  0  0  0  0  0  0  0  0  0  0
   -2.2870   -0.8898    0.7102 N   0  0  0  0  0  0  0  0  0  0  0  0
   -3.0820   -0.4218    0.2992 H   0  0  0  0  0  0  0  0  0  0  0  0
   -1.0240   -0.1468    0.7262 C   0  0  1  0  0  0  0  0  0  0  0  0
   -0.2170   -0.8287    0.4548 H   0  0  0  0  0  0  0  0  0  0  0  0
   -1.0968    0.9755   -0.3274 C   0  0  0  0  0  0  0  0  0  0  0  0
   -2.0072    1.5536   -0.1564 H   0  0  0  0  0  0  0  0  0  0  0  0
   -0.2420    1.6417   -0.2029 H   0  0  0  0  0  0  0  0  0  0  0  0
   -1.1251    0.4525   -1.7720 C   0  0  0  0  0  0  0  0  0  0  0  0
   -0.2306   -0.1406   -1.9642 H   0  0  0  0  0  0  0  0  0  0  0  0
   -2.0069   -0.1761   -1.9090 H   0  0  0  0  0  0  0  0  0  0  0  0
   -1.1725    1.6123   -2.7732 C   0  0  0  0  0  0  0  0  0  0  0  0
   -2.0588    2.2200   -2.5884 H   0  0  0  0  0  0  0  0  0  0  0  0
   -0.2815    2.2299   -2.6565 H   0  0  0  0  0  0  0  0  0  0  0  0
   -1.2250    1.0651   -4.1983 C   0  0  0  0  0  0  0  0  0  0  0  0
   -0.3318    0.4731   -4.3914 H   0  0  0  0  0  0  0  0  0  0  0  0
   -2.1047    0.4336   -4.3115 H   0  0  0  0  0  0  0  0  0  0  0  0
   -1.2950    2.1507   -5.1831 N   0  0  0  0  0  0  0  0  0  0  0  0
   -1.3142    1.7544   -6.1113 H   0  0  0  0  0  0  0  0  0  0  0  0
   -2.1387    2.6842   -5.0286 H   0  0  0  0  0  0  0  0  0  0  0  0
   -0.7461    0.3961    2.1376 C   0  0  0  0  0  0  0  0  0  0  0  0
   -1.6427    0.9452    2.7745 O   0  0  0  0  0  0  0  0  0  0  0  0
    0.4951    0.2498    2.6155 N   0  0  0  0  0  0  0  0  0  0  0  0
    1.1699   -0.2246    2.0383 H   0  0  0  0  0  0  0  0  0  0  0  0
    0.9246    0.7241    3.9302 C   0  0  0  0  0  0  0  0  0  0  0  0
    0.2739    0.3091    4.7029 H   0  0  0  0  0  0  0  0  0  0  0  0
    1.9542    0.4208    4.1254 H   0  0  0  0  0  0  0  0  0  0  0  0
    0.8554    1.8132    3.9680 H   0  0  0  0  0  0  0  0  0  0  0  0
  5  6  2  0  0  0  0
  5  7  1  0  0  0  0
  2  3  1  0  0  0  0
  2  4  1  0  0  0  0
  2  5  1  0  0  0  0
  1  2  1  0  0  0  0
 26 27  2  0  0  0  0
 26 28  1  0  0  0  0
 23 24  1  0  0  0  0
 23 25  1  0  0  0  0
 20 21  1  0  0  0  0
 20 22  1  0  0  0  0
 20 23  1  0  0  0  0
 17 18  1  0  0  0  0
 17 19  1  0  0  0  0
 17 20  1  0  0  0  0
 14 15  1  0  0  0  0
 14 16  1  0  0  0  0
 14 17  1  0  0  0  0
 11 12  1  0  0  0  0
 11 13  1  0  0  0  0
 11 14  1  0  0  0  0
  9 10  1  0  0  0  0
  9 11  1  0  0  0  0
  9 26  1  0  0  0  0
  7  8  1  0  0  0  0
  7  9  1  0  0  0  0
 30 31  1  0  0  0  0
 30 32  1  0  0  0  0
 30 33  1  0  0  0  0
 28 29  1  0  0  0  0
 28 30  1  0  0  0  0
M  END
$$$$
default_name
  -OEChem-01062215323D

 33 32  0     1  0  0  0  0  0999 V2000
   -3.8420   -3.6918    1.5562 H   0  0  0  0  0  0  0  0  0  0  0  0
   -3.8430   -2.7008    1.1032 C   0  0  0  0  0  0  0  0  0  0  0  0
   -4.5510   -2.0608    1.6242 H   0  0  0  0  0  0  0  0  0  0  0  0
   -4.1140   -2.7798    0.0522 H   0  0  0  0  0  0  0  0  0  0  0  0
   -2.4570   -2.1098    1.2172 C   0  0  0  0  0  0  0  0  0  0  0  0
   -1.5600   -2.7438    1.7572 O   0  0  0  0  0  0  0  0  0  0  0  0
   -2.2870   -0.8898    0.7102 N   0  0  0  0  0  0  0  0  0  0  0  0
   -3.0820   -0.4218    0.2992 H   0  0  0  0  0  0  0  0  0  0  0  0
   -1.0240   -0.1468    0.7262 C   0  0  1  0  0  0  0  0  0  0  0  0
   -0.2170   -0.8287    0.4548 H   0  0  0  0  0  0  0  0  0  0  0  0
   -1.0968    0.9755   -0.3274 C   0  0  0  0  0  0  0  0  0  0  0  0
   -2.0072    1.5536   -0.1564 H   0  0  0  0  0  0  0  0  0  0  0  0
   -0.2420    1.6417   -0.2029 H   0  0  0  0  0  0  0  0  0  0  0  0
   -1.1251    0.4525   -1.7720 C   0  0  0  0  0  0  0  0  0  0  0  0
   -0.2306   -0.1406   -1.9642 H   0  0  0  0  0  0  0  0  0  0  0  0
   -2.0069   -0.1761   -1.9090 H   0  0  0  0  0  0  0  0  0  0  0  0
   -1.1725    1.6123   -2.7732 C   0  0  0  0  0  0  0  0  0  0  0  0
   -2.0588    2.2200   -2.5884 H   0  0  0  0  0  0  0  0  0  0  0  0
   -0.2815    2.2299   -2.6565 H   0  0  0  0  0  0  0  0  0  0  0  0
   -1.2250    1.0651   -4.1983 C   0  0  0  0  0  0  0  0  0  0  0  0
   -0.3318    0.4731   -4.3914 H   0  0  0  0  0  0  0  0  0  0  0  0
   -2.1047    0.4336   -4.3115 H   0  0  0  0  0  0  0  0  0  0  0  0
   -1.2950    2.1507   -5.1831 N   0  0  0  0  0  0  0  0  0  0  0  0
   -1.3142    1.7544   -6.1113 H   0  0  0  0  0  0  0  0  0  0  0  0
   -2.1387    2.6842   -5.0286 H   0  0  0  0  0  0  0  0  0  0  0  0
   -0.7461    0.3961    2.1376 C   0  0  0  0  0  0  0  0  0  0  0  0
   -1.6806    0.6911    2.8797 O   0  0  0  0  0  0  0  0  0  0  0  0
    0.5350    0.5346    2.4981 N   0  0  0  0  0  0  0  0  0  0  0  0
    1.2433    0.2568    1.8387 H   0  0  0  0  0  0  0  0  0  0  0  0
    0.9662    1.0509    3.7963 C   0  0  0  0  0  0  0  0  0  0  0  0
    0.5096    0.4646    4.5967 H   0  0  0  0  0  0  0  0  0  0  0  0
    2.0522    0.9965    3.8847 H   0  0  0  0  0  0  0  0  0  0  0  0
    0.6466    2.0895    3.9029 H   0  0  0  0  0  0  0  0  0  0  0  0
  5  6  2  0  0  0  0
  5  7  1  0  0  0  0
  2  3  1  0  0  0  0
  2  4  1  0  0  0  0
  2  5  1  0  0  0  0
  1  2  1  0  0  0  0
 26 27  2  0  0  0  0
 26 28  1  0  0  0  0
 23 24  1  0  0  0  0
 23 25  1  0  0  0  0
 20 21  1  0  0  0  0
 20 22  1  0  0  0  0
 20 23  1  0  0  0  0
 17 18  1  0  0  0  0
 17 19  1  0  0  0  0
 17 20  1  0  0  0  0
 14 15  1  0  0  0  0
 14 16  1  0  0  0  0
 14 17  1  0  0  0  0
 11 12  1  0  0  0  0
 11 13  1  0  0  0  0
 11 14  1  0  0  0  0
  9 10  1  0  0  0  0
  9 11  1  0  0  0  0
  9 26  1  0  0  0  0
  7  8  1  0  0  0  0
  7  9  1  0  0  0  0
 30 31  1  0  0  0  0
 30 32  1  0  0  0  0
 30 33  1  0  0  0  0
 28 29  1  0  0  0  0
 28 30  1  0  0  0  0
M  END
$$$$
default_name
  -OEChem-01062215323D

 33 32  0     1  0  0  0  0  0999 V2000
   -3.8420   -3.6918    1.5562 H   0  0  0  0  0  0  0  0  0  0  0  0
   -3.8430   -2.7008    1.1032 C   0  0  0  0  0  0  0  0  0  0  0  0
   -4.5510   -2.0608    1.6242 H   0  0  0  0  0  0  0  0  0  0  0  0
   -4.1140   -2.7798    0.0522 H   0  0  0  0  0  0  0  0  0  0  0  0
   -2.4570   -2.1098    1.2172 C   0  0  0  0  0  0  0  0  0  0  0  0
   -1.5600   -2.7438    1.7572 O   0  0  0  0  0  0  0  0  0  0  0  0
   -2.2870   -0.8898    0.7102 N   0  0  0  0  0  0  0  0  0  0  0  0
   -3.0820   -0.4218    0.2992 H   0  0  0  0  0  0  0  0  0  0  0  0
   -1.0240   -0.1468    0.7262 C   0  0  1  0  0  0  0  0  0  0  0  0
   -0.2170   -0.8287    0.4548 H   0  0  0  0  0  0  0  0  0  0  0  0
   -1.0968    0.9755   -0.3274 C   0  0  0  0  0  0  0  0  0  0  0  0
   -2.0072    1.5536   -0.1564 H   0  0  0  0  0  0  0  0  0  0  0  0
   -0.2420    1.6417   -0.2029 H   0  0  0  0  0  0  0  0  0  0  0  0
   -1.1251    0.4525   -1.7720 C   0  0  0  0  0  0  0  0  0  0  0  0
   -0.2306   -0.1406   -1.9642 H   0  0  0  0  0  0  0  0  0  0  0  0
   -2.0069   -0.1761   -1.9090 H   0  0  0  0  0  0  0  0  0  0  0  0
   -1.1725    1.6123   -2.7732 C   0  0  0  0  0  0  0  0  0  0  0  0
   -2.0588    2.2200   -2.5884 H   0  0  0  0  0  0  0  0  0  0  0  0
   -0.2815    2.2299   -2.6565 H   0  0  0  0  0  0  0  0  0  0  0  0
   -1.2250    1.0651   -4.1983 C   0  0  0  0  0  0  0  0  0  0  0  0
   -0.3318    0.4731   -4.3914 H   0  0  0  0  0  0  0  0  0  0  0  0
   -2.1047    0.4336   -4.3115 H   0  0  0  0  0  0  0  0  0  0  0  0
   -1.2950    2.1507   -5.1831 N   0  0  0  0  0  0  0  0  0  0  0  0
   -1.3142    1.7544   -6.1113 H   0  0  0  0  0  0  0  0  0  0  0  0
   -2.1387    2.6842   -5.0286 H   0  0  0  0  0  0  0  0  0  0  0  0
   -0.7461    0.3961    2.1376 C   0  0  0  0  0  0  0  0  0  0  0  0
   -1.6473    0.4318    2.9729 O   0  0  0  0  0  0  0  0  0  0  0  0
    0.4951    0.8248    2.3944 N   0  0  0  0  0  0  0  0  0  0  0  0
    1.1815    0.7487    1.6617 H   0  0  0  0  0  0  0  0  0  0  0  0
    0.9166    1.3826    3.6785 C   0  0  0  0  0  0  0  0  0  0  0  0
    0.6907    0.6757    4.4799 H   0  0  0  0  0  0  0  0  0  0  0  0
    1.9882    1.5871    3.6702 H   0  0  0  0  0  0  0  0  0  0  0  0
    0.3733    2.3099    3.8720 H   0  0  0  0  0  0  0  0  0  0  0  0
  5  6  2  0  0  0  0
  5  7  1  0  0  0  0
  2  3  1  0  0  0  0
  2  4  1  0  0  0  0
  2  5  1  0  0  0  0
  1  2  1  0  0  0  0
 26 27  2  0  0  0  0
 26 28  1  0  0  0  0
 23 24  1  0  0  0  0
 23 25  1  0  0  0  0
 20 21  1  0  0  0  0
 20 22  1  0  0  0  0
 20 23  1  0  0  0  0
 17 18  1  0  0  0  0
 17 19  1  0  0  0  0
 17 20  1  0  0  0  0
 14 15  1  0  0  0  0
 14 16  1  0  0  0  0
 14 17  1  0  0  0  0
 11 12  1  0  0  0  0
 11 13  1  0  0  0  0
 11 14  1  0  0  0  0
  9 10  1  0  0  0  0
  9 11  1  0  0  0  0
  9 26  1  0  0  0  0
  7  8  1  0  0  0  0
  7  9  1  0  0  0  0
 30 31  1  0  0  0  0
 30 32  1  0  0  0  0
 30 33  1  0  0  0  0
 28 29  1  0  0  0  0
 28 30  1  0  0  0  0
M  END
$$$$
default_name
  -OEChem-01062215323D

 33 32  0     1  0  0  0  0  0999 V2000
   -3.8420   -3.6918    1.5562 H   0  0  0  0  0  0  0  0  0  0  0  0
   -3.8430   -2.7008    1.1032 C   0  0  0  0  0  0  0  0  0  0  0  0
   -4.5510   -2.0608    1.6242 H   0  0  0  0  0  0  0  0  0  0  0  0
   -4.1140   -2.7798    0.0522 H   0  0  0  0  0  0  0  0  0  0  0  0
   -2.4570   -2.1098    1.2172 C   0  0  0  0  0  0  0  0  0  0  0  0
   -1.5600   -2.7438    1.7572 O   0  0  0  0  0  0  0  0  0  0  0  0
   -2.2870   -0.8898    0.7102 N   0  0  0  0  0  0  0  0  0  0  0  0
   -3.0820   -0.4218    0.2992 H   0  0  0  0  0  0  0  0  0  0  0  0
   -1.0240   -0.1468    0.7262 C   0  0  1  0  0  0  0  0  0  0  0  0
   -0.2680   -0.7367    0.2062 H   0  0  0  0  0  0  0  0  0  0  0  0
   -1.2212    1.1806   -0.0314 C   0  0  0  0  0  0  0  0  0  0  0  0
   -2.0942    1.6899    0.3820 H   0  0  0  0  0  0  0  0  0  0  0  0
   -0.3494    1.8174    0.1257 H   0  0  0  0  0  0  0  0  0  0  0  0
   -1.4456    0.9923   -1.5399 C   0  0  0  0  0  0  0  0  0  0  0  0
   -0.5914    0.4730   -1.9751 H   0  0  0  0  0  0  0  0  0  0  0  0
   -2.3453    0.3946   -1.6971 H   0  0  0  0  0  0  0  0  0  0  0  0
   -1.6103    2.3451   -2.2418 C   0  0  0  0  0  0  0  0  0  0  0  0
   -2.4572    2.8805   -1.8117 H   0  0  0  0  0  0  0  0  0  0  0  0
   -0.7043    2.9368   -2.1078 H   0  0  0  0  0  0  0  0  0  0  0  0
   -1.8564    2.1284   -3.7337 C   0  0  0  0  0  0  0  0  0  0  0  0
   -1.0036    1.6102   -4.1692 H   0  0  0  0  0  0  0  0  0  0  0  0
   -2.7509    1.5226   -3.8688 H   0  0  0  0  0  0  0  0  0  0  0  0
   -2.0423    3.4048   -4.4334 N   0  0  0  0  0  0  0  0  0  0  0  0
   -2.1882    3.2251   -5.4159 H   0  0  0  0  0  0  0  0  0  0  0  0
   -2.8519    3.8754   -4.0546 H   0  0  0  0  0  0  0  0  0  0  0  0
   -0.5564    0.0727    2.1744 C   0  0  0  0  0  0  0  0  0  0  0  0
   -1.2310   -0.3502    3.1108 O   0  0  0  0  0  0  0  0  0  0  0  0
    0.5895    0.7404    2.3523 N   0  0  0  0  0  0  0  0  0  0  0  0
    1.0919    1.0417    1.5335 H   0  0  0  0  0  0  0  0  0  0  0  0
    1.1615    1.0450    3.6629 C   0  0  0  0  0  0  0  0  0  0  0  0
    1.2798    0.1235    4.2371 H   0  0  0  0  0  0  0  0  0  0  0  0
    2.1340    1.5263    3.5501 H   0  0  0  0  0  0  0  0  0  0  0  0
    0.4906    1.7100    4.2107 H   0  0  0  0  0  0  0  0  0  0  0  0
  5  6  2  0  0  0  0
  5  7  1  0  0  0  0
  2  3  1  0  0  0  0
  2  4  1  0  0  0  0
  2  5  1  0  0  0  0
  1  2  1  0  0  0  0
 26 27  2  0  0  0  0
 26 28  1  0  0  0  0
 23 24  1  0  0  0  0
 23 25  1  0  0  0  0
 20 21  1  0  0  0  0
 20 22  1  0  0  0  0
 20 23  1  0  0  0  0
 17 18  1  0  0  0  0
 17 19  1  0  0  0  0
 17 20  1  0  0  0  0
 14 15  1  0  0  0  0
 14 16  1  0  0  0  0
 14 17  1  0  0  0  0
 11 12  1  0  0  0  0
 11 13  1  0  0  0  0
 11 14  1  0  0  0  0
  9 10  1  0  0  0  0
  9 11  1  0  0  0  0
  9 26  1  0  0  0  0
  7  8  1  0  0  0  0
  7  9  1  0  0  0  0
 30 31  1  0  0  0  0
 30 32  1  0  0  0  0
 30 33  1  0  0  0  0
 28 29  1  0  0  0  0
 28 30  1  0  0  0  0
M  END
$$$$
default_name
  -OEChem-01062215323D

 33 32  0     1  0  0  0  0  0999 V2000
   -3.8420   -3.6918    1.5562 H   0  0  0  0  0  0  0  0  0  0  0  0
   -3.8430   -2.7008    1.1032 C   0  0  0  0  0  0  0  0  0  0  0  0
   -4.5510   -2.0608    1.6242 H   0  0  0  0  0  0  0  0  0  0  0  0
   -4.1140   -2.7798    0.0522 H   0  0  0  0  0  0  0  0  0  0  0  0
   -2.4570   -2.1098    1.2172 C   0  0  0  0  0  0  0  0  0  0  0  0
   -1.5600   -2.7438    1.7572 O   0  0  0  0  0  0  0  0  0  0  0  0
   -2.2870   -0.8898    0.7102 N   0  0  0  0  0  0  0  0  0  0  0  0
   -3.0820   -0.4218    0.2992 H   0  0  0  0  0  0  0  0  0  0  0  0
   -1.0240   -0.1468    0.7262 C   0  0  1  0  0  0  0  0  0  0  0  0
   -0.2680   -0.7367    0.2062 H   0  0  0  0  0  0  0  0  0  0  0  0
   -1.2212    1.1806   -0.0314 C   0  0  0  0  0  0  0  0  0  0  0  0
   -2.0942    1.6899    0.3820 H   0  0  0  0  0  0  0  0  0  0  0  0
   -0.3494    1.8174    0.1257 H   0  0  0  0  0  0  0  0  0  0  0  0
   -1.4456    0.9923   -1.5399 C   0  0  0  0  0  0  0  0  0  0  0  0
   -0.5914    0.4730   -1.9751 H   0  0  0  0  0  0  0  0  0  0  0  0
   -2.3453    0.3946   -1.6971 H   0  0  0  0  0  0  0  0  0  0  0  0
   -1.6103    2.3451   -2.2418 C   0  0  0  0  0  0  0  0  0  0  0  0
   -2.4572    2.8805   -1.8117 H   0  0  0  0  0  0  0  0  0  0  0  0
   -0.7043    2.9368   -2.1078 H   0  0  0  0  0  0  0  0  0  0  0  0
   -1.8564    2.1284   -3.7337 C   0  0  0  0  0  0  0  0  0  0  0  0
   -1.0036    1.6102   -4.1692 H   0  0  0  0  0  0  0  0  0  0  0  0
   -2.7509    1.5226   -3.8688 H   0  0  0  0  0  0  0  0  0  0  0  0
   -2.0423    3.4048   -4.4334 N   0  0  0  0  0  0  0  0  0  0  0  0
   -2.1882    3.2251   -5.4159 H   0  0  0  0  0  0  0  0  0  0  0  0
   -2.8519    3.8754   -4.0546 H   0  0  0  0  0  0  0  0  0  0  0  0
   -0.5564    0.0727    2.1744 C   0  0  0  0  0  0  0  0  0  0  0  0
   -1.0639   -0.5710    3.0903 O   0  0  0  0  0  0  0  0  0  0  0  0
    0.4005    0.9860    2.3761 N   0  0  0  0  0  0  0  0  0  0  0  0
    0.7762    1.4611    1.5718 H   0  0  0  0  0  0  0  0  0  0  0  0
    0.9423    1.3235    3.6915 C   0  0  0  0  0  0  0  0  0  0  0  0
    1.3070    0.4191    4.1835 H   0  0  0  0  0  0  0  0  0  0  0  0
    1.7629    2.0356    3.5928 H   0  0  0  0  0  0  0  0  0  0  0  0
    0.1566    1.7612    4.3108 H   0  0  0  0  0  0  0  0  0  0  0  0
  5  6  2  0  0  0  0
  5  7  1  0  0  0  0
  2  3  1  0  0  0  0
  2  4  1  0  0  0  0
  2  5  1  0  0  0  0
  1  2  1  0  0  0  0
 26 27  2  0  0  0  0
 26 28  1  0  0  0  0
 23 24  1  0  0  0  0
 23 25  1  0  0  0  0
 20 21  1  0  0  0  0
 20 22  1  0  0  0  0
 20 23  1  0  0  0  0
 17 18  1  0  0  0  0
 17 19  1  0  0  0  0
 17 20  1  0  0  0  0
 14 15  1  0  0  0  0
 14 16  1  0  0  0  0
 14 17  1  0  0  0  0
 11 12  1  0  0  0  0
 11 13  1  0  0  0  0
 11 14  1  0  0  0  0
  9 10  1  0  0  0  0
  9 11  1  0  0  0  0
  9 26  1  0  0  0  0
  7  8  1  0  0  0  0
  7  9  1  0  0  0  0
 30 31  1  0  0  0  0
 30 32  1  0  0  0  0
 30 33  1  0  0  0  0
 28 29  1  0  0  0  0
 28 30  1  0  0  0  0
M  END
$$$$
default_name
  -OEChem-01062215323D

 33 32  0     1  0  0  0  0  0999 V2000
   -3.8420   -3.6918    1.5562 H   0  0  0  0  0  0  0  0  0  0  0  0
   -3.8430   -2.7008    1.1032 C   0  0  0  0  0  0  0  0  0  0  0  0
   -4.5510   -2.0608    1.6242 H   0  0  0  0  0  0  0  0  0  0  0  0
   -4.1140   -2.7798    0.0522 H   0  0  0  0  0  0  0  0  0  0  0  0
   -2.4570   -2.1098    1.2172 C   0  0  0  0  0  0  0  0  0  0  0  0
   -1.5600   -2.7438    1.7572 O   0  0  0  0  0  0  0  0  0  0  0  0
   -2.2870   -0.8898    0.7102 N   0  0  0  0  0  0  0  0  0  0  0  0
   -3.0820   -0.4218    0.2992 H   0  0  0  0  0  0  0  0  0  0  0  0
   -1.0240   -0.1468    0.7262 C   0  0  1  0  0  0  0  0  0  0  0  0
   -0.2680   -0.7367    0.2062 H   0  0  0  0  0  0  0  0  0  0  0  0
   -1.2212    1.1806   -0.0314 C   0  0  0  0  0  0  0  0  0  0  0  0
   -2.0942    1.6899    0.3820 H   0  0  0  0  0  0  0  0  0  0  0  0
   -0.3494    1.8174    0.1257 H   0  0  0  0  0  0  0  0  0  0  0  0
   -1.4456    0.9923   -1.5399 C   0  0  0  0  0  0  0  0  0  0  0  0
   -0.5914    0.4730   -1.9751 H   0  0  0  0  0  0  0  0  0  0  0  0
   -2.3453    0.3946   -1.6971 H   0  0  0  0  0  0  0  0  0  0  0  0
   -1.6103    2.3451   -2.2418 C   0  0  0  0  0  0  0  0  0  0  0  0
   -2.4572    2.8805   -1.8117 H   0  0  0  0  0  0  0  0  0  0  0  0
   -0.7043    2.9368   -2.1078 H   0  0  0  0  0  0  0  0  0  0  0  0
   -1.8564    2.1284   -3.7337 C   0  0  0  0  0  0  0  0  0  0  0  0
   -1.0036    1.6102   -4.1692 H   0  0  0  0  0  0  0  0  0  0  0  0
   -2.7509    1.5226   -3.8688 H   0  0  0  0  0  0  0  0  0  0  0  0
   -2.0423    3.4048   -4.4334 N   0  0  0  0  0  0  0  0  0  0  0  0
   -2.1882    3.2251   -5.4159 H   0  0  0  0  0  0  0  0  0  0  0  0
   -2.8519    3.8754   -4.0546 H   0  0  0  0  0  0  0  0  0  0  0  0
   -0.5564    0.0727    2.1744 C   0  0  0  0  0  0  0  0  0  0  0  0
   -0.8495   -0.7419    3.0470 O   0  0  0  0  0  0  0  0  0  0  0  0
    0.1591    1.1752    2.4254 N   0  0  0  0  0  0  0  0  0  0  0  0
    0.3705    1.7862    1.6536 H   0  0  0  0  0  0  0  0  0  0  0  0
    0.6637    1.5368    3.7491 C   0  0  0  0  0  0  0  0  0  0  0  0
    1.2593    0.7156    4.1540 H   0  0  0  0  0  0  0  0  0  0  0  0
    1.2818    2.4337    3.6878 H   0  0  0  0  0  0  0  0  0  0  0  0
   -0.1748    1.7213    4.4238 H   0  0  0  0  0  0  0  0  0  0  0  0
  5  6  2  0  0  0  0
  5  7  1  0  0  0  0
  2  3  1  0  0  0  0
  2  4  1  0  0  0  0
  2  5  1  0  0  0  0
  1  2  1  0  0  0  0
 26 27  2  0  0  0  0
 26 28  1  0  0  0  0
 23 24  1  0  0  0  0
 23 25  1  0  0  0  0
 20 21  1  0  0  0  0
 20 22  1  0  0  0  0
 20 23  1  0  0  0  0
 17 18  1  0  0  0  0
 17 19  1  0  0  0  0
 17 20  1  0  0  0  0
 14 15  1  0  0  0  0
 14 16  1  0  0  0  0
 14 17  1  0  0  0  0
 11 12  1  0  0  0  0
 11 13  1  0  0  0  0
 11 14  1  0  0  0  0
  9 10  1  0  0  0  0
  9 11  1  0  0  0  0
  9 26  1  0  0  0  0
  7  8  1  0  0  0  0
  7  9  1  0  0  0  0
 30 31  1  0  0  0  0
 30 32  1  0  0  0  0
 30 33  1  0  0  0  0
 28 29  1  0  0  0  0
 28 30  1  0  0  0  0
M  END
$$$$
default_name
  -OEChem-01062215323D

 33 32  0     1  0  0  0  0  0999 V2000
   -3.8420   -3.6918    1.5562 H   0  0  0  0  0  0  0  0  0  0  0  0
   -3.8430   -2.7008    1.1032 C   0  0  0  0  0  0  0  0  0  0  0  0
   -4.5510   -2.0608    1.6242 H   0  0  0  0  0  0  0  0  0  0  0  0
   -4.1140   -2.7798    0.0522 H   0  0  0  0  0  0  0  0  0  0  0  0
   -2.4570   -2.1098    1.2172 C   0  0  0  0  0  0  0  0  0  0  0  0
   -1.5600   -2.7438    1.7572 O   0  0  0  0  0  0  0  0  0  0  0  0
   -2.2870   -0.8898    0.7102 N   0  0  0  0  0  0  0  0  0  0  0  0
   -3.0820   -0.4218    0.2992 H   0  0  0  0  0  0  0  0  0  0  0  0
   -1.0240   -0.1468    0.7262 C   0  0  1  0  0  0  0  0  0  0  0  0
   -0.2680   -0.7367    0.2062 H   0  0  0  0  0  0  0  0  0  0  0  0
   -1.2212    1.1806   -0.0314 C   0  0  0  0  0  0  0  0  0  0  0  0
   -2.0942    1.6899    0.3820 H   0  0  0  0  0  0  0  0  0  0  0  0
   -0.3494    1.8174    0.1257 H   0  0  0  0  0  0  0  0  0  0  0  0
   -1.4456    0.9923   -1.5399 C   0  0  0  0  0  0  0  0  0  0  0  0
   -0.5914    0.4730   -1.9751 H   0  0  0  0  0  0  0  0  0  0  0  0
   -2.3453    0.3946   -1.6971 H   0  0  0  0  0  0  0  0  0  0  0  0
   -1.6103    2.3451   -2.2418 C   0  0  0  0  0  0  0  0  0  0  0  0
   -2.4572    2.8805   -1.8117 H   0  0  0  0  0  0  0  0  0  0  0  0
   -0.7043    2.9368   -2.1078 H   0  0  0  0  0  0  0  0  0  0  0  0
   -1.8564    2.1284   -3.7337 C   0  0  0  0  0  0  0  0  0  0  0  0
   -1.0036    1.6102   -4.1692 H   0  0  0  0  0  0  0  0  0  0  0  0
   -2.7509    1.5226   -3.8688 H   0  0  0  0  0  0  0  0  0  0  0  0
   -2.0423    3.4048   -4.4334 N   0  0  0  0  0  0  0  0  0  0  0  0
   -2.1882    3.2251   -5.4159 H   0  0  0  0  0  0  0  0  0  0  0  0
   -2.8519    3.8754   -4.0546 H   0  0  0  0  0  0  0  0  0  0  0  0
   -0.5564    0.0727    2.1744 C   0  0  0  0  0  0  0  0  0  0  0  0
   -0.6023   -0.8513    2.9837 O   0  0  0  0  0  0  0  0  0  0  0  0
   -0.1185    1.2953    2.4968 N   0  0  0  0  0  0  0  0  0  0  0  0
   -0.0977    1.9950    1.7732 H   0  0  0  0  0  0  0  0  0  0  0  0
    0.3448    1.6704    3.8319 C   0  0  0  0  0  0  0  0  0  0  0  0
    1.1398    0.9927    4.1506 H   0  0  0  0  0  0  0  0  0  0  0  0
    0.7236    2.6935    3.8287 H   0  0  0  0  0  0  0  0  0  0  0  0
   -0.4810    1.5930    4.5421 H   0  0  0  0  0  0  0  0  0  0  0  0
  5  6  2  0  0  0  0
  5  7  1  0  0  0  0
  2  3  1  0  0  0  0
  2  4  1  0  0  0  0
  2  5  1  0  0  0  0
  1  2  1  0  0  0  0
 26 27  2  0  0  0  0
 26 28  1  0  0  0  0
 23 24  1  0  0  0  0
 23 25  1  0  0  0  0
 20 21  1  0  0  0  0
 20 22  1  0  0  0  0
 20 23  1  0  0  0  0
 17 18  1  0  0  0  0
 17 19  1  0  0  0  0
 17 20  1  0  0  0  0
 14 15  1  0  0  0  0
 14 16  1  0  0  0  0
 14 17  1  0  0  0  0
 11 12  1  0  0  0  0
 11 13  1  0  0  0  0
 11 14  1  0  0  0  0
  9 10  1  0  0  0  0
  9 11  1  0  0  0  0
  9 26  1  0  0  0  0
  7  8  1  0  0  0  0
  7  9  1  0  0  0  0
 30 31  1  0  0  0  0
 30 32  1  0  0  0  0
 30 33  1  0  0  0  0
 28 29  1  0  0  0  0
 28 30  1  0  0  0  0
M  END
$$$$
default_name
  -OEChem-01062215323D

 33 32  0     1  0  0  0  0  0999 V2000
   -3.8420   -3.6918    1.5562 H   0  0  0  0  0  0  0  0  0  0  0  0
   -3.8430   -2.7008    1.1032 C   0  0  0  0  0  0  0  0  0  0  0  0
   -4.5510   -2.0608    1.6242 H   0  0  0  0  0  0  0  0  0  0  0  0
   -4.1140   -2.7798    0.0522 H   0  0  0  0  0  0  0  0  0  0  0  0
   -2.4570   -2.1098    1.2172 C   0  0  0  0  0  0  0  0  0  0  0  0
   -1.5600   -2.7438    1.7572 O   0  0  0  0  0  0  0  0  0  0  0  0
   -2.2870   -0.8898    0.7102 N   0  0  0  0  0  0  0  0  0  0  0  0
   -3.0820   -0.4218    0.2992 H   0  0  0  0  0  0  0  0  0  0  0  0
   -1.0240   -0.1468    0.7262 C   0  0  1  0  0  0  0  0  0  0  0  0
   -0.2680   -0.7367    0.2062 H   0  0  0  0  0  0  0  0  0  0  0  0
   -1.2212    1.1806   -0.0314 C   0  0  0  0  0  0  0  0  0  0  0  0
   -2.0942    1.6899    0.3820 H   0  0  0  0  0  0  0  0  0  0  0  0
   -0.3494    1.8174    0.1257 H   0  0  0  0  0  0  0  0  0  0  0  0
   -1.4456    0.9923   -1.5399 C   0  0  0  0  0  0  0  0  0  0  0  0
   -0.5914    0.4730   -1.9751 H   0  0  0  0  0  0  0  0  0  0  0  0
   -2.3453    0.3946   -1.6971 H   0  0  0  0  0  0  0  0  0  0  0  0
   -1.6103    2.3451   -2.2418 C   0  0  0  0  0  0  0  0  0  0  0  0
   -2.4572    2.8805   -1.8117 H   0  0  0  0  0  0  0  0  0  0  0  0
   -0.7043    2.9368   -2.1078 H   0  0  0  0  0  0  0  0  0  0  0  0
   -1.8564    2.1284   -3.7337 C   0  0  0  0  0  0  0  0  0  0  0  0
   -1.0036    1.6102   -4.1692 H   0  0  0  0  0  0  0  0  0  0  0  0
   -2.7509    1.5226   -3.8688 H   0  0  0  0  0  0  0  0  0  0  0  0
   -2.0423    3.4048   -4.4334 N   0  0  0  0  0  0  0  0  0  0  0  0
   -2.1882    3.2251   -5.4159 H   0  0  0  0  0  0  0  0  0  0  0  0
   -2.8519    3.8754   -4.0546 H   0  0  0  0  0  0  0  0  0  0  0  0
   -0.5564    0.0727    2.1744 C   0  0  0  0  0  0  0  0  0  0  0  0
   -0.3392   -0.8917    2.9049 O   0  0  0  0  0  0  0  0  0  0  0  0
   -0.4132    1.3379    2.5855 N   0  0  0  0  0  0  0  0  0  0  0  0
   -0.5964    2.0730    1.9224 H   0  0  0  0  0  0  0  0  0  0  0  0
    0.0072    1.7152    3.9341 C   0  0  0  0  0  0  0  0  0  0  0  0
    0.9567    1.2314    4.1735 H   0  0  0  0  0  0  0  0  0  0  0  0
    0.1263    2.7973    4.0059 H   0  0  0  0  0  0  0  0  0  0  0  0
   -0.7411    1.3852    4.6576 H   0  0  0  0  0  0  0  0  0  0  0  0
  5  6  2  0  0  0  0
  5  7  1  0  0  0  0
  2  3  1  0  0  0  0
  2  4  1  0  0  0  0
  2  5  1  0  0  0  0
  1  2  1  0  0  0  0
 26 27  2  0  0  0  0
 26 28  1  0  0  0  0
 23 24  1  0  0  0  0
 23 25  1  0  0  0  0
 20 21  1  0  0  0  0
 20 22  1  0  0  0  0
 20 23  1  0  0  0  0
 17 18  1  0  0  0  0
 17 19  1  0  0  0  0
 17 20  1  0  0  0  0
 14 15  1  0  0  0  0
 14 16  1  0  0  0  0
 14 17  1  0  0  0  0
 11 12  1  0  0  0  0
 11 13  1  0  0  0  0
 11 14  1  0  0  0  0
  9 10  1  0  0  0  0
  9 11  1  0  0  0  0
  9 26  1  0  0  0  0
  7  8  1  0  0  0  0
  7  9  1  0  0  0  0
 30 31  1  0  0  0  0
 30 32  1  0  0  0  0
 30 33  1  0  0  0  0
 28 29  1  0  0  0  0
 28 30  1  0  0  0  0
M  END
$$$$
default_name
  -OEChem-01062215323D

 33 32  0     1  0  0  0  0  0999 V2000
   -3.8420   -3.6918    1.5562 H   0  0  0  0  0  0  0  0  0  0  0  0
   -3.8430   -2.7008    1.1032 C   0  0  0  0  0  0  0  0  0  0  0  0
   -4.5510   -2.0608    1.6242 H   0  0  0  0  0  0  0  0  0  0  0  0
   -4.1140   -2.7798    0.0522 H   0  0  0  0  0  0  0  0  0  0  0  0
   -2.4570   -2.1098    1.2172 C   0  0  0  0  0  0  0  0  0  0  0  0
   -1.5600   -2.7438    1.7572 O   0  0  0  0  0  0  0  0  0  0  0  0
   -2.2870   -0.8898    0.7102 N   0  0  0  0  0  0  0  0  0  0  0  0
   -3.0820   -0.4218    0.2992 H   0  0  0  0  0  0  0  0  0  0  0  0
   -1.0240   -0.1468    0.7262 C   0  0  1  0  0  0  0  0  0  0  0  0
   -0.2680   -0.7367    0.2062 H   0  0  0  0  0  0  0  0  0  0  0  0
   -1.2212    1.1806   -0.0314 C   0  0  0  0  0  0  0  0  0  0  0  0
   -2.0942    1.6899    0.3820 H   0  0  0  0  0  0  0  0  0  0  0  0
   -0.3494    1.8174    0.1257 H   0  0  0  0  0  0  0  0  0  0  0  0
   -1.4456    0.9923   -1.5399 C   0  0  0  0  0  0  0  0  0  0  0  0
   -0.5914    0.4730   -1.9751 H   0  0  0  0  0  0  0  0  0  0  0  0
   -2.3453    0.3946   -1.6971 H   0  0  0  0  0  0  0  0  0  0  0  0
   -1.6103    2.3451   -2.2418 C   0  0  0  0  0  0  0  0  0  0  0  0
   -2.4572    2.8805   -1.8117 H   0  0  0  0  0  0  0  0  0  0  0  0
   -0.7043    2.9368   -2.1078 H   0  0  0  0  0  0  0  0  0  0  0  0
   -1.8564    2.1284   -3.7337 C   0  0  0  0  0  0  0  0  0  0  0  0
   -1.0036    1.6102   -4.1692 H   0  0  0  0  0  0  0  0  0  0  0  0
   -2.7509    1.5226   -3.8688 H   0  0  0  0  0  0  0  0  0  0  0  0
   -2.0423    3.4048   -4.4334 N   0  0  0  0  0  0  0  0  0  0  0  0
   -2.1882    3.2251   -5.4159 H   0  0  0  0  0  0  0  0  0  0  0  0
   -2.8519    3.8754   -4.0546 H   0  0  0  0  0  0  0  0  0  0  0  0
   -0.5564    0.0727    2.1744 C   0  0  0  0  0  0  0  0  0  0  0  0
   -0.0781   -0.8605    2.8159 O   0  0  0  0  0  0  0  0  0  0  0  0
   -0.7050    1.3003    2.6854 N   0  0  0  0  0  0  0  0  0  0  0  0
   -1.0916    2.0151    2.0911 H   0  0  0  0  0  0  0  0  0  0  0  0
   -0.3260    1.6681    4.0488 C   0  0  0  0  0  0  0  0  0  0  0  0
    0.7225    1.4156    4.2212 H   0  0  0  0  0  0  0  0  0  0  0  0
   -0.4695    2.7379    4.2072 H   0  0  0  0  0  0  0  0  0  0  0  0
   -0.9375    1.1120    4.7624 H   0  0  0  0  0  0  0  0  0  0  0  0
  5  6  2  0  0  0  0
  5  7  1  0  0  0  0
  2  3  1  0  0  0  0
  2  4  1  0  0  0  0
  2  5  1  0  0  0  0
  1  2  1  0  0  0  0
 26 27  2  0  0  0  0
 26 28  1  0  0  0  0
 23 24  1  0  0  0  0
 23 25  1  0  0  0  0
 20 21  1  0  0  0  0
 20 22  1  0  0  0  0
 20 23  1  0  0  0  0
 17 18  1  0  0  0  0
 17 19  1  0  0  0  0
 17 20  1  0  0  0  0
 14 15  1  0  0  0  0
 14 16  1  0  0  0  0
 14 17  1  0  0  0  0
 11 12  1  0  0  0  0
 11 13  1  0  0  0  0
 11 14  1  0  0  0  0
  9 10  1  0  0  0  0
  9 11  1  0  0  0  0
  9 26  1  0  0  0  0
  7  8  1  0  0  0  0
  7  9  1  0  0  0  0
 30 31  1  0  0  0  0
 30 32  1  0  0  0  0
 30 33  1  0  0  0  0
 28 29  1  0  0  0  0
 28 30  1  0  0  0  0
M  END
$$$$
default_name
  -OEChem-01062215323D

 33 32  0     1  0  0  0  0  0999 V2000
   -3.8420   -3.6918    1.5562 H   0  0  0  0  0  0  0  0  0  0  0  0
   -3.8430   -2.7008    1.1032 C   0  0  0  0  0  0  0  0  0  0  0  0
   -4.5510   -2.0608    1.6242 H   0  0  0  0  0  0  0  0  0  0  0  0
   -4.1140   -2.7798    0.0522 H   0  0  0  0  0  0  0  0  0  0  0  0
   -2.4570   -2.1098    1.2172 C   0  0  0  0  0  0  0  0  0  0  0  0
   -1.5600   -2.7438    1.7572 O   0  0  0  0  0  0  0  0  0  0  0  0
   -2.2870   -0.8898    0.7102 N   0  0  0  0  0  0  0  0  0  0  0  0
   -3.0820   -0.4218    0.2992 H   0  0  0  0  0  0  0  0  0  0  0  0
   -1.0240   -0.1468    0.7262 C   0  0  1  0  0  0  0  0  0  0  0  0
   -0.2680   -0.7367    0.2062 H   0  0  0  0  0  0  0  0  0  0  0  0
   -1.2212    1.1806   -0.0314 C   0  0  0  0  0  0  0  0  0  0  0  0
   -2.0942    1.6899    0.3820 H   0  0  0  0  0  0  0  0  0  0  0  0
   -0.3494    1.8174    0.1257 H   0  0  0  0  0  0  0  0  0  0  0  0
   -1.4456    0.9923   -1.5399 C   0  0  0  0  0  0  0  0  0  0  0  0
   -0.5914    0.4730   -1.9751 H   0  0  0  0  0  0  0  0  0  0  0  0
   -2.3453    0.3946   -1.6971 H   0  0  0  0  0  0  0  0  0  0  0  0
   -1.6103    2.3451   -2.2418 C   0  0  0  0  0  0  0  0  0  0  0  0
   -2.4572    2.8805   -1.8117 H   0  0  0  0  0  0  0  0  0  0  0  0
   -0.7043    2.9368   -2.1078 H   0  0  0  0  0  0  0  0  0  0  0  0
   -1.8564    2.1284   -3.7337 C   0  0  0  0  0  0  0  0  0  0  0  0
   -1.0036    1.6102   -4.1692 H   0  0  0  0  0  0  0  0  0  0  0  0
   -2.7509    1.5226   -3.8688 H   0  0  0  0  0  0  0  0  0  0  0  0
   -2.0423    3.4048   -4.4334 N   0  0  0  0  0  0  0  0  0  0  0  0
   -2.1882    3.2251   -5.4159 H   0  0  0  0  0  0  0  0  0  0  0  0
   -2.8519    3.8754   -4.0546 H   0  0  0  0  0  0  0  0  0  0  0  0
   -0.5564    0.0727    2.1744 C   0  0  0  0  0  0  0  0  0  0  0  0
    0.1631   -0.7596    2.7227 O   0  0  0  0  0  0  0  0  0  0  0  0
   -0.9740    1.1850    2.7898 N   0  0  0  0  0  0  0  0  0  0  0  0
   -1.5495    1.8252    2.2677 H   0  0  0  0  0  0  0  0  0  0  0  0
   -0.6322    1.5324    4.1683 C   0  0  0  0  0  0  0  0  0  0  0  0
    0.4532    1.5327    4.2905 H   0  0  0  0  0  0  0  0  0  0  0  0
   -1.0230    2.5196    4.4191 H   0  0  0  0  0  0  0  0  0  0  0  0
   -1.0566    0.7919    4.8494 H   0  0  0  0  0  0  0  0  0  0  0  0
  5  6  2  0  0  0  0
  5  7  1  0  0  0  0
  2  3  1  0  0  0  0
  2  4  1  0  0  0  0
  2  5  1  0  0  0  0
  1  2  1  0  0  0  0
 26 27  2  0  0  0  0
 26 28  1  0  0  0  0
 23 24  1  0  0  0  0
 23 25  1  0  0  0  0
 20 21  1  0  0  0  0
 20 22  1  0  0  0  0
 20 23  1  0  0  0  0
 17 18  1  0  0  0  0
 17 19  1  0  0  0  0
 17 20  1  0  0  0  0
 14 15  1  0  0  0  0
 14 16  1  0  0  0  0
 14 17  1  0  0  0  0
 11 12  1  0  0  0  0
 11 13  1  0  0  0  0
 11 14  1  0  0  0  0
  9 10  1  0  0  0  0
  9 11  1  0  0  0  0
  9 26  1  0  0  0  0
  7  8  1  0  0  0  0
  7  9  1  0  0  0  0
 30 31  1  0  0  0  0
 30 32  1  0  0  0  0
 30 33  1  0  0  0  0
 28 29  1  0  0  0  0
 28 30  1  0  0  0  0
M  END
$$$$
default_name
  -OEChem-01062215323D

 33 32  0     1  0  0  0  0  0999 V2000
   -3.8420   -3.6918    1.5562 H   0  0  0  0  0  0  0  0  0  0  0  0
   -3.8430   -2.7008    1.1032 C   0  0  0  0  0  0  0  0  0  0  0  0
   -4.5510   -2.0608    1.6242 H   0  0  0  0  0  0  0  0  0  0  0  0
   -4.1140   -2.7798    0.0522 H   0  0  0  0  0  0  0  0  0  0  0  0
   -2.4570   -2.1098    1.2172 C   0  0  0  0  0  0  0  0  0  0  0  0
   -1.5600   -2.7438    1.7572 O   0  0  0  0  0  0  0  0  0  0  0  0
   -2.2870   -0.8898    0.7102 N   0  0  0  0  0  0  0  0  0  0  0  0
   -3.0820   -0.4218    0.2992 H   0  0  0  0  0  0  0  0  0  0  0  0
   -1.0240   -0.1468    0.7262 C   0  0  1  0  0  0  0  0  0  0  0  0
   -0.2680   -0.7367    0.2062 H   0  0  0  0  0  0  0  0  0  0  0  0
   -1.2212    1.1806   -0.0314 C   0  0  0  0  0  0  0  0  0  0  0  0
   -2.0942    1.6899    0.3820 H   0  0  0  0  0  0  0  0  0  0  0  0
   -0.3494    1.8174    0.1257 H   0  0  0  0  0  0  0  0  0  0  0  0
   -1.4456    0.9923   -1.5399 C   0  0  0  0  0  0  0  0  0  0  0  0
   -0.5914    0.4730   -1.9751 H   0  0  0  0  0  0  0  0  0  0  0  0
   -2.3453    0.3946   -1.6971 H   0  0  0  0  0  0  0  0  0  0  0  0
   -1.6103    2.3451   -2.2418 C   0  0  0  0  0  0  0  0  0  0  0  0
   -2.4572    2.8805   -1.8117 H   0  0  0  0  0  0  0  0  0  0  0  0
   -0.7043    2.9368   -2.1078 H   0  0  0  0  0  0  0  0  0  0  0  0
   -1.8564    2.1284   -3.7337 C   0  0  0  0  0  0  0  0  0  0  0  0
   -1.0036    1.6102   -4.1692 H   0  0  0  0  0  0  0  0  0  0  0  0
   -2.7509    1.5226   -3.8688 H   0  0  0  0  0  0  0  0  0  0  0  0
   -2.0423    3.4048   -4.4334 N   0  0  0  0  0  0  0  0  0  0  0  0
   -2.1882    3.2251   -5.4159 H   0  0  0  0  0  0  0  0  0  0  0  0
   -2.8519    3.8754   -4.0546 H   0  0  0  0  0  0  0  0  0  0  0  0
   -0.5564    0.0727    2.1744 C   0  0  0  0  0  0  0  0  0  0  0  0
    0.3681   -0.5960    2.6317 O   0  0  0  0  0  0  0  0  0  0  0  0
   -1.2018    0.9999    2.8914 N   0  0  0  0  0  0  0  0  0  0  0  0
   -1.9391    1.5162    2.4404 H   0  0  0  0  0  0  0  0  0  0  0  0
   -0.8904    1.3172    4.2843 C   0  0  0  0  0  0  0  0  0  0  0  0
    0.1670    1.5747    4.3765 H   0  0  0  0  0  0  0  0  0  0  0  0
   -1.4966    2.1570    4.6270 H   0  0  0  0  0  0  0  0  0  0  0  0
   -1.0905    0.4469    4.9126 H   0  0  0  0  0  0  0  0  0  0  0  0
  5  6  2  0  0  0  0
  5  7  1  0  0  0  0
  2  3  1  0  0  0  0
  2  4  1  0  0  0  0
  2  5  1  0  0  0  0
  1  2  1  0  0  0  0
 26 27  2  0  0  0  0
 26 28  1  0  0  0  0
 23 24  1  0  0  0  0
 23 25  1  0  0  0  0
 20 21  1  0  0  0  0
 20 22  1  0  0  0  0
 20 23  1  0  0  0  0
 17 18  1  0  0  0  0
 17 19  1  0  0  0  0
 17 20  1  0  0  0  0
 14 15  1  0  0  0  0
 14 16  1  0  0  0  0
 14 17  1  0  0  0  0
 11 12  1  0  0  0  0
 11 13  1  0  0  0  0
 11 14  1  0  0  0  0
  9 10  1  0  0  0  0
  9 11  1  0  0  0  0
  9 26  1  0  0  0  0
  7  8  1  0  0  0  0
  7  9  1  0  0  0  0
 30 31  1  0  0  0  0
 30 32  1  0  0  0  0
 30 33  1  0  0  0  0
 28 29  1  0  0  0  0
 28 30  1  0  0  0  0
M  END
$$$$
default_name
  -OEChem-01062215323D

 33 32  0     1  0  0  0  0  0999 V2000
   -3.8420   -3.6918    1.5562 H   0  0  0  0  0  0  0  0  0  0  0  0
   -3.8430   -2.7008    1.1032 C   0  0  0  0  0  0  0  0  0  0  0  0
   -4.5510   -2.0608    1.6242 H   0  0  0  0  0  0  0  0  0  0  0  0
   -4.1140   -2.7798    0.0522 H   0  0  0  0  0  0  0  0  0  0  0  0
   -2.4570   -2.1098    1.2172 C   0  0  0  0  0  0  0  0  0  0  0  0
   -1.5600   -2.7438    1.7572 O   0  0  0  0  0  0  0  0  0  0  0  0
   -2.2870   -0.8898    0.7102 N   0  0  0  0  0  0  0  0  0  0  0  0
   -3.0820   -0.4218    0.2992 H   0  0  0  0  0  0  0  0  0  0  0  0
   -1.0240   -0.1468    0.7262 C   0  0  1  0  0  0  0  0  0  0  0  0
   -0.2680   -0.7367    0.2062 H   0  0  0  0  0  0  0  0  0  0  0  0
   -1.2212    1.1806   -0.0314 C   0  0  0  0  0  0  0  0  0  0  0  0
   -2.0942    1.6899    0.3820 H   0  0  0  0  0  0  0  0  0  0  0  0
   -0.3494    1.8174    0.1257 H   0  0  0  0  0  0  0  0  0  0  0  0
   -1.4456    0.9923   -1.5399 C   0  0  0  0  0  0  0  0  0  0  0  0
   -0.5914    0.4730   -1.9751 H   0  0  0  0  0  0  0  0  0  0  0  0
   -2.3453    0.3946   -1.6971 H   0  0  0  0  0  0  0  0  0  0  0  0
   -1.6103    2.3451   -2.2418 C   0  0  0  0  0  0  0  0  0  0  0  0
   -2.4572    2.8805   -1.8117 H   0  0  0  0  0  0  0  0  0  0  0  0
   -0.7043    2.9368   -2.1078 H   0  0  0  0  0  0  0  0  0  0  0  0
   -1.8564    2.1284   -3.7337 C   0  0  0  0  0  0  0  0  0  0  0  0
   -1.0036    1.6102   -4.1692 H   0  0  0  0  0  0  0  0  0  0  0  0
   -2.7509    1.5226   -3.8688 H   0  0  0  0  0  0  0  0  0  0  0  0
   -2.0423    3.4048   -4.4334 N   0  0  0  0  0  0  0  0  0  0  0  0
   -2.1882    3.2251   -5.4159 H   0  0  0  0  0  0  0  0  0  0  0  0
   -2.8519    3.8754   -4.0546 H   0  0  0  0  0  0  0  0  0  0  0  0
   -0.5564    0.0727    2.1744 C   0  0  0  0  0  0  0  0  0  0  0  0
    0.5229   -0.3808    2.5491 O   0  0  0  0  0  0  0  0  0  0  0  0
   -1.3730    0.7574    2.9834 N   0  0  0  0  0  0  0  0  0  0  0  0
   -2.2337    1.1092    2.5972 H   0  0  0  0  0  0  0  0  0  0  0  0
   -1.0831    1.0373    4.3889 C   0  0  0  0  0  0  0  0  0  0  0  0
   -0.1164    1.5387    4.4735 H   0  0  0  0  0  0  0  0  0  0  0  0
   -1.8580    1.6750    4.8167 H   0  0  0  0  0  0  0  0  0  0  0  0
   -1.0368    0.1004    4.9478 H   0  0  0  0  0  0  0  0  0  0  0  0
  5  6  2  0  0  0  0
  5  7  1  0  0  0  0
  2  3  1  0  0  0  0
  2  4  1  0  0  0  0
  2  5  1  0  0  0  0
  1  2  1  0  0  0  0
 26 27  2  0  0  0  0
 26 28  1  0  0  0  0
 23 24  1  0  0  0  0
 23 25  1  0  0  0  0
 20 21  1  0  0  0  0
 20 22  1  0  0  0  0
 20 23  1  0  0  0  0
 17 18  1  0  0  0  0
 17 19  1  0  0  0  0
 17 20  1  0  0  0  0
 14 15  1  0  0  0  0
 14 16  1  0  0  0  0
 14 17  1  0  0  0  0
 11 12  1  0  0  0  0
 11 13  1  0  0  0  0
 11 14  1  0  0  0  0
  9 10  1  0  0  0  0
  9 11  1  0  0  0  0
  9 26  1  0  0  0  0
  7  8  1  0  0  0  0
  7  9  1  0  0  0  0
 30 31  1  0  0  0  0
 30 32  1  0  0  0  0
 30 33  1  0  0  0  0
 28 29  1  0  0  0  0
 28 30  1  0  0  0  0
M  END
$$$$
default_name
  -OEChem-01062215323D

 33 32  0     1  0  0  0  0  0999 V2000
   -3.8420   -3.6918    1.5562 H   0  0  0  0  0  0  0  0  0  0  0  0
   -3.8430   -2.7008    1.1032 C   0  0  0  0  0  0  0  0  0  0  0  0
   -4.5510   -2.0608    1.6242 H   0  0  0  0  0  0  0  0  0  0  0  0
   -4.1140   -2.7798    0.0522 H   0  0  0  0  0  0  0  0  0  0  0  0
   -2.4570   -2.1098    1.2172 C   0  0  0  0  0  0  0  0  0  0  0  0
   -1.5600   -2.7438    1.7572 O   0  0  0  0  0  0  0  0  0  0  0  0
   -2.2870   -0.8898    0.7102 N   0  0  0  0  0  0  0  0  0  0  0  0
   -3.0820   -0.4218    0.2992 H   0  0  0  0  0  0  0  0  0  0  0  0
   -1.0240   -0.1468    0.7262 C   0  0  1  0  0  0  0  0  0  0  0  0
   -0.2680   -0.7367    0.2062 H   0  0  0  0  0  0  0  0  0  0  0  0
   -1.2212    1.1806   -0.0314 C   0  0  0  0  0  0  0  0  0  0  0  0
   -2.0942    1.6899    0.3820 H   0  0  0  0  0  0  0  0  0  0  0  0
   -0.3494    1.8174    0.1257 H   0  0  0  0  0  0  0  0  0  0  0  0
   -1.4456    0.9923   -1.5399 C   0  0  0  0  0  0  0  0  0  0  0  0
   -0.5914    0.4730   -1.9751 H   0  0  0  0  0  0  0  0  0  0  0  0
   -2.3453    0.3946   -1.6971 H   0  0  0  0  0  0  0  0  0  0  0  0
   -1.6103    2.3451   -2.2418 C   0  0  0  0  0  0  0  0  0  0  0  0
   -2.4572    2.8805   -1.8117 H   0  0  0  0  0  0  0  0  0  0  0  0
   -0.7043    2.9368   -2.1078 H   0  0  0  0  0  0  0  0  0  0  0  0
   -1.8564    2.1284   -3.7337 C   0  0  0  0  0  0  0  0  0  0  0  0
   -1.0036    1.6102   -4.1692 H   0  0  0  0  0  0  0  0  0  0  0  0
   -2.7509    1.5226   -3.8688 H   0  0  0  0  0  0  0  0  0  0  0  0
   -2.0423    3.4048   -4.4334 N   0  0  0  0  0  0  0  0  0  0  0  0
   -2.1882    3.2251   -5.4159 H   0  0  0  0  0  0  0  0  0  0  0  0
   -2.8519    3.8754   -4.0546 H   0  0  0  0  0  0  0  0  0  0  0  0
   -0.5564    0.0727    2.1744 C   0  0  0  0  0  0  0  0  0  0  0  0
    0.6169   -0.1288    2.4805 O   0  0  0  0  0  0  0  0  0  0  0  0
   -1.4759    0.4743    3.0595 N   0  0  0  0  0  0  0  0  0  0  0  0
   -2.4132    0.6318    2.7275 H   0  0  0  0  0  0  0  0  0  0  0  0
   -1.1971    0.7118    4.4750 C   0  0  0  0  0  0  0  0  0  0  0  0
   -0.3779    1.4272    4.5748 H   0  0  0  0  0  0  0  0  0  0  0  0
   -2.0826    1.1064    4.9754 H   0  0  0  0  0  0  0  0  0  0  0  0
   -0.8992   -0.2240    4.9525 H   0  0  0  0  0  0  0  0  0  0  0  0
  5  6  2  0  0  0  0
  5  7  1  0  0  0  0
  2  3  1  0  0  0  0
  2  4  1  0  0  0  0
  2  5  1  0  0  0  0
  1  2  1  0  0  0  0
 26 27  2  0  0  0  0
 26 28  1  0  0  0  0
 23 24  1  0  0  0  0
 23 25  1  0  0  0  0
 20 21  1  0  0  0  0
 20 22  1  0  0  0  0
 20 23  1  0  0  0  0
 17 18  1  0  0  0  0
 17 19  1  0  0  0  0
 17 20  1  0  0  0  0
 14 15  1  0  0  0  0
 14 16  1  0  0  0  0
 14 17  1  0  0  0  0
 11 12  1  0  0  0  0
 11 13  1  0  0  0  0
 11 14  1  0  0  0  0
  9 10  1  0  0  0  0
  9 11  1  0  0  0  0
  9 26  1  0  0  0  0
  7  8  1  0  0  0  0
  7  9  1  0  0  0  0
 30 31  1  0  0  0  0
 30 32  1  0  0  0  0
 30 33  1  0  0  0  0
 28 29  1  0  0  0  0
 28 30  1  0  0  0  0
M  END
$$$$
default_name
  -OEChem-01062215323D

 33 32  0     1  0  0  0  0  0999 V2000
   -3.8420   -3.6918    1.5562 H   0  0  0  0  0  0  0  0  0  0  0  0
   -3.8430   -2.7008    1.1032 C   0  0  0  0  0  0  0  0  0  0  0  0
   -4.5510   -2.0608    1.6242 H   0  0  0  0  0  0  0  0  0  0  0  0
   -4.1140   -2.7798    0.0522 H   0  0  0  0  0  0  0  0  0  0  0  0
   -2.4570   -2.1098    1.2172 C   0  0  0  0  0  0  0  0  0  0  0  0
   -1.5600   -2.7438    1.7572 O   0  0  0  0  0  0  0  0  0  0  0  0
   -2.2870   -0.8898    0.7102 N   0  0  0  0  0  0  0  0  0  0  0  0
   -3.0820   -0.4218    0.2992 H   0  0  0  0  0  0  0  0  0  0  0  0
   -1.0240   -0.1468    0.7262 C   0  0  1  0  0  0  0  0  0  0  0  0
   -0.2680   -0.7367    0.2062 H   0  0  0  0  0  0  0  0  0  0  0  0
   -1.2212    1.1806   -0.0314 C   0  0  0  0  0  0  0  0  0  0  0  0
   -2.0942    1.6899    0.3820 H   0  0  0  0  0  0  0  0  0  0  0  0
   -0.3494    1.8174    0.1257 H   0  0  0  0  0  0  0  0  0  0  0  0
   -1.4456    0.9923   -1.5399 C   0  0  0  0  0  0  0  0  0  0  0  0
   -0.5914    0.4730   -1.9751 H   0  0  0  0  0  0  0  0  0  0  0  0
   -2.3453    0.3946   -1.6971 H   0  0  0  0  0  0  0  0  0  0  0  0
   -1.6103    2.3451   -2.2418 C   0  0  0  0  0  0  0  0  0  0  0  0
   -2.4572    2.8805   -1.8117 H   0  0  0  0  0  0  0  0  0  0  0  0
   -0.7043    2.9368   -2.1078 H   0  0  0  0  0  0  0  0  0  0  0  0
   -1.8564    2.1284   -3.7337 C   0  0  0  0  0  0  0  0  0  0  0  0
   -1.0036    1.6102   -4.1692 H   0  0  0  0  0  0  0  0  0  0  0  0
   -2.7509    1.5226   -3.8688 H   0  0  0  0  0  0  0  0  0  0  0  0
   -2.0423    3.4048   -4.4334 N   0  0  0  0  0  0  0  0  0  0  0  0
   -2.1882    3.2251   -5.4159 H   0  0  0  0  0  0  0  0  0  0  0  0
   -2.8519    3.8754   -4.0546 H   0  0  0  0  0  0  0  0  0  0  0  0
   -0.5564    0.0727    2.1744 C   0  0  0  0  0  0  0  0  0  0  0  0
    0.6438    0.1430    2.4307 O   0  0  0  0  0  0  0  0  0  0  0  0
   -1.5035    0.1697    3.1146 N   0  0  0  0  0  0  0  0  0  0  0  0
   -2.4655    0.1168    2.8224 H   0  0  0  0  0  0  0  0  0  0  0  0
   -1.2247    0.3627    4.5368 C   0  0  0  0  0  0  0  0  0  0  0  0
   -0.5995    1.2478    4.6736 H   0  0  0  0  0  0  0  0  0  0  0  0
   -2.1551    0.4899    5.0922 H   0  0  0  0  0  0  0  0  0  0  0  0
   -0.6869   -0.5041    4.9264 H   0  0  0  0  0  0  0  0  0  0  0  0
  5  6  2  0  0  0  0
  5  7  1  0  0  0  0
  2  3  1  0  0  0  0
  2  4  1  0  0  0  0
  2  5  1  0  0  0  0
  1  2  1  0  0  0  0
 26 27  2  0  0  0  0
 26 28  1  0  0  0  0
 23 24  1  0  0  0  0
 23 25  1  0  0  0  0
 20 21  1  0  0  0  0
 20 22  1  0  0  0  0
 20 23  1  0  0  0  0
 17 18  1  0  0  0  0
 17 19  1  0  0  0  0
 17 20  1  0  0  0  0
 14 15  1  0  0  0  0
 14 16  1  0  0  0  0
 14 17  1  0  0  0  0
 11 12  1  0  0  0  0
 11 13  1  0  0  0  0
 11 14  1  0  0  0  0
  9 10  1  0  0  0  0
  9 11  1  0  0  0  0
  9 26  1  0  0  0  0
  7  8  1  0  0  0  0
  7  9  1  0  0  0  0
 30 31  1  0  0  0  0
 30 32  1  0  0  0  0
 30 33  1  0  0  0  0
 28 29  1  0  0  0  0
 28 30  1  0  0  0  0
M  END
$$$$
default_name
  -OEChem-01062215323D

 33 32  0     1  0  0  0  0  0999 V2000
   -3.8420   -3.6918    1.5562 H   0  0  0  0  0  0  0  0  0  0  0  0
   -3.8430   -2.7008    1.1032 C   0  0  0  0  0  0  0  0  0  0  0  0
   -4.5510   -2.0608    1.6242 H   0  0  0  0  0  0  0  0  0  0  0  0
   -4.1140   -2.7798    0.0522 H   0  0  0  0  0  0  0  0  0  0  0  0
   -2.4570   -2.1098    1.2172 C   0  0  0  0  0  0  0  0  0  0  0  0
   -1.5600   -2.7438    1.7572 O   0  0  0  0  0  0  0  0  0  0  0  0
   -2.2870   -0.8898    0.7102 N   0  0  0  0  0  0  0  0  0  0  0  0
   -3.0820   -0.4218    0.2992 H   0  0  0  0  0  0  0  0  0  0  0  0
   -1.0240   -0.1468    0.7262 C   0  0  1  0  0  0  0  0  0  0  0  0
   -0.2680   -0.7367    0.2062 H   0  0  0  0  0  0  0  0  0  0  0  0
   -1.2212    1.1806   -0.0314 C   0  0  0  0  0  0  0  0  0  0  0  0
   -2.0942    1.6899    0.3820 H   0  0  0  0  0  0  0  0  0  0  0  0
   -0.3494    1.8174    0.1257 H   0  0  0  0  0  0  0  0  0  0  0  0
   -1.4456    0.9923   -1.5399 C   0  0  0  0  0  0  0  0  0  0  0  0
   -0.5914    0.4730   -1.9751 H   0  0  0  0  0  0  0  0  0  0  0  0
   -2.3453    0.3946   -1.6971 H   0  0  0  0  0  0  0  0  0  0  0  0
   -1.6103    2.3451   -2.2418 C   0  0  0  0  0  0  0  0  0  0  0  0
   -2.4572    2.8805   -1.8117 H   0  0  0  0  0  0  0  0  0  0  0  0
   -0.7043    2.9368   -2.1078 H   0  0  0  0  0  0  0  0  0  0  0  0
   -1.8564    2.1284   -3.7337 C   0  0  0  0  0  0  0  0  0  0  0  0
   -1.0036    1.6102   -4.1692 H   0  0  0  0  0  0  0  0  0  0  0  0
   -2.7509    1.5226   -3.8688 H   0  0  0  0  0  0  0  0  0  0  0  0
   -2.0423    3.4048   -4.4334 N   0  0  0  0  0  0  0  0  0  0  0  0
   -2.1882    3.2251   -5.4159 H   0  0  0  0  0  0  0  0  0  0  0  0
   -2.8519    3.8754   -4.0546 H   0  0  0  0  0  0  0  0  0  0  0  0
   -0.5564    0.0727    2.1744 C   0  0  0  0  0  0  0  0  0  0  0  0
    0.6016    0.4160    2.4029 O   0  0  0  0  0  0  0  0  0  0  0  0
   -1.4538   -0.1355    3.1448 N   0  0  0  0  0  0  0  0  0  0  0  0
   -2.3868   -0.4010    2.8754 H   0  0  0  0  0  0  0  0  0  0  0  0
   -1.1640    0.0140    4.5701 C   0  0  0  0  0  0  0  0  0  0  0  0
   -0.7661    1.0127    4.7630 H   0  0  0  0  0  0  0  0  0  0  0  0
   -2.0705   -0.1325    5.1592 H   0  0  0  0  0  0  0  0  0  0  0  0
   -0.4146   -0.7209    4.8713 H   0  0  0  0  0  0  0  0  0  0  0  0
  5  6  2  0  0  0  0
  5  7  1  0  0  0  0
  2  3  1  0  0  0  0
  2  4  1  0  0  0  0
  2  5  1  0  0  0  0
  1  2  1  0  0  0  0
 26 27  2  0  0  0  0
 26 28  1  0  0  0  0
 23 24  1  0  0  0  0
 23 25  1  0  0  0  0
 20 21  1  0  0  0  0
 20 22  1  0  0  0  0
 20 23  1  0  0  0  0
 17 18  1  0  0  0  0
 17 19  1  0  0  0  0
 17 20  1  0  0  0  0
 14 15  1  0  0  0  0
 14 16  1  0  0  0  0
 14 17  1  0  0  0  0
 11 12  1  0  0  0  0
 11 13  1  0  0  0  0
 11 14  1  0  0  0  0
  9 10  1  0  0  0  0
  9 11  1  0  0  0  0
  9 26  1  0  0  0  0
  7  8  1  0  0  0  0
  7  9  1  0  0  0  0
 30 31  1  0  0  0  0
 30 32  1  0  0  0  0
 30 33  1  0  0  0  0
 28 29  1  0  0  0  0
 28 30  1  0  0  0  0
M  END
$$$$
default_name
  -OEChem-01062215323D

 33 32  0     1  0  0  0  0  0999 V2000
   -3.8420   -3.6918    1.5562 H   0  0  0  0  0  0  0  0  0  0  0  0
   -3.8430   -2.7008    1.1032 C   0  0  0  0  0  0  0  0  0  0  0  0
   -4.5510   -2.0608    1.6242 H   0  0  0  0  0  0  0  0  0  0  0  0
   -4.1140   -2.7798    0.0522 H   0  0  0  0  0  0  0  0  0  0  0  0
   -2.4570   -2.1098    1.2172 C   0  0  0  0  0  0  0  0  0  0  0  0
   -1.5600   -2.7438    1.7572 O   0  0  0  0  0  0  0  0  0  0  0  0
   -2.2870   -0.8898    0.7102 N   0  0  0  0  0  0  0  0  0  0  0  0
   -3.0820   -0.4218    0.2992 H   0  0  0  0  0  0  0  0  0  0  0  0
   -1.0240   -0.1468    0.7262 C   0  0  1  0  0  0  0  0  0  0  0  0
   -0.2680   -0.7367    0.2062 H   0  0  0  0  0  0  0  0  0  0  0  0
   -1.2212    1.1806   -0.0314 C   0  0  0  0  0  0  0  0  0  0  0  0
   -2.0942    1.6899    0.3820 H   0  0  0  0  0  0  0  0  0  0  0  0
   -0.3494    1.8174    0.1257 H   0  0  0  0  0  0  0  0  0  0  0  0
   -1.4456    0.9923   -1.5399 C   0  0  0  0  0  0  0  0  0  0  0  0
   -0.5914    0.4730   -1.9751 H   0  0  0  0  0  0  0  0  0  0  0  0
   -2.3453    0.3946   -1.6971 H   0  0  0  0  0  0  0  0  0  0  0  0
   -1.6103    2.3451   -2.2418 C   0  0  0  0  0  0  0  0  0  0  0  0
   -2.4572    2.8805   -1.8117 H   0  0  0  0  0  0  0  0  0  0  0  0
   -0.7043    2.9368   -2.1078 H   0  0  0  0  0  0  0  0  0  0  0  0
   -1.8564    2.1284   -3.7337 C   0  0  0  0  0  0  0  0  0  0  0  0
   -1.0036    1.6102   -4.1692 H   0  0  0  0  0  0  0  0  0  0  0  0
   -2.7509    1.5226   -3.8688 H   0  0  0  0  0  0  0  0  0  0  0  0
   -2.0423    3.4048   -4.4334 N   0  0  0  0  0  0  0  0  0  0  0  0
   -2.1882    3.2251   -5.4159 H   0  0  0  0  0  0  0  0  0  0  0  0
   -2.8519    3.8754   -4.0546 H   0  0  0  0  0  0  0  0  0  0  0  0
   -0.5564    0.0727    2.1744 C   0  0  0  0  0  0  0  0  0  0  0  0
    0.4933    0.6715    2.3992 O   0  0  0  0  0  0  0  0  0  0  0  0
   -1.3303   -0.4206    3.1481 N   0  0  0  0  0  0  0  0  0  0  0  0
   -2.1827   -0.8861    2.8830 H   0  0  0  0  0  0  0  0  0  0  0  0
   -1.0191   -0.3107    4.5725 C   0  0  0  0  0  0  0  0  0  0  0  0
   -0.8665    0.7379    4.8371 H   0  0  0  0  0  0  0  0  0  0  0  0
   -1.8346   -0.7183    5.1718 H   0  0  0  0  0  0  0  0  0  0  0  0
   -0.1008   -0.8597    4.7910 H   0  0  0  0  0  0  0  0  0  0  0  0
  5  6  2  0  0  0  0
  5  7  1  0  0  0  0
  2  3  1  0  0  0  0
  2  4  1  0  0  0  0
  2  5  1  0  0  0  0
  1  2  1  0  0  0  0
 26 27  2  0  0  0  0
 26 28  1  0  0  0  0
 23 24  1  0  0  0  0
 23 25  1  0  0  0  0
 20 21  1  0  0  0  0
 20 22  1  0  0  0  0
 20 23  1  0  0  0  0
 17 18  1  0  0  0  0
 17 19  1  0  0  0  0
 17 20  1  0  0  0  0
 14 15  1  0  0  0  0
 14 16  1  0  0  0  0
 14 17  1  0  0  0  0
 11 12  1  0  0  0  0
 11 13  1  0  0  0  0
 11 14  1  0  0  0  0
  9 10  1  0  0  0  0
  9 11  1  0  0  0  0
  9 26  1  0  0  0  0
  7  8  1  0  0  0  0
  7  9  1  0  0  0  0
 30 31  1  0  0  0  0
 30 32  1  0  0  0  0
 30 33  1  0  0  0  0
 28 29  1  0  0  0  0
 28 30  1  0  0  0  0
M  END
$$$$
default_name
  -OEChem-01062215323D

 33 32  0     1  0  0  0  0  0999 V2000
   -3.8420   -3.6918    1.5562 H   0  0  0  0  0  0  0  0  0  0  0  0
   -3.8430   -2.7008    1.1032 C   0  0  0  0  0  0  0  0  0  0  0  0
   -4.5510   -2.0608    1.6242 H   0  0  0  0  0  0  0  0  0  0  0  0
   -4.1140   -2.7798    0.0522 H   0  0  0  0  0  0  0  0  0  0  0  0
   -2.4570   -2.1098    1.2172 C   0  0  0  0  0  0  0  0  0  0  0  0
   -1.5600   -2.7438    1.7572 O   0  0  0  0  0  0  0  0  0  0  0  0
   -2.2870   -0.8898    0.7102 N   0  0  0  0  0  0  0  0  0  0  0  0
   -3.0820   -0.4218    0.2992 H   0  0  0  0  0  0  0  0  0  0  0  0
   -1.0240   -0.1468    0.7262 C   0  0  1  0  0  0  0  0  0  0  0  0
   -0.2680   -0.7367    0.2062 H   0  0  0  0  0  0  0  0  0  0  0  0
   -1.2212    1.1806   -0.0314 C   0  0  0  0  0  0  0  0  0  0  0  0
   -2.0942    1.6899    0.3820 H   0  0  0  0  0  0  0  0  0  0  0  0
   -0.3494    1.8174    0.1257 H   0  0  0  0  0  0  0  0  0  0  0  0
   -1.4456    0.9923   -1.5399 C   0  0  0  0  0  0  0  0  0  0  0  0
   -0.5914    0.4730   -1.9751 H   0  0  0  0  0  0  0  0  0  0  0  0
   -2.3453    0.3946   -1.6971 H   0  0  0  0  0  0  0  0  0  0  0  0
   -1.6103    2.3451   -2.2418 C   0  0  0  0  0  0  0  0  0  0  0  0
   -2.4572    2.8805   -1.8117 H   0  0  0  0  0  0  0  0  0  0  0  0
   -0.7043    2.9368   -2.1078 H   0  0  0  0  0  0  0  0  0  0  0  0
   -1.8564    2.1284   -3.7337 C   0  0  0  0  0  0  0  0  0  0  0  0
   -1.0036    1.6102   -4.1692 H   0  0  0  0  0  0  0  0  0  0  0  0
   -2.7509    1.5226   -3.8688 H   0  0  0  0  0  0  0  0  0  0  0  0
   -2.0423    3.4048   -4.4334 N   0  0  0  0  0  0  0  0  0  0  0  0
   -2.1882    3.2251   -5.4159 H   0  0  0  0  0  0  0  0  0  0  0  0
   -2.8519    3.8754   -4.0546 H   0  0  0  0  0  0  0  0  0  0  0  0
   -0.5564    0.0727    2.1744 C   0  0  0  0  0  0  0  0  0  0  0  0
    0.3262    0.8923    2.4197 O   0  0  0  0  0  0  0  0  0  0  0  0
   -1.1414   -0.6661    3.1243 N   0  0  0  0  0  0  0  0  0  0  0  0
   -1.8671   -1.3055    2.8446 H   0  0  0  0  0  0  0  0  0  0  0  0
   -0.7999   -0.5892    4.5439 C   0  0  0  0  0  0  0  0  0  0  0  0
   -0.8938    0.4422    4.8907 H   0  0  0  0  0  0  0  0  0  0  0  0
   -1.4634   -1.2276    5.1291 H   0  0  0  0  0  0  0  0  0  0  0  0
    0.2332   -0.9108    4.6909 H   0  0  0  0  0  0  0  0  0  0  0  0
  5  6  2  0  0  0  0
  5  7  1  0  0  0  0
  2  3  1  0  0  0  0
  2  4  1  0  0  0  0
  2  5  1  0  0  0  0
  1  2  1  0  0  0  0
 26 27  2  0  0  0  0
 26 28  1  0  0  0  0
 23 24  1  0  0  0  0
 23 25  1  0  0  0  0
 20 21  1  0  0  0  0
 20 22  1  0  0  0  0
 20 23  1  0  0  0  0
 17 18  1  0  0  0  0
 17 19  1  0  0  0  0
 17 20  1  0  0  0  0
 14 15  1  0  0  0  0
 14 16  1  0  0  0  0
 14 17  1  0  0  0  0
 11 12  1  0  0  0  0
 11 13  1  0  0  0  0
 11 14  1  0  0  0  0
  9 10  1  0  0  0  0
  9 11  1  0  0  0  0
  9 26  1  0  0  0  0
  7  8  1  0  0  0  0
  7  9  1  0  0  0  0
 30 31  1  0  0  0  0
 30 32  1  0  0  0  0
 30 33  1  0  0  0  0
 28 29  1  0  0  0  0
 28 30  1  0  0  0  0
M  END
$$$$
default_name
  -OEChem-01062215323D

 33 32  0     1  0  0  0  0  0999 V2000
   -3.8420   -3.6918    1.5562 H   0  0  0  0  0  0  0  0  0  0  0  0
   -3.8430   -2.7008    1.1032 C   0  0  0  0  0  0  0  0  0  0  0  0
   -4.5510   -2.0608    1.6242 H   0  0  0  0  0  0  0  0  0  0  0  0
   -4.1140   -2.7798    0.0522 H   0  0  0  0  0  0  0  0  0  0  0  0
   -2.4570   -2.1098    1.2172 C   0  0  0  0  0  0  0  0  0  0  0  0
   -1.5600   -2.7438    1.7572 O   0  0  0  0  0  0  0  0  0  0  0  0
   -2.2870   -0.8898    0.7102 N   0  0  0  0  0  0  0  0  0  0  0  0
   -3.0820   -0.4218    0.2992 H   0  0  0  0  0  0  0  0  0  0  0  0
   -1.0240   -0.1468    0.7262 C   0  0  1  0  0  0  0  0  0  0  0  0
   -0.2680   -0.7367    0.2062 H   0  0  0  0  0  0  0  0  0  0  0  0
   -1.2212    1.1806   -0.0314 C   0  0  0  0  0  0  0  0  0  0  0  0
   -2.0942    1.6899    0.3820 H   0  0  0  0  0  0  0  0  0  0  0  0
   -0.3494    1.8174    0.1257 H   0  0  0  0  0  0  0  0  0  0  0  0
   -1.4456    0.9923   -1.5399 C   0  0  0  0  0  0  0  0  0  0  0  0
   -0.5914    0.4730   -1.9751 H   0  0  0  0  0  0  0  0  0  0  0  0
   -2.3453    0.3946   -1.6971 H   0  0  0  0  0  0  0  0  0  0  0  0
   -1.6103    2.3451   -2.2418 C   0  0  0  0  0  0  0  0  0  0  0  0
   -2.4572    2.8805   -1.8117 H   0  0  0  0  0  0  0  0  0  0  0  0
   -0.7043    2.9368   -2.1078 H   0  0  0  0  0  0  0  0  0  0  0  0
   -1.8564    2.1284   -3.7337 C   0  0  0  0  0  0  0  0  0  0  0  0
   -1.0036    1.6102   -4.1692 H   0  0  0  0  0  0  0  0  0  0  0  0
   -2.7509    1.5226   -3.8688 H   0  0  0  0  0  0  0  0  0  0  0  0
   -2.0423    3.4048   -4.4334 N   0  0  0  0  0  0  0  0  0  0  0  0
   -2.1882    3.2251   -5.4159 H   0  0  0  0  0  0  0  0  0  0  0  0
   -2.8519    3.8754   -4.0546 H   0  0  0  0  0  0  0  0  0  0  0  0
   -0.5564    0.0727    2.1744 C   0  0  0  0  0  0  0  0  0  0  0  0
    0.1118    1.0632    2.4630 O   0  0  0  0  0  0  0  0  0  0  0  0
   -0.8999   -0.8554    3.0750 N   0  0  0  0  0  0  0  0  0  0  0  0
   -1.4613   -1.6306    2.7629 H   0  0  0  0  0  0  0  0  0  0  0  0
   -0.5213   -0.8025    4.4863 C   0  0  0  0  0  0  0  0  0  0  0  0
   -0.8460    0.1457    4.9202 H   0  0  0  0  0  0  0  0  0  0  0  0
   -0.9823   -1.6257    5.0341 H   0  0  0  0  0  0  0  0  0  0  0  0
    0.5646   -0.8709    4.5778 H   0  0  0  0  0  0  0  0  0  0  0  0
  5  6  2  0  0  0  0
  5  7  1  0  0  0  0
  2  3  1  0  0  0  0
  2  4  1  0  0  0  0
  2  5  1  0  0  0  0
  1  2  1  0  0  0  0
 26 27  2  0  0  0  0
 26 28  1  0  0  0  0
 23 24  1  0  0  0  0
 23 25  1  0  0  0  0
 20 21  1  0  0  0  0
 20 22  1  0  0  0  0
 20 23  1  0  0  0  0
 17 18  1  0  0  0  0
 17 19  1  0  0  0  0
 17 20  1  0  0  0  0
 14 15  1  0  0  0  0
 14 16  1  0  0  0  0
 14 17  1  0  0  0  0
 11 12  1  0  0  0  0
 11 13  1  0  0  0  0
 11 14  1  0  0  0  0
  9 10  1  0  0  0  0
  9 11  1  0  0  0  0
  9 26  1  0  0  0  0
  7  8  1  0  0  0  0
  7  9  1  0  0  0  0
 30 31  1  0  0  0  0
 30 32  1  0  0  0  0
 30 33  1  0  0  0  0
 28 29  1  0  0  0  0
 28 30  1  0  0  0  0
M  END
$$$$
default_name
  -OEChem-01062215323D

 33 32  0     1  0  0  0  0  0999 V2000
   -3.8420   -3.6918    1.5562 H   0  0  0  0  0  0  0  0  0  0  0  0
   -3.8430   -2.7008    1.1032 C   0  0  0  0  0  0  0  0  0  0  0  0
   -4.5510   -2.0608    1.6242 H   0  0  0  0  0  0  0  0  0  0  0  0
   -4.1140   -2.7798    0.0522 H   0  0  0  0  0  0  0  0  0  0  0  0
   -2.4570   -2.1098    1.2172 C   0  0  0  0  0  0  0  0  0  0  0  0
   -1.5600   -2.7438    1.7572 O   0  0  0  0  0  0  0  0  0  0  0  0
   -2.2870   -0.8898    0.7102 N   0  0  0  0  0  0  0  0  0  0  0  0
   -3.0820   -0.4218    0.2992 H   0  0  0  0  0  0  0  0  0  0  0  0
   -1.0240   -0.1468    0.7262 C   0  0  1  0  0  0  0  0  0  0  0  0
   -0.2680   -0.7367    0.2062 H   0  0  0  0  0  0  0  0  0  0  0  0
   -1.2212    1.1806   -0.0314 C   0  0  0  0  0  0  0  0  0  0  0  0
   -2.0942    1.6899    0.3820 H   0  0  0  0  0  0  0  0  0  0  0  0
   -0.3494    1.8174    0.1257 H   0  0  0  0  0  0  0  0  0  0  0  0
   -1.4456    0.9923   -1.5399 C   0  0  0  0  0  0  0  0  0  0  0  0
   -0.5914    0.4730   -1.9751 H   0  0  0  0  0  0  0  0  0  0  0  0
   -2.3453    0.3946   -1.6971 H   0  0  0  0  0  0  0  0  0  0  0  0
   -1.6103    2.3451   -2.2418 C   0  0  0  0  0  0  0  0  0  0  0  0
   -2.4572    2.8805   -1.8117 H   0  0  0  0  0  0  0  0  0  0  0  0
   -0.7043    2.9368   -2.1078 H   0  0  0  0  0  0  0  0  0  0  0  0
   -1.8564    2.1284   -3.7337 C   0  0  0  0  0  0  0  0  0  0  0  0
   -1.0036    1.6102   -4.1692 H   0  0  0  0  0  0  0  0  0  0  0  0
   -2.7509    1.5226   -3.8688 H   0  0  0  0  0  0  0  0  0  0  0  0
   -2.0423    3.4048   -4.4334 N   0  0  0  0  0  0  0  0  0  0  0  0
   -2.1882    3.2251   -5.4159 H   0  0  0  0  0  0  0  0  0  0  0  0
   -2.8519    3.8754   -4.0546 H   0  0  0  0  0  0  0  0  0  0  0  0
   -0.5564    0.0727    2.1744 C   0  0  0  0  0  0  0  0  0  0  0  0
   -0.1354    1.1726    2.5263 O   0  0  0  0  0  0  0  0  0  0  0  0
   -0.6224   -0.9754    3.0036 N   0  0  0  0  0  0  0  0  0  0  0  0
   -0.9932   -1.8393    2.6433 H   0  0  0  0  0  0  0  0  0  0  0  0
   -0.2024   -0.9362    4.4035 C   0  0  0  0  0  0  0  0  0  0  0  0
   -0.7265   -0.1313    4.9236 H   0  0  0  0  0  0  0  0  0  0  0  0
   -0.4241   -1.8855    4.8932 H   0  0  0  0  0  0  0  0  0  0  0  0
    0.8708   -0.7427    4.4595 H   0  0  0  0  0  0  0  0  0  0  0  0
  5  6  2  0  0  0  0
  5  7  1  0  0  0  0
  2  3  1  0  0  0  0
  2  4  1  0  0  0  0
  2  5  1  0  0  0  0
  1  2  1  0  0  0  0
 26 27  2  0  0  0  0
 26 28  1  0  0  0  0
 23 24  1  0  0  0  0
 23 25  1  0  0  0  0
 20 21  1  0  0  0  0
 20 22  1  0  0  0  0
 20 23  1  0  0  0  0
 17 18  1  0  0  0  0
 17 19  1  0  0  0  0
 17 20  1  0  0  0  0
 14 15  1  0  0  0  0
 14 16  1  0  0  0  0
 14 17  1  0  0  0  0
 11 12  1  0  0  0  0
 11 13  1  0  0  0  0
 11 14  1  0  0  0  0
  9 10  1  0  0  0  0
  9 11  1  0  0  0  0
  9 26  1  0  0  0  0
  7  8  1  0  0  0  0
  7  9  1  0  0  0  0
 30 31  1  0  0  0  0
 30 32  1  0  0  0  0
 30 33  1  0  0  0  0
 28 29  1  0  0  0  0
 28 30  1  0  0  0  0
M  END
$$$$
default_name
  -OEChem-01062215323D

 33 32  0     1  0  0  0  0  0999 V2000
   -3.8420   -3.6918    1.5562 H   0  0  0  0  0  0  0  0  0  0  0  0
   -3.8430   -2.7008    1.1032 C   0  0  0  0  0  0  0  0  0  0  0  0
   -4.5510   -2.0608    1.6242 H   0  0  0  0  0  0  0  0  0  0  0  0
   -4.1140   -2.7798    0.0522 H   0  0  0  0  0  0  0  0  0  0  0  0
   -2.4570   -2.1098    1.2172 C   0  0  0  0  0  0  0  0  0  0  0  0
   -1.5600   -2.7438    1.7572 O   0  0  0  0  0  0  0  0  0  0  0  0
   -2.2870   -0.8898    0.7102 N   0  0  0  0  0  0  0  0  0  0  0  0
   -3.0820   -0.4218    0.2992 H   0  0  0  0  0  0  0  0  0  0  0  0
   -1.0240   -0.1468    0.7262 C   0  0  1  0  0  0  0  0  0  0  0  0
   -0.2680   -0.7367    0.2062 H   0  0  0  0  0  0  0  0  0  0  0  0
   -1.2212    1.1806   -0.0314 C   0  0  0  0  0  0  0  0  0  0  0  0
   -2.0942    1.6899    0.3820 H   0  0  0  0  0  0  0  0  0  0  0  0
   -0.3494    1.8174    0.1257 H   0  0  0  0  0  0  0  0  0  0  0  0
   -1.4456    0.9923   -1.5399 C   0  0  0  0  0  0  0  0  0  0  0  0
   -0.5914    0.4730   -1.9751 H   0  0  0  0  0  0  0  0  0  0  0  0
   -2.3453    0.3946   -1.6971 H   0  0  0  0  0  0  0  0  0  0  0  0
   -1.6103    2.3451   -2.2418 C   0  0  0  0  0  0  0  0  0  0  0  0
   -2.4572    2.8805   -1.8117 H   0  0  0  0  0  0  0  0  0  0  0  0
   -0.7043    2.9368   -2.1078 H   0  0  0  0  0  0  0  0  0  0  0  0
   -1.8564    2.1284   -3.7337 C   0  0  0  0  0  0  0  0  0  0  0  0
   -1.0036    1.6102   -4.1692 H   0  0  0  0  0  0  0  0  0  0  0  0
   -2.7509    1.5226   -3.8688 H   0  0  0  0  0  0  0  0  0  0  0  0
   -2.0423    3.4048   -4.4334 N   0  0  0  0  0  0  0  0  0  0  0  0
   -2.1882    3.2251   -5.4159 H   0  0  0  0  0  0  0  0  0  0  0  0
   -2.8519    3.8754   -4.0546 H   0  0  0  0  0  0  0  0  0  0  0  0
   -0.5564    0.0727    2.1744 C   0  0  0  0  0  0  0  0  0  0  0  0
   -0.3985    1.2130    2.6051 O   0  0  0  0  0  0  0  0  0  0  0  0
   -0.3277   -1.0181    2.9149 N   0  0  0  0  0  0  0  0  0  0  0  0
   -0.4945   -1.9174    2.4941 H   0  0  0  0  0  0  0  0  0  0  0  0
    0.1352   -0.9809    4.3013 C   0  0  0  0  0  0  0  0  0  0  0  0
   -0.5435   -0.3701    4.9006 H   0  0  0  0  0  0  0  0  0  0  0  0
    0.1732   -1.9893    4.7160 H   0  0  0  0  0  0  0  0  0  0  0  0
    1.1310   -0.5349    4.3440 H   0  0  0  0  0  0  0  0  0  0  0  0
  5  6  2  0  0  0  0
  5  7  1  0  0  0  0
  2  3  1  0  0  0  0
  2  4  1  0  0  0  0
  2  5  1  0  0  0  0
  1  2  1  0  0  0  0
 26 27  2  0  0  0  0
 26 28  1  0  0  0  0
 23 24  1  0  0  0  0
 23 25  1  0  0  0  0
 20 21  1  0  0  0  0
 20 22  1  0  0  0  0
 20 23  1  0  0  0  0
 17 18  1  0  0  0  0
 17 19  1  0  0  0  0
 17 20  1  0  0  0  0
 14 15  1  0  0  0  0
 14 16  1  0  0  0  0
 14 17  1  0  0  0  0
 11 12  1  0  0  0  0
 11 13  1  0  0  0  0
 11 14  1  0  0  0  0
  9 10  1  0  0  0  0
  9 11  1  0  0  0  0
  9 26  1  0  0  0  0
  7  8  1  0  0  0  0
  7  9  1  0  0  0  0
 30 31  1  0  0  0  0
 30 32  1  0  0  0  0
 30 33  1  0  0  0  0
 28 29  1  0  0  0  0
 28 30  1  0  0  0  0
M  END
$$$$
default_name
  -OEChem-01062215323D

 33 32  0     1  0  0  0  0  0999 V2000
   -3.8420   -3.6918    1.5562 H   0  0  0  0  0  0  0  0  0  0  0  0
   -3.8430   -2.7008    1.1032 C   0  0  0  0  0  0  0  0  0  0  0  0
   -4.5510   -2.0608    1.6242 H   0  0  0  0  0  0  0  0  0  0  0  0
   -4.1140   -2.7798    0.0522 H   0  0  0  0  0  0  0  0  0  0  0  0
   -2.4570   -2.1098    1.2172 C   0  0  0  0  0  0  0  0  0  0  0  0
   -1.5600   -2.7438    1.7572 O   0  0  0  0  0  0  0  0  0  0  0  0
   -2.2870   -0.8898    0.7102 N   0  0  0  0  0  0  0  0  0  0  0  0
   -3.0820   -0.4218    0.2992 H   0  0  0  0  0  0  0  0  0  0  0  0
   -1.0240   -0.1468    0.7262 C   0  0  1  0  0  0  0  0  0  0  0  0
   -0.2680   -0.7367    0.2062 H   0  0  0  0  0  0  0  0  0  0  0  0
   -1.2212    1.1806   -0.0314 C   0  0  0  0  0  0  0  0  0  0  0  0
   -2.0942    1.6899    0.3820 H   0  0  0  0  0  0  0  0  0  0  0  0
   -0.3494    1.8174    0.1257 H   0  0  0  0  0  0  0  0  0  0  0  0
   -1.4456    0.9923   -1.5399 C   0  0  0  0  0  0  0  0  0  0  0  0
   -0.5914    0.4730   -1.9751 H   0  0  0  0  0  0  0  0  0  0  0  0
   -2.3453    0.3946   -1.6971 H   0  0  0  0  0  0  0  0  0  0  0  0
   -1.6103    2.3451   -2.2418 C   0  0  0  0  0  0  0  0  0  0  0  0
   -2.4572    2.8805   -1.8117 H   0  0  0  0  0  0  0  0  0  0  0  0
   -0.7043    2.9368   -2.1078 H   0  0  0  0  0  0  0  0  0  0  0  0
   -1.8564    2.1284   -3.7337 C   0  0  0  0  0  0  0  0  0  0  0  0
   -1.0036    1.6102   -4.1692 H   0  0  0  0  0  0  0  0  0  0  0  0
   -2.7509    1.5226   -3.8688 H   0  0  0  0  0  0  0  0  0  0  0  0
   -2.0423    3.4048   -4.4334 N   0  0  0  0  0  0  0  0  0  0  0  0
   -2.1882    3.2251   -5.4159 H   0  0  0  0  0  0  0  0  0  0  0  0
   -2.8519    3.8754   -4.0546 H   0  0  0  0  0  0  0  0  0  0  0  0
   -0.5564    0.0727    2.1744 C   0  0  0  0  0  0  0  0  0  0  0  0
   -0.6596    1.1818    2.6942 O   0  0  0  0  0  0  0  0  0  0  0  0
   -0.0359   -0.9805    2.8149 N   0  0  0  0  0  0  0  0  0  0  0  0
    0.0007   -1.8595    2.3254 H   0  0  0  0  0  0  0  0  0  0  0  0
    0.4684   -0.9339    4.1866 C   0  0  0  0  0  0  0  0  0  0  0  0
   -0.3093   -0.5543    4.8529 H   0  0  0  0  0  0  0  0  0  0  0  0
    0.7690   -1.9300    4.5146 H   0  0  0  0  0  0  0  0  0  0  0  0
    1.3273   -0.2616    4.2392 H   0  0  0  0  0  0  0  0  0  0  0  0
  5  6  2  0  0  0  0
  5  7  1  0  0  0  0
  2  3  1  0  0  0  0
  2  4  1  0  0  0  0
  2  5  1  0  0  0  0
  1  2  1  0  0  0  0
 26 27  2  0  0  0  0
 26 28  1  0  0  0  0
 23 24  1  0  0  0  0
 23 25  1  0  0  0  0
 20 21  1  0  0  0  0
 20 22  1  0  0  0  0
 20 23  1  0  0  0  0
 17 18  1  0  0  0  0
 17 19  1  0  0  0  0
 17 20  1  0  0  0  0
 14 15  1  0  0  0  0
 14 16  1  0  0  0  0
 14 17  1  0  0  0  0
 11 12  1  0  0  0  0
 11 13  1  0  0  0  0
 11 14  1  0  0  0  0
  9 10  1  0  0  0  0
  9 11  1  0  0  0  0
  9 26  1  0  0  0  0
  7  8  1  0  0  0  0
  7  9  1  0  0  0  0
 30 31  1  0  0  0  0
 30 32  1  0  0  0  0
 30 33  1  0  0  0  0
 28 29  1  0  0  0  0
 28 30  1  0  0  0  0
M  END
$$$$
default_name
  -OEChem-01062215323D

 33 32  0     1  0  0  0  0  0999 V2000
   -3.8420   -3.6918    1.5562 H   0  0  0  0  0  0  0  0  0  0  0  0
   -3.8430   -2.7008    1.1032 C   0  0  0  0  0  0  0  0  0  0  0  0
   -4.5510   -2.0608    1.6242 H   0  0  0  0  0  0  0  0  0  0  0  0
   -4.1140   -2.7798    0.0522 H   0  0  0  0  0  0  0  0  0  0  0  0
   -2.4570   -2.1098    1.2172 C   0  0  0  0  0  0  0  0  0  0  0  0
   -1.5600   -2.7438    1.7572 O   0  0  0  0  0  0  0  0  0  0  0  0
   -2.2870   -0.8898    0.7102 N   0  0  0  0  0  0  0  0  0  0  0  0
   -3.0820   -0.4218    0.2992 H   0  0  0  0  0  0  0  0  0  0  0  0
   -1.0240   -0.1468    0.7262 C   0  0  1  0  0  0  0  0  0  0  0  0
   -0.2680   -0.7367    0.2062 H   0  0  0  0  0  0  0  0  0  0  0  0
   -1.2212    1.1806   -0.0314 C   0  0  0  0  0  0  0  0  0  0  0  0
   -2.0942    1.6899    0.3820 H   0  0  0  0  0  0  0  0  0  0  0  0
   -0.3494    1.8174    0.1257 H   0  0  0  0  0  0  0  0  0  0  0  0
   -1.4456    0.9923   -1.5399 C   0  0  0  0  0  0  0  0  0  0  0  0
   -0.5914    0.4730   -1.9751 H   0  0  0  0  0  0  0  0  0  0  0  0
   -2.3453    0.3946   -1.6971 H   0  0  0  0  0  0  0  0  0  0  0  0
   -1.6103    2.3451   -2.2418 C   0  0  0  0  0  0  0  0  0  0  0  0
   -2.4572    2.8805   -1.8117 H   0  0  0  0  0  0  0  0  0  0  0  0
   -0.7043    2.9368   -2.1078 H   0  0  0  0  0  0  0  0  0  0  0  0
   -1.8564    2.1284   -3.7337 C   0  0  0  0  0  0  0  0  0  0  0  0
   -1.0036    1.6102   -4.1692 H   0  0  0  0  0  0  0  0  0  0  0  0
   -2.7509    1.5226   -3.8688 H   0  0  0  0  0  0  0  0  0  0  0  0
   -2.0423    3.4048   -4.4334 N   0  0  0  0  0  0  0  0  0  0  0  0
   -2.1882    3.2251   -5.4159 H   0  0  0  0  0  0  0  0  0  0  0  0
   -2.8519    3.8754   -4.0546 H   0  0  0  0  0  0  0  0  0  0  0  0
   -0.5564    0.0727    2.1744 C   0  0  0  0  0  0  0  0  0  0  0  0
   -0.9008    1.0809    2.7874 O   0  0  0  0  0  0  0  0  0  0  0  0
    0.2331   -0.8652    2.7106 N   0  0  0  0  0  0  0  0  0  0  0  0
    0.4587   -1.6696    2.1488 H   0  0  0  0  0  0  0  0  0  0  0  0
    0.7746   -0.7981    4.0671 C   0  0  0  0  0  0  0  0  0  0  0  0
   -0.0399   -0.6713    4.7837 H   0  0  0  0  0  0  0  0  0  0  0  0
    1.3225   -1.7116    4.3028 H   0  0  0  0  0  0  0  0  0  0  0  0
    1.4465    0.0584    4.1522 H   0  0  0  0  0  0  0  0  0  0  0  0
  5  6  2  0  0  0  0
  5  7  1  0  0  0  0
  2  3  1  0  0  0  0
  2  4  1  0  0  0  0
  2  5  1  0  0  0  0
  1  2  1  0  0  0  0
 26 27  2  0  0  0  0
 26 28  1  0  0  0  0
 23 24  1  0  0  0  0
 23 25  1  0  0  0  0
 20 21  1  0  0  0  0
 20 22  1  0  0  0  0
 20 23  1  0  0  0  0
 17 18  1  0  0  0  0
 17 19  1  0  0  0  0
 17 20  1  0  0  0  0
 14 15  1  0  0  0  0
 14 16  1  0  0  0  0
 14 17  1  0  0  0  0
 11 12  1  0  0  0  0
 11 13  1  0  0  0  0
 11 14  1  0  0  0  0
  9 10  1  0  0  0  0
  9 11  1  0  0  0  0
  9 26  1  0  0  0  0
  7  8  1  0  0  0  0
  7  9  1  0  0  0  0
 30 31  1  0  0  0  0
 30 32  1  0  0  0  0
 30 33  1  0  0  0  0
 28 29  1  0  0  0  0
 28 30  1  0  0  0  0
M  END
$$$$
default_name
  -OEChem-01062215323D

 33 32  0     1  0  0  0  0  0999 V2000
   -3.8420   -3.6918    1.5562 H   0  0  0  0  0  0  0  0  0  0  0  0
   -3.8430   -2.7008    1.1032 C   0  0  0  0  0  0  0  0  0  0  0  0
   -4.5510   -2.0608    1.6242 H   0  0  0  0  0  0  0  0  0  0  0  0
   -4.1140   -2.7798    0.0522 H   0  0  0  0  0  0  0  0  0  0  0  0
   -2.4570   -2.1098    1.2172 C   0  0  0  0  0  0  0  0  0  0  0  0
   -1.5600   -2.7438    1.7572 O   0  0  0  0  0  0  0  0  0  0  0  0
   -2.2870   -0.8898    0.7102 N   0  0  0  0  0  0  0  0  0  0  0  0
   -3.0820   -0.4218    0.2992 H   0  0  0  0  0  0  0  0  0  0  0  0
   -1.0240   -0.1468    0.7262 C   0  0  1  0  0  0  0  0  0  0  0  0
   -0.2680   -0.7367    0.2062 H   0  0  0  0  0  0  0  0  0  0  0  0
   -1.2212    1.1806   -0.0314 C   0  0  0  0  0  0  0  0  0  0  0  0
   -2.0942    1.6899    0.3820 H   0  0  0  0  0  0  0  0  0  0  0  0
   -0.3494    1.8174    0.1257 H   0  0  0  0  0  0  0  0  0  0  0  0
   -1.4456    0.9923   -1.5399 C   0  0  0  0  0  0  0  0  0  0  0  0
   -0.5914    0.4730   -1.9751 H   0  0  0  0  0  0  0  0  0  0  0  0
   -2.3453    0.3946   -1.6971 H   0  0  0  0  0  0  0  0  0  0  0  0
   -1.6103    2.3451   -2.2418 C   0  0  0  0  0  0  0  0  0  0  0  0
   -2.4572    2.8805   -1.8117 H   0  0  0  0  0  0  0  0  0  0  0  0
   -0.7043    2.9368   -2.1078 H   0  0  0  0  0  0  0  0  0  0  0  0
   -1.8564    2.1284   -3.7337 C   0  0  0  0  0  0  0  0  0  0  0  0
   -1.0036    1.6102   -4.1692 H   0  0  0  0  0  0  0  0  0  0  0  0
   -2.7509    1.5226   -3.8688 H   0  0  0  0  0  0  0  0  0  0  0  0
   -2.0423    3.4048   -4.4334 N   0  0  0  0  0  0  0  0  0  0  0  0
   -2.1882    3.2251   -5.4159 H   0  0  0  0  0  0  0  0  0  0  0  0
   -2.8519    3.8754   -4.0546 H   0  0  0  0  0  0  0  0  0  0  0  0
   -0.5564    0.0727    2.1744 C   0  0  0  0  0  0  0  0  0  0  0  0
   -1.1058    0.9173    2.8784 O   0  0  0  0  0  0  0  0  0  0  0  0
    0.4610   -0.6800    2.6090 N   0  0  0  0  0  0  0  0  0  0  0  0
    0.8483   -1.3606    1.9761 H   0  0  0  0  0  0  0  0  0  0  0  0
    1.0328   -0.5830    3.9511 C   0  0  0  0  0  0  0  0  0  0  0  0
    0.2462   -0.7133    4.6976 H   0  0  0  0  0  0  0  0  0  0  0  0
    1.7961   -1.3490    4.0949 H   0  0  0  0  0  0  0  0  0  0  0  0
    1.4804    0.4035    4.0890 H   0  0  0  0  0  0  0  0  0  0  0  0
  5  6  2  0  0  0  0
  5  7  1  0  0  0  0
  2  3  1  0  0  0  0
  2  4  1  0  0  0  0
  2  5  1  0  0  0  0
  1  2  1  0  0  0  0
 26 27  2  0  0  0  0
 26 28  1  0  0  0  0
 23 24  1  0  0  0  0
 23 25  1  0  0  0  0
 20 21  1  0  0  0  0
 20 22  1  0  0  0  0
 20 23  1  0  0  0  0
 17 18  1  0  0  0  0
 17 19  1  0  0  0  0
 17 20  1  0  0  0  0
 14 15  1  0  0  0  0
 14 16  1  0  0  0  0
 14 17  1  0  0  0  0
 11 12  1  0  0  0  0
 11 13  1  0  0  0  0
 11 14  1  0  0  0  0
  9 10  1  0  0  0  0
  9 11  1  0  0  0  0
  9 26  1  0  0  0  0
  7  8  1  0  0  0  0
  7  9  1  0  0  0  0
 30 31  1  0  0  0  0
 30 32  1  0  0  0  0
 30 33  1  0  0  0  0
 28 29  1  0  0  0  0
 28 30  1  0  0  0  0
M  END
$$$$
default_name
  -OEChem-01062215323D

 33 32  0     1  0  0  0  0  0999 V2000
   -3.8420   -3.6918    1.5562 H   0  0  0  0  0  0  0  0  0  0  0  0
   -3.8430   -2.7008    1.1032 C   0  0  0  0  0  0  0  0  0  0  0  0
   -4.5510   -2.0608    1.6242 H   0  0  0  0  0  0  0  0  0  0  0  0
   -4.1140   -2.7798    0.0522 H   0  0  0  0  0  0  0  0  0  0  0  0
   -2.4570   -2.1098    1.2172 C   0  0  0  0  0  0  0  0  0  0  0  0
   -1.5600   -2.7438    1.7572 O   0  0  0  0  0  0  0  0  0  0  0  0
   -2.2870   -0.8898    0.7102 N   0  0  0  0  0  0  0  0  0  0  0  0
   -3.0820   -0.4218    0.2992 H   0  0  0  0  0  0  0  0  0  0  0  0
   -1.0240   -0.1468    0.7262 C   0  0  1  0  0  0  0  0  0  0  0  0
   -0.2680   -0.7367    0.2062 H   0  0  0  0  0  0  0  0  0  0  0  0
   -1.2212    1.1806   -0.0314 C   0  0  0  0  0  0  0  0  0  0  0  0
   -2.0942    1.6899    0.3820 H   0  0  0  0  0  0  0  0  0  0  0  0
   -0.3494    1.8174    0.1257 H   0  0  0  0  0  0  0  0  0  0  0  0
   -1.4456    0.9923   -1.5399 C   0  0  0  0  0  0  0  0  0  0  0  0
   -0.5914    0.4730   -1.9751 H   0  0  0  0  0  0  0  0  0  0  0  0
   -2.3453    0.3946   -1.6971 H   0  0  0  0  0  0  0  0  0  0  0  0
   -1.6103    2.3451   -2.2418 C   0  0  0  0  0  0  0  0  0  0  0  0
   -2.4572    2.8805   -1.8117 H   0  0  0  0  0  0  0  0  0  0  0  0
   -0.7043    2.9368   -2.1078 H   0  0  0  0  0  0  0  0  0  0  0  0
   -1.8564    2.1284   -3.7337 C   0  0  0  0  0  0  0  0  0  0  0  0
   -1.0036    1.6102   -4.1692 H   0  0  0  0  0  0  0  0  0  0  0  0
   -2.7509    1.5226   -3.8688 H   0  0  0  0  0  0  0  0  0  0  0  0
   -2.0423    3.4048   -4.4334 N   0  0  0  0  0  0  0  0  0  0  0  0
   -2.1882    3.2251   -5.4159 H   0  0  0  0  0  0  0  0  0  0  0  0
   -2.8519    3.8754   -4.0546 H   0  0  0  0  0  0  0  0  0  0  0  0
   -0.5564    0.0727    2.1744 C   0  0  0  0  0  0  0  0  0  0  0  0
   -1.2606    0.7022    2.9609 O   0  0  0  0  0  0  0  0  0  0  0  0
    0.6322   -0.4376    2.5169 N   0  0  0  0  0  0  0  0  0  0  0  0
    1.1429   -0.9536    1.8193 H   0  0  0  0  0  0  0  0  0  0  0  0
    1.2255   -0.3031    3.8465 C   0  0  0  0  0  0  0  0  0  0  0  0
    0.5297   -0.6773    4.6006 H   0  0  0  0  0  0  0  0  0  0  0  0
    2.1575   -0.8670    3.9052 H   0  0  0  0  0  0  0  0  0  0  0  0
    1.4267    0.7500    4.0539 H   0  0  0  0  0  0  0  0  0  0  0  0
  5  6  2  0  0  0  0
  5  7  1  0  0  0  0
  2  3  1  0  0  0  0
  2  4  1  0  0  0  0
  2  5  1  0  0  0  0
  1  2  1  0  0  0  0
 26 27  2  0  0  0  0
 26 28  1  0  0  0  0
 23 24  1  0  0  0  0
 23 25  1  0  0  0  0
 20 21  1  0  0  0  0
 20 22  1  0  0  0  0
 20 23  1  0  0  0  0
 17 18  1  0  0  0  0
 17 19  1  0  0  0  0
 17 20  1  0  0  0  0
 14 15  1  0  0  0  0
 14 16  1  0  0  0  0
 14 17  1  0  0  0  0
 11 12  1  0  0  0  0
 11 13  1  0  0  0  0
 11 14  1  0  0  0  0
  9 10  1  0  0  0  0
  9 11  1  0  0  0  0
  9 26  1  0  0  0  0
  7  8  1  0  0  0  0
  7  9  1  0  0  0  0
 30 31  1  0  0  0  0
 30 32  1  0  0  0  0
 30 33  1  0  0  0  0
 28 29  1  0  0  0  0
 28 30  1  0  0  0  0
M  END
$$$$
default_name
  -OEChem-01062215323D

 33 32  0     1  0  0  0  0  0999 V2000
   -3.8420   -3.6918    1.5562 H   0  0  0  0  0  0  0  0  0  0  0  0
   -3.8430   -2.7008    1.1032 C   0  0  0  0  0  0  0  0  0  0  0  0
   -4.5510   -2.0608    1.6242 H   0  0  0  0  0  0  0  0  0  0  0  0
   -4.1140   -2.7798    0.0522 H   0  0  0  0  0  0  0  0  0  0  0  0
   -2.4570   -2.1098    1.2172 C   0  0  0  0  0  0  0  0  0  0  0  0
   -1.5600   -2.7438    1.7572 O   0  0  0  0  0  0  0  0  0  0  0  0
   -2.2870   -0.8898    0.7102 N   0  0  0  0  0  0  0  0  0  0  0  0
   -3.0820   -0.4218    0.2992 H   0  0  0  0  0  0  0  0  0  0  0  0
   -1.0240   -0.1468    0.7262 C   0  0  1  0  0  0  0  0  0  0  0  0
   -0.2680   -0.7367    0.2062 H   0  0  0  0  0  0  0  0  0  0  0  0
   -1.2212    1.1806   -0.0314 C   0  0  0  0  0  0  0  0  0  0  0  0
   -2.0942    1.6899    0.3820 H   0  0  0  0  0  0  0  0  0  0  0  0
   -0.3494    1.8174    0.1257 H   0  0  0  0  0  0  0  0  0  0  0  0
   -1.4456    0.9923   -1.5399 C   0  0  0  0  0  0  0  0  0  0  0  0
   -0.5914    0.4730   -1.9751 H   0  0  0  0  0  0  0  0  0  0  0  0
   -2.3453    0.3946   -1.6971 H   0  0  0  0  0  0  0  0  0  0  0  0
   -1.6103    2.3451   -2.2418 C   0  0  0  0  0  0  0  0  0  0  0  0
   -2.4572    2.8805   -1.8117 H   0  0  0  0  0  0  0  0  0  0  0  0
   -0.7043    2.9368   -2.1078 H   0  0  0  0  0  0  0  0  0  0  0  0
   -1.8564    2.1284   -3.7337 C   0  0  0  0  0  0  0  0  0  0  0  0
   -1.0036    1.6102   -4.1692 H   0  0  0  0  0  0  0  0  0  0  0  0
   -2.7509    1.5226   -3.8688 H   0  0  0  0  0  0  0  0  0  0  0  0
   -2.0423    3.4048   -4.4334 N   0  0  0  0  0  0  0  0  0  0  0  0
   -2.1882    3.2251   -5.4159 H   0  0  0  0  0  0  0  0  0  0  0  0
   -2.8519    3.8754   -4.0546 H   0  0  0  0  0  0  0  0  0  0  0  0
   -0.5564    0.0727    2.1744 C   0  0  0  0  0  0  0  0  0  0  0  0
   -1.3546    0.4501    3.0295 O   0  0  0  0  0  0  0  0  0  0  0  0
    0.7351   -0.1545    2.4408 N   0  0  0  0  0  0  0  0  0  0  0  0
    1.3224   -0.4762    1.6890 H   0  0  0  0  0  0  0  0  0  0  0  0
    1.3395    0.0225    3.7603 C   0  0  0  0  0  0  0  0  0  0  0  0
    0.7911   -0.5658    4.4993 H   0  0  0  0  0  0  0  0  0  0  0  0
    2.3821   -0.2984    3.7465 H   0  0  0  0  0  0  0  0  0  0  0  0
    1.2890    1.0744    4.0492 H   0  0  0  0  0  0  0  0  0  0  0  0
  5  6  2  0  0  0  0
  5  7  1  0  0  0  0
  2  3  1  0  0  0  0
  2  4  1  0  0  0  0
  2  5  1  0  0  0  0
  1  2  1  0  0  0  0
 26 27  2  0  0  0  0
 26 28  1  0  0  0  0
 23 24  1  0  0  0  0
 23 25  1  0  0  0  0
 20 21  1  0  0  0  0
 20 22  1  0  0  0  0
 20 23  1  0  0  0  0
 17 18  1  0  0  0  0
 17 19  1  0  0  0  0
 17 20  1  0  0  0  0
 14 15  1  0  0  0  0
 14 16  1  0  0  0  0
 14 17  1  0  0  0  0
 11 12  1  0  0  0  0
 11 13  1  0  0  0  0
 11 14  1  0  0  0  0
  9 10  1  0  0  0  0
  9 11  1  0  0  0  0
  9 26  1  0  0  0  0
  7  8  1  0  0  0  0
  7  9  1  0  0  0  0
 30 31  1  0  0  0  0
 30 32  1  0  0  0  0
 30 33  1  0  0  0  0
 28 29  1  0  0  0  0
 28 30  1  0  0  0  0
M  END
$$$$
default_name
  -OEChem-01062215323D

 33 32  0     1  0  0  0  0  0999 V2000
   -3.8420   -3.6918    1.5562 H   0  0  0  0  0  0  0  0  0  0  0  0
   -3.8430   -2.7008    1.1032 C   0  0  0  0  0  0  0  0  0  0  0  0
   -4.5510   -2.0608    1.6242 H   0  0  0  0  0  0  0  0  0  0  0  0
   -4.1140   -2.7798    0.0522 H   0  0  0  0  0  0  0  0  0  0  0  0
   -2.4570   -2.1098    1.2172 C   0  0  0  0  0  0  0  0  0  0  0  0
   -1.5600   -2.7438    1.7572 O   0  0  0  0  0  0  0  0  0  0  0  0
   -2.2870   -0.8898    0.7102 N   0  0  0  0  0  0  0  0  0  0  0  0
   -3.0820   -0.4218    0.2992 H   0  0  0  0  0  0  0  0  0  0  0  0
   -1.0240   -0.1468    0.7262 C   0  0  1  0  0  0  0  0  0  0  0  0
   -0.2680   -0.7367    0.2062 H   0  0  0  0  0  0  0  0  0  0  0  0
   -1.2212    1.1806   -0.0314 C   0  0  0  0  0  0  0  0  0  0  0  0
   -2.0942    1.6899    0.3820 H   0  0  0  0  0  0  0  0  0  0  0  0
   -0.3494    1.8174    0.1257 H   0  0  0  0  0  0  0  0  0  0  0  0
   -1.4456    0.9923   -1.5399 C   0  0  0  0  0  0  0  0  0  0  0  0
   -0.5914    0.4730   -1.9751 H   0  0  0  0  0  0  0  0  0  0  0  0
   -2.3453    0.3946   -1.6971 H   0  0  0  0  0  0  0  0  0  0  0  0
   -1.6103    2.3451   -2.2418 C   0  0  0  0  0  0  0  0  0  0  0  0
   -2.4572    2.8805   -1.8117 H   0  0  0  0  0  0  0  0  0  0  0  0
   -0.7043    2.9368   -2.1078 H   0  0  0  0  0  0  0  0  0  0  0  0
   -1.8564    2.1284   -3.7337 C   0  0  0  0  0  0  0  0  0  0  0  0
   -1.0036    1.6102   -4.1692 H   0  0  0  0  0  0  0  0  0  0  0  0
   -2.7509    1.5226   -3.8688 H   0  0  0  0  0  0  0  0  0  0  0  0
   -2.0423    3.4048   -4.4334 N   0  0  0  0  0  0  0  0  0  0  0  0
   -2.1882    3.2251   -5.4159 H   0  0  0  0  0  0  0  0  0  0  0  0
   -2.8519    3.8754   -4.0546 H   0  0  0  0  0  0  0  0  0  0  0  0
   -0.5564    0.0727    2.1744 C   0  0  0  0  0  0  0  0  0  0  0  0
   -1.3815    0.1783    3.0793 O   0  0  0  0  0  0  0  0  0  0  0  0
    0.7626    0.1501    2.3858 N   0  0  0  0  0  0  0  0  0  0  0  0
    1.3746    0.0388    1.5941 H   0  0  0  0  0  0  0  0  0  0  0  0
    1.3671    0.3716    3.6985 C   0  0  0  0  0  0  0  0  0  0  0  0
    1.0127   -0.3864    4.4006 H   0  0  0  0  0  0  0  0  0  0  0  0
    2.4546    0.3181    3.6297 H   0  0  0  0  0  0  0  0  0  0  0  0
    1.0768    1.3545    4.0752 H   0  0  0  0  0  0  0  0  0  0  0  0
  5  6  2  0  0  0  0
  5  7  1  0  0  0  0
  2  3  1  0  0  0  0
  2  4  1  0  0  0  0
  2  5  1  0  0  0  0
  1  2  1  0  0  0  0
 26 27  2  0  0  0  0
 26 28  1  0  0  0  0
 23 24  1  0  0  0  0
 23 25  1  0  0  0  0
 20 21  1  0  0  0  0
 20 22  1  0  0  0  0
 20 23  1  0  0  0  0
 17 18  1  0  0  0  0
 17 19  1  0  0  0  0
 17 20  1  0  0  0  0
 14 15  1  0  0  0  0
 14 16  1  0  0  0  0
 14 17  1  0  0  0  0
 11 12  1  0  0  0  0
 11 13  1  0  0  0  0
 11 14  1  0  0  0  0
  9 10  1  0  0  0  0
  9 11  1  0  0  0  0
  9 26  1  0  0  0  0
  7  8  1  0  0  0  0
  7  9  1  0  0  0  0
 30 31  1  0  0  0  0
 30 32  1  0  0  0  0
 30 33  1  0  0  0  0
 28 29  1  0  0  0  0
 28 30  1  0  0  0  0
M  END
$$$$
default_name
  -OEChem-01062215323D

 33 32  0     1  0  0  0  0  0999 V2000
   -3.8420   -3.6918    1.5562 H   0  0  0  0  0  0  0  0  0  0  0  0
   -3.8430   -2.7008    1.1032 C   0  0  0  0  0  0  0  0  0  0  0  0
   -4.5510   -2.0608    1.6242 H   0  0  0  0  0  0  0  0  0  0  0  0
   -4.1140   -2.7798    0.0522 H   0  0  0  0  0  0  0  0  0  0  0  0
   -2.4570   -2.1098    1.2172 C   0  0  0  0  0  0  0  0  0  0  0  0
   -1.5600   -2.7438    1.7572 O   0  0  0  0  0  0  0  0  0  0  0  0
   -2.2870   -0.8898    0.7102 N   0  0  0  0  0  0  0  0  0  0  0  0
   -3.0820   -0.4218    0.2992 H   0  0  0  0  0  0  0  0  0  0  0  0
   -1.0240   -0.1468    0.7262 C   0  0  1  0  0  0  0  0  0  0  0  0
   -0.2680   -0.7367    0.2062 H   0  0  0  0  0  0  0  0  0  0  0  0
   -1.2212    1.1806   -0.0314 C   0  0  0  0  0  0  0  0  0  0  0  0
   -2.0942    1.6899    0.3820 H   0  0  0  0  0  0  0  0  0  0  0  0
   -0.3494    1.8174    0.1257 H   0  0  0  0  0  0  0  0  0  0  0  0
   -1.4456    0.9923   -1.5399 C   0  0  0  0  0  0  0  0  0  0  0  0
   -0.5914    0.4730   -1.9751 H   0  0  0  0  0  0  0  0  0  0  0  0
   -2.3453    0.3946   -1.6971 H   0  0  0  0  0  0  0  0  0  0  0  0
   -1.6103    2.3451   -2.2418 C   0  0  0  0  0  0  0  0  0  0  0  0
   -2.4572    2.8805   -1.8117 H   0  0  0  0  0  0  0  0  0  0  0  0
   -0.7043    2.9368   -2.1078 H   0  0  0  0  0  0  0  0  0  0  0  0
   -1.8564    2.1284   -3.7337 C   0  0  0  0  0  0  0  0  0  0  0  0
   -1.0036    1.6102   -4.1692 H   0  0  0  0  0  0  0  0  0  0  0  0
   -2.7509    1.5226   -3.8688 H   0  0  0  0  0  0  0  0  0  0  0  0
   -2.0423    3.4048   -4.4334 N   0  0  0  0  0  0  0  0  0  0  0  0
   -2.1882    3.2251   -5.4159 H   0  0  0  0  0  0  0  0  0  0  0  0
   -2.8519    3.8754   -4.0546 H   0  0  0  0  0  0  0  0  0  0  0  0
   -0.5564    0.0727    2.1744 C   0  0  0  0  0  0  0  0  0  0  0  0
   -1.3393   -0.0947    3.1071 O   0  0  0  0  0  0  0  0  0  0  0  0
    0.7130    0.4553    2.3556 N   0  0  0  0  0  0  0  0  0  0  0  0
    1.2960    0.5566    1.5411 H   0  0  0  0  0  0  0  0  0  0  0  0
    1.3064    0.7203    3.6653 C   0  0  0  0  0  0  0  0  0  0  0  0
    1.1794   -0.1513    4.3111 H   0  0  0  0  0  0  0  0  0  0  0  0
    2.3700    0.9405    3.5627 H   0  0  0  0  0  0  0  0  0  0  0  0
    0.8045    1.5713    4.1303 H   0  0  0  0  0  0  0  0  0  0  0  0
  5  6  2  0  0  0  0
  5  7  1  0  0  0  0
  2  3  1  0  0  0  0
  2  4  1  0  0  0  0
  2  5  1  0  0  0  0
  1  2  1  0  0  0  0
 26 27  2  0  0  0  0
 26 28  1  0  0  0  0
 23 24  1  0  0  0  0
 23 25  1  0  0  0  0
 20 21  1  0  0  0  0
 20 22  1  0  0  0  0
 20 23  1  0  0  0  0
 17 18  1  0  0  0  0
 17 19  1  0  0  0  0
 17 20  1  0  0  0  0
 14 15  1  0  0  0  0
 14 16  1  0  0  0  0
 14 17  1  0  0  0  0
 11 12  1  0  0  0  0
 11 13  1  0  0  0  0
 11 14  1  0  0  0  0
  9 10  1  0  0  0  0
  9 11  1  0  0  0  0
  9 26  1  0  0  0  0
  7  8  1  0  0  0  0
  7  9  1  0  0  0  0
 30 31  1  0  0  0  0
 30 32  1  0  0  0  0
 30 33  1  0  0  0  0
 28 29  1  0  0  0  0
 28 30  1  0  0  0  0
M  END
$$$$
default_name
  -OEChem-01062215323D

 33 32  0     1  0  0  0  0  0999 V2000
   -3.8420   -3.6918    1.5562 H   0  0  0  0  0  0  0  0  0  0  0  0
   -3.8430   -2.7008    1.1032 C   0  0  0  0  0  0  0  0  0  0  0  0
   -4.5510   -2.0608    1.6242 H   0  0  0  0  0  0  0  0  0  0  0  0
   -4.1140   -2.7798    0.0522 H   0  0  0  0  0  0  0  0  0  0  0  0
   -2.4570   -2.1098    1.2172 C   0  0  0  0  0  0  0  0  0  0  0  0
   -1.5600   -2.7438    1.7572 O   0  0  0  0  0  0  0  0  0  0  0  0
   -2.2870   -0.8898    0.7102 N   0  0  0  0  0  0  0  0  0  0  0  0
   -3.0820   -0.4218    0.2992 H   0  0  0  0  0  0  0  0  0  0  0  0
   -1.0240   -0.1468    0.7262 C   0  0  1  0  0  0  0  0  0  0  0  0
   -0.3501   -0.5924   -0.0068 H   0  0  0  0  0  0  0  0  0  0  0  0
   -1.3031    1.3124    0.3166 C   0  0  0  0  0  0  0  0  0  0  0  0
   -2.1079    1.7011    0.9439 H   0  0  0  0  0  0  0  0  0  0  0  0
   -0.4107    1.9134    0.4963 H   0  0  0  0  0  0  0  0  0  0  0  0
   -1.7263    1.4611   -1.1532 C   0  0  0  0  0  0  0  0  0  0  0  0
   -0.9430    1.0670   -1.8013 H   0  0  0  0  0  0  0  0  0  0  0  0
   -2.6460    0.8975   -1.3207 H   0  0  0  0  0  0  0  0  0  0  0  0
   -1.9655    2.9331   -1.5077 C   0  0  0  0  0  0  0  0  0  0  0  0
   -2.7420    3.3441   -0.8617 H   0  0  0  0  0  0  0  0  0  0  0  0
   -1.0427    3.4961   -1.3647 H   0  0  0  0  0  0  0  0  0  0  0  0
   -2.4083    3.0501   -2.9648 C   0  0  0  0  0  0  0  0  0  0  0  0
   -1.6265    2.6572   -3.6129 H   0  0  0  0  0  0  0  0  0  0  0  0
   -3.3201    2.4739   -3.1135 H   0  0  0  0  0  0  0  0  0  0  0  0
   -2.6693    4.4468   -3.3314 N   0  0  0  0  0  0  0  0  0  0  0  0
   -2.9453    4.4881   -4.3015 H   0  0  0  0  0  0  0  0  0  0  0  0
   -3.4162    4.8068   -2.7545 H   0  0  0  0  0  0  0  0  0  0  0  0
   -0.3673   -0.2474    2.1128 C   0  0  0  0  0  0  0  0  0  0  0  0
   -0.9179   -0.8802    3.0113 O   0  0  0  0  0  0  0  0  0  0  0  0
    0.7999    0.3841    2.2837 N   0  0  0  0  0  0  0  0  0  0  0  0
    1.1939    0.8691    1.4943 H   0  0  0  0  0  0  0  0  0  0  0  0
    1.5430    0.3990    3.5428 C   0  0  0  0  0  0  0  0  0  0  0  0
    1.7247   -0.6251    3.8762 H   0  0  0  0  0  0  0  0  0  0  0  0
    2.4980    0.9105    3.4140 H   0  0  0  0  0  0  0  0  0  0  0  0
    0.9581    0.9132    4.3082 H   0  0  0  0  0  0  0  0  0  0  0  0
  5  6  2  0  0  0  0
  5  7  1  0  0  0  0
  2  3  1  0  0  0  0
  2  4  1  0  0  0  0
  2  5  1  0  0  0  0
  1  2  1  0  0  0  0
 26 27  2  0  0  0  0
 26 28  1  0  0  0  0
 23 24  1  0  0  0  0
 23 25  1  0  0  0  0
 20 21  1  0  0  0  0
 20 22  1  0  0  0  0
 20 23  1  0  0  0  0
 17 18  1  0  0  0  0
 17 19  1  0  0  0  0
 17 20  1  0  0  0  0
 14 15  1  0  0  0  0
 14 16  1  0  0  0  0
 14 17  1  0  0  0  0
 11 12  1  0  0  0  0
 11 13  1  0  0  0  0
 11 14  1  0  0  0  0
  9 10  1  0  0  0  0
  9 11  1  0  0  0  0
  9 26  1  0  0  0  0
  7  8  1  0  0  0  0
  7  9  1  0  0  0  0
 30 31  1  0  0  0  0
 30 32  1  0  0  0  0
 30 33  1  0  0  0  0
 28 29  1  0  0  0  0
 28 30  1  0  0  0  0
M  END
$$$$
default_name
  -OEChem-01062215323D

 33 32  0     1  0  0  0  0  0999 V2000
   -3.8420   -3.6918    1.5562 H   0  0  0  0  0  0  0  0  0  0  0  0
   -3.8430   -2.7008    1.1032 C   0  0  0  0  0  0  0  0  0  0  0  0
   -4.5510   -2.0608    1.6242 H   0  0  0  0  0  0  0  0  0  0  0  0
   -4.1140   -2.7798    0.0522 H   0  0  0  0  0  0  0  0  0  0  0  0
   -2.4570   -2.1098    1.2172 C   0  0  0  0  0  0  0  0  0  0  0  0
   -1.5600   -2.7438    1.7572 O   0  0  0  0  0  0  0  0  0  0  0  0
   -2.2870   -0.8898    0.7102 N   0  0  0  0  0  0  0  0  0  0  0  0
   -3.0820   -0.4218    0.2992 H   0  0  0  0  0  0  0  0  0  0  0  0
   -1.0240   -0.1468    0.7262 C   0  0  1  0  0  0  0  0  0  0  0  0
   -0.3501   -0.5924   -0.0068 H   0  0  0  0  0  0  0  0  0  0  0  0
   -1.3031    1.3124    0.3166 C   0  0  0  0  0  0  0  0  0  0  0  0
   -2.1079    1.7011    0.9439 H   0  0  0  0  0  0  0  0  0  0  0  0
   -0.4107    1.9134    0.4963 H   0  0  0  0  0  0  0  0  0  0  0  0
   -1.7263    1.4611   -1.1532 C   0  0  0  0  0  0  0  0  0  0  0  0
   -0.9430    1.0670   -1.8013 H   0  0  0  0  0  0  0  0  0  0  0  0
   -2.6460    0.8975   -1.3207 H   0  0  0  0  0  0  0  0  0  0  0  0
   -1.9655    2.9331   -1.5077 C   0  0  0  0  0  0  0  0  0  0  0  0
   -2.7420    3.3441   -0.8617 H   0  0  0  0  0  0  0  0  0  0  0  0
   -1.0427    3.4961   -1.3647 H   0  0  0  0  0  0  0  0  0  0  0  0
   -2.4083    3.0501   -2.9648 C   0  0  0  0  0  0  0  0  0  0  0  0
   -1.6265    2.6572   -3.6129 H   0  0  0  0  0  0  0  0  0  0  0  0
   -3.3201    2.4739   -3.1135 H   0  0  0  0  0  0  0  0  0  0  0  0
   -2.6693    4.4468   -3.3314 N   0  0  0  0  0  0  0  0  0  0  0  0
   -2.9453    4.4881   -4.3015 H   0  0  0  0  0  0  0  0  0  0  0  0
   -3.4162    4.8068   -2.7545 H   0  0  0  0  0  0  0  0  0  0  0  0
   -0.3673   -0.2474    2.1128 C   0  0  0  0  0  0  0  0  0  0  0  0
   -0.7577   -1.0879    2.9203 O   0  0  0  0  0  0  0  0  0  0  0  0
    0.6188    0.6148    2.3863 N   0  0  0  0  0  0  0  0  0  0  0  0
    0.8911    1.2638    1.6663 H   0  0  0  0  0  0  0  0  0  0  0  0
    1.3329    0.6602    3.6613 C   0  0  0  0  0  0  0  0  0  0  0  0
    1.7482   -0.3244    3.8869 H   0  0  0  0  0  0  0  0  0  0  0  0
    2.1419    1.3908    3.6175 H   0  0  0  0  0  0  0  0  0  0  0  0
    0.6408    0.9349    4.4601 H   0  0  0  0  0  0  0  0  0  0  0  0
  5  6  2  0  0  0  0
  5  7  1  0  0  0  0
  2  3  1  0  0  0  0
  2  4  1  0  0  0  0
  2  5  1  0  0  0  0
  1  2  1  0  0  0  0
 26 27  2  0  0  0  0
 26 28  1  0  0  0  0
 23 24  1  0  0  0  0
 23 25  1  0  0  0  0
 20 21  1  0  0  0  0
 20 22  1  0  0  0  0
 20 23  1  0  0  0  0
 17 18  1  0  0  0  0
 17 19  1  0  0  0  0
 17 20  1  0  0  0  0
 14 15  1  0  0  0  0
 14 16  1  0  0  0  0
 14 17  1  0  0  0  0
 11 12  1  0  0  0  0
 11 13  1  0  0  0  0
 11 14  1  0  0  0  0
  9 10  1  0  0  0  0
  9 11  1  0  0  0  0
  9 26  1  0  0  0  0
  7  8  1  0  0  0  0
  7  9  1  0  0  0  0
 30 31  1  0  0  0  0
 30 32  1  0  0  0  0
 30 33  1  0  0  0  0
 28 29  1  0  0  0  0
 28 30  1  0  0  0  0
M  END
$$$$
default_name
  -OEChem-01062215323D

 33 32  0     1  0  0  0  0  0999 V2000
   -3.8420   -3.6918    1.5562 H   0  0  0  0  0  0  0  0  0  0  0  0
   -3.8430   -2.7008    1.1032 C   0  0  0  0  0  0  0  0  0  0  0  0
   -4.5510   -2.0608    1.6242 H   0  0  0  0  0  0  0  0  0  0  0  0
   -4.1140   -2.7798    0.0522 H   0  0  0  0  0  0  0  0  0  0  0  0
   -2.4570   -2.1098    1.2172 C   0  0  0  0  0  0  0  0  0  0  0  0
   -1.5600   -2.7438    1.7572 O   0  0  0  0  0  0  0  0  0  0  0  0
   -2.2870   -0.8898    0.7102 N   0  0  0  0  0  0  0  0  0  0  0  0
   -3.0820   -0.4218    0.2992 H   0  0  0  0  0  0  0  0  0  0  0  0
   -1.0240   -0.1468    0.7262 C   0  0  1  0  0  0  0  0  0  0  0  0
   -0.3501   -0.5924   -0.0068 H   0  0  0  0  0  0  0  0  0  0  0  0
   -1.3031    1.3124    0.3166 C   0  0  0  0  0  0  0  0  0  0  0  0
   -2.1079    1.7011    0.9439 H   0  0  0  0  0  0  0  0  0  0  0  0
   -0.4107    1.9134    0.4963 H   0  0  0  0  0  0  0  0  0  0  0  0
   -1.7263    1.4611   -1.1532 C   0  0  0  0  0  0  0  0  0  0  0  0
   -0.9430    1.0670   -1.8013 H   0  0  0  0  0  0  0  0  0  0  0  0
   -2.6460    0.8975   -1.3207 H   0  0  0  0  0  0  0  0  0  0  0  0
   -1.9655    2.9331   -1.5077 C   0  0  0  0  0  0  0  0  0  0  0  0
   -2.7420    3.3441   -0.8617 H   0  0  0  0  0  0  0  0  0  0  0  0
   -1.0427    3.4961   -1.3647 H   0  0  0  0  0  0  0  0  0  0  0  0
   -2.4083    3.0501   -2.9648 C   0  0  0  0  0  0  0  0  0  0  0  0
   -1.6265    2.6572   -3.6129 H   0  0  0  0  0  0  0  0  0  0  0  0
   -3.3201    2.4739   -3.1135 H   0  0  0  0  0  0  0  0  0  0  0  0
   -2.6693    4.4468   -3.3314 N   0  0  0  0  0  0  0  0  0  0  0  0
   -2.9453    4.4881   -4.3015 H   0  0  0  0  0  0  0  0  0  0  0  0
   -3.4162    4.8068   -2.7545 H   0  0  0  0  0  0  0  0  0  0  0  0
   -0.3673   -0.2474    2.1128 C   0  0  0  0  0  0  0  0  0  0  0  0
   -0.5529   -1.2410    2.8122 O   0  0  0  0  0  0  0  0  0  0  0  0
    0.3882    0.7840    2.5077 N   0  0  0  0  0  0  0  0  0  0  0  0
    0.5036    1.5553    1.8710 H   0  0  0  0  0  0  0  0  0  0  0  0
    1.0669    0.8504    3.8011 C   0  0  0  0  0  0  0  0  0  0  0  0
    1.7006   -0.0297    3.9308 H   0  0  0  0  0  0  0  0  0  0  0  0
    1.6823    1.7491    3.8612 H   0  0  0  0  0  0  0  0  0  0  0  0
    0.3267    0.8649    4.6037 H   0  0  0  0  0  0  0  0  0  0  0  0
  5  6  2  0  0  0  0
  5  7  1  0  0  0  0
  2  3  1  0  0  0  0
  2  4  1  0  0  0  0
  2  5  1  0  0  0  0
  1  2  1  0  0  0  0
 26 27  2  0  0  0  0
 26 28  1  0  0  0  0
 23 24  1  0  0  0  0
 23 25  1  0  0  0  0
 20 21  1  0  0  0  0
 20 22  1  0  0  0  0
 20 23  1  0  0  0  0
 17 18  1  0  0  0  0
 17 19  1  0  0  0  0
 17 20  1  0  0  0  0
 14 15  1  0  0  0  0
 14 16  1  0  0  0  0
 14 17  1  0  0  0  0
 11 12  1  0  0  0  0
 11 13  1  0  0  0  0
 11 14  1  0  0  0  0
  9 10  1  0  0  0  0
  9 11  1  0  0  0  0
  9 26  1  0  0  0  0
  7  8  1  0  0  0  0
  7  9  1  0  0  0  0
 30 31  1  0  0  0  0
 30 32  1  0  0  0  0
 30 33  1  0  0  0  0
 28 29  1  0  0  0  0
 28 30  1  0  0  0  0
M  END
$$$$
default_name
  -OEChem-01062215323D

 33 32  0     1  0  0  0  0  0999 V2000
   -3.8420   -3.6918    1.5562 H   0  0  0  0  0  0  0  0  0  0  0  0
   -3.8430   -2.7008    1.1032 C   0  0  0  0  0  0  0  0  0  0  0  0
   -4.5510   -2.0608    1.6242 H   0  0  0  0  0  0  0  0  0  0  0  0
   -4.1140   -2.7798    0.0522 H   0  0  0  0  0  0  0  0  0  0  0  0
   -2.4570   -2.1098    1.2172 C   0  0  0  0  0  0  0  0  0  0  0  0
   -1.5600   -2.7438    1.7572 O   0  0  0  0  0  0  0  0  0  0  0  0
   -2.2870   -0.8898    0.7102 N   0  0  0  0  0  0  0  0  0  0  0  0
   -3.0820   -0.4218    0.2992 H   0  0  0  0  0  0  0  0  0  0  0  0
   -1.0240   -0.1468    0.7262 C   0  0  1  0  0  0  0  0  0  0  0  0
   -0.3501   -0.5924   -0.0068 H   0  0  0  0  0  0  0  0  0  0  0  0
   -1.3031    1.3124    0.3166 C   0  0  0  0  0  0  0  0  0  0  0  0
   -2.1079    1.7011    0.9439 H   0  0  0  0  0  0  0  0  0  0  0  0
   -0.4107    1.9134    0.4963 H   0  0  0  0  0  0  0  0  0  0  0  0
   -1.7263    1.4611   -1.1532 C   0  0  0  0  0  0  0  0  0  0  0  0
   -0.9430    1.0670   -1.8013 H   0  0  0  0  0  0  0  0  0  0  0  0
   -2.6460    0.8975   -1.3207 H   0  0  0  0  0  0  0  0  0  0  0  0
   -1.9655    2.9331   -1.5077 C   0  0  0  0  0  0  0  0  0  0  0  0
   -2.7420    3.3441   -0.8617 H   0  0  0  0  0  0  0  0  0  0  0  0
   -1.0427    3.4961   -1.3647 H   0  0  0  0  0  0  0  0  0  0  0  0
   -2.4083    3.0501   -2.9648 C   0  0  0  0  0  0  0  0  0  0  0  0
   -1.6265    2.6572   -3.6129 H   0  0  0  0  0  0  0  0  0  0  0  0
   -3.3201    2.4739   -3.1135 H   0  0  0  0  0  0  0  0  0  0  0  0
   -2.6693    4.4468   -3.3314 N   0  0  0  0  0  0  0  0  0  0  0  0
   -2.9453    4.4881   -4.3015 H   0  0  0  0  0  0  0  0  0  0  0  0
   -3.4162    4.8068   -2.7545 H   0  0  0  0  0  0  0  0  0  0  0  0
   -0.3673   -0.2474    2.1128 C   0  0  0  0  0  0  0  0  0  0  0  0
   -0.3175   -1.3291    2.6943 O   0  0  0  0  0  0  0  0  0  0  0  0
    0.1239    0.8802    2.6399 N   0  0  0  0  0  0  0  0  0  0  0  0
    0.0578    1.7238    2.0944 H   0  0  0  0  0  0  0  0  0  0  0  0
    0.7633    0.9565    3.9526 C   0  0  0  0  0  0  0  0  0  0  0  0
    1.5850    0.2390    4.0050 H   0  0  0  0  0  0  0  0  0  0  0  0
    1.1507    1.9611    4.1283 H   0  0  0  0  0  0  0  0  0  0  0  0
    0.0372    0.7081    4.7295 H   0  0  0  0  0  0  0  0  0  0  0  0
  5  6  2  0  0  0  0
  5  7  1  0  0  0  0
  2  3  1  0  0  0  0
  2  4  1  0  0  0  0
  2  5  1  0  0  0  0
  1  2  1  0  0  0  0
 26 27  2  0  0  0  0
 26 28  1  0  0  0  0
 23 24  1  0  0  0  0
 23 25  1  0  0  0  0
 20 21  1  0  0  0  0
 20 22  1  0  0  0  0
 20 23  1  0  0  0  0
 17 18  1  0  0  0  0
 17 19  1  0  0  0  0
 17 20  1  0  0  0  0
 14 15  1  0  0  0  0
 14 16  1  0  0  0  0
 14 17  1  0  0  0  0
 11 12  1  0  0  0  0
 11 13  1  0  0  0  0
 11 14  1  0  0  0  0
  9 10  1  0  0  0  0
  9 11  1  0  0  0  0
  9 26  1  0  0  0  0
  7  8  1  0  0  0  0
  7  9  1  0  0  0  0
 30 31  1  0  0  0  0
 30 32  1  0  0  0  0
 30 33  1  0  0  0  0
 28 29  1  0  0  0  0
 28 30  1  0  0  0  0
M  END
$$$$
default_name
  -OEChem-01062215323D

 33 32  0     1  0  0  0  0  0999 V2000
   -3.8420   -3.6918    1.5562 H   0  0  0  0  0  0  0  0  0  0  0  0
   -3.8430   -2.7008    1.1032 C   0  0  0  0  0  0  0  0  0  0  0  0
   -4.5510   -2.0608    1.6242 H   0  0  0  0  0  0  0  0  0  0  0  0
   -4.1140   -2.7798    0.0522 H   0  0  0  0  0  0  0  0  0  0  0  0
   -2.4570   -2.1098    1.2172 C   0  0  0  0  0  0  0  0  0  0  0  0
   -1.5600   -2.7438    1.7572 O   0  0  0  0  0  0  0  0  0  0  0  0
   -2.2870   -0.8898    0.7102 N   0  0  0  0  0  0  0  0  0  0  0  0
   -3.0820   -0.4218    0.2992 H   0  0  0  0  0  0  0  0  0  0  0  0
   -1.0240   -0.1468    0.7262 C   0  0  1  0  0  0  0  0  0  0  0  0
   -0.3501   -0.5924   -0.0068 H   0  0  0  0  0  0  0  0  0  0  0  0
   -1.3031    1.3124    0.3166 C   0  0  0  0  0  0  0  0  0  0  0  0
   -2.1079    1.7011    0.9439 H   0  0  0  0  0  0  0  0  0  0  0  0
   -0.4107    1.9134    0.4963 H   0  0  0  0  0  0  0  0  0  0  0  0
   -1.7263    1.4611   -1.1532 C   0  0  0  0  0  0  0  0  0  0  0  0
   -0.9430    1.0670   -1.8013 H   0  0  0  0  0  0  0  0  0  0  0  0
   -2.6460    0.8975   -1.3207 H   0  0  0  0  0  0  0  0  0  0  0  0
   -1.9655    2.9331   -1.5077 C   0  0  0  0  0  0  0  0  0  0  0  0
   -2.7420    3.3441   -0.8617 H   0  0  0  0  0  0  0  0  0  0  0  0
   -1.0427    3.4961   -1.3647 H   0  0  0  0  0  0  0  0  0  0  0  0
   -2.4083    3.0501   -2.9648 C   0  0  0  0  0  0  0  0  0  0  0  0
   -1.6265    2.6572   -3.6129 H   0  0  0  0  0  0  0  0  0  0  0  0
   -3.3201    2.4739   -3.1135 H   0  0  0  0  0  0  0  0  0  0  0  0
   -2.6693    4.4468   -3.3314 N   0  0  0  0  0  0  0  0  0  0  0  0
   -2.9453    4.4881   -4.3015 H   0  0  0  0  0  0  0  0  0  0  0  0
   -3.4162    4.8068   -2.7545 H   0  0  0  0  0  0  0  0  0  0  0  0
   -0.3673   -0.2474    2.1128 C   0  0  0  0  0  0  0  0  0  0  0  0
   -0.0676   -1.3463    2.5747 O   0  0  0  0  0  0  0  0  0  0  0  0
   -0.1560    0.8968    2.7737 N   0  0  0  0  0  0  0  0  0  0  0  0
   -0.4160    1.7578    2.3212 H   0  0  0  0  0  0  0  0  0  0  0  0
    0.4426    0.9714    4.1055 C   0  0  0  0  0  0  0  0  0  0  0  0
    1.4095    0.4633    4.1045 H   0  0  0  0  0  0  0  0  0  0  0  0
    0.5831    2.0121    4.4008 H   0  0  0  0  0  0  0  0  0  0  0  0
   -0.2080    0.4752    4.8287 H   0  0  0  0  0  0  0  0  0  0  0  0
  5  6  2  0  0  0  0
  5  7  1  0  0  0  0
  2  3  1  0  0  0  0
  2  4  1  0  0  0  0
  2  5  1  0  0  0  0
  1  2  1  0  0  0  0
 26 27  2  0  0  0  0
 26 28  1  0  0  0  0
 23 24  1  0  0  0  0
 23 25  1  0  0  0  0
 20 21  1  0  0  0  0
 20 22  1  0  0  0  0
 20 23  1  0  0  0  0
 17 18  1  0  0  0  0
 17 19  1  0  0  0  0
 17 20  1  0  0  0  0
 14 15  1  0  0  0  0
 14 16  1  0  0  0  0
 14 17  1  0  0  0  0
 11 12  1  0  0  0  0
 11 13  1  0  0  0  0
 11 14  1  0  0  0  0
  9 10  1  0  0  0  0
  9 11  1  0  0  0  0
  9 26  1  0  0  0  0
  7  8  1  0  0  0  0
  7  9  1  0  0  0  0
 30 31  1  0  0  0  0
 30 32  1  0  0  0  0
 30 33  1  0  0  0  0
 28 29  1  0  0  0  0
 28 30  1  0  0  0  0
M  END
$$$$
default_name
  -OEChem-01062215323D

 33 32  0     1  0  0  0  0  0999 V2000
   -3.8420   -3.6918    1.5562 H   0  0  0  0  0  0  0  0  0  0  0  0
   -3.8430   -2.7008    1.1032 C   0  0  0  0  0  0  0  0  0  0  0  0
   -4.5510   -2.0608    1.6242 H   0  0  0  0  0  0  0  0  0  0  0  0
   -4.1140   -2.7798    0.0522 H   0  0  0  0  0  0  0  0  0  0  0  0
   -2.4570   -2.1098    1.2172 C   0  0  0  0  0  0  0  0  0  0  0  0
   -1.5600   -2.7438    1.7572 O   0  0  0  0  0  0  0  0  0  0  0  0
   -2.2870   -0.8898    0.7102 N   0  0  0  0  0  0  0  0  0  0  0  0
   -3.0820   -0.4218    0.2992 H   0  0  0  0  0  0  0  0  0  0  0  0
   -1.0240   -0.1468    0.7262 C   0  0  1  0  0  0  0  0  0  0  0  0
   -0.3501   -0.5924   -0.0068 H   0  0  0  0  0  0  0  0  0  0  0  0
   -1.3031    1.3124    0.3166 C   0  0  0  0  0  0  0  0  0  0  0  0
   -2.1079    1.7011    0.9439 H   0  0  0  0  0  0  0  0  0  0  0  0
   -0.4107    1.9134    0.4963 H   0  0  0  0  0  0  0  0  0  0  0  0
   -1.7263    1.4611   -1.1532 C   0  0  0  0  0  0  0  0  0  0  0  0
   -0.9430    1.0670   -1.8013 H   0  0  0  0  0  0  0  0  0  0  0  0
   -2.6460    0.8975   -1.3207 H   0  0  0  0  0  0  0  0  0  0  0  0
   -1.9655    2.9331   -1.5077 C   0  0  0  0  0  0  0  0  0  0  0  0
   -2.7420    3.3441   -0.8617 H   0  0  0  0  0  0  0  0  0  0  0  0
   -1.0427    3.4961   -1.3647 H   0  0  0  0  0  0  0  0  0  0  0  0
   -2.4083    3.0501   -2.9648 C   0  0  0  0  0  0  0  0  0  0  0  0
   -1.6265    2.6572   -3.6129 H   0  0  0  0  0  0  0  0  0  0  0  0
   -3.3201    2.4739   -3.1135 H   0  0  0  0  0  0  0  0  0  0  0  0
   -2.6693    4.4468   -3.3314 N   0  0  0  0  0  0  0  0  0  0  0  0
   -2.9453    4.4881   -4.3015 H   0  0  0  0  0  0  0  0  0  0  0  0
   -3.4162    4.8068   -2.7545 H   0  0  0  0  0  0  0  0  0  0  0  0
   -0.3673   -0.2474    2.1128 C   0  0  0  0  0  0  0  0  0  0  0  0
    0.1798   -1.2914    2.4615 O   0  0  0  0  0  0  0  0  0  0  0  0
   -0.4326    0.8327    2.9000 N   0  0  0  0  0  0  0  0  0  0  0  0
   -0.8853    1.6550    2.5361 H   0  0  0  0  0  0  0  0  0  0  0  0
    0.1268    0.8940    4.2494 C   0  0  0  0  0  0  0  0  0  0  0  0
    1.1858    0.6281    4.2223 H   0  0  0  0  0  0  0  0  0  0  0  0
    0.0184    1.8989    4.6601 H   0  0  0  0  0  0  0  0  0  0  0  0
   -0.3921    0.1821    4.8946 H   0  0  0  0  0  0  0  0  0  0  0  0
  5  6  2  0  0  0  0
  5  7  1  0  0  0  0
  2  3  1  0  0  0  0
  2  4  1  0  0  0  0
  2  5  1  0  0  0  0
  1  2  1  0  0  0  0
 26 27  2  0  0  0  0
 26 28  1  0  0  0  0
 23 24  1  0  0  0  0
 23 25  1  0  0  0  0
 20 21  1  0  0  0  0
 20 22  1  0  0  0  0
 20 23  1  0  0  0  0
 17 18  1  0  0  0  0
 17 19  1  0  0  0  0
 17 20  1  0  0  0  0
 14 15  1  0  0  0  0
 14 16  1  0  0  0  0
 14 17  1  0  0  0  0
 11 12  1  0  0  0  0
 11 13  1  0  0  0  0
 11 14  1  0  0  0  0
  9 10  1  0  0  0  0
  9 11  1  0  0  0  0
  9 26  1  0  0  0  0
  7  8  1  0  0  0  0
  7  9  1  0  0  0  0
 30 31  1  0  0  0  0
 30 32  1  0  0  0  0
 30 33  1  0  0  0  0
 28 29  1  0  0  0  0
 28 30  1  0  0  0  0
M  END
$$$$
default_name
  -OEChem-01062215323D

 33 32  0     1  0  0  0  0  0999 V2000
   -3.8420   -3.6918    1.5562 H   0  0  0  0  0  0  0  0  0  0  0  0
   -3.8430   -2.7008    1.1032 C   0  0  0  0  0  0  0  0  0  0  0  0
   -4.5510   -2.0608    1.6242 H   0  0  0  0  0  0  0  0  0  0  0  0
   -4.1140   -2.7798    0.0522 H   0  0  0  0  0  0  0  0  0  0  0  0
   -2.4570   -2.1098    1.2172 C   0  0  0  0  0  0  0  0  0  0  0  0
   -1.5600   -2.7438    1.7572 O   0  0  0  0  0  0  0  0  0  0  0  0
   -2.2870   -0.8898    0.7102 N   0  0  0  0  0  0  0  0  0  0  0  0
   -3.0820   -0.4218    0.2992 H   0  0  0  0  0  0  0  0  0  0  0  0
   -1.0240   -0.1468    0.7262 C   0  0  1  0  0  0  0  0  0  0  0  0
   -0.3501   -0.5924   -0.0068 H   0  0  0  0  0  0  0  0  0  0  0  0
   -1.3031    1.3124    0.3166 C   0  0  0  0  0  0  0  0  0  0  0  0
   -2.1079    1.7011    0.9439 H   0  0  0  0  0  0  0  0  0  0  0  0
   -0.4107    1.9134    0.4963 H   0  0  0  0  0  0  0  0  0  0  0  0
   -1.7263    1.4611   -1.1532 C   0  0  0  0  0  0  0  0  0  0  0  0
   -0.9430    1.0670   -1.8013 H   0  0  0  0  0  0  0  0  0  0  0  0
   -2.6460    0.8975   -1.3207 H   0  0  0  0  0  0  0  0  0  0  0  0
   -1.9655    2.9331   -1.5077 C   0  0  0  0  0  0  0  0  0  0  0  0
   -2.7420    3.3441   -0.8617 H   0  0  0  0  0  0  0  0  0  0  0  0
   -1.0427    3.4961   -1.3647 H   0  0  0  0  0  0  0  0  0  0  0  0
   -2.4083    3.0501   -2.9648 C   0  0  0  0  0  0  0  0  0  0  0  0
   -1.6265    2.6572   -3.6129 H   0  0  0  0  0  0  0  0  0  0  0  0
   -3.3201    2.4739   -3.1135 H   0  0  0  0  0  0  0  0  0  0  0  0
   -2.6693    4.4468   -3.3314 N   0  0  0  0  0  0  0  0  0  0  0  0
   -2.9453    4.4881   -4.3015 H   0  0  0  0  0  0  0  0  0  0  0  0
   -3.4162    4.8068   -2.7545 H   0  0  0  0  0  0  0  0  0  0  0  0
   -0.3673   -0.2474    2.1128 C   0  0  0  0  0  0  0  0  0  0  0  0
    0.4080   -1.1680    2.3624 O   0  0  0  0  0  0  0  0  0  0  0  0
   -0.6869    0.6923    3.0102 N   0  0  0  0  0  0  0  0  0  0  0  0
   -1.3184    1.4224    2.7243 H   0  0  0  0  0  0  0  0  0  0  0  0
   -0.1626    0.7297    4.3746 C   0  0  0  0  0  0  0  0  0  0  0  0
    0.9294    0.7220    4.3506 H   0  0  0  0  0  0  0  0  0  0  0  0
   -0.5051    1.6290    4.8884 H   0  0  0  0  0  0  0  0  0  0  0  0
   -0.5026   -0.1514    4.9228 H   0  0  0  0  0  0  0  0  0  0  0  0
  5  6  2  0  0  0  0
  5  7  1  0  0  0  0
  2  3  1  0  0  0  0
  2  4  1  0  0  0  0
  2  5  1  0  0  0  0
  1  2  1  0  0  0  0
 26 27  2  0  0  0  0
 26 28  1  0  0  0  0
 23 24  1  0  0  0  0
 23 25  1  0  0  0  0
 20 21  1  0  0  0  0
 20 22  1  0  0  0  0
 20 23  1  0  0  0  0
 17 18  1  0  0  0  0
 17 19  1  0  0  0  0
 17 20  1  0  0  0  0
 14 15  1  0  0  0  0
 14 16  1  0  0  0  0
 14 17  1  0  0  0  0
 11 12  1  0  0  0  0
 11 13  1  0  0  0  0
 11 14  1  0  0  0  0
  9 10  1  0  0  0  0
  9 11  1  0  0  0  0
  9 26  1  0  0  0  0
  7  8  1  0  0  0  0
  7  9  1  0  0  0  0
 30 31  1  0  0  0  0
 30 32  1  0  0  0  0
 30 33  1  0  0  0  0
 28 29  1  0  0  0  0
 28 30  1  0  0  0  0
M  END
$$$$
default_name
  -OEChem-01062215323D

 33 32  0     1  0  0  0  0  0999 V2000
   -3.8420   -3.6918    1.5562 H   0  0  0  0  0  0  0  0  0  0  0  0
   -3.8430   -2.7008    1.1032 C   0  0  0  0  0  0  0  0  0  0  0  0
   -4.5510   -2.0608    1.6242 H   0  0  0  0  0  0  0  0  0  0  0  0
   -4.1140   -2.7798    0.0522 H   0  0  0  0  0  0  0  0  0  0  0  0
   -2.4570   -2.1098    1.2172 C   0  0  0  0  0  0  0  0  0  0  0  0
   -1.5600   -2.7438    1.7572 O   0  0  0  0  0  0  0  0  0  0  0  0
   -2.2870   -0.8898    0.7102 N   0  0  0  0  0  0  0  0  0  0  0  0
   -3.0820   -0.4218    0.2992 H   0  0  0  0  0  0  0  0  0  0  0  0
   -1.0240   -0.1468    0.7262 C   0  0  1  0  0  0  0  0  0  0  0  0
   -0.3501   -0.5924   -0.0068 H   0  0  0  0  0  0  0  0  0  0  0  0
   -1.3031    1.3124    0.3166 C   0  0  0  0  0  0  0  0  0  0  0  0
   -2.1079    1.7011    0.9439 H   0  0  0  0  0  0  0  0  0  0  0  0
   -0.4107    1.9134    0.4963 H   0  0  0  0  0  0  0  0  0  0  0  0
   -1.7263    1.4611   -1.1532 C   0  0  0  0  0  0  0  0  0  0  0  0
   -0.9430    1.0670   -1.8013 H   0  0  0  0  0  0  0  0  0  0  0  0
   -2.6460    0.8975   -1.3207 H   0  0  0  0  0  0  0  0  0  0  0  0
   -1.9655    2.9331   -1.5077 C   0  0  0  0  0  0  0  0  0  0  0  0
   -2.7420    3.3441   -0.8617 H   0  0  0  0  0  0  0  0  0  0  0  0
   -1.0427    3.4961   -1.3647 H   0  0  0  0  0  0  0  0  0  0  0  0
   -2.4083    3.0501   -2.9648 C   0  0  0  0  0  0  0  0  0  0  0  0
   -1.6265    2.6572   -3.6129 H   0  0  0  0  0  0  0  0  0  0  0  0
   -3.3201    2.4739   -3.1135 H   0  0  0  0  0  0  0  0  0  0  0  0
   -2.6693    4.4468   -3.3314 N   0  0  0  0  0  0  0  0  0  0  0  0
   -2.9453    4.4881   -4.3015 H   0  0  0  0  0  0  0  0  0  0  0  0
   -3.4162    4.8068   -2.7545 H   0  0  0  0  0  0  0  0  0  0  0  0
   -0.3673   -0.2474    2.1128 C   0  0  0  0  0  0  0  0  0  0  0  0
    0.6012   -0.9846    2.2842 O   0  0  0  0  0  0  0  0  0  0  0  0
   -0.9016    0.4851    3.0969 N   0  0  0  0  0  0  0  0  0  0  0  0
   -1.6855    1.0758    2.8730 H   0  0  0  0  0  0  0  0  0  0  0  0
   -0.4059    0.4895    4.4724 C   0  0  0  0  0  0  0  0  0  0  0  0
    0.6575    0.7386    4.4806 H   0  0  0  0  0  0  0  0  0  0  0  0
   -0.9516    1.2209    5.0703 H   0  0  0  0  0  0  0  0  0  0  0  0
   -0.5321   -0.5024    4.9113 H   0  0  0  0  0  0  0  0  0  0  0  0
  5  6  2  0  0  0  0
  5  7  1  0  0  0  0
  2  3  1  0  0  0  0
  2  4  1  0  0  0  0
  2  5  1  0  0  0  0
  1  2  1  0  0  0  0
 26 27  2  0  0  0  0
 26 28  1  0  0  0  0
 23 24  1  0  0  0  0
 23 25  1  0  0  0  0
 20 21  1  0  0  0  0
 20 22  1  0  0  0  0
 20 23  1  0  0  0  0
 17 18  1  0  0  0  0
 17 19  1  0  0  0  0
 17 20  1  0  0  0  0
 14 15  1  0  0  0  0
 14 16  1  0  0  0  0
 14 17  1  0  0  0  0
 11 12  1  0  0  0  0
 11 13  1  0  0  0  0
 11 14  1  0  0  0  0
  9 10  1  0  0  0  0
  9 11  1  0  0  0  0
  9 26  1  0  0  0  0
  7  8  1  0  0  0  0
  7  9  1  0  0  0  0
 30 31  1  0  0  0  0
 30 32  1  0  0  0  0
 30 33  1  0  0  0  0
 28 29  1  0  0  0  0
 28 30  1  0  0  0  0
M  END
$$$$
default_name
  -OEChem-01062215323D

 33 32  0     1  0  0  0  0  0999 V2000
   -3.8420   -3.6918    1.5562 H   0  0  0  0  0  0  0  0  0  0  0  0
   -3.8430   -2.7008    1.1032 C   0  0  0  0  0  0  0  0  0  0  0  0
   -4.5510   -2.0608    1.6242 H   0  0  0  0  0  0  0  0  0  0  0  0
   -4.1140   -2.7798    0.0522 H   0  0  0  0  0  0  0  0  0  0  0  0
   -2.4570   -2.1098    1.2172 C   0  0  0  0  0  0  0  0  0  0  0  0
   -1.5600   -2.7438    1.7572 O   0  0  0  0  0  0  0  0  0  0  0  0
   -2.2870   -0.8898    0.7102 N   0  0  0  0  0  0  0  0  0  0  0  0
   -3.0820   -0.4218    0.2992 H   0  0  0  0  0  0  0  0  0  0  0  0
   -1.0240   -0.1468    0.7262 C   0  0  1  0  0  0  0  0  0  0  0  0
   -0.3501   -0.5924   -0.0068 H   0  0  0  0  0  0  0  0  0  0  0  0
   -1.3031    1.3124    0.3166 C   0  0  0  0  0  0  0  0  0  0  0  0
   -2.1079    1.7011    0.9439 H   0  0  0  0  0  0  0  0  0  0  0  0
   -0.4107    1.9134    0.4963 H   0  0  0  0  0  0  0  0  0  0  0  0
   -1.7263    1.4611   -1.1532 C   0  0  0  0  0  0  0  0  0  0  0  0
   -0.9430    1.0670   -1.8013 H   0  0  0  0  0  0  0  0  0  0  0  0
   -2.6460    0.8975   -1.3207 H   0  0  0  0  0  0  0  0  0  0  0  0
   -1.9655    2.9331   -1.5077 C   0  0  0  0  0  0  0  0  0  0  0  0
   -2.7420    3.3441   -0.8617 H   0  0  0  0  0  0  0  0  0  0  0  0
   -1.0427    3.4961   -1.3647 H   0  0  0  0  0  0  0  0  0  0  0  0
   -2.4083    3.0501   -2.9648 C   0  0  0  0  0  0  0  0  0  0  0  0
   -1.6265    2.6572   -3.6129 H   0  0  0  0  0  0  0  0  0  0  0  0
   -3.3201    2.4739   -3.1135 H   0  0  0  0  0  0  0  0  0  0  0  0
   -2.6693    4.4468   -3.3314 N   0  0  0  0  0  0  0  0  0  0  0  0
   -2.9453    4.4881   -4.3015 H   0  0  0  0  0  0  0  0  0  0  0  0
   -3.4162    4.8068   -2.7545 H   0  0  0  0  0  0  0  0  0  0  0  0
   -0.3673   -0.2474    2.1128 C   0  0  0  0  0  0  0  0  0  0  0  0
    0.7463   -0.7538    2.2322 O   0  0  0  0  0  0  0  0  0  0  0  0
   -1.0621    0.2253    3.1541 N   0  0  0  0  0  0  0  0  0  0  0  0
   -1.9618    0.6389    2.9722 H   0  0  0  0  0  0  0  0  0  0  0  0
   -0.5865    0.1900    4.5362 C   0  0  0  0  0  0  0  0  0  0  0  0
    0.3889    0.6769    4.6033 H   0  0  0  0  0  0  0  0  0  0  0  0
   -1.2907    0.7024    5.1932 H   0  0  0  0  0  0  0  0  0  0  0  0
   -0.4784   -0.8470    4.8608 H   0  0  0  0  0  0  0  0  0  0  0  0
  5  6  2  0  0  0  0
  5  7  1  0  0  0  0
  2  3  1  0  0  0  0
  2  4  1  0  0  0  0
  2  5  1  0  0  0  0
  1  2  1  0  0  0  0
 26 27  2  0  0  0  0
 26 28  1  0  0  0  0
 23 24  1  0  0  0  0
 23 25  1  0  0  0  0
 20 21  1  0  0  0  0
 20 22  1  0  0  0  0
 20 23  1  0  0  0  0
 17 18  1  0  0  0  0
 17 19  1  0  0  0  0
 17 20  1  0  0  0  0
 14 15  1  0  0  0  0
 14 16  1  0  0  0  0
 14 17  1  0  0  0  0
 11 12  1  0  0  0  0
 11 13  1  0  0  0  0
 11 14  1  0  0  0  0
  9 10  1  0  0  0  0
  9 11  1  0  0  0  0
  9 26  1  0  0  0  0
  7  8  1  0  0  0  0
  7  9  1  0  0  0  0
 30 31  1  0  0  0  0
 30 32  1  0  0  0  0
 30 33  1  0  0  0  0
 28 29  1  0  0  0  0
 28 30  1  0  0  0  0
M  END
$$$$
default_name
  -OEChem-01062215323D

 33 32  0     1  0  0  0  0  0999 V2000
   -3.8420   -3.6918    1.5562 H   0  0  0  0  0  0  0  0  0  0  0  0
   -3.8430   -2.7008    1.1032 C   0  0  0  0  0  0  0  0  0  0  0  0
   -4.5510   -2.0608    1.6242 H   0  0  0  0  0  0  0  0  0  0  0  0
   -4.1140   -2.7798    0.0522 H   0  0  0  0  0  0  0  0  0  0  0  0
   -2.4570   -2.1098    1.2172 C   0  0  0  0  0  0  0  0  0  0  0  0
   -1.5600   -2.7438    1.7572 O   0  0  0  0  0  0  0  0  0  0  0  0
   -2.2870   -0.8898    0.7102 N   0  0  0  0  0  0  0  0  0  0  0  0
   -3.0820   -0.4218    0.2992 H   0  0  0  0  0  0  0  0  0  0  0  0
   -1.0240   -0.1468    0.7262 C   0  0  1  0  0  0  0  0  0  0  0  0
   -0.3501   -0.5924   -0.0068 H   0  0  0  0  0  0  0  0  0  0  0  0
   -1.3031    1.3124    0.3166 C   0  0  0  0  0  0  0  0  0  0  0  0
   -2.1079    1.7011    0.9439 H   0  0  0  0  0  0  0  0  0  0  0  0
   -0.4107    1.9134    0.4963 H   0  0  0  0  0  0  0  0  0  0  0  0
   -1.7263    1.4611   -1.1532 C   0  0  0  0  0  0  0  0  0  0  0  0
   -0.9430    1.0670   -1.8013 H   0  0  0  0  0  0  0  0  0  0  0  0
   -2.6460    0.8975   -1.3207 H   0  0  0  0  0  0  0  0  0  0  0  0
   -1.9655    2.9331   -1.5077 C   0  0  0  0  0  0  0  0  0  0  0  0
   -2.7420    3.3441   -0.8617 H   0  0  0  0  0  0  0  0  0  0  0  0
   -1.0427    3.4961   -1.3647 H   0  0  0  0  0  0  0  0  0  0  0  0
   -2.4083    3.0501   -2.9648 C   0  0  0  0  0  0  0  0  0  0  0  0
   -1.6265    2.6572   -3.6129 H   0  0  0  0  0  0  0  0  0  0  0  0
   -3.3201    2.4739   -3.1135 H   0  0  0  0  0  0  0  0  0  0  0  0
   -2.6693    4.4468   -3.3314 N   0  0  0  0  0  0  0  0  0  0  0  0
   -2.9453    4.4881   -4.3015 H   0  0  0  0  0  0  0  0  0  0  0  0
   -3.4162    4.8068   -2.7545 H   0  0  0  0  0  0  0  0  0  0  0  0
   -0.3673   -0.2474    2.1128 C   0  0  0  0  0  0  0  0  0  0  0  0
    0.8335   -0.4912    2.2100 O   0  0  0  0  0  0  0  0  0  0  0  0
   -1.1575   -0.0695    3.1779 N   0  0  0  0  0  0  0  0  0  0  0  0
   -2.1284    0.1415    3.0150 H   0  0  0  0  0  0  0  0  0  0  0  0
   -0.6921   -0.1486    4.5617 C   0  0  0  0  0  0  0  0  0  0  0  0
    0.1417    0.5410    4.7105 H   0  0  0  0  0  0  0  0  0  0  0  0
   -1.4993    0.1088    5.2490 H   0  0  0  0  0  0  0  0  0  0  0  0
   -0.3452   -1.1618    4.7749 H   0  0  0  0  0  0  0  0  0  0  0  0
  5  6  2  0  0  0  0
  5  7  1  0  0  0  0
  2  3  1  0  0  0  0
  2  4  1  0  0  0  0
  2  5  1  0  0  0  0
  1  2  1  0  0  0  0
 26 27  2  0  0  0  0
 26 28  1  0  0  0  0
 23 24  1  0  0  0  0
 23 25  1  0  0  0  0
 20 21  1  0  0  0  0
 20 22  1  0  0  0  0
 20 23  1  0  0  0  0
 17 18  1  0  0  0  0
 17 19  1  0  0  0  0
 17 20  1  0  0  0  0
 14 15  1  0  0  0  0
 14 16  1  0  0  0  0
 14 17  1  0  0  0  0
 11 12  1  0  0  0  0
 11 13  1  0  0  0  0
 11 14  1  0  0  0  0
  9 10  1  0  0  0  0
  9 11  1  0  0  0  0
  9 26  1  0  0  0  0
  7  8  1  0  0  0  0
  7  9  1  0  0  0  0
 30 31  1  0  0  0  0
 30 32  1  0  0  0  0
 30 33  1  0  0  0  0
 28 29  1  0  0  0  0
 28 30  1  0  0  0  0
M  END
$$$$
default_name
  -OEChem-01062215323D

 33 32  0     1  0  0  0  0  0999 V2000
   -3.8420   -3.6918    1.5562 H   0  0  0  0  0  0  0  0  0  0  0  0
   -3.8430   -2.7008    1.1032 C   0  0  0  0  0  0  0  0  0  0  0  0
   -4.5510   -2.0608    1.6242 H   0  0  0  0  0  0  0  0  0  0  0  0
   -4.1140   -2.7798    0.0522 H   0  0  0  0  0  0  0  0  0  0  0  0
   -2.4570   -2.1098    1.2172 C   0  0  0  0  0  0  0  0  0  0  0  0
   -1.5600   -2.7438    1.7572 O   0  0  0  0  0  0  0  0  0  0  0  0
   -2.2870   -0.8898    0.7102 N   0  0  0  0  0  0  0  0  0  0  0  0
   -3.0820   -0.4218    0.2992 H   0  0  0  0  0  0  0  0  0  0  0  0
   -1.0240   -0.1468    0.7262 C   0  0  1  0  0  0  0  0  0  0  0  0
   -0.3501   -0.5924   -0.0068 H   0  0  0  0  0  0  0  0  0  0  0  0
   -1.3031    1.3124    0.3166 C   0  0  0  0  0  0  0  0  0  0  0  0
   -2.1079    1.7011    0.9439 H   0  0  0  0  0  0  0  0  0  0  0  0
   -0.4107    1.9134    0.4963 H   0  0  0  0  0  0  0  0  0  0  0  0
   -1.7263    1.4611   -1.1532 C   0  0  0  0  0  0  0  0  0  0  0  0
   -0.9430    1.0670   -1.8013 H   0  0  0  0  0  0  0  0  0  0  0  0
   -2.6460    0.8975   -1.3207 H   0  0  0  0  0  0  0  0  0  0  0  0
   -1.9655    2.9331   -1.5077 C   0  0  0  0  0  0  0  0  0  0  0  0
   -2.7420    3.3441   -0.8617 H   0  0  0  0  0  0  0  0  0  0  0  0
   -1.0427    3.4961   -1.3647 H   0  0  0  0  0  0  0  0  0  0  0  0
   -2.4083    3.0501   -2.9648 C   0  0  0  0  0  0  0  0  0  0  0  0
   -1.6265    2.6572   -3.6129 H   0  0  0  0  0  0  0  0  0  0  0  0
   -3.3201    2.4739   -3.1135 H   0  0  0  0  0  0  0  0  0  0  0  0
   -2.6693    4.4468   -3.3314 N   0  0  0  0  0  0  0  0  0  0  0  0
   -2.9453    4.4881   -4.3015 H   0  0  0  0  0  0  0  0  0  0  0  0
   -3.4162    4.8068   -2.7545 H   0  0  0  0  0  0  0  0  0  0  0  0
   -0.3673   -0.2474    2.1128 C   0  0  0  0  0  0  0  0  0  0  0  0
    0.8569   -0.2147    2.2190 O   0  0  0  0  0  0  0  0  0  0  0  0
   -1.1813   -0.3791    3.1666 N   0  0  0  0  0  0  0  0  0  0  0  0
   -2.1739   -0.3826    2.9985 H   0  0  0  0  0  0  0  0  0  0  0  0
   -0.7155   -0.5031    4.5470 C   0  0  0  0  0  0  0  0  0  0  0  0
   -0.0671    0.3402    4.7949 H   0  0  0  0  0  0  0  0  0  0  0  0
   -1.5632   -0.5194    5.2336 H   0  0  0  0  0  0  0  0  0  0  0  0
   -0.1417   -1.4253    4.6594 H   0  0  0  0  0  0  0  0  0  0  0  0
  5  6  2  0  0  0  0
  5  7  1  0  0  0  0
  2  3  1  0  0  0  0
  2  4  1  0  0  0  0
  2  5  1  0  0  0  0
  1  2  1  0  0  0  0
 26 27  2  0  0  0  0
 26 28  1  0  0  0  0
 23 24  1  0  0  0  0
 23 25  1  0  0  0  0
 20 21  1  0  0  0  0
 20 22  1  0  0  0  0
 20 23  1  0  0  0  0
 17 18  1  0  0  0  0
 17 19  1  0  0  0  0
 17 20  1  0  0  0  0
 14 15  1  0  0  0  0
 14 16  1  0  0  0  0
 14 17  1  0  0  0  0
 11 12  1  0  0  0  0
 11 13  1  0  0  0  0
 11 14  1  0  0  0  0
  9 10  1  0  0  0  0
  9 11  1  0  0  0  0
  9 26  1  0  0  0  0
  7  8  1  0  0  0  0
  7  9  1  0  0  0  0
 30 31  1  0  0  0  0
 30 32  1  0  0  0  0
 30 33  1  0  0  0  0
 28 29  1  0  0  0  0
 28 30  1  0  0  0  0
M  END
$$$$
default_name
  -OEChem-01062215323D

 33 32  0     1  0  0  0  0  0999 V2000
   -3.8420   -3.6918    1.5562 H   0  0  0  0  0  0  0  0  0  0  0  0
   -3.8430   -2.7008    1.1032 C   0  0  0  0  0  0  0  0  0  0  0  0
   -4.5510   -2.0608    1.6242 H   0  0  0  0  0  0  0  0  0  0  0  0
   -4.1140   -2.7798    0.0522 H   0  0  0  0  0  0  0  0  0  0  0  0
   -2.4570   -2.1098    1.2172 C   0  0  0  0  0  0  0  0  0  0  0  0
   -1.5600   -2.7438    1.7572 O   0  0  0  0  0  0  0  0  0  0  0  0
   -2.2870   -0.8898    0.7102 N   0  0  0  0  0  0  0  0  0  0  0  0
   -3.0820   -0.4218    0.2992 H   0  0  0  0  0  0  0  0  0  0  0  0
   -1.0240   -0.1468    0.7262 C   0  0  1  0  0  0  0  0  0  0  0  0
   -0.3501   -0.5924   -0.0068 H   0  0  0  0  0  0  0  0  0  0  0  0
   -1.3031    1.3124    0.3166 C   0  0  0  0  0  0  0  0  0  0  0  0
   -2.1079    1.7011    0.9439 H   0  0  0  0  0  0  0  0  0  0  0  0
   -0.4107    1.9134    0.4963 H   0  0  0  0  0  0  0  0  0  0  0  0
   -1.7263    1.4611   -1.1532 C   0  0  0  0  0  0  0  0  0  0  0  0
   -0.9430    1.0670   -1.8013 H   0  0  0  0  0  0  0  0  0  0  0  0
   -2.6460    0.8975   -1.3207 H   0  0  0  0  0  0  0  0  0  0  0  0
   -1.9655    2.9331   -1.5077 C   0  0  0  0  0  0  0  0  0  0  0  0
   -2.7420    3.3441   -0.8617 H   0  0  0  0  0  0  0  0  0  0  0  0
   -1.0427    3.4961   -1.3647 H   0  0  0  0  0  0  0  0  0  0  0  0
   -2.4083    3.0501   -2.9648 C   0  0  0  0  0  0  0  0  0  0  0  0
   -1.6265    2.6572   -3.6129 H   0  0  0  0  0  0  0  0  0  0  0  0
   -3.3201    2.4739   -3.1135 H   0  0  0  0  0  0  0  0  0  0  0  0
   -2.6693    4.4468   -3.3314 N   0  0  0  0  0  0  0  0  0  0  0  0
   -2.9453    4.4881   -4.3015 H   0  0  0  0  0  0  0  0  0  0  0  0
   -3.4162    4.8068   -2.7545 H   0  0  0  0  0  0  0  0  0  0  0  0
   -0.3673   -0.2474    2.1128 C   0  0  0  0  0  0  0  0  0  0  0  0
    0.8147    0.0568    2.2587 O   0  0  0  0  0  0  0  0  0  0  0  0
   -1.1317   -0.6824    3.1212 N   0  0  0  0  0  0  0  0  0  0  0  0
   -2.0952   -0.8977    2.9239 H   0  0  0  0  0  0  0  0  0  0  0  0
   -0.6552   -0.8493    4.4933 C   0  0  0  0  0  0  0  0  0  0  0  0
   -0.2234    0.0882    4.8506 H   0  0  0  0  0  0  0  0  0  0  0  0
   -1.4780   -1.1394    5.1483 H   0  0  0  0  0  0  0  0  0  0  0  0
    0.1184   -1.6195    4.5221 H   0  0  0  0  0  0  0  0  0  0  0  0
  5  6  2  0  0  0  0
  5  7  1  0  0  0  0
  2  3  1  0  0  0  0
  2  4  1  0  0  0  0
  2  5  1  0  0  0  0
  1  2  1  0  0  0  0
 26 27  2  0  0  0  0
 26 28  1  0  0  0  0
 23 24  1  0  0  0  0
 23 25  1  0  0  0  0
 20 21  1  0  0  0  0
 20 22  1  0  0  0  0
 20 23  1  0  0  0  0
 17 18  1  0  0  0  0
 17 19  1  0  0  0  0
 17 20  1  0  0  0  0
 14 15  1  0  0  0  0
 14 16  1  0  0  0  0
 14 17  1  0  0  0  0
 11 12  1  0  0  0  0
 11 13  1  0  0  0  0
 11 14  1  0  0  0  0
  9 10  1  0  0  0  0
  9 11  1  0  0  0  0
  9 26  1  0  0  0  0
  7  8  1  0  0  0  0
  7  9  1  0  0  0  0
 30 31  1  0  0  0  0
 30 32  1  0  0  0  0
 30 33  1  0  0  0  0
 28 29  1  0  0  0  0
 28 30  1  0  0  0  0
M  END
$$$$
default_name
  -OEChem-01062215323D

 33 32  0     1  0  0  0  0  0999 V2000
   -3.8420   -3.6918    1.5562 H   0  0  0  0  0  0  0  0  0  0  0  0
   -3.8430   -2.7008    1.1032 C   0  0  0  0  0  0  0  0  0  0  0  0
   -4.5510   -2.0608    1.6242 H   0  0  0  0  0  0  0  0  0  0  0  0
   -4.1140   -2.7798    0.0522 H   0  0  0  0  0  0  0  0  0  0  0  0
   -2.4570   -2.1098    1.2172 C   0  0  0  0  0  0  0  0  0  0  0  0
   -1.5600   -2.7438    1.7572 O   0  0  0  0  0  0  0  0  0  0  0  0
   -2.2870   -0.8898    0.7102 N   0  0  0  0  0  0  0  0  0  0  0  0
   -3.0820   -0.4218    0.2992 H   0  0  0  0  0  0  0  0  0  0  0  0
   -1.0240   -0.1468    0.7262 C   0  0  1  0  0  0  0  0  0  0  0  0
   -0.3501   -0.5924   -0.0068 H   0  0  0  0  0  0  0  0  0  0  0  0
   -1.3031    1.3124    0.3166 C   0  0  0  0  0  0  0  0  0  0  0  0
   -2.1079    1.7011    0.9439 H   0  0  0  0  0  0  0  0  0  0  0  0
   -0.4107    1.9134    0.4963 H   0  0  0  0  0  0  0  0  0  0  0  0
   -1.7263    1.4611   -1.1532 C   0  0  0  0  0  0  0  0  0  0  0  0
   -0.9430    1.0670   -1.8013 H   0  0  0  0  0  0  0  0  0  0  0  0
   -2.6460    0.8975   -1.3207 H   0  0  0  0  0  0  0  0  0  0  0  0
   -1.9655    2.9331   -1.5077 C   0  0  0  0  0  0  0  0  0  0  0  0
   -2.7420    3.3441   -0.8617 H   0  0  0  0  0  0  0  0  0  0  0  0
   -1.0427    3.4961   -1.3647 H   0  0  0  0  0  0  0  0  0  0  0  0
   -2.4083    3.0501   -2.9648 C   0  0  0  0  0  0  0  0  0  0  0  0
   -1.6265    2.6572   -3.6129 H   0  0  0  0  0  0  0  0  0  0  0  0
   -3.3201    2.4739   -3.1135 H   0  0  0  0  0  0  0  0  0  0  0  0
   -2.6693    4.4468   -3.3314 N   0  0  0  0  0  0  0  0  0  0  0  0
   -2.9453    4.4881   -4.3015 H   0  0  0  0  0  0  0  0  0  0  0  0
   -3.4162    4.8068   -2.7545 H   0  0  0  0  0  0  0  0  0  0  0  0
   -0.3673   -0.2474    2.1128 C   0  0  0  0  0  0  0  0  0  0  0  0
    0.7099    0.3048    2.3263 O   0  0  0  0  0  0  0  0  0  0  0  0
   -1.0123   -0.9589    3.0446 N   0  0  0  0  0  0  0  0  0  0  0  0
   -1.8978   -1.3686    2.7962 H   0  0  0  0  0  0  0  0  0  0  0  0
   -0.5152   -1.1637    4.4042 C   0  0  0  0  0  0  0  0  0  0  0  0
   -0.3165   -0.1979    4.8739 H   0  0  0  0  0  0  0  0  0  0  0  0
   -1.2495   -1.7090    4.9988 H   0  0  0  0  0  0  0  0  0  0  0  0
    0.4173   -1.7312    4.3725 H   0  0  0  0  0  0  0  0  0  0  0  0
  5  6  2  0  0  0  0
  5  7  1  0  0  0  0
  2  3  1  0  0  0  0
  2  4  1  0  0  0  0
  2  5  1  0  0  0  0
  1  2  1  0  0  0  0
 26 27  2  0  0  0  0
 26 28  1  0  0  0  0
 23 24  1  0  0  0  0
 23 25  1  0  0  0  0
 20 21  1  0  0  0  0
 20 22  1  0  0  0  0
 20 23  1  0  0  0  0
 17 18  1  0  0  0  0
 17 19  1  0  0  0  0
 17 20  1  0  0  0  0
 14 15  1  0  0  0  0
 14 16  1  0  0  0  0
 14 17  1  0  0  0  0
 11 12  1  0  0  0  0
 11 13  1  0  0  0  0
 11 14  1  0  0  0  0
  9 10  1  0  0  0  0
  9 11  1  0  0  0  0
  9 26  1  0  0  0  0
  7  8  1  0  0  0  0
  7  9  1  0  0  0  0
 30 31  1  0  0  0  0
 30 32  1  0  0  0  0
 30 33  1  0  0  0  0
 28 29  1  0  0  0  0
 28 30  1  0  0  0  0
M  END
$$$$
default_name
  -OEChem-01062215323D

 33 32  0     1  0  0  0  0  0999 V2000
   -3.8420   -3.6918    1.5562 H   0  0  0  0  0  0  0  0  0  0  0  0
   -3.8430   -2.7008    1.1032 C   0  0  0  0  0  0  0  0  0  0  0  0
   -4.5510   -2.0608    1.6242 H   0  0  0  0  0  0  0  0  0  0  0  0
   -4.1140   -2.7798    0.0522 H   0  0  0  0  0  0  0  0  0  0  0  0
   -2.4570   -2.1098    1.2172 C   0  0  0  0  0  0  0  0  0  0  0  0
   -1.5600   -2.7438    1.7572 O   0  0  0  0  0  0  0  0  0  0  0  0
   -2.2870   -0.8898    0.7102 N   0  0  0  0  0  0  0  0  0  0  0  0
   -3.0820   -0.4218    0.2992 H   0  0  0  0  0  0  0  0  0  0  0  0
   -1.0240   -0.1468    0.7262 C   0  0  1  0  0  0  0  0  0  0  0  0
   -0.3501   -0.5924   -0.0068 H   0  0  0  0  0  0  0  0  0  0  0  0
   -1.3031    1.3124    0.3166 C   0  0  0  0  0  0  0  0  0  0  0  0
   -2.1079    1.7011    0.9439 H   0  0  0  0  0  0  0  0  0  0  0  0
   -0.4107    1.9134    0.4963 H   0  0  0  0  0  0  0  0  0  0  0  0
   -1.7263    1.4611   -1.1532 C   0  0  0  0  0  0  0  0  0  0  0  0
   -0.9430    1.0670   -1.8013 H   0  0  0  0  0  0  0  0  0  0  0  0
   -2.6460    0.8975   -1.3207 H   0  0  0  0  0  0  0  0  0  0  0  0
   -1.9655    2.9331   -1.5077 C   0  0  0  0  0  0  0  0  0  0  0  0
   -2.7420    3.3441   -0.8617 H   0  0  0  0  0  0  0  0  0  0  0  0
   -1.0427    3.4961   -1.3647 H   0  0  0  0  0  0  0  0  0  0  0  0
   -2.4083    3.0501   -2.9648 C   0  0  0  0  0  0  0  0  0  0  0  0
   -1.6265    2.6572   -3.6129 H   0  0  0  0  0  0  0  0  0  0  0  0
   -3.3201    2.4739   -3.1135 H   0  0  0  0  0  0  0  0  0  0  0  0
   -2.6693    4.4468   -3.3314 N   0  0  0  0  0  0  0  0  0  0  0  0
   -2.9453    4.4881   -4.3015 H   0  0  0  0  0  0  0  0  0  0  0  0
   -3.4162    4.8068   -2.7545 H   0  0  0  0  0  0  0  0  0  0  0  0
   -0.3673   -0.2474    2.1128 C   0  0  0  0  0  0  0  0  0  0  0  0
    0.5497    0.5125    2.4172 O   0  0  0  0  0  0  0  0  0  0  0  0
   -0.8311   -1.1895    2.9420 N   0  0  0  0  0  0  0  0  0  0  0  0
   -1.5950   -1.7632    2.6241 H   0  0  0  0  0  0  0  0  0  0  0  0
   -0.3050   -1.4249    4.2857 C   0  0  0  0  0  0  0  0  0  0  0  0
   -0.3400   -0.4986    4.8632 H   0  0  0  0  0  0  0  0  0  0  0  0
   -0.8934   -2.1893    4.7953 H   0  0  0  0  0  0  0  0  0  0  0  0
    0.7345   -1.7528    4.2207 H   0  0  0  0  0  0  0  0  0  0  0  0
  5  6  2  0  0  0  0
  5  7  1  0  0  0  0
  2  3  1  0  0  0  0
  2  4  1  0  0  0  0
  2  5  1  0  0  0  0
  1  2  1  0  0  0  0
 26 27  2  0  0  0  0
 26 28  1  0  0  0  0
 23 24  1  0  0  0  0
 23 25  1  0  0  0  0
 20 21  1  0  0  0  0
 20 22  1  0  0  0  0
 20 23  1  0  0  0  0
 17 18  1  0  0  0  0
 17 19  1  0  0  0  0
 17 20  1  0  0  0  0
 14 15  1  0  0  0  0
 14 16  1  0  0  0  0
 14 17  1  0  0  0  0
 11 12  1  0  0  0  0
 11 13  1  0  0  0  0
 11 14  1  0  0  0  0
  9 10  1  0  0  0  0
  9 11  1  0  0  0  0
  9 26  1  0  0  0  0
  7  8  1  0  0  0  0
  7  9  1  0  0  0  0
 30 31  1  0  0  0  0
 30 32  1  0  0  0  0
 30 33  1  0  0  0  0
 28 29  1  0  0  0  0
 28 30  1  0  0  0  0
M  END
$$$$
default_name
  -OEChem-01062215323D

 33 32  0     1  0  0  0  0  0999 V2000
   -3.8420   -3.6918    1.5562 H   0  0  0  0  0  0  0  0  0  0  0  0
   -3.8430   -2.7008    1.1032 C   0  0  0  0  0  0  0  0  0  0  0  0
   -4.5510   -2.0608    1.6242 H   0  0  0  0  0  0  0  0  0  0  0  0
   -4.1140   -2.7798    0.0522 H   0  0  0  0  0  0  0  0  0  0  0  0
   -2.4570   -2.1098    1.2172 C   0  0  0  0  0  0  0  0  0  0  0  0
   -1.5600   -2.7438    1.7572 O   0  0  0  0  0  0  0  0  0  0  0  0
   -2.2870   -0.8898    0.7102 N   0  0  0  0  0  0  0  0  0  0  0  0
   -3.0820   -0.4218    0.2992 H   0  0  0  0  0  0  0  0  0  0  0  0
   -1.0240   -0.1468    0.7262 C   0  0  1  0  0  0  0  0  0  0  0  0
   -0.3501   -0.5924   -0.0068 H   0  0  0  0  0  0  0  0  0  0  0  0
   -1.3031    1.3124    0.3166 C   0  0  0  0  0  0  0  0  0  0  0  0
   -2.1079    1.7011    0.9439 H   0  0  0  0  0  0  0  0  0  0  0  0
   -0.4107    1.9134    0.4963 H   0  0  0  0  0  0  0  0  0  0  0  0
   -1.7263    1.4611   -1.1532 C   0  0  0  0  0  0  0  0  0  0  0  0
   -0.9430    1.0670   -1.8013 H   0  0  0  0  0  0  0  0  0  0  0  0
   -2.6460    0.8975   -1.3207 H   0  0  0  0  0  0  0  0  0  0  0  0
   -1.9655    2.9331   -1.5077 C   0  0  0  0  0  0  0  0  0  0  0  0
   -2.7420    3.3441   -0.8617 H   0  0  0  0  0  0  0  0  0  0  0  0
   -1.0427    3.4961   -1.3647 H   0  0  0  0  0  0  0  0  0  0  0  0
   -2.4083    3.0501   -2.9648 C   0  0  0  0  0  0  0  0  0  0  0  0
   -1.6265    2.6572   -3.6129 H   0  0  0  0  0  0  0  0  0  0  0  0
   -3.3201    2.4739   -3.1135 H   0  0  0  0  0  0  0  0  0  0  0  0
   -2.6693    4.4468   -3.3314 N   0  0  0  0  0  0  0  0  0  0  0  0
   -2.9453    4.4881   -4.3015 H   0  0  0  0  0  0  0  0  0  0  0  0
   -3.4162    4.8068   -2.7545 H   0  0  0  0  0  0  0  0  0  0  0  0
   -0.3673   -0.2474    2.1128 C   0  0  0  0  0  0  0  0  0  0  0  0
    0.3449    0.6656    2.5253 O   0  0  0  0  0  0  0  0  0  0  0  0
   -0.6006   -1.3587    2.8205 N   0  0  0  0  0  0  0  0  0  0  0  0
   -1.2075   -2.0547    2.4195 H   0  0  0  0  0  0  0  0  0  0  0  0
   -0.0390   -1.6151    4.1460 C   0  0  0  0  0  0  0  0  0  0  0  0
   -0.2924   -0.7933    4.8193 H   0  0  0  0  0  0  0  0  0  0  0  0
   -0.4339   -2.5477    4.5516 H   0  0  0  0  0  0  0  0  0  0  0  0
    1.0486   -1.6829    4.0770 H   0  0  0  0  0  0  0  0  0  0  0  0
  5  6  2  0  0  0  0
  5  7  1  0  0  0  0
  2  3  1  0  0  0  0
  2  4  1  0  0  0  0
  2  5  1  0  0  0  0
  1  2  1  0  0  0  0
 26 27  2  0  0  0  0
 26 28  1  0  0  0  0
 23 24  1  0  0  0  0
 23 25  1  0  0  0  0
 20 21  1  0  0  0  0
 20 22  1  0  0  0  0
 20 23  1  0  0  0  0
 17 18  1  0  0  0  0
 17 19  1  0  0  0  0
 17 20  1  0  0  0  0
 14 15  1  0  0  0  0
 14 16  1  0  0  0  0
 14 17  1  0  0  0  0
 11 12  1  0  0  0  0
 11 13  1  0  0  0  0
 11 14  1  0  0  0  0
  9 10  1  0  0  0  0
  9 11  1  0  0  0  0
  9 26  1  0  0  0  0
  7  8  1  0  0  0  0
  7  9  1  0  0  0  0
 30 31  1  0  0  0  0
 30 32  1  0  0  0  0
 30 33  1  0  0  0  0
 28 29  1  0  0  0  0
 28 30  1  0  0  0  0
M  END
$$$$
default_name
  -OEChem-01062215323D

 33 32  0     1  0  0  0  0  0999 V2000
   -3.8420   -3.6918    1.5562 H   0  0  0  0  0  0  0  0  0  0  0  0
   -3.8430   -2.7008    1.1032 C   0  0  0  0  0  0  0  0  0  0  0  0
   -4.5510   -2.0608    1.6242 H   0  0  0  0  0  0  0  0  0  0  0  0
   -4.1140   -2.7798    0.0522 H   0  0  0  0  0  0  0  0  0  0  0  0
   -2.4570   -2.1098    1.2172 C   0  0  0  0  0  0  0  0  0  0  0  0
   -1.5600   -2.7438    1.7572 O   0  0  0  0  0  0  0  0  0  0  0  0
   -2.2870   -0.8898    0.7102 N   0  0  0  0  0  0  0  0  0  0  0  0
   -3.0820   -0.4218    0.2992 H   0  0  0  0  0  0  0  0  0  0  0  0
   -1.0240   -0.1468    0.7262 C   0  0  1  0  0  0  0  0  0  0  0  0
   -0.3501   -0.5924   -0.0068 H   0  0  0  0  0  0  0  0  0  0  0  0
   -1.3031    1.3124    0.3166 C   0  0  0  0  0  0  0  0  0  0  0  0
   -2.1079    1.7011    0.9439 H   0  0  0  0  0  0  0  0  0  0  0  0
   -0.4107    1.9134    0.4963 H   0  0  0  0  0  0  0  0  0  0  0  0
   -1.7263    1.4611   -1.1532 C   0  0  0  0  0  0  0  0  0  0  0  0
   -0.9430    1.0670   -1.8013 H   0  0  0  0  0  0  0  0  0  0  0  0
   -2.6460    0.8975   -1.3207 H   0  0  0  0  0  0  0  0  0  0  0  0
   -1.9655    2.9331   -1.5077 C   0  0  0  0  0  0  0  0  0  0  0  0
   -2.7420    3.3441   -0.8617 H   0  0  0  0  0  0  0  0  0  0  0  0
   -1.0427    3.4961   -1.3647 H   0  0  0  0  0  0  0  0  0  0  0  0
   -2.4083    3.0501   -2.9648 C   0  0  0  0  0  0  0  0  0  0  0  0
   -1.6265    2.6572   -3.6129 H   0  0  0  0  0  0  0  0  0  0  0  0
   -3.3201    2.4739   -3.1135 H   0  0  0  0  0  0  0  0  0  0  0  0
   -2.6693    4.4468   -3.3314 N   0  0  0  0  0  0  0  0  0  0  0  0
   -2.9453    4.4881   -4.3015 H   0  0  0  0  0  0  0  0  0  0  0  0
   -3.4162    4.8068   -2.7545 H   0  0  0  0  0  0  0  0  0  0  0  0
   -0.3673   -0.2474    2.1128 C   0  0  0  0  0  0  0  0  0  0  0  0
    0.1095    0.7538    2.6432 O   0  0  0  0  0  0  0  0  0  0  0  0
   -0.3363   -1.4549    2.6884 N   0  0  0  0  0  0  0  0  0  0  0  0
   -0.7616   -2.2232    2.1961 H   0  0  0  0  0  0  0  0  0  0  0  0
    0.2646   -1.7212    3.9944 C   0  0  0  0  0  0  0  0  0  0  0  0
   -0.1768   -1.0619    4.7451 H   0  0  0  0  0  0  0  0  0  0  0  0
    0.0978   -2.7596    4.2845 H   0  0  0  0  0  0  0  0  0  0  0  0
    1.3381   -1.5261    3.9512 H   0  0  0  0  0  0  0  0  0  0  0  0
  5  6  2  0  0  0  0
  5  7  1  0  0  0  0
  2  3  1  0  0  0  0
  2  4  1  0  0  0  0
  2  5  1  0  0  0  0
  1  2  1  0  0  0  0
 26 27  2  0  0  0  0
 26 28  1  0  0  0  0
 23 24  1  0  0  0  0
 23 25  1  0  0  0  0
 20 21  1  0  0  0  0
 20 22  1  0  0  0  0
 20 23  1  0  0  0  0
 17 18  1  0  0  0  0
 17 19  1  0  0  0  0
 17 20  1  0  0  0  0
 14 15  1  0  0  0  0
 14 16  1  0  0  0  0
 14 17  1  0  0  0  0
 11 12  1  0  0  0  0
 11 13  1  0  0  0  0
 11 14  1  0  0  0  0
  9 10  1  0  0  0  0
  9 11  1  0  0  0  0
  9 26  1  0  0  0  0
  7  8  1  0  0  0  0
  7  9  1  0  0  0  0
 30 31  1  0  0  0  0
 30 32  1  0  0  0  0
 30 33  1  0  0  0  0
 28 29  1  0  0  0  0
 28 30  1  0  0  0  0
M  END
$$$$
default_name
  -OEChem-01062215323D

 33 32  0     1  0  0  0  0  0999 V2000
   -3.8420   -3.6918    1.5562 H   0  0  0  0  0  0  0  0  0  0  0  0
   -3.8430   -2.7008    1.1032 C   0  0  0  0  0  0  0  0  0  0  0  0
   -4.5510   -2.0608    1.6242 H   0  0  0  0  0  0  0  0  0  0  0  0
   -4.1140   -2.7798    0.0522 H   0  0  0  0  0  0  0  0  0  0  0  0
   -2.4570   -2.1098    1.2172 C   0  0  0  0  0  0  0  0  0  0  0  0
   -1.5600   -2.7438    1.7572 O   0  0  0  0  0  0  0  0  0  0  0  0
   -2.2870   -0.8898    0.7102 N   0  0  0  0  0  0  0  0  0  0  0  0
   -3.0820   -0.4218    0.2992 H   0  0  0  0  0  0  0  0  0  0  0  0
   -1.0240   -0.1468    0.7262 C   0  0  1  0  0  0  0  0  0  0  0  0
   -0.3501   -0.5924   -0.0068 H   0  0  0  0  0  0  0  0  0  0  0  0
   -1.3031    1.3124    0.3166 C   0  0  0  0  0  0  0  0  0  0  0  0
   -2.1079    1.7011    0.9439 H   0  0  0  0  0  0  0  0  0  0  0  0
   -0.4107    1.9134    0.4963 H   0  0  0  0  0  0  0  0  0  0  0  0
   -1.7263    1.4611   -1.1532 C   0  0  0  0  0  0  0  0  0  0  0  0
   -0.9430    1.0670   -1.8013 H   0  0  0  0  0  0  0  0  0  0  0  0
   -2.6460    0.8975   -1.3207 H   0  0  0  0  0  0  0  0  0  0  0  0
   -1.9655    2.9331   -1.5077 C   0  0  0  0  0  0  0  0  0  0  0  0
   -2.7420    3.3441   -0.8617 H   0  0  0  0  0  0  0  0  0  0  0  0
   -1.0427    3.4961   -1.3647 H   0  0  0  0  0  0  0  0  0  0  0  0
   -2.4083    3.0501   -2.9648 C   0  0  0  0  0  0  0  0  0  0  0  0
   -1.6265    2.6572   -3.6129 H   0  0  0  0  0  0  0  0  0  0  0  0
   -3.3201    2.4739   -3.1135 H   0  0  0  0  0  0  0  0  0  0  0  0
   -2.6693    4.4468   -3.3314 N   0  0  0  0  0  0  0  0  0  0  0  0
   -2.9453    4.4881   -4.3015 H   0  0  0  0  0  0  0  0  0  0  0  0
   -3.4162    4.8068   -2.7545 H   0  0  0  0  0  0  0  0  0  0  0  0
   -0.3673   -0.2474    2.1128 C   0  0  0  0  0  0  0  0  0  0  0  0
   -0.1404    0.7709    2.7628 O   0  0  0  0  0  0  0  0  0  0  0  0
   -0.0564   -1.4715    2.5546 N   0  0  0  0  0  0  0  0  0  0  0  0
   -0.2879   -2.2572    1.9693 H   0  0  0  0  0  0  0  0  0  0  0  0
    0.5853   -1.7361    3.8415 C   0  0  0  0  0  0  0  0  0  0  0  0
   -0.0012   -1.2863    4.6457 H   0  0  0  0  0  0  0  0  0  0  0  0
    0.6654   -2.8107    4.0120 H   0  0  0  0  0  0  0  0  0  0  0  0
    1.5833   -1.2932    3.8520 H   0  0  0  0  0  0  0  0  0  0  0  0
  5  6  2  0  0  0  0
  5  7  1  0  0  0  0
  2  3  1  0  0  0  0
  2  4  1  0  0  0  0
  2  5  1  0  0  0  0
  1  2  1  0  0  0  0
 26 27  2  0  0  0  0
 26 28  1  0  0  0  0
 23 24  1  0  0  0  0
 23 25  1  0  0  0  0
 20 21  1  0  0  0  0
 20 22  1  0  0  0  0
 20 23  1  0  0  0  0
 17 18  1  0  0  0  0
 17 19  1  0  0  0  0
 17 20  1  0  0  0  0
 14 15  1  0  0  0  0
 14 16  1  0  0  0  0
 14 17  1  0  0  0  0
 11 12  1  0  0  0  0
 11 13  1  0  0  0  0
 11 14  1  0  0  0  0
  9 10  1  0  0  0  0
  9 11  1  0  0  0  0
  9 26  1  0  0  0  0
  7  8  1  0  0  0  0
  7  9  1  0  0  0  0
 30 31  1  0  0  0  0
 30 32  1  0  0  0  0
 30 33  1  0  0  0  0
 28 29  1  0  0  0  0
 28 30  1  0  0  0  0
M  END
$$$$
default_name
  -OEChem-01062215323D

 33 32  0     1  0  0  0  0  0999 V2000
   -3.8420   -3.6918    1.5562 H   0  0  0  0  0  0  0  0  0  0  0  0
   -3.8430   -2.7008    1.1032 C   0  0  0  0  0  0  0  0  0  0  0  0
   -4.5510   -2.0608    1.6242 H   0  0  0  0  0  0  0  0  0  0  0  0
   -4.1140   -2.7798    0.0522 H   0  0  0  0  0  0  0  0  0  0  0  0
   -2.4570   -2.1098    1.2172 C   0  0  0  0  0  0  0  0  0  0  0  0
   -1.5600   -2.7438    1.7572 O   0  0  0  0  0  0  0  0  0  0  0  0
   -2.2870   -0.8898    0.7102 N   0  0  0  0  0  0  0  0  0  0  0  0
   -3.0820   -0.4218    0.2992 H   0  0  0  0  0  0  0  0  0  0  0  0
   -1.0240   -0.1468    0.7262 C   0  0  1  0  0  0  0  0  0  0  0  0
   -0.3501   -0.5924   -0.0068 H   0  0  0  0  0  0  0  0  0  0  0  0
   -1.3031    1.3124    0.3166 C   0  0  0  0  0  0  0  0  0  0  0  0
   -2.1079    1.7011    0.9439 H   0  0  0  0  0  0  0  0  0  0  0  0
   -0.4107    1.9134    0.4963 H   0  0  0  0  0  0  0  0  0  0  0  0
   -1.7263    1.4611   -1.1532 C   0  0  0  0  0  0  0  0  0  0  0  0
   -0.9430    1.0670   -1.8013 H   0  0  0  0  0  0  0  0  0  0  0  0
   -2.6460    0.8975   -1.3207 H   0  0  0  0  0  0  0  0  0  0  0  0
   -1.9655    2.9331   -1.5077 C   0  0  0  0  0  0  0  0  0  0  0  0
   -2.7420    3.3441   -0.8617 H   0  0  0  0  0  0  0  0  0  0  0  0
   -1.0427    3.4961   -1.3647 H   0  0  0  0  0  0  0  0  0  0  0  0
   -2.4083    3.0501   -2.9648 C   0  0  0  0  0  0  0  0  0  0  0  0
   -1.6265    2.6572   -3.6129 H   0  0  0  0  0  0  0  0  0  0  0  0
   -3.3201    2.4739   -3.1135 H   0  0  0  0  0  0  0  0  0  0  0  0
   -2.6693    4.4468   -3.3314 N   0  0  0  0  0  0  0  0  0  0  0  0
   -2.9453    4.4881   -4.3015 H   0  0  0  0  0  0  0  0  0  0  0  0
   -3.4162    4.8068   -2.7545 H   0  0  0  0  0  0  0  0  0  0  0  0
   -0.3673   -0.2474    2.1128 C   0  0  0  0  0  0  0  0  0  0  0  0
   -0.3878    0.7160    2.8760 O   0  0  0  0  0  0  0  0  0  0  0  0
    0.2202   -1.4074    2.4283 N   0  0  0  0  0  0  0  0  0  0  0  0
    0.1815   -2.1544    1.7544 H   0  0  0  0  0  0  0  0  0  0  0  0
    0.9010   -1.6587    3.6976 C   0  0  0  0  0  0  0  0  0  0  0  0
    0.2224   -1.4510    4.5278 H   0  0  0  0  0  0  0  0  0  0  0  0
    1.2301   -2.6974    3.7527 H   0  0  0  0  0  0  0  0  0  0  0  0
    1.7674   -1.0000    3.7861 H   0  0  0  0  0  0  0  0  0  0  0  0
  5  6  2  0  0  0  0
  5  7  1  0  0  0  0
  2  3  1  0  0  0  0
  2  4  1  0  0  0  0
  2  5  1  0  0  0  0
  1  2  1  0  0  0  0
 26 27  2  0  0  0  0
 26 28  1  0  0  0  0
 23 24  1  0  0  0  0
 23 25  1  0  0  0  0
 20 21  1  0  0  0  0
 20 22  1  0  0  0  0
 20 23  1  0  0  0  0
 17 18  1  0  0  0  0
 17 19  1  0  0  0  0
 17 20  1  0  0  0  0
 14 15  1  0  0  0  0
 14 16  1  0  0  0  0
 14 17  1  0  0  0  0
 11 12  1  0  0  0  0
 11 13  1  0  0  0  0
 11 14  1  0  0  0  0
  9 10  1  0  0  0  0
  9 11  1  0  0  0  0
  9 26  1  0  0  0  0
  7  8  1  0  0  0  0
  7  9  1  0  0  0  0
 30 31  1  0  0  0  0
 30 32  1  0  0  0  0
 30 33  1  0  0  0  0
 28 29  1  0  0  0  0
 28 30  1  0  0  0  0
M  END
$$$$
default_name
  -OEChem-01062215323D

 33 32  0     1  0  0  0  0  0999 V2000
   -3.8420   -3.6918    1.5562 H   0  0  0  0  0  0  0  0  0  0  0  0
   -3.8430   -2.7008    1.1032 C   0  0  0  0  0  0  0  0  0  0  0  0
   -4.5510   -2.0608    1.6242 H   0  0  0  0  0  0  0  0  0  0  0  0
   -4.1140   -2.7798    0.0522 H   0  0  0  0  0  0  0  0  0  0  0  0
   -2.4570   -2.1098    1.2172 C   0  0  0  0  0  0  0  0  0  0  0  0
   -1.5600   -2.7438    1.7572 O   0  0  0  0  0  0  0  0  0  0  0  0
   -2.2870   -0.8898    0.7102 N   0  0  0  0  0  0  0  0  0  0  0  0
   -3.0820   -0.4218    0.2992 H   0  0  0  0  0  0  0  0  0  0  0  0
   -1.0240   -0.1468    0.7262 C   0  0  1  0  0  0  0  0  0  0  0  0
   -0.3501   -0.5924   -0.0068 H   0  0  0  0  0  0  0  0  0  0  0  0
   -1.3031    1.3124    0.3166 C   0  0  0  0  0  0  0  0  0  0  0  0
   -2.1079    1.7011    0.9439 H   0  0  0  0  0  0  0  0  0  0  0  0
   -0.4107    1.9134    0.4963 H   0  0  0  0  0  0  0  0  0  0  0  0
   -1.7263    1.4611   -1.1532 C   0  0  0  0  0  0  0  0  0  0  0  0
   -0.9430    1.0670   -1.8013 H   0  0  0  0  0  0  0  0  0  0  0  0
   -2.6460    0.8975   -1.3207 H   0  0  0  0  0  0  0  0  0  0  0  0
   -1.9655    2.9331   -1.5077 C   0  0  0  0  0  0  0  0  0  0  0  0
   -2.7420    3.3441   -0.8617 H   0  0  0  0  0  0  0  0  0  0  0  0
   -1.0427    3.4961   -1.3647 H   0  0  0  0  0  0  0  0  0  0  0  0
   -2.4083    3.0501   -2.9648 C   0  0  0  0  0  0  0  0  0  0  0  0
   -1.6265    2.6572   -3.6129 H   0  0  0  0  0  0  0  0  0  0  0  0
   -3.3201    2.4739   -3.1135 H   0  0  0  0  0  0  0  0  0  0  0  0
   -2.6693    4.4468   -3.3314 N   0  0  0  0  0  0  0  0  0  0  0  0
   -2.9453    4.4881   -4.3015 H   0  0  0  0  0  0  0  0  0  0  0  0
   -3.4162    4.8068   -2.7545 H   0  0  0  0  0  0  0  0  0  0  0  0
   -0.3673   -0.2474    2.1128 C   0  0  0  0  0  0  0  0  0  0  0  0
   -0.6159    0.5926    2.9751 O   0  0  0  0  0  0  0  0  0  0  0  0
    0.4745   -1.2670    2.3180 N   0  0  0  0  0  0  0  0  0  0  0  0
    0.6145   -1.9218    1.5662 H   0  0  0  0  0  0  0  0  0  0  0  0
    1.1904   -1.4944    3.5724 C   0  0  0  0  0  0  0  0  0  0  0  0
    0.4789   -1.5449    4.3995 H   0  0  0  0  0  0  0  0  0  0  0  0
    1.7535   -2.4275    3.5244 H   0  0  0  0  0  0  0  0  0  0  0  0
    1.8780   -0.6666    3.7579 H   0  0  0  0  0  0  0  0  0  0  0  0
  5  6  2  0  0  0  0
  5  7  1  0  0  0  0
  2  3  1  0  0  0  0
  2  4  1  0  0  0  0
  2  5  1  0  0  0  0
  1  2  1  0  0  0  0
 26 27  2  0  0  0  0
 26 28  1  0  0  0  0
 23 24  1  0  0  0  0
 23 25  1  0  0  0  0
 20 21  1  0  0  0  0
 20 22  1  0  0  0  0
 20 23  1  0  0  0  0
 17 18  1  0  0  0  0
 17 19  1  0  0  0  0
 17 20  1  0  0  0  0
 14 15  1  0  0  0  0
 14 16  1  0  0  0  0
 14 17  1  0  0  0  0
 11 12  1  0  0  0  0
 11 13  1  0  0  0  0
 11 14  1  0  0  0  0
  9 10  1  0  0  0  0
  9 11  1  0  0  0  0
  9 26  1  0  0  0  0
  7  8  1  0  0  0  0
  7  9  1  0  0  0  0
 30 31  1  0  0  0  0
 30 32  1  0  0  0  0
 30 33  1  0  0  0  0
 28 29  1  0  0  0  0
 28 30  1  0  0  0  0
M  END
$$$$
default_name
  -OEChem-01062215323D

 33 32  0     1  0  0  0  0  0999 V2000
   -3.8420   -3.6918    1.5562 H   0  0  0  0  0  0  0  0  0  0  0  0
   -3.8430   -2.7008    1.1032 C   0  0  0  0  0  0  0  0  0  0  0  0
   -4.5510   -2.0608    1.6242 H   0  0  0  0  0  0  0  0  0  0  0  0
   -4.1140   -2.7798    0.0522 H   0  0  0  0  0  0  0  0  0  0  0  0
   -2.4570   -2.1098    1.2172 C   0  0  0  0  0  0  0  0  0  0  0  0
   -1.5600   -2.7438    1.7572 O   0  0  0  0  0  0  0  0  0  0  0  0
   -2.2870   -0.8898    0.7102 N   0  0  0  0  0  0  0  0  0  0  0  0
   -3.0820   -0.4218    0.2992 H   0  0  0  0  0  0  0  0  0  0  0  0
   -1.0240   -0.1468    0.7262 C   0  0  1  0  0  0  0  0  0  0  0  0
   -0.3501   -0.5924   -0.0068 H   0  0  0  0  0  0  0  0  0  0  0  0
   -1.3031    1.3124    0.3166 C   0  0  0  0  0  0  0  0  0  0  0  0
   -2.1079    1.7011    0.9439 H   0  0  0  0  0  0  0  0  0  0  0  0
   -0.4107    1.9134    0.4963 H   0  0  0  0  0  0  0  0  0  0  0  0
   -1.7263    1.4611   -1.1532 C   0  0  0  0  0  0  0  0  0  0  0  0
   -0.9430    1.0670   -1.8013 H   0  0  0  0  0  0  0  0  0  0  0  0
   -2.6460    0.8975   -1.3207 H   0  0  0  0  0  0  0  0  0  0  0  0
   -1.9655    2.9331   -1.5077 C   0  0  0  0  0  0  0  0  0  0  0  0
   -2.7420    3.3441   -0.8617 H   0  0  0  0  0  0  0  0  0  0  0  0
   -1.0427    3.4961   -1.3647 H   0  0  0  0  0  0  0  0  0  0  0  0
   -2.4083    3.0501   -2.9648 C   0  0  0  0  0  0  0  0  0  0  0  0
   -1.6265    2.6572   -3.6129 H   0  0  0  0  0  0  0  0  0  0  0  0
   -3.3201    2.4739   -3.1135 H   0  0  0  0  0  0  0  0  0  0  0  0
   -2.6693    4.4468   -3.3314 N   0  0  0  0  0  0  0  0  0  0  0  0
   -2.9453    4.4881   -4.3015 H   0  0  0  0  0  0  0  0  0  0  0  0
   -3.4162    4.8068   -2.7545 H   0  0  0  0  0  0  0  0  0  0  0  0
   -0.3673   -0.2474    2.1128 C   0  0  0  0  0  0  0  0  0  0  0  0
   -0.8092    0.4093    3.0533 O   0  0  0  0  0  0  0  0  0  0  0  0
    0.6892   -1.0598    2.2314 N   0  0  0  0  0  0  0  0  0  0  0  0
    0.9817   -1.5753    1.4175 H   0  0  0  0  0  0  0  0  0  0  0  0
    1.4337   -1.2543    3.4746 C   0  0  0  0  0  0  0  0  0  0  0  0
    0.7507   -1.5616    4.2696 H   0  0  0  0  0  0  0  0  0  0  0  0
    2.2000   -2.0194    3.3425 H   0  0  0  0  0  0  0  0  0  0  0  0
    1.9074   -0.3156    3.7694 H   0  0  0  0  0  0  0  0  0  0  0  0
  5  6  2  0  0  0  0
  5  7  1  0  0  0  0
  2  3  1  0  0  0  0
  2  4  1  0  0  0  0
  2  5  1  0  0  0  0
  1  2  1  0  0  0  0
 26 27  2  0  0  0  0
 26 28  1  0  0  0  0
 23 24  1  0  0  0  0
 23 25  1  0  0  0  0
 20 21  1  0  0  0  0
 20 22  1  0  0  0  0
 20 23  1  0  0  0  0
 17 18  1  0  0  0  0
 17 19  1  0  0  0  0
 17 20  1  0  0  0  0
 14 15  1  0  0  0  0
 14 16  1  0  0  0  0
 14 17  1  0  0  0  0
 11 12  1  0  0  0  0
 11 13  1  0  0  0  0
 11 14  1  0  0  0  0
  9 10  1  0  0  0  0
  9 11  1  0  0  0  0
  9 26  1  0  0  0  0
  7  8  1  0  0  0  0
  7  9  1  0  0  0  0
 30 31  1  0  0  0  0
 30 32  1  0  0  0  0
 30 33  1  0  0  0  0
 28 29  1  0  0  0  0
 28 30  1  0  0  0  0
M  END
$$$$
default_name
  -OEChem-01062215323D

 33 32  0     1  0  0  0  0  0999 V2000
   -3.8420   -3.6918    1.5562 H   0  0  0  0  0  0  0  0  0  0  0  0
   -3.8430   -2.7008    1.1032 C   0  0  0  0  0  0  0  0  0  0  0  0
   -4.5510   -2.0608    1.6242 H   0  0  0  0  0  0  0  0  0  0  0  0
   -4.1140   -2.7798    0.0522 H   0  0  0  0  0  0  0  0  0  0  0  0
   -2.4570   -2.1098    1.2172 C   0  0  0  0  0  0  0  0  0  0  0  0
   -1.5600   -2.7438    1.7572 O   0  0  0  0  0  0  0  0  0  0  0  0
   -2.2870   -0.8898    0.7102 N   0  0  0  0  0  0  0  0  0  0  0  0
   -3.0820   -0.4218    0.2992 H   0  0  0  0  0  0  0  0  0  0  0  0
   -1.0240   -0.1468    0.7262 C   0  0  1  0  0  0  0  0  0  0  0  0
   -0.3501   -0.5924   -0.0068 H   0  0  0  0  0  0  0  0  0  0  0  0
   -1.3031    1.3124    0.3166 C   0  0  0  0  0  0  0  0  0  0  0  0
   -2.1079    1.7011    0.9439 H   0  0  0  0  0  0  0  0  0  0  0  0
   -0.4107    1.9134    0.4963 H   0  0  0  0  0  0  0  0  0  0  0  0
   -1.7263    1.4611   -1.1532 C   0  0  0  0  0  0  0  0  0  0  0  0
   -0.9430    1.0670   -1.8013 H   0  0  0  0  0  0  0  0  0  0  0  0
   -2.6460    0.8975   -1.3207 H   0  0  0  0  0  0  0  0  0  0  0  0
   -1.9655    2.9331   -1.5077 C   0  0  0  0  0  0  0  0  0  0  0  0
   -2.7420    3.3441   -0.8617 H   0  0  0  0  0  0  0  0  0  0  0  0
   -1.0427    3.4961   -1.3647 H   0  0  0  0  0  0  0  0  0  0  0  0
   -2.4083    3.0501   -2.9648 C   0  0  0  0  0  0  0  0  0  0  0  0
   -1.6265    2.6572   -3.6129 H   0  0  0  0  0  0  0  0  0  0  0  0
   -3.3201    2.4739   -3.1135 H   0  0  0  0  0  0  0  0  0  0  0  0
   -2.6693    4.4468   -3.3314 N   0  0  0  0  0  0  0  0  0  0  0  0
   -2.9453    4.4881   -4.3015 H   0  0  0  0  0  0  0  0  0  0  0  0
   -3.4162    4.8068   -2.7545 H   0  0  0  0  0  0  0  0  0  0  0  0
   -0.3673   -0.2474    2.1128 C   0  0  0  0  0  0  0  0  0  0  0  0
   -0.9543    0.1784    3.1053 O   0  0  0  0  0  0  0  0  0  0  0  0
    0.8498   -0.8000    2.1742 N   0  0  0  0  0  0  0  0  0  0  0  0
    1.2579   -1.1384    1.3183 H   0  0  0  0  0  0  0  0  0  0  0  0
    1.6143   -0.9547    3.4108 C   0  0  0  0  0  0  0  0  0  0  0  0
    1.0193   -1.4999    4.1468 H   0  0  0  0  0  0  0  0  0  0  0  0
    2.5391   -1.5009    3.2196 H   0  0  0  0  0  0  0  0  0  0  0  0
    1.8537    0.0290    3.8199 H   0  0  0  0  0  0  0  0  0  0  0  0
  5  6  2  0  0  0  0
  5  7  1  0  0  0  0
  2  3  1  0  0  0  0
  2  4  1  0  0  0  0
  2  5  1  0  0  0  0
  1  2  1  0  0  0  0
 26 27  2  0  0  0  0
 26 28  1  0  0  0  0
 23 24  1  0  0  0  0
 23 25  1  0  0  0  0
 20 21  1  0  0  0  0
 20 22  1  0  0  0  0
 20 23  1  0  0  0  0
 17 18  1  0  0  0  0
 17 19  1  0  0  0  0
 17 20  1  0  0  0  0
 14 15  1  0  0  0  0
 14 16  1  0  0  0  0
 14 17  1  0  0  0  0
 11 12  1  0  0  0  0
 11 13  1  0  0  0  0
 11 14  1  0  0  0  0
  9 10  1  0  0  0  0
  9 11  1  0  0  0  0
  9 26  1  0  0  0  0
  7  8  1  0  0  0  0
  7  9  1  0  0  0  0
 30 31  1  0  0  0  0
 30 32  1  0  0  0  0
 30 33  1  0  0  0  0
 28 29  1  0  0  0  0
 28 30  1  0  0  0  0
M  END
$$$$
default_name
  -OEChem-01062215323D

 33 32  0     1  0  0  0  0  0999 V2000
   -3.8420   -3.6918    1.5562 H   0  0  0  0  0  0  0  0  0  0  0  0
   -3.8430   -2.7008    1.1032 C   0  0  0  0  0  0  0  0  0  0  0  0
   -4.5510   -2.0608    1.6242 H   0  0  0  0  0  0  0  0  0  0  0  0
   -4.1140   -2.7798    0.0522 H   0  0  0  0  0  0  0  0  0  0  0  0
   -2.4570   -2.1098    1.2172 C   0  0  0  0  0  0  0  0  0  0  0  0
   -1.5600   -2.7438    1.7572 O   0  0  0  0  0  0  0  0  0  0  0  0
   -2.2870   -0.8898    0.7102 N   0  0  0  0  0  0  0  0  0  0  0  0
   -3.0820   -0.4218    0.2992 H   0  0  0  0  0  0  0  0  0  0  0  0
   -1.0240   -0.1468    0.7262 C   0  0  1  0  0  0  0  0  0  0  0  0
   -0.3501   -0.5924   -0.0068 H   0  0  0  0  0  0  0  0  0  0  0  0
   -1.3031    1.3124    0.3166 C   0  0  0  0  0  0  0  0  0  0  0  0
   -2.1079    1.7011    0.9439 H   0  0  0  0  0  0  0  0  0  0  0  0
   -0.4107    1.9134    0.4963 H   0  0  0  0  0  0  0  0  0  0  0  0
   -1.7263    1.4611   -1.1532 C   0  0  0  0  0  0  0  0  0  0  0  0
   -0.9430    1.0670   -1.8013 H   0  0  0  0  0  0  0  0  0  0  0  0
   -2.6460    0.8975   -1.3207 H   0  0  0  0  0  0  0  0  0  0  0  0
   -1.9655    2.9331   -1.5077 C   0  0  0  0  0  0  0  0  0  0  0  0
   -2.7420    3.3441   -0.8617 H   0  0  0  0  0  0  0  0  0  0  0  0
   -1.0427    3.4961   -1.3647 H   0  0  0  0  0  0  0  0  0  0  0  0
   -2.4083    3.0501   -2.9648 C   0  0  0  0  0  0  0  0  0  0  0  0
   -1.6265    2.6572   -3.6129 H   0  0  0  0  0  0  0  0  0  0  0  0
   -3.3201    2.4739   -3.1135 H   0  0  0  0  0  0  0  0  0  0  0  0
   -2.6693    4.4468   -3.3314 N   0  0  0  0  0  0  0  0  0  0  0  0
   -2.9453    4.4881   -4.3015 H   0  0  0  0  0  0  0  0  0  0  0  0
   -3.4162    4.8068   -2.7545 H   0  0  0  0  0  0  0  0  0  0  0  0
   -0.3673   -0.2474    2.1128 C   0  0  0  0  0  0  0  0  0  0  0  0
   -1.0415   -0.0842    3.1275 O   0  0  0  0  0  0  0  0  0  0  0  0
    0.9451   -0.5052    2.1504 N   0  0  0  0  0  0  0  0  0  0  0  0
    1.4245   -0.6409    1.2755 H   0  0  0  0  0  0  0  0  0  0  0  0
    1.7200   -0.6162    3.3854 C   0  0  0  0  0  0  0  0  0  0  0  0
    1.2665   -1.3640    4.0396 H   0  0  0  0  0  0  0  0  0  0  0  0
    2.7477   -0.9074    3.1638 H   0  0  0  0  0  0  0  0  0  0  0  0
    1.7206    0.3438    3.9058 H   0  0  0  0  0  0  0  0  0  0  0  0
  5  6  2  0  0  0  0
  5  7  1  0  0  0  0
  2  3  1  0  0  0  0
  2  4  1  0  0  0  0
  2  5  1  0  0  0  0
  1  2  1  0  0  0  0
 26 27  2  0  0  0  0
 26 28  1  0  0  0  0
 23 24  1  0  0  0  0
 23 25  1  0  0  0  0
 20 21  1  0  0  0  0
 20 22  1  0  0  0  0
 20 23  1  0  0  0  0
 17 18  1  0  0  0  0
 17 19  1  0  0  0  0
 17 20  1  0  0  0  0
 14 15  1  0  0  0  0
 14 16  1  0  0  0  0
 14 17  1  0  0  0  0
 11 12  1  0  0  0  0
 11 13  1  0  0  0  0
 11 14  1  0  0  0  0
  9 10  1  0  0  0  0
  9 11  1  0  0  0  0
  9 26  1  0  0  0  0
  7  8  1  0  0  0  0
  7  9  1  0  0  0  0
 30 31  1  0  0  0  0
 30 32  1  0  0  0  0
 30 33  1  0  0  0  0
 28 29  1  0  0  0  0
 28 30  1  0  0  0  0
M  END
$$$$
default_name
  -OEChem-01062215323D

 33 32  0     1  0  0  0  0  0999 V2000
   -3.8420   -3.6918    1.5562 H   0  0  0  0  0  0  0  0  0  0  0  0
   -3.8430   -2.7008    1.1032 C   0  0  0  0  0  0  0  0  0  0  0  0
   -4.5510   -2.0608    1.6242 H   0  0  0  0  0  0  0  0  0  0  0  0
   -4.1140   -2.7798    0.0522 H   0  0  0  0  0  0  0  0  0  0  0  0
   -2.4570   -2.1098    1.2172 C   0  0  0  0  0  0  0  0  0  0  0  0
   -1.5600   -2.7438    1.7572 O   0  0  0  0  0  0  0  0  0  0  0  0
   -2.2870   -0.8898    0.7102 N   0  0  0  0  0  0  0  0  0  0  0  0
   -3.0820   -0.4218    0.2992 H   0  0  0  0  0  0  0  0  0  0  0  0
   -1.0240   -0.1468    0.7262 C   0  0  1  0  0  0  0  0  0  0  0  0
   -0.3501   -0.5924   -0.0068 H   0  0  0  0  0  0  0  0  0  0  0  0
   -1.3031    1.3124    0.3166 C   0  0  0  0  0  0  0  0  0  0  0  0
   -2.1079    1.7011    0.9439 H   0  0  0  0  0  0  0  0  0  0  0  0
   -0.4107    1.9134    0.4963 H   0  0  0  0  0  0  0  0  0  0  0  0
   -1.7263    1.4611   -1.1532 C   0  0  0  0  0  0  0  0  0  0  0  0
   -0.9430    1.0670   -1.8013 H   0  0  0  0  0  0  0  0  0  0  0  0
   -2.6460    0.8975   -1.3207 H   0  0  0  0  0  0  0  0  0  0  0  0
   -1.9655    2.9331   -1.5077 C   0  0  0  0  0  0  0  0  0  0  0  0
   -2.7420    3.3441   -0.8617 H   0  0  0  0  0  0  0  0  0  0  0  0
   -1.0427    3.4961   -1.3647 H   0  0  0  0  0  0  0  0  0  0  0  0
   -2.4083    3.0501   -2.9648 C   0  0  0  0  0  0  0  0  0  0  0  0
   -1.6265    2.6572   -3.6129 H   0  0  0  0  0  0  0  0  0  0  0  0
   -3.3201    2.4739   -3.1135 H   0  0  0  0  0  0  0  0  0  0  0  0
   -2.6693    4.4468   -3.3314 N   0  0  0  0  0  0  0  0  0  0  0  0
   -2.9453    4.4881   -4.3015 H   0  0  0  0  0  0  0  0  0  0  0  0
   -3.4162    4.8068   -2.7545 H   0  0  0  0  0  0  0  0  0  0  0  0
   -0.3673   -0.2474    2.1128 C   0  0  0  0  0  0  0  0  0  0  0  0
   -1.0649   -0.3607    3.1185 O   0  0  0  0  0  0  0  0  0  0  0  0
    0.9689   -0.1956    2.1616 N   0  0  0  0  0  0  0  0  0  0  0  0
    1.4700   -0.1168    1.2920 H   0  0  0  0  0  0  0  0  0  0  0  0
    1.7434   -0.2617    3.4000 C   0  0  0  0  0  0  0  0  0  0  0  0
    1.4753   -1.1632    3.9553 H   0  0  0  0  0  0  0  0  0  0  0  0
    2.8116   -0.2791    3.1792 H   0  0  0  0  0  0  0  0  0  0  0  0
    1.5170    0.6073    4.0213 H   0  0  0  0  0  0  0  0  0  0  0  0
  5  6  2  0  0  0  0
  5  7  1  0  0  0  0
  2  3  1  0  0  0  0
  2  4  1  0  0  0  0
  2  5  1  0  0  0  0
  1  2  1  0  0  0  0
 26 27  2  0  0  0  0
 26 28  1  0  0  0  0
 23 24  1  0  0  0  0
 23 25  1  0  0  0  0
 20 21  1  0  0  0  0
 20 22  1  0  0  0  0
 20 23  1  0  0  0  0
 17 18  1  0  0  0  0
 17 19  1  0  0  0  0
 17 20  1  0  0  0  0
 14 15  1  0  0  0  0
 14 16  1  0  0  0  0
 14 17  1  0  0  0  0
 11 12  1  0  0  0  0
 11 13  1  0  0  0  0
 11 14  1  0  0  0  0
  9 10  1  0  0  0  0
  9 11  1  0  0  0  0
  9 26  1  0  0  0  0
  7  8  1  0  0  0  0
  7  9  1  0  0  0  0
 30 31  1  0  0  0  0
 30 32  1  0  0  0  0
 30 33  1  0  0  0  0
 28 29  1  0  0  0  0
 28 30  1  0  0  0  0
M  END
$$$$
default_name
  -OEChem-01062215323D

 33 32  0     1  0  0  0  0  0999 V2000
   -3.8420   -3.6918    1.5562 H   0  0  0  0  0  0  0  0  0  0  0  0
   -3.8430   -2.7008    1.1032 C   0  0  0  0  0  0  0  0  0  0  0  0
   -4.5510   -2.0608    1.6242 H   0  0  0  0  0  0  0  0  0  0  0  0
   -4.1140   -2.7798    0.0522 H   0  0  0  0  0  0  0  0  0  0  0  0
   -2.4570   -2.1098    1.2172 C   0  0  0  0  0  0  0  0  0  0  0  0
   -1.5600   -2.7438    1.7572 O   0  0  0  0  0  0  0  0  0  0  0  0
   -2.2870   -0.8898    0.7102 N   0  0  0  0  0  0  0  0  0  0  0  0
   -3.0820   -0.4218    0.2992 H   0  0  0  0  0  0  0  0  0  0  0  0
   -1.0240   -0.1468    0.7262 C   0  0  1  0  0  0  0  0  0  0  0  0
   -0.3501   -0.5924   -0.0068 H   0  0  0  0  0  0  0  0  0  0  0  0
   -1.3031    1.3124    0.3166 C   0  0  0  0  0  0  0  0  0  0  0  0
   -2.1079    1.7011    0.9439 H   0  0  0  0  0  0  0  0  0  0  0  0
   -0.4107    1.9134    0.4963 H   0  0  0  0  0  0  0  0  0  0  0  0
   -1.7263    1.4611   -1.1532 C   0  0  0  0  0  0  0  0  0  0  0  0
   -0.9430    1.0670   -1.8013 H   0  0  0  0  0  0  0  0  0  0  0  0
   -2.6460    0.8975   -1.3207 H   0  0  0  0  0  0  0  0  0  0  0  0
   -1.9655    2.9331   -1.5077 C   0  0  0  0  0  0  0  0  0  0  0  0
   -2.7420    3.3441   -0.8617 H   0  0  0  0  0  0  0  0  0  0  0  0
   -1.0427    3.4961   -1.3647 H   0  0  0  0  0  0  0  0  0  0  0  0
   -2.4083    3.0501   -2.9648 C   0  0  0  0  0  0  0  0  0  0  0  0
   -1.6265    2.6572   -3.6129 H   0  0  0  0  0  0  0  0  0  0  0  0
   -3.3201    2.4739   -3.1135 H   0  0  0  0  0  0  0  0  0  0  0  0
   -2.6693    4.4468   -3.3314 N   0  0  0  0  0  0  0  0  0  0  0  0
   -2.9453    4.4881   -4.3015 H   0  0  0  0  0  0  0  0  0  0  0  0
   -3.4162    4.8068   -2.7545 H   0  0  0  0  0  0  0  0  0  0  0  0
   -0.3673   -0.2474    2.1128 C   0  0  0  0  0  0  0  0  0  0  0  0
   -1.0227   -0.6322    3.0789 O   0  0  0  0  0  0  0  0  0  0  0  0
    0.9193    0.1077    2.2071 N   0  0  0  0  0  0  0  0  0  0  0  0
    1.3914    0.3982    1.3666 H   0  0  0  0  0  0  0  0  0  0  0  0
    1.6831    0.0846    3.4537 C   0  0  0  0  0  0  0  0  0  0  0  0
    1.6316   -0.9112    3.8995 H   0  0  0  0  0  0  0  0  0  0  0  0
    2.7265    0.3409    3.2645 H   0  0  0  0  0  0  0  0  0  0  0  0
    1.2570    0.8015    4.1586 H   0  0  0  0  0  0  0  0  0  0  0  0
  5  6  2  0  0  0  0
  5  7  1  0  0  0  0
  2  3  1  0  0  0  0
  2  4  1  0  0  0  0
  2  5  1  0  0  0  0
  1  2  1  0  0  0  0
 26 27  2  0  0  0  0
 26 28  1  0  0  0  0
 23 24  1  0  0  0  0
 23 25  1  0  0  0  0
 20 21  1  0  0  0  0
 20 22  1  0  0  0  0
 20 23  1  0  0  0  0
 17 18  1  0  0  0  0
 17 19  1  0  0  0  0
 17 20  1  0  0  0  0
 14 15  1  0  0  0  0
 14 16  1  0  0  0  0
 14 17  1  0  0  0  0
 11 12  1  0  0  0  0
 11 13  1  0  0  0  0
 11 14  1  0  0  0  0
  9 10  1  0  0  0  0
  9 11  1  0  0  0  0
  9 26  1  0  0  0  0
  7  8  1  0  0  0  0
  7  9  1  0  0  0  0
 30 31  1  0  0  0  0
 30 32  1  0  0  0  0
 30 33  1  0  0  0  0
 28 29  1  0  0  0  0
 28 30  1  0  0  0  0
M  END
$$$$
default_name
  -OEChem-01062215323D

 33 32  0     1  0  0  0  0  0999 V2000
   -3.8420   -3.6918    1.5562 H   0  0  0  0  0  0  0  0  0  0  0  0
   -3.8430   -2.7008    1.1032 C   0  0  0  0  0  0  0  0  0  0  0  0
   -4.5510   -2.0608    1.6242 H   0  0  0  0  0  0  0  0  0  0  0  0
   -4.1140   -2.7798    0.0522 H   0  0  0  0  0  0  0  0  0  0  0  0
   -2.4570   -2.1098    1.2172 C   0  0  0  0  0  0  0  0  0  0  0  0
   -1.5600   -2.7438    1.7572 O   0  0  0  0  0  0  0  0  0  0  0  0
   -2.2870   -0.8898    0.7102 N   0  0  0  0  0  0  0  0  0  0  0  0
   -3.0820   -0.4218    0.2992 H   0  0  0  0  0  0  0  0  0  0  0  0
   -1.0240   -0.1468    0.7262 C   0  0  1  0  0  0  0  0  0  0  0  0
   -0.4578   -0.4059   -0.1695 H   0  0  0  0  0  0  0  0  0  0  0  0
   -1.3369    1.3618    0.6928 C   0  0  0  0  0  0  0  0  0  0  0  0
   -2.0475    1.5866    1.4909 H   0  0  0  0  0  0  0  0  0  0  0  0
   -0.4214    1.9234    0.8838 H   0  0  0  0  0  0  0  0  0  0  0  0
   -1.9480    1.8268   -0.6383 C   0  0  0  0  0  0  0  0  0  0  0  0
   -1.2616    1.6010   -1.4548 H   0  0  0  0  0  0  0  0  0  0  0  0
   -2.8884    1.2986   -0.8055 H   0  0  0  0  0  0  0  0  0  0  0  0
   -2.2140    3.3363   -0.6207 C   0  0  0  0  0  0  0  0  0  0  0  0
   -2.8937    3.5792    0.1966 H   0  0  0  0  0  0  0  0  0  0  0  0
   -1.2737    3.8696   -0.4777 H   0  0  0  0  0  0  0  0  0  0  0  0
   -2.8432    3.7673   -1.9441 C   0  0  0  0  0  0  0  0  0  0  0  0
   -2.1582    3.5426   -2.7602 H   0  0  0  0  0  0  0  0  0  0  0  0
   -3.7735    3.2227   -2.0971 H   0  0  0  0  0  0  0  0  0  0  0  0
   -3.1332    5.2057   -1.9522 N   0  0  0  0  0  0  0  0  0  0  0  0
   -3.5339    5.4573   -2.8439 H   0  0  0  0  0  0  0  0  0  0  0  0
   -3.7934    5.4148   -1.2168 H   0  0  0  0  0  0  0  0  0  0  0  0
   -0.1919   -0.5422    1.9571 C   0  0  0  0  0  0  0  0  0  0  0  0
   -0.6271   -1.3691    2.7558 O   0  0  0  0  0  0  0  0  0  0  0  0
    0.9952    0.0559    2.1104 N   0  0  0  0  0  0  0  0  0  0  0  0
    1.2878    0.7115    1.4046 H   0  0  0  0  0  0  0  0  0  0  0  0
    1.8976   -0.1971    3.2327 C   0  0  0  0  0  0  0  0  0  0  0  0
    2.1092   -1.2663    3.3023 H   0  0  0  0  0  0  0  0  0  0  0  0
    2.8335    0.3471    3.0974 H   0  0  0  0  0  0  0  0  0  0  0  0
    1.4247    0.1232    4.1634 H   0  0  0  0  0  0  0  0  0  0  0  0
  5  6  2  0  0  0  0
  5  7  1  0  0  0  0
  2  3  1  0  0  0  0
  2  4  1  0  0  0  0
  2  5  1  0  0  0  0
  1  2  1  0  0  0  0
 26 27  2  0  0  0  0
 26 28  1  0  0  0  0
 23 24  1  0  0  0  0
 23 25  1  0  0  0  0
 20 21  1  0  0  0  0
 20 22  1  0  0  0  0
 20 23  1  0  0  0  0
 17 18  1  0  0  0  0
 17 19  1  0  0  0  0
 17 20  1  0  0  0  0
 14 15  1  0  0  0  0
 14 16  1  0  0  0  0
 14 17  1  0  0  0  0
 11 12  1  0  0  0  0
 11 13  1  0  0  0  0
 11 14  1  0  0  0  0
  9 10  1  0  0  0  0
  9 11  1  0  0  0  0
  9 26  1  0  0  0  0
  7  8  1  0  0  0  0
  7  9  1  0  0  0  0
 30 31  1  0  0  0  0
 30 32  1  0  0  0  0
 30 33  1  0  0  0  0
 28 29  1  0  0  0  0
 28 30  1  0  0  0  0
M  END
$$$$
default_name
  -OEChem-01062215323D

 33 32  0     1  0  0  0  0  0999 V2000
   -3.8420   -3.6918    1.5562 H   0  0  0  0  0  0  0  0  0  0  0  0
   -3.8430   -2.7008    1.1032 C   0  0  0  0  0  0  0  0  0  0  0  0
   -4.5510   -2.0608    1.6242 H   0  0  0  0  0  0  0  0  0  0  0  0
   -4.1140   -2.7798    0.0522 H   0  0  0  0  0  0  0  0  0  0  0  0
   -2.4570   -2.1098    1.2172 C   0  0  0  0  0  0  0  0  0  0  0  0
   -1.5600   -2.7438    1.7572 O   0  0  0  0  0  0  0  0  0  0  0  0
   -2.2870   -0.8898    0.7102 N   0  0  0  0  0  0  0  0  0  0  0  0
   -3.0820   -0.4218    0.2992 H   0  0  0  0  0  0  0  0  0  0  0  0
   -1.0240   -0.1468    0.7262 C   0  0  1  0  0  0  0  0  0  0  0  0
   -0.4578   -0.4059   -0.1695 H   0  0  0  0  0  0  0  0  0  0  0  0
   -1.3369    1.3618    0.6928 C   0  0  0  0  0  0  0  0  0  0  0  0
   -2.0475    1.5866    1.4909 H   0  0  0  0  0  0  0  0  0  0  0  0
   -0.4214    1.9234    0.8838 H   0  0  0  0  0  0  0  0  0  0  0  0
   -1.9480    1.8268   -0.6383 C   0  0  0  0  0  0  0  0  0  0  0  0
   -1.2616    1.6010   -1.4548 H   0  0  0  0  0  0  0  0  0  0  0  0
   -2.8884    1.2986   -0.8055 H   0  0  0  0  0  0  0  0  0  0  0  0
   -2.2140    3.3363   -0.6207 C   0  0  0  0  0  0  0  0  0  0  0  0
   -2.8937    3.5792    0.1966 H   0  0  0  0  0  0  0  0  0  0  0  0
   -1.2737    3.8696   -0.4777 H   0  0  0  0  0  0  0  0  0  0  0  0
   -2.8432    3.7673   -1.9441 C   0  0  0  0  0  0  0  0  0  0  0  0
   -2.1582    3.5426   -2.7602 H   0  0  0  0  0  0  0  0  0  0  0  0
   -3.7735    3.2227   -2.0971 H   0  0  0  0  0  0  0  0  0  0  0  0
   -3.1332    5.2057   -1.9522 N   0  0  0  0  0  0  0  0  0  0  0  0
   -3.5339    5.4573   -2.8439 H   0  0  0  0  0  0  0  0  0  0  0  0
   -3.7934    5.4148   -1.2168 H   0  0  0  0  0  0  0  0  0  0  0  0
   -0.1919   -0.5422    1.9571 C   0  0  0  0  0  0  0  0  0  0  0  0
   -0.4828   -1.5483    2.6006 O   0  0  0  0  0  0  0  0  0  0  0  0
    0.8319    0.2546    2.2847 N   0  0  0  0  0  0  0  0  0  0  0  0
    1.0150    1.0525    1.6985 H   0  0  0  0  0  0  0  0  0  0  0  0
    1.7081    0.0274    3.4329 C   0  0  0  0  0  0  0  0  0  0  0  0
    2.1376   -0.9753    3.3766 H   0  0  0  0  0  0  0  0  0  0  0  0
    2.5130    0.7636    3.4478 H   0  0  0  0  0  0  0  0  0  0  0  0
    1.1304    0.1048    4.3564 H   0  0  0  0  0  0  0  0  0  0  0  0
  5  6  2  0  0  0  0
  5  7  1  0  0  0  0
  2  3  1  0  0  0  0
  2  4  1  0  0  0  0
  2  5  1  0  0  0  0
  1  2  1  0  0  0  0
 26 27  2  0  0  0  0
 26 28  1  0  0  0  0
 23 24  1  0  0  0  0
 23 25  1  0  0  0  0
 20 21  1  0  0  0  0
 20 22  1  0  0  0  0
 20 23  1  0  0  0  0
 17 18  1  0  0  0  0
 17 19  1  0  0  0  0
 17 20  1  0  0  0  0
 14 15  1  0  0  0  0
 14 16  1  0  0  0  0
 14 17  1  0  0  0  0
 11 12  1  0  0  0  0
 11 13  1  0  0  0  0
 11 14  1  0  0  0  0
  9 10  1  0  0  0  0
  9 11  1  0  0  0  0
  9 26  1  0  0  0  0
  7  8  1  0  0  0  0
  7  9  1  0  0  0  0
 30 31  1  0  0  0  0
 30 32  1  0  0  0  0
 30 33  1  0  0  0  0
 28 29  1  0  0  0  0
 28 30  1  0  0  0  0
M  END
$$$$
default_name
  -OEChem-01062215323D

 33 32  0     1  0  0  0  0  0999 V2000
   -3.8420   -3.6918    1.5562 H   0  0  0  0  0  0  0  0  0  0  0  0
   -3.8430   -2.7008    1.1032 C   0  0  0  0  0  0  0  0  0  0  0  0
   -4.5510   -2.0608    1.6242 H   0  0  0  0  0  0  0  0  0  0  0  0
   -4.1140   -2.7798    0.0522 H   0  0  0  0  0  0  0  0  0  0  0  0
   -2.4570   -2.1098    1.2172 C   0  0  0  0  0  0  0  0  0  0  0  0
   -1.5600   -2.7438    1.7572 O   0  0  0  0  0  0  0  0  0  0  0  0
   -2.2870   -0.8898    0.7102 N   0  0  0  0  0  0  0  0  0  0  0  0
   -3.0820   -0.4218    0.2992 H   0  0  0  0  0  0  0  0  0  0  0  0
   -1.0240   -0.1468    0.7262 C   0  0  1  0  0  0  0  0  0  0  0  0
   -0.4578   -0.4059   -0.1695 H   0  0  0  0  0  0  0  0  0  0  0  0
   -1.3369    1.3618    0.6928 C   0  0  0  0  0  0  0  0  0  0  0  0
   -2.0475    1.5866    1.4909 H   0  0  0  0  0  0  0  0  0  0  0  0
   -0.4214    1.9234    0.8838 H   0  0  0  0  0  0  0  0  0  0  0  0
   -1.9480    1.8268   -0.6383 C   0  0  0  0  0  0  0  0  0  0  0  0
   -1.2616    1.6010   -1.4548 H   0  0  0  0  0  0  0  0  0  0  0  0
   -2.8884    1.2986   -0.8055 H   0  0  0  0  0  0  0  0  0  0  0  0
   -2.2140    3.3363   -0.6207 C   0  0  0  0  0  0  0  0  0  0  0  0
   -2.8937    3.5792    0.1966 H   0  0  0  0  0  0  0  0  0  0  0  0
   -1.2737    3.8696   -0.4777 H   0  0  0  0  0  0  0  0  0  0  0  0
   -2.8432    3.7673   -1.9441 C   0  0  0  0  0  0  0  0  0  0  0  0
   -2.1582    3.5426   -2.7602 H   0  0  0  0  0  0  0  0  0  0  0  0
   -3.7735    3.2227   -2.0971 H   0  0  0  0  0  0  0  0  0  0  0  0
   -3.1332    5.2057   -1.9522 N   0  0  0  0  0  0  0  0  0  0  0  0
   -3.5339    5.4573   -2.8439 H   0  0  0  0  0  0  0  0  0  0  0  0
   -3.7934    5.4148   -1.2168 H   0  0  0  0  0  0  0  0  0  0  0  0
   -0.1919   -0.5422    1.9571 C   0  0  0  0  0  0  0  0  0  0  0  0
   -0.2958   -1.6699    2.4352 O   0  0  0  0  0  0  0  0  0  0  0  0
    0.6214    0.3884    2.4700 N   0  0  0  0  0  0  0  0  0  0  0  0
    0.6613    1.2841    2.0120 H   0  0  0  0  0  0  0  0  0  0  0  0
    1.4651    0.1768    3.6452 C   0  0  0  0  0  0  0  0  0  0  0  0
    2.0997   -0.6987    3.4911 H   0  0  0  0  0  0  0  0  0  0  0  0
    2.0939    1.0504    3.8233 H   0  0  0  0  0  0  0  0  0  0  0  0
    0.8372   -0.0010    4.5207 H   0  0  0  0  0  0  0  0  0  0  0  0
  5  6  2  0  0  0  0
  5  7  1  0  0  0  0
  2  3  1  0  0  0  0
  2  4  1  0  0  0  0
  2  5  1  0  0  0  0
  1  2  1  0  0  0  0
 26 27  2  0  0  0  0
 26 28  1  0  0  0  0
 23 24  1  0  0  0  0
 23 25  1  0  0  0  0
 20 21  1  0  0  0  0
 20 22  1  0  0  0  0
 20 23  1  0  0  0  0
 17 18  1  0  0  0  0
 17 19  1  0  0  0  0
 17 20  1  0  0  0  0
 14 15  1  0  0  0  0
 14 16  1  0  0  0  0
 14 17  1  0  0  0  0
 11 12  1  0  0  0  0
 11 13  1  0  0  0  0
 11 14  1  0  0  0  0
  9 10  1  0  0  0  0
  9 11  1  0  0  0  0
  9 26  1  0  0  0  0
  7  8  1  0  0  0  0
  7  9  1  0  0  0  0
 30 31  1  0  0  0  0
 30 32  1  0  0  0  0
 30 33  1  0  0  0  0
 28 29  1  0  0  0  0
 28 30  1  0  0  0  0
M  END
$$$$
default_name
  -OEChem-01062215323D

 33 32  0     1  0  0  0  0  0999 V2000
   -3.8420   -3.6918    1.5562 H   0  0  0  0  0  0  0  0  0  0  0  0
   -3.8430   -2.7008    1.1032 C   0  0  0  0  0  0  0  0  0  0  0  0
   -4.5510   -2.0608    1.6242 H   0  0  0  0  0  0  0  0  0  0  0  0
   -4.1140   -2.7798    0.0522 H   0  0  0  0  0  0  0  0  0  0  0  0
   -2.4570   -2.1098    1.2172 C   0  0  0  0  0  0  0  0  0  0  0  0
   -1.5600   -2.7438    1.7572 O   0  0  0  0  0  0  0  0  0  0  0  0
   -2.2870   -0.8898    0.7102 N   0  0  0  0  0  0  0  0  0  0  0  0
   -3.0820   -0.4218    0.2992 H   0  0  0  0  0  0  0  0  0  0  0  0
   -1.0240   -0.1468    0.7262 C   0  0  1  0  0  0  0  0  0  0  0  0
   -0.4578   -0.4059   -0.1695 H   0  0  0  0  0  0  0  0  0  0  0  0
   -1.3369    1.3618    0.6928 C   0  0  0  0  0  0  0  0  0  0  0  0
   -2.0475    1.5866    1.4909 H   0  0  0  0  0  0  0  0  0  0  0  0
   -0.4214    1.9234    0.8838 H   0  0  0  0  0  0  0  0  0  0  0  0
   -1.9480    1.8268   -0.6383 C   0  0  0  0  0  0  0  0  0  0  0  0
   -1.2616    1.6010   -1.4548 H   0  0  0  0  0  0  0  0  0  0  0  0
   -2.8884    1.2986   -0.8055 H   0  0  0  0  0  0  0  0  0  0  0  0
   -2.2140    3.3363   -0.6207 C   0  0  0  0  0  0  0  0  0  0  0  0
   -2.8937    3.5792    0.1966 H   0  0  0  0  0  0  0  0  0  0  0  0
   -1.2737    3.8696   -0.4777 H   0  0  0  0  0  0  0  0  0  0  0  0
   -2.8432    3.7673   -1.9441 C   0  0  0  0  0  0  0  0  0  0  0  0
   -2.1582    3.5426   -2.7602 H   0  0  0  0  0  0  0  0  0  0  0  0
   -3.7735    3.2227   -2.0971 H   0  0  0  0  0  0  0  0  0  0  0  0
   -3.1332    5.2057   -1.9522 N   0  0  0  0  0  0  0  0  0  0  0  0
   -3.5339    5.4573   -2.8439 H   0  0  0  0  0  0  0  0  0  0  0  0
   -3.7934    5.4148   -1.2168 H   0  0  0  0  0  0  0  0  0  0  0  0
   -0.1919   -0.5422    1.9571 C   0  0  0  0  0  0  0  0  0  0  0  0
   -0.0791   -1.7254    2.2708 O   0  0  0  0  0  0  0  0  0  0  0  0
    0.3780    0.4480    2.6537 N   0  0  0  0  0  0  0  0  0  0  0  0
    0.2508    1.3907    2.3238 H   0  0  0  0  0  0  0  0  0  0  0  0
    1.1853    0.2411    3.8550 C   0  0  0  0  0  0  0  0  0  0  0  0
    1.9982   -0.4554    3.6379 H   0  0  0  0  0  0  0  0  0  0  0  0
    1.6046    1.1880    4.1983 H   0  0  0  0  0  0  0  0  0  0  0  0
    0.5648   -0.1870    4.6450 H   0  0  0  0  0  0  0  0  0  0  0  0
  5  6  2  0  0  0  0
  5  7  1  0  0  0  0
  2  3  1  0  0  0  0
  2  4  1  0  0  0  0
  2  5  1  0  0  0  0
  1  2  1  0  0  0  0
 26 27  2  0  0  0  0
 26 28  1  0  0  0  0
 23 24  1  0  0  0  0
 23 25  1  0  0  0  0
 20 21  1  0  0  0  0
 20 22  1  0  0  0  0
 20 23  1  0  0  0  0
 17 18  1  0  0  0  0
 17 19  1  0  0  0  0
 17 20  1  0  0  0  0
 14 15  1  0  0  0  0
 14 16  1  0  0  0  0
 14 17  1  0  0  0  0
 11 12  1  0  0  0  0
 11 13  1  0  0  0  0
 11 14  1  0  0  0  0
  9 10  1  0  0  0  0
  9 11  1  0  0  0  0
  9 26  1  0  0  0  0
  7  8  1  0  0  0  0
  7  9  1  0  0  0  0
 30 31  1  0  0  0  0
 30 32  1  0  0  0  0
 30 33  1  0  0  0  0
 28 29  1  0  0  0  0
 28 30  1  0  0  0  0
M  END
$$$$
default_name
  -OEChem-01062215323D

 33 32  0     1  0  0  0  0  0999 V2000
   -3.8420   -3.6918    1.5562 H   0  0  0  0  0  0  0  0  0  0  0  0
   -3.8430   -2.7008    1.1032 C   0  0  0  0  0  0  0  0  0  0  0  0
   -4.5510   -2.0608    1.6242 H   0  0  0  0  0  0  0  0  0  0  0  0
   -4.1140   -2.7798    0.0522 H   0  0  0  0  0  0  0  0  0  0  0  0
   -2.4570   -2.1098    1.2172 C   0  0  0  0  0  0  0  0  0  0  0  0
   -1.5600   -2.7438    1.7572 O   0  0  0  0  0  0  0  0  0  0  0  0
   -2.2870   -0.8898    0.7102 N   0  0  0  0  0  0  0  0  0  0  0  0
   -3.0820   -0.4218    0.2992 H   0  0  0  0  0  0  0  0  0  0  0  0
   -1.0240   -0.1468    0.7262 C   0  0  1  0  0  0  0  0  0  0  0  0
   -0.4578   -0.4059   -0.1695 H   0  0  0  0  0  0  0  0  0  0  0  0
   -1.3369    1.3618    0.6928 C   0  0  0  0  0  0  0  0  0  0  0  0
   -2.0475    1.5866    1.4909 H   0  0  0  0  0  0  0  0  0  0  0  0
   -0.4214    1.9234    0.8838 H   0  0  0  0  0  0  0  0  0  0  0  0
   -1.9480    1.8268   -0.6383 C   0  0  0  0  0  0  0  0  0  0  0  0
   -1.2616    1.6010   -1.4548 H   0  0  0  0  0  0  0  0  0  0  0  0
   -2.8884    1.2986   -0.8055 H   0  0  0  0  0  0  0  0  0  0  0  0
   -2.2140    3.3363   -0.6207 C   0  0  0  0  0  0  0  0  0  0  0  0
   -2.8937    3.5792    0.1966 H   0  0  0  0  0  0  0  0  0  0  0  0
   -1.2737    3.8696   -0.4777 H   0  0  0  0  0  0  0  0  0  0  0  0
   -2.8432    3.7673   -1.9441 C   0  0  0  0  0  0  0  0  0  0  0  0
   -2.1582    3.5426   -2.7602 H   0  0  0  0  0  0  0  0  0  0  0  0
   -3.7735    3.2227   -2.0971 H   0  0  0  0  0  0  0  0  0  0  0  0
   -3.1332    5.2057   -1.9522 N   0  0  0  0  0  0  0  0  0  0  0  0
   -3.5339    5.4573   -2.8439 H   0  0  0  0  0  0  0  0  0  0  0  0
   -3.7934    5.4148   -1.2168 H   0  0  0  0  0  0  0  0  0  0  0  0
   -0.1919   -0.5422    1.9571 C   0  0  0  0  0  0  0  0  0  0  0  0
    0.1527   -1.7110    2.1187 O   0  0  0  0  0  0  0  0  0  0  0  0
    0.1183    0.4294    2.8232 N   0  0  0  0  0  0  0  0  0  0  0  0
   -0.1885    1.3649    2.6125 H   0  0  0  0  0  0  0  0  0  0  0  0
    0.8878    0.2159    4.0480 C   0  0  0  0  0  0  0  0  0  0  0  0
    1.8399   -0.2620    3.8070 H   0  0  0  0  0  0  0  0  0  0  0  0
    1.0785    1.1670    4.5472 H   0  0  0  0  0  0  0  0  0  0  0  0
    0.3321   -0.4404    4.7209 H   0  0  0  0  0  0  0  0  0  0  0  0
  5  6  2  0  0  0  0
  5  7  1  0  0  0  0
  2  3  1  0  0  0  0
  2  4  1  0  0  0  0
  2  5  1  0  0  0  0
  1  2  1  0  0  0  0
 26 27  2  0  0  0  0
 26 28  1  0  0  0  0
 23 24  1  0  0  0  0
 23 25  1  0  0  0  0
 20 21  1  0  0  0  0
 20 22  1  0  0  0  0
 20 23  1  0  0  0  0
 17 18  1  0  0  0  0
 17 19  1  0  0  0  0
 17 20  1  0  0  0  0
 14 15  1  0  0  0  0
 14 16  1  0  0  0  0
 14 17  1  0  0  0  0
 11 12  1  0  0  0  0
 11 13  1  0  0  0  0
 11 14  1  0  0  0  0
  9 10  1  0  0  0  0
  9 11  1  0  0  0  0
  9 26  1  0  0  0  0
  7  8  1  0  0  0  0
  7  9  1  0  0  0  0
 30 31  1  0  0  0  0
 30 32  1  0  0  0  0
 30 33  1  0  0  0  0
 28 29  1  0  0  0  0
 28 30  1  0  0  0  0
M  END
$$$$
default_name
  -OEChem-01062215323D

 33 32  0     1  0  0  0  0  0999 V2000
   -3.8420   -3.6918    1.5562 H   0  0  0  0  0  0  0  0  0  0  0  0
   -3.8430   -2.7008    1.1032 C   0  0  0  0  0  0  0  0  0  0  0  0
   -4.5510   -2.0608    1.6242 H   0  0  0  0  0  0  0  0  0  0  0  0
   -4.1140   -2.7798    0.0522 H   0  0  0  0  0  0  0  0  0  0  0  0
   -2.4570   -2.1098    1.2172 C   0  0  0  0  0  0  0  0  0  0  0  0
   -1.5600   -2.7438    1.7572 O   0  0  0  0  0  0  0  0  0  0  0  0
   -2.2870   -0.8898    0.7102 N   0  0  0  0  0  0  0  0  0  0  0  0
   -3.0820   -0.4218    0.2992 H   0  0  0  0  0  0  0  0  0  0  0  0
   -1.0240   -0.1468    0.7262 C   0  0  1  0  0  0  0  0  0  0  0  0
   -0.4578   -0.4059   -0.1695 H   0  0  0  0  0  0  0  0  0  0  0  0
   -1.3369    1.3618    0.6928 C   0  0  0  0  0  0  0  0  0  0  0  0
   -2.0475    1.5866    1.4909 H   0  0  0  0  0  0  0  0  0  0  0  0
   -0.4214    1.9234    0.8838 H   0  0  0  0  0  0  0  0  0  0  0  0
   -1.9480    1.8268   -0.6383 C   0  0  0  0  0  0  0  0  0  0  0  0
   -1.2616    1.6010   -1.4548 H   0  0  0  0  0  0  0  0  0  0  0  0
   -2.8884    1.2986   -0.8055 H   0  0  0  0  0  0  0  0  0  0  0  0
   -2.2140    3.3363   -0.6207 C   0  0  0  0  0  0  0  0  0  0  0  0
   -2.8937    3.5792    0.1966 H   0  0  0  0  0  0  0  0  0  0  0  0
   -1.2737    3.8696   -0.4777 H   0  0  0  0  0  0  0  0  0  0  0  0
   -2.8432    3.7673   -1.9441 C   0  0  0  0  0  0  0  0  0  0  0  0
   -2.1582    3.5426   -2.7602 H   0  0  0  0  0  0  0  0  0  0  0  0
   -3.7735    3.2227   -2.0971 H   0  0  0  0  0  0  0  0  0  0  0  0
   -3.1332    5.2057   -1.9522 N   0  0  0  0  0  0  0  0  0  0  0  0
   -3.5339    5.4573   -2.8439 H   0  0  0  0  0  0  0  0  0  0  0  0
   -3.7934    5.4148   -1.2168 H   0  0  0  0  0  0  0  0  0  0  0  0
   -0.1919   -0.5422    1.9571 C   0  0  0  0  0  0  0  0  0  0  0  0
    0.3838   -1.6278    1.9893 O   0  0  0  0  0  0  0  0  0  0  0  0
   -0.1400    0.3339    2.9672 N   0  0  0  0  0  0  0  0  0  0  0  0
   -0.6267    1.2085    2.8585 H   0  0  0  0  0  0  0  0  0  0  0  0
    0.5928    0.1028    4.2111 C   0  0  0  0  0  0  0  0  0  0  0  0
    1.6357   -0.1316    3.9869 H   0  0  0  0  0  0  0  0  0  0  0  0
    0.5514    0.9888    4.8463 H   0  0  0  0  0  0  0  0  0  0  0  0
    0.1547   -0.7441    4.7433 H   0  0  0  0  0  0  0  0  0  0  0  0
  5  6  2  0  0  0  0
  5  7  1  0  0  0  0
  2  3  1  0  0  0  0
  2  4  1  0  0  0  0
  2  5  1  0  0  0  0
  1  2  1  0  0  0  0
 26 27  2  0  0  0  0
 26 28  1  0  0  0  0
 23 24  1  0  0  0  0
 23 25  1  0  0  0  0
 20 21  1  0  0  0  0
 20 22  1  0  0  0  0
 20 23  1  0  0  0  0
 17 18  1  0  0  0  0
 17 19  1  0  0  0  0
 17 20  1  0  0  0  0
 14 15  1  0  0  0  0
 14 16  1  0  0  0  0
 14 17  1  0  0  0  0
 11 12  1  0  0  0  0
 11 13  1  0  0  0  0
 11 14  1  0  0  0  0
  9 10  1  0  0  0  0
  9 11  1  0  0  0  0
  9 26  1  0  0  0  0
  7  8  1  0  0  0  0
  7  9  1  0  0  0  0
 30 31  1  0  0  0  0
 30 32  1  0  0  0  0
 30 33  1  0  0  0  0
 28 29  1  0  0  0  0
 28 30  1  0  0  0  0
M  END
$$$$
default_name
  -OEChem-01062215323D

 33 32  0     1  0  0  0  0  0999 V2000
   -3.8420   -3.6918    1.5562 H   0  0  0  0  0  0  0  0  0  0  0  0
   -3.8430   -2.7008    1.1032 C   0  0  0  0  0  0  0  0  0  0  0  0
   -4.5510   -2.0608    1.6242 H   0  0  0  0  0  0  0  0  0  0  0  0
   -4.1140   -2.7798    0.0522 H   0  0  0  0  0  0  0  0  0  0  0  0
   -2.4570   -2.1098    1.2172 C   0  0  0  0  0  0  0  0  0  0  0  0
   -1.5600   -2.7438    1.7572 O   0  0  0  0  0  0  0  0  0  0  0  0
   -2.2870   -0.8898    0.7102 N   0  0  0  0  0  0  0  0  0  0  0  0
   -3.0820   -0.4218    0.2992 H   0  0  0  0  0  0  0  0  0  0  0  0
   -1.0240   -0.1468    0.7262 C   0  0  1  0  0  0  0  0  0  0  0  0
   -0.4578   -0.4059   -0.1695 H   0  0  0  0  0  0  0  0  0  0  0  0
   -1.3369    1.3618    0.6928 C   0  0  0  0  0  0  0  0  0  0  0  0
   -2.0475    1.5866    1.4909 H   0  0  0  0  0  0  0  0  0  0  0  0
   -0.4214    1.9234    0.8838 H   0  0  0  0  0  0  0  0  0  0  0  0
   -1.9480    1.8268   -0.6383 C   0  0  0  0  0  0  0  0  0  0  0  0
   -1.2616    1.6010   -1.4548 H   0  0  0  0  0  0  0  0  0  0  0  0
   -2.8884    1.2986   -0.8055 H   0  0  0  0  0  0  0  0  0  0  0  0
   -2.2140    3.3363   -0.6207 C   0  0  0  0  0  0  0  0  0  0  0  0
   -2.8937    3.5792    0.1966 H   0  0  0  0  0  0  0  0  0  0  0  0
   -1.2737    3.8696   -0.4777 H   0  0  0  0  0  0  0  0  0  0  0  0
   -2.8432    3.7673   -1.9441 C   0  0  0  0  0  0  0  0  0  0  0  0
   -2.1582    3.5426   -2.7602 H   0  0  0  0  0  0  0  0  0  0  0  0
   -3.7735    3.2227   -2.0971 H   0  0  0  0  0  0  0  0  0  0  0  0
   -3.1332    5.2057   -1.9522 N   0  0  0  0  0  0  0  0  0  0  0  0
   -3.5339    5.4573   -2.8439 H   0  0  0  0  0  0  0  0  0  0  0  0
   -3.7934    5.4148   -1.2168 H   0  0  0  0  0  0  0  0  0  0  0  0
   -0.1919   -0.5422    1.9571 C   0  0  0  0  0  0  0  0  0  0  0  0
    0.5983   -1.4815    1.8912 O   0  0  0  0  0  0  0  0  0  0  0  0
   -0.3793    0.1680    3.0756 N   0  0  0  0  0  0  0  0  0  0  0  0
   -1.0340    0.9321    3.0450 H   0  0  0  0  0  0  0  0  0  0  0  0
    0.3204   -0.0904    4.3332 C   0  0  0  0  0  0  0  0  0  0  0  0
    1.3995   -0.0732    4.1654 H   0  0  0  0  0  0  0  0  0  0  0  0
    0.0593    0.6656    5.0751 H   0  0  0  0  0  0  0  0  0  0  0  0
    0.0448   -1.0773    4.7105 H   0  0  0  0  0  0  0  0  0  0  0  0
  5  6  2  0  0  0  0
  5  7  1  0  0  0  0
  2  3  1  0  0  0  0
  2  4  1  0  0  0  0
  2  5  1  0  0  0  0
  1  2  1  0  0  0  0
 26 27  2  0  0  0  0
 26 28  1  0  0  0  0
 23 24  1  0  0  0  0
 23 25  1  0  0  0  0
 20 21  1  0  0  0  0
 20 22  1  0  0  0  0
 20 23  1  0  0  0  0
 17 18  1  0  0  0  0
 17 19  1  0  0  0  0
 17 20  1  0  0  0  0
 14 15  1  0  0  0  0
 14 16  1  0  0  0  0
 14 17  1  0  0  0  0
 11 12  1  0  0  0  0
 11 13  1  0  0  0  0
 11 14  1  0  0  0  0
  9 10  1  0  0  0  0
  9 11  1  0  0  0  0
  9 26  1  0  0  0  0
  7  8  1  0  0  0  0
  7  9  1  0  0  0  0
 30 31  1  0  0  0  0
 30 32  1  0  0  0  0
 30 33  1  0  0  0  0
 28 29  1  0  0  0  0
 28 30  1  0  0  0  0
M  END
$$$$
default_name
  -OEChem-01062215323D

 33 32  0     1  0  0  0  0  0999 V2000
   -3.8420   -3.6918    1.5562 H   0  0  0  0  0  0  0  0  0  0  0  0
   -3.8430   -2.7008    1.1032 C   0  0  0  0  0  0  0  0  0  0  0  0
   -4.5510   -2.0608    1.6242 H   0  0  0  0  0  0  0  0  0  0  0  0
   -4.1140   -2.7798    0.0522 H   0  0  0  0  0  0  0  0  0  0  0  0
   -2.4570   -2.1098    1.2172 C   0  0  0  0  0  0  0  0  0  0  0  0
   -1.5600   -2.7438    1.7572 O   0  0  0  0  0  0  0  0  0  0  0  0
   -2.2870   -0.8898    0.7102 N   0  0  0  0  0  0  0  0  0  0  0  0
   -3.0820   -0.4218    0.2992 H   0  0  0  0  0  0  0  0  0  0  0  0
   -1.0240   -0.1468    0.7262 C   0  0  1  0  0  0  0  0  0  0  0  0
   -0.4578   -0.4059   -0.1695 H   0  0  0  0  0  0  0  0  0  0  0  0
   -1.3369    1.3618    0.6928 C   0  0  0  0  0  0  0  0  0  0  0  0
   -2.0475    1.5866    1.4909 H   0  0  0  0  0  0  0  0  0  0  0  0
   -0.4214    1.9234    0.8838 H   0  0  0  0  0  0  0  0  0  0  0  0
   -1.9480    1.8268   -0.6383 C   0  0  0  0  0  0  0  0  0  0  0  0
   -1.2616    1.6010   -1.4548 H   0  0  0  0  0  0  0  0  0  0  0  0
   -2.8884    1.2986   -0.8055 H   0  0  0  0  0  0  0  0  0  0  0  0
   -2.2140    3.3363   -0.6207 C   0  0  0  0  0  0  0  0  0  0  0  0
   -2.8937    3.5792    0.1966 H   0  0  0  0  0  0  0  0  0  0  0  0
   -1.2737    3.8696   -0.4777 H   0  0  0  0  0  0  0  0  0  0  0  0
   -2.8432    3.7673   -1.9441 C   0  0  0  0  0  0  0  0  0  0  0  0
   -2.1582    3.5426   -2.7602 H   0  0  0  0  0  0  0  0  0  0  0  0
   -3.7735    3.2227   -2.0971 H   0  0  0  0  0  0  0  0  0  0  0  0
   -3.1332    5.2057   -1.9522 N   0  0  0  0  0  0  0  0  0  0  0  0
   -3.5339    5.4573   -2.8439 H   0  0  0  0  0  0  0  0  0  0  0  0
   -3.7934    5.4148   -1.2168 H   0  0  0  0  0  0  0  0  0  0  0  0
   -0.1919   -0.5422    1.9571 C   0  0  0  0  0  0  0  0  0  0  0  0
    0.7818   -1.2819    1.8313 O   0  0  0  0  0  0  0  0  0  0  0  0
   -0.5832   -0.0571    3.1412 N   0  0  0  0  0  0  0  0  0  0  0  0
   -1.3826    0.5547    3.1594 H   0  0  0  0  0  0  0  0  0  0  0  0
    0.0892   -0.3506    4.4059 C   0  0  0  0  0  0  0  0  0  0  0  0
    1.1474   -0.0908    4.3302 H   0  0  0  0  0  0  0  0  0  0  0  0
   -0.3642    0.2194    5.2181 H   0  0  0  0  0  0  0  0  0  0  0  0
    0.0099   -1.4174    4.6249 H   0  0  0  0  0  0  0  0  0  0  0  0
  5  6  2  0  0  0  0
  5  7  1  0  0  0  0
  2  3  1  0  0  0  0
  2  4  1  0  0  0  0
  2  5  1  0  0  0  0
  1  2  1  0  0  0  0
 26 27  2  0  0  0  0
 26 28  1  0  0  0  0
 23 24  1  0  0  0  0
 23 25  1  0  0  0  0
 20 21  1  0  0  0  0
 20 22  1  0  0  0  0
 20 23  1  0  0  0  0
 17 18  1  0  0  0  0
 17 19  1  0  0  0  0
 17 20  1  0  0  0  0
 14 15  1  0  0  0  0
 14 16  1  0  0  0  0
 14 17  1  0  0  0  0
 11 12  1  0  0  0  0
 11 13  1  0  0  0  0
 11 14  1  0  0  0  0
  9 10  1  0  0  0  0
  9 11  1  0  0  0  0
  9 26  1  0  0  0  0
  7  8  1  0  0  0  0
  7  9  1  0  0  0  0
 30 31  1  0  0  0  0
 30 32  1  0  0  0  0
 30 33  1  0  0  0  0
 28 29  1  0  0  0  0
 28 30  1  0  0  0  0
M  END
$$$$
default_name
  -OEChem-01062215323D

 33 32  0     1  0  0  0  0  0999 V2000
   -3.8420   -3.6918    1.5562 H   0  0  0  0  0  0  0  0  0  0  0  0
   -3.8430   -2.7008    1.1032 C   0  0  0  0  0  0  0  0  0  0  0  0
   -4.5510   -2.0608    1.6242 H   0  0  0  0  0  0  0  0  0  0  0  0
   -4.1140   -2.7798    0.0522 H   0  0  0  0  0  0  0  0  0  0  0  0
   -2.4570   -2.1098    1.2172 C   0  0  0  0  0  0  0  0  0  0  0  0
   -1.5600   -2.7438    1.7572 O   0  0  0  0  0  0  0  0  0  0  0  0
   -2.2870   -0.8898    0.7102 N   0  0  0  0  0  0  0  0  0  0  0  0
   -3.0820   -0.4218    0.2992 H   0  0  0  0  0  0  0  0  0  0  0  0
   -1.0240   -0.1468    0.7262 C   0  0  1  0  0  0  0  0  0  0  0  0
   -0.4578   -0.4059   -0.1695 H   0  0  0  0  0  0  0  0  0  0  0  0
   -1.3369    1.3618    0.6928 C   0  0  0  0  0  0  0  0  0  0  0  0
   -2.0475    1.5866    1.4909 H   0  0  0  0  0  0  0  0  0  0  0  0
   -0.4214    1.9234    0.8838 H   0  0  0  0  0  0  0  0  0  0  0  0
   -1.9480    1.8268   -0.6383 C   0  0  0  0  0  0  0  0  0  0  0  0
   -1.2616    1.6010   -1.4548 H   0  0  0  0  0  0  0  0  0  0  0  0
   -2.8884    1.2986   -0.8055 H   0  0  0  0  0  0  0  0  0  0  0  0
   -2.2140    3.3363   -0.6207 C   0  0  0  0  0  0  0  0  0  0  0  0
   -2.8937    3.5792    0.1966 H   0  0  0  0  0  0  0  0  0  0  0  0
   -1.2737    3.8696   -0.4777 H   0  0  0  0  0  0  0  0  0  0  0  0
   -2.8432    3.7673   -1.9441 C   0  0  0  0  0  0  0  0  0  0  0  0
   -2.1582    3.5426   -2.7602 H   0  0  0  0  0  0  0  0  0  0  0  0
   -3.7735    3.2227   -2.0971 H   0  0  0  0  0  0  0  0  0  0  0  0
   -3.1332    5.2057   -1.9522 N   0  0  0  0  0  0  0  0  0  0  0  0
   -3.5339    5.4573   -2.8439 H   0  0  0  0  0  0  0  0  0  0  0  0
   -3.7934    5.4148   -1.2168 H   0  0  0  0  0  0  0  0  0  0  0  0
   -0.1919   -0.5422    1.9571 C   0  0  0  0  0  0  0  0  0  0  0  0
    0.9216   -1.0427    1.8136 O   0  0  0  0  0  0  0  0  0  0  0  0
   -0.7379   -0.3259    3.1594 N   0  0  0  0  0  0  0  0  0  0  0  0
   -1.6487    0.1019    3.1938 H   0  0  0  0  0  0  0  0  0  0  0  0
   -0.0851   -0.6600    4.4243 C   0  0  0  0  0  0  0  0  0  0  0  0
    0.8965   -0.1831    4.4701 H   0  0  0  0  0  0  0  0  0  0  0  0
   -0.6905   -0.3194    5.2655 H   0  0  0  0  0  0  0  0  0  0  0  0
    0.0523   -1.7411    4.4922 H   0  0  0  0  0  0  0  0  0  0  0  0
  5  6  2  0  0  0  0
  5  7  1  0  0  0  0
  2  3  1  0  0  0  0
  2  4  1  0  0  0  0
  2  5  1  0  0  0  0
  1  2  1  0  0  0  0
 26 27  2  0  0  0  0
 26 28  1  0  0  0  0
 23 24  1  0  0  0  0
 23 25  1  0  0  0  0
 20 21  1  0  0  0  0
 20 22  1  0  0  0  0
 20 23  1  0  0  0  0
 17 18  1  0  0  0  0
 17 19  1  0  0  0  0
 17 20  1  0  0  0  0
 14 15  1  0  0  0  0
 14 16  1  0  0  0  0
 14 17  1  0  0  0  0
 11 12  1  0  0  0  0
 11 13  1  0  0  0  0
 11 14  1  0  0  0  0
  9 10  1  0  0  0  0
  9 11  1  0  0  0  0
  9 26  1  0  0  0  0
  7  8  1  0  0  0  0
  7  9  1  0  0  0  0
 30 31  1  0  0  0  0
 30 32  1  0  0  0  0
 30 33  1  0  0  0  0
 28 29  1  0  0  0  0
 28 30  1  0  0  0  0
M  END
$$$$
default_name
  -OEChem-01062215323D

 33 32  0     1  0  0  0  0  0999 V2000
   -3.8420   -3.6918    1.5562 H   0  0  0  0  0  0  0  0  0  0  0  0
   -3.8430   -2.7008    1.1032 C   0  0  0  0  0  0  0  0  0  0  0  0
   -4.5510   -2.0608    1.6242 H   0  0  0  0  0  0  0  0  0  0  0  0
   -4.1140   -2.7798    0.0522 H   0  0  0  0  0  0  0  0  0  0  0  0
   -2.4570   -2.1098    1.2172 C   0  0  0  0  0  0  0  0  0  0  0  0
   -1.5600   -2.7438    1.7572 O   0  0  0  0  0  0  0  0  0  0  0  0
   -2.2870   -0.8898    0.7102 N   0  0  0  0  0  0  0  0  0  0  0  0
   -3.0820   -0.4218    0.2992 H   0  0  0  0  0  0  0  0  0  0  0  0
   -1.0240   -0.1468    0.7262 C   0  0  1  0  0  0  0  0  0  0  0  0
   -0.4578   -0.4059   -0.1695 H   0  0  0  0  0  0  0  0  0  0  0  0
   -1.3369    1.3618    0.6928 C   0  0  0  0  0  0  0  0  0  0  0  0
   -2.0475    1.5866    1.4909 H   0  0  0  0  0  0  0  0  0  0  0  0
   -0.4214    1.9234    0.8838 H   0  0  0  0  0  0  0  0  0  0  0  0
   -1.9480    1.8268   -0.6383 C   0  0  0  0  0  0  0  0  0  0  0  0
   -1.2616    1.6010   -1.4548 H   0  0  0  0  0  0  0  0  0  0  0  0
   -2.8884    1.2986   -0.8055 H   0  0  0  0  0  0  0  0  0  0  0  0
   -2.2140    3.3363   -0.6207 C   0  0  0  0  0  0  0  0  0  0  0  0
   -2.8937    3.5792    0.1966 H   0  0  0  0  0  0  0  0  0  0  0  0
   -1.2737    3.8696   -0.4777 H   0  0  0  0  0  0  0  0  0  0  0  0
   -2.8432    3.7673   -1.9441 C   0  0  0  0  0  0  0  0  0  0  0  0
   -2.1582    3.5426   -2.7602 H   0  0  0  0  0  0  0  0  0  0  0  0
   -3.7735    3.2227   -2.0971 H   0  0  0  0  0  0  0  0  0  0  0  0
   -3.1332    5.2057   -1.9522 N   0  0  0  0  0  0  0  0  0  0  0  0
   -3.5339    5.4573   -2.8439 H   0  0  0  0  0  0  0  0  0  0  0  0
   -3.7934    5.4148   -1.2168 H   0  0  0  0  0  0  0  0  0  0  0  0
   -0.1919   -0.5422    1.9571 C   0  0  0  0  0  0  0  0  0  0  0  0
    1.0083   -0.7803    1.8394 O   0  0  0  0  0  0  0  0  0  0  0  0
   -0.8329   -0.6202    3.1291 N   0  0  0  0  0  0  0  0  0  0  0  0
   -1.8142   -0.3955    3.1459 H   0  0  0  0  0  0  0  0  0  0  0  0
   -0.1905   -0.9975    4.3871 C   0  0  0  0  0  0  0  0  0  0  0  0
    0.6639   -0.3438    4.5757 H   0  0  0  0  0  0  0  0  0  0  0  0
   -0.8971   -0.9141    5.2142 H   0  0  0  0  0  0  0  0  0  0  0  0
    0.1692   -2.0264    4.3215 H   0  0  0  0  0  0  0  0  0  0  0  0
  5  6  2  0  0  0  0
  5  7  1  0  0  0  0
  2  3  1  0  0  0  0
  2  4  1  0  0  0  0
  2  5  1  0  0  0  0
  1  2  1  0  0  0  0
 26 27  2  0  0  0  0
 26 28  1  0  0  0  0
 23 24  1  0  0  0  0
 23 25  1  0  0  0  0
 20 21  1  0  0  0  0
 20 22  1  0  0  0  0
 20 23  1  0  0  0  0
 17 18  1  0  0  0  0
 17 19  1  0  0  0  0
 17 20  1  0  0  0  0
 14 15  1  0  0  0  0
 14 16  1  0  0  0  0
 14 17  1  0  0  0  0
 11 12  1  0  0  0  0
 11 13  1  0  0  0  0
 11 14  1  0  0  0  0
  9 10  1  0  0  0  0
  9 11  1  0  0  0  0
  9 26  1  0  0  0  0
  7  8  1  0  0  0  0
  7  9  1  0  0  0  0
 30 31  1  0  0  0  0
 30 32  1  0  0  0  0
 30 33  1  0  0  0  0
 28 29  1  0  0  0  0
 28 30  1  0  0  0  0
M  END
$$$$
default_name
  -OEChem-01062215323D

 33 32  0     1  0  0  0  0  0999 V2000
   -3.8420   -3.6918    1.5562 H   0  0  0  0  0  0  0  0  0  0  0  0
   -3.8430   -2.7008    1.1032 C   0  0  0  0  0  0  0  0  0  0  0  0
   -4.5510   -2.0608    1.6242 H   0  0  0  0  0  0  0  0  0  0  0  0
   -4.1140   -2.7798    0.0522 H   0  0  0  0  0  0  0  0  0  0  0  0
   -2.4570   -2.1098    1.2172 C   0  0  0  0  0  0  0  0  0  0  0  0
   -1.5600   -2.7438    1.7572 O   0  0  0  0  0  0  0  0  0  0  0  0
   -2.2870   -0.8898    0.7102 N   0  0  0  0  0  0  0  0  0  0  0  0
   -3.0820   -0.4218    0.2992 H   0  0  0  0  0  0  0  0  0  0  0  0
   -1.0240   -0.1468    0.7262 C   0  0  1  0  0  0  0  0  0  0  0  0
   -0.4578   -0.4059   -0.1695 H   0  0  0  0  0  0  0  0  0  0  0  0
   -1.3369    1.3618    0.6928 C   0  0  0  0  0  0  0  0  0  0  0  0
   -2.0475    1.5866    1.4909 H   0  0  0  0  0  0  0  0  0  0  0  0
   -0.4214    1.9234    0.8838 H   0  0  0  0  0  0  0  0  0  0  0  0
   -1.9480    1.8268   -0.6383 C   0  0  0  0  0  0  0  0  0  0  0  0
   -1.2616    1.6010   -1.4548 H   0  0  0  0  0  0  0  0  0  0  0  0
   -2.8884    1.2986   -0.8055 H   0  0  0  0  0  0  0  0  0  0  0  0
   -2.2140    3.3363   -0.6207 C   0  0  0  0  0  0  0  0  0  0  0  0
   -2.8937    3.5792    0.1966 H   0  0  0  0  0  0  0  0  0  0  0  0
   -1.2737    3.8696   -0.4777 H   0  0  0  0  0  0  0  0  0  0  0  0
   -2.8432    3.7673   -1.9441 C   0  0  0  0  0  0  0  0  0  0  0  0
   -2.1582    3.5426   -2.7602 H   0  0  0  0  0  0  0  0  0  0  0  0
   -3.7735    3.2227   -2.0971 H   0  0  0  0  0  0  0  0  0  0  0  0
   -3.1332    5.2057   -1.9522 N   0  0  0  0  0  0  0  0  0  0  0  0
   -3.5339    5.4573   -2.8439 H   0  0  0  0  0  0  0  0  0  0  0  0
   -3.7934    5.4148   -1.2168 H   0  0  0  0  0  0  0  0  0  0  0  0
   -0.1919   -0.5422    1.9571 C   0  0  0  0  0  0  0  0  0  0  0  0
    1.0359   -0.5124    1.9067 O   0  0  0  0  0  0  0  0  0  0  0  0
   -0.8616   -0.9199    3.0522 N   0  0  0  0  0  0  0  0  0  0  0  0
   -1.8678   -0.9035    3.0189 H   0  0  0  0  0  0  0  0  0  0  0  0
   -0.2199   -1.3401    4.2969 C   0  0  0  0  0  0  0  0  0  0  0  0
    0.4656   -0.5620    4.6397 H   0  0  0  0  0  0  0  0  0  0  0  0
   -0.9700   -1.5241    5.0675 H   0  0  0  0  0  0  0  0  0  0  0  0
    0.3526   -2.2539    4.1245 H   0  0  0  0  0  0  0  0  0  0  0  0
  5  6  2  0  0  0  0
  5  7  1  0  0  0  0
  2  3  1  0  0  0  0
  2  4  1  0  0  0  0
  2  5  1  0  0  0  0
  1  2  1  0  0  0  0
 26 27  2  0  0  0  0
 26 28  1  0  0  0  0
 23 24  1  0  0  0  0
 23 25  1  0  0  0  0
 20 21  1  0  0  0  0
 20 22  1  0  0  0  0
 20 23  1  0  0  0  0
 17 18  1  0  0  0  0
 17 19  1  0  0  0  0
 17 20  1  0  0  0  0
 14 15  1  0  0  0  0
 14 16  1  0  0  0  0
 14 17  1  0  0  0  0
 11 12  1  0  0  0  0
 11 13  1  0  0  0  0
 11 14  1  0  0  0  0
  9 10  1  0  0  0  0
  9 11  1  0  0  0  0
  9 26  1  0  0  0  0
  7  8  1  0  0  0  0
  7  9  1  0  0  0  0
 30 31  1  0  0  0  0
 30 32  1  0  0  0  0
 30 33  1  0  0  0  0
 28 29  1  0  0  0  0
 28 30  1  0  0  0  0
M  END
$$$$
default_name
  -OEChem-01062215323D

 33 32  0     1  0  0  0  0  0999 V2000
   -3.8420   -3.6918    1.5562 H   0  0  0  0  0  0  0  0  0  0  0  0
   -3.8430   -2.7008    1.1032 C   0  0  0  0  0  0  0  0  0  0  0  0
   -4.5510   -2.0608    1.6242 H   0  0  0  0  0  0  0  0  0  0  0  0
   -4.1140   -2.7798    0.0522 H   0  0  0  0  0  0  0  0  0  0  0  0
   -2.4570   -2.1098    1.2172 C   0  0  0  0  0  0  0  0  0  0  0  0
   -1.5600   -2.7438    1.7572 O   0  0  0  0  0  0  0  0  0  0  0  0
   -2.2870   -0.8898    0.7102 N   0  0  0  0  0  0  0  0  0  0  0  0
   -3.0820   -0.4218    0.2992 H   0  0  0  0  0  0  0  0  0  0  0  0
   -1.0240   -0.1468    0.7262 C   0  0  1  0  0  0  0  0  0  0  0  0
   -0.4578   -0.4059   -0.1695 H   0  0  0  0  0  0  0  0  0  0  0  0
   -1.3369    1.3618    0.6928 C   0  0  0  0  0  0  0  0  0  0  0  0
   -2.0475    1.5866    1.4909 H   0  0  0  0  0  0  0  0  0  0  0  0
   -0.4214    1.9234    0.8838 H   0  0  0  0  0  0  0  0  0  0  0  0
   -1.9480    1.8268   -0.6383 C   0  0  0  0  0  0  0  0  0  0  0  0
   -1.2616    1.6010   -1.4548 H   0  0  0  0  0  0  0  0  0  0  0  0
   -2.8884    1.2986   -0.8055 H   0  0  0  0  0  0  0  0  0  0  0  0
   -2.2140    3.3363   -0.6207 C   0  0  0  0  0  0  0  0  0  0  0  0
   -2.8937    3.5792    0.1966 H   0  0  0  0  0  0  0  0  0  0  0  0
   -1.2737    3.8696   -0.4777 H   0  0  0  0  0  0  0  0  0  0  0  0
   -2.8432    3.7673   -1.9441 C   0  0  0  0  0  0  0  0  0  0  0  0
   -2.1582    3.5426   -2.7602 H   0  0  0  0  0  0  0  0  0  0  0  0
   -3.7735    3.2227   -2.0971 H   0  0  0  0  0  0  0  0  0  0  0  0
   -3.1332    5.2057   -1.9522 N   0  0  0  0  0  0  0  0  0  0  0  0
   -3.5339    5.4573   -2.8439 H   0  0  0  0  0  0  0  0  0  0  0  0
   -3.7934    5.4148   -1.2168 H   0  0  0  0  0  0  0  0  0  0  0  0
   -0.1919   -0.5422    1.9571 C   0  0  0  0  0  0  0  0  0  0  0  0
    1.0026   -0.2573    2.0112 O   0  0  0  0  0  0  0  0  0  0  0  0
   -0.8222   -1.2046    2.9341 N   0  0  0  0  0  0  0  0  0  0  0  0
   -1.8058   -1.3875    2.8216 H   0  0  0  0  0  0  0  0  0  0  0  0
   -0.1713   -1.6646    4.1599 C   0  0  0  0  0  0  0  0  0  0  0  0
    0.3150   -0.8228    4.6577 H   0  0  0  0  0  0  0  0  0  0  0  0
   -0.9043   -2.1079    4.8355 H   0  0  0  0  0  0  0  0  0  0  0  0
    0.5900   -2.4080    3.9145 H   0  0  0  0  0  0  0  0  0  0  0  0
  5  6  2  0  0  0  0
  5  7  1  0  0  0  0
  2  3  1  0  0  0  0
  2  4  1  0  0  0  0
  2  5  1  0  0  0  0
  1  2  1  0  0  0  0
 26 27  2  0  0  0  0
 26 28  1  0  0  0  0
 23 24  1  0  0  0  0
 23 25  1  0  0  0  0
 20 21  1  0  0  0  0
 20 22  1  0  0  0  0
 20 23  1  0  0  0  0
 17 18  1  0  0  0  0
 17 19  1  0  0  0  0
 17 20  1  0  0  0  0
 14 15  1  0  0  0  0
 14 16  1  0  0  0  0
 14 17  1  0  0  0  0
 11 12  1  0  0  0  0
 11 13  1  0  0  0  0
 11 14  1  0  0  0  0
  9 10  1  0  0  0  0
  9 11  1  0  0  0  0
  9 26  1  0  0  0  0
  7  8  1  0  0  0  0
  7  9  1  0  0  0  0
 30 31  1  0  0  0  0
 30 32  1  0  0  0  0
 30 33  1  0  0  0  0
 28 29  1  0  0  0  0
 28 30  1  0  0  0  0
M  END
$$$$
default_name
  -OEChem-01062215323D

 33 32  0     1  0  0  0  0  0999 V2000
   -3.8420   -3.6918    1.5562 H   0  0  0  0  0  0  0  0  0  0  0  0
   -3.8430   -2.7008    1.1032 C   0  0  0  0  0  0  0  0  0  0  0  0
   -4.5510   -2.0608    1.6242 H   0  0  0  0  0  0  0  0  0  0  0  0
   -4.1140   -2.7798    0.0522 H   0  0  0  0  0  0  0  0  0  0  0  0
   -2.4570   -2.1098    1.2172 C   0  0  0  0  0  0  0  0  0  0  0  0
   -1.5600   -2.7438    1.7572 O   0  0  0  0  0  0  0  0  0  0  0  0
   -2.2870   -0.8898    0.7102 N   0  0  0  0  0  0  0  0  0  0  0  0
   -3.0820   -0.4218    0.2992 H   0  0  0  0  0  0  0  0  0  0  0  0
   -1.0240   -0.1468    0.7262 C   0  0  1  0  0  0  0  0  0  0  0  0
   -0.4578   -0.4059   -0.1695 H   0  0  0  0  0  0  0  0  0  0  0  0
   -1.3369    1.3618    0.6928 C   0  0  0  0  0  0  0  0  0  0  0  0
   -2.0475    1.5866    1.4909 H   0  0  0  0  0  0  0  0  0  0  0  0
   -0.4214    1.9234    0.8838 H   0  0  0  0  0  0  0  0  0  0  0  0
   -1.9480    1.8268   -0.6383 C   0  0  0  0  0  0  0  0  0  0  0  0
   -1.2616    1.6010   -1.4548 H   0  0  0  0  0  0  0  0  0  0  0  0
   -2.8884    1.2986   -0.8055 H   0  0  0  0  0  0  0  0  0  0  0  0
   -2.2140    3.3363   -0.6207 C   0  0  0  0  0  0  0  0  0  0  0  0
   -2.8937    3.5792    0.1966 H   0  0  0  0  0  0  0  0  0  0  0  0
   -1.2737    3.8696   -0.4777 H   0  0  0  0  0  0  0  0  0  0  0  0
   -2.8432    3.7673   -1.9441 C   0  0  0  0  0  0  0  0  0  0  0  0
   -2.1582    3.5426   -2.7602 H   0  0  0  0  0  0  0  0  0  0  0  0
   -3.7735    3.2227   -2.0971 H   0  0  0  0  0  0  0  0  0  0  0  0
   -3.1332    5.2057   -1.9522 N   0  0  0  0  0  0  0  0  0  0  0  0
   -3.5339    5.4573   -2.8439 H   0  0  0  0  0  0  0  0  0  0  0  0
   -3.7934    5.4148   -1.2168 H   0  0  0  0  0  0  0  0  0  0  0  0
   -0.1919   -0.5422    1.9571 C   0  0  0  0  0  0  0  0  0  0  0  0
    0.9107   -0.0325    2.1456 O   0  0  0  0  0  0  0  0  0  0  0  0
   -0.7172   -1.4548    2.7827 N   0  0  0  0  0  0  0  0  0  0  0  0
   -1.6326   -1.8145    2.5673 H   0  0  0  0  0  0  0  0  0  0  0  0
   -0.0481   -1.9487    3.9852 C   0  0  0  0  0  0  0  0  0  0  0  0
    0.2223   -1.1085    4.6286 H   0  0  0  0  0  0  0  0  0  0  0  0
   -0.7044   -2.6257    4.5340 H   0  0  0  0  0  0  0  0  0  0  0  0
    0.8652   -2.4782    3.7059 H   0  0  0  0  0  0  0  0  0  0  0  0
  5  6  2  0  0  0  0
  5  7  1  0  0  0  0
  2  3  1  0  0  0  0
  2  4  1  0  0  0  0
  2  5  1  0  0  0  0
  1  2  1  0  0  0  0
 26 27  2  0  0  0  0
 26 28  1  0  0  0  0
 23 24  1  0  0  0  0
 23 25  1  0  0  0  0
 20 21  1  0  0  0  0
 20 22  1  0  0  0  0
 20 23  1  0  0  0  0
 17 18  1  0  0  0  0
 17 19  1  0  0  0  0
 17 20  1  0  0  0  0
 14 15  1  0  0  0  0
 14 16  1  0  0  0  0
 14 17  1  0  0  0  0
 11 12  1  0  0  0  0
 11 13  1  0  0  0  0
 11 14  1  0  0  0  0
  9 10  1  0  0  0  0
  9 11  1  0  0  0  0
  9 26  1  0  0  0  0
  7  8  1  0  0  0  0
  7  9  1  0  0  0  0
 30 31  1  0  0  0  0
 30 32  1  0  0  0  0
 30 33  1  0  0  0  0
 28 29  1  0  0  0  0
 28 30  1  0  0  0  0
M  END
$$$$
default_name
  -OEChem-01062215323D

 33 32  0     1  0  0  0  0  0999 V2000
   -3.8420   -3.6918    1.5562 H   0  0  0  0  0  0  0  0  0  0  0  0
   -3.8430   -2.7008    1.1032 C   0  0  0  0  0  0  0  0  0  0  0  0
   -4.5510   -2.0608    1.6242 H   0  0  0  0  0  0  0  0  0  0  0  0
   -4.1140   -2.7798    0.0522 H   0  0  0  0  0  0  0  0  0  0  0  0
   -2.4570   -2.1098    1.2172 C   0  0  0  0  0  0  0  0  0  0  0  0
   -1.5600   -2.7438    1.7572 O   0  0  0  0  0  0  0  0  0  0  0  0
   -2.2870   -0.8898    0.7102 N   0  0  0  0  0  0  0  0  0  0  0  0
   -3.0820   -0.4218    0.2992 H   0  0  0  0  0  0  0  0  0  0  0  0
   -1.0240   -0.1468    0.7262 C   0  0  1  0  0  0  0  0  0  0  0  0
   -0.4578   -0.4059   -0.1695 H   0  0  0  0  0  0  0  0  0  0  0  0
   -1.3369    1.3618    0.6928 C   0  0  0  0  0  0  0  0  0  0  0  0
   -2.0475    1.5866    1.4909 H   0  0  0  0  0  0  0  0  0  0  0  0
   -0.4214    1.9234    0.8838 H   0  0  0  0  0  0  0  0  0  0  0  0
   -1.9480    1.8268   -0.6383 C   0  0  0  0  0  0  0  0  0  0  0  0
   -1.2616    1.6010   -1.4548 H   0  0  0  0  0  0  0  0  0  0  0  0
   -2.8884    1.2986   -0.8055 H   0  0  0  0  0  0  0  0  0  0  0  0
   -2.2140    3.3363   -0.6207 C   0  0  0  0  0  0  0  0  0  0  0  0
   -2.8937    3.5792    0.1966 H   0  0  0  0  0  0  0  0  0  0  0  0
   -1.2737    3.8696   -0.4777 H   0  0  0  0  0  0  0  0  0  0  0  0
   -2.8432    3.7673   -1.9441 C   0  0  0  0  0  0  0  0  0  0  0  0
   -2.1582    3.5426   -2.7602 H   0  0  0  0  0  0  0  0  0  0  0  0
   -3.7735    3.2227   -2.0971 H   0  0  0  0  0  0  0  0  0  0  0  0
   -3.1332    5.2057   -1.9522 N   0  0  0  0  0  0  0  0  0  0  0  0
   -3.5339    5.4573   -2.8439 H   0  0  0  0  0  0  0  0  0  0  0  0
   -3.7934    5.4148   -1.2168 H   0  0  0  0  0  0  0  0  0  0  0  0
   -0.1919   -0.5422    1.9571 C   0  0  0  0  0  0  0  0  0  0  0  0
    0.7663    0.1468    2.3008 O   0  0  0  0  0  0  0  0  0  0  0  0
   -0.5539   -1.6536    2.6085 N   0  0  0  0  0  0  0  0  0  0  0  0
   -1.3598   -2.1554    2.2733 H   0  0  0  0  0  0  0  0  0  0  0  0
    0.1415   -2.1732    3.7850 C   0  0  0  0  0  0  0  0  0  0  0  0
    0.1940   -1.3996    4.5542 H   0  0  0  0  0  0  0  0  0  0  0  0
   -0.3839   -3.0422    4.1836 H   0  0  0  0  0  0  0  0  0  0  0  0
    1.1594   -2.4598    3.5128 H   0  0  0  0  0  0  0  0  0  0  0  0
  5  6  2  0  0  0  0
  5  7  1  0  0  0  0
  2  3  1  0  0  0  0
  2  4  1  0  0  0  0
  2  5  1  0  0  0  0
  1  2  1  0  0  0  0
 26 27  2  0  0  0  0
 26 28  1  0  0  0  0
 23 24  1  0  0  0  0
 23 25  1  0  0  0  0
 20 21  1  0  0  0  0
 20 22  1  0  0  0  0
 20 23  1  0  0  0  0
 17 18  1  0  0  0  0
 17 19  1  0  0  0  0
 17 20  1  0  0  0  0
 14 15  1  0  0  0  0
 14 16  1  0  0  0  0
 14 17  1  0  0  0  0
 11 12  1  0  0  0  0
 11 13  1  0  0  0  0
 11 14  1  0  0  0  0
  9 10  1  0  0  0  0
  9 11  1  0  0  0  0
  9 26  1  0  0  0  0
  7  8  1  0  0  0  0
  7  9  1  0  0  0  0
 30 31  1  0  0  0  0
 30 32  1  0  0  0  0
 30 33  1  0  0  0  0
 28 29  1  0  0  0  0
 28 30  1  0  0  0  0
M  END
$$$$
default_name
  -OEChem-01062215323D

 33 32  0     1  0  0  0  0  0999 V2000
   -3.8420   -3.6918    1.5562 H   0  0  0  0  0  0  0  0  0  0  0  0
   -3.8430   -2.7008    1.1032 C   0  0  0  0  0  0  0  0  0  0  0  0
   -4.5510   -2.0608    1.6242 H   0  0  0  0  0  0  0  0  0  0  0  0
   -4.1140   -2.7798    0.0522 H   0  0  0  0  0  0  0  0  0  0  0  0
   -2.4570   -2.1098    1.2172 C   0  0  0  0  0  0  0  0  0  0  0  0
   -1.5600   -2.7438    1.7572 O   0  0  0  0  0  0  0  0  0  0  0  0
   -2.2870   -0.8898    0.7102 N   0  0  0  0  0  0  0  0  0  0  0  0
   -3.0820   -0.4218    0.2992 H   0  0  0  0  0  0  0  0  0  0  0  0
   -1.0240   -0.1468    0.7262 C   0  0  1  0  0  0  0  0  0  0  0  0
   -0.4578   -0.4059   -0.1695 H   0  0  0  0  0  0  0  0  0  0  0  0
   -1.3369    1.3618    0.6928 C   0  0  0  0  0  0  0  0  0  0  0  0
   -2.0475    1.5866    1.4909 H   0  0  0  0  0  0  0  0  0  0  0  0
   -0.4214    1.9234    0.8838 H   0  0  0  0  0  0  0  0  0  0  0  0
   -1.9480    1.8268   -0.6383 C   0  0  0  0  0  0  0  0  0  0  0  0
   -1.2616    1.6010   -1.4548 H   0  0  0  0  0  0  0  0  0  0  0  0
   -2.8884    1.2986   -0.8055 H   0  0  0  0  0  0  0  0  0  0  0  0
   -2.2140    3.3363   -0.6207 C   0  0  0  0  0  0  0  0  0  0  0  0
   -2.8937    3.5792    0.1966 H   0  0  0  0  0  0  0  0  0  0  0  0
   -1.2737    3.8696   -0.4777 H   0  0  0  0  0  0  0  0  0  0  0  0
   -2.8432    3.7673   -1.9441 C   0  0  0  0  0  0  0  0  0  0  0  0
   -2.1582    3.5426   -2.7602 H   0  0  0  0  0  0  0  0  0  0  0  0
   -3.7735    3.2227   -2.0971 H   0  0  0  0  0  0  0  0  0  0  0  0
   -3.1332    5.2057   -1.9522 N   0  0  0  0  0  0  0  0  0  0  0  0
   -3.5339    5.4573   -2.8439 H   0  0  0  0  0  0  0  0  0  0  0  0
   -3.7934    5.4148   -1.2168 H   0  0  0  0  0  0  0  0  0  0  0  0
   -0.1919   -0.5422    1.9571 C   0  0  0  0  0  0  0  0  0  0  0  0
    0.5794    0.2683    2.4662 O   0  0  0  0  0  0  0  0  0  0  0  0
   -0.3434   -1.7873    2.4232 N   0  0  0  0  0  0  0  0  0  0  0  0
   -1.0061   -2.3871    1.9598 H   0  0  0  0  0  0  0  0  0  0  0  0
    0.3845   -2.3226    3.5727 C   0  0  0  0  0  0  0  0  0  0  0  0
    0.2319   -1.6762    4.4397 H   0  0  0  0  0  0  0  0  0  0  0  0
    0.0352   -3.3290    3.8080 H   0  0  0  0  0  0  0  0  0  0  0  0
    1.4527   -2.3541    3.3485 H   0  0  0  0  0  0  0  0  0  0  0  0
  5  6  2  0  0  0  0
  5  7  1  0  0  0  0
  2  3  1  0  0  0  0
  2  4  1  0  0  0  0
  2  5  1  0  0  0  0
  1  2  1  0  0  0  0
 26 27  2  0  0  0  0
 26 28  1  0  0  0  0
 23 24  1  0  0  0  0
 23 25  1  0  0  0  0
 20 21  1  0  0  0  0
 20 22  1  0  0  0  0
 20 23  1  0  0  0  0
 17 18  1  0  0  0  0
 17 19  1  0  0  0  0
 17 20  1  0  0  0  0
 14 15  1  0  0  0  0
 14 16  1  0  0  0  0
 14 17  1  0  0  0  0
 11 12  1  0  0  0  0
 11 13  1  0  0  0  0
 11 14  1  0  0  0  0
  9 10  1  0  0  0  0
  9 11  1  0  0  0  0
  9 26  1  0  0  0  0
  7  8  1  0  0  0  0
  7  9  1  0  0  0  0
 30 31  1  0  0  0  0
 30 32  1  0  0  0  0
 30 33  1  0  0  0  0
 28 29  1  0  0  0  0
 28 30  1  0  0  0  0
M  END
$$$$
default_name
  -OEChem-01062215323D

 33 32  0     1  0  0  0  0  0999 V2000
   -3.8420   -3.6918    1.5562 H   0  0  0  0  0  0  0  0  0  0  0  0
   -3.8430   -2.7008    1.1032 C   0  0  0  0  0  0  0  0  0  0  0  0
   -4.5510   -2.0608    1.6242 H   0  0  0  0  0  0  0  0  0  0  0  0
   -4.1140   -2.7798    0.0522 H   0  0  0  0  0  0  0  0  0  0  0  0
   -2.4570   -2.1098    1.2172 C   0  0  0  0  0  0  0  0  0  0  0  0
   -1.5600   -2.7438    1.7572 O   0  0  0  0  0  0  0  0  0  0  0  0
   -2.2870   -0.8898    0.7102 N   0  0  0  0  0  0  0  0  0  0  0  0
   -3.0820   -0.4218    0.2992 H   0  0  0  0  0  0  0  0  0  0  0  0
   -1.0240   -0.1468    0.7262 C   0  0  1  0  0  0  0  0  0  0  0  0
   -0.4578   -0.4059   -0.1695 H   0  0  0  0  0  0  0  0  0  0  0  0
   -1.3369    1.3618    0.6928 C   0  0  0  0  0  0  0  0  0  0  0  0
   -2.0475    1.5866    1.4909 H   0  0  0  0  0  0  0  0  0  0  0  0
   -0.4214    1.9234    0.8838 H   0  0  0  0  0  0  0  0  0  0  0  0
   -1.9480    1.8268   -0.6383 C   0  0  0  0  0  0  0  0  0  0  0  0
   -1.2616    1.6010   -1.4548 H   0  0  0  0  0  0  0  0  0  0  0  0
   -2.8884    1.2986   -0.8055 H   0  0  0  0  0  0  0  0  0  0  0  0
   -2.2140    3.3363   -0.6207 C   0  0  0  0  0  0  0  0  0  0  0  0
   -2.8937    3.5792    0.1966 H   0  0  0  0  0  0  0  0  0  0  0  0
   -1.2737    3.8696   -0.4777 H   0  0  0  0  0  0  0  0  0  0  0  0
   -2.8432    3.7673   -1.9441 C   0  0  0  0  0  0  0  0  0  0  0  0
   -2.1582    3.5426   -2.7602 H   0  0  0  0  0  0  0  0  0  0  0  0
   -3.7735    3.2227   -2.0971 H   0  0  0  0  0  0  0  0  0  0  0  0
   -3.1332    5.2057   -1.9522 N   0  0  0  0  0  0  0  0  0  0  0  0
   -3.5339    5.4573   -2.8439 H   0  0  0  0  0  0  0  0  0  0  0  0
   -3.7934    5.4148   -1.2168 H   0  0  0  0  0  0  0  0  0  0  0  0
   -0.1919   -0.5422    1.9571 C   0  0  0  0  0  0  0  0  0  0  0  0
    0.3626    0.3238    2.6305 O   0  0  0  0  0  0  0  0  0  0  0  0
   -0.1000   -1.8469    2.2395 N   0  0  0  0  0  0  0  0  0  0  0  0
   -0.5956   -2.4936    1.6481 H   0  0  0  0  0  0  0  0  0  0  0  0
    0.6643   -2.3869    3.3629 C   0  0  0  0  0  0  0  0  0  0  0  0
    0.3334   -1.9195    4.2929 H   0  0  0  0  0  0  0  0  0  0  0  0
    0.5245   -3.4666    3.4331 H   0  0  0  0  0  0  0  0  0  0  0  0
    1.7250   -2.1681    3.2242 H   0  0  0  0  0  0  0  0  0  0  0  0
  5  6  2  0  0  0  0
  5  7  1  0  0  0  0
  2  3  1  0  0  0  0
  2  4  1  0  0  0  0
  2  5  1  0  0  0  0
  1  2  1  0  0  0  0
 26 27  2  0  0  0  0
 26 28  1  0  0  0  0
 23 24  1  0  0  0  0
 23 25  1  0  0  0  0
 20 21  1  0  0  0  0
 20 22  1  0  0  0  0
 20 23  1  0  0  0  0
 17 18  1  0  0  0  0
 17 19  1  0  0  0  0
 17 20  1  0  0  0  0
 14 15  1  0  0  0  0
 14 16  1  0  0  0  0
 14 17  1  0  0  0  0
 11 12  1  0  0  0  0
 11 13  1  0  0  0  0
 11 14  1  0  0  0  0
  9 10  1  0  0  0  0
  9 11  1  0  0  0  0
  9 26  1  0  0  0  0
  7  8  1  0  0  0  0
  7  9  1  0  0  0  0
 30 31  1  0  0  0  0
 30 32  1  0  0  0  0
 30 33  1  0  0  0  0
 28 29  1  0  0  0  0
 28 30  1  0  0  0  0
M  END
$$$$
default_name
  -OEChem-01062215323D

 33 32  0     1  0  0  0  0  0999 V2000
   -3.8420   -3.6918    1.5562 H   0  0  0  0  0  0  0  0  0  0  0  0
   -3.8430   -2.7008    1.1032 C   0  0  0  0  0  0  0  0  0  0  0  0
   -4.5510   -2.0608    1.6242 H   0  0  0  0  0  0  0  0  0  0  0  0
   -4.1140   -2.7798    0.0522 H   0  0  0  0  0  0  0  0  0  0  0  0
   -2.4570   -2.1098    1.2172 C   0  0  0  0  0  0  0  0  0  0  0  0
   -1.5600   -2.7438    1.7572 O   0  0  0  0  0  0  0  0  0  0  0  0
   -2.2870   -0.8898    0.7102 N   0  0  0  0  0  0  0  0  0  0  0  0
   -3.0820   -0.4218    0.2992 H   0  0  0  0  0  0  0  0  0  0  0  0
   -1.0240   -0.1468    0.7262 C   0  0  1  0  0  0  0  0  0  0  0  0
   -0.4578   -0.4059   -0.1695 H   0  0  0  0  0  0  0  0  0  0  0  0
   -1.3369    1.3618    0.6928 C   0  0  0  0  0  0  0  0  0  0  0  0
   -2.0475    1.5866    1.4909 H   0  0  0  0  0  0  0  0  0  0  0  0
   -0.4214    1.9234    0.8838 H   0  0  0  0  0  0  0  0  0  0  0  0
   -1.9480    1.8268   -0.6383 C   0  0  0  0  0  0  0  0  0  0  0  0
   -1.2616    1.6010   -1.4548 H   0  0  0  0  0  0  0  0  0  0  0  0
   -2.8884    1.2986   -0.8055 H   0  0  0  0  0  0  0  0  0  0  0  0
   -2.2140    3.3363   -0.6207 C   0  0  0  0  0  0  0  0  0  0  0  0
   -2.8937    3.5792    0.1966 H   0  0  0  0  0  0  0  0  0  0  0  0
   -1.2737    3.8696   -0.4777 H   0  0  0  0  0  0  0  0  0  0  0  0
   -2.8432    3.7673   -1.9441 C   0  0  0  0  0  0  0  0  0  0  0  0
   -2.1582    3.5426   -2.7602 H   0  0  0  0  0  0  0  0  0  0  0  0
   -3.7735    3.2227   -2.0971 H   0  0  0  0  0  0  0  0  0  0  0  0
   -3.1332    5.2057   -1.9522 N   0  0  0  0  0  0  0  0  0  0  0  0
   -3.5339    5.4573   -2.8439 H   0  0  0  0  0  0  0  0  0  0  0  0
   -3.7934    5.4148   -1.2168 H   0  0  0  0  0  0  0  0  0  0  0  0
   -0.1919   -0.5422    1.9571 C   0  0  0  0  0  0  0  0  0  0  0  0
    0.1308    0.3094    2.7826 O   0  0  0  0  0  0  0  0  0  0  0  0
    0.1597   -1.8283    2.0699 N   0  0  0  0  0  0  0  0  0  0  0  0
   -0.1563   -2.4678    1.3594 H   0  0  0  0  0  0  0  0  0  0  0  0
    0.9618   -2.3617    3.1699 C   0  0  0  0  0  0  0  0  0  0  0  0
    0.4916   -2.1129    4.1238 H   0  0  0  0  0  0  0  0  0  0  0  0
    1.0506   -3.4456    3.0841 H   0  0  0  0  0  0  0  0  0  0  0  0
    1.9578   -1.9146    3.1483 H   0  0  0  0  0  0  0  0  0  0  0  0
  5  6  2  0  0  0  0
  5  7  1  0  0  0  0
  2  3  1  0  0  0  0
  2  4  1  0  0  0  0
  2  5  1  0  0  0  0
  1  2  1  0  0  0  0
 26 27  2  0  0  0  0
 26 28  1  0  0  0  0
 23 24  1  0  0  0  0
 23 25  1  0  0  0  0
 20 21  1  0  0  0  0
 20 22  1  0  0  0  0
 20 23  1  0  0  0  0
 17 18  1  0  0  0  0
 17 19  1  0  0  0  0
 17 20  1  0  0  0  0
 14 15  1  0  0  0  0
 14 16  1  0  0  0  0
 14 17  1  0  0  0  0
 11 12  1  0  0  0  0
 11 13  1  0  0  0  0
 11 14  1  0  0  0  0
  9 10  1  0  0  0  0
  9 11  1  0  0  0  0
  9 26  1  0  0  0  0
  7  8  1  0  0  0  0
  7  9  1  0  0  0  0
 30 31  1  0  0  0  0
 30 32  1  0  0  0  0
 30 33  1  0  0  0  0
 28 29  1  0  0  0  0
 28 30  1  0  0  0  0
M  END
$$$$
default_name
  -OEChem-01062215323D

 33 32  0     1  0  0  0  0  0999 V2000
   -3.8420   -3.6918    1.5562 H   0  0  0  0  0  0  0  0  0  0  0  0
   -3.8430   -2.7008    1.1032 C   0  0  0  0  0  0  0  0  0  0  0  0
   -4.5510   -2.0608    1.6242 H   0  0  0  0  0  0  0  0  0  0  0  0
   -4.1140   -2.7798    0.0522 H   0  0  0  0  0  0  0  0  0  0  0  0
   -2.4570   -2.1098    1.2172 C   0  0  0  0  0  0  0  0  0  0  0  0
   -1.5600   -2.7438    1.7572 O   0  0  0  0  0  0  0  0  0  0  0  0
   -2.2870   -0.8898    0.7102 N   0  0  0  0  0  0  0  0  0  0  0  0
   -3.0820   -0.4218    0.2992 H   0  0  0  0  0  0  0  0  0  0  0  0
   -1.0240   -0.1468    0.7262 C   0  0  1  0  0  0  0  0  0  0  0  0
   -0.4578   -0.4059   -0.1695 H   0  0  0  0  0  0  0  0  0  0  0  0
   -1.3369    1.3618    0.6928 C   0  0  0  0  0  0  0  0  0  0  0  0
   -2.0475    1.5866    1.4909 H   0  0  0  0  0  0  0  0  0  0  0  0
   -0.4214    1.9234    0.8838 H   0  0  0  0  0  0  0  0  0  0  0  0
   -1.9480    1.8268   -0.6383 C   0  0  0  0  0  0  0  0  0  0  0  0
   -1.2616    1.6010   -1.4548 H   0  0  0  0  0  0  0  0  0  0  0  0
   -2.8884    1.2986   -0.8055 H   0  0  0  0  0  0  0  0  0  0  0  0
   -2.2140    3.3363   -0.6207 C   0  0  0  0  0  0  0  0  0  0  0  0
   -2.8937    3.5792    0.1966 H   0  0  0  0  0  0  0  0  0  0  0  0
   -1.2737    3.8696   -0.4777 H   0  0  0  0  0  0  0  0  0  0  0  0
   -2.8432    3.7673   -1.9441 C   0  0  0  0  0  0  0  0  0  0  0  0
   -2.1582    3.5426   -2.7602 H   0  0  0  0  0  0  0  0  0  0  0  0
   -3.7735    3.2227   -2.0971 H   0  0  0  0  0  0  0  0  0  0  0  0
   -3.1332    5.2057   -1.9522 N   0  0  0  0  0  0  0  0  0  0  0  0
   -3.5339    5.4573   -2.8439 H   0  0  0  0  0  0  0  0  0  0  0  0
   -3.7934    5.4148   -1.2168 H   0  0  0  0  0  0  0  0  0  0  0  0
   -0.1919   -0.5422    1.9571 C   0  0  0  0  0  0  0  0  0  0  0  0
   -0.1002    0.2263    2.9121 O   0  0  0  0  0  0  0  0  0  0  0  0
    0.4180   -1.7328    1.9260 N   0  0  0  0  0  0  0  0  0  0  0  0
    0.2819   -2.3114    1.1134 H   0  0  0  0  0  0  0  0  0  0  0  0
    1.2568   -2.2486    3.0068 C   0  0  0  0  0  0  0  0  0  0  0  0
    0.6958   -2.2432    3.9439 H   0  0  0  0  0  0  0  0  0  0  0  0
    1.5777   -3.2675    2.7851 H   0  0  0  0  0  0  0  0  0  0  0  0
    2.1352   -1.6109    3.1259 H   0  0  0  0  0  0  0  0  0  0  0  0
  5  6  2  0  0  0  0
  5  7  1  0  0  0  0
  2  3  1  0  0  0  0
  2  4  1  0  0  0  0
  2  5  1  0  0  0  0
  1  2  1  0  0  0  0
 26 27  2  0  0  0  0
 26 28  1  0  0  0  0
 23 24  1  0  0  0  0
 23 25  1  0  0  0  0
 20 21  1  0  0  0  0
 20 22  1  0  0  0  0
 20 23  1  0  0  0  0
 17 18  1  0  0  0  0
 17 19  1  0  0  0  0
 17 20  1  0  0  0  0
 14 15  1  0  0  0  0
 14 16  1  0  0  0  0
 14 17  1  0  0  0  0
 11 12  1  0  0  0  0
 11 13  1  0  0  0  0
 11 14  1  0  0  0  0
  9 10  1  0  0  0  0
  9 11  1  0  0  0  0
  9 26  1  0  0  0  0
  7  8  1  0  0  0  0
  7  9  1  0  0  0  0
 30 31  1  0  0  0  0
 30 32  1  0  0  0  0
 30 33  1  0  0  0  0
 28 29  1  0  0  0  0
 28 30  1  0  0  0  0
M  END
$$$$
default_name
  -OEChem-01062215323D

 33 32  0     1  0  0  0  0  0999 V2000
   -3.8420   -3.6918    1.5562 H   0  0  0  0  0  0  0  0  0  0  0  0
   -3.8430   -2.7008    1.1032 C   0  0  0  0  0  0  0  0  0  0  0  0
   -4.5510   -2.0608    1.6242 H   0  0  0  0  0  0  0  0  0  0  0  0
   -4.1140   -2.7798    0.0522 H   0  0  0  0  0  0  0  0  0  0  0  0
   -2.4570   -2.1098    1.2172 C   0  0  0  0  0  0  0  0  0  0  0  0
   -1.5600   -2.7438    1.7572 O   0  0  0  0  0  0  0  0  0  0  0  0
   -2.2870   -0.8898    0.7102 N   0  0  0  0  0  0  0  0  0  0  0  0
   -3.0820   -0.4218    0.2992 H   0  0  0  0  0  0  0  0  0  0  0  0
   -1.0240   -0.1468    0.7262 C   0  0  1  0  0  0  0  0  0  0  0  0
   -0.4578   -0.4059   -0.1695 H   0  0  0  0  0  0  0  0  0  0  0  0
   -1.3369    1.3618    0.6928 C   0  0  0  0  0  0  0  0  0  0  0  0
   -2.0475    1.5866    1.4909 H   0  0  0  0  0  0  0  0  0  0  0  0
   -0.4214    1.9234    0.8838 H   0  0  0  0  0  0  0  0  0  0  0  0
   -1.9480    1.8268   -0.6383 C   0  0  0  0  0  0  0  0  0  0  0  0
   -1.2616    1.6010   -1.4548 H   0  0  0  0  0  0  0  0  0  0  0  0
   -2.8884    1.2986   -0.8055 H   0  0  0  0  0  0  0  0  0  0  0  0
   -2.2140    3.3363   -0.6207 C   0  0  0  0  0  0  0  0  0  0  0  0
   -2.8937    3.5792    0.1966 H   0  0  0  0  0  0  0  0  0  0  0  0
   -1.2737    3.8696   -0.4777 H   0  0  0  0  0  0  0  0  0  0  0  0
   -2.8432    3.7673   -1.9441 C   0  0  0  0  0  0  0  0  0  0  0  0
   -2.1582    3.5426   -2.7602 H   0  0  0  0  0  0  0  0  0  0  0  0
   -3.7735    3.2227   -2.0971 H   0  0  0  0  0  0  0  0  0  0  0  0
   -3.1332    5.2057   -1.9522 N   0  0  0  0  0  0  0  0  0  0  0  0
   -3.5339    5.4573   -2.8439 H   0  0  0  0  0  0  0  0  0  0  0  0
   -3.7934    5.4148   -1.2168 H   0  0  0  0  0  0  0  0  0  0  0  0
   -0.1919   -0.5422    1.9571 C   0  0  0  0  0  0  0  0  0  0  0  0
   -0.3148    0.0799    3.0101 O   0  0  0  0  0  0  0  0  0  0  0  0
    0.6573   -1.5669    1.8175 N   0  0  0  0  0  0  0  0  0  0  0  0
    0.6892   -2.0351    0.9268 H   0  0  0  0  0  0  0  0  0  0  0  0
    1.5292   -2.0554    2.8847 C   0  0  0  0  0  0  0  0  0  0  0  0
    0.9320   -2.3016    3.7655 H   0  0  0  0  0  0  0  0  0  0  0  0
    2.0698   -2.9442    2.5563 H   0  0  0  0  0  0  0  0  0  0  0  0
    2.2451   -1.2777    3.1587 H   0  0  0  0  0  0  0  0  0  0  0  0
  5  6  2  0  0  0  0
  5  7  1  0  0  0  0
  2  3  1  0  0  0  0
  2  4  1  0  0  0  0
  2  5  1  0  0  0  0
  1  2  1  0  0  0  0
 26 27  2  0  0  0  0
 26 28  1  0  0  0  0
 23 24  1  0  0  0  0
 23 25  1  0  0  0  0
 20 21  1  0  0  0  0
 20 22  1  0  0  0  0
 20 23  1  0  0  0  0
 17 18  1  0  0  0  0
 17 19  1  0  0  0  0
 17 20  1  0  0  0  0
 14 15  1  0  0  0  0
 14 16  1  0  0  0  0
 14 17  1  0  0  0  0
 11 12  1  0  0  0  0
 11 13  1  0  0  0  0
 11 14  1  0  0  0  0
  9 10  1  0  0  0  0
  9 11  1  0  0  0  0
  9 26  1  0  0  0  0
  7  8  1  0  0  0  0
  7  9  1  0  0  0  0
 30 31  1  0  0  0  0
 30 32  1  0  0  0  0
 30 33  1  0  0  0  0
 28 29  1  0  0  0  0
 28 30  1  0  0  0  0
M  END
$$$$
default_name
  -OEChem-01062215323D

 33 32  0     1  0  0  0  0  0999 V2000
   -3.8420   -3.6918    1.5562 H   0  0  0  0  0  0  0  0  0  0  0  0
   -3.8430   -2.7008    1.1032 C   0  0  0  0  0  0  0  0  0  0  0  0
   -4.5510   -2.0608    1.6242 H   0  0  0  0  0  0  0  0  0  0  0  0
   -4.1140   -2.7798    0.0522 H   0  0  0  0  0  0  0  0  0  0  0  0
   -2.4570   -2.1098    1.2172 C   0  0  0  0  0  0  0  0  0  0  0  0
   -1.5600   -2.7438    1.7572 O   0  0  0  0  0  0  0  0  0  0  0  0
   -2.2870   -0.8898    0.7102 N   0  0  0  0  0  0  0  0  0  0  0  0
   -3.0820   -0.4218    0.2992 H   0  0  0  0  0  0  0  0  0  0  0  0
   -1.0240   -0.1468    0.7262 C   0  0  1  0  0  0  0  0  0  0  0  0
   -0.4578   -0.4059   -0.1695 H   0  0  0  0  0  0  0  0  0  0  0  0
   -1.3369    1.3618    0.6928 C   0  0  0  0  0  0  0  0  0  0  0  0
   -2.0475    1.5866    1.4909 H   0  0  0  0  0  0  0  0  0  0  0  0
   -0.4214    1.9234    0.8838 H   0  0  0  0  0  0  0  0  0  0  0  0
   -1.9480    1.8268   -0.6383 C   0  0  0  0  0  0  0  0  0  0  0  0
   -1.2616    1.6010   -1.4548 H   0  0  0  0  0  0  0  0  0  0  0  0
   -2.8884    1.2986   -0.8055 H   0  0  0  0  0  0  0  0  0  0  0  0
   -2.2140    3.3363   -0.6207 C   0  0  0  0  0  0  0  0  0  0  0  0
   -2.8937    3.5792    0.1966 H   0  0  0  0  0  0  0  0  0  0  0  0
   -1.2737    3.8696   -0.4777 H   0  0  0  0  0  0  0  0  0  0  0  0
   -2.8432    3.7673   -1.9441 C   0  0  0  0  0  0  0  0  0  0  0  0
   -2.1582    3.5426   -2.7602 H   0  0  0  0  0  0  0  0  0  0  0  0
   -3.7735    3.2227   -2.0971 H   0  0  0  0  0  0  0  0  0  0  0  0
   -3.1332    5.2057   -1.9522 N   0  0  0  0  0  0  0  0  0  0  0  0
   -3.5339    5.4573   -2.8439 H   0  0  0  0  0  0  0  0  0  0  0  0
   -3.7934    5.4148   -1.2168 H   0  0  0  0  0  0  0  0  0  0  0  0
   -0.1919   -0.5422    1.9571 C   0  0  0  0  0  0  0  0  0  0  0  0
   -0.4982   -0.1197    3.0700 O   0  0  0  0  0  0  0  0  0  0  0  0
    0.8612   -1.3418    1.7520 N   0  0  0  0  0  0  0  0  0  0  0  0
    1.0378   -1.6576    0.8124 H   0  0  0  0  0  0  0  0  0  0  0  0
    1.7604   -1.7952    2.8120 C   0  0  0  0  0  0  0  0  0  0  0  0
    1.1842   -2.2841    3.6006 H   0  0  0  0  0  0  0  0  0  0  0  0
    2.4934   -2.4980    2.4133 H   0  0  0  0  0  0  0  0  0  0  0  0
    2.2800   -0.9377    3.2443 H   0  0  0  0  0  0  0  0  0  0  0  0
  5  6  2  0  0  0  0
  5  7  1  0  0  0  0
  2  3  1  0  0  0  0
  2  4  1  0  0  0  0
  2  5  1  0  0  0  0
  1  2  1  0  0  0  0
 26 27  2  0  0  0  0
 26 28  1  0  0  0  0
 23 24  1  0  0  0  0
 23 25  1  0  0  0  0
 20 21  1  0  0  0  0
 20 22  1  0  0  0  0
 20 23  1  0  0  0  0
 17 18  1  0  0  0  0
 17 19  1  0  0  0  0
 17 20  1  0  0  0  0
 14 15  1  0  0  0  0
 14 16  1  0  0  0  0
 14 17  1  0  0  0  0
 11 12  1  0  0  0  0
 11 13  1  0  0  0  0
 11 14  1  0  0  0  0
  9 10  1  0  0  0  0
  9 11  1  0  0  0  0
  9 26  1  0  0  0  0
  7  8  1  0  0  0  0
  7  9  1  0  0  0  0
 30 31  1  0  0  0  0
 30 32  1  0  0  0  0
 30 33  1  0  0  0  0
 28 29  1  0  0  0  0
 28 30  1  0  0  0  0
M  END
$$$$
default_name
  -OEChem-01062215323D

 33 32  0     1  0  0  0  0  0999 V2000
   -3.8420   -3.6918    1.5562 H   0  0  0  0  0  0  0  0  0  0  0  0
   -3.8430   -2.7008    1.1032 C   0  0  0  0  0  0  0  0  0  0  0  0
   -4.5510   -2.0608    1.6242 H   0  0  0  0  0  0  0  0  0  0  0  0
   -4.1140   -2.7798    0.0522 H   0  0  0  0  0  0  0  0  0  0  0  0
   -2.4570   -2.1098    1.2172 C   0  0  0  0  0  0  0  0  0  0  0  0
   -1.5600   -2.7438    1.7572 O   0  0  0  0  0  0  0  0  0  0  0  0
   -2.2870   -0.8898    0.7102 N   0  0  0  0  0  0  0  0  0  0  0  0
   -3.0820   -0.4218    0.2992 H   0  0  0  0  0  0  0  0  0  0  0  0
   -1.0240   -0.1468    0.7262 C   0  0  1  0  0  0  0  0  0  0  0  0
   -0.4578   -0.4059   -0.1695 H   0  0  0  0  0  0  0  0  0  0  0  0
   -1.3369    1.3618    0.6928 C   0  0  0  0  0  0  0  0  0  0  0  0
   -2.0475    1.5866    1.4909 H   0  0  0  0  0  0  0  0  0  0  0  0
   -0.4214    1.9234    0.8838 H   0  0  0  0  0  0  0  0  0  0  0  0
   -1.9480    1.8268   -0.6383 C   0  0  0  0  0  0  0  0  0  0  0  0
   -1.2616    1.6010   -1.4548 H   0  0  0  0  0  0  0  0  0  0  0  0
   -2.8884    1.2986   -0.8055 H   0  0  0  0  0  0  0  0  0  0  0  0
   -2.2140    3.3363   -0.6207 C   0  0  0  0  0  0  0  0  0  0  0  0
   -2.8937    3.5792    0.1966 H   0  0  0  0  0  0  0  0  0  0  0  0
   -1.2737    3.8696   -0.4777 H   0  0  0  0  0  0  0  0  0  0  0  0
   -2.8432    3.7673   -1.9441 C   0  0  0  0  0  0  0  0  0  0  0  0
   -2.1582    3.5426   -2.7602 H   0  0  0  0  0  0  0  0  0  0  0  0
   -3.7735    3.2227   -2.0971 H   0  0  0  0  0  0  0  0  0  0  0  0
   -3.1332    5.2057   -1.9522 N   0  0  0  0  0  0  0  0  0  0  0  0
   -3.5339    5.4573   -2.8439 H   0  0  0  0  0  0  0  0  0  0  0  0
   -3.7934    5.4148   -1.2168 H   0  0  0  0  0  0  0  0  0  0  0  0
   -0.1919   -0.5422    1.9571 C   0  0  0  0  0  0  0  0  0  0  0  0
   -0.6381   -0.3588    3.0877 O   0  0  0  0  0  0  0  0  0  0  0  0
    1.0159   -1.0730    1.7337 N   0  0  0  0  0  0  0  0  0  0  0  0
    1.3039   -1.2048    0.7780 H   0  0  0  0  0  0  0  0  0  0  0  0
    1.9346   -1.4859    2.7936 C   0  0  0  0  0  0  0  0  0  0  0  0
    1.4351   -2.1918    3.4607 H   0  0  0  0  0  0  0  0  0  0  0  0
    2.8196   -1.9592    2.3659 H   0  0  0  0  0  0  0  0  0  0  0  0
    2.2376   -0.6139    3.3770 H   0  0  0  0  0  0  0  0  0  0  0  0
  5  6  2  0  0  0  0
  5  7  1  0  0  0  0
  2  3  1  0  0  0  0
  2  4  1  0  0  0  0
  2  5  1  0  0  0  0
  1  2  1  0  0  0  0
 26 27  2  0  0  0  0
 26 28  1  0  0  0  0
 23 24  1  0  0  0  0
 23 25  1  0  0  0  0
 20 21  1  0  0  0  0
 20 22  1  0  0  0  0
 20 23  1  0  0  0  0
 17 18  1  0  0  0  0
 17 19  1  0  0  0  0
 17 20  1  0  0  0  0
 14 15  1  0  0  0  0
 14 16  1  0  0  0  0
 14 17  1  0  0  0  0
 11 12  1  0  0  0  0
 11 13  1  0  0  0  0
 11 14  1  0  0  0  0
  9 10  1  0  0  0  0
  9 11  1  0  0  0  0
  9 26  1  0  0  0  0
  7  8  1  0  0  0  0
  7  9  1  0  0  0  0
 30 31  1  0  0  0  0
 30 32  1  0  0  0  0
 30 33  1  0  0  0  0
 28 29  1  0  0  0  0
 28 30  1  0  0  0  0
M  END
$$$$
default_name
  -OEChem-01062215323D

 33 32  0     1  0  0  0  0  0999 V2000
   -3.8420   -3.6918    1.5562 H   0  0  0  0  0  0  0  0  0  0  0  0
   -3.8430   -2.7008    1.1032 C   0  0  0  0  0  0  0  0  0  0  0  0
   -4.5510   -2.0608    1.6242 H   0  0  0  0  0  0  0  0  0  0  0  0
   -4.1140   -2.7798    0.0522 H   0  0  0  0  0  0  0  0  0  0  0  0
   -2.4570   -2.1098    1.2172 C   0  0  0  0  0  0  0  0  0  0  0  0
   -1.5600   -2.7438    1.7572 O   0  0  0  0  0  0  0  0  0  0  0  0
   -2.2870   -0.8898    0.7102 N   0  0  0  0  0  0  0  0  0  0  0  0
   -3.0820   -0.4218    0.2992 H   0  0  0  0  0  0  0  0  0  0  0  0
   -1.0240   -0.1468    0.7262 C   0  0  1  0  0  0  0  0  0  0  0  0
   -0.4578   -0.4059   -0.1695 H   0  0  0  0  0  0  0  0  0  0  0  0
   -1.3369    1.3618    0.6928 C   0  0  0  0  0  0  0  0  0  0  0  0
   -2.0475    1.5866    1.4909 H   0  0  0  0  0  0  0  0  0  0  0  0
   -0.4214    1.9234    0.8838 H   0  0  0  0  0  0  0  0  0  0  0  0
   -1.9480    1.8268   -0.6383 C   0  0  0  0  0  0  0  0  0  0  0  0
   -1.2616    1.6010   -1.4548 H   0  0  0  0  0  0  0  0  0  0  0  0
   -2.8884    1.2986   -0.8055 H   0  0  0  0  0  0  0  0  0  0  0  0
   -2.2140    3.3363   -0.6207 C   0  0  0  0  0  0  0  0  0  0  0  0
   -2.8937    3.5792    0.1966 H   0  0  0  0  0  0  0  0  0  0  0  0
   -1.2737    3.8696   -0.4777 H   0  0  0  0  0  0  0  0  0  0  0  0
   -2.8432    3.7673   -1.9441 C   0  0  0  0  0  0  0  0  0  0  0  0
   -2.1582    3.5426   -2.7602 H   0  0  0  0  0  0  0  0  0  0  0  0
   -3.7735    3.2227   -2.0971 H   0  0  0  0  0  0  0  0  0  0  0  0
   -3.1332    5.2057   -1.9522 N   0  0  0  0  0  0  0  0  0  0  0  0
   -3.5339    5.4573   -2.8439 H   0  0  0  0  0  0  0  0  0  0  0  0
   -3.7934    5.4148   -1.2168 H   0  0  0  0  0  0  0  0  0  0  0  0
   -0.1919   -0.5422    1.9571 C   0  0  0  0  0  0  0  0  0  0  0  0
   -0.7247   -0.6213    3.0620 O   0  0  0  0  0  0  0  0  0  0  0  0
    1.1109   -0.7787    1.7641 N   0  0  0  0  0  0  0  0  0  0  0  0
    1.4693   -0.7075    0.8260 H   0  0  0  0  0  0  0  0  0  0  0  0
    2.0401   -1.1483    2.8308 C   0  0  0  0  0  0  0  0  0  0  0  0
    1.6676   -2.0311    3.3551 H   0  0  0  0  0  0  0  0  0  0  0  0
    3.0262   -1.3646    2.4172 H   0  0  0  0  0  0  0  0  0  0  0  0
    2.1207   -0.3286    3.5477 H   0  0  0  0  0  0  0  0  0  0  0  0
  5  6  2  0  0  0  0
  5  7  1  0  0  0  0
  2  3  1  0  0  0  0
  2  4  1  0  0  0  0
  2  5  1  0  0  0  0
  1  2  1  0  0  0  0
 26 27  2  0  0  0  0
 26 28  1  0  0  0  0
 23 24  1  0  0  0  0
 23 25  1  0  0  0  0
 20 21  1  0  0  0  0
 20 22  1  0  0  0  0
 20 23  1  0  0  0  0
 17 18  1  0  0  0  0
 17 19  1  0  0  0  0
 17 20  1  0  0  0  0
 14 15  1  0  0  0  0
 14 16  1  0  0  0  0
 14 17  1  0  0  0  0
 11 12  1  0  0  0  0
 11 13  1  0  0  0  0
 11 14  1  0  0  0  0
  9 10  1  0  0  0  0
  9 11  1  0  0  0  0
  9 26  1  0  0  0  0
  7  8  1  0  0  0  0
  7  9  1  0  0  0  0
 30 31  1  0  0  0  0
 30 32  1  0  0  0  0
 30 33  1  0  0  0  0
 28 29  1  0  0  0  0
 28 30  1  0  0  0  0
M  END
$$$$
default_name
  -OEChem-01062215323D

 33 32  0     1  0  0  0  0  0999 V2000
   -3.8420   -3.6918    1.5562 H   0  0  0  0  0  0  0  0  0  0  0  0
   -3.8430   -2.7008    1.1032 C   0  0  0  0  0  0  0  0  0  0  0  0
   -4.5510   -2.0608    1.6242 H   0  0  0  0  0  0  0  0  0  0  0  0
   -4.1140   -2.7798    0.0522 H   0  0  0  0  0  0  0  0  0  0  0  0
   -2.4570   -2.1098    1.2172 C   0  0  0  0  0  0  0  0  0  0  0  0
   -1.5600   -2.7438    1.7572 O   0  0  0  0  0  0  0  0  0  0  0  0
   -2.2870   -0.8898    0.7102 N   0  0  0  0  0  0  0  0  0  0  0  0
   -3.0820   -0.4218    0.2992 H   0  0  0  0  0  0  0  0  0  0  0  0
   -1.0240   -0.1468    0.7262 C   0  0  1  0  0  0  0  0  0  0  0  0
   -0.4578   -0.4059   -0.1695 H   0  0  0  0  0  0  0  0  0  0  0  0
   -1.3369    1.3618    0.6928 C   0  0  0  0  0  0  0  0  0  0  0  0
   -2.0475    1.5866    1.4909 H   0  0  0  0  0  0  0  0  0  0  0  0
   -0.4214    1.9234    0.8838 H   0  0  0  0  0  0  0  0  0  0  0  0
   -1.9480    1.8268   -0.6383 C   0  0  0  0  0  0  0  0  0  0  0  0
   -1.2616    1.6010   -1.4548 H   0  0  0  0  0  0  0  0  0  0  0  0
   -2.8884    1.2986   -0.8055 H   0  0  0  0  0  0  0  0  0  0  0  0
   -2.2140    3.3363   -0.6207 C   0  0  0  0  0  0  0  0  0  0  0  0
   -2.8937    3.5792    0.1966 H   0  0  0  0  0  0  0  0  0  0  0  0
   -1.2737    3.8696   -0.4777 H   0  0  0  0  0  0  0  0  0  0  0  0
   -2.8432    3.7673   -1.9441 C   0  0  0  0  0  0  0  0  0  0  0  0
   -2.1582    3.5426   -2.7602 H   0  0  0  0  0  0  0  0  0  0  0  0
   -3.7735    3.2227   -2.0971 H   0  0  0  0  0  0  0  0  0  0  0  0
   -3.1332    5.2057   -1.9522 N   0  0  0  0  0  0  0  0  0  0  0  0
   -3.5339    5.4573   -2.8439 H   0  0  0  0  0  0  0  0  0  0  0  0
   -3.7934    5.4148   -1.2168 H   0  0  0  0  0  0  0  0  0  0  0  0
   -0.1919   -0.5422    1.9571 C   0  0  0  0  0  0  0  0  0  0  0  0
   -0.7524   -0.8892    2.9946 O   0  0  0  0  0  0  0  0  0  0  0  0
    1.1396   -0.4790    1.8409 N   0  0  0  0  0  0  0  0  0  0  0  0
    1.5229   -0.1995    0.9529 H   0  0  0  0  0  0  0  0  0  0  0  0
    2.0695   -0.8057    2.9210 C   0  0  0  0  0  0  0  0  0  0  0  0
    1.8659   -1.8129    3.2912 H   0  0  0  0  0  0  0  0  0  0  0  0
    3.0991   -0.7545    2.5639 H   0  0  0  0  0  0  0  0  0  0  0  0
    1.9373   -0.1012    3.7448 H   0  0  0  0  0  0  0  0  0  0  0  0
  5  6  2  0  0  0  0
  5  7  1  0  0  0  0
  2  3  1  0  0  0  0
  2  4  1  0  0  0  0
  2  5  1  0  0  0  0
  1  2  1  0  0  0  0
 26 27  2  0  0  0  0
 26 28  1  0  0  0  0
 23 24  1  0  0  0  0
 23 25  1  0  0  0  0
 20 21  1  0  0  0  0
 20 22  1  0  0  0  0
 20 23  1  0  0  0  0
 17 18  1  0  0  0  0
 17 19  1  0  0  0  0
 17 20  1  0  0  0  0
 14 15  1  0  0  0  0
 14 16  1  0  0  0  0
 14 17  1  0  0  0  0
 11 12  1  0  0  0  0
 11 13  1  0  0  0  0
 11 14  1  0  0  0  0
  9 10  1  0  0  0  0
  9 11  1  0  0  0  0
  9 26  1  0  0  0  0
  7  8  1  0  0  0  0
  7  9  1  0  0  0  0
 30 31  1  0  0  0  0
 30 32  1  0  0  0  0
 30 33  1  0  0  0  0
 28 29  1  0  0  0  0
 28 30  1  0  0  0  0
M  END
$$$$
default_name
  -OEChem-01062215323D

 33 32  0     1  0  0  0  0  0999 V2000
   -3.8420   -3.6918    1.5562 H   0  0  0  0  0  0  0  0  0  0  0  0
   -3.8430   -2.7008    1.1032 C   0  0  0  0  0  0  0  0  0  0  0  0
   -4.5510   -2.0608    1.6242 H   0  0  0  0  0  0  0  0  0  0  0  0
   -4.1140   -2.7798    0.0522 H   0  0  0  0  0  0  0  0  0  0  0  0
   -2.4570   -2.1098    1.2172 C   0  0  0  0  0  0  0  0  0  0  0  0
   -1.5600   -2.7438    1.7572 O   0  0  0  0  0  0  0  0  0  0  0  0
   -2.2870   -0.8898    0.7102 N   0  0  0  0  0  0  0  0  0  0  0  0
   -3.0820   -0.4218    0.2992 H   0  0  0  0  0  0  0  0  0  0  0  0
   -1.0240   -0.1468    0.7262 C   0  0  1  0  0  0  0  0  0  0  0  0
   -0.4578   -0.4059   -0.1695 H   0  0  0  0  0  0  0  0  0  0  0  0
   -1.3369    1.3618    0.6928 C   0  0  0  0  0  0  0  0  0  0  0  0
   -2.0475    1.5866    1.4909 H   0  0  0  0  0  0  0  0  0  0  0  0
   -0.4214    1.9234    0.8838 H   0  0  0  0  0  0  0  0  0  0  0  0
   -1.9480    1.8268   -0.6383 C   0  0  0  0  0  0  0  0  0  0  0  0
   -1.2616    1.6010   -1.4548 H   0  0  0  0  0  0  0  0  0  0  0  0
   -2.8884    1.2986   -0.8055 H   0  0  0  0  0  0  0  0  0  0  0  0
   -2.2140    3.3363   -0.6207 C   0  0  0  0  0  0  0  0  0  0  0  0
   -2.8937    3.5792    0.1966 H   0  0  0  0  0  0  0  0  0  0  0  0
   -1.2737    3.8696   -0.4777 H   0  0  0  0  0  0  0  0  0  0  0  0
   -2.8432    3.7673   -1.9441 C   0  0  0  0  0  0  0  0  0  0  0  0
   -2.1582    3.5426   -2.7602 H   0  0  0  0  0  0  0  0  0  0  0  0
   -3.7735    3.2227   -2.0971 H   0  0  0  0  0  0  0  0  0  0  0  0
   -3.1332    5.2057   -1.9522 N   0  0  0  0  0  0  0  0  0  0  0  0
   -3.5339    5.4573   -2.8439 H   0  0  0  0  0  0  0  0  0  0  0  0
   -3.7934    5.4148   -1.2168 H   0  0  0  0  0  0  0  0  0  0  0  0
   -0.1919   -0.5422    1.9571 C   0  0  0  0  0  0  0  0  0  0  0  0
   -0.7191   -1.1442    2.8902 O   0  0  0  0  0  0  0  0  0  0  0  0
    1.1002   -0.1944    1.9591 N   0  0  0  0  0  0  0  0  0  0  0  0
    1.4610    0.2845    1.1503 H   0  0  0  0  0  0  0  0  0  0  0  0
    2.0209   -0.4812    3.0580 C   0  0  0  0  0  0  0  0  0  0  0  0
    2.0166   -1.5520    3.2731 H   0  0  0  0  0  0  0  0  0  0  0  0
    3.0334   -0.1707    2.7959 H   0  0  0  0  0  0  0  0  0  0  0  0
    1.6999    0.0529    3.9547 H   0  0  0  0  0  0  0  0  0  0  0  0
  5  6  2  0  0  0  0
  5  7  1  0  0  0  0
  2  3  1  0  0  0  0
  2  4  1  0  0  0  0
  2  5  1  0  0  0  0
  1  2  1  0  0  0  0
 26 27  2  0  0  0  0
 26 28  1  0  0  0  0
 23 24  1  0  0  0  0
 23 25  1  0  0  0  0
 20 21  1  0  0  0  0
 20 22  1  0  0  0  0
 20 23  1  0  0  0  0
 17 18  1  0  0  0  0
 17 19  1  0  0  0  0
 17 20  1  0  0  0  0
 14 15  1  0  0  0  0
 14 16  1  0  0  0  0
 14 17  1  0  0  0  0
 11 12  1  0  0  0  0
 11 13  1  0  0  0  0
 11 14  1  0  0  0  0
  9 10  1  0  0  0  0
  9 11  1  0  0  0  0
  9 26  1  0  0  0  0
  7  8  1  0  0  0  0
  7  9  1  0  0  0  0
 30 31  1  0  0  0  0
 30 32  1  0  0  0  0
 30 33  1  0  0  0  0
 28 29  1  0  0  0  0
 28 30  1  0  0  0  0
M  END
$$$$
default_name
  -OEChem-01062215323D

 33 32  0     1  0  0  0  0  0999 V2000
   -3.8420   -3.6918    1.5562 H   0  0  0  0  0  0  0  0  0  0  0  0
   -3.8430   -2.7008    1.1032 C   0  0  0  0  0  0  0  0  0  0  0  0
   -4.5510   -2.0608    1.6242 H   0  0  0  0  0  0  0  0  0  0  0  0
   -4.1140   -2.7798    0.0522 H   0  0  0  0  0  0  0  0  0  0  0  0
   -2.4570   -2.1098    1.2172 C   0  0  0  0  0  0  0  0  0  0  0  0
   -1.5600   -2.7438    1.7572 O   0  0  0  0  0  0  0  0  0  0  0  0
   -2.2870   -0.8898    0.7102 N   0  0  0  0  0  0  0  0  0  0  0  0
   -3.0820   -0.4218    0.2992 H   0  0  0  0  0  0  0  0  0  0  0  0
   -1.0240   -0.1468    0.7262 C   0  0  1  0  0  0  0  0  0  0  0  0
   -0.5837   -0.1896   -0.2710 H   0  0  0  0  0  0  0  0  0  0  0  0
   -1.3204    1.3255    1.0717 C   0  0  0  0  0  0  0  0  0  0  0  0
   -1.9170    1.3542    1.9858 H   0  0  0  0  0  0  0  0  0  0  0  0
   -0.3810    1.8465    1.2618 H   0  0  0  0  0  0  0  0  0  0  0  0
   -2.0956    2.0646   -0.0302 C   0  0  0  0  0  0  0  0  0  0  0  0
   -1.5253    2.0387   -0.9592 H   0  0  0  0  0  0  0  0  0  0  0  0
   -3.0562    1.5703   -0.1866 H   0  0  0  0  0  0  0  0  0  0  0  0
   -2.3387    3.5273    0.3586 C   0  0  0  0  0  0  0  0  0  0  0  0
   -2.9020    3.5698    1.2913 H   0  0  0  0  0  0  0  0  0  0  0  0
   -1.3814    4.0318    0.4926 H   0  0  0  0  0  0  0  0  0  0  0  0
   -3.1313    4.2311   -0.7412 C   0  0  0  0  0  0  0  0  0  0  0  0
   -2.5624    4.2062   -1.6692 H   0  0  0  0  0  0  0  0  0  0  0  0
   -4.0801    3.7179   -0.8887 H   0  0  0  0  0  0  0  0  0  0  0  0
   -3.4025    5.6298   -0.3899 N   0  0  0  0  0  0  0  0  0  0  0  0
   -3.9139    6.0666   -1.1426 H   0  0  0  0  0  0  0  0  0  0  0  0
   -3.9576    5.6580    0.4535 H   0  0  0  0  0  0  0  0  0  0  0  0
   -0.0420   -0.7918    1.7180 C   0  0  0  0  0  0  0  0  0  0  0  0
   -0.3784   -1.7834    2.3618 O   0  0  0  0  0  0  0  0  0  0  0  0
    1.1621   -0.2220    1.8442 N   0  0  0  0  0  0  0  0  0  0  0  0
    1.3671    0.5796    1.2705 H   0  0  0  0  0  0  0  0  0  0  0  0
    2.2011   -0.7027    2.7536 C   0  0  0  0  0  0  0  0  0  0  0  0
    2.4071   -1.7566    2.5544 H   0  0  0  0  0  0  0  0  0  0  0  0
    3.1176   -0.1256    2.6219 H   0  0  0  0  0  0  0  0  0  0  0  0
    1.8587   -0.6063    3.7860 H   0  0  0  0  0  0  0  0  0  0  0  0
  5  6  2  0  0  0  0
  5  7  1  0  0  0  0
  2  3  1  0  0  0  0
  2  4  1  0  0  0  0
  2  5  1  0  0  0  0
  1  2  1  0  0  0  0
 26 27  2  0  0  0  0
 26 28  1  0  0  0  0
 23 24  1  0  0  0  0
 23 25  1  0  0  0  0
 20 21  1  0  0  0  0
 20 22  1  0  0  0  0
 20 23  1  0  0  0  0
 17 18  1  0  0  0  0
 17 19  1  0  0  0  0
 17 20  1  0  0  0  0
 14 15  1  0  0  0  0
 14 16  1  0  0  0  0
 14 17  1  0  0  0  0
 11 12  1  0  0  0  0
 11 13  1  0  0  0  0
 11 14  1  0  0  0  0
  9 10  1  0  0  0  0
  9 11  1  0  0  0  0
  9 26  1  0  0  0  0
  7  8  1  0  0  0  0
  7  9  1  0  0  0  0
 30 31  1  0  0  0  0
 30 32  1  0  0  0  0
 30 33  1  0  0  0  0
 28 29  1  0  0  0  0
 28 30  1  0  0  0  0
M  END
$$$$
default_name
  -OEChem-01062215323D

 33 32  0     1  0  0  0  0  0999 V2000
   -3.8420   -3.6918    1.5562 H   0  0  0  0  0  0  0  0  0  0  0  0
   -3.8430   -2.7008    1.1032 C   0  0  0  0  0  0  0  0  0  0  0  0
   -4.5510   -2.0608    1.6242 H   0  0  0  0  0  0  0  0  0  0  0  0
   -4.1140   -2.7798    0.0522 H   0  0  0  0  0  0  0  0  0  0  0  0
   -2.4570   -2.1098    1.2172 C   0  0  0  0  0  0  0  0  0  0  0  0
   -1.5600   -2.7438    1.7572 O   0  0  0  0  0  0  0  0  0  0  0  0
   -2.2870   -0.8898    0.7102 N   0  0  0  0  0  0  0  0  0  0  0  0
   -3.0820   -0.4218    0.2992 H   0  0  0  0  0  0  0  0  0  0  0  0
   -1.0240   -0.1468    0.7262 C   0  0  1  0  0  0  0  0  0  0  0  0
   -0.5837   -0.1896   -0.2710 H   0  0  0  0  0  0  0  0  0  0  0  0
   -1.3204    1.3255    1.0717 C   0  0  0  0  0  0  0  0  0  0  0  0
   -1.9170    1.3542    1.9858 H   0  0  0  0  0  0  0  0  0  0  0  0
   -0.3810    1.8465    1.2618 H   0  0  0  0  0  0  0  0  0  0  0  0
   -2.0956    2.0646   -0.0302 C   0  0  0  0  0  0  0  0  0  0  0  0
   -1.5253    2.0387   -0.9592 H   0  0  0  0  0  0  0  0  0  0  0  0
   -3.0562    1.5703   -0.1866 H   0  0  0  0  0  0  0  0  0  0  0  0
   -2.3387    3.5273    0.3586 C   0  0  0  0  0  0  0  0  0  0  0  0
   -2.9020    3.5698    1.2913 H   0  0  0  0  0  0  0  0  0  0  0  0
   -1.3814    4.0318    0.4926 H   0  0  0  0  0  0  0  0  0  0  0  0
   -3.1313    4.2311   -0.7412 C   0  0  0  0  0  0  0  0  0  0  0  0
   -2.5624    4.2062   -1.6692 H   0  0  0  0  0  0  0  0  0  0  0  0
   -4.0801    3.7179   -0.8887 H   0  0  0  0  0  0  0  0  0  0  0  0
   -3.4025    5.6298   -0.3899 N   0  0  0  0  0  0  0  0  0  0  0  0
   -3.9139    6.0666   -1.1426 H   0  0  0  0  0  0  0  0  0  0  0  0
   -3.9576    5.6580    0.4535 H   0  0  0  0  0  0  0  0  0  0  0  0
   -0.0420   -0.7918    1.7180 C   0  0  0  0  0  0  0  0  0  0  0  0
   -0.2578   -1.9210    2.1529 O   0  0  0  0  0  0  0  0  0  0  0  0
    1.0255   -0.0700    2.0782 N   0  0  0  0  0  0  0  0  0  0  0  0
    1.1395    0.8415    1.6662 H   0  0  0  0  0  0  0  0  0  0  0  0
    2.0423   -0.5319    3.0219 C   0  0  0  0  0  0  0  0  0  0  0  0
    2.4485   -1.4890    2.6875 H   0  0  0  0  0  0  0  0  0  0  0  0
    2.8510    0.1966    3.0953 H   0  0  0  0  0  0  0  0  0  0  0  0
    1.5921   -0.6725    4.0068 H   0  0  0  0  0  0  0  0  0  0  0  0
  5  6  2  0  0  0  0
  5  7  1  0  0  0  0
  2  3  1  0  0  0  0
  2  4  1  0  0  0  0
  2  5  1  0  0  0  0
  1  2  1  0  0  0  0
 26 27  2  0  0  0  0
 26 28  1  0  0  0  0
 23 24  1  0  0  0  0
 23 25  1  0  0  0  0
 20 21  1  0  0  0  0
 20 22  1  0  0  0  0
 20 23  1  0  0  0  0
 17 18  1  0  0  0  0
 17 19  1  0  0  0  0
 17 20  1  0  0  0  0
 14 15  1  0  0  0  0
 14 16  1  0  0  0  0
 14 17  1  0  0  0  0
 11 12  1  0  0  0  0
 11 13  1  0  0  0  0
 11 14  1  0  0  0  0
  9 10  1  0  0  0  0
  9 11  1  0  0  0  0
  9 26  1  0  0  0  0
  7  8  1  0  0  0  0
  7  9  1  0  0  0  0
 30 31  1  0  0  0  0
 30 32  1  0  0  0  0
 30 33  1  0  0  0  0
 28 29  1  0  0  0  0
 28 30  1  0  0  0  0
M  END
$$$$
default_name
  -OEChem-01062215323D

 33 32  0     1  0  0  0  0  0999 V2000
   -3.8420   -3.6918    1.5562 H   0  0  0  0  0  0  0  0  0  0  0  0
   -3.8430   -2.7008    1.1032 C   0  0  0  0  0  0  0  0  0  0  0  0
   -4.5510   -2.0608    1.6242 H   0  0  0  0  0  0  0  0  0  0  0  0
   -4.1140   -2.7798    0.0522 H   0  0  0  0  0  0  0  0  0  0  0  0
   -2.4570   -2.1098    1.2172 C   0  0  0  0  0  0  0  0  0  0  0  0
   -1.5600   -2.7438    1.7572 O   0  0  0  0  0  0  0  0  0  0  0  0
   -2.2870   -0.8898    0.7102 N   0  0  0  0  0  0  0  0  0  0  0  0
   -3.0820   -0.4218    0.2992 H   0  0  0  0  0  0  0  0  0  0  0  0
   -1.0240   -0.1468    0.7262 C   0  0  1  0  0  0  0  0  0  0  0  0
   -0.5837   -0.1896   -0.2710 H   0  0  0  0  0  0  0  0  0  0  0  0
   -1.3204    1.3255    1.0717 C   0  0  0  0  0  0  0  0  0  0  0  0
   -1.9170    1.3542    1.9858 H   0  0  0  0  0  0  0  0  0  0  0  0
   -0.3810    1.8465    1.2618 H   0  0  0  0  0  0  0  0  0  0  0  0
   -2.0956    2.0646   -0.0302 C   0  0  0  0  0  0  0  0  0  0  0  0
   -1.5253    2.0387   -0.9592 H   0  0  0  0  0  0  0  0  0  0  0  0
   -3.0562    1.5703   -0.1866 H   0  0  0  0  0  0  0  0  0  0  0  0
   -2.3387    3.5273    0.3586 C   0  0  0  0  0  0  0  0  0  0  0  0
   -2.9020    3.5698    1.2913 H   0  0  0  0  0  0  0  0  0  0  0  0
   -1.3814    4.0318    0.4926 H   0  0  0  0  0  0  0  0  0  0  0  0
   -3.1313    4.2311   -0.7412 C   0  0  0  0  0  0  0  0  0  0  0  0
   -2.5624    4.2062   -1.6692 H   0  0  0  0  0  0  0  0  0  0  0  0
   -4.0801    3.7179   -0.8887 H   0  0  0  0  0  0  0  0  0  0  0  0
   -3.4025    5.6298   -0.3899 N   0  0  0  0  0  0  0  0  0  0  0  0
   -3.9139    6.0666   -1.1426 H   0  0  0  0  0  0  0  0  0  0  0  0
   -3.9576    5.6580    0.4535 H   0  0  0  0  0  0  0  0  0  0  0  0
   -0.0420   -0.7918    1.7180 C   0  0  0  0  0  0  0  0  0  0  0  0
   -0.0958   -1.9993    1.9416 O   0  0  0  0  0  0  0  0  0  0  0  0
    0.8428    0.0153    2.3146 N   0  0  0  0  0  0  0  0  0  0  0  0
    0.8330    0.9912    2.0671 H   0  0  0  0  0  0  0  0  0  0  0  0
    1.8312   -0.4378    3.2921 C   0  0  0  0  0  0  0  0  0  0  0  0
    2.4294   -1.2456    2.8648 H   0  0  0  0  0  0  0  0  0  0  0  0
    2.4884    0.3850    3.5769 H   0  0  0  0  0  0  0  0  0  0  0  0
    1.3218   -0.8174    4.1803 H   0  0  0  0  0  0  0  0  0  0  0  0
  5  6  2  0  0  0  0
  5  7  1  0  0  0  0
  2  3  1  0  0  0  0
  2  4  1  0  0  0  0
  2  5  1  0  0  0  0
  1  2  1  0  0  0  0
 26 27  2  0  0  0  0
 26 28  1  0  0  0  0
 23 24  1  0  0  0  0
 23 25  1  0  0  0  0
 20 21  1  0  0  0  0
 20 22  1  0  0  0  0
 20 23  1  0  0  0  0
 17 18  1  0  0  0  0
 17 19  1  0  0  0  0
 17 20  1  0  0  0  0
 14 15  1  0  0  0  0
 14 16  1  0  0  0  0
 14 17  1  0  0  0  0
 11 12  1  0  0  0  0
 11 13  1  0  0  0  0
 11 14  1  0  0  0  0
  9 10  1  0  0  0  0
  9 11  1  0  0  0  0
  9 26  1  0  0  0  0
  7  8  1  0  0  0  0
  7  9  1  0  0  0  0
 30 31  1  0  0  0  0
 30 32  1  0  0  0  0
 30 33  1  0  0  0  0
 28 29  1  0  0  0  0
 28 30  1  0  0  0  0
M  END
$$$$
default_name
  -OEChem-01062215323D

 33 32  0     1  0  0  0  0  0999 V2000
   -3.8420   -3.6918    1.5562 H   0  0  0  0  0  0  0  0  0  0  0  0
   -3.8430   -2.7008    1.1032 C   0  0  0  0  0  0  0  0  0  0  0  0
   -4.5510   -2.0608    1.6242 H   0  0  0  0  0  0  0  0  0  0  0  0
   -4.1140   -2.7798    0.0522 H   0  0  0  0  0  0  0  0  0  0  0  0
   -2.4570   -2.1098    1.2172 C   0  0  0  0  0  0  0  0  0  0  0  0
   -1.5600   -2.7438    1.7572 O   0  0  0  0  0  0  0  0  0  0  0  0
   -2.2870   -0.8898    0.7102 N   0  0  0  0  0  0  0  0  0  0  0  0
   -3.0820   -0.4218    0.2992 H   0  0  0  0  0  0  0  0  0  0  0  0
   -1.0240   -0.1468    0.7262 C   0  0  1  0  0  0  0  0  0  0  0  0
   -0.5837   -0.1896   -0.2710 H   0  0  0  0  0  0  0  0  0  0  0  0
   -1.3204    1.3255    1.0717 C   0  0  0  0  0  0  0  0  0  0  0  0
   -1.9170    1.3542    1.9858 H   0  0  0  0  0  0  0  0  0  0  0  0
   -0.3810    1.8465    1.2618 H   0  0  0  0  0  0  0  0  0  0  0  0
   -2.0956    2.0646   -0.0302 C   0  0  0  0  0  0  0  0  0  0  0  0
   -1.5253    2.0387   -0.9592 H   0  0  0  0  0  0  0  0  0  0  0  0
   -3.0562    1.5703   -0.1866 H   0  0  0  0  0  0  0  0  0  0  0  0
   -2.3387    3.5273    0.3586 C   0  0  0  0  0  0  0  0  0  0  0  0
   -2.9020    3.5698    1.2913 H   0  0  0  0  0  0  0  0  0  0  0  0
   -1.3814    4.0318    0.4926 H   0  0  0  0  0  0  0  0  0  0  0  0
   -3.1313    4.2311   -0.7412 C   0  0  0  0  0  0  0  0  0  0  0  0
   -2.5624    4.2062   -1.6692 H   0  0  0  0  0  0  0  0  0  0  0  0
   -4.0801    3.7179   -0.8887 H   0  0  0  0  0  0  0  0  0  0  0  0
   -3.4025    5.6298   -0.3899 N   0  0  0  0  0  0  0  0  0  0  0  0
   -3.9139    6.0666   -1.1426 H   0  0  0  0  0  0  0  0  0  0  0  0
   -3.9576    5.6580    0.4535 H   0  0  0  0  0  0  0  0  0  0  0  0
   -0.0420   -0.7918    1.7180 C   0  0  0  0  0  0  0  0  0  0  0  0
    0.0968   -2.0129    1.7421 O   0  0  0  0  0  0  0  0  0  0  0  0
    0.6264    0.0282    2.5373 N   0  0  0  0  0  0  0  0  0  0  0  0
    0.4684    1.0183    2.4457 H   0  0  0  0  0  0  0  0  0  0  0  0
    1.5822   -0.4269    3.5458 C   0  0  0  0  0  0  0  0  0  0  0  0
    2.3510   -1.0430    3.0742 H   0  0  0  0  0  0  0  0  0  0  0  0
    2.0544    0.4269    4.0339 H   0  0  0  0  0  0  0  0  0  0  0  0
    1.0659   -1.0312    4.2945 H   0  0  0  0  0  0  0  0  0  0  0  0
  5  6  2  0  0  0  0
  5  7  1  0  0  0  0
  2  3  1  0  0  0  0
  2  4  1  0  0  0  0
  2  5  1  0  0  0  0
  1  2  1  0  0  0  0
 26 27  2  0  0  0  0
 26 28  1  0  0  0  0
 23 24  1  0  0  0  0
 23 25  1  0  0  0  0
 20 21  1  0  0  0  0
 20 22  1  0  0  0  0
 20 23  1  0  0  0  0
 17 18  1  0  0  0  0
 17 19  1  0  0  0  0
 17 20  1  0  0  0  0
 14 15  1  0  0  0  0
 14 16  1  0  0  0  0
 14 17  1  0  0  0  0
 11 12  1  0  0  0  0
 11 13  1  0  0  0  0
 11 14  1  0  0  0  0
  9 10  1  0  0  0  0
  9 11  1  0  0  0  0
  9 26  1  0  0  0  0
  7  8  1  0  0  0  0
  7  9  1  0  0  0  0
 30 31  1  0  0  0  0
 30 32  1  0  0  0  0
 30 33  1  0  0  0  0
 28 29  1  0  0  0  0
 28 30  1  0  0  0  0
M  END
$$$$
default_name
  -OEChem-01062215323D

 33 32  0     1  0  0  0  0  0999 V2000
   -3.8420   -3.6918    1.5562 H   0  0  0  0  0  0  0  0  0  0  0  0
   -3.8430   -2.7008    1.1032 C   0  0  0  0  0  0  0  0  0  0  0  0
   -4.5510   -2.0608    1.6242 H   0  0  0  0  0  0  0  0  0  0  0  0
   -4.1140   -2.7798    0.0522 H   0  0  0  0  0  0  0  0  0  0  0  0
   -2.4570   -2.1098    1.2172 C   0  0  0  0  0  0  0  0  0  0  0  0
   -1.5600   -2.7438    1.7572 O   0  0  0  0  0  0  0  0  0  0  0  0
   -2.2870   -0.8898    0.7102 N   0  0  0  0  0  0  0  0  0  0  0  0
   -3.0820   -0.4218    0.2992 H   0  0  0  0  0  0  0  0  0  0  0  0
   -1.0240   -0.1468    0.7262 C   0  0  1  0  0  0  0  0  0  0  0  0
   -0.5837   -0.1896   -0.2710 H   0  0  0  0  0  0  0  0  0  0  0  0
   -1.3204    1.3255    1.0717 C   0  0  0  0  0  0  0  0  0  0  0  0
   -1.9170    1.3542    1.9858 H   0  0  0  0  0  0  0  0  0  0  0  0
   -0.3810    1.8465    1.2618 H   0  0  0  0  0  0  0  0  0  0  0  0
   -2.0956    2.0646   -0.0302 C   0  0  0  0  0  0  0  0  0  0  0  0
   -1.5253    2.0387   -0.9592 H   0  0  0  0  0  0  0  0  0  0  0  0
   -3.0562    1.5703   -0.1866 H   0  0  0  0  0  0  0  0  0  0  0  0
   -2.3387    3.5273    0.3586 C   0  0  0  0  0  0  0  0  0  0  0  0
   -2.9020    3.5698    1.2913 H   0  0  0  0  0  0  0  0  0  0  0  0
   -1.3814    4.0318    0.4926 H   0  0  0  0  0  0  0  0  0  0  0  0
   -3.1313    4.2311   -0.7412 C   0  0  0  0  0  0  0  0  0  0  0  0
   -2.5624    4.2062   -1.6692 H   0  0  0  0  0  0  0  0  0  0  0  0
   -4.0801    3.7179   -0.8887 H   0  0  0  0  0  0  0  0  0  0  0  0
   -3.4025    5.6298   -0.3899 N   0  0  0  0  0  0  0  0  0  0  0  0
   -3.9139    6.0666   -1.1426 H   0  0  0  0  0  0  0  0  0  0  0  0
   -3.9576    5.6580    0.4535 H   0  0  0  0  0  0  0  0  0  0  0  0
   -0.0420   -0.7918    1.7180 C   0  0  0  0  0  0  0  0  0  0  0  0
    0.3067   -1.9609    1.5680 O   0  0  0  0  0  0  0  0  0  0  0  0
    0.3911   -0.0323    2.7309 N   0  0  0  0  0  0  0  0  0  0  0  0
    0.0705    0.9210    2.7763 H   0  0  0  0  0  0  0  0  0  0  0  0
    1.3124   -0.4998    3.7655 C   0  0  0  0  0  0  0  0  0  0  0  0
    2.2187   -0.8950    3.3014 H   0  0  0  0  0  0  0  0  0  0  0  0
    1.5785    0.3193    4.4351 H   0  0  0  0  0  0  0  0  0  0  0  0
    0.8421   -1.2993    4.3418 H   0  0  0  0  0  0  0  0  0  0  0  0
  5  6  2  0  0  0  0
  5  7  1  0  0  0  0
  2  3  1  0  0  0  0
  2  4  1  0  0  0  0
  2  5  1  0  0  0  0
  1  2  1  0  0  0  0
 26 27  2  0  0  0  0
 26 28  1  0  0  0  0
 23 24  1  0  0  0  0
 23 25  1  0  0  0  0
 20 21  1  0  0  0  0
 20 22  1  0  0  0  0
 20 23  1  0  0  0  0
 17 18  1  0  0  0  0
 17 19  1  0  0  0  0
 17 20  1  0  0  0  0
 14 15  1  0  0  0  0
 14 16  1  0  0  0  0
 14 17  1  0  0  0  0
 11 12  1  0  0  0  0
 11 13  1  0  0  0  0
 11 14  1  0  0  0  0
  9 10  1  0  0  0  0
  9 11  1  0  0  0  0
  9 26  1  0  0  0  0
  7  8  1  0  0  0  0
  7  9  1  0  0  0  0
 30 31  1  0  0  0  0
 30 32  1  0  0  0  0
 30 33  1  0  0  0  0
 28 29  1  0  0  0  0
 28 30  1  0  0  0  0
M  END
$$$$
default_name
  -OEChem-01062215323D

 33 32  0     1  0  0  0  0  0999 V2000
   -3.8420   -3.6918    1.5562 H   0  0  0  0  0  0  0  0  0  0  0  0
   -3.8430   -2.7008    1.1032 C   0  0  0  0  0  0  0  0  0  0  0  0
   -4.5510   -2.0608    1.6242 H   0  0  0  0  0  0  0  0  0  0  0  0
   -4.1140   -2.7798    0.0522 H   0  0  0  0  0  0  0  0  0  0  0  0
   -2.4570   -2.1098    1.2172 C   0  0  0  0  0  0  0  0  0  0  0  0
   -1.5600   -2.7438    1.7572 O   0  0  0  0  0  0  0  0  0  0  0  0
   -2.2870   -0.8898    0.7102 N   0  0  0  0  0  0  0  0  0  0  0  0
   -3.0820   -0.4218    0.2992 H   0  0  0  0  0  0  0  0  0  0  0  0
   -1.0240   -0.1468    0.7262 C   0  0  1  0  0  0  0  0  0  0  0  0
   -0.5837   -0.1896   -0.2710 H   0  0  0  0  0  0  0  0  0  0  0  0
   -1.3204    1.3255    1.0717 C   0  0  0  0  0  0  0  0  0  0  0  0
   -1.9170    1.3542    1.9858 H   0  0  0  0  0  0  0  0  0  0  0  0
   -0.3810    1.8465    1.2618 H   0  0  0  0  0  0  0  0  0  0  0  0
   -2.0956    2.0646   -0.0302 C   0  0  0  0  0  0  0  0  0  0  0  0
   -1.5253    2.0387   -0.9592 H   0  0  0  0  0  0  0  0  0  0  0  0
   -3.0562    1.5703   -0.1866 H   0  0  0  0  0  0  0  0  0  0  0  0
   -2.3387    3.5273    0.3586 C   0  0  0  0  0  0  0  0  0  0  0  0
   -2.9020    3.5698    1.2913 H   0  0  0  0  0  0  0  0  0  0  0  0
   -1.3814    4.0318    0.4926 H   0  0  0  0  0  0  0  0  0  0  0  0
   -3.1313    4.2311   -0.7412 C   0  0  0  0  0  0  0  0  0  0  0  0
   -2.5624    4.2062   -1.6692 H   0  0  0  0  0  0  0  0  0  0  0  0
   -4.0801    3.7179   -0.8887 H   0  0  0  0  0  0  0  0  0  0  0  0
   -3.4025    5.6298   -0.3899 N   0  0  0  0  0  0  0  0  0  0  0  0
   -3.9139    6.0666   -1.1426 H   0  0  0  0  0  0  0  0  0  0  0  0
   -3.9576    5.6580    0.4535 H   0  0  0  0  0  0  0  0  0  0  0  0
   -0.0420   -0.7918    1.7180 C   0  0  0  0  0  0  0  0  0  0  0  0
    0.5197   -1.8469    1.4313 O   0  0  0  0  0  0  0  0  0  0  0  0
    0.1529   -0.1621    2.8824 N   0  0  0  0  0  0  0  0  0  0  0  0
   -0.3334    0.7060    3.0364 H   0  0  0  0  0  0  0  0  0  0  0  0
    1.0401   -0.6516    3.9364 C   0  0  0  0  0  0  0  0  0  0  0  0
    2.0415   -0.8116    3.5310 H   0  0  0  0  0  0  0  0  0  0  0  0
    1.0933    0.0697    4.7532 H   0  0  0  0  0  0  0  0  0  0  0  0
    0.6656   -1.6034    4.3188 H   0  0  0  0  0  0  0  0  0  0  0  0
  5  6  2  0  0  0  0
  5  7  1  0  0  0  0
  2  3  1  0  0  0  0
  2  4  1  0  0  0  0
  2  5  1  0  0  0  0
  1  2  1  0  0  0  0
 26 27  2  0  0  0  0
 26 28  1  0  0  0  0
 23 24  1  0  0  0  0
 23 25  1  0  0  0  0
 20 21  1  0  0  0  0
 20 22  1  0  0  0  0
 20 23  1  0  0  0  0
 17 18  1  0  0  0  0
 17 19  1  0  0  0  0
 17 20  1  0  0  0  0
 14 15  1  0  0  0  0
 14 16  1  0  0  0  0
 14 17  1  0  0  0  0
 11 12  1  0  0  0  0
 11 13  1  0  0  0  0
 11 14  1  0  0  0  0
  9 10  1  0  0  0  0
  9 11  1  0  0  0  0
  9 26  1  0  0  0  0
  7  8  1  0  0  0  0
  7  9  1  0  0  0  0
 30 31  1  0  0  0  0
 30 32  1  0  0  0  0
 30 33  1  0  0  0  0
 28 29  1  0  0  0  0
 28 30  1  0  0  0  0
M  END
$$$$
default_name
  -OEChem-01062215323D

 33 32  0     1  0  0  0  0  0999 V2000
   -3.8420   -3.6918    1.5562 H   0  0  0  0  0  0  0  0  0  0  0  0
   -3.8430   -2.7008    1.1032 C   0  0  0  0  0  0  0  0  0  0  0  0
   -4.5510   -2.0608    1.6242 H   0  0  0  0  0  0  0  0  0  0  0  0
   -4.1140   -2.7798    0.0522 H   0  0  0  0  0  0  0  0  0  0  0  0
   -2.4570   -2.1098    1.2172 C   0  0  0  0  0  0  0  0  0  0  0  0
   -1.5600   -2.7438    1.7572 O   0  0  0  0  0  0  0  0  0  0  0  0
   -2.2870   -0.8898    0.7102 N   0  0  0  0  0  0  0  0  0  0  0  0
   -3.0820   -0.4218    0.2992 H   0  0  0  0  0  0  0  0  0  0  0  0
   -1.0240   -0.1468    0.7262 C   0  0  1  0  0  0  0  0  0  0  0  0
   -0.5837   -0.1896   -0.2710 H   0  0  0  0  0  0  0  0  0  0  0  0
   -1.3204    1.3255    1.0717 C   0  0  0  0  0  0  0  0  0  0  0  0
   -1.9170    1.3542    1.9858 H   0  0  0  0  0  0  0  0  0  0  0  0
   -0.3810    1.8465    1.2618 H   0  0  0  0  0  0  0  0  0  0  0  0
   -2.0956    2.0646   -0.0302 C   0  0  0  0  0  0  0  0  0  0  0  0
   -1.5253    2.0387   -0.9592 H   0  0  0  0  0  0  0  0  0  0  0  0
   -3.0562    1.5703   -0.1866 H   0  0  0  0  0  0  0  0  0  0  0  0
   -2.3387    3.5273    0.3586 C   0  0  0  0  0  0  0  0  0  0  0  0
   -2.9020    3.5698    1.2913 H   0  0  0  0  0  0  0  0  0  0  0  0
   -1.3814    4.0318    0.4926 H   0  0  0  0  0  0  0  0  0  0  0  0
   -3.1313    4.2311   -0.7412 C   0  0  0  0  0  0  0  0  0  0  0  0
   -2.5624    4.2062   -1.6692 H   0  0  0  0  0  0  0  0  0  0  0  0
   -4.0801    3.7179   -0.8887 H   0  0  0  0  0  0  0  0  0  0  0  0
   -3.4025    5.6298   -0.3899 N   0  0  0  0  0  0  0  0  0  0  0  0
   -3.9139    6.0666   -1.1426 H   0  0  0  0  0  0  0  0  0  0  0  0
   -3.9576    5.6580    0.4535 H   0  0  0  0  0  0  0  0  0  0  0  0
   -0.0420   -0.7918    1.7180 C   0  0  0  0  0  0  0  0  0  0  0  0
    0.7213   -1.6786    1.3412 O   0  0  0  0  0  0  0  0  0  0  0  0
   -0.0721   -0.3522    2.9814 N   0  0  0  0  0  0  0  0  0  0  0  0
   -0.7159    0.3878    3.2082 H   0  0  0  0  0  0  0  0  0  0  0  0
    0.7838   -0.8719    4.0469 C   0  0  0  0  0  0  0  0  0  0  0  0
    1.8316   -0.7987    3.7474 H   0  0  0  0  0  0  0  0  0  0  0  0
    0.6317   -0.3051    4.9665 H   0  0  0  0  0  0  0  0  0  0  0  0
    0.5483   -1.9229    4.2271 H   0  0  0  0  0  0  0  0  0  0  0  0
  5  6  2  0  0  0  0
  5  7  1  0  0  0  0
  2  3  1  0  0  0  0
  2  4  1  0  0  0  0
  2  5  1  0  0  0  0
  1  2  1  0  0  0  0
 26 27  2  0  0  0  0
 26 28  1  0  0  0  0
 23 24  1  0  0  0  0
 23 25  1  0  0  0  0
 20 21  1  0  0  0  0
 20 22  1  0  0  0  0
 20 23  1  0  0  0  0
 17 18  1  0  0  0  0
 17 19  1  0  0  0  0
 17 20  1  0  0  0  0
 14 15  1  0  0  0  0
 14 16  1  0  0  0  0
 14 17  1  0  0  0  0
 11 12  1  0  0  0  0
 11 13  1  0  0  0  0
 11 14  1  0  0  0  0
  9 10  1  0  0  0  0
  9 11  1  0  0  0  0
  9 26  1  0  0  0  0
  7  8  1  0  0  0  0
  7  9  1  0  0  0  0
 30 31  1  0  0  0  0
 30 32  1  0  0  0  0
 30 33  1  0  0  0  0
 28 29  1  0  0  0  0
 28 30  1  0  0  0  0
M  END
$$$$
default_name
  -OEChem-01062215323D

 33 32  0     1  0  0  0  0  0999 V2000
   -3.8420   -3.6918    1.5562 H   0  0  0  0  0  0  0  0  0  0  0  0
   -3.8430   -2.7008    1.1032 C   0  0  0  0  0  0  0  0  0  0  0  0
   -4.5510   -2.0608    1.6242 H   0  0  0  0  0  0  0  0  0  0  0  0
   -4.1140   -2.7798    0.0522 H   0  0  0  0  0  0  0  0  0  0  0  0
   -2.4570   -2.1098    1.2172 C   0  0  0  0  0  0  0  0  0  0  0  0
   -1.5600   -2.7438    1.7572 O   0  0  0  0  0  0  0  0  0  0  0  0
   -2.2870   -0.8898    0.7102 N   0  0  0  0  0  0  0  0  0  0  0  0
   -3.0820   -0.4218    0.2992 H   0  0  0  0  0  0  0  0  0  0  0  0
   -1.0240   -0.1468    0.7262 C   0  0  1  0  0  0  0  0  0  0  0  0
   -0.5837   -0.1896   -0.2710 H   0  0  0  0  0  0  0  0  0  0  0  0
   -1.3204    1.3255    1.0717 C   0  0  0  0  0  0  0  0  0  0  0  0
   -1.9170    1.3542    1.9858 H   0  0  0  0  0  0  0  0  0  0  0  0
   -0.3810    1.8465    1.2618 H   0  0  0  0  0  0  0  0  0  0  0  0
   -2.0956    2.0646   -0.0302 C   0  0  0  0  0  0  0  0  0  0  0  0
   -1.5253    2.0387   -0.9592 H   0  0  0  0  0  0  0  0  0  0  0  0
   -3.0562    1.5703   -0.1866 H   0  0  0  0  0  0  0  0  0  0  0  0
   -2.3387    3.5273    0.3586 C   0  0  0  0  0  0  0  0  0  0  0  0
   -2.9020    3.5698    1.2913 H   0  0  0  0  0  0  0  0  0  0  0  0
   -1.3814    4.0318    0.4926 H   0  0  0  0  0  0  0  0  0  0  0  0
   -3.1313    4.2311   -0.7412 C   0  0  0  0  0  0  0  0  0  0  0  0
   -2.5624    4.2062   -1.6692 H   0  0  0  0  0  0  0  0  0  0  0  0
   -4.0801    3.7179   -0.8887 H   0  0  0  0  0  0  0  0  0  0  0  0
   -3.4025    5.6298   -0.3899 N   0  0  0  0  0  0  0  0  0  0  0  0
   -3.9139    6.0666   -1.1426 H   0  0  0  0  0  0  0  0  0  0  0  0
   -3.9576    5.6580    0.4535 H   0  0  0  0  0  0  0  0  0  0  0  0
   -0.0420   -0.7918    1.7180 C   0  0  0  0  0  0  0  0  0  0  0  0
    0.8976   -1.4675    1.3039 O   0  0  0  0  0  0  0  0  0  0  0  0
   -0.2683   -0.5898    3.0212 N   0  0  0  0  0  0  0  0  0  0  0  0
   -1.0509   -0.0117    3.2801 H   0  0  0  0  0  0  0  0  0  0  0  0
    0.5610   -1.1458    4.0893 C   0  0  0  0  0  0  0  0  0  0  0  0
    1.6031   -0.8570    3.9357 H   0  0  0  0  0  0  0  0  0  0  0  0
    0.2253   -0.7793    5.0605 H   0  0  0  0  0  0  0  0  0  0  0  0
    0.4983   -2.2359    4.0730 H   0  0  0  0  0  0  0  0  0  0  0  0
  5  6  2  0  0  0  0
  5  7  1  0  0  0  0
  2  3  1  0  0  0  0
  2  4  1  0  0  0  0
  2  5  1  0  0  0  0
  1  2  1  0  0  0  0
 26 27  2  0  0  0  0
 26 28  1  0  0  0  0
 23 24  1  0  0  0  0
 23 25  1  0  0  0  0
 20 21  1  0  0  0  0
 20 22  1  0  0  0  0
 20 23  1  0  0  0  0
 17 18  1  0  0  0  0
 17 19  1  0  0  0  0
 17 20  1  0  0  0  0
 14 15  1  0  0  0  0
 14 16  1  0  0  0  0
 14 17  1  0  0  0  0
 11 12  1  0  0  0  0
 11 13  1  0  0  0  0
 11 14  1  0  0  0  0
  9 10  1  0  0  0  0
  9 11  1  0  0  0  0
  9 26  1  0  0  0  0
  7  8  1  0  0  0  0
  7  9  1  0  0  0  0
 30 31  1  0  0  0  0
 30 32  1  0  0  0  0
 30 33  1  0  0  0  0
 28 29  1  0  0  0  0
 28 30  1  0  0  0  0
M  END
$$$$
default_name
  -OEChem-01062215323D

 33 32  0     1  0  0  0  0  0999 V2000
   -3.8420   -3.6918    1.5562 H   0  0  0  0  0  0  0  0  0  0  0  0
   -3.8430   -2.7008    1.1032 C   0  0  0  0  0  0  0  0  0  0  0  0
   -4.5510   -2.0608    1.6242 H   0  0  0  0  0  0  0  0  0  0  0  0
   -4.1140   -2.7798    0.0522 H   0  0  0  0  0  0  0  0  0  0  0  0
   -2.4570   -2.1098    1.2172 C   0  0  0  0  0  0  0  0  0  0  0  0
   -1.5600   -2.7438    1.7572 O   0  0  0  0  0  0  0  0  0  0  0  0
   -2.2870   -0.8898    0.7102 N   0  0  0  0  0  0  0  0  0  0  0  0
   -3.0820   -0.4218    0.2992 H   0  0  0  0  0  0  0  0  0  0  0  0
   -1.0240   -0.1468    0.7262 C   0  0  1  0  0  0  0  0  0  0  0  0
   -0.5837   -0.1896   -0.2710 H   0  0  0  0  0  0  0  0  0  0  0  0
   -1.3204    1.3255    1.0717 C   0  0  0  0  0  0  0  0  0  0  0  0
   -1.9170    1.3542    1.9858 H   0  0  0  0  0  0  0  0  0  0  0  0
   -0.3810    1.8465    1.2618 H   0  0  0  0  0  0  0  0  0  0  0  0
   -2.0956    2.0646   -0.0302 C   0  0  0  0  0  0  0  0  0  0  0  0
   -1.5253    2.0387   -0.9592 H   0  0  0  0  0  0  0  0  0  0  0  0
   -3.0562    1.5703   -0.1866 H   0  0  0  0  0  0  0  0  0  0  0  0
   -2.3387    3.5273    0.3586 C   0  0  0  0  0  0  0  0  0  0  0  0
   -2.9020    3.5698    1.2913 H   0  0  0  0  0  0  0  0  0  0  0  0
   -1.3814    4.0318    0.4926 H   0  0  0  0  0  0  0  0  0  0  0  0
   -3.1313    4.2311   -0.7412 C   0  0  0  0  0  0  0  0  0  0  0  0
   -2.5624    4.2062   -1.6692 H   0  0  0  0  0  0  0  0  0  0  0  0
   -4.0801    3.7179   -0.8887 H   0  0  0  0  0  0  0  0  0  0  0  0
   -3.4025    5.6298   -0.3899 N   0  0  0  0  0  0  0  0  0  0  0  0
   -3.9139    6.0666   -1.1426 H   0  0  0  0  0  0  0  0  0  0  0  0
   -3.9576    5.6580    0.4535 H   0  0  0  0  0  0  0  0  0  0  0  0
   -0.0420   -0.7918    1.7180 C   0  0  0  0  0  0  0  0  0  0  0  0
    1.0368   -1.2279    1.3219 O   0  0  0  0  0  0  0  0  0  0  0  0
   -0.4225   -0.8586    2.9991 N   0  0  0  0  0  0  0  0  0  0  0  0
   -1.3156   -0.4655    3.2470 H   0  0  0  0  0  0  0  0  0  0  0  0
    0.3870   -1.4545    4.0608 C   0  0  0  0  0  0  0  0  0  0  0  0
    1.3717   -0.9826    4.0831 H   0  0  0  0  0  0  0  0  0  0  0  0
   -0.0983   -1.3208    5.0287 H   0  0  0  0  0  0  0  0  0  0  0  0
    0.5190   -2.5211    3.8670 H   0  0  0  0  0  0  0  0  0  0  0  0
  5  6  2  0  0  0  0
  5  7  1  0  0  0  0
  2  3  1  0  0  0  0
  2  4  1  0  0  0  0
  2  5  1  0  0  0  0
  1  2  1  0  0  0  0
 26 27  2  0  0  0  0
 26 28  1  0  0  0  0
 23 24  1  0  0  0  0
 23 25  1  0  0  0  0
 20 21  1  0  0  0  0
 20 22  1  0  0  0  0
 20 23  1  0  0  0  0
 17 18  1  0  0  0  0
 17 19  1  0  0  0  0
 17 20  1  0  0  0  0
 14 15  1  0  0  0  0
 14 16  1  0  0  0  0
 14 17  1  0  0  0  0
 11 12  1  0  0  0  0
 11 13  1  0  0  0  0
 11 14  1  0  0  0  0
  9 10  1  0  0  0  0
  9 11  1  0  0  0  0
  9 26  1  0  0  0  0
  7  8  1  0  0  0  0
  7  9  1  0  0  0  0
 30 31  1  0  0  0  0
 30 32  1  0  0  0  0
 30 33  1  0  0  0  0
 28 29  1  0  0  0  0
 28 30  1  0  0  0  0
M  END
$$$$
default_name
  -OEChem-01062215323D

 33 32  0     1  0  0  0  0  0999 V2000
   -3.8420   -3.6918    1.5562 H   0  0  0  0  0  0  0  0  0  0  0  0
   -3.8430   -2.7008    1.1032 C   0  0  0  0  0  0  0  0  0  0  0  0
   -4.5510   -2.0608    1.6242 H   0  0  0  0  0  0  0  0  0  0  0  0
   -4.1140   -2.7798    0.0522 H   0  0  0  0  0  0  0  0  0  0  0  0
   -2.4570   -2.1098    1.2172 C   0  0  0  0  0  0  0  0  0  0  0  0
   -1.5600   -2.7438    1.7572 O   0  0  0  0  0  0  0  0  0  0  0  0
   -2.2870   -0.8898    0.7102 N   0  0  0  0  0  0  0  0  0  0  0  0
   -3.0820   -0.4218    0.2992 H   0  0  0  0  0  0  0  0  0  0  0  0
   -1.0240   -0.1468    0.7262 C   0  0  1  0  0  0  0  0  0  0  0  0
   -0.5837   -0.1896   -0.2710 H   0  0  0  0  0  0  0  0  0  0  0  0
   -1.3204    1.3255    1.0717 C   0  0  0  0  0  0  0  0  0  0  0  0
   -1.9170    1.3542    1.9858 H   0  0  0  0  0  0  0  0  0  0  0  0
   -0.3810    1.8465    1.2618 H   0  0  0  0  0  0  0  0  0  0  0  0
   -2.0956    2.0646   -0.0302 C   0  0  0  0  0  0  0  0  0  0  0  0
   -1.5253    2.0387   -0.9592 H   0  0  0  0  0  0  0  0  0  0  0  0
   -3.0562    1.5703   -0.1866 H   0  0  0  0  0  0  0  0  0  0  0  0
   -2.3387    3.5273    0.3586 C   0  0  0  0  0  0  0  0  0  0  0  0
   -2.9020    3.5698    1.2913 H   0  0  0  0  0  0  0  0  0  0  0  0
   -1.3814    4.0318    0.4926 H   0  0  0  0  0  0  0  0  0  0  0  0
   -3.1313    4.2311   -0.7412 C   0  0  0  0  0  0  0  0  0  0  0  0
   -2.5624    4.2062   -1.6692 H   0  0  0  0  0  0  0  0  0  0  0  0
   -4.0801    3.7179   -0.8887 H   0  0  0  0  0  0  0  0  0  0  0  0
   -3.4025    5.6298   -0.3899 N   0  0  0  0  0  0  0  0  0  0  0  0
   -3.9139    6.0666   -1.1426 H   0  0  0  0  0  0  0  0  0  0  0  0
   -3.9576    5.6580    0.4535 H   0  0  0  0  0  0  0  0  0  0  0  0
   -0.0420   -0.7918    1.7180 C   0  0  0  0  0  0  0  0  0  0  0  0
    1.1293   -0.9763    1.3940 O   0  0  0  0  0  0  0  0  0  0  0  0
   -0.5242   -1.1404    2.9165 N   0  0  0  0  0  0  0  0  0  0  0  0
   -1.4919   -0.9425    3.1114 H   0  0  0  0  0  0  0  0  0  0  0  0
    0.2735   -1.7771    3.9634 C   0  0  0  0  0  0  0  0  0  0  0  0
    1.1532   -1.1669    4.1796 H   0  0  0  0  0  0  0  0  0  0  0  0
   -0.3171   -1.8927    4.8733 H   0  0  0  0  0  0  0  0  0  0  0  0
    0.6090   -2.7590    3.6232 H   0  0  0  0  0  0  0  0  0  0  0  0
  5  6  2  0  0  0  0
  5  7  1  0  0  0  0
  2  3  1  0  0  0  0
  2  4  1  0  0  0  0
  2  5  1  0  0  0  0
  1  2  1  0  0  0  0
 26 27  2  0  0  0  0
 26 28  1  0  0  0  0
 23 24  1  0  0  0  0
 23 25  1  0  0  0  0
 20 21  1  0  0  0  0
 20 22  1  0  0  0  0
 20 23  1  0  0  0  0
 17 18  1  0  0  0  0
 17 19  1  0  0  0  0
 17 20  1  0  0  0  0
 14 15  1  0  0  0  0
 14 16  1  0  0  0  0
 14 17  1  0  0  0  0
 11 12  1  0  0  0  0
 11 13  1  0  0  0  0
 11 14  1  0  0  0  0
  9 10  1  0  0  0  0
  9 11  1  0  0  0  0
  9 26  1  0  0  0  0
  7  8  1  0  0  0  0
  7  9  1  0  0  0  0
 30 31  1  0  0  0  0
 30 32  1  0  0  0  0
 30 33  1  0  0  0  0
 28 29  1  0  0  0  0
 28 30  1  0  0  0  0
M  END
$$$$
default_name
  -OEChem-01062215323D

 33 32  0     1  0  0  0  0  0999 V2000
   -3.8420   -3.6918    1.5562 H   0  0  0  0  0  0  0  0  0  0  0  0
   -3.8430   -2.7008    1.1032 C   0  0  0  0  0  0  0  0  0  0  0  0
   -4.5510   -2.0608    1.6242 H   0  0  0  0  0  0  0  0  0  0  0  0
   -4.1140   -2.7798    0.0522 H   0  0  0  0  0  0  0  0  0  0  0  0
   -2.4570   -2.1098    1.2172 C   0  0  0  0  0  0  0  0  0  0  0  0
   -1.5600   -2.7438    1.7572 O   0  0  0  0  0  0  0  0  0  0  0  0
   -2.2870   -0.8898    0.7102 N   0  0  0  0  0  0  0  0  0  0  0  0
   -3.0820   -0.4218    0.2992 H   0  0  0  0  0  0  0  0  0  0  0  0
   -1.0240   -0.1468    0.7262 C   0  0  1  0  0  0  0  0  0  0  0  0
   -0.5837   -0.1896   -0.2710 H   0  0  0  0  0  0  0  0  0  0  0  0
   -1.3204    1.3255    1.0717 C   0  0  0  0  0  0  0  0  0  0  0  0
   -1.9170    1.3542    1.9858 H   0  0  0  0  0  0  0  0  0  0  0  0
   -0.3810    1.8465    1.2618 H   0  0  0  0  0  0  0  0  0  0  0  0
   -2.0956    2.0646   -0.0302 C   0  0  0  0  0  0  0  0  0  0  0  0
   -1.5253    2.0387   -0.9592 H   0  0  0  0  0  0  0  0  0  0  0  0
   -3.0562    1.5703   -0.1866 H   0  0  0  0  0  0  0  0  0  0  0  0
   -2.3387    3.5273    0.3586 C   0  0  0  0  0  0  0  0  0  0  0  0
   -2.9020    3.5698    1.2913 H   0  0  0  0  0  0  0  0  0  0  0  0
   -1.3814    4.0318    0.4926 H   0  0  0  0  0  0  0  0  0  0  0  0
   -3.1313    4.2311   -0.7412 C   0  0  0  0  0  0  0  0  0  0  0  0
   -2.5624    4.2062   -1.6692 H   0  0  0  0  0  0  0  0  0  0  0  0
   -4.0801    3.7179   -0.8887 H   0  0  0  0  0  0  0  0  0  0  0  0
   -3.4025    5.6298   -0.3899 N   0  0  0  0  0  0  0  0  0  0  0  0
   -3.9139    6.0666   -1.1426 H   0  0  0  0  0  0  0  0  0  0  0  0
   -3.9576    5.6580    0.4535 H   0  0  0  0  0  0  0  0  0  0  0  0
   -0.0420   -0.7918    1.7180 C   0  0  0  0  0  0  0  0  0  0  0  0
    1.1688   -0.7297    1.5152 O   0  0  0  0  0  0  0  0  0  0  0  0
   -0.5664   -1.4159    2.7791 N   0  0  0  0  0  0  0  0  0  0  0  0
   -1.5679   -1.4103    2.8823 H   0  0  0  0  0  0  0  0  0  0  0  0
    0.2284   -2.0915    3.8036 C   0  0  0  0  0  0  0  0  0  0  0  0
    0.9623   -1.3973    4.2187 H   0  0  0  0  0  0  0  0  0  0  0  0
   -0.4160   -2.4559    4.6050 H   0  0  0  0  0  0  0  0  0  0  0  0
    0.7621   -2.9336    3.3581 H   0  0  0  0  0  0  0  0  0  0  0  0
  5  6  2  0  0  0  0
  5  7  1  0  0  0  0
  2  3  1  0  0  0  0
  2  4  1  0  0  0  0
  2  5  1  0  0  0  0
  1  2  1  0  0  0  0
 26 27  2  0  0  0  0
 26 28  1  0  0  0  0
 23 24  1  0  0  0  0
 23 25  1  0  0  0  0
 20 21  1  0  0  0  0
 20 22  1  0  0  0  0
 20 23  1  0  0  0  0
 17 18  1  0  0  0  0
 17 19  1  0  0  0  0
 17 20  1  0  0  0  0
 14 15  1  0  0  0  0
 14 16  1  0  0  0  0
 14 17  1  0  0  0  0
 11 12  1  0  0  0  0
 11 13  1  0  0  0  0
 11 14  1  0  0  0  0
  9 10  1  0  0  0  0
  9 11  1  0  0  0  0
  9 26  1  0  0  0  0
  7  8  1  0  0  0  0
  7  9  1  0  0  0  0
 30 31  1  0  0  0  0
 30 32  1  0  0  0  0
 30 33  1  0  0  0  0
 28 29  1  0  0  0  0
 28 30  1  0  0  0  0
M  END
$$$$
default_name
  -OEChem-01062215323D

 33 32  0     1  0  0  0  0  0999 V2000
   -3.8420   -3.6918    1.5562 H   0  0  0  0  0  0  0  0  0  0  0  0
   -3.8430   -2.7008    1.1032 C   0  0  0  0  0  0  0  0  0  0  0  0
   -4.5510   -2.0608    1.6242 H   0  0  0  0  0  0  0  0  0  0  0  0
   -4.1140   -2.7798    0.0522 H   0  0  0  0  0  0  0  0  0  0  0  0
   -2.4570   -2.1098    1.2172 C   0  0  0  0  0  0  0  0  0  0  0  0
   -1.5600   -2.7438    1.7572 O   0  0  0  0  0  0  0  0  0  0  0  0
   -2.2870   -0.8898    0.7102 N   0  0  0  0  0  0  0  0  0  0  0  0
   -3.0820   -0.4218    0.2992 H   0  0  0  0  0  0  0  0  0  0  0  0
   -1.0240   -0.1468    0.7262 C   0  0  1  0  0  0  0  0  0  0  0  0
   -0.5837   -0.1896   -0.2710 H   0  0  0  0  0  0  0  0  0  0  0  0
   -1.3204    1.3255    1.0717 C   0  0  0  0  0  0  0  0  0  0  0  0
   -1.9170    1.3542    1.9858 H   0  0  0  0  0  0  0  0  0  0  0  0
   -0.3810    1.8465    1.2618 H   0  0  0  0  0  0  0  0  0  0  0  0
   -2.0956    2.0646   -0.0302 C   0  0  0  0  0  0  0  0  0  0  0  0
   -1.5253    2.0387   -0.9592 H   0  0  0  0  0  0  0  0  0  0  0  0
   -3.0562    1.5703   -0.1866 H   0  0  0  0  0  0  0  0  0  0  0  0
   -2.3387    3.5273    0.3586 C   0  0  0  0  0  0  0  0  0  0  0  0
   -2.9020    3.5698    1.2913 H   0  0  0  0  0  0  0  0  0  0  0  0
   -1.3814    4.0318    0.4926 H   0  0  0  0  0  0  0  0  0  0  0  0
   -3.1313    4.2311   -0.7412 C   0  0  0  0  0  0  0  0  0  0  0  0
   -2.5624    4.2062   -1.6692 H   0  0  0  0  0  0  0  0  0  0  0  0
   -4.0801    3.7179   -0.8887 H   0  0  0  0  0  0  0  0  0  0  0  0
   -3.4025    5.6298   -0.3899 N   0  0  0  0  0  0  0  0  0  0  0  0
   -3.9139    6.0666   -1.1426 H   0  0  0  0  0  0  0  0  0  0  0  0
   -3.9576    5.6580    0.4535 H   0  0  0  0  0  0  0  0  0  0  0  0
   -0.0420   -0.7918    1.7180 C   0  0  0  0  0  0  0  0  0  0  0  0
    1.1526   -0.5050    1.6774 O   0  0  0  0  0  0  0  0  0  0  0  0
   -0.5463   -1.6663    2.5963 N   0  0  0  0  0  0  0  0  0  0  0  0
   -1.5383   -1.8369    2.5755 H   0  0  0  0  0  0  0  0  0  0  0  0
    0.2546   -2.3764    3.5924 C   0  0  0  0  0  0  0  0  0  0  0  0
    0.8123   -1.6582    4.1975 H   0  0  0  0  0  0  0  0  0  0  0  0
   -0.3884   -2.9720    4.2420 H   0  0  0  0  0  0  0  0  0  0  0  0
    0.9679   -3.0328    3.0897 H   0  0  0  0  0  0  0  0  0  0  0  0
  5  6  2  0  0  0  0
  5  7  1  0  0  0  0
  2  3  1  0  0  0  0
  2  4  1  0  0  0  0
  2  5  1  0  0  0  0
  1  2  1  0  0  0  0
 26 27  2  0  0  0  0
 26 28  1  0  0  0  0
 23 24  1  0  0  0  0
 23 25  1  0  0  0  0
 20 21  1  0  0  0  0
 20 22  1  0  0  0  0
 20 23  1  0  0  0  0
 17 18  1  0  0  0  0
 17 19  1  0  0  0  0
 17 20  1  0  0  0  0
 14 15  1  0  0  0  0
 14 16  1  0  0  0  0
 14 17  1  0  0  0  0
 11 12  1  0  0  0  0
 11 13  1  0  0  0  0
 11 14  1  0  0  0  0
  9 10  1  0  0  0  0
  9 11  1  0  0  0  0
  9 26  1  0  0  0  0
  7  8  1  0  0  0  0
  7  9  1  0  0  0  0
 30 31  1  0  0  0  0
 30 32  1  0  0  0  0
 30 33  1  0  0  0  0
 28 29  1  0  0  0  0
 28 30  1  0  0  0  0
M  END
$$$$
default_name
  -OEChem-01062215323D

 33 32  0     1  0  0  0  0  0999 V2000
   -3.8420   -3.6918    1.5562 H   0  0  0  0  0  0  0  0  0  0  0  0
   -3.8430   -2.7008    1.1032 C   0  0  0  0  0  0  0  0  0  0  0  0
   -4.5510   -2.0608    1.6242 H   0  0  0  0  0  0  0  0  0  0  0  0
   -4.1140   -2.7798    0.0522 H   0  0  0  0  0  0  0  0  0  0  0  0
   -2.4570   -2.1098    1.2172 C   0  0  0  0  0  0  0  0  0  0  0  0
   -1.5600   -2.7438    1.7572 O   0  0  0  0  0  0  0  0  0  0  0  0
   -2.2870   -0.8898    0.7102 N   0  0  0  0  0  0  0  0  0  0  0  0
   -3.0820   -0.4218    0.2992 H   0  0  0  0  0  0  0  0  0  0  0  0
   -1.0240   -0.1468    0.7262 C   0  0  1  0  0  0  0  0  0  0  0  0
   -0.5837   -0.1896   -0.2710 H   0  0  0  0  0  0  0  0  0  0  0  0
   -1.3204    1.3255    1.0717 C   0  0  0  0  0  0  0  0  0  0  0  0
   -1.9170    1.3542    1.9858 H   0  0  0  0  0  0  0  0  0  0  0  0
   -0.3810    1.8465    1.2618 H   0  0  0  0  0  0  0  0  0  0  0  0
   -2.0956    2.0646   -0.0302 C   0  0  0  0  0  0  0  0  0  0  0  0
   -1.5253    2.0387   -0.9592 H   0  0  0  0  0  0  0  0  0  0  0  0
   -3.0562    1.5703   -0.1866 H   0  0  0  0  0  0  0  0  0  0  0  0
   -2.3387    3.5273    0.3586 C   0  0  0  0  0  0  0  0  0  0  0  0
   -2.9020    3.5698    1.2913 H   0  0  0  0  0  0  0  0  0  0  0  0
   -1.3814    4.0318    0.4926 H   0  0  0  0  0  0  0  0  0  0  0  0
   -3.1313    4.2311   -0.7412 C   0  0  0  0  0  0  0  0  0  0  0  0
   -2.5624    4.2062   -1.6692 H   0  0  0  0  0  0  0  0  0  0  0  0
   -4.0801    3.7179   -0.8887 H   0  0  0  0  0  0  0  0  0  0  0  0
   -3.4025    5.6298   -0.3899 N   0  0  0  0  0  0  0  0  0  0  0  0
   -3.9139    6.0666   -1.1426 H   0  0  0  0  0  0  0  0  0  0  0  0
   -3.9576    5.6580    0.4535 H   0  0  0  0  0  0  0  0  0  0  0  0
   -0.0420   -0.7918    1.7180 C   0  0  0  0  0  0  0  0  0  0  0  0
    1.0818   -0.3175    1.8695 O   0  0  0  0  0  0  0  0  0  0  0  0
   -0.4652   -1.8746    2.3805 N   0  0  0  0  0  0  0  0  0  0  0  0
   -1.4052   -2.1934    2.2119 H   0  0  0  0  0  0  0  0  0  0  0  0
    0.3504   -2.6122    3.3441 C   0  0  0  0  0  0  0  0  0  0  0  0
    0.7132   -1.9318    4.1177 H   0  0  0  0  0  0  0  0  0  0  0  0
   -0.2362   -3.4060    3.8090 H   0  0  0  0  0  0  0  0  0  0  0  0
    1.2124   -3.0498    2.8365 H   0  0  0  0  0  0  0  0  0  0  0  0
  5  6  2  0  0  0  0
  5  7  1  0  0  0  0
  2  3  1  0  0  0  0
  2  4  1  0  0  0  0
  2  5  1  0  0  0  0
  1  2  1  0  0  0  0
 26 27  2  0  0  0  0
 26 28  1  0  0  0  0
 23 24  1  0  0  0  0
 23 25  1  0  0  0  0
 20 21  1  0  0  0  0
 20 22  1  0  0  0  0
 20 23  1  0  0  0  0
 17 18  1  0  0  0  0
 17 19  1  0  0  0  0
 17 20  1  0  0  0  0
 14 15  1  0  0  0  0
 14 16  1  0  0  0  0
 14 17  1  0  0  0  0
 11 12  1  0  0  0  0
 11 13  1  0  0  0  0
 11 14  1  0  0  0  0
  9 10  1  0  0  0  0
  9 11  1  0  0  0  0
  9 26  1  0  0  0  0
  7  8  1  0  0  0  0
  7  9  1  0  0  0  0
 30 31  1  0  0  0  0
 30 32  1  0  0  0  0
 30 33  1  0  0  0  0
 28 29  1  0  0  0  0
 28 30  1  0  0  0  0
M  END
$$$$
default_name
  -OEChem-01062215323D

 33 32  0     1  0  0  0  0  0999 V2000
   -3.8420   -3.6918    1.5562 H   0  0  0  0  0  0  0  0  0  0  0  0
   -3.8430   -2.7008    1.1032 C   0  0  0  0  0  0  0  0  0  0  0  0
   -4.5510   -2.0608    1.6242 H   0  0  0  0  0  0  0  0  0  0  0  0
   -4.1140   -2.7798    0.0522 H   0  0  0  0  0  0  0  0  0  0  0  0
   -2.4570   -2.1098    1.2172 C   0  0  0  0  0  0  0  0  0  0  0  0
   -1.5600   -2.7438    1.7572 O   0  0  0  0  0  0  0  0  0  0  0  0
   -2.2870   -0.8898    0.7102 N   0  0  0  0  0  0  0  0  0  0  0  0
   -3.0820   -0.4218    0.2992 H   0  0  0  0  0  0  0  0  0  0  0  0
   -1.0240   -0.1468    0.7262 C   0  0  1  0  0  0  0  0  0  0  0  0
   -0.5837   -0.1896   -0.2710 H   0  0  0  0  0  0  0  0  0  0  0  0
   -1.3204    1.3255    1.0717 C   0  0  0  0  0  0  0  0  0  0  0  0
   -1.9170    1.3542    1.9858 H   0  0  0  0  0  0  0  0  0  0  0  0
   -0.3810    1.8465    1.2618 H   0  0  0  0  0  0  0  0  0  0  0  0
   -2.0956    2.0646   -0.0302 C   0  0  0  0  0  0  0  0  0  0  0  0
   -1.5253    2.0387   -0.9592 H   0  0  0  0  0  0  0  0  0  0  0  0
   -3.0562    1.5703   -0.1866 H   0  0  0  0  0  0  0  0  0  0  0  0
   -2.3387    3.5273    0.3586 C   0  0  0  0  0  0  0  0  0  0  0  0
   -2.9020    3.5698    1.2913 H   0  0  0  0  0  0  0  0  0  0  0  0
   -1.3814    4.0318    0.4926 H   0  0  0  0  0  0  0  0  0  0  0  0
   -3.1313    4.2311   -0.7412 C   0  0  0  0  0  0  0  0  0  0  0  0
   -2.5624    4.2062   -1.6692 H   0  0  0  0  0  0  0  0  0  0  0  0
   -4.0801    3.7179   -0.8887 H   0  0  0  0  0  0  0  0  0  0  0  0
   -3.4025    5.6298   -0.3899 N   0  0  0  0  0  0  0  0  0  0  0  0
   -3.9139    6.0666   -1.1426 H   0  0  0  0  0  0  0  0  0  0  0  0
   -3.9576    5.6580    0.4535 H   0  0  0  0  0  0  0  0  0  0  0  0
   -0.0420   -0.7918    1.7180 C   0  0  0  0  0  0  0  0  0  0  0  0
    0.9613   -0.1799    2.0783 O   0  0  0  0  0  0  0  0  0  0  0  0
   -0.3286   -2.0266    2.1464 N   0  0  0  0  0  0  0  0  0  0  0  0
   -1.1776   -2.4553    1.8161 H   0  0  0  0  0  0  0  0  0  0  0  0
    0.5092   -2.7830    3.0758 C   0  0  0  0  0  0  0  0  0  0  0  0
    0.6718   -2.1995    3.9846 H   0  0  0  0  0  0  0  0  0  0  0  0
    0.0303   -3.7281    3.3355 H   0  0  0  0  0  0  0  0  0  0  0  0
    1.4790   -2.9837    2.6157 H   0  0  0  0  0  0  0  0  0  0  0  0
  5  6  2  0  0  0  0
  5  7  1  0  0  0  0
  2  3  1  0  0  0  0
  2  4  1  0  0  0  0
  2  5  1  0  0  0  0
  1  2  1  0  0  0  0
 26 27  2  0  0  0  0
 26 28  1  0  0  0  0
 23 24  1  0  0  0  0
 23 25  1  0  0  0  0
 20 21  1  0  0  0  0
 20 22  1  0  0  0  0
 20 23  1  0  0  0  0
 17 18  1  0  0  0  0
 17 19  1  0  0  0  0
 17 20  1  0  0  0  0
 14 15  1  0  0  0  0
 14 16  1  0  0  0  0
 14 17  1  0  0  0  0
 11 12  1  0  0  0  0
 11 13  1  0  0  0  0
 11 14  1  0  0  0  0
  9 10  1  0  0  0  0
  9 11  1  0  0  0  0
  9 26  1  0  0  0  0
  7  8  1  0  0  0  0
  7  9  1  0  0  0  0
 30 31  1  0  0  0  0
 30 32  1  0  0  0  0
 30 33  1  0  0  0  0
 28 29  1  0  0  0  0
 28 30  1  0  0  0  0
M  END
$$$$
default_name
  -OEChem-01062215323D

 33 32  0     1  0  0  0  0  0999 V2000
   -3.8420   -3.6918    1.5562 H   0  0  0  0  0  0  0  0  0  0  0  0
   -3.8430   -2.7008    1.1032 C   0  0  0  0  0  0  0  0  0  0  0  0
   -4.5510   -2.0608    1.6242 H   0  0  0  0  0  0  0  0  0  0  0  0
   -4.1140   -2.7798    0.0522 H   0  0  0  0  0  0  0  0  0  0  0  0
   -2.4570   -2.1098    1.2172 C   0  0  0  0  0  0  0  0  0  0  0  0
   -1.5600   -2.7438    1.7572 O   0  0  0  0  0  0  0  0  0  0  0  0
   -2.2870   -0.8898    0.7102 N   0  0  0  0  0  0  0  0  0  0  0  0
   -3.0820   -0.4218    0.2992 H   0  0  0  0  0  0  0  0  0  0  0  0
   -1.0240   -0.1468    0.7262 C   0  0  1  0  0  0  0  0  0  0  0  0
   -0.5837   -0.1896   -0.2710 H   0  0  0  0  0  0  0  0  0  0  0  0
   -1.3204    1.3255    1.0717 C   0  0  0  0  0  0  0  0  0  0  0  0
   -1.9170    1.3542    1.9858 H   0  0  0  0  0  0  0  0  0  0  0  0
   -0.3810    1.8465    1.2618 H   0  0  0  0  0  0  0  0  0  0  0  0
   -2.0956    2.0646   -0.0302 C   0  0  0  0  0  0  0  0  0  0  0  0
   -1.5253    2.0387   -0.9592 H   0  0  0  0  0  0  0  0  0  0  0  0
   -3.0562    1.5703   -0.1866 H   0  0  0  0  0  0  0  0  0  0  0  0
   -2.3387    3.5273    0.3586 C   0  0  0  0  0  0  0  0  0  0  0  0
   -2.9020    3.5698    1.2913 H   0  0  0  0  0  0  0  0  0  0  0  0
   -1.3814    4.0318    0.4926 H   0  0  0  0  0  0  0  0  0  0  0  0
   -3.1313    4.2311   -0.7412 C   0  0  0  0  0  0  0  0  0  0  0  0
   -2.5624    4.2062   -1.6692 H   0  0  0  0  0  0  0  0  0  0  0  0
   -4.0801    3.7179   -0.8887 H   0  0  0  0  0  0  0  0  0  0  0  0
   -3.4025    5.6298   -0.3899 N   0  0  0  0  0  0  0  0  0  0  0  0
   -3.9139    6.0666   -1.1426 H   0  0  0  0  0  0  0  0  0  0  0  0
   -3.9576    5.6580    0.4535 H   0  0  0  0  0  0  0  0  0  0  0  0
   -0.0420   -0.7918    1.7180 C   0  0  0  0  0  0  0  0  0  0  0  0
    0.7992   -0.1016    2.2897 O   0  0  0  0  0  0  0  0  0  0  0  0
   -0.1459   -2.1119    1.9100 N   0  0  0  0  0  0  0  0  0  0  0  0
   -0.8710   -2.6050    1.4153 H   0  0  0  0  0  0  0  0  0  0  0  0
    0.7203   -2.8770    2.8056 C   0  0  0  0  0  0  0  0  0  0  0  0
    0.6909   -2.4429    3.8074 H   0  0  0  0  0  0  0  0  0  0  0  0
    0.3930   -3.9166    2.8539 H   0  0  0  0  0  0  0  0  0  0  0  0
    1.7494   -2.8388    2.4422 H   0  0  0  0  0  0  0  0  0  0  0  0
  5  6  2  0  0  0  0
  5  7  1  0  0  0  0
  2  3  1  0  0  0  0
  2  4  1  0  0  0  0
  2  5  1  0  0  0  0
  1  2  1  0  0  0  0
 26 27  2  0  0  0  0
 26 28  1  0  0  0  0
 23 24  1  0  0  0  0
 23 25  1  0  0  0  0
 20 21  1  0  0  0  0
 20 22  1  0  0  0  0
 20 23  1  0  0  0  0
 17 18  1  0  0  0  0
 17 19  1  0  0  0  0
 17 20  1  0  0  0  0
 14 15  1  0  0  0  0
 14 16  1  0  0  0  0
 14 17  1  0  0  0  0
 11 12  1  0  0  0  0
 11 13  1  0  0  0  0
 11 14  1  0  0  0  0
  9 10  1  0  0  0  0
  9 11  1  0  0  0  0
  9 26  1  0  0  0  0
  7  8  1  0  0  0  0
  7  9  1  0  0  0  0
 30 31  1  0  0  0  0
 30 32  1  0  0  0  0
 30 33  1  0  0  0  0
 28 29  1  0  0  0  0
 28 30  1  0  0  0  0
M  END
$$$$
default_name
  -OEChem-01062215323D

 33 32  0     1  0  0  0  0  0999 V2000
   -3.8420   -3.6918    1.5562 H   0  0  0  0  0  0  0  0  0  0  0  0
   -3.8430   -2.7008    1.1032 C   0  0  0  0  0  0  0  0  0  0  0  0
   -4.5510   -2.0608    1.6242 H   0  0  0  0  0  0  0  0  0  0  0  0
   -4.1140   -2.7798    0.0522 H   0  0  0  0  0  0  0  0  0  0  0  0
   -2.4570   -2.1098    1.2172 C   0  0  0  0  0  0  0  0  0  0  0  0
   -1.5600   -2.7438    1.7572 O   0  0  0  0  0  0  0  0  0  0  0  0
   -2.2870   -0.8898    0.7102 N   0  0  0  0  0  0  0  0  0  0  0  0
   -3.0820   -0.4218    0.2992 H   0  0  0  0  0  0  0  0  0  0  0  0
   -1.0240   -0.1468    0.7262 C   0  0  1  0  0  0  0  0  0  0  0  0
   -0.5837   -0.1896   -0.2710 H   0  0  0  0  0  0  0  0  0  0  0  0
   -1.3204    1.3255    1.0717 C   0  0  0  0  0  0  0  0  0  0  0  0
   -1.9170    1.3542    1.9858 H   0  0  0  0  0  0  0  0  0  0  0  0
   -0.3810    1.8465    1.2618 H   0  0  0  0  0  0  0  0  0  0  0  0
   -2.0956    2.0646   -0.0302 C   0  0  0  0  0  0  0  0  0  0  0  0
   -1.5253    2.0387   -0.9592 H   0  0  0  0  0  0  0  0  0  0  0  0
   -3.0562    1.5703   -0.1866 H   0  0  0  0  0  0  0  0  0  0  0  0
   -2.3387    3.5273    0.3586 C   0  0  0  0  0  0  0  0  0  0  0  0
   -2.9020    3.5698    1.2913 H   0  0  0  0  0  0  0  0  0  0  0  0
   -1.3814    4.0318    0.4926 H   0  0  0  0  0  0  0  0  0  0  0  0
   -3.1313    4.2311   -0.7412 C   0  0  0  0  0  0  0  0  0  0  0  0
   -2.5624    4.2062   -1.6692 H   0  0  0  0  0  0  0  0  0  0  0  0
   -4.0801    3.7179   -0.8887 H   0  0  0  0  0  0  0  0  0  0  0  0
   -3.4025    5.6298   -0.3899 N   0  0  0  0  0  0  0  0  0  0  0  0
   -3.9139    6.0666   -1.1426 H   0  0  0  0  0  0  0  0  0  0  0  0
   -3.9576    5.6580    0.4535 H   0  0  0  0  0  0  0  0  0  0  0  0
   -0.0420   -0.7918    1.7180 C   0  0  0  0  0  0  0  0  0  0  0  0
    0.6067   -0.0880    2.4892 O   0  0  0  0  0  0  0  0  0  0  0  0
    0.0705   -2.1248    1.6874 N   0  0  0  0  0  0  0  0  0  0  0  0
   -0.5064   -2.6321    1.0367 H   0  0  0  0  0  0  0  0  0  0  0  0
    0.9693   -2.8880    2.5519 C   0  0  0  0  0  0  0  0  0  0  0  0
    0.7693   -2.6455    3.5980 H   0  0  0  0  0  0  0  0  0  0  0  0
    0.8270   -3.9585    2.3969 H   0  0  0  0  0  0  0  0  0  0  0  0
    2.0052   -2.6250    2.3280 H   0  0  0  0  0  0  0  0  0  0  0  0
  5  6  2  0  0  0  0
  5  7  1  0  0  0  0
  2  3  1  0  0  0  0
  2  4  1  0  0  0  0
  2  5  1  0  0  0  0
  1  2  1  0  0  0  0
 26 27  2  0  0  0  0
 26 28  1  0  0  0  0
 23 24  1  0  0  0  0
 23 25  1  0  0  0  0
 20 21  1  0  0  0  0
 20 22  1  0  0  0  0
 20 23  1  0  0  0  0
 17 18  1  0  0  0  0
 17 19  1  0  0  0  0
 17 20  1  0  0  0  0
 14 15  1  0  0  0  0
 14 16  1  0  0  0  0
 14 17  1  0  0  0  0
 11 12  1  0  0  0  0
 11 13  1  0  0  0  0
 11 14  1  0  0  0  0
  9 10  1  0  0  0  0
  9 11  1  0  0  0  0
  9 26  1  0  0  0  0
  7  8  1  0  0  0  0
  7  9  1  0  0  0  0
 30 31  1  0  0  0  0
 30 32  1  0  0  0  0
 30 33  1  0  0  0  0
 28 29  1  0  0  0  0
 28 30  1  0  0  0  0
M  END
$$$$
default_name
  -OEChem-01062215323D

 33 32  0     1  0  0  0  0  0999 V2000
   -3.8420   -3.6918    1.5562 H   0  0  0  0  0  0  0  0  0  0  0  0
   -3.8430   -2.7008    1.1032 C   0  0  0  0  0  0  0  0  0  0  0  0
   -4.5510   -2.0608    1.6242 H   0  0  0  0  0  0  0  0  0  0  0  0
   -4.1140   -2.7798    0.0522 H   0  0  0  0  0  0  0  0  0  0  0  0
   -2.4570   -2.1098    1.2172 C   0  0  0  0  0  0  0  0  0  0  0  0
   -1.5600   -2.7438    1.7572 O   0  0  0  0  0  0  0  0  0  0  0  0
   -2.2870   -0.8898    0.7102 N   0  0  0  0  0  0  0  0  0  0  0  0
   -3.0820   -0.4218    0.2992 H   0  0  0  0  0  0  0  0  0  0  0  0
   -1.0240   -0.1468    0.7262 C   0  0  1  0  0  0  0  0  0  0  0  0
   -0.5837   -0.1896   -0.2710 H   0  0  0  0  0  0  0  0  0  0  0  0
   -1.3204    1.3255    1.0717 C   0  0  0  0  0  0  0  0  0  0  0  0
   -1.9170    1.3542    1.9858 H   0  0  0  0  0  0  0  0  0  0  0  0
   -0.3810    1.8465    1.2618 H   0  0  0  0  0  0  0  0  0  0  0  0
   -2.0956    2.0646   -0.0302 C   0  0  0  0  0  0  0  0  0  0  0  0
   -1.5253    2.0387   -0.9592 H   0  0  0  0  0  0  0  0  0  0  0  0
   -3.0562    1.5703   -0.1866 H   0  0  0  0  0  0  0  0  0  0  0  0
   -2.3387    3.5273    0.3586 C   0  0  0  0  0  0  0  0  0  0  0  0
   -2.9020    3.5698    1.2913 H   0  0  0  0  0  0  0  0  0  0  0  0
   -1.3814    4.0318    0.4926 H   0  0  0  0  0  0  0  0  0  0  0  0
   -3.1313    4.2311   -0.7412 C   0  0  0  0  0  0  0  0  0  0  0  0
   -2.5624    4.2062   -1.6692 H   0  0  0  0  0  0  0  0  0  0  0  0
   -4.0801    3.7179   -0.8887 H   0  0  0  0  0  0  0  0  0  0  0  0
   -3.4025    5.6298   -0.3899 N   0  0  0  0  0  0  0  0  0  0  0  0
   -3.9139    6.0666   -1.1426 H   0  0  0  0  0  0  0  0  0  0  0  0
   -3.9576    5.6580    0.4535 H   0  0  0  0  0  0  0  0  0  0  0  0
   -0.0420   -0.7918    1.7180 C   0  0  0  0  0  0  0  0  0  0  0  0
    0.3967   -0.1400    2.6632 O   0  0  0  0  0  0  0  0  0  0  0  0
    0.3058   -2.0643    1.4937 N   0  0  0  0  0  0  0  0  0  0  0  0
   -0.1086   -2.5348    0.7060 H   0  0  0  0  0  0  0  0  0  0  0  0
    1.2391   -2.8151    2.3322 C   0  0  0  0  0  0  0  0  0  0  0  0
    0.9016   -2.7935    3.3707 H   0  0  0  0  0  0  0  0  0  0  0  0
    1.3028   -3.8509    1.9957 H   0  0  0  0  0  0  0  0  0  0  0  0
    2.2290   -2.3569    2.2807 H   0  0  0  0  0  0  0  0  0  0  0  0
  5  6  2  0  0  0  0
  5  7  1  0  0  0  0
  2  3  1  0  0  0  0
  2  4  1  0  0  0  0
  2  5  1  0  0  0  0
  1  2  1  0  0  0  0
 26 27  2  0  0  0  0
 26 28  1  0  0  0  0
 23 24  1  0  0  0  0
 23 25  1  0  0  0  0
 20 21  1  0  0  0  0
 20 22  1  0  0  0  0
 20 23  1  0  0  0  0
 17 18  1  0  0  0  0
 17 19  1  0  0  0  0
 17 20  1  0  0  0  0
 14 15  1  0  0  0  0
 14 16  1  0  0  0  0
 14 17  1  0  0  0  0
 11 12  1  0  0  0  0
 11 13  1  0  0  0  0
 11 14  1  0  0  0  0
  9 10  1  0  0  0  0
  9 11  1  0  0  0  0
  9 26  1  0  0  0  0
  7  8  1  0  0  0  0
  7  9  1  0  0  0  0
 30 31  1  0  0  0  0
 30 32  1  0  0  0  0
 30 33  1  0  0  0  0
 28 29  1  0  0  0  0
 28 30  1  0  0  0  0
M  END
$$$$
default_name
  -OEChem-01062215323D

 33 32  0     1  0  0  0  0  0999 V2000
   -3.8420   -3.6918    1.5562 H   0  0  0  0  0  0  0  0  0  0  0  0
   -3.8430   -2.7008    1.1032 C   0  0  0  0  0  0  0  0  0  0  0  0
   -4.5510   -2.0608    1.6242 H   0  0  0  0  0  0  0  0  0  0  0  0
   -4.1140   -2.7798    0.0522 H   0  0  0  0  0  0  0  0  0  0  0  0
   -2.4570   -2.1098    1.2172 C   0  0  0  0  0  0  0  0  0  0  0  0
   -1.5600   -2.7438    1.7572 O   0  0  0  0  0  0  0  0  0  0  0  0
   -2.2870   -0.8898    0.7102 N   0  0  0  0  0  0  0  0  0  0  0  0
   -3.0820   -0.4218    0.2992 H   0  0  0  0  0  0  0  0  0  0  0  0
   -1.0240   -0.1468    0.7262 C   0  0  1  0  0  0  0  0  0  0  0  0
   -0.5837   -0.1896   -0.2710 H   0  0  0  0  0  0  0  0  0  0  0  0
   -1.3204    1.3255    1.0717 C   0  0  0  0  0  0  0  0  0  0  0  0
   -1.9170    1.3542    1.9858 H   0  0  0  0  0  0  0  0  0  0  0  0
   -0.3810    1.8465    1.2618 H   0  0  0  0  0  0  0  0  0  0  0  0
   -2.0956    2.0646   -0.0302 C   0  0  0  0  0  0  0  0  0  0  0  0
   -1.5253    2.0387   -0.9592 H   0  0  0  0  0  0  0  0  0  0  0  0
   -3.0562    1.5703   -0.1866 H   0  0  0  0  0  0  0  0  0  0  0  0
   -2.3387    3.5273    0.3586 C   0  0  0  0  0  0  0  0  0  0  0  0
   -2.9020    3.5698    1.2913 H   0  0  0  0  0  0  0  0  0  0  0  0
   -1.3814    4.0318    0.4926 H   0  0  0  0  0  0  0  0  0  0  0  0
   -3.1313    4.2311   -0.7412 C   0  0  0  0  0  0  0  0  0  0  0  0
   -2.5624    4.2062   -1.6692 H   0  0  0  0  0  0  0  0  0  0  0  0
   -4.0801    3.7179   -0.8887 H   0  0  0  0  0  0  0  0  0  0  0  0
   -3.4025    5.6298   -0.3899 N   0  0  0  0  0  0  0  0  0  0  0  0
   -3.9139    6.0666   -1.1426 H   0  0  0  0  0  0  0  0  0  0  0  0
   -3.9576    5.6580    0.4535 H   0  0  0  0  0  0  0  0  0  0  0  0
   -0.0420   -0.7918    1.7180 C   0  0  0  0  0  0  0  0  0  0  0  0
    0.1837   -0.2540    2.8000 O   0  0  0  0  0  0  0  0  0  0  0  0
    0.5440   -1.9345    1.3422 N   0  0  0  0  0  0  0  0  0  0  0  0
    0.2953   -2.3198    0.4459 H   0  0  0  0  0  0  0  0  0  0  0  0
    1.5115   -2.6633    2.1613 C   0  0  0  0  0  0  0  0  0  0  0  0
    1.0787   -2.8769    3.1411 H   0  0  0  0  0  0  0  0  0  0  0  0
    1.7881   -3.6012    1.6777 H   0  0  0  0  0  0  0  0  0  0  0  0
    2.4055   -2.0528    2.3037 H   0  0  0  0  0  0  0  0  0  0  0  0
  5  6  2  0  0  0  0
  5  7  1  0  0  0  0
  2  3  1  0  0  0  0
  2  4  1  0  0  0  0
  2  5  1  0  0  0  0
  1  2  1  0  0  0  0
 26 27  2  0  0  0  0
 26 28  1  0  0  0  0
 23 24  1  0  0  0  0
 23 25  1  0  0  0  0
 20 21  1  0  0  0  0
 20 22  1  0  0  0  0
 20 23  1  0  0  0  0
 17 18  1  0  0  0  0
 17 19  1  0  0  0  0
 17 20  1  0  0  0  0
 14 15  1  0  0  0  0
 14 16  1  0  0  0  0
 14 17  1  0  0  0  0
 11 12  1  0  0  0  0
 11 13  1  0  0  0  0
 11 14  1  0  0  0  0
  9 10  1  0  0  0  0
  9 11  1  0  0  0  0
  9 26  1  0  0  0  0
  7  8  1  0  0  0  0
  7  9  1  0  0  0  0
 30 31  1  0  0  0  0
 30 32  1  0  0  0  0
 30 33  1  0  0  0  0
 28 29  1  0  0  0  0
 28 30  1  0  0  0  0
M  END
$$$$
default_name
  -OEChem-01062215323D

 33 32  0     1  0  0  0  0  0999 V2000
   -3.8420   -3.6918    1.5562 H   0  0  0  0  0  0  0  0  0  0  0  0
   -3.8430   -2.7008    1.1032 C   0  0  0  0  0  0  0  0  0  0  0  0
   -4.5510   -2.0608    1.6242 H   0  0  0  0  0  0  0  0  0  0  0  0
   -4.1140   -2.7798    0.0522 H   0  0  0  0  0  0  0  0  0  0  0  0
   -2.4570   -2.1098    1.2172 C   0  0  0  0  0  0  0  0  0  0  0  0
   -1.5600   -2.7438    1.7572 O   0  0  0  0  0  0  0  0  0  0  0  0
   -2.2870   -0.8898    0.7102 N   0  0  0  0  0  0  0  0  0  0  0  0
   -3.0820   -0.4218    0.2992 H   0  0  0  0  0  0  0  0  0  0  0  0
   -1.0240   -0.1468    0.7262 C   0  0  1  0  0  0  0  0  0  0  0  0
   -0.5837   -0.1896   -0.2710 H   0  0  0  0  0  0  0  0  0  0  0  0
   -1.3204    1.3255    1.0717 C   0  0  0  0  0  0  0  0  0  0  0  0
   -1.9170    1.3542    1.9858 H   0  0  0  0  0  0  0  0  0  0  0  0
   -0.3810    1.8465    1.2618 H   0  0  0  0  0  0  0  0  0  0  0  0
   -2.0956    2.0646   -0.0302 C   0  0  0  0  0  0  0  0  0  0  0  0
   -1.5253    2.0387   -0.9592 H   0  0  0  0  0  0  0  0  0  0  0  0
   -3.0562    1.5703   -0.1866 H   0  0  0  0  0  0  0  0  0  0  0  0
   -2.3387    3.5273    0.3586 C   0  0  0  0  0  0  0  0  0  0  0  0
   -2.9020    3.5698    1.2913 H   0  0  0  0  0  0  0  0  0  0  0  0
   -1.3814    4.0318    0.4926 H   0  0  0  0  0  0  0  0  0  0  0  0
   -3.1313    4.2311   -0.7412 C   0  0  0  0  0  0  0  0  0  0  0  0
   -2.5624    4.2062   -1.6692 H   0  0  0  0  0  0  0  0  0  0  0  0
   -4.0801    3.7179   -0.8887 H   0  0  0  0  0  0  0  0  0  0  0  0
   -3.4025    5.6298   -0.3899 N   0  0  0  0  0  0  0  0  0  0  0  0
   -3.9139    6.0666   -1.1426 H   0  0  0  0  0  0  0  0  0  0  0  0
   -3.9576    5.6580    0.4535 H   0  0  0  0  0  0  0  0  0  0  0  0
   -0.0420   -0.7918    1.7180 C   0  0  0  0  0  0  0  0  0  0  0  0
   -0.0178   -0.4223    2.8901 O   0  0  0  0  0  0  0  0  0  0  0  0
    0.7689   -1.7444    1.2432 N   0  0  0  0  0  0  0  0  0  0  0  0
    0.6778   -2.0016    0.2741 H   0  0  0  0  0  0  0  0  0  0  0  0
    1.7677   -2.4429    2.0508 C   0  0  0  0  0  0  0  0  0  0  0  0
    1.2887   -2.8898    2.9248 H   0  0  0  0  0  0  0  0  0  0  0  0
    2.2497   -3.2265    1.4644 H   0  0  0  0  0  0  0  0  0  0  0  0
    2.5228   -1.7333    2.3954 H   0  0  0  0  0  0  0  0  0  0  0  0
  5  6  2  0  0  0  0
  5  7  1  0  0  0  0
  2  3  1  0  0  0  0
  2  4  1  0  0  0  0
  2  5  1  0  0  0  0
  1  2  1  0  0  0  0
 26 27  2  0  0  0  0
 26 28  1  0  0  0  0
 23 24  1  0  0  0  0
 23 25  1  0  0  0  0
 20 21  1  0  0  0  0
 20 22  1  0  0  0  0
 20 23  1  0  0  0  0
 17 18  1  0  0  0  0
 17 19  1  0  0  0  0
 17 20  1  0  0  0  0
 14 15  1  0  0  0  0
 14 16  1  0  0  0  0
 14 17  1  0  0  0  0
 11 12  1  0  0  0  0
 11 13  1  0  0  0  0
 11 14  1  0  0  0  0
  9 10  1  0  0  0  0
  9 11  1  0  0  0  0
  9 26  1  0  0  0  0
  7  8  1  0  0  0  0
  7  9  1  0  0  0  0
 30 31  1  0  0  0  0
 30 32  1  0  0  0  0
 30 33  1  0  0  0  0
 28 29  1  0  0  0  0
 28 30  1  0  0  0  0
M  END
$$$$
default_name
  -OEChem-01062215323D

 33 32  0     1  0  0  0  0  0999 V2000
   -3.8420   -3.6918    1.5562 H   0  0  0  0  0  0  0  0  0  0  0  0
   -3.8430   -2.7008    1.1032 C   0  0  0  0  0  0  0  0  0  0  0  0
   -4.5510   -2.0608    1.6242 H   0  0  0  0  0  0  0  0  0  0  0  0
   -4.1140   -2.7798    0.0522 H   0  0  0  0  0  0  0  0  0  0  0  0
   -2.4570   -2.1098    1.2172 C   0  0  0  0  0  0  0  0  0  0  0  0
   -1.5600   -2.7438    1.7572 O   0  0  0  0  0  0  0  0  0  0  0  0
   -2.2870   -0.8898    0.7102 N   0  0  0  0  0  0  0  0  0  0  0  0
   -3.0820   -0.4218    0.2992 H   0  0  0  0  0  0  0  0  0  0  0  0
   -1.0240   -0.1468    0.7262 C   0  0  1  0  0  0  0  0  0  0  0  0
   -0.5837   -0.1896   -0.2710 H   0  0  0  0  0  0  0  0  0  0  0  0
   -1.3204    1.3255    1.0717 C   0  0  0  0  0  0  0  0  0  0  0  0
   -1.9170    1.3542    1.9858 H   0  0  0  0  0  0  0  0  0  0  0  0
   -0.3810    1.8465    1.2618 H   0  0  0  0  0  0  0  0  0  0  0  0
   -2.0956    2.0646   -0.0302 C   0  0  0  0  0  0  0  0  0  0  0  0
   -1.5253    2.0387   -0.9592 H   0  0  0  0  0  0  0  0  0  0  0  0
   -3.0562    1.5703   -0.1866 H   0  0  0  0  0  0  0  0  0  0  0  0
   -2.3387    3.5273    0.3586 C   0  0  0  0  0  0  0  0  0  0  0  0
   -2.9020    3.5698    1.2913 H   0  0  0  0  0  0  0  0  0  0  0  0
   -1.3814    4.0318    0.4926 H   0  0  0  0  0  0  0  0  0  0  0  0
   -3.1313    4.2311   -0.7412 C   0  0  0  0  0  0  0  0  0  0  0  0
   -2.5624    4.2062   -1.6692 H   0  0  0  0  0  0  0  0  0  0  0  0
   -4.0801    3.7179   -0.8887 H   0  0  0  0  0  0  0  0  0  0  0  0
   -3.4025    5.6298   -0.3899 N   0  0  0  0  0  0  0  0  0  0  0  0
   -3.9139    6.0666   -1.1426 H   0  0  0  0  0  0  0  0  0  0  0  0
   -3.9576    5.6580    0.4535 H   0  0  0  0  0  0  0  0  0  0  0  0
   -0.0420   -0.7918    1.7180 C   0  0  0  0  0  0  0  0  0  0  0  0
   -0.1942   -0.6334    2.9274 O   0  0  0  0  0  0  0  0  0  0  0  0
    0.9652   -1.5068    1.2034 N   0  0  0  0  0  0  0  0  0  0  0  0
    1.0128   -1.6021    0.2023 H   0  0  0  0  0  0  0  0  0  0  0  0
    1.9905   -2.1691    2.0084 C   0  0  0  0  0  0  0  0  0  0  0  0
    1.5172   -2.8315    2.7365 H   0  0  0  0  0  0  0  0  0  0  0  0
    2.6561   -2.7522    1.3704 H   0  0  0  0  0  0  0  0  0  0  0  0
    2.5728   -1.4203    2.5495 H   0  0  0  0  0  0  0  0  0  0  0  0
  5  6  2  0  0  0  0
  5  7  1  0  0  0  0
  2  3  1  0  0  0  0
  2  4  1  0  0  0  0
  2  5  1  0  0  0  0
  1  2  1  0  0  0  0
 26 27  2  0  0  0  0
 26 28  1  0  0  0  0
 23 24  1  0  0  0  0
 23 25  1  0  0  0  0
 20 21  1  0  0  0  0
 20 22  1  0  0  0  0
 20 23  1  0  0  0  0
 17 18  1  0  0  0  0
 17 19  1  0  0  0  0
 17 20  1  0  0  0  0
 14 15  1  0  0  0  0
 14 16  1  0  0  0  0
 14 17  1  0  0  0  0
 11 12  1  0  0  0  0
 11 13  1  0  0  0  0
 11 14  1  0  0  0  0
  9 10  1  0  0  0  0
  9 11  1  0  0  0  0
  9 26  1  0  0  0  0
  7  8  1  0  0  0  0
  7  9  1  0  0  0  0
 30 31  1  0  0  0  0
 30 32  1  0  0  0  0
 30 33  1  0  0  0  0
 28 29  1  0  0  0  0
 28 30  1  0  0  0  0
M  END
$$$$
default_name
  -OEChem-01062215323D

 33 32  0     1  0  0  0  0  0999 V2000
   -3.8420   -3.6918    1.5562 H   0  0  0  0  0  0  0  0  0  0  0  0
   -3.8430   -2.7008    1.1032 C   0  0  0  0  0  0  0  0  0  0  0  0
   -4.5510   -2.0608    1.6242 H   0  0  0  0  0  0  0  0  0  0  0  0
   -4.1140   -2.7798    0.0522 H   0  0  0  0  0  0  0  0  0  0  0  0
   -2.4570   -2.1098    1.2172 C   0  0  0  0  0  0  0  0  0  0  0  0
   -1.5600   -2.7438    1.7572 O   0  0  0  0  0  0  0  0  0  0  0  0
   -2.2870   -0.8898    0.7102 N   0  0  0  0  0  0  0  0  0  0  0  0
   -3.0820   -0.4218    0.2992 H   0  0  0  0  0  0  0  0  0  0  0  0
   -1.0240   -0.1468    0.7262 C   0  0  1  0  0  0  0  0  0  0  0  0
   -0.5837   -0.1896   -0.2710 H   0  0  0  0  0  0  0  0  0  0  0  0
   -1.3204    1.3255    1.0717 C   0  0  0  0  0  0  0  0  0  0  0  0
   -1.9170    1.3542    1.9858 H   0  0  0  0  0  0  0  0  0  0  0  0
   -0.3810    1.8465    1.2618 H   0  0  0  0  0  0  0  0  0  0  0  0
   -2.0956    2.0646   -0.0302 C   0  0  0  0  0  0  0  0  0  0  0  0
   -1.5253    2.0387   -0.9592 H   0  0  0  0  0  0  0  0  0  0  0  0
   -3.0562    1.5703   -0.1866 H   0  0  0  0  0  0  0  0  0  0  0  0
   -2.3387    3.5273    0.3586 C   0  0  0  0  0  0  0  0  0  0  0  0
   -2.9020    3.5698    1.2913 H   0  0  0  0  0  0  0  0  0  0  0  0
   -1.3814    4.0318    0.4926 H   0  0  0  0  0  0  0  0  0  0  0  0
   -3.1313    4.2311   -0.7412 C   0  0  0  0  0  0  0  0  0  0  0  0
   -2.5624    4.2062   -1.6692 H   0  0  0  0  0  0  0  0  0  0  0  0
   -4.0801    3.7179   -0.8887 H   0  0  0  0  0  0  0  0  0  0  0  0
   -3.4025    5.6298   -0.3899 N   0  0  0  0  0  0  0  0  0  0  0  0
   -3.9139    6.0666   -1.1426 H   0  0  0  0  0  0  0  0  0  0  0  0
   -3.9576    5.6580    0.4535 H   0  0  0  0  0  0  0  0  0  0  0  0
   -0.0420   -0.7918    1.7180 C   0  0  0  0  0  0  0  0  0  0  0  0
   -0.3333   -0.8730    2.9094 O   0  0  0  0  0  0  0  0  0  0  0  0
    1.1194   -1.2380    1.2256 N   0  0  0  0  0  0  0  0  0  0  0  0
    1.2775   -1.1483    0.2353 H   0  0  0  0  0  0  0  0  0  0  0  0
    2.1645   -1.8603    2.0369 C   0  0  0  0  0  0  0  0  0  0  0  0
    1.7486   -2.7059    2.5890 H   0  0  0  0  0  0  0  0  0  0  0  0
    2.9797   -2.2107    1.4022 H   0  0  0  0  0  0  0  0  0  0  0  0
    2.5521   -1.1351    2.7554 H   0  0  0  0  0  0  0  0  0  0  0  0
  5  6  2  0  0  0  0
  5  7  1  0  0  0  0
  2  3  1  0  0  0  0
  2  4  1  0  0  0  0
  2  5  1  0  0  0  0
  1  2  1  0  0  0  0
 26 27  2  0  0  0  0
 26 28  1  0  0  0  0
 23 24  1  0  0  0  0
 23 25  1  0  0  0  0
 20 21  1  0  0  0  0
 20 22  1  0  0  0  0
 20 23  1  0  0  0  0
 17 18  1  0  0  0  0
 17 19  1  0  0  0  0
 17 20  1  0  0  0  0
 14 15  1  0  0  0  0
 14 16  1  0  0  0  0
 14 17  1  0  0  0  0
 11 12  1  0  0  0  0
 11 13  1  0  0  0  0
 11 14  1  0  0  0  0
  9 10  1  0  0  0  0
  9 11  1  0  0  0  0
  9 26  1  0  0  0  0
  7  8  1  0  0  0  0
  7  9  1  0  0  0  0
 30 31  1  0  0  0  0
 30 32  1  0  0  0  0
 30 33  1  0  0  0  0
 28 29  1  0  0  0  0
 28 30  1  0  0  0  0
M  END
$$$$
default_name
  -OEChem-01062215323D

 33 32  0     1  0  0  0  0  0999 V2000
   -3.8420   -3.6918    1.5562 H   0  0  0  0  0  0  0  0  0  0  0  0
   -3.8430   -2.7008    1.1032 C   0  0  0  0  0  0  0  0  0  0  0  0
   -4.5510   -2.0608    1.6242 H   0  0  0  0  0  0  0  0  0  0  0  0
   -4.1140   -2.7798    0.0522 H   0  0  0  0  0  0  0  0  0  0  0  0
   -2.4570   -2.1098    1.2172 C   0  0  0  0  0  0  0  0  0  0  0  0
   -1.5600   -2.7438    1.7572 O   0  0  0  0  0  0  0  0  0  0  0  0
   -2.2870   -0.8898    0.7102 N   0  0  0  0  0  0  0  0  0  0  0  0
   -3.0820   -0.4218    0.2992 H   0  0  0  0  0  0  0  0  0  0  0  0
   -1.0240   -0.1468    0.7262 C   0  0  1  0  0  0  0  0  0  0  0  0
   -0.5837   -0.1896   -0.2710 H   0  0  0  0  0  0  0  0  0  0  0  0
   -1.3204    1.3255    1.0717 C   0  0  0  0  0  0  0  0  0  0  0  0
   -1.9170    1.3542    1.9858 H   0  0  0  0  0  0  0  0  0  0  0  0
   -0.3810    1.8465    1.2618 H   0  0  0  0  0  0  0  0  0  0  0  0
   -2.0956    2.0646   -0.0302 C   0  0  0  0  0  0  0  0  0  0  0  0
   -1.5253    2.0387   -0.9592 H   0  0  0  0  0  0  0  0  0  0  0  0
   -3.0562    1.5703   -0.1866 H   0  0  0  0  0  0  0  0  0  0  0  0
   -2.3387    3.5273    0.3586 C   0  0  0  0  0  0  0  0  0  0  0  0
   -2.9020    3.5698    1.2913 H   0  0  0  0  0  0  0  0  0  0  0  0
   -1.3814    4.0318    0.4926 H   0  0  0  0  0  0  0  0  0  0  0  0
   -3.1313    4.2311   -0.7412 C   0  0  0  0  0  0  0  0  0  0  0  0
   -2.5624    4.2062   -1.6692 H   0  0  0  0  0  0  0  0  0  0  0  0
   -4.0801    3.7179   -0.8887 H   0  0  0  0  0  0  0  0  0  0  0  0
   -3.4025    5.6298   -0.3899 N   0  0  0  0  0  0  0  0  0  0  0  0
   -3.9139    6.0666   -1.1426 H   0  0  0  0  0  0  0  0  0  0  0  0
   -3.9576    5.6580    0.4535 H   0  0  0  0  0  0  0  0  0  0  0  0
   -0.0420   -0.7918    1.7180 C   0  0  0  0  0  0  0  0  0  0  0  0
   -0.4258   -1.1246    2.8373 O   0  0  0  0  0  0  0  0  0  0  0  0
    1.2211   -0.9562    1.3082 N   0  0  0  0  0  0  0  0  0  0  0  0
    1.4539   -0.6713    0.3710 H   0  0  0  0  0  0  0  0  0  0  0  0
    2.2780   -1.5378    2.1343 C   0  0  0  0  0  0  0  0  0  0  0  0
    1.9671   -2.5216    2.4925 H   0  0  0  0  0  0  0  0  0  0  0  0
    3.1984   -1.6389    1.5575 H   0  0  0  0  0  0  0  0  0  0  0  0
    2.4621   -0.8972    2.9993 H   0  0  0  0  0  0  0  0  0  0  0  0
  5  6  2  0  0  0  0
  5  7  1  0  0  0  0
  2  3  1  0  0  0  0
  2  4  1  0  0  0  0
  2  5  1  0  0  0  0
  1  2  1  0  0  0  0
 26 27  2  0  0  0  0
 26 28  1  0  0  0  0
 23 24  1  0  0  0  0
 23 25  1  0  0  0  0
 20 21  1  0  0  0  0
 20 22  1  0  0  0  0
 20 23  1  0  0  0  0
 17 18  1  0  0  0  0
 17 19  1  0  0  0  0
 17 20  1  0  0  0  0
 14 15  1  0  0  0  0
 14 16  1  0  0  0  0
 14 17  1  0  0  0  0
 11 12  1  0  0  0  0
 11 13  1  0  0  0  0
 11 14  1  0  0  0  0
  9 10  1  0  0  0  0
  9 11  1  0  0  0  0
  9 26  1  0  0  0  0
  7  8  1  0  0  0  0
  7  9  1  0  0  0  0
 30 31  1  0  0  0  0
 30 32  1  0  0  0  0
 30 33  1  0  0  0  0
 28 29  1  0  0  0  0
 28 30  1  0  0  0  0
M  END
$$$$
default_name
  -OEChem-01062215323D

 33 32  0     1  0  0  0  0  0999 V2000
   -3.8420   -3.6918    1.5562 H   0  0  0  0  0  0  0  0  0  0  0  0
   -3.8430   -2.7008    1.1032 C   0  0  0  0  0  0  0  0  0  0  0  0
   -4.5510   -2.0608    1.6242 H   0  0  0  0  0  0  0  0  0  0  0  0
   -4.1140   -2.7798    0.0522 H   0  0  0  0  0  0  0  0  0  0  0  0
   -2.4570   -2.1098    1.2172 C   0  0  0  0  0  0  0  0  0  0  0  0
   -1.5600   -2.7438    1.7572 O   0  0  0  0  0  0  0  0  0  0  0  0
   -2.2870   -0.8898    0.7102 N   0  0  0  0  0  0  0  0  0  0  0  0
   -3.0820   -0.4218    0.2992 H   0  0  0  0  0  0  0  0  0  0  0  0
   -1.0240   -0.1468    0.7262 C   0  0  1  0  0  0  0  0  0  0  0  0
   -0.5837   -0.1896   -0.2710 H   0  0  0  0  0  0  0  0  0  0  0  0
   -1.3204    1.3255    1.0717 C   0  0  0  0  0  0  0  0  0  0  0  0
   -1.9170    1.3542    1.9858 H   0  0  0  0  0  0  0  0  0  0  0  0
   -0.3810    1.8465    1.2618 H   0  0  0  0  0  0  0  0  0  0  0  0
   -2.0956    2.0646   -0.0302 C   0  0  0  0  0  0  0  0  0  0  0  0
   -1.5253    2.0387   -0.9592 H   0  0  0  0  0  0  0  0  0  0  0  0
   -3.0562    1.5703   -0.1866 H   0  0  0  0  0  0  0  0  0  0  0  0
   -2.3387    3.5273    0.3586 C   0  0  0  0  0  0  0  0  0  0  0  0
   -2.9020    3.5698    1.2913 H   0  0  0  0  0  0  0  0  0  0  0  0
   -1.3814    4.0318    0.4926 H   0  0  0  0  0  0  0  0  0  0  0  0
   -3.1313    4.2311   -0.7412 C   0  0  0  0  0  0  0  0  0  0  0  0
   -2.5624    4.2062   -1.6692 H   0  0  0  0  0  0  0  0  0  0  0  0
   -4.0801    3.7179   -0.8887 H   0  0  0  0  0  0  0  0  0  0  0  0
   -3.4025    5.6298   -0.3899 N   0  0  0  0  0  0  0  0  0  0  0  0
   -3.9139    6.0666   -1.1426 H   0  0  0  0  0  0  0  0  0  0  0  0
   -3.9576    5.6580    0.4535 H   0  0  0  0  0  0  0  0  0  0  0  0
   -0.0420   -0.7918    1.7180 C   0  0  0  0  0  0  0  0  0  0  0  0
   -0.4653   -1.3712    2.7160 O   0  0  0  0  0  0  0  0  0  0  0  0
    1.2633   -0.6807    1.4455 N   0  0  0  0  0  0  0  0  0  0  0  0
    1.5298   -0.2036    0.6000 H   0  0  0  0  0  0  0  0  0  0  0  0
    2.3232   -1.2233    2.2941 C   0  0  0  0  0  0  0  0  0  0  0  0
    2.1579   -2.2912    2.4535 H   0  0  0  0  0  0  0  0  0  0  0  0
    3.2974   -1.0757    1.8259 H   0  0  0  0  0  0  0  0  0  0  0  0
    2.3090   -0.7226    3.2644 H   0  0  0  0  0  0  0  0  0  0  0  0
  5  6  2  0  0  0  0
  5  7  1  0  0  0  0
  2  3  1  0  0  0  0
  2  4  1  0  0  0  0
  2  5  1  0  0  0  0
  1  2  1  0  0  0  0
 26 27  2  0  0  0  0
 26 28  1  0  0  0  0
 23 24  1  0  0  0  0
 23 25  1  0  0  0  0
 20 21  1  0  0  0  0
 20 22  1  0  0  0  0
 20 23  1  0  0  0  0
 17 18  1  0  0  0  0
 17 19  1  0  0  0  0
 17 20  1  0  0  0  0
 14 15  1  0  0  0  0
 14 16  1  0  0  0  0
 14 17  1  0  0  0  0
 11 12  1  0  0  0  0
 11 13  1  0  0  0  0
 11 14  1  0  0  0  0
  9 10  1  0  0  0  0
  9 11  1  0  0  0  0
  9 26  1  0  0  0  0
  7  8  1  0  0  0  0
  7  9  1  0  0  0  0
 30 31  1  0  0  0  0
 30 32  1  0  0  0  0
 30 33  1  0  0  0  0
 28 29  1  0  0  0  0
 28 30  1  0  0  0  0
M  END
$$$$
default_name
  -OEChem-01062215323D

 33 32  0     1  0  0  0  0  0999 V2000
   -3.8420   -3.6918    1.5562 H   0  0  0  0  0  0  0  0  0  0  0  0
   -3.8430   -2.7008    1.1032 C   0  0  0  0  0  0  0  0  0  0  0  0
   -4.5510   -2.0608    1.6242 H   0  0  0  0  0  0  0  0  0  0  0  0
   -4.1140   -2.7798    0.0522 H   0  0  0  0  0  0  0  0  0  0  0  0
   -2.4570   -2.1098    1.2172 C   0  0  0  0  0  0  0  0  0  0  0  0
   -1.5600   -2.7438    1.7572 O   0  0  0  0  0  0  0  0  0  0  0  0
   -2.2870   -0.8898    0.7102 N   0  0  0  0  0  0  0  0  0  0  0  0
   -3.0820   -0.4218    0.2992 H   0  0  0  0  0  0  0  0  0  0  0  0
   -1.0240   -0.1468    0.7262 C   0  0  1  0  0  0  0  0  0  0  0  0
   -0.5837   -0.1896   -0.2710 H   0  0  0  0  0  0  0  0  0  0  0  0
   -1.3204    1.3255    1.0717 C   0  0  0  0  0  0  0  0  0  0  0  0
   -1.9170    1.3542    1.9858 H   0  0  0  0  0  0  0  0  0  0  0  0
   -0.3810    1.8465    1.2618 H   0  0  0  0  0  0  0  0  0  0  0  0
   -2.0956    2.0646   -0.0302 C   0  0  0  0  0  0  0  0  0  0  0  0
   -1.5253    2.0387   -0.9592 H   0  0  0  0  0  0  0  0  0  0  0  0
   -3.0562    1.5703   -0.1866 H   0  0  0  0  0  0  0  0  0  0  0  0
   -2.3387    3.5273    0.3586 C   0  0  0  0  0  0  0  0  0  0  0  0
   -2.9020    3.5698    1.2913 H   0  0  0  0  0  0  0  0  0  0  0  0
   -1.3814    4.0318    0.4926 H   0  0  0  0  0  0  0  0  0  0  0  0
   -3.1313    4.2311   -0.7412 C   0  0  0  0  0  0  0  0  0  0  0  0
   -2.5624    4.2062   -1.6692 H   0  0  0  0  0  0  0  0  0  0  0  0
   -4.0801    3.7179   -0.8887 H   0  0  0  0  0  0  0  0  0  0  0  0
   -3.4025    5.6298   -0.3899 N   0  0  0  0  0  0  0  0  0  0  0  0
   -3.9139    6.0666   -1.1426 H   0  0  0  0  0  0  0  0  0  0  0  0
   -3.9576    5.6580    0.4535 H   0  0  0  0  0  0  0  0  0  0  0  0
   -0.0420   -0.7918    1.7180 C   0  0  0  0  0  0  0  0  0  0  0  0
   -0.4491   -1.5959    2.5538 O   0  0  0  0  0  0  0  0  0  0  0  0
    1.2432   -0.4303    1.6284 N   0  0  0  0  0  0  0  0  0  0  0  0
    1.5002    0.2231    0.9068 H   0  0  0  0  0  0  0  0  0  0  0  0
    2.2969   -0.9385    2.5053 C   0  0  0  0  0  0  0  0  0  0  0  0
    2.3080   -2.0302    2.4746 H   0  0  0  0  0  0  0  0  0  0  0  0
    3.2698   -0.5595    2.1889 H   0  0  0  0  0  0  0  0  0  0  0  0
    2.1032   -0.6234    3.5327 H   0  0  0  0  0  0  0  0  0  0  0  0
  5  6  2  0  0  0  0
  5  7  1  0  0  0  0
  2  3  1  0  0  0  0
  2  4  1  0  0  0  0
  2  5  1  0  0  0  0
  1  2  1  0  0  0  0
 26 27  2  0  0  0  0
 26 28  1  0  0  0  0
 23 24  1  0  0  0  0
 23 25  1  0  0  0  0
 20 21  1  0  0  0  0
 20 22  1  0  0  0  0
 20 23  1  0  0  0  0
 17 18  1  0  0  0  0
 17 19  1  0  0  0  0
 17 20  1  0  0  0  0
 14 15  1  0  0  0  0
 14 16  1  0  0  0  0
 14 17  1  0  0  0  0
 11 12  1  0  0  0  0
 11 13  1  0  0  0  0
 11 14  1  0  0  0  0
  9 10  1  0  0  0  0
  9 11  1  0  0  0  0
  9 26  1  0  0  0  0
  7  8  1  0  0  0  0
  7  9  1  0  0  0  0
 30 31  1  0  0  0  0
 30 32  1  0  0  0  0
 30 33  1  0  0  0  0
 28 29  1  0  0  0  0
 28 30  1  0  0  0  0
M  END
$$$$
default_name
  -OEChem-01062215323D

 33 32  0     1  0  0  0  0  0999 V2000
   -3.8420   -3.6918    1.5562 H   0  0  0  0  0  0  0  0  0  0  0  0
   -3.8430   -2.7008    1.1032 C   0  0  0  0  0  0  0  0  0  0  0  0
   -4.5510   -2.0608    1.6242 H   0  0  0  0  0  0  0  0  0  0  0  0
   -4.1140   -2.7798    0.0522 H   0  0  0  0  0  0  0  0  0  0  0  0
   -2.4570   -2.1098    1.2172 C   0  0  0  0  0  0  0  0  0  0  0  0
   -1.5600   -2.7438    1.7572 O   0  0  0  0  0  0  0  0  0  0  0  0
   -2.2870   -0.8898    0.7102 N   0  0  0  0  0  0  0  0  0  0  0  0
   -3.0820   -0.4218    0.2992 H   0  0  0  0  0  0  0  0  0  0  0  0
   -1.0240   -0.1468    0.7262 C   0  0  1  0  0  0  0  0  0  0  0  0
   -0.7193    0.0415   -0.3042 H   0  0  0  0  0  0  0  0  0  0  0  0
   -1.2546    1.2060    1.4274 C   0  0  0  0  0  0  0  0  0  0  0  0
   -1.7254    1.0196    2.3949 H   0  0  0  0  0  0  0  0  0  0  0  0
   -0.2921    1.6881    1.6043 H   0  0  0  0  0  0  0  0  0  0  0  0
   -2.1590    2.1582    0.6295 C   0  0  0  0  0  0  0  0  0  0  0  0
   -1.7163    2.3501   -0.3482 H   0  0  0  0  0  0  0  0  0  0  0  0
   -3.1377    1.6943    0.4939 H   0  0  0  0  0  0  0  0  0  0  0  0
   -2.3312    3.4929    1.3635 C   0  0  0  0  0  0  0  0  0  0  0  0
   -2.7664    3.3165    2.3476 H   0  0  0  0  0  0  0  0  0  0  0  0
   -1.3586    3.9717    1.4803 H   0  0  0  0  0  0  0  0  0  0  0  0
   -3.2531    4.4100    0.5620 C   0  0  0  0  0  0  0  0  0  0  0  0
   -2.8115    4.6026   -0.4144 H   0  0  0  0  0  0  0  0  0  0  0  0
   -4.2191    3.9259    0.4292 H   0  0  0  0  0  0  0  0  0  0  0  0
   -3.4588    5.6902    1.2492 N   0  0  0  0  0  0  0  0  0  0  0  0
   -4.0595    6.2747    0.6866 H   0  0  0  0  0  0  0  0  0  0  0  0
   -3.8977    5.5198    2.1428 H   0  0  0  0  0  0  0  0  0  0  0  0
    0.0721   -0.9791    1.4116 C   0  0  0  0  0  0  0  0  0  0  0  0
   -0.1886   -2.0951    1.8561 O   0  0  0  0  0  0  0  0  0  0  0  0
    1.2891   -0.4305    1.5031 N   0  0  0  0  0  0  0  0  0  0  0  0
    1.4265    0.4822    1.1011 H   0  0  0  0  0  0  0  0  0  0  0  0
    2.4329   -1.0833    2.1382 C   0  0  0  0  0  0  0  0  0  0  0  0
    2.5981   -2.0626    1.6836 H   0  0  0  0  0  0  0  0  0  0  0  0
    3.3309   -0.4753    2.0199 H   0  0  0  0  0  0  0  0  0  0  0  0
    2.2304   -1.2256    3.2018 H   0  0  0  0  0  0  0  0  0  0  0  0
  5  6  2  0  0  0  0
  5  7  1  0  0  0  0
  2  3  1  0  0  0  0
  2  4  1  0  0  0  0
  2  5  1  0  0  0  0
  1  2  1  0  0  0  0
 26 27  2  0  0  0  0
 26 28  1  0  0  0  0
 23 24  1  0  0  0  0
 23 25  1  0  0  0  0
 20 21  1  0  0  0  0
 20 22  1  0  0  0  0
 20 23  1  0  0  0  0
 17 18  1  0  0  0  0
 17 19  1  0  0  0  0
 17 20  1  0  0  0  0
 14 15  1  0  0  0  0
 14 16  1  0  0  0  0
 14 17  1  0  0  0  0
 11 12  1  0  0  0  0
 11 13  1  0  0  0  0
 11 14  1  0  0  0  0
  9 10  1  0  0  0  0
  9 11  1  0  0  0  0
  9 26  1  0  0  0  0
  7  8  1  0  0  0  0
  7  9  1  0  0  0  0
 30 31  1  0  0  0  0
 30 32  1  0  0  0  0
 30 33  1  0  0  0  0
 28 29  1  0  0  0  0
 28 30  1  0  0  0  0
M  END
$$$$
default_name
  -OEChem-01062215323D

 33 32  0     1  0  0  0  0  0999 V2000
   -3.8420   -3.6918    1.5562 H   0  0  0  0  0  0  0  0  0  0  0  0
   -3.8430   -2.7008    1.1032 C   0  0  0  0  0  0  0  0  0  0  0  0
   -4.5510   -2.0608    1.6242 H   0  0  0  0  0  0  0  0  0  0  0  0
   -4.1140   -2.7798    0.0522 H   0  0  0  0  0  0  0  0  0  0  0  0
   -2.4570   -2.1098    1.2172 C   0  0  0  0  0  0  0  0  0  0  0  0
   -1.5600   -2.7438    1.7572 O   0  0  0  0  0  0  0  0  0  0  0  0
   -2.2870   -0.8898    0.7102 N   0  0  0  0  0  0  0  0  0  0  0  0
   -3.0820   -0.4218    0.2992 H   0  0  0  0  0  0  0  0  0  0  0  0
   -1.0240   -0.1468    0.7262 C   0  0  1  0  0  0  0  0  0  0  0  0
   -0.7193    0.0415   -0.3042 H   0  0  0  0  0  0  0  0  0  0  0  0
   -1.2546    1.2060    1.4274 C   0  0  0  0  0  0  0  0  0  0  0  0
   -1.7254    1.0196    2.3949 H   0  0  0  0  0  0  0  0  0  0  0  0
   -0.2921    1.6881    1.6043 H   0  0  0  0  0  0  0  0  0  0  0  0
   -2.1590    2.1582    0.6295 C   0  0  0  0  0  0  0  0  0  0  0  0
   -1.7163    2.3501   -0.3482 H   0  0  0  0  0  0  0  0  0  0  0  0
   -3.1377    1.6943    0.4939 H   0  0  0  0  0  0  0  0  0  0  0  0
   -2.3312    3.4929    1.3635 C   0  0  0  0  0  0  0  0  0  0  0  0
   -2.7664    3.3165    2.3476 H   0  0  0  0  0  0  0  0  0  0  0  0
   -1.3586    3.9717    1.4803 H   0  0  0  0  0  0  0  0  0  0  0  0
   -3.2531    4.4100    0.5620 C   0  0  0  0  0  0  0  0  0  0  0  0
   -2.8115    4.6026   -0.4144 H   0  0  0  0  0  0  0  0  0  0  0  0
   -4.2191    3.9259    0.4292 H   0  0  0  0  0  0  0  0  0  0  0  0
   -3.4588    5.6902    1.2492 N   0  0  0  0  0  0  0  0  0  0  0  0
   -4.0595    6.2747    0.6866 H   0  0  0  0  0  0  0  0  0  0  0  0
   -3.8977    5.5198    2.1428 H   0  0  0  0  0  0  0  0  0  0  0  0
    0.0721   -0.9791    1.4116 C   0  0  0  0  0  0  0  0  0  0  0  0
   -0.0983   -2.1805    1.6079 O   0  0  0  0  0  0  0  0  0  0  0  0
    1.1863   -0.3370    1.7810 N   0  0  0  0  0  0  0  0  0  0  0  0
    1.2561    0.6453    1.5716 H   0  0  0  0  0  0  0  0  0  0  0  0
    2.3128   -0.9795    2.4563 C   0  0  0  0  0  0  0  0  0  0  0  0
    2.6599   -1.8306    1.8664 H   0  0  0  0  0  0  0  0  0  0  0  0
    3.1329   -0.2715    2.5840 H   0  0  0  0  0  0  0  0  0  0  0  0
    1.9944   -1.3440    3.4352 H   0  0  0  0  0  0  0  0  0  0  0  0
  5  6  2  0  0  0  0
  5  7  1  0  0  0  0
  2  3  1  0  0  0  0
  2  4  1  0  0  0  0
  2  5  1  0  0  0  0
  1  2  1  0  0  0  0
 26 27  2  0  0  0  0
 26 28  1  0  0  0  0
 23 24  1  0  0  0  0
 23 25  1  0  0  0  0
 20 21  1  0  0  0  0
 20 22  1  0  0  0  0
 20 23  1  0  0  0  0
 17 18  1  0  0  0  0
 17 19  1  0  0  0  0
 17 20  1  0  0  0  0
 14 15  1  0  0  0  0
 14 16  1  0  0  0  0
 14 17  1  0  0  0  0
 11 12  1  0  0  0  0
 11 13  1  0  0  0  0
 11 14  1  0  0  0  0
  9 10  1  0  0  0  0
  9 11  1  0  0  0  0
  9 26  1  0  0  0  0
  7  8  1  0  0  0  0
  7  9  1  0  0  0  0
 30 31  1  0  0  0  0
 30 32  1  0  0  0  0
 30 33  1  0  0  0  0
 28 29  1  0  0  0  0
 28 30  1  0  0  0  0
M  END
$$$$
default_name
  -OEChem-01062215323D

 33 32  0     1  0  0  0  0  0999 V2000
   -3.8420   -3.6918    1.5562 H   0  0  0  0  0  0  0  0  0  0  0  0
   -3.8430   -2.7008    1.1032 C   0  0  0  0  0  0  0  0  0  0  0  0
   -4.5510   -2.0608    1.6242 H   0  0  0  0  0  0  0  0  0  0  0  0
   -4.1140   -2.7798    0.0522 H   0  0  0  0  0  0  0  0  0  0  0  0
   -2.4570   -2.1098    1.2172 C   0  0  0  0  0  0  0  0  0  0  0  0
   -1.5600   -2.7438    1.7572 O   0  0  0  0  0  0  0  0  0  0  0  0
   -2.2870   -0.8898    0.7102 N   0  0  0  0  0  0  0  0  0  0  0  0
   -3.0820   -0.4218    0.2992 H   0  0  0  0  0  0  0  0  0  0  0  0
   -1.0240   -0.1468    0.7262 C   0  0  1  0  0  0  0  0  0  0  0  0
   -0.7193    0.0415   -0.3042 H   0  0  0  0  0  0  0  0  0  0  0  0
   -1.2546    1.2060    1.4274 C   0  0  0  0  0  0  0  0  0  0  0  0
   -1.7254    1.0196    2.3949 H   0  0  0  0  0  0  0  0  0  0  0  0
   -0.2921    1.6881    1.6043 H   0  0  0  0  0  0  0  0  0  0  0  0
   -2.1590    2.1582    0.6295 C   0  0  0  0  0  0  0  0  0  0  0  0
   -1.7163    2.3501   -0.3482 H   0  0  0  0  0  0  0  0  0  0  0  0
   -3.1377    1.6943    0.4939 H   0  0  0  0  0  0  0  0  0  0  0  0
   -2.3312    3.4929    1.3635 C   0  0  0  0  0  0  0  0  0  0  0  0
   -2.7664    3.3165    2.3476 H   0  0  0  0  0  0  0  0  0  0  0  0
   -1.3586    3.9717    1.4803 H   0  0  0  0  0  0  0  0  0  0  0  0
   -3.2531    4.4100    0.5620 C   0  0  0  0  0  0  0  0  0  0  0  0
   -2.8115    4.6026   -0.4144 H   0  0  0  0  0  0  0  0  0  0  0  0
   -4.2191    3.9259    0.4292 H   0  0  0  0  0  0  0  0  0  0  0  0
   -3.4588    5.6902    1.2492 N   0  0  0  0  0  0  0  0  0  0  0  0
   -4.0595    6.2747    0.6866 H   0  0  0  0  0  0  0  0  0  0  0  0
   -3.8977    5.5198    2.1428 H   0  0  0  0  0  0  0  0  0  0  0  0
    0.0721   -0.9791    1.4116 C   0  0  0  0  0  0  0  0  0  0  0  0
    0.0336   -2.2068    1.3651 O   0  0  0  0  0  0  0  0  0  0  0  0
    1.0374   -0.3097    2.0523 N   0  0  0  0  0  0  0  0  0  0  0  0
    1.0068    0.6964    2.0323 H   0  0  0  0  0  0  0  0  0  0  0  0
    2.1402   -0.9518    2.7660 C   0  0  0  0  0  0  0  0  0  0  0  0
    2.6672   -1.6332    2.0945 H   0  0  0  0  0  0  0  0  0  0  0  0
    2.8391   -0.2016    3.1387 H   0  0  0  0  0  0  0  0  0  0  0  0
    1.7475   -1.5287    3.6058 H   0  0  0  0  0  0  0  0  0  0  0  0
  5  6  2  0  0  0  0
  5  7  1  0  0  0  0
  2  3  1  0  0  0  0
  2  4  1  0  0  0  0
  2  5  1  0  0  0  0
  1  2  1  0  0  0  0
 26 27  2  0  0  0  0
 26 28  1  0  0  0  0
 23 24  1  0  0  0  0
 23 25  1  0  0  0  0
 20 21  1  0  0  0  0
 20 22  1  0  0  0  0
 20 23  1  0  0  0  0
 17 18  1  0  0  0  0
 17 19  1  0  0  0  0
 17 20  1  0  0  0  0
 14 15  1  0  0  0  0
 14 16  1  0  0  0  0
 14 17  1  0  0  0  0
 11 12  1  0  0  0  0
 11 13  1  0  0  0  0
 11 14  1  0  0  0  0
  9 10  1  0  0  0  0
  9 11  1  0  0  0  0
  9 26  1  0  0  0  0
  7  8  1  0  0  0  0
  7  9  1  0  0  0  0
 30 31  1  0  0  0  0
 30 32  1  0  0  0  0
 30 33  1  0  0  0  0
 28 29  1  0  0  0  0
 28 30  1  0  0  0  0
M  END
$$$$
default_name
  -OEChem-01062215323D

 33 32  0     1  0  0  0  0  0999 V2000
   -3.8420   -3.6918    1.5562 H   0  0  0  0  0  0  0  0  0  0  0  0
   -3.8430   -2.7008    1.1032 C   0  0  0  0  0  0  0  0  0  0  0  0
   -4.5510   -2.0608    1.6242 H   0  0  0  0  0  0  0  0  0  0  0  0
   -4.1140   -2.7798    0.0522 H   0  0  0  0  0  0  0  0  0  0  0  0
   -2.4570   -2.1098    1.2172 C   0  0  0  0  0  0  0  0  0  0  0  0
   -1.5600   -2.7438    1.7572 O   0  0  0  0  0  0  0  0  0  0  0  0
   -2.2870   -0.8898    0.7102 N   0  0  0  0  0  0  0  0  0  0  0  0
   -3.0820   -0.4218    0.2992 H   0  0  0  0  0  0  0  0  0  0  0  0
   -1.0240   -0.1468    0.7262 C   0  0  1  0  0  0  0  0  0  0  0  0
   -0.7193    0.0415   -0.3042 H   0  0  0  0  0  0  0  0  0  0  0  0
   -1.2546    1.2060    1.4274 C   0  0  0  0  0  0  0  0  0  0  0  0
   -1.7254    1.0196    2.3949 H   0  0  0  0  0  0  0  0  0  0  0  0
   -0.2921    1.6881    1.6043 H   0  0  0  0  0  0  0  0  0  0  0  0
   -2.1590    2.1582    0.6295 C   0  0  0  0  0  0  0  0  0  0  0  0
   -1.7163    2.3501   -0.3482 H   0  0  0  0  0  0  0  0  0  0  0  0
   -3.1377    1.6943    0.4939 H   0  0  0  0  0  0  0  0  0  0  0  0
   -2.3312    3.4929    1.3635 C   0  0  0  0  0  0  0  0  0  0  0  0
   -2.7664    3.3165    2.3476 H   0  0  0  0  0  0  0  0  0  0  0  0
   -1.3586    3.9717    1.4803 H   0  0  0  0  0  0  0  0  0  0  0  0
   -3.2531    4.4100    0.5620 C   0  0  0  0  0  0  0  0  0  0  0  0
   -2.8115    4.6026   -0.4144 H   0  0  0  0  0  0  0  0  0  0  0  0
   -4.2191    3.9259    0.4292 H   0  0  0  0  0  0  0  0  0  0  0  0
   -3.4588    5.6902    1.2492 N   0  0  0  0  0  0  0  0  0  0  0  0
   -4.0595    6.2747    0.6866 H   0  0  0  0  0  0  0  0  0  0  0  0
   -3.8977    5.5198    2.1428 H   0  0  0  0  0  0  0  0  0  0  0  0
    0.0721   -0.9791    1.4116 C   0  0  0  0  0  0  0  0  0  0  0  0
    0.1981   -2.1722    1.1441 O   0  0  0  0  0  0  0  0  0  0  0  0
    0.8523   -0.3506    2.2986 N   0  0  0  0  0  0  0  0  0  0  0  0
    0.6955    0.6320    2.4519 H   0  0  0  0  0  0  0  0  0  0  0  0
    1.9269   -1.0020    3.0460 C   0  0  0  0  0  0  0  0  0  0  0  0
    2.6195   -1.4838    2.3523 H   0  0  0  0  0  0  0  0  0  0  0  0
    2.4695   -0.2703    3.6463 H   0  0  0  0  0  0  0  0  0  0  0  0
    1.5064   -1.7671    3.7019 H   0  0  0  0  0  0  0  0  0  0  0  0
  5  6  2  0  0  0  0
  5  7  1  0  0  0  0
  2  3  1  0  0  0  0
  2  4  1  0  0  0  0
  2  5  1  0  0  0  0
  1  2  1  0  0  0  0
 26 27  2  0  0  0  0
 26 28  1  0  0  0  0
 23 24  1  0  0  0  0
 23 25  1  0  0  0  0
 20 21  1  0  0  0  0
 20 22  1  0  0  0  0
 20 23  1  0  0  0  0
 17 18  1  0  0  0  0
 17 19  1  0  0  0  0
 17 20  1  0  0  0  0
 14 15  1  0  0  0  0
 14 16  1  0  0  0  0
 14 17  1  0  0  0  0
 11 12  1  0  0  0  0
 11 13  1  0  0  0  0
 11 14  1  0  0  0  0
  9 10  1  0  0  0  0
  9 11  1  0  0  0  0
  9 26  1  0  0  0  0
  7  8  1  0  0  0  0
  7  9  1  0  0  0  0
 30 31  1  0  0  0  0
 30 32  1  0  0  0  0
 30 33  1  0  0  0  0
 28 29  1  0  0  0  0
 28 30  1  0  0  0  0
M  END
$$$$
default_name
  -OEChem-01062215323D

 33 32  0     1  0  0  0  0  0999 V2000
   -3.8420   -3.6918    1.5562 H   0  0  0  0  0  0  0  0  0  0  0  0
   -3.8430   -2.7008    1.1032 C   0  0  0  0  0  0  0  0  0  0  0  0
   -4.5510   -2.0608    1.6242 H   0  0  0  0  0  0  0  0  0  0  0  0
   -4.1140   -2.7798    0.0522 H   0  0  0  0  0  0  0  0  0  0  0  0
   -2.4570   -2.1098    1.2172 C   0  0  0  0  0  0  0  0  0  0  0  0
   -1.5600   -2.7438    1.7572 O   0  0  0  0  0  0  0  0  0  0  0  0
   -2.2870   -0.8898    0.7102 N   0  0  0  0  0  0  0  0  0  0  0  0
   -3.0820   -0.4218    0.2992 H   0  0  0  0  0  0  0  0  0  0  0  0
   -1.0240   -0.1468    0.7262 C   0  0  1  0  0  0  0  0  0  0  0  0
   -0.7193    0.0415   -0.3042 H   0  0  0  0  0  0  0  0  0  0  0  0
   -1.2546    1.2060    1.4274 C   0  0  0  0  0  0  0  0  0  0  0  0
   -1.7254    1.0196    2.3949 H   0  0  0  0  0  0  0  0  0  0  0  0
   -0.2921    1.6881    1.6043 H   0  0  0  0  0  0  0  0  0  0  0  0
   -2.1590    2.1582    0.6295 C   0  0  0  0  0  0  0  0  0  0  0  0
   -1.7163    2.3501   -0.3482 H   0  0  0  0  0  0  0  0  0  0  0  0
   -3.1377    1.6943    0.4939 H   0  0  0  0  0  0  0  0  0  0  0  0
   -2.3312    3.4929    1.3635 C   0  0  0  0  0  0  0  0  0  0  0  0
   -2.7664    3.3165    2.3476 H   0  0  0  0  0  0  0  0  0  0  0  0
   -1.3586    3.9717    1.4803 H   0  0  0  0  0  0  0  0  0  0  0  0
   -3.2531    4.4100    0.5620 C   0  0  0  0  0  0  0  0  0  0  0  0
   -2.8115    4.6026   -0.4144 H   0  0  0  0  0  0  0  0  0  0  0  0
   -4.2191    3.9259    0.4292 H   0  0  0  0  0  0  0  0  0  0  0  0
   -3.4588    5.6902    1.2492 N   0  0  0  0  0  0  0  0  0  0  0  0
   -4.0595    6.2747    0.6866 H   0  0  0  0  0  0  0  0  0  0  0  0
   -3.8977    5.5198    2.1428 H   0  0  0  0  0  0  0  0  0  0  0  0
    0.0721   -0.9791    1.4116 C   0  0  0  0  0  0  0  0  0  0  0  0
    0.3839   -2.0790    0.9601 O   0  0  0  0  0  0  0  0  0  0  0  0
    0.6438   -0.4569    2.5029 N   0  0  0  0  0  0  0  0  0  0  0  0
    0.3435    0.4564    2.8016 H   0  0  0  0  0  0  0  0  0  0  0  0
    1.6875   -1.1269    3.2773 C   0  0  0  0  0  0  0  0  0  0  0  0
    2.5200   -1.3925    2.6222 H   0  0  0  0  0  0  0  0  0  0  0  0
    2.0493   -0.4730    4.0721 H   0  0  0  0  0  0  0  0  0  0  0  0
    1.2875   -2.0429    3.7170 H   0  0  0  0  0  0  0  0  0  0  0  0
  5  6  2  0  0  0  0
  5  7  1  0  0  0  0
  2  3  1  0  0  0  0
  2  4  1  0  0  0  0
  2  5  1  0  0  0  0
  1  2  1  0  0  0  0
 26 27  2  0  0  0  0
 26 28  1  0  0  0  0
 23 24  1  0  0  0  0
 23 25  1  0  0  0  0
 20 21  1  0  0  0  0
 20 22  1  0  0  0  0
 20 23  1  0  0  0  0
 17 18  1  0  0  0  0
 17 19  1  0  0  0  0
 17 20  1  0  0  0  0
 14 15  1  0  0  0  0
 14 16  1  0  0  0  0
 14 17  1  0  0  0  0
 11 12  1  0  0  0  0
 11 13  1  0  0  0  0
 11 14  1  0  0  0  0
  9 10  1  0  0  0  0
  9 11  1  0  0  0  0
  9 26  1  0  0  0  0
  7  8  1  0  0  0  0
  7  9  1  0  0  0  0
 30 31  1  0  0  0  0
 30 32  1  0  0  0  0
 30 33  1  0  0  0  0
 28 29  1  0  0  0  0
 28 30  1  0  0  0  0
M  END
$$$$
default_name
  -OEChem-01062215323D

 33 32  0     1  0  0  0  0  0999 V2000
   -3.8420   -3.6918    1.5562 H   0  0  0  0  0  0  0  0  0  0  0  0
   -3.8430   -2.7008    1.1032 C   0  0  0  0  0  0  0  0  0  0  0  0
   -4.5510   -2.0608    1.6242 H   0  0  0  0  0  0  0  0  0  0  0  0
   -4.1140   -2.7798    0.0522 H   0  0  0  0  0  0  0  0  0  0  0  0
   -2.4570   -2.1098    1.2172 C   0  0  0  0  0  0  0  0  0  0  0  0
   -1.5600   -2.7438    1.7572 O   0  0  0  0  0  0  0  0  0  0  0  0
   -2.2870   -0.8898    0.7102 N   0  0  0  0  0  0  0  0  0  0  0  0
   -3.0820   -0.4218    0.2992 H   0  0  0  0  0  0  0  0  0  0  0  0
   -1.0240   -0.1468    0.7262 C   0  0  1  0  0  0  0  0  0  0  0  0
   -0.7193    0.0415   -0.3042 H   0  0  0  0  0  0  0  0  0  0  0  0
   -1.2546    1.2060    1.4274 C   0  0  0  0  0  0  0  0  0  0  0  0
   -1.7254    1.0196    2.3949 H   0  0  0  0  0  0  0  0  0  0  0  0
   -0.2921    1.6881    1.6043 H   0  0  0  0  0  0  0  0  0  0  0  0
   -2.1590    2.1582    0.6295 C   0  0  0  0  0  0  0  0  0  0  0  0
   -1.7163    2.3501   -0.3482 H   0  0  0  0  0  0  0  0  0  0  0  0
   -3.1377    1.6943    0.4939 H   0  0  0  0  0  0  0  0  0  0  0  0
   -2.3312    3.4929    1.3635 C   0  0  0  0  0  0  0  0  0  0  0  0
   -2.7664    3.3165    2.3476 H   0  0  0  0  0  0  0  0  0  0  0  0
   -1.3586    3.9717    1.4803 H   0  0  0  0  0  0  0  0  0  0  0  0
   -3.2531    4.4100    0.5620 C   0  0  0  0  0  0  0  0  0  0  0  0
   -2.8115    4.6026   -0.4144 H   0  0  0  0  0  0  0  0  0  0  0  0
   -4.2191    3.9259    0.4292 H   0  0  0  0  0  0  0  0  0  0  0  0
   -3.4588    5.6902    1.2492 N   0  0  0  0  0  0  0  0  0  0  0  0
   -4.0595    6.2747    0.6866 H   0  0  0  0  0  0  0  0  0  0  0  0
   -3.8977    5.5198    2.1428 H   0  0  0  0  0  0  0  0  0  0  0  0
    0.0721   -0.9791    1.4116 C   0  0  0  0  0  0  0  0  0  0  0  0
    0.5784   -1.9337    0.8256 O   0  0  0  0  0  0  0  0  0  0  0  0
    0.4260   -0.6214    2.6515 N   0  0  0  0  0  0  0  0  0  0  0  0
   -0.0252    0.1817    3.0577 H   0  0  0  0  0  0  0  0  0  0  0  0
    1.4382   -1.3177    3.4442 C   0  0  0  0  0  0  0  0  0  0  0  0
    2.3756   -1.3656    2.8857 H   0  0  0  0  0  0  0  0  0  0  0  0
    1.6071   -0.7958    4.3872 H   0  0  0  0  0  0  0  0  0  0  0  0
    1.1058   -2.3373    3.6500 H   0  0  0  0  0  0  0  0  0  0  0  0
  5  6  2  0  0  0  0
  5  7  1  0  0  0  0
  2  3  1  0  0  0  0
  2  4  1  0  0  0  0
  2  5  1  0  0  0  0
  1  2  1  0  0  0  0
 26 27  2  0  0  0  0
 26 28  1  0  0  0  0
 23 24  1  0  0  0  0
 23 25  1  0  0  0  0
 20 21  1  0  0  0  0
 20 22  1  0  0  0  0
 20 23  1  0  0  0  0
 17 18  1  0  0  0  0
 17 19  1  0  0  0  0
 17 20  1  0  0  0  0
 14 15  1  0  0  0  0
 14 16  1  0  0  0  0
 14 17  1  0  0  0  0
 11 12  1  0  0  0  0
 11 13  1  0  0  0  0
 11 14  1  0  0  0  0
  9 10  1  0  0  0  0
  9 11  1  0  0  0  0
  9 26  1  0  0  0  0
  7  8  1  0  0  0  0
  7  9  1  0  0  0  0
 30 31  1  0  0  0  0
 30 32  1  0  0  0  0
 30 33  1  0  0  0  0
 28 29  1  0  0  0  0
 28 30  1  0  0  0  0
M  END
$$$$
default_name
  -OEChem-01062215323D

 33 32  0     1  0  0  0  0  0999 V2000
   -3.8420   -3.6918    1.5562 H   0  0  0  0  0  0  0  0  0  0  0  0
   -3.8430   -2.7008    1.1032 C   0  0  0  0  0  0  0  0  0  0  0  0
   -4.5510   -2.0608    1.6242 H   0  0  0  0  0  0  0  0  0  0  0  0
   -4.1140   -2.7798    0.0522 H   0  0  0  0  0  0  0  0  0  0  0  0
   -2.4570   -2.1098    1.2172 C   0  0  0  0  0  0  0  0  0  0  0  0
   -1.5600   -2.7438    1.7572 O   0  0  0  0  0  0  0  0  0  0  0  0
   -2.2870   -0.8898    0.7102 N   0  0  0  0  0  0  0  0  0  0  0  0
   -3.0820   -0.4218    0.2992 H   0  0  0  0  0  0  0  0  0  0  0  0
   -1.0240   -0.1468    0.7262 C   0  0  1  0  0  0  0  0  0  0  0  0
   -0.7193    0.0415   -0.3042 H   0  0  0  0  0  0  0  0  0  0  0  0
   -1.2546    1.2060    1.4274 C   0  0  0  0  0  0  0  0  0  0  0  0
   -1.7254    1.0196    2.3949 H   0  0  0  0  0  0  0  0  0  0  0  0
   -0.2921    1.6881    1.6043 H   0  0  0  0  0  0  0  0  0  0  0  0
   -2.1590    2.1582    0.6295 C   0  0  0  0  0  0  0  0  0  0  0  0
   -1.7163    2.3501   -0.3482 H   0  0  0  0  0  0  0  0  0  0  0  0
   -3.1377    1.6943    0.4939 H   0  0  0  0  0  0  0  0  0  0  0  0
   -2.3312    3.4929    1.3635 C   0  0  0  0  0  0  0  0  0  0  0  0
   -2.7664    3.3165    2.3476 H   0  0  0  0  0  0  0  0  0  0  0  0
   -1.3586    3.9717    1.4803 H   0  0  0  0  0  0  0  0  0  0  0  0
   -3.2531    4.4100    0.5620 C   0  0  0  0  0  0  0  0  0  0  0  0
   -2.8115    4.6026   -0.4144 H   0  0  0  0  0  0  0  0  0  0  0  0
   -4.2191    3.9259    0.4292 H   0  0  0  0  0  0  0  0  0  0  0  0
   -3.4588    5.6902    1.2492 N   0  0  0  0  0  0  0  0  0  0  0  0
   -4.0595    6.2747    0.6866 H   0  0  0  0  0  0  0  0  0  0  0  0
   -3.8977    5.5198    2.1428 H   0  0  0  0  0  0  0  0  0  0  0  0
    0.0721   -0.9791    1.4116 C   0  0  0  0  0  0  0  0  0  0  0  0
    0.7684   -1.7460    0.7498 O   0  0  0  0  0  0  0  0  0  0  0  0
    0.2138   -0.8328    2.7341 N   0  0  0  0  0  0  0  0  0  0  0  0
   -0.3856   -0.1734    3.2027 H   0  0  0  0  0  0  0  0  0  0  0  0
    1.1960   -1.5617    3.5352 C   0  0  0  0  0  0  0  0  0  0  0  0
    2.1961   -1.4049    3.1251 H   0  0  0  0  0  0  0  0  0  0  0  0
    1.1731   -1.2168    4.5699 H   0  0  0  0  0  0  0  0  0  0  0  0
    0.9736   -2.6303    3.5055 H   0  0  0  0  0  0  0  0  0  0  0  0
  5  6  2  0  0  0  0
  5  7  1  0  0  0  0
  2  3  1  0  0  0  0
  2  4  1  0  0  0  0
  2  5  1  0  0  0  0
  1  2  1  0  0  0  0
 26 27  2  0  0  0  0
 26 28  1  0  0  0  0
 23 24  1  0  0  0  0
 23 25  1  0  0  0  0
 20 21  1  0  0  0  0
 20 22  1  0  0  0  0
 20 23  1  0  0  0  0
 17 18  1  0  0  0  0
 17 19  1  0  0  0  0
 17 20  1  0  0  0  0
 14 15  1  0  0  0  0
 14 16  1  0  0  0  0
 14 17  1  0  0  0  0
 11 12  1  0  0  0  0
 11 13  1  0  0  0  0
 11 14  1  0  0  0  0
  9 10  1  0  0  0  0
  9 11  1  0  0  0  0
  9 26  1  0  0  0  0
  7  8  1  0  0  0  0
  7  9  1  0  0  0  0
 30 31  1  0  0  0  0
 30 32  1  0  0  0  0
 30 33  1  0  0  0  0
 28 29  1  0  0  0  0
 28 30  1  0  0  0  0
M  END
$$$$
default_name
  -OEChem-01062215323D

 33 32  0     1  0  0  0  0  0999 V2000
   -3.8420   -3.6918    1.5562 H   0  0  0  0  0  0  0  0  0  0  0  0
   -3.8430   -2.7008    1.1032 C   0  0  0  0  0  0  0  0  0  0  0  0
   -4.5510   -2.0608    1.6242 H   0  0  0  0  0  0  0  0  0  0  0  0
   -4.1140   -2.7798    0.0522 H   0  0  0  0  0  0  0  0  0  0  0  0
   -2.4570   -2.1098    1.2172 C   0  0  0  0  0  0  0  0  0  0  0  0
   -1.5600   -2.7438    1.7572 O   0  0  0  0  0  0  0  0  0  0  0  0
   -2.2870   -0.8898    0.7102 N   0  0  0  0  0  0  0  0  0  0  0  0
   -3.0820   -0.4218    0.2992 H   0  0  0  0  0  0  0  0  0  0  0  0
   -1.0240   -0.1468    0.7262 C   0  0  1  0  0  0  0  0  0  0  0  0
   -0.7193    0.0415   -0.3042 H   0  0  0  0  0  0  0  0  0  0  0  0
   -1.2546    1.2060    1.4274 C   0  0  0  0  0  0  0  0  0  0  0  0
   -1.7254    1.0196    2.3949 H   0  0  0  0  0  0  0  0  0  0  0  0
   -0.2921    1.6881    1.6043 H   0  0  0  0  0  0  0  0  0  0  0  0
   -2.1590    2.1582    0.6295 C   0  0  0  0  0  0  0  0  0  0  0  0
   -1.7163    2.3501   -0.3482 H   0  0  0  0  0  0  0  0  0  0  0  0
   -3.1377    1.6943    0.4939 H   0  0  0  0  0  0  0  0  0  0  0  0
   -2.3312    3.4929    1.3635 C   0  0  0  0  0  0  0  0  0  0  0  0
   -2.7664    3.3165    2.3476 H   0  0  0  0  0  0  0  0  0  0  0  0
   -1.3586    3.9717    1.4803 H   0  0  0  0  0  0  0  0  0  0  0  0
   -3.2531    4.4100    0.5620 C   0  0  0  0  0  0  0  0  0  0  0  0
   -2.8115    4.6026   -0.4144 H   0  0  0  0  0  0  0  0  0  0  0  0
   -4.2191    3.9259    0.4292 H   0  0  0  0  0  0  0  0  0  0  0  0
   -3.4588    5.6902    1.2492 N   0  0  0  0  0  0  0  0  0  0  0  0
   -4.0595    6.2747    0.6866 H   0  0  0  0  0  0  0  0  0  0  0  0
   -3.8977    5.5198    2.1428 H   0  0  0  0  0  0  0  0  0  0  0  0
    0.0721   -0.9791    1.4116 C   0  0  0  0  0  0  0  0  0  0  0  0
    0.9408   -1.5287    0.7378 O   0  0  0  0  0  0  0  0  0  0  0  0
    0.0216   -1.0767    2.7452 N   0  0  0  0  0  0  0  0  0  0  0  0
   -0.7131   -0.5848    3.2267 H   0  0  0  0  0  0  0  0  0  0  0  0
    0.9775   -1.8420    3.5442 C   0  0  0  0  0  0  0  0  0  0  0  0
    1.9937   -1.5078    3.3238 H   0  0  0  0  0  0  0  0  0  0  0  0
    0.7769   -1.7072    4.6080 H   0  0  0  0  0  0  0  0  0  0  0  0
    0.9001   -2.9019    3.2933 H   0  0  0  0  0  0  0  0  0  0  0  0
  5  6  2  0  0  0  0
  5  7  1  0  0  0  0
  2  3  1  0  0  0  0
  2  4  1  0  0  0  0
  2  5  1  0  0  0  0
  1  2  1  0  0  0  0
 26 27  2  0  0  0  0
 26 28  1  0  0  0  0
 23 24  1  0  0  0  0
 23 25  1  0  0  0  0
 20 21  1  0  0  0  0
 20 22  1  0  0  0  0
 20 23  1  0  0  0  0
 17 18  1  0  0  0  0
 17 19  1  0  0  0  0
 17 20  1  0  0  0  0
 14 15  1  0  0  0  0
 14 16  1  0  0  0  0
 14 17  1  0  0  0  0
 11 12  1  0  0  0  0
 11 13  1  0  0  0  0
 11 14  1  0  0  0  0
  9 10  1  0  0  0  0
  9 11  1  0  0  0  0
  9 26  1  0  0  0  0
  7  8  1  0  0  0  0
  7  9  1  0  0  0  0
 30 31  1  0  0  0  0
 30 32  1  0  0  0  0
 30 33  1  0  0  0  0
 28 29  1  0  0  0  0
 28 30  1  0  0  0  0
M  END
$$$$
default_name
  -OEChem-01062215323D

 33 32  0     1  0  0  0  0  0999 V2000
   -3.8420   -3.6918    1.5562 H   0  0  0  0  0  0  0  0  0  0  0  0
   -3.8430   -2.7008    1.1032 C   0  0  0  0  0  0  0  0  0  0  0  0
   -4.5510   -2.0608    1.6242 H   0  0  0  0  0  0  0  0  0  0  0  0
   -4.1140   -2.7798    0.0522 H   0  0  0  0  0  0  0  0  0  0  0  0
   -2.4570   -2.1098    1.2172 C   0  0  0  0  0  0  0  0  0  0  0  0
   -1.5600   -2.7438    1.7572 O   0  0  0  0  0  0  0  0  0  0  0  0
   -2.2870   -0.8898    0.7102 N   0  0  0  0  0  0  0  0  0  0  0  0
   -3.0820   -0.4218    0.2992 H   0  0  0  0  0  0  0  0  0  0  0  0
   -1.0240   -0.1468    0.7262 C   0  0  1  0  0  0  0  0  0  0  0  0
   -0.7193    0.0415   -0.3042 H   0  0  0  0  0  0  0  0  0  0  0  0
   -1.2546    1.2060    1.4274 C   0  0  0  0  0  0  0  0  0  0  0  0
   -1.7254    1.0196    2.3949 H   0  0  0  0  0  0  0  0  0  0  0  0
   -0.2921    1.6881    1.6043 H   0  0  0  0  0  0  0  0  0  0  0  0
   -2.1590    2.1582    0.6295 C   0  0  0  0  0  0  0  0  0  0  0  0
   -1.7163    2.3501   -0.3482 H   0  0  0  0  0  0  0  0  0  0  0  0
   -3.1377    1.6943    0.4939 H   0  0  0  0  0  0  0  0  0  0  0  0
   -2.3312    3.4929    1.3635 C   0  0  0  0  0  0  0  0  0  0  0  0
   -2.7664    3.3165    2.3476 H   0  0  0  0  0  0  0  0  0  0  0  0
   -1.3586    3.9717    1.4803 H   0  0  0  0  0  0  0  0  0  0  0  0
   -3.2531    4.4100    0.5620 C   0  0  0  0  0  0  0  0  0  0  0  0
   -2.8115    4.6026   -0.4144 H   0  0  0  0  0  0  0  0  0  0  0  0
   -4.2191    3.9259    0.4292 H   0  0  0  0  0  0  0  0  0  0  0  0
   -3.4588    5.6902    1.2492 N   0  0  0  0  0  0  0  0  0  0  0  0
   -4.0595    6.2747    0.6866 H   0  0  0  0  0  0  0  0  0  0  0  0
   -3.8977    5.5198    2.1428 H   0  0  0  0  0  0  0  0  0  0  0  0
    0.0721   -0.9791    1.4116 C   0  0  0  0  0  0  0  0  0  0  0  0
    1.0840   -1.2968    0.7904 O   0  0  0  0  0  0  0  0  0  0  0  0
   -0.1374   -1.3365    2.6840 N   0  0  0  0  0  0  0  0  0  0  0  0
   -0.9853   -1.0244    3.1282 H   0  0  0  0  0  0  0  0  0  0  0  0
    0.7975   -2.1397    3.4705 C   0  0  0  0  0  0  0  0  0  0  0  0
    1.7822   -1.6671    3.4685 H   0  0  0  0  0  0  0  0  0  0  0  0
    0.4454   -2.2337    4.4988 H   0  0  0  0  0  0  0  0  0  0  0  0
    0.8900   -3.1336    3.0280 H   0  0  0  0  0  0  0  0  0  0  0  0
  5  6  2  0  0  0  0
  5  7  1  0  0  0  0
  2  3  1  0  0  0  0
  2  4  1  0  0  0  0
  2  5  1  0  0  0  0
  1  2  1  0  0  0  0
 26 27  2  0  0  0  0
 26 28  1  0  0  0  0
 23 24  1  0  0  0  0
 23 25  1  0  0  0  0
 20 21  1  0  0  0  0
 20 22  1  0  0  0  0
 20 23  1  0  0  0  0
 17 18  1  0  0  0  0
 17 19  1  0  0  0  0
 17 20  1  0  0  0  0
 14 15  1  0  0  0  0
 14 16  1  0  0  0  0
 14 17  1  0  0  0  0
 11 12  1  0  0  0  0
 11 13  1  0  0  0  0
 11 14  1  0  0  0  0
  9 10  1  0  0  0  0
  9 11  1  0  0  0  0
  9 26  1  0  0  0  0
  7  8  1  0  0  0  0
  7  9  1  0  0  0  0
 30 31  1  0  0  0  0
 30 32  1  0  0  0  0
 30 33  1  0  0  0  0
 28 29  1  0  0  0  0
 28 30  1  0  0  0  0
M  END
$$$$
default_name
  -OEChem-01062215323D

 33 32  0     1  0  0  0  0  0999 V2000
   -3.8420   -3.6918    1.5562 H   0  0  0  0  0  0  0  0  0  0  0  0
   -3.8430   -2.7008    1.1032 C   0  0  0  0  0  0  0  0  0  0  0  0
   -4.5510   -2.0608    1.6242 H   0  0  0  0  0  0  0  0  0  0  0  0
   -4.1140   -2.7798    0.0522 H   0  0  0  0  0  0  0  0  0  0  0  0
   -2.4570   -2.1098    1.2172 C   0  0  0  0  0  0  0  0  0  0  0  0
   -1.5600   -2.7438    1.7572 O   0  0  0  0  0  0  0  0  0  0  0  0
   -2.2870   -0.8898    0.7102 N   0  0  0  0  0  0  0  0  0  0  0  0
   -3.0820   -0.4218    0.2992 H   0  0  0  0  0  0  0  0  0  0  0  0
   -1.0240   -0.1468    0.7262 C   0  0  1  0  0  0  0  0  0  0  0  0
   -0.7193    0.0415   -0.3042 H   0  0  0  0  0  0  0  0  0  0  0  0
   -1.2546    1.2060    1.4274 C   0  0  0  0  0  0  0  0  0  0  0  0
   -1.7254    1.0196    2.3949 H   0  0  0  0  0  0  0  0  0  0  0  0
   -0.2921    1.6881    1.6043 H   0  0  0  0  0  0  0  0  0  0  0  0
   -2.1590    2.1582    0.6295 C   0  0  0  0  0  0  0  0  0  0  0  0
   -1.7163    2.3501   -0.3482 H   0  0  0  0  0  0  0  0  0  0  0  0
   -3.1377    1.6943    0.4939 H   0  0  0  0  0  0  0  0  0  0  0  0
   -2.3312    3.4929    1.3635 C   0  0  0  0  0  0  0  0  0  0  0  0
   -2.7664    3.3165    2.3476 H   0  0  0  0  0  0  0  0  0  0  0  0
   -1.3586    3.9717    1.4803 H   0  0  0  0  0  0  0  0  0  0  0  0
   -3.2531    4.4100    0.5620 C   0  0  0  0  0  0  0  0  0  0  0  0
   -2.8115    4.6026   -0.4144 H   0  0  0  0  0  0  0  0  0  0  0  0
   -4.2191    3.9259    0.4292 H   0  0  0  0  0  0  0  0  0  0  0  0
   -3.4588    5.6902    1.2492 N   0  0  0  0  0  0  0  0  0  0  0  0
   -4.0595    6.2747    0.6866 H   0  0  0  0  0  0  0  0  0  0  0  0
   -3.8977    5.5198    2.1428 H   0  0  0  0  0  0  0  0  0  0  0  0
    0.0721   -0.9791    1.4116 C   0  0  0  0  0  0  0  0  0  0  0  0
    1.1882   -1.0660    0.9041 O   0  0  0  0  0  0  0  0  0  0  0  0
   -0.2525   -1.5945    2.5546 N   0  0  0  0  0  0  0  0  0  0  0  0
   -1.1837   -1.4622    2.9137 H   0  0  0  0  0  0  0  0  0  0  0  0
    0.6683   -2.4343    3.3192 C   0  0  0  0  0  0  0  0  0  0  0  0
    1.5761   -1.8722    3.5492 H   0  0  0  0  0  0  0  0  0  0  0  0
    0.2012   -2.7603    4.2497 H   0  0  0  0  0  0  0  0  0  0  0  0
    0.9443   -3.3096    2.7275 H   0  0  0  0  0  0  0  0  0  0  0  0
  5  6  2  0  0  0  0
  5  7  1  0  0  0  0
  2  3  1  0  0  0  0
  2  4  1  0  0  0  0
  2  5  1  0  0  0  0
  1  2  1  0  0  0  0
 26 27  2  0  0  0  0
 26 28  1  0  0  0  0
 23 24  1  0  0  0  0
 23 25  1  0  0  0  0
 20 21  1  0  0  0  0
 20 22  1  0  0  0  0
 20 23  1  0  0  0  0
 17 18  1  0  0  0  0
 17 19  1  0  0  0  0
 17 20  1  0  0  0  0
 14 15  1  0  0  0  0
 14 16  1  0  0  0  0
 14 17  1  0  0  0  0
 11 12  1  0  0  0  0
 11 13  1  0  0  0  0
 11 14  1  0  0  0  0
  9 10  1  0  0  0  0
  9 11  1  0  0  0  0
  9 26  1  0  0  0  0
  7  8  1  0  0  0  0
  7  9  1  0  0  0  0
 30 31  1  0  0  0  0
 30 32  1  0  0  0  0
 30 33  1  0  0  0  0
 28 29  1  0  0  0  0
 28 30  1  0  0  0  0
M  END
$$$$
default_name
  -OEChem-01062215323D

 33 32  0     1  0  0  0  0  0999 V2000
   -3.8420   -3.6918    1.5562 H   0  0  0  0  0  0  0  0  0  0  0  0
   -3.8430   -2.7008    1.1032 C   0  0  0  0  0  0  0  0  0  0  0  0
   -4.5510   -2.0608    1.6242 H   0  0  0  0  0  0  0  0  0  0  0  0
   -4.1140   -2.7798    0.0522 H   0  0  0  0  0  0  0  0  0  0  0  0
   -2.4570   -2.1098    1.2172 C   0  0  0  0  0  0  0  0  0  0  0  0
   -1.5600   -2.7438    1.7572 O   0  0  0  0  0  0  0  0  0  0  0  0
   -2.2870   -0.8898    0.7102 N   0  0  0  0  0  0  0  0  0  0  0  0
   -3.0820   -0.4218    0.2992 H   0  0  0  0  0  0  0  0  0  0  0  0
   -1.0240   -0.1468    0.7262 C   0  0  1  0  0  0  0  0  0  0  0  0
   -0.7193    0.0415   -0.3042 H   0  0  0  0  0  0  0  0  0  0  0  0
   -1.2546    1.2060    1.4274 C   0  0  0  0  0  0  0  0  0  0  0  0
   -1.7254    1.0196    2.3949 H   0  0  0  0  0  0  0  0  0  0  0  0
   -0.2921    1.6881    1.6043 H   0  0  0  0  0  0  0  0  0  0  0  0
   -2.1590    2.1582    0.6295 C   0  0  0  0  0  0  0  0  0  0  0  0
   -1.7163    2.3501   -0.3482 H   0  0  0  0  0  0  0  0  0  0  0  0
   -3.1377    1.6943    0.4939 H   0  0  0  0  0  0  0  0  0  0  0  0
   -2.3312    3.4929    1.3635 C   0  0  0  0  0  0  0  0  0  0  0  0
   -2.7664    3.3165    2.3476 H   0  0  0  0  0  0  0  0  0  0  0  0
   -1.3586    3.9717    1.4803 H   0  0  0  0  0  0  0  0  0  0  0  0
   -3.2531    4.4100    0.5620 C   0  0  0  0  0  0  0  0  0  0  0  0
   -2.8115    4.6026   -0.4144 H   0  0  0  0  0  0  0  0  0  0  0  0
   -4.2191    3.9259    0.4292 H   0  0  0  0  0  0  0  0  0  0  0  0
   -3.4588    5.6902    1.2492 N   0  0  0  0  0  0  0  0  0  0  0  0
   -4.0595    6.2747    0.6866 H   0  0  0  0  0  0  0  0  0  0  0  0
   -3.8977    5.5198    2.1428 H   0  0  0  0  0  0  0  0  0  0  0  0
    0.0721   -0.9791    1.4116 C   0  0  0  0  0  0  0  0  0  0  0  0
    1.2463   -0.8520    1.0712 O   0  0  0  0  0  0  0  0  0  0  0  0
   -0.3157   -1.8332    2.3659 N   0  0  0  0  0  0  0  0  0  0  0  0
   -1.2947   -1.8685    2.5980 H   0  0  0  0  0  0  0  0  0  0  0  0
    0.5987   -2.7060    3.1006 C   0  0  0  0  0  0  0  0  0  0  0  0
    1.3893   -2.1089    3.5604 H   0  0  0  0  0  0  0  0  0  0  0  0
    0.0611   -3.2511    3.8777 H   0  0  0  0  0  0  0  0  0  0  0  0
    1.0591   -3.4179    2.4124 H   0  0  0  0  0  0  0  0  0  0  0  0
  5  6  2  0  0  0  0
  5  7  1  0  0  0  0
  2  3  1  0  0  0  0
  2  4  1  0  0  0  0
  2  5  1  0  0  0  0
  1  2  1  0  0  0  0
 26 27  2  0  0  0  0
 26 28  1  0  0  0  0
 23 24  1  0  0  0  0
 23 25  1  0  0  0  0
 20 21  1  0  0  0  0
 20 22  1  0  0  0  0
 20 23  1  0  0  0  0
 17 18  1  0  0  0  0
 17 19  1  0  0  0  0
 17 20  1  0  0  0  0
 14 15  1  0  0  0  0
 14 16  1  0  0  0  0
 14 17  1  0  0  0  0
 11 12  1  0  0  0  0
 11 13  1  0  0  0  0
 11 14  1  0  0  0  0
  9 10  1  0  0  0  0
  9 11  1  0  0  0  0
  9 26  1  0  0  0  0
  7  8  1  0  0  0  0
  7  9  1  0  0  0  0
 30 31  1  0  0  0  0
 30 32  1  0  0  0  0
 30 33  1  0  0  0  0
 28 29  1  0  0  0  0
 28 30  1  0  0  0  0
M  END
$$$$
default_name
  -OEChem-01062215323D

 33 32  0     1  0  0  0  0  0999 V2000
   -3.8420   -3.6918    1.5562 H   0  0  0  0  0  0  0  0  0  0  0  0
   -3.8430   -2.7008    1.1032 C   0  0  0  0  0  0  0  0  0  0  0  0
   -4.5510   -2.0608    1.6242 H   0  0  0  0  0  0  0  0  0  0  0  0
   -4.1140   -2.7798    0.0522 H   0  0  0  0  0  0  0  0  0  0  0  0
   -2.4570   -2.1098    1.2172 C   0  0  0  0  0  0  0  0  0  0  0  0
   -1.5600   -2.7438    1.7572 O   0  0  0  0  0  0  0  0  0  0  0  0
   -2.2870   -0.8898    0.7102 N   0  0  0  0  0  0  0  0  0  0  0  0
   -3.0820   -0.4218    0.2992 H   0  0  0  0  0  0  0  0  0  0  0  0
   -1.0240   -0.1468    0.7262 C   0  0  1  0  0  0  0  0  0  0  0  0
   -0.7193    0.0415   -0.3042 H   0  0  0  0  0  0  0  0  0  0  0  0
   -1.2546    1.2060    1.4274 C   0  0  0  0  0  0  0  0  0  0  0  0
   -1.7254    1.0196    2.3949 H   0  0  0  0  0  0  0  0  0  0  0  0
   -0.2921    1.6881    1.6043 H   0  0  0  0  0  0  0  0  0  0  0  0
   -2.1590    2.1582    0.6295 C   0  0  0  0  0  0  0  0  0  0  0  0
   -1.7163    2.3501   -0.3482 H   0  0  0  0  0  0  0  0  0  0  0  0
   -3.1377    1.6943    0.4939 H   0  0  0  0  0  0  0  0  0  0  0  0
   -2.3312    3.4929    1.3635 C   0  0  0  0  0  0  0  0  0  0  0  0
   -2.7664    3.3165    2.3476 H   0  0  0  0  0  0  0  0  0  0  0  0
   -1.3586    3.9717    1.4803 H   0  0  0  0  0  0  0  0  0  0  0  0
   -3.2531    4.4100    0.5620 C   0  0  0  0  0  0  0  0  0  0  0  0
   -2.8115    4.6026   -0.4144 H   0  0  0  0  0  0  0  0  0  0  0  0
   -4.2191    3.9259    0.4292 H   0  0  0  0  0  0  0  0  0  0  0  0
   -3.4588    5.6902    1.2492 N   0  0  0  0  0  0  0  0  0  0  0  0
   -4.0595    6.2747    0.6866 H   0  0  0  0  0  0  0  0  0  0  0  0
   -3.8977    5.5198    2.1428 H   0  0  0  0  0  0  0  0  0  0  0  0
    0.0721   -0.9791    1.4116 C   0  0  0  0  0  0  0  0  0  0  0  0
    1.2543   -0.6694    1.2801 O   0  0  0  0  0  0  0  0  0  0  0  0
   -0.3228   -2.0362    2.1308 N   0  0  0  0  0  0  0  0  0  0  0  0
   -1.3109   -2.2154    2.2025 H   0  0  0  0  0  0  0  0  0  0  0  0
    0.5935   -2.9361    2.8296 C   0  0  0  0  0  0  0  0  0  0  0  0
    1.2346   -2.3611    3.5014 H   0  0  0  0  0  0  0  0  0  0  0  0
    0.0344   -3.6728    3.4082 H   0  0  0  0  0  0  0  0  0  0  0  0
    1.2266   -3.4512    2.1041 H   0  0  0  0  0  0  0  0  0  0  0  0
  5  6  2  0  0  0  0
  5  7  1  0  0  0  0
  2  3  1  0  0  0  0
  2  4  1  0  0  0  0
  2  5  1  0  0  0  0
  1  2  1  0  0  0  0
 26 27  2  0  0  0  0
 26 28  1  0  0  0  0
 23 24  1  0  0  0  0
 23 25  1  0  0  0  0
 20 21  1  0  0  0  0
 20 22  1  0  0  0  0
 20 23  1  0  0  0  0
 17 18  1  0  0  0  0
 17 19  1  0  0  0  0
 17 20  1  0  0  0  0
 14 15  1  0  0  0  0
 14 16  1  0  0  0  0
 14 17  1  0  0  0  0
 11 12  1  0  0  0  0
 11 13  1  0  0  0  0
 11 14  1  0  0  0  0
  9 10  1  0  0  0  0
  9 11  1  0  0  0  0
  9 26  1  0  0  0  0
  7  8  1  0  0  0  0
  7  9  1  0  0  0  0
 30 31  1  0  0  0  0
 30 32  1  0  0  0  0
 30 33  1  0  0  0  0
 28 29  1  0  0  0  0
 28 30  1  0  0  0  0
M  END
$$$$
default_name
  -OEChem-01062215323D

 33 32  0     1  0  0  0  0  0999 V2000
   -3.8420   -3.6918    1.5562 H   0  0  0  0  0  0  0  0  0  0  0  0
   -3.8430   -2.7008    1.1032 C   0  0  0  0  0  0  0  0  0  0  0  0
   -4.5510   -2.0608    1.6242 H   0  0  0  0  0  0  0  0  0  0  0  0
   -4.1140   -2.7798    0.0522 H   0  0  0  0  0  0  0  0  0  0  0  0
   -2.4570   -2.1098    1.2172 C   0  0  0  0  0  0  0  0  0  0  0  0
   -1.5600   -2.7438    1.7572 O   0  0  0  0  0  0  0  0  0  0  0  0
   -2.2870   -0.8898    0.7102 N   0  0  0  0  0  0  0  0  0  0  0  0
   -3.0820   -0.4218    0.2992 H   0  0  0  0  0  0  0  0  0  0  0  0
   -1.0240   -0.1468    0.7262 C   0  0  1  0  0  0  0  0  0  0  0  0
   -0.7193    0.0415   -0.3042 H   0  0  0  0  0  0  0  0  0  0  0  0
   -1.2546    1.2060    1.4274 C   0  0  0  0  0  0  0  0  0  0  0  0
   -1.7254    1.0196    2.3949 H   0  0  0  0  0  0  0  0  0  0  0  0
   -0.2921    1.6881    1.6043 H   0  0  0  0  0  0  0  0  0  0  0  0
   -2.1590    2.1582    0.6295 C   0  0  0  0  0  0  0  0  0  0  0  0
   -1.7163    2.3501   -0.3482 H   0  0  0  0  0  0  0  0  0  0  0  0
   -3.1377    1.6943    0.4939 H   0  0  0  0  0  0  0  0  0  0  0  0
   -2.3312    3.4929    1.3635 C   0  0  0  0  0  0  0  0  0  0  0  0
   -2.7664    3.3165    2.3476 H   0  0  0  0  0  0  0  0  0  0  0  0
   -1.3586    3.9717    1.4803 H   0  0  0  0  0  0  0  0  0  0  0  0
   -3.2531    4.4100    0.5620 C   0  0  0  0  0  0  0  0  0  0  0  0
   -2.8115    4.6026   -0.4144 H   0  0  0  0  0  0  0  0  0  0  0  0
   -4.2191    3.9259    0.4292 H   0  0  0  0  0  0  0  0  0  0  0  0
   -3.4588    5.6902    1.2492 N   0  0  0  0  0  0  0  0  0  0  0  0
   -4.0595    6.2747    0.6866 H   0  0  0  0  0  0  0  0  0  0  0  0
   -3.8977    5.5198    2.1428 H   0  0  0  0  0  0  0  0  0  0  0  0
    0.0721   -0.9791    1.4116 C   0  0  0  0  0  0  0  0  0  0  0  0
    1.2117   -0.5307    1.5168 O   0  0  0  0  0  0  0  0  0  0  0  0
   -0.2733   -2.1897    1.8652 N   0  0  0  0  0  0  0  0  0  0  0  0
   -1.2311   -2.4794    1.7542 H   0  0  0  0  0  0  0  0  0  0  0  0
    0.6530   -3.1089    2.5246 C   0  0  0  0  0  0  0  0  0  0  0  0
    1.1225   -2.6118    3.3762 H   0  0  0  0  0  0  0  0  0  0  0  0
    0.1231   -3.9966    2.8732 H   0  0  0  0  0  0  0  0  0  0  0  0
    1.4354   -3.4071    1.8237 H   0  0  0  0  0  0  0  0  0  0  0  0
  5  6  2  0  0  0  0
  5  7  1  0  0  0  0
  2  3  1  0  0  0  0
  2  4  1  0  0  0  0
  2  5  1  0  0  0  0
  1  2  1  0  0  0  0
 26 27  2  0  0  0  0
 26 28  1  0  0  0  0
 23 24  1  0  0  0  0
 23 25  1  0  0  0  0
 20 21  1  0  0  0  0
 20 22  1  0  0  0  0
 20 23  1  0  0  0  0
 17 18  1  0  0  0  0
 17 19  1  0  0  0  0
 17 20  1  0  0  0  0
 14 15  1  0  0  0  0
 14 16  1  0  0  0  0
 14 17  1  0  0  0  0
 11 12  1  0  0  0  0
 11 13  1  0  0  0  0
 11 14  1  0  0  0  0
  9 10  1  0  0  0  0
  9 11  1  0  0  0  0
  9 26  1  0  0  0  0
  7  8  1  0  0  0  0
  7  9  1  0  0  0  0
 30 31  1  0  0  0  0
 30 32  1  0  0  0  0
 30 33  1  0  0  0  0
 28 29  1  0  0  0  0
 28 30  1  0  0  0  0
M  END
$$$$
default_name
  -OEChem-01062215323D

 33 32  0     1  0  0  0  0  0999 V2000
   -3.8420   -3.6918    1.5562 H   0  0  0  0  0  0  0  0  0  0  0  0
   -3.8430   -2.7008    1.1032 C   0  0  0  0  0  0  0  0  0  0  0  0
   -4.5510   -2.0608    1.6242 H   0  0  0  0  0  0  0  0  0  0  0  0
   -4.1140   -2.7798    0.0522 H   0  0  0  0  0  0  0  0  0  0  0  0
   -2.4570   -2.1098    1.2172 C   0  0  0  0  0  0  0  0  0  0  0  0
   -1.5600   -2.7438    1.7572 O   0  0  0  0  0  0  0  0  0  0  0  0
   -2.2870   -0.8898    0.7102 N   0  0  0  0  0  0  0  0  0  0  0  0
   -3.0820   -0.4218    0.2992 H   0  0  0  0  0  0  0  0  0  0  0  0
   -1.0240   -0.1468    0.7262 C   0  0  1  0  0  0  0  0  0  0  0  0
   -0.7193    0.0415   -0.3042 H   0  0  0  0  0  0  0  0  0  0  0  0
   -1.2546    1.2060    1.4274 C   0  0  0  0  0  0  0  0  0  0  0  0
   -1.7254    1.0196    2.3949 H   0  0  0  0  0  0  0  0  0  0  0  0
   -0.2921    1.6881    1.6043 H   0  0  0  0  0  0  0  0  0  0  0  0
   -2.1590    2.1582    0.6295 C   0  0  0  0  0  0  0  0  0  0  0  0
   -1.7163    2.3501   -0.3482 H   0  0  0  0  0  0  0  0  0  0  0  0
   -3.1377    1.6943    0.4939 H   0  0  0  0  0  0  0  0  0  0  0  0
   -2.3312    3.4929    1.3635 C   0  0  0  0  0  0  0  0  0  0  0  0
   -2.7664    3.3165    2.3476 H   0  0  0  0  0  0  0  0  0  0  0  0
   -1.3586    3.9717    1.4803 H   0  0  0  0  0  0  0  0  0  0  0  0
   -3.2531    4.4100    0.5620 C   0  0  0  0  0  0  0  0  0  0  0  0
   -2.8115    4.6026   -0.4144 H   0  0  0  0  0  0  0  0  0  0  0  0
   -4.2191    3.9259    0.4292 H   0  0  0  0  0  0  0  0  0  0  0  0
   -3.4588    5.6902    1.2492 N   0  0  0  0  0  0  0  0  0  0  0  0
   -4.0595    6.2747    0.6866 H   0  0  0  0  0  0  0  0  0  0  0  0
   -3.8977    5.5198    2.1428 H   0  0  0  0  0  0  0  0  0  0  0  0
    0.0721   -0.9791    1.4116 C   0  0  0  0  0  0  0  0  0  0  0  0
    1.1214   -0.4452    1.7650 O   0  0  0  0  0  0  0  0  0  0  0  0
   -0.1706   -2.2832    1.5873 N   0  0  0  0  0  0  0  0  0  0  0  0
   -1.0607   -2.6425    1.2837 H   0  0  0  0  0  0  0  0  0  0  0  0
    0.7731   -3.2127    2.2065 C   0  0  0  0  0  0  0  0  0  0  0  0
    1.0608   -2.8437    3.1934 H   0  0  0  0  0  0  0  0  0  0  0  0
    0.3211   -4.2004    2.3091 H   0  0  0  0  0  0  0  0  0  0  0  0
    1.6714   -3.2886    1.5903 H   0  0  0  0  0  0  0  0  0  0  0  0
  5  6  2  0  0  0  0
  5  7  1  0  0  0  0
  2  3  1  0  0  0  0
  2  4  1  0  0  0  0
  2  5  1  0  0  0  0
  1  2  1  0  0  0  0
 26 27  2  0  0  0  0
 26 28  1  0  0  0  0
 23 24  1  0  0  0  0
 23 25  1  0  0  0  0
 20 21  1  0  0  0  0
 20 22  1  0  0  0  0
 20 23  1  0  0  0  0
 17 18  1  0  0  0  0
 17 19  1  0  0  0  0
 17 20  1  0  0  0  0
 14 15  1  0  0  0  0
 14 16  1  0  0  0  0
 14 17  1  0  0  0  0
 11 12  1  0  0  0  0
 11 13  1  0  0  0  0
 11 14  1  0  0  0  0
  9 10  1  0  0  0  0
  9 11  1  0  0  0  0
  9 26  1  0  0  0  0
  7  8  1  0  0  0  0
  7  9  1  0  0  0  0
 30 31  1  0  0  0  0
 30 32  1  0  0  0  0
 30 33  1  0  0  0  0
 28 29  1  0  0  0  0
 28 30  1  0  0  0  0
M  END
$$$$
default_name
  -OEChem-01062215323D

 33 32  0     1  0  0  0  0  0999 V2000
   -3.8420   -3.6918    1.5562 H   0  0  0  0  0  0  0  0  0  0  0  0
   -3.8430   -2.7008    1.1032 C   0  0  0  0  0  0  0  0  0  0  0  0
   -4.5510   -2.0608    1.6242 H   0  0  0  0  0  0  0  0  0  0  0  0
   -4.1140   -2.7798    0.0522 H   0  0  0  0  0  0  0  0  0  0  0  0
   -2.4570   -2.1098    1.2172 C   0  0  0  0  0  0  0  0  0  0  0  0
   -1.5600   -2.7438    1.7572 O   0  0  0  0  0  0  0  0  0  0  0  0
   -2.2870   -0.8898    0.7102 N   0  0  0  0  0  0  0  0  0  0  0  0
   -3.0820   -0.4218    0.2992 H   0  0  0  0  0  0  0  0  0  0  0  0
   -1.0240   -0.1468    0.7262 C   0  0  1  0  0  0  0  0  0  0  0  0
   -0.7193    0.0415   -0.3042 H   0  0  0  0  0  0  0  0  0  0  0  0
   -1.2546    1.2060    1.4274 C   0  0  0  0  0  0  0  0  0  0  0  0
   -1.7254    1.0196    2.3949 H   0  0  0  0  0  0  0  0  0  0  0  0
   -0.2921    1.6881    1.6043 H   0  0  0  0  0  0  0  0  0  0  0  0
   -2.1590    2.1582    0.6295 C   0  0  0  0  0  0  0  0  0  0  0  0
   -1.7163    2.3501   -0.3482 H   0  0  0  0  0  0  0  0  0  0  0  0
   -3.1377    1.6943    0.4939 H   0  0  0  0  0  0  0  0  0  0  0  0
   -2.3312    3.4929    1.3635 C   0  0  0  0  0  0  0  0  0  0  0  0
   -2.7664    3.3165    2.3476 H   0  0  0  0  0  0  0  0  0  0  0  0
   -1.3586    3.9717    1.4803 H   0  0  0  0  0  0  0  0  0  0  0  0
   -3.2531    4.4100    0.5620 C   0  0  0  0  0  0  0  0  0  0  0  0
   -2.8115    4.6026   -0.4144 H   0  0  0  0  0  0  0  0  0  0  0  0
   -4.2191    3.9259    0.4292 H   0  0  0  0  0  0  0  0  0  0  0  0
   -3.4588    5.6902    1.2492 N   0  0  0  0  0  0  0  0  0  0  0  0
   -4.0595    6.2747    0.6866 H   0  0  0  0  0  0  0  0  0  0  0  0
   -3.8977    5.5198    2.1428 H   0  0  0  0  0  0  0  0  0  0  0  0
    0.0721   -0.9791    1.4116 C   0  0  0  0  0  0  0  0  0  0  0  0
    0.9895   -0.4189    2.0078 O   0  0  0  0  0  0  0  0  0  0  0  0
   -0.0216   -2.3105    1.3160 N   0  0  0  0  0  0  0  0  0  0  0  0
   -0.8114   -2.6936    0.8230 H   0  0  0  0  0  0  0  0  0  0  0  0
    0.9456   -3.2405    1.8968 C   0  0  0  0  0  0  0  0  0  0  0  0
    1.0535   -3.0411    2.9653 H   0  0  0  0  0  0  0  0  0  0  0  0
    0.6150   -4.2703    1.7543 H   0  0  0  0  0  0  0  0  0  0  0  0
    1.9183   -3.1040    1.4197 H   0  0  0  0  0  0  0  0  0  0  0  0
  5  6  2  0  0  0  0
  5  7  1  0  0  0  0
  2  3  1  0  0  0  0
  2  4  1  0  0  0  0
  2  5  1  0  0  0  0
  1  2  1  0  0  0  0
 26 27  2  0  0  0  0
 26 28  1  0  0  0  0
 23 24  1  0  0  0  0
 23 25  1  0  0  0  0
 20 21  1  0  0  0  0
 20 22  1  0  0  0  0
 20 23  1  0  0  0  0
 17 18  1  0  0  0  0
 17 19  1  0  0  0  0
 17 20  1  0  0  0  0
 14 15  1  0  0  0  0
 14 16  1  0  0  0  0
 14 17  1  0  0  0  0
 11 12  1  0  0  0  0
 11 13  1  0  0  0  0
 11 14  1  0  0  0  0
  9 10  1  0  0  0  0
  9 11  1  0  0  0  0
  9 26  1  0  0  0  0
  7  8  1  0  0  0  0
  7  9  1  0  0  0  0
 30 31  1  0  0  0  0
 30 32  1  0  0  0  0
 30 33  1  0  0  0  0
 28 29  1  0  0  0  0
 28 30  1  0  0  0  0
M  END
$$$$
default_name
  -OEChem-01062215323D

 33 32  0     1  0  0  0  0  0999 V2000
   -3.8420   -3.6918    1.5562 H   0  0  0  0  0  0  0  0  0  0  0  0
   -3.8430   -2.7008    1.1032 C   0  0  0  0  0  0  0  0  0  0  0  0
   -4.5510   -2.0608    1.6242 H   0  0  0  0  0  0  0  0  0  0  0  0
   -4.1140   -2.7798    0.0522 H   0  0  0  0  0  0  0  0  0  0  0  0
   -2.4570   -2.1098    1.2172 C   0  0  0  0  0  0  0  0  0  0  0  0
   -1.5600   -2.7438    1.7572 O   0  0  0  0  0  0  0  0  0  0  0  0
   -2.2870   -0.8898    0.7102 N   0  0  0  0  0  0  0  0  0  0  0  0
   -3.0820   -0.4218    0.2992 H   0  0  0  0  0  0  0  0  0  0  0  0
   -1.0240   -0.1468    0.7262 C   0  0  1  0  0  0  0  0  0  0  0  0
   -0.7193    0.0415   -0.3042 H   0  0  0  0  0  0  0  0  0  0  0  0
   -1.2546    1.2060    1.4274 C   0  0  0  0  0  0  0  0  0  0  0  0
   -1.7254    1.0196    2.3949 H   0  0  0  0  0  0  0  0  0  0  0  0
   -0.2921    1.6881    1.6043 H   0  0  0  0  0  0  0  0  0  0  0  0
   -2.1590    2.1582    0.6295 C   0  0  0  0  0  0  0  0  0  0  0  0
   -1.7163    2.3501   -0.3482 H   0  0  0  0  0  0  0  0  0  0  0  0
   -3.1377    1.6943    0.4939 H   0  0  0  0  0  0  0  0  0  0  0  0
   -2.3312    3.4929    1.3635 C   0  0  0  0  0  0  0  0  0  0  0  0
   -2.7664    3.3165    2.3476 H   0  0  0  0  0  0  0  0  0  0  0  0
   -1.3586    3.9717    1.4803 H   0  0  0  0  0  0  0  0  0  0  0  0
   -3.2531    4.4100    0.5620 C   0  0  0  0  0  0  0  0  0  0  0  0
   -2.8115    4.6026   -0.4144 H   0  0  0  0  0  0  0  0  0  0  0  0
   -4.2191    3.9259    0.4292 H   0  0  0  0  0  0  0  0  0  0  0  0
   -3.4588    5.6902    1.2492 N   0  0  0  0  0  0  0  0  0  0  0  0
   -4.0595    6.2747    0.6866 H   0  0  0  0  0  0  0  0  0  0  0  0
   -3.8977    5.5198    2.1428 H   0  0  0  0  0  0  0  0  0  0  0  0
    0.0721   -0.9791    1.4116 C   0  0  0  0  0  0  0  0  0  0  0  0
    0.8250   -0.4535    2.2288 O   0  0  0  0  0  0  0  0  0  0  0  0
    0.1635   -2.2696    1.0698 N   0  0  0  0  0  0  0  0  0  0  0  0
   -0.5001   -2.6292    0.4035 H   0  0  0  0  0  0  0  0  0  0  0  0
    1.1589   -3.1902    1.6168 C   0  0  0  0  0  0  0  0  0  0  0  0
    1.1012   -3.1905    2.7075 H   0  0  0  0  0  0  0  0  0  0  0  0
    0.9846   -4.2015    1.2467 H   0  0  0  0  0  0  0  0  0  0  0  0
    2.1594   -2.8656    1.3236 H   0  0  0  0  0  0  0  0  0  0  0  0
  5  6  2  0  0  0  0
  5  7  1  0  0  0  0
  2  3  1  0  0  0  0
  2  4  1  0  0  0  0
  2  5  1  0  0  0  0
  1  2  1  0  0  0  0
 26 27  2  0  0  0  0
 26 28  1  0  0  0  0
 23 24  1  0  0  0  0
 23 25  1  0  0  0  0
 20 21  1  0  0  0  0
 20 22  1  0  0  0  0
 20 23  1  0  0  0  0
 17 18  1  0  0  0  0
 17 19  1  0  0  0  0
 17 20  1  0  0  0  0
 14 15  1  0  0  0  0
 14 16  1  0  0  0  0
 14 17  1  0  0  0  0
 11 12  1  0  0  0  0
 11 13  1  0  0  0  0
 11 14  1  0  0  0  0
  9 10  1  0  0  0  0
  9 11  1  0  0  0  0
  9 26  1  0  0  0  0
  7  8  1  0  0  0  0
  7  9  1  0  0  0  0
 30 31  1  0  0  0  0
 30 32  1  0  0  0  0
 30 33  1  0  0  0  0
 28 29  1  0  0  0  0
 28 30  1  0  0  0  0
M  END
$$$$
default_name
  -OEChem-01062215323D

 33 32  0     1  0  0  0  0  0999 V2000
   -3.8420   -3.6918    1.5562 H   0  0  0  0  0  0  0  0  0  0  0  0
   -3.8430   -2.7008    1.1032 C   0  0  0  0  0  0  0  0  0  0  0  0
   -4.5510   -2.0608    1.6242 H   0  0  0  0  0  0  0  0  0  0  0  0
   -4.1140   -2.7798    0.0522 H   0  0  0  0  0  0  0  0  0  0  0  0
   -2.4570   -2.1098    1.2172 C   0  0  0  0  0  0  0  0  0  0  0  0
   -1.5600   -2.7438    1.7572 O   0  0  0  0  0  0  0  0  0  0  0  0
   -2.2870   -0.8898    0.7102 N   0  0  0  0  0  0  0  0  0  0  0  0
   -3.0820   -0.4218    0.2992 H   0  0  0  0  0  0  0  0  0  0  0  0
   -1.0240   -0.1468    0.7262 C   0  0  1  0  0  0  0  0  0  0  0  0
   -0.7193    0.0415   -0.3042 H   0  0  0  0  0  0  0  0  0  0  0  0
   -1.2546    1.2060    1.4274 C   0  0  0  0  0  0  0  0  0  0  0  0
   -1.7254    1.0196    2.3949 H   0  0  0  0  0  0  0  0  0  0  0  0
   -0.2921    1.6881    1.6043 H   0  0  0  0  0  0  0  0  0  0  0  0
   -2.1590    2.1582    0.6295 C   0  0  0  0  0  0  0  0  0  0  0  0
   -1.7163    2.3501   -0.3482 H   0  0  0  0  0  0  0  0  0  0  0  0
   -3.1377    1.6943    0.4939 H   0  0  0  0  0  0  0  0  0  0  0  0
   -2.3312    3.4929    1.3635 C   0  0  0  0  0  0  0  0  0  0  0  0
   -2.7664    3.3165    2.3476 H   0  0  0  0  0  0  0  0  0  0  0  0
   -1.3586    3.9717    1.4803 H   0  0  0  0  0  0  0  0  0  0  0  0
   -3.2531    4.4100    0.5620 C   0  0  0  0  0  0  0  0  0  0  0  0
   -2.8115    4.6026   -0.4144 H   0  0  0  0  0  0  0  0  0  0  0  0
   -4.2191    3.9259    0.4292 H   0  0  0  0  0  0  0  0  0  0  0  0
   -3.4588    5.6902    1.2492 N   0  0  0  0  0  0  0  0  0  0  0  0
   -4.0595    6.2747    0.6866 H   0  0  0  0  0  0  0  0  0  0  0  0
   -3.8977    5.5198    2.1428 H   0  0  0  0  0  0  0  0  0  0  0  0
    0.0721   -0.9791    1.4116 C   0  0  0  0  0  0  0  0  0  0  0  0
    0.6392   -0.5467    2.4128 O   0  0  0  0  0  0  0  0  0  0  0  0
    0.3720   -2.1632    0.8654 N   0  0  0  0  0  0  0  0  0  0  0  0
   -0.1481   -2.4536    0.0537 H   0  0  0  0  0  0  0  0  0  0  0  0
    1.3984   -3.0654    1.3855 C   0  0  0  0  0  0  0  0  0  0  0  0
    1.2006   -3.2818    2.4376 H   0  0  0  0  0  0  0  0  0  0  0  0
    1.4048   -3.9989    0.8209 H   0  0  0  0  0  0  0  0  0  0  0  0
    2.3783   -2.5898    1.3085 H   0  0  0  0  0  0  0  0  0  0  0  0
  5  6  2  0  0  0  0
  5  7  1  0  0  0  0
  2  3  1  0  0  0  0
  2  4  1  0  0  0  0
  2  5  1  0  0  0  0
  1  2  1  0  0  0  0
 26 27  2  0  0  0  0
 26 28  1  0  0  0  0
 23 24  1  0  0  0  0
 23 25  1  0  0  0  0
 20 21  1  0  0  0  0
 20 22  1  0  0  0  0
 20 23  1  0  0  0  0
 17 18  1  0  0  0  0
 17 19  1  0  0  0  0
 17 20  1  0  0  0  0
 14 15  1  0  0  0  0
 14 16  1  0  0  0  0
 14 17  1  0  0  0  0
 11 12  1  0  0  0  0
 11 13  1  0  0  0  0
 11 14  1  0  0  0  0
  9 10  1  0  0  0  0
  9 11  1  0  0  0  0
  9 26  1  0  0  0  0
  7  8  1  0  0  0  0
  7  9  1  0  0  0  0
 30 31  1  0  0  0  0
 30 32  1  0  0  0  0
 30 33  1  0  0  0  0
 28 29  1  0  0  0  0
 28 30  1  0  0  0  0
M  END
$$$$
default_name
  -OEChem-01062215323D

 33 32  0     1  0  0  0  0  0999 V2000
   -3.8420   -3.6918    1.5562 H   0  0  0  0  0  0  0  0  0  0  0  0
   -3.8430   -2.7008    1.1032 C   0  0  0  0  0  0  0  0  0  0  0  0
   -4.5510   -2.0608    1.6242 H   0  0  0  0  0  0  0  0  0  0  0  0
   -4.1140   -2.7798    0.0522 H   0  0  0  0  0  0  0  0  0  0  0  0
   -2.4570   -2.1098    1.2172 C   0  0  0  0  0  0  0  0  0  0  0  0
   -1.5600   -2.7438    1.7572 O   0  0  0  0  0  0  0  0  0  0  0  0
   -2.2870   -0.8898    0.7102 N   0  0  0  0  0  0  0  0  0  0  0  0
   -3.0820   -0.4218    0.2992 H   0  0  0  0  0  0  0  0  0  0  0  0
   -1.0240   -0.1468    0.7262 C   0  0  1  0  0  0  0  0  0  0  0  0
   -0.7193    0.0415   -0.3042 H   0  0  0  0  0  0  0  0  0  0  0  0
   -1.2546    1.2060    1.4274 C   0  0  0  0  0  0  0  0  0  0  0  0
   -1.7254    1.0196    2.3949 H   0  0  0  0  0  0  0  0  0  0  0  0
   -0.2921    1.6881    1.6043 H   0  0  0  0  0  0  0  0  0  0  0  0
   -2.1590    2.1582    0.6295 C   0  0  0  0  0  0  0  0  0  0  0  0
   -1.7163    2.3501   -0.3482 H   0  0  0  0  0  0  0  0  0  0  0  0
   -3.1377    1.6943    0.4939 H   0  0  0  0  0  0  0  0  0  0  0  0
   -2.3312    3.4929    1.3635 C   0  0  0  0  0  0  0  0  0  0  0  0
   -2.7664    3.3165    2.3476 H   0  0  0  0  0  0  0  0  0  0  0  0
   -1.3586    3.9717    1.4803 H   0  0  0  0  0  0  0  0  0  0  0  0
   -3.2531    4.4100    0.5620 C   0  0  0  0  0  0  0  0  0  0  0  0
   -2.8115    4.6026   -0.4144 H   0  0  0  0  0  0  0  0  0  0  0  0
   -4.2191    3.9259    0.4292 H   0  0  0  0  0  0  0  0  0  0  0  0
   -3.4588    5.6902    1.2492 N   0  0  0  0  0  0  0  0  0  0  0  0
   -4.0595    6.2747    0.6866 H   0  0  0  0  0  0  0  0  0  0  0  0
   -3.8977    5.5198    2.1428 H   0  0  0  0  0  0  0  0  0  0  0  0
    0.0721   -0.9791    1.4116 C   0  0  0  0  0  0  0  0  0  0  0  0
    0.4447   -0.6921    2.5473 O   0  0  0  0  0  0  0  0  0  0  0  0
    0.5898   -1.9988    0.7169 N   0  0  0  0  0  0  0  0  0  0  0  0
    0.2207   -2.1789   -0.2024 H   0  0  0  0  0  0  0  0  0  0  0  0
    1.6477   -2.8745    1.2186 C   0  0  0  0  0  0  0  0  0  0  0  0
    1.3450   -3.3087    2.1741 H   0  0  0  0  0  0  0  0  0  0  0  0
    1.8469   -3.6760    0.5059 H   0  0  0  0  0  0  0  0  0  0  0  0
    2.5600   -2.2953    1.3755 H   0  0  0  0  0  0  0  0  0  0  0  0
  5  6  2  0  0  0  0
  5  7  1  0  0  0  0
  2  3  1  0  0  0  0
  2  4  1  0  0  0  0
  2  5  1  0  0  0  0
  1  2  1  0  0  0  0
 26 27  2  0  0  0  0
 26 28  1  0  0  0  0
 23 24  1  0  0  0  0
 23 25  1  0  0  0  0
 20 21  1  0  0  0  0
 20 22  1  0  0  0  0
 20 23  1  0  0  0  0
 17 18  1  0  0  0  0
 17 19  1  0  0  0  0
 17 20  1  0  0  0  0
 14 15  1  0  0  0  0
 14 16  1  0  0  0  0
 14 17  1  0  0  0  0
 11 12  1  0  0  0  0
 11 13  1  0  0  0  0
 11 14  1  0  0  0  0
  9 10  1  0  0  0  0
  9 11  1  0  0  0  0
  9 26  1  0  0  0  0
  7  8  1  0  0  0  0
  7  9  1  0  0  0  0
 30 31  1  0  0  0  0
 30 32  1  0  0  0  0
 30 33  1  0  0  0  0
 28 29  1  0  0  0  0
 28 30  1  0  0  0  0
M  END
$$$$
default_name
  -OEChem-01062215323D

 33 32  0     1  0  0  0  0  0999 V2000
   -3.8420   -3.6918    1.5562 H   0  0  0  0  0  0  0  0  0  0  0  0
   -3.8430   -2.7008    1.1032 C   0  0  0  0  0  0  0  0  0  0  0  0
   -4.5510   -2.0608    1.6242 H   0  0  0  0  0  0  0  0  0  0  0  0
   -4.1140   -2.7798    0.0522 H   0  0  0  0  0  0  0  0  0  0  0  0
   -2.4570   -2.1098    1.2172 C   0  0  0  0  0  0  0  0  0  0  0  0
   -1.5600   -2.7438    1.7572 O   0  0  0  0  0  0  0  0  0  0  0  0
   -2.2870   -0.8898    0.7102 N   0  0  0  0  0  0  0  0  0  0  0  0
   -3.0820   -0.4218    0.2992 H   0  0  0  0  0  0  0  0  0  0  0  0
   -1.0240   -0.1468    0.7262 C   0  0  1  0  0  0  0  0  0  0  0  0
   -0.7193    0.0415   -0.3042 H   0  0  0  0  0  0  0  0  0  0  0  0
   -1.2546    1.2060    1.4274 C   0  0  0  0  0  0  0  0  0  0  0  0
   -1.7254    1.0196    2.3949 H   0  0  0  0  0  0  0  0  0  0  0  0
   -0.2921    1.6881    1.6043 H   0  0  0  0  0  0  0  0  0  0  0  0
   -2.1590    2.1582    0.6295 C   0  0  0  0  0  0  0  0  0  0  0  0
   -1.7163    2.3501   -0.3482 H   0  0  0  0  0  0  0  0  0  0  0  0
   -3.1377    1.6943    0.4939 H   0  0  0  0  0  0  0  0  0  0  0  0
   -2.3312    3.4929    1.3635 C   0  0  0  0  0  0  0  0  0  0  0  0
   -2.7664    3.3165    2.3476 H   0  0  0  0  0  0  0  0  0  0  0  0
   -1.3586    3.9717    1.4803 H   0  0  0  0  0  0  0  0  0  0  0  0
   -3.2531    4.4100    0.5620 C   0  0  0  0  0  0  0  0  0  0  0  0
   -2.8115    4.6026   -0.4144 H   0  0  0  0  0  0  0  0  0  0  0  0
   -4.2191    3.9259    0.4292 H   0  0  0  0  0  0  0  0  0  0  0  0
   -3.4588    5.6902    1.2492 N   0  0  0  0  0  0  0  0  0  0  0  0
   -4.0595    6.2747    0.6866 H   0  0  0  0  0  0  0  0  0  0  0  0
   -3.8977    5.5198    2.1428 H   0  0  0  0  0  0  0  0  0  0  0  0
    0.0721   -0.9791    1.4116 C   0  0  0  0  0  0  0  0  0  0  0  0
    0.2547   -0.8798    2.6231 O   0  0  0  0  0  0  0  0  0  0  0  0
    0.8020   -1.7874    0.6342 N   0  0  0  0  0  0  0  0  0  0  0  0
    0.5810   -1.8238   -0.3474 H   0  0  0  0  0  0  0  0  0  0  0  0
    1.8898   -2.6306    1.1276 C   0  0  0  0  0  0  0  0  0  0  0  0
    1.5246   -3.2694    1.9347 H   0  0  0  0  0  0  0  0  0  0  0  0
    2.2809   -3.2551    0.3231 H   0  0  0  0  0  0  0  0  0  0  0  0
    2.6921   -2.0023    1.5200 H   0  0  0  0  0  0  0  0  0  0  0  0
  5  6  2  0  0  0  0
  5  7  1  0  0  0  0
  2  3  1  0  0  0  0
  2  4  1  0  0  0  0
  2  5  1  0  0  0  0
  1  2  1  0  0  0  0
 26 27  2  0  0  0  0
 26 28  1  0  0  0  0
 23 24  1  0  0  0  0
 23 25  1  0  0  0  0
 20 21  1  0  0  0  0
 20 22  1  0  0  0  0
 20 23  1  0  0  0  0
 17 18  1  0  0  0  0
 17 19  1  0  0  0  0
 17 20  1  0  0  0  0
 14 15  1  0  0  0  0
 14 16  1  0  0  0  0
 14 17  1  0  0  0  0
 11 12  1  0  0  0  0
 11 13  1  0  0  0  0
 11 14  1  0  0  0  0
  9 10  1  0  0  0  0
  9 11  1  0  0  0  0
  9 26  1  0  0  0  0
  7  8  1  0  0  0  0
  7  9  1  0  0  0  0
 30 31  1  0  0  0  0
 30 32  1  0  0  0  0
 30 33  1  0  0  0  0
 28 29  1  0  0  0  0
 28 30  1  0  0  0  0
M  END
$$$$
default_name
  -OEChem-01062215323D

 33 32  0     1  0  0  0  0  0999 V2000
   -3.8420   -3.6918    1.5562 H   0  0  0  0  0  0  0  0  0  0  0  0
   -3.8430   -2.7008    1.1032 C   0  0  0  0  0  0  0  0  0  0  0  0
   -4.5510   -2.0608    1.6242 H   0  0  0  0  0  0  0  0  0  0  0  0
   -4.1140   -2.7798    0.0522 H   0  0  0  0  0  0  0  0  0  0  0  0
   -2.4570   -2.1098    1.2172 C   0  0  0  0  0  0  0  0  0  0  0  0
   -1.5600   -2.7438    1.7572 O   0  0  0  0  0  0  0  0  0  0  0  0
   -2.2870   -0.8898    0.7102 N   0  0  0  0  0  0  0  0  0  0  0  0
   -3.0820   -0.4218    0.2992 H   0  0  0  0  0  0  0  0  0  0  0  0
   -1.0240   -0.1468    0.7262 C   0  0  1  0  0  0  0  0  0  0  0  0
   -0.7193    0.0415   -0.3042 H   0  0  0  0  0  0  0  0  0  0  0  0
   -1.2546    1.2060    1.4274 C   0  0  0  0  0  0  0  0  0  0  0  0
   -1.7254    1.0196    2.3949 H   0  0  0  0  0  0  0  0  0  0  0  0
   -0.2921    1.6881    1.6043 H   0  0  0  0  0  0  0  0  0  0  0  0
   -2.1590    2.1582    0.6295 C   0  0  0  0  0  0  0  0  0  0  0  0
   -1.7163    2.3501   -0.3482 H   0  0  0  0  0  0  0  0  0  0  0  0
   -3.1377    1.6943    0.4939 H   0  0  0  0  0  0  0  0  0  0  0  0
   -2.3312    3.4929    1.3635 C   0  0  0  0  0  0  0  0  0  0  0  0
   -2.7664    3.3165    2.3476 H   0  0  0  0  0  0  0  0  0  0  0  0
   -1.3586    3.9717    1.4803 H   0  0  0  0  0  0  0  0  0  0  0  0
   -3.2531    4.4100    0.5620 C   0  0  0  0  0  0  0  0  0  0  0  0
   -2.8115    4.6026   -0.4144 H   0  0  0  0  0  0  0  0  0  0  0  0
   -4.2191    3.9259    0.4292 H   0  0  0  0  0  0  0  0  0  0  0  0
   -3.4588    5.6902    1.2492 N   0  0  0  0  0  0  0  0  0  0  0  0
   -4.0595    6.2747    0.6866 H   0  0  0  0  0  0  0  0  0  0  0  0
   -3.8977    5.5198    2.1428 H   0  0  0  0  0  0  0  0  0  0  0  0
    0.0721   -0.9791    1.4116 C   0  0  0  0  0  0  0  0  0  0  0  0
    0.0822   -1.0970    2.6351 O   0  0  0  0  0  0  0  0  0  0  0  0
    0.9941   -1.5435    0.6231 N   0  0  0  0  0  0  0  0  0  0  0  0
    0.9085   -1.4124   -0.3714 H   0  0  0  0  0  0  0  0  0  0  0  0
    2.1083   -2.3502    1.1186 C   0  0  0  0  0  0  0  0  0  0  0  0
    1.7270   -3.1666    1.7360 H   0  0  0  0  0  0  0  0  0  0  0  0
    2.6772   -2.7646    0.2850 H   0  0  0  0  0  0  0  0  0  0  0  0
    2.7657   -1.7307    1.7322 H   0  0  0  0  0  0  0  0  0  0  0  0
  5  6  2  0  0  0  0
  5  7  1  0  0  0  0
  2  3  1  0  0  0  0
  2  4  1  0  0  0  0
  2  5  1  0  0  0  0
  1  2  1  0  0  0  0
 26 27  2  0  0  0  0
 26 28  1  0  0  0  0
 23 24  1  0  0  0  0
 23 25  1  0  0  0  0
 20 21  1  0  0  0  0
 20 22  1  0  0  0  0
 20 23  1  0  0  0  0
 17 18  1  0  0  0  0
 17 19  1  0  0  0  0
 17 20  1  0  0  0  0
 14 15  1  0  0  0  0
 14 16  1  0  0  0  0
 14 17  1  0  0  0  0
 11 12  1  0  0  0  0
 11 13  1  0  0  0  0
 11 14  1  0  0  0  0
  9 10  1  0  0  0  0
  9 11  1  0  0  0  0
  9 26  1  0  0  0  0
  7  8  1  0  0  0  0
  7  9  1  0  0  0  0
 30 31  1  0  0  0  0
 30 32  1  0  0  0  0
 30 33  1  0  0  0  0
 28 29  1  0  0  0  0
 28 30  1  0  0  0  0
M  END
$$$$
default_name
  -OEChem-01062215323D

 33 32  0     1  0  0  0  0  0999 V2000
   -3.8420   -3.6918    1.5562 H   0  0  0  0  0  0  0  0  0  0  0  0
   -3.8430   -2.7008    1.1032 C   0  0  0  0  0  0  0  0  0  0  0  0
   -4.5510   -2.0608    1.6242 H   0  0  0  0  0  0  0  0  0  0  0  0
   -4.1140   -2.7798    0.0522 H   0  0  0  0  0  0  0  0  0  0  0  0
   -2.4570   -2.1098    1.2172 C   0  0  0  0  0  0  0  0  0  0  0  0
   -1.5600   -2.7438    1.7572 O   0  0  0  0  0  0  0  0  0  0  0  0
   -2.2870   -0.8898    0.7102 N   0  0  0  0  0  0  0  0  0  0  0  0
   -3.0820   -0.4218    0.2992 H   0  0  0  0  0  0  0  0  0  0  0  0
   -1.0240   -0.1468    0.7262 C   0  0  1  0  0  0  0  0  0  0  0  0
   -0.7193    0.0415   -0.3042 H   0  0  0  0  0  0  0  0  0  0  0  0
   -1.2546    1.2060    1.4274 C   0  0  0  0  0  0  0  0  0  0  0  0
   -1.7254    1.0196    2.3949 H   0  0  0  0  0  0  0  0  0  0  0  0
   -0.2921    1.6881    1.6043 H   0  0  0  0  0  0  0  0  0  0  0  0
   -2.1590    2.1582    0.6295 C   0  0  0  0  0  0  0  0  0  0  0  0
   -1.7163    2.3501   -0.3482 H   0  0  0  0  0  0  0  0  0  0  0  0
   -3.1377    1.6943    0.4939 H   0  0  0  0  0  0  0  0  0  0  0  0
   -2.3312    3.4929    1.3635 C   0  0  0  0  0  0  0  0  0  0  0  0
   -2.7664    3.3165    2.3476 H   0  0  0  0  0  0  0  0  0  0  0  0
   -1.3586    3.9717    1.4803 H   0  0  0  0  0  0  0  0  0  0  0  0
   -3.2531    4.4100    0.5620 C   0  0  0  0  0  0  0  0  0  0  0  0
   -2.8115    4.6026   -0.4144 H   0  0  0  0  0  0  0  0  0  0  0  0
   -4.2191    3.9259    0.4292 H   0  0  0  0  0  0  0  0  0  0  0  0
   -3.4588    5.6902    1.2492 N   0  0  0  0  0  0  0  0  0  0  0  0
   -4.0595    6.2747    0.6866 H   0  0  0  0  0  0  0  0  0  0  0  0
   -3.8977    5.5198    2.1428 H   0  0  0  0  0  0  0  0  0  0  0  0
    0.0721   -0.9791    1.4116 C   0  0  0  0  0  0  0  0  0  0  0  0
   -0.0610   -1.3289    2.5825 O   0  0  0  0  0  0  0  0  0  0  0  0
    1.1532   -1.2837    0.6844 N   0  0  0  0  0  0  0  0  0  0  0  0
    1.1807   -0.9728   -0.2728 H   0  0  0  0  0  0  0  0  0  0  0  0
    2.2883   -2.0526    1.1923 C   0  0  0  0  0  0  0  0  0  0  0  0
    1.9384   -3.0072    1.5913 H   0  0  0  0  0  0  0  0  0  0  0  0
    3.0086   -2.2382    0.3943 H   0  0  0  0  0  0  0  0  0  0  0  0
    2.7758   -1.4990    1.9975 H   0  0  0  0  0  0  0  0  0  0  0  0
  5  6  2  0  0  0  0
  5  7  1  0  0  0  0
  2  3  1  0  0  0  0
  2  4  1  0  0  0  0
  2  5  1  0  0  0  0
  1  2  1  0  0  0  0
 26 27  2  0  0  0  0
 26 28  1  0  0  0  0
 23 24  1  0  0  0  0
 23 25  1  0  0  0  0
 20 21  1  0  0  0  0
 20 22  1  0  0  0  0
 20 23  1  0  0  0  0
 17 18  1  0  0  0  0
 17 19  1  0  0  0  0
 17 20  1  0  0  0  0
 14 15  1  0  0  0  0
 14 16  1  0  0  0  0
 14 17  1  0  0  0  0
 11 12  1  0  0  0  0
 11 13  1  0  0  0  0
 11 14  1  0  0  0  0
  9 10  1  0  0  0  0
  9 11  1  0  0  0  0
  9 26  1  0  0  0  0
  7  8  1  0  0  0  0
  7  9  1  0  0  0  0
 30 31  1  0  0  0  0
 30 32  1  0  0  0  0
 30 33  1  0  0  0  0
 28 29  1  0  0  0  0
 28 30  1  0  0  0  0
M  END
$$$$
default_name
  -OEChem-01062215323D

 33 32  0     1  0  0  0  0  0999 V2000
   -3.8420   -3.6918    1.5562 H   0  0  0  0  0  0  0  0  0  0  0  0
   -3.8430   -2.7008    1.1032 C   0  0  0  0  0  0  0  0  0  0  0  0
   -4.5510   -2.0608    1.6242 H   0  0  0  0  0  0  0  0  0  0  0  0
   -4.1140   -2.7798    0.0522 H   0  0  0  0  0  0  0  0  0  0  0  0
   -2.4570   -2.1098    1.2172 C   0  0  0  0  0  0  0  0  0  0  0  0
   -1.5600   -2.7438    1.7572 O   0  0  0  0  0  0  0  0  0  0  0  0
   -2.2870   -0.8898    0.7102 N   0  0  0  0  0  0  0  0  0  0  0  0
   -3.0820   -0.4218    0.2992 H   0  0  0  0  0  0  0  0  0  0  0  0
   -1.0240   -0.1468    0.7262 C   0  0  1  0  0  0  0  0  0  0  0  0
   -0.7193    0.0415   -0.3042 H   0  0  0  0  0  0  0  0  0  0  0  0
   -1.2546    1.2060    1.4274 C   0  0  0  0  0  0  0  0  0  0  0  0
   -1.7254    1.0196    2.3949 H   0  0  0  0  0  0  0  0  0  0  0  0
   -0.2921    1.6881    1.6043 H   0  0  0  0  0  0  0  0  0  0  0  0
   -2.1590    2.1582    0.6295 C   0  0  0  0  0  0  0  0  0  0  0  0
   -1.7163    2.3501   -0.3482 H   0  0  0  0  0  0  0  0  0  0  0  0
   -3.1377    1.6943    0.4939 H   0  0  0  0  0  0  0  0  0  0  0  0
   -2.3312    3.4929    1.3635 C   0  0  0  0  0  0  0  0  0  0  0  0
   -2.7664    3.3165    2.3476 H   0  0  0  0  0  0  0  0  0  0  0  0
   -1.3586    3.9717    1.4803 H   0  0  0  0  0  0  0  0  0  0  0  0
   -3.2531    4.4100    0.5620 C   0  0  0  0  0  0  0  0  0  0  0  0
   -2.8115    4.6026   -0.4144 H   0  0  0  0  0  0  0  0  0  0  0  0
   -4.2191    3.9259    0.4292 H   0  0  0  0  0  0  0  0  0  0  0  0
   -3.4588    5.6902    1.2492 N   0  0  0  0  0  0  0  0  0  0  0  0
   -4.0595    6.2747    0.6866 H   0  0  0  0  0  0  0  0  0  0  0  0
   -3.8977    5.5198    2.1428 H   0  0  0  0  0  0  0  0  0  0  0  0
    0.0721   -0.9791    1.4116 C   0  0  0  0  0  0  0  0  0  0  0  0
   -0.1652   -1.5598    2.4688 O   0  0  0  0  0  0  0  0  0  0  0  0
    1.2682   -1.0256    0.8137 N   0  0  0  0  0  0  0  0  0  0  0  0
    1.3791   -0.5350   -0.0584 H   0  0  0  0  0  0  0  0  0  0  0  0
    2.4175   -1.7579    1.3436 C   0  0  0  0  0  0  0  0  0  0  0  0
    2.1446   -2.8022    1.5106 H   0  0  0  0  0  0  0  0  0  0  0  0
    3.2528   -1.7116    0.6434 H   0  0  0  0  0  0  0  0  0  0  0  0
    2.7215   -1.3230    2.2980 H   0  0  0  0  0  0  0  0  0  0  0  0
  5  6  2  0  0  0  0
  5  7  1  0  0  0  0
  2  3  1  0  0  0  0
  2  4  1  0  0  0  0
  2  5  1  0  0  0  0
  1  2  1  0  0  0  0
 26 27  2  0  0  0  0
 26 28  1  0  0  0  0
 23 24  1  0  0  0  0
 23 25  1  0  0  0  0
 20 21  1  0  0  0  0
 20 22  1  0  0  0  0
 20 23  1  0  0  0  0
 17 18  1  0  0  0  0
 17 19  1  0  0  0  0
 17 20  1  0  0  0  0
 14 15  1  0  0  0  0
 14 16  1  0  0  0  0
 14 17  1  0  0  0  0
 11 12  1  0  0  0  0
 11 13  1  0  0  0  0
 11 14  1  0  0  0  0
  9 10  1  0  0  0  0
  9 11  1  0  0  0  0
  9 26  1  0  0  0  0
  7  8  1  0  0  0  0
  7  9  1  0  0  0  0
 30 31  1  0  0  0  0
 30 32  1  0  0  0  0
 30 33  1  0  0  0  0
 28 29  1  0  0  0  0
 28 30  1  0  0  0  0
M  END
$$$$
default_name
  -OEChem-01062215323D

 33 32  0     1  0  0  0  0  0999 V2000
   -3.8420   -3.6918    1.5562 H   0  0  0  0  0  0  0  0  0  0  0  0
   -3.8430   -2.7008    1.1032 C   0  0  0  0  0  0  0  0  0  0  0  0
   -4.5510   -2.0608    1.6242 H   0  0  0  0  0  0  0  0  0  0  0  0
   -4.1140   -2.7798    0.0522 H   0  0  0  0  0  0  0  0  0  0  0  0
   -2.4570   -2.1098    1.2172 C   0  0  0  0  0  0  0  0  0  0  0  0
   -1.5600   -2.7438    1.7572 O   0  0  0  0  0  0  0  0  0  0  0  0
   -2.2870   -0.8898    0.7102 N   0  0  0  0  0  0  0  0  0  0  0  0
   -3.0820   -0.4218    0.2992 H   0  0  0  0  0  0  0  0  0  0  0  0
   -1.0240   -0.1468    0.7262 C   0  0  1  0  0  0  0  0  0  0  0  0
   -0.7193    0.0415   -0.3042 H   0  0  0  0  0  0  0  0  0  0  0  0
   -1.2546    1.2060    1.4274 C   0  0  0  0  0  0  0  0  0  0  0  0
   -1.7254    1.0196    2.3949 H   0  0  0  0  0  0  0  0  0  0  0  0
   -0.2921    1.6881    1.6043 H   0  0  0  0  0  0  0  0  0  0  0  0
   -2.1590    2.1582    0.6295 C   0  0  0  0  0  0  0  0  0  0  0  0
   -1.7163    2.3501   -0.3482 H   0  0  0  0  0  0  0  0  0  0  0  0
   -3.1377    1.6943    0.4939 H   0  0  0  0  0  0  0  0  0  0  0  0
   -2.3312    3.4929    1.3635 C   0  0  0  0  0  0  0  0  0  0  0  0
   -2.7664    3.3165    2.3476 H   0  0  0  0  0  0  0  0  0  0  0  0
   -1.3586    3.9717    1.4803 H   0  0  0  0  0  0  0  0  0  0  0  0
   -3.2531    4.4100    0.5620 C   0  0  0  0  0  0  0  0  0  0  0  0
   -2.8115    4.6026   -0.4144 H   0  0  0  0  0  0  0  0  0  0  0  0
   -4.2191    3.9259    0.4292 H   0  0  0  0  0  0  0  0  0  0  0  0
   -3.4588    5.6902    1.2492 N   0  0  0  0  0  0  0  0  0  0  0  0
   -4.0595    6.2747    0.6866 H   0  0  0  0  0  0  0  0  0  0  0  0
   -3.8977    5.5198    2.1428 H   0  0  0  0  0  0  0  0  0  0  0  0
    0.0721   -0.9791    1.4116 C   0  0  0  0  0  0  0  0  0  0  0  0
   -0.2232   -1.7738    2.3017 O   0  0  0  0  0  0  0  0  0  0  0  0
    1.3315   -0.7870    1.0024 N   0  0  0  0  0  0  0  0  0  0  0  0
    1.4901   -0.1287    0.2573 H   0  0  0  0  0  0  0  0  0  0  0  0
    2.4871   -1.4862    1.5622 C   0  0  0  0  0  0  0  0  0  0  0  0
    2.3314   -2.5655    1.4994 H   0  0  0  0  0  0  0  0  0  0  0  0
    3.3930   -1.2207    1.0153 H   0  0  0  0  0  0  0  0  0  0  0  0
    2.6067   -1.2147    2.6131 H   0  0  0  0  0  0  0  0  0  0  0  0
  5  6  2  0  0  0  0
  5  7  1  0  0  0  0
  2  3  1  0  0  0  0
  2  4  1  0  0  0  0
  2  5  1  0  0  0  0
  1  2  1  0  0  0  0
 26 27  2  0  0  0  0
 26 28  1  0  0  0  0
 23 24  1  0  0  0  0
 23 25  1  0  0  0  0
 20 21  1  0  0  0  0
 20 22  1  0  0  0  0
 20 23  1  0  0  0  0
 17 18  1  0  0  0  0
 17 19  1  0  0  0  0
 17 20  1  0  0  0  0
 14 15  1  0  0  0  0
 14 16  1  0  0  0  0
 14 17  1  0  0  0  0
 11 12  1  0  0  0  0
 11 13  1  0  0  0  0
 11 14  1  0  0  0  0
  9 10  1  0  0  0  0
  9 11  1  0  0  0  0
  9 26  1  0  0  0  0
  7  8  1  0  0  0  0
  7  9  1  0  0  0  0
 30 31  1  0  0  0  0
 30 32  1  0  0  0  0
 30 33  1  0  0  0  0
 28 29  1  0  0  0  0
 28 30  1  0  0  0  0
M  END
$$$$
default_name
  -OEChem-01062215323D

 33 32  0     1  0  0  0  0  0999 V2000
   -3.8420   -3.6918    1.5562 H   0  0  0  0  0  0  0  0  0  0  0  0
   -3.8430   -2.7008    1.1032 C   0  0  0  0  0  0  0  0  0  0  0  0
   -4.5510   -2.0608    1.6242 H   0  0  0  0  0  0  0  0  0  0  0  0
   -4.1140   -2.7798    0.0522 H   0  0  0  0  0  0  0  0  0  0  0  0
   -2.4570   -2.1098    1.2172 C   0  0  0  0  0  0  0  0  0  0  0  0
   -1.5600   -2.7438    1.7572 O   0  0  0  0  0  0  0  0  0  0  0  0
   -2.2870   -0.8898    0.7102 N   0  0  0  0  0  0  0  0  0  0  0  0
   -3.0820   -0.4218    0.2992 H   0  0  0  0  0  0  0  0  0  0  0  0
   -1.0240   -0.1468    0.7262 C   0  0  1  0  0  0  0  0  0  0  0  0
   -0.7193    0.0415   -0.3042 H   0  0  0  0  0  0  0  0  0  0  0  0
   -1.2546    1.2060    1.4274 C   0  0  0  0  0  0  0  0  0  0  0  0
   -1.7254    1.0196    2.3949 H   0  0  0  0  0  0  0  0  0  0  0  0
   -0.2921    1.6881    1.6043 H   0  0  0  0  0  0  0  0  0  0  0  0
   -2.1590    2.1582    0.6295 C   0  0  0  0  0  0  0  0  0  0  0  0
   -1.7163    2.3501   -0.3482 H   0  0  0  0  0  0  0  0  0  0  0  0
   -3.1377    1.6943    0.4939 H   0  0  0  0  0  0  0  0  0  0  0  0
   -2.3312    3.4929    1.3635 C   0  0  0  0  0  0  0  0  0  0  0  0
   -2.7664    3.3165    2.3476 H   0  0  0  0  0  0  0  0  0  0  0  0
   -1.3586    3.9717    1.4803 H   0  0  0  0  0  0  0  0  0  0  0  0
   -3.2531    4.4100    0.5620 C   0  0  0  0  0  0  0  0  0  0  0  0
   -2.8115    4.6026   -0.4144 H   0  0  0  0  0  0  0  0  0  0  0  0
   -4.2191    3.9259    0.4292 H   0  0  0  0  0  0  0  0  0  0  0  0
   -3.4588    5.6902    1.2492 N   0  0  0  0  0  0  0  0  0  0  0  0
   -4.0595    6.2747    0.6866 H   0  0  0  0  0  0  0  0  0  0  0  0
   -3.8977    5.5198    2.1428 H   0  0  0  0  0  0  0  0  0  0  0  0
    0.0721   -0.9791    1.4116 C   0  0  0  0  0  0  0  0  0  0  0  0
   -0.2312   -1.9564    2.0928 O   0  0  0  0  0  0  0  0  0  0  0  0
    1.3386   -0.5840    1.2375 N   0  0  0  0  0  0  0  0  0  0  0  0
    1.5063    0.2182    0.6528 H   0  0  0  0  0  0  0  0  0  0  0  0
    2.4923   -1.2562    1.8332 C   0  0  0  0  0  0  0  0  0  0  0  0
    2.4861   -2.3132    1.5583 H   0  0  0  0  0  0  0  0  0  0  0  0
    3.4196   -0.7990    1.4848 H   0  0  0  0  0  0  0  0  0  0  0  0
    2.4392   -1.1815    2.9213 H   0  0  0  0  0  0  0  0  0  0  0  0
  5  6  2  0  0  0  0
  5  7  1  0  0  0  0
  2  3  1  0  0  0  0
  2  4  1  0  0  0  0
  2  5  1  0  0  0  0
  1  2  1  0  0  0  0
 26 27  2  0  0  0  0
 26 28  1  0  0  0  0
 23 24  1  0  0  0  0
 23 25  1  0  0  0  0
 20 21  1  0  0  0  0
 20 22  1  0  0  0  0
 20 23  1  0  0  0  0
 17 18  1  0  0  0  0
 17 19  1  0  0  0  0
 17 20  1  0  0  0  0
 14 15  1  0  0  0  0
 14 16  1  0  0  0  0
 14 17  1  0  0  0  0
 11 12  1  0  0  0  0
 11 13  1  0  0  0  0
 11 14  1  0  0  0  0
  9 10  1  0  0  0  0
  9 11  1  0  0  0  0
  9 26  1  0  0  0  0
  7  8  1  0  0  0  0
  7  9  1  0  0  0  0
 30 31  1  0  0  0  0
 30 32  1  0  0  0  0
 30 33  1  0  0  0  0
 28 29  1  0  0  0  0
 28 30  1  0  0  0  0
M  END
$$$$
default_name
  -OEChem-01062215323D

 33 32  0     1  0  0  0  0  0999 V2000
   -3.8420   -3.6918    1.5562 H   0  0  0  0  0  0  0  0  0  0  0  0
   -3.8430   -2.7008    1.1032 C   0  0  0  0  0  0  0  0  0  0  0  0
   -4.5510   -2.0608    1.6242 H   0  0  0  0  0  0  0  0  0  0  0  0
   -4.1140   -2.7798    0.0522 H   0  0  0  0  0  0  0  0  0  0  0  0
   -2.4570   -2.1098    1.2172 C   0  0  0  0  0  0  0  0  0  0  0  0
   -1.5600   -2.7438    1.7572 O   0  0  0  0  0  0  0  0  0  0  0  0
   -2.2870   -0.8898    0.7102 N   0  0  0  0  0  0  0  0  0  0  0  0
   -3.0820   -0.4218    0.2992 H   0  0  0  0  0  0  0  0  0  0  0  0
   -1.0240   -0.1468    0.7262 C   0  0  1  0  0  0  0  0  0  0  0  0
   -0.8552    0.2718   -0.2669 H   0  0  0  0  0  0  0  0  0  0  0  0
   -1.1440    1.0114    1.7357 C   0  0  0  0  0  0  0  0  0  0  0  0
   -1.4856    0.6058    2.6902 H   0  0  0  0  0  0  0  0  0  0  0  0
   -0.1609    1.4589    1.8883 H   0  0  0  0  0  0  0  0  0  0  0  0
   -2.1340    2.1013    1.2960 C   0  0  0  0  0  0  0  0  0  0  0  0
   -1.8214    2.5141    0.3364 H   0  0  0  0  0  0  0  0  0  0  0  0
   -3.1275    1.6620    1.1896 H   0  0  0  0  0  0  0  0  0  0  0  0
   -2.1920    3.2356    2.3255 C   0  0  0  0  0  0  0  0  0  0  0  0
   -2.4961    2.8366    3.2936 H   0  0  0  0  0  0  0  0  0  0  0  0
   -1.2068    3.6935    2.4179 H   0  0  0  0  0  0  0  0  0  0  0  0
   -3.2001    4.2918    1.8768 C   0  0  0  0  0  0  0  0  0  0  0  0
   -2.8886    4.7049    0.9188 H   0  0  0  0  0  0  0  0  0  0  0  0
   -4.1811    3.8324    1.7668 H   0  0  0  0  0  0  0  0  0  0  0  0
   -3.2982    5.3828    2.8532 N   0  0  0  0  0  0  0  0  0  0  0  0
   -3.9607    6.0672    2.5189 H   0  0  0  0  0  0  0  0  0  0  0  0
   -3.6178    5.0097    3.7358 H   0  0  0  0  0  0  0  0  0  0  0  0
    0.1426   -1.0914    1.0590 C   0  0  0  0  0  0  0  0  0  0  0  0
   -0.0708   -2.2828    1.2733 O   0  0  0  0  0  0  0  0  0  0  0  0
    1.3676   -0.5555    1.1105 N   0  0  0  0  0  0  0  0  0  0  0  0
    1.4619    0.4262    0.9080 H   0  0  0  0  0  0  0  0  0  0  0  0
    2.5770   -1.3131    1.4285 C   0  0  0  0  0  0  0  0  0  0  0  0
    2.6692   -2.1633    0.7491 H   0  0  0  0  0  0  0  0  0  0  0  0
    3.4589   -0.6781    1.3324 H   0  0  0  0  0  0  0  0  0  0  0  0
    2.5145   -1.6924    2.4505 H   0  0  0  0  0  0  0  0  0  0  0  0
  5  6  2  0  0  0  0
  5  7  1  0  0  0  0
  2  3  1  0  0  0  0
  2  4  1  0  0  0  0
  2  5  1  0  0  0  0
  1  2  1  0  0  0  0
 26 27  2  0  0  0  0
 26 28  1  0  0  0  0
 23 24  1  0  0  0  0
 23 25  1  0  0  0  0
 20 21  1  0  0  0  0
 20 22  1  0  0  0  0
 20 23  1  0  0  0  0
 17 18  1  0  0  0  0
 17 19  1  0  0  0  0
 17 20  1  0  0  0  0
 14 15  1  0  0  0  0
 14 16  1  0  0  0  0
 14 17  1  0  0  0  0
 11 12  1  0  0  0  0
 11 13  1  0  0  0  0
 11 14  1  0  0  0  0
  9 10  1  0  0  0  0
  9 11  1  0  0  0  0
  9 26  1  0  0  0  0
  7  8  1  0  0  0  0
  7  9  1  0  0  0  0
 30 31  1  0  0  0  0
 30 32  1  0  0  0  0
 30 33  1  0  0  0  0
 28 29  1  0  0  0  0
 28 30  1  0  0  0  0
M  END
$$$$
default_name
  -OEChem-01062215323D

 33 32  0     1  0  0  0  0  0999 V2000
   -3.8420   -3.6918    1.5562 H   0  0  0  0  0  0  0  0  0  0  0  0
   -3.8430   -2.7008    1.1032 C   0  0  0  0  0  0  0  0  0  0  0  0
   -4.5510   -2.0608    1.6242 H   0  0  0  0  0  0  0  0  0  0  0  0
   -4.1140   -2.7798    0.0522 H   0  0  0  0  0  0  0  0  0  0  0  0
   -2.4570   -2.1098    1.2172 C   0  0  0  0  0  0  0  0  0  0  0  0
   -1.5600   -2.7438    1.7572 O   0  0  0  0  0  0  0  0  0  0  0  0
   -2.2870   -0.8898    0.7102 N   0  0  0  0  0  0  0  0  0  0  0  0
   -3.0820   -0.4218    0.2992 H   0  0  0  0  0  0  0  0  0  0  0  0
   -1.0240   -0.1468    0.7262 C   0  0  1  0  0  0  0  0  0  0  0  0
   -0.8552    0.2718   -0.2669 H   0  0  0  0  0  0  0  0  0  0  0  0
   -1.1440    1.0114    1.7357 C   0  0  0  0  0  0  0  0  0  0  0  0
   -1.4856    0.6058    2.6902 H   0  0  0  0  0  0  0  0  0  0  0  0
   -0.1609    1.4589    1.8883 H   0  0  0  0  0  0  0  0  0  0  0  0
   -2.1340    2.1013    1.2960 C   0  0  0  0  0  0  0  0  0  0  0  0
   -1.8214    2.5141    0.3364 H   0  0  0  0  0  0  0  0  0  0  0  0
   -3.1275    1.6620    1.1896 H   0  0  0  0  0  0  0  0  0  0  0  0
   -2.1920    3.2356    2.3255 C   0  0  0  0  0  0  0  0  0  0  0  0
   -2.4961    2.8366    3.2936 H   0  0  0  0  0  0  0  0  0  0  0  0
   -1.2068    3.6935    2.4179 H   0  0  0  0  0  0  0  0  0  0  0  0
   -3.2001    4.2918    1.8768 C   0  0  0  0  0  0  0  0  0  0  0  0
   -2.8886    4.7049    0.9188 H   0  0  0  0  0  0  0  0  0  0  0  0
   -4.1811    3.8324    1.7668 H   0  0  0  0  0  0  0  0  0  0  0  0
   -3.2982    5.3828    2.8532 N   0  0  0  0  0  0  0  0  0  0  0  0
   -3.9607    6.0672    2.5189 H   0  0  0  0  0  0  0  0  0  0  0  0
   -3.6178    5.0097    3.7358 H   0  0  0  0  0  0  0  0  0  0  0  0
    0.1426   -1.0914    1.0590 C   0  0  0  0  0  0  0  0  0  0  0  0
   -0.0149   -2.3092    1.0026 O   0  0  0  0  0  0  0  0  0  0  0  0
    1.3034   -0.5281    1.4133 N   0  0  0  0  0  0  0  0  0  0  0  0
    1.3569    0.4773    1.4212 H   0  0  0  0  0  0  0  0  0  0  0  0
    2.5011   -1.2849    1.7747 C   0  0  0  0  0  0  0  0  0  0  0  0
    2.7573   -1.9769    0.9694 H   0  0  0  0  0  0  0  0  0  0  0  0
    3.3393   -0.6087    1.9487 H   0  0  0  0  0  0  0  0  0  0  0  0
    2.3099   -1.8640    2.6805 H   0  0  0  0  0  0  0  0  0  0  0  0
  5  6  2  0  0  0  0
  5  7  1  0  0  0  0
  2  3  1  0  0  0  0
  2  4  1  0  0  0  0
  2  5  1  0  0  0  0
  1  2  1  0  0  0  0
 26 27  2  0  0  0  0
 26 28  1  0  0  0  0
 23 24  1  0  0  0  0
 23 25  1  0  0  0  0
 20 21  1  0  0  0  0
 20 22  1  0  0  0  0
 20 23  1  0  0  0  0
 17 18  1  0  0  0  0
 17 19  1  0  0  0  0
 17 20  1  0  0  0  0
 14 15  1  0  0  0  0
 14 16  1  0  0  0  0
 14 17  1  0  0  0  0
 11 12  1  0  0  0  0
 11 13  1  0  0  0  0
 11 14  1  0  0  0  0
  9 10  1  0  0  0  0
  9 11  1  0  0  0  0
  9 26  1  0  0  0  0
  7  8  1  0  0  0  0
  7  9  1  0  0  0  0
 30 31  1  0  0  0  0
 30 32  1  0  0  0  0
 30 33  1  0  0  0  0
 28 29  1  0  0  0  0
 28 30  1  0  0  0  0
M  END
$$$$
default_name
  -OEChem-01062215323D

 33 32  0     1  0  0  0  0  0999 V2000
   -3.8420   -3.6918    1.5562 H   0  0  0  0  0  0  0  0  0  0  0  0
   -3.8430   -2.7008    1.1032 C   0  0  0  0  0  0  0  0  0  0  0  0
   -4.5510   -2.0608    1.6242 H   0  0  0  0  0  0  0  0  0  0  0  0
   -4.1140   -2.7798    0.0522 H   0  0  0  0  0  0  0  0  0  0  0  0
   -2.4570   -2.1098    1.2172 C   0  0  0  0  0  0  0  0  0  0  0  0
   -1.5600   -2.7438    1.7572 O   0  0  0  0  0  0  0  0  0  0  0  0
   -2.2870   -0.8898    0.7102 N   0  0  0  0  0  0  0  0  0  0  0  0
   -3.0820   -0.4218    0.2992 H   0  0  0  0  0  0  0  0  0  0  0  0
   -1.0240   -0.1468    0.7262 C   0  0  1  0  0  0  0  0  0  0  0  0
   -0.8552    0.2718   -0.2669 H   0  0  0  0  0  0  0  0  0  0  0  0
   -1.1440    1.0114    1.7357 C   0  0  0  0  0  0  0  0  0  0  0  0
   -1.4856    0.6058    2.6902 H   0  0  0  0  0  0  0  0  0  0  0  0
   -0.1609    1.4589    1.8883 H   0  0  0  0  0  0  0  0  0  0  0  0
   -2.1340    2.1013    1.2960 C   0  0  0  0  0  0  0  0  0  0  0  0
   -1.8214    2.5141    0.3364 H   0  0  0  0  0  0  0  0  0  0  0  0
   -3.1275    1.6620    1.1896 H   0  0  0  0  0  0  0  0  0  0  0  0
   -2.1920    3.2356    2.3255 C   0  0  0  0  0  0  0  0  0  0  0  0
   -2.4961    2.8366    3.2936 H   0  0  0  0  0  0  0  0  0  0  0  0
   -1.2068    3.6935    2.4179 H   0  0  0  0  0  0  0  0  0  0  0  0
   -3.2001    4.2918    1.8768 C   0  0  0  0  0  0  0  0  0  0  0  0
   -2.8886    4.7049    0.9188 H   0  0  0  0  0  0  0  0  0  0  0  0
   -4.1811    3.8324    1.7668 H   0  0  0  0  0  0  0  0  0  0  0  0
   -3.2982    5.3828    2.8532 N   0  0  0  0  0  0  0  0  0  0  0  0
   -3.9607    6.0672    2.5189 H   0  0  0  0  0  0  0  0  0  0  0  0
   -3.6178    5.0097    3.7358 H   0  0  0  0  0  0  0  0  0  0  0  0
    0.1426   -1.0914    1.0590 C   0  0  0  0  0  0  0  0  0  0  0  0
    0.0835   -2.2783    0.7449 O   0  0  0  0  0  0  0  0  0  0  0  0
    1.1918   -0.5646    1.7009 N   0  0  0  0  0  0  0  0  0  0  0  0
    1.1710    0.4199    1.9102 H   0  0  0  0  0  0  0  0  0  0  0  0
    2.3711   -1.3300    2.1026 C   0  0  0  0  0  0  0  0  0  0  0  0
    2.7969   -1.8352    1.2329 H   0  0  0  0  0  0  0  0  0  0  0  0
    3.1219   -0.6695    2.5386 H   0  0  0  0  0  0  0  0  0  0  0  0
    2.0853   -2.0864    2.8364 H   0  0  0  0  0  0  0  0  0  0  0  0
  5  6  2  0  0  0  0
  5  7  1  0  0  0  0
  2  3  1  0  0  0  0
  2  4  1  0  0  0  0
  2  5  1  0  0  0  0
  1  2  1  0  0  0  0
 26 27  2  0  0  0  0
 26 28  1  0  0  0  0
 23 24  1  0  0  0  0
 23 25  1  0  0  0  0
 20 21  1  0  0  0  0
 20 22  1  0  0  0  0
 20 23  1  0  0  0  0
 17 18  1  0  0  0  0
 17 19  1  0  0  0  0
 17 20  1  0  0  0  0
 14 15  1  0  0  0  0
 14 16  1  0  0  0  0
 14 17  1  0  0  0  0
 11 12  1  0  0  0  0
 11 13  1  0  0  0  0
 11 14  1  0  0  0  0
  9 10  1  0  0  0  0
  9 11  1  0  0  0  0
  9 26  1  0  0  0  0
  7  8  1  0  0  0  0
  7  9  1  0  0  0  0
 30 31  1  0  0  0  0
 30 32  1  0  0  0  0
 30 33  1  0  0  0  0
 28 29  1  0  0  0  0
 28 30  1  0  0  0  0
M  END
$$$$
default_name
  -OEChem-01062215323D

 33 32  0     1  0  0  0  0  0999 V2000
   -3.8420   -3.6918    1.5562 H   0  0  0  0  0  0  0  0  0  0  0  0
   -3.8430   -2.7008    1.1032 C   0  0  0  0  0  0  0  0  0  0  0  0
   -4.5510   -2.0608    1.6242 H   0  0  0  0  0  0  0  0  0  0  0  0
   -4.1140   -2.7798    0.0522 H   0  0  0  0  0  0  0  0  0  0  0  0
   -2.4570   -2.1098    1.2172 C   0  0  0  0  0  0  0  0  0  0  0  0
   -1.5600   -2.7438    1.7572 O   0  0  0  0  0  0  0  0  0  0  0  0
   -2.2870   -0.8898    0.7102 N   0  0  0  0  0  0  0  0  0  0  0  0
   -3.0820   -0.4218    0.2992 H   0  0  0  0  0  0  0  0  0  0  0  0
   -1.0240   -0.1468    0.7262 C   0  0  1  0  0  0  0  0  0  0  0  0
   -0.8552    0.2718   -0.2669 H   0  0  0  0  0  0  0  0  0  0  0  0
   -1.1440    1.0114    1.7357 C   0  0  0  0  0  0  0  0  0  0  0  0
   -1.4856    0.6058    2.6902 H   0  0  0  0  0  0  0  0  0  0  0  0
   -0.1609    1.4589    1.8883 H   0  0  0  0  0  0  0  0  0  0  0  0
   -2.1340    2.1013    1.2960 C   0  0  0  0  0  0  0  0  0  0  0  0
   -1.8214    2.5141    0.3364 H   0  0  0  0  0  0  0  0  0  0  0  0
   -3.1275    1.6620    1.1896 H   0  0  0  0  0  0  0  0  0  0  0  0
   -2.1920    3.2356    2.3255 C   0  0  0  0  0  0  0  0  0  0  0  0
   -2.4961    2.8366    3.2936 H   0  0  0  0  0  0  0  0  0  0  0  0
   -1.2068    3.6935    2.4179 H   0  0  0  0  0  0  0  0  0  0  0  0
   -3.2001    4.2918    1.8768 C   0  0  0  0  0  0  0  0  0  0  0  0
   -2.8886    4.7049    0.9188 H   0  0  0  0  0  0  0  0  0  0  0  0
   -4.1811    3.8324    1.7668 H   0  0  0  0  0  0  0  0  0  0  0  0
   -3.2982    5.3828    2.8532 N   0  0  0  0  0  0  0  0  0  0  0  0
   -3.9607    6.0672    2.5189 H   0  0  0  0  0  0  0  0  0  0  0  0
   -3.6178    5.0097    3.7358 H   0  0  0  0  0  0  0  0  0  0  0  0
    0.1426   -1.0914    1.0590 C   0  0  0  0  0  0  0  0  0  0  0  0
    0.2179   -2.1924    0.5177 O   0  0  0  0  0  0  0  0  0  0  0  0
    1.0402   -0.6627    1.9539 N   0  0  0  0  0  0  0  0  0  0  0  0
    0.9169    0.2581    2.3418 H   0  0  0  0  0  0  0  0  0  0  0  0
    2.1959   -1.4451    2.3897 C   0  0  0  0  0  0  0  0  0  0  0  0
    2.7853   -1.7478    1.5214 H   0  0  0  0  0  0  0  0  0  0  0  0
    2.8215   -0.8561    3.0619 H   0  0  0  0  0  0  0  0  0  0  0  0
    1.8561   -2.3445    2.9076 H   0  0  0  0  0  0  0  0  0  0  0  0
  5  6  2  0  0  0  0
  5  7  1  0  0  0  0
  2  3  1  0  0  0  0
  2  4  1  0  0  0  0
  2  5  1  0  0  0  0
  1  2  1  0  0  0  0
 26 27  2  0  0  0  0
 26 28  1  0  0  0  0
 23 24  1  0  0  0  0
 23 25  1  0  0  0  0
 20 21  1  0  0  0  0
 20 22  1  0  0  0  0
 20 23  1  0  0  0  0
 17 18  1  0  0  0  0
 17 19  1  0  0  0  0
 17 20  1  0  0  0  0
 14 15  1  0  0  0  0
 14 16  1  0  0  0  0
 14 17  1  0  0  0  0
 11 12  1  0  0  0  0
 11 13  1  0  0  0  0
 11 14  1  0  0  0  0
  9 10  1  0  0  0  0
  9 11  1  0  0  0  0
  9 26  1  0  0  0  0
  7  8  1  0  0  0  0
  7  9  1  0  0  0  0
 30 31  1  0  0  0  0
 30 32  1  0  0  0  0
 30 33  1  0  0  0  0
 28 29  1  0  0  0  0
 28 30  1  0  0  0  0
M  END
$$$$
default_name
  -OEChem-01062215323D

 33 32  0     1  0  0  0  0  0999 V2000
   -3.8420   -3.6918    1.5562 H   0  0  0  0  0  0  0  0  0  0  0  0
   -3.8430   -2.7008    1.1032 C   0  0  0  0  0  0  0  0  0  0  0  0
   -4.5510   -2.0608    1.6242 H   0  0  0  0  0  0  0  0  0  0  0  0
   -4.1140   -2.7798    0.0522 H   0  0  0  0  0  0  0  0  0  0  0  0
   -2.4570   -2.1098    1.2172 C   0  0  0  0  0  0  0  0  0  0  0  0
   -1.5600   -2.7438    1.7572 O   0  0  0  0  0  0  0  0  0  0  0  0
   -2.2870   -0.8898    0.7102 N   0  0  0  0  0  0  0  0  0  0  0  0
   -3.0820   -0.4218    0.2992 H   0  0  0  0  0  0  0  0  0  0  0  0
   -1.0240   -0.1468    0.7262 C   0  0  1  0  0  0  0  0  0  0  0  0
   -0.8552    0.2718   -0.2669 H   0  0  0  0  0  0  0  0  0  0  0  0
   -1.1440    1.0114    1.7357 C   0  0  0  0  0  0  0  0  0  0  0  0
   -1.4856    0.6058    2.6902 H   0  0  0  0  0  0  0  0  0  0  0  0
   -0.1609    1.4589    1.8883 H   0  0  0  0  0  0  0  0  0  0  0  0
   -2.1340    2.1013    1.2960 C   0  0  0  0  0  0  0  0  0  0  0  0
   -1.8214    2.5141    0.3364 H   0  0  0  0  0  0  0  0  0  0  0  0
   -3.1275    1.6620    1.1896 H   0  0  0  0  0  0  0  0  0  0  0  0
   -2.1920    3.2356    2.3255 C   0  0  0  0  0  0  0  0  0  0  0  0
   -2.4961    2.8366    3.2936 H   0  0  0  0  0  0  0  0  0  0  0  0
   -1.2068    3.6935    2.4179 H   0  0  0  0  0  0  0  0  0  0  0  0
   -3.2001    4.2918    1.8768 C   0  0  0  0  0  0  0  0  0  0  0  0
   -2.8886    4.7049    0.9188 H   0  0  0  0  0  0  0  0  0  0  0  0
   -4.1811    3.8324    1.7668 H   0  0  0  0  0  0  0  0  0  0  0  0
   -3.2982    5.3828    2.8532 N   0  0  0  0  0  0  0  0  0  0  0  0
   -3.9607    6.0672    2.5189 H   0  0  0  0  0  0  0  0  0  0  0  0
   -3.6178    5.0097    3.7358 H   0  0  0  0  0  0  0  0  0  0  0  0
    0.1426   -1.0914    1.0590 C   0  0  0  0  0  0  0  0  0  0  0  0
    0.3790   -2.0573    0.3364 O   0  0  0  0  0  0  0  0  0  0  0  0
    0.8591   -0.8155    2.1548 N   0  0  0  0  0  0  0  0  0  0  0  0
    0.6118    0.0028    2.6865 H   0  0  0  0  0  0  0  0  0  0  0  0
    1.9875   -1.6226    2.6166 C   0  0  0  0  0  0  0  0  0  0  0  0
    2.7233   -1.7208    1.8155 H   0  0  0  0  0  0  0  0  0  0  0  0
    2.4585   -1.1560    3.4830 H   0  0  0  0  0  0  0  0  0  0  0  0
    1.6378   -2.6205    2.8892 H   0  0  0  0  0  0  0  0  0  0  0  0
  5  6  2  0  0  0  0
  5  7  1  0  0  0  0
  2  3  1  0  0  0  0
  2  4  1  0  0  0  0
  2  5  1  0  0  0  0
  1  2  1  0  0  0  0
 26 27  2  0  0  0  0
 26 28  1  0  0  0  0
 23 24  1  0  0  0  0
 23 25  1  0  0  0  0
 20 21  1  0  0  0  0
 20 22  1  0  0  0  0
 20 23  1  0  0  0  0
 17 18  1  0  0  0  0
 17 19  1  0  0  0  0
 17 20  1  0  0  0  0
 14 15  1  0  0  0  0
 14 16  1  0  0  0  0
 14 17  1  0  0  0  0
 11 12  1  0  0  0  0
 11 13  1  0  0  0  0
 11 14  1  0  0  0  0
  9 10  1  0  0  0  0
  9 11  1  0  0  0  0
  9 26  1  0  0  0  0
  7  8  1  0  0  0  0
  7  9  1  0  0  0  0
 30 31  1  0  0  0  0
 30 32  1  0  0  0  0
 30 33  1  0  0  0  0
 28 29  1  0  0  0  0
 28 30  1  0  0  0  0
M  END
$$$$
default_name
  -OEChem-01062215323D

 33 32  0     1  0  0  0  0  0999 V2000
   -3.8420   -3.6918    1.5562 H   0  0  0  0  0  0  0  0  0  0  0  0
   -3.8430   -2.7008    1.1032 C   0  0  0  0  0  0  0  0  0  0  0  0
   -4.5510   -2.0608    1.6242 H   0  0  0  0  0  0  0  0  0  0  0  0
   -4.1140   -2.7798    0.0522 H   0  0  0  0  0  0  0  0  0  0  0  0
   -2.4570   -2.1098    1.2172 C   0  0  0  0  0  0  0  0  0  0  0  0
   -1.5600   -2.7438    1.7572 O   0  0  0  0  0  0  0  0  0  0  0  0
   -2.2870   -0.8898    0.7102 N   0  0  0  0  0  0  0  0  0  0  0  0
   -3.0820   -0.4218    0.2992 H   0  0  0  0  0  0  0  0  0  0  0  0
   -1.0240   -0.1468    0.7262 C   0  0  1  0  0  0  0  0  0  0  0  0
   -0.8552    0.2718   -0.2669 H   0  0  0  0  0  0  0  0  0  0  0  0
   -1.1440    1.0114    1.7357 C   0  0  0  0  0  0  0  0  0  0  0  0
   -1.4856    0.6058    2.6902 H   0  0  0  0  0  0  0  0  0  0  0  0
   -0.1609    1.4589    1.8883 H   0  0  0  0  0  0  0  0  0  0  0  0
   -2.1340    2.1013    1.2960 C   0  0  0  0  0  0  0  0  0  0  0  0
   -1.8214    2.5141    0.3364 H   0  0  0  0  0  0  0  0  0  0  0  0
   -3.1275    1.6620    1.1896 H   0  0  0  0  0  0  0  0  0  0  0  0
   -2.1920    3.2356    2.3255 C   0  0  0  0  0  0  0  0  0  0  0  0
   -2.4961    2.8366    3.2936 H   0  0  0  0  0  0  0  0  0  0  0  0
   -1.2068    3.6935    2.4179 H   0  0  0  0  0  0  0  0  0  0  0  0
   -3.2001    4.2918    1.8768 C   0  0  0  0  0  0  0  0  0  0  0  0
   -2.8886    4.7049    0.9188 H   0  0  0  0  0  0  0  0  0  0  0  0
   -4.1811    3.8324    1.7668 H   0  0  0  0  0  0  0  0  0  0  0  0
   -3.2982    5.3828    2.8532 N   0  0  0  0  0  0  0  0  0  0  0  0
   -3.9607    6.0672    2.5189 H   0  0  0  0  0  0  0  0  0  0  0  0
   -3.6178    5.0097    3.7358 H   0  0  0  0  0  0  0  0  0  0  0  0
    0.1426   -1.0914    1.0590 C   0  0  0  0  0  0  0  0  0  0  0  0
    0.5559   -1.8822    0.2135 O   0  0  0  0  0  0  0  0  0  0  0  0
    0.6608   -1.0128    2.2901 N   0  0  0  0  0  0  0  0  0  0  0  0
    0.2767   -0.3285    2.9208 H   0  0  0  0  0  0  0  0  0  0  0  0
    1.7600   -1.8502    2.7678 C   0  0  0  0  0  0  0  0  0  0  0  0
    2.6152   -1.7559    2.0950 H   0  0  0  0  0  0  0  0  0  0  0  0
    2.0578   -1.5487    3.7731 H   0  0  0  0  0  0  0  0  0  0  0  0
    1.4453   -2.8958    2.7825 H   0  0  0  0  0  0  0  0  0  0  0  0
  5  6  2  0  0  0  0
  5  7  1  0  0  0  0
  2  3  1  0  0  0  0
  2  4  1  0  0  0  0
  2  5  1  0  0  0  0
  1  2  1  0  0  0  0
 26 27  2  0  0  0  0
 26 28  1  0  0  0  0
 23 24  1  0  0  0  0
 23 25  1  0  0  0  0
 20 21  1  0  0  0  0
 20 22  1  0  0  0  0
 20 23  1  0  0  0  0
 17 18  1  0  0  0  0
 17 19  1  0  0  0  0
 17 20  1  0  0  0  0
 14 15  1  0  0  0  0
 14 16  1  0  0  0  0
 14 17  1  0  0  0  0
 11 12  1  0  0  0  0
 11 13  1  0  0  0  0
 11 14  1  0  0  0  0
  9 10  1  0  0  0  0
  9 11  1  0  0  0  0
  9 26  1  0  0  0  0
  7  8  1  0  0  0  0
  7  9  1  0  0  0  0
 30 31  1  0  0  0  0
 30 32  1  0  0  0  0
 30 33  1  0  0  0  0
 28 29  1  0  0  0  0
 28 30  1  0  0  0  0
M  END
$$$$
default_name
  -OEChem-01062215323D

 33 32  0     1  0  0  0  0  0999 V2000
   -3.8420   -3.6918    1.5562 H   0  0  0  0  0  0  0  0  0  0  0  0
   -3.8430   -2.7008    1.1032 C   0  0  0  0  0  0  0  0  0  0  0  0
   -4.5510   -2.0608    1.6242 H   0  0  0  0  0  0  0  0  0  0  0  0
   -4.1140   -2.7798    0.0522 H   0  0  0  0  0  0  0  0  0  0  0  0
   -2.4570   -2.1098    1.2172 C   0  0  0  0  0  0  0  0  0  0  0  0
   -1.5600   -2.7438    1.7572 O   0  0  0  0  0  0  0  0  0  0  0  0
   -2.2870   -0.8898    0.7102 N   0  0  0  0  0  0  0  0  0  0  0  0
   -3.0820   -0.4218    0.2992 H   0  0  0  0  0  0  0  0  0  0  0  0
   -1.0240   -0.1468    0.7262 C   0  0  1  0  0  0  0  0  0  0  0  0
   -0.8552    0.2718   -0.2669 H   0  0  0  0  0  0  0  0  0  0  0  0
   -1.1440    1.0114    1.7357 C   0  0  0  0  0  0  0  0  0  0  0  0
   -1.4856    0.6058    2.6902 H   0  0  0  0  0  0  0  0  0  0  0  0
   -0.1609    1.4589    1.8883 H   0  0  0  0  0  0  0  0  0  0  0  0
   -2.1340    2.1013    1.2960 C   0  0  0  0  0  0  0  0  0  0  0  0
   -1.8214    2.5141    0.3364 H   0  0  0  0  0  0  0  0  0  0  0  0
   -3.1275    1.6620    1.1896 H   0  0  0  0  0  0  0  0  0  0  0  0
   -2.1920    3.2356    2.3255 C   0  0  0  0  0  0  0  0  0  0  0  0
   -2.4961    2.8366    3.2936 H   0  0  0  0  0  0  0  0  0  0  0  0
   -1.2068    3.6935    2.4179 H   0  0  0  0  0  0  0  0  0  0  0  0
   -3.2001    4.2918    1.8768 C   0  0  0  0  0  0  0  0  0  0  0  0
   -2.8886    4.7049    0.9188 H   0  0  0  0  0  0  0  0  0  0  0  0
   -4.1811    3.8324    1.7668 H   0  0  0  0  0  0  0  0  0  0  0  0
   -3.2982    5.3828    2.8532 N   0  0  0  0  0  0  0  0  0  0  0  0
   -3.9607    6.0672    2.5189 H   0  0  0  0  0  0  0  0  0  0  0  0
   -3.6178    5.0097    3.7358 H   0  0  0  0  0  0  0  0  0  0  0  0
    0.1426   -1.0914    1.0590 C   0  0  0  0  0  0  0  0  0  0  0  0
    0.7365   -1.6790    0.1573 O   0  0  0  0  0  0  0  0  0  0  0  0
    0.4588   -1.2410    2.3505 N   0  0  0  0  0  0  0  0  0  0  0  0
   -0.0658   -0.7134    3.0288 H   0  0  0  0  0  0  0  0  0  0  0  0
    1.5290   -2.1126    2.8330 C   0  0  0  0  0  0  0  0  0  0  0  0
    2.4683   -1.8507    2.3409 H   0  0  0  0  0  0  0  0  0  0  0  0
    1.6466   -2.0075    3.9125 H   0  0  0  0  0  0  0  0  0  0  0  0
    1.2918   -3.1515    2.5948 H   0  0  0  0  0  0  0  0  0  0  0  0
  5  6  2  0  0  0  0
  5  7  1  0  0  0  0
  2  3  1  0  0  0  0
  2  4  1  0  0  0  0
  2  5  1  0  0  0  0
  1  2  1  0  0  0  0
 26 27  2  0  0  0  0
 26 28  1  0  0  0  0
 23 24  1  0  0  0  0
 23 25  1  0  0  0  0
 20 21  1  0  0  0  0
 20 22  1  0  0  0  0
 20 23  1  0  0  0  0
 17 18  1  0  0  0  0
 17 19  1  0  0  0  0
 17 20  1  0  0  0  0
 14 15  1  0  0  0  0
 14 16  1  0  0  0  0
 14 17  1  0  0  0  0
 11 12  1  0  0  0  0
 11 13  1  0  0  0  0
 11 14  1  0  0  0  0
  9 10  1  0  0  0  0
  9 11  1  0  0  0  0
  9 26  1  0  0  0  0
  7  8  1  0  0  0  0
  7  9  1  0  0  0  0
 30 31  1  0  0  0  0
 30 32  1  0  0  0  0
 30 33  1  0  0  0  0
 28 29  1  0  0  0  0
 28 30  1  0  0  0  0
M  END
$$$$
default_name
  -OEChem-01062215323D

 33 32  0     1  0  0  0  0  0999 V2000
   -3.8420   -3.6918    1.5562 H   0  0  0  0  0  0  0  0  0  0  0  0
   -3.8430   -2.7008    1.1032 C   0  0  0  0  0  0  0  0  0  0  0  0
   -4.5510   -2.0608    1.6242 H   0  0  0  0  0  0  0  0  0  0  0  0
   -4.1140   -2.7798    0.0522 H   0  0  0  0  0  0  0  0  0  0  0  0
   -2.4570   -2.1098    1.2172 C   0  0  0  0  0  0  0  0  0  0  0  0
   -1.5600   -2.7438    1.7572 O   0  0  0  0  0  0  0  0  0  0  0  0
   -2.2870   -0.8898    0.7102 N   0  0  0  0  0  0  0  0  0  0  0  0
   -3.0820   -0.4218    0.2992 H   0  0  0  0  0  0  0  0  0  0  0  0
   -1.0240   -0.1468    0.7262 C   0  0  1  0  0  0  0  0  0  0  0  0
   -0.8552    0.2718   -0.2669 H   0  0  0  0  0  0  0  0  0  0  0  0
   -1.1440    1.0114    1.7357 C   0  0  0  0  0  0  0  0  0  0  0  0
   -1.4856    0.6058    2.6902 H   0  0  0  0  0  0  0  0  0  0  0  0
   -0.1609    1.4589    1.8883 H   0  0  0  0  0  0  0  0  0  0  0  0
   -2.1340    2.1013    1.2960 C   0  0  0  0  0  0  0  0  0  0  0  0
   -1.8214    2.5141    0.3364 H   0  0  0  0  0  0  0  0  0  0  0  0
   -3.1275    1.6620    1.1896 H   0  0  0  0  0  0  0  0  0  0  0  0
   -2.1920    3.2356    2.3255 C   0  0  0  0  0  0  0  0  0  0  0  0
   -2.4961    2.8366    3.2936 H   0  0  0  0  0  0  0  0  0  0  0  0
   -1.2068    3.6935    2.4179 H   0  0  0  0  0  0  0  0  0  0  0  0
   -3.2001    4.2918    1.8768 C   0  0  0  0  0  0  0  0  0  0  0  0
   -2.8886    4.7049    0.9188 H   0  0  0  0  0  0  0  0  0  0  0  0
   -4.1811    3.8324    1.7668 H   0  0  0  0  0  0  0  0  0  0  0  0
   -3.2982    5.3828    2.8532 N   0  0  0  0  0  0  0  0  0  0  0  0
   -3.9607    6.0672    2.5189 H   0  0  0  0  0  0  0  0  0  0  0  0
   -3.6178    5.0097    3.7358 H   0  0  0  0  0  0  0  0  0  0  0  0
    0.1426   -1.0914    1.0590 C   0  0  0  0  0  0  0  0  0  0  0  0
    0.9085   -1.4615    0.1716 O   0  0  0  0  0  0  0  0  0  0  0  0
    0.2668   -1.4846    2.3319 N   0  0  0  0  0  0  0  0  0  0  0  0
   -0.3922   -1.1255    3.0030 H   0  0  0  0  0  0  0  0  0  0  0  0
    1.3102   -2.3917    2.8077 C   0  0  0  0  0  0  0  0  0  0  0  0
    2.2926   -1.9988    2.5365 H   0  0  0  0  0  0  0  0  0  0  0  0
    1.2529   -2.5010    3.8916 H   0  0  0  0  0  0  0  0  0  0  0  0
    1.1876   -3.3703    2.3389 H   0  0  0  0  0  0  0  0  0  0  0  0
  5  6  2  0  0  0  0
  5  7  1  0  0  0  0
  2  3  1  0  0  0  0
  2  4  1  0  0  0  0
  2  5  1  0  0  0  0
  1  2  1  0  0  0  0
 26 27  2  0  0  0  0
 26 28  1  0  0  0  0
 23 24  1  0  0  0  0
 23 25  1  0  0  0  0
 20 21  1  0  0  0  0
 20 22  1  0  0  0  0
 20 23  1  0  0  0  0
 17 18  1  0  0  0  0
 17 19  1  0  0  0  0
 17 20  1  0  0  0  0
 14 15  1  0  0  0  0
 14 16  1  0  0  0  0
 14 17  1  0  0  0  0
 11 12  1  0  0  0  0
 11 13  1  0  0  0  0
 11 14  1  0  0  0  0
  9 10  1  0  0  0  0
  9 11  1  0  0  0  0
  9 26  1  0  0  0  0
  7  8  1  0  0  0  0
  7  9  1  0  0  0  0
 30 31  1  0  0  0  0
 30 32  1  0  0  0  0
 30 33  1  0  0  0  0
 28 29  1  0  0  0  0
 28 30  1  0  0  0  0
M  END
$$$$
default_name
  -OEChem-01062215323D

 33 32  0     1  0  0  0  0  0999 V2000
   -3.8420   -3.6918    1.5562 H   0  0  0  0  0  0  0  0  0  0  0  0
   -3.8430   -2.7008    1.1032 C   0  0  0  0  0  0  0  0  0  0  0  0
   -4.5510   -2.0608    1.6242 H   0  0  0  0  0  0  0  0  0  0  0  0
   -4.1140   -2.7798    0.0522 H   0  0  0  0  0  0  0  0  0  0  0  0
   -2.4570   -2.1098    1.2172 C   0  0  0  0  0  0  0  0  0  0  0  0
   -1.5600   -2.7438    1.7572 O   0  0  0  0  0  0  0  0  0  0  0  0
   -2.2870   -0.8898    0.7102 N   0  0  0  0  0  0  0  0  0  0  0  0
   -3.0820   -0.4218    0.2992 H   0  0  0  0  0  0  0  0  0  0  0  0
   -1.0240   -0.1468    0.7262 C   0  0  1  0  0  0  0  0  0  0  0  0
   -0.8552    0.2718   -0.2669 H   0  0  0  0  0  0  0  0  0  0  0  0
   -1.1440    1.0114    1.7357 C   0  0  0  0  0  0  0  0  0  0  0  0
   -1.4856    0.6058    2.6902 H   0  0  0  0  0  0  0  0  0  0  0  0
   -0.1609    1.4589    1.8883 H   0  0  0  0  0  0  0  0  0  0  0  0
   -2.1340    2.1013    1.2960 C   0  0  0  0  0  0  0  0  0  0  0  0
   -1.8214    2.5141    0.3364 H   0  0  0  0  0  0  0  0  0  0  0  0
   -3.1275    1.6620    1.1896 H   0  0  0  0  0  0  0  0  0  0  0  0
   -2.1920    3.2356    2.3255 C   0  0  0  0  0  0  0  0  0  0  0  0
   -2.4961    2.8366    3.2936 H   0  0  0  0  0  0  0  0  0  0  0  0
   -1.2068    3.6935    2.4179 H   0  0  0  0  0  0  0  0  0  0  0  0
   -3.2001    4.2918    1.8768 C   0  0  0  0  0  0  0  0  0  0  0  0
   -2.8886    4.7049    0.9188 H   0  0  0  0  0  0  0  0  0  0  0  0
   -4.1811    3.8324    1.7668 H   0  0  0  0  0  0  0  0  0  0  0  0
   -3.2982    5.3828    2.8532 N   0  0  0  0  0  0  0  0  0  0  0  0
   -3.9607    6.0672    2.5189 H   0  0  0  0  0  0  0  0  0  0  0  0
   -3.6178    5.0097    3.7358 H   0  0  0  0  0  0  0  0  0  0  0  0
    0.1426   -1.0914    1.0590 C   0  0  0  0  0  0  0  0  0  0  0  0
    1.0601   -1.2447    0.2555 O   0  0  0  0  0  0  0  0  0  0  0  0
    0.0980   -1.7270    2.2356 N   0  0  0  0  0  0  0  0  0  0  0  0
   -0.6802   -1.5368    2.8453 H   0  0  0  0  0  0  0  0  0  0  0  0
    1.1185   -2.6686    2.6937 C   0  0  0  0  0  0  0  0  0  0  0  0
    2.1000   -2.1901    2.6683 H   0  0  0  0  0  0  0  0  0  0  0  0
    0.9036   -2.9956    3.7120 H   0  0  0  0  0  0  0  0  0  0  0  0
    1.1400   -3.5371    2.0322 H   0  0  0  0  0  0  0  0  0  0  0  0
  5  6  2  0  0  0  0
  5  7  1  0  0  0  0
  2  3  1  0  0  0  0
  2  4  1  0  0  0  0
  2  5  1  0  0  0  0
  1  2  1  0  0  0  0
 26 27  2  0  0  0  0
 26 28  1  0  0  0  0
 23 24  1  0  0  0  0
 23 25  1  0  0  0  0
 20 21  1  0  0  0  0
 20 22  1  0  0  0  0
 20 23  1  0  0  0  0
 17 18  1  0  0  0  0
 17 19  1  0  0  0  0
 17 20  1  0  0  0  0
 14 15  1  0  0  0  0
 14 16  1  0  0  0  0
 14 17  1  0  0  0  0
 11 12  1  0  0  0  0
 11 13  1  0  0  0  0
 11 14  1  0  0  0  0
  9 10  1  0  0  0  0
  9 11  1  0  0  0  0
  9 26  1  0  0  0  0
  7  8  1  0  0  0  0
  7  9  1  0  0  0  0
 30 31  1  0  0  0  0
 30 32  1  0  0  0  0
 30 33  1  0  0  0  0
 28 29  1  0  0  0  0
 28 30  1  0  0  0  0
M  END
$$$$
default_name
  -OEChem-01062215323D

 33 32  0     1  0  0  0  0  0999 V2000
   -3.8420   -3.6918    1.5562 H   0  0  0  0  0  0  0  0  0  0  0  0
   -3.8430   -2.7008    1.1032 C   0  0  0  0  0  0  0  0  0  0  0  0
   -4.5510   -2.0608    1.6242 H   0  0  0  0  0  0  0  0  0  0  0  0
   -4.1140   -2.7798    0.0522 H   0  0  0  0  0  0  0  0  0  0  0  0
   -2.4570   -2.1098    1.2172 C   0  0  0  0  0  0  0  0  0  0  0  0
   -1.5600   -2.7438    1.7572 O   0  0  0  0  0  0  0  0  0  0  0  0
   -2.2870   -0.8898    0.7102 N   0  0  0  0  0  0  0  0  0  0  0  0
   -3.0820   -0.4218    0.2992 H   0  0  0  0  0  0  0  0  0  0  0  0
   -1.0240   -0.1468    0.7262 C   0  0  1  0  0  0  0  0  0  0  0  0
   -0.8552    0.2718   -0.2669 H   0  0  0  0  0  0  0  0  0  0  0  0
   -1.1440    1.0114    1.7357 C   0  0  0  0  0  0  0  0  0  0  0  0
   -1.4856    0.6058    2.6902 H   0  0  0  0  0  0  0  0  0  0  0  0
   -0.1609    1.4589    1.8883 H   0  0  0  0  0  0  0  0  0  0  0  0
   -2.1340    2.1013    1.2960 C   0  0  0  0  0  0  0  0  0  0  0  0
   -1.8214    2.5141    0.3364 H   0  0  0  0  0  0  0  0  0  0  0  0
   -3.1275    1.6620    1.1896 H   0  0  0  0  0  0  0  0  0  0  0  0
   -2.1920    3.2356    2.3255 C   0  0  0  0  0  0  0  0  0  0  0  0
   -2.4961    2.8366    3.2936 H   0  0  0  0  0  0  0  0  0  0  0  0
   -1.2068    3.6935    2.4179 H   0  0  0  0  0  0  0  0  0  0  0  0
   -3.2001    4.2918    1.8768 C   0  0  0  0  0  0  0  0  0  0  0  0
   -2.8886    4.7049    0.9188 H   0  0  0  0  0  0  0  0  0  0  0  0
   -4.1811    3.8324    1.7668 H   0  0  0  0  0  0  0  0  0  0  0  0
   -3.2982    5.3828    2.8532 N   0  0  0  0  0  0  0  0  0  0  0  0
   -3.9607    6.0672    2.5189 H   0  0  0  0  0  0  0  0  0  0  0  0
   -3.6178    5.0097    3.7358 H   0  0  0  0  0  0  0  0  0  0  0  0
    0.1426   -1.0914    1.0590 C   0  0  0  0  0  0  0  0  0  0  0  0
    1.1812   -1.0432    0.4033 O   0  0  0  0  0  0  0  0  0  0  0  0
   -0.0362   -1.9517    2.0681 N   0  0  0  0  0  0  0  0  0  0  0  0
   -0.9104   -1.9193    2.5664 H   0  0  0  0  0  0  0  0  0  0  0  0
    0.9670   -2.9244    2.4986 C   0  0  0  0  0  0  0  0  0  0  0  0
    1.9038   -2.4116    2.7275 H   0  0  0  0  0  0  0  0  0  0  0  0
    0.6225   -3.4577    3.3858 H   0  0  0  0  0  0  0  0  0  0  0  0
    1.1521   -3.6407    1.6955 H   0  0  0  0  0  0  0  0  0  0  0  0
  5  6  2  0  0  0  0
  5  7  1  0  0  0  0
  2  3  1  0  0  0  0
  2  4  1  0  0  0  0
  2  5  1  0  0  0  0
  1  2  1  0  0  0  0
 26 27  2  0  0  0  0
 26 28  1  0  0  0  0
 23 24  1  0  0  0  0
 23 25  1  0  0  0  0
 20 21  1  0  0  0  0
 20 22  1  0  0  0  0
 20 23  1  0  0  0  0
 17 18  1  0  0  0  0
 17 19  1  0  0  0  0
 17 20  1  0  0  0  0
 14 15  1  0  0  0  0
 14 16  1  0  0  0  0
 14 17  1  0  0  0  0
 11 12  1  0  0  0  0
 11 13  1  0  0  0  0
 11 14  1  0  0  0  0
  9 10  1  0  0  0  0
  9 11  1  0  0  0  0
  9 26  1  0  0  0  0
  7  8  1  0  0  0  0
  7  9  1  0  0  0  0
 30 31  1  0  0  0  0
 30 32  1  0  0  0  0
 30 33  1  0  0  0  0
 28 29  1  0  0  0  0
 28 30  1  0  0  0  0
M  END
$$$$
default_name
  -OEChem-01062215323D

 33 32  0     1  0  0  0  0  0999 V2000
   -3.8420   -3.6918    1.5562 H   0  0  0  0  0  0  0  0  0  0  0  0
   -3.8430   -2.7008    1.1032 C   0  0  0  0  0  0  0  0  0  0  0  0
   -4.5510   -2.0608    1.6242 H   0  0  0  0  0  0  0  0  0  0  0  0
   -4.1140   -2.7798    0.0522 H   0  0  0  0  0  0  0  0  0  0  0  0
   -2.4570   -2.1098    1.2172 C   0  0  0  0  0  0  0  0  0  0  0  0
   -1.5600   -2.7438    1.7572 O   0  0  0  0  0  0  0  0  0  0  0  0
   -2.2870   -0.8898    0.7102 N   0  0  0  0  0  0  0  0  0  0  0  0
   -3.0820   -0.4218    0.2992 H   0  0  0  0  0  0  0  0  0  0  0  0
   -1.0240   -0.1468    0.7262 C   0  0  1  0  0  0  0  0  0  0  0  0
   -0.8552    0.2718   -0.2669 H   0  0  0  0  0  0  0  0  0  0  0  0
   -1.1440    1.0114    1.7357 C   0  0  0  0  0  0  0  0  0  0  0  0
   -1.4856    0.6058    2.6902 H   0  0  0  0  0  0  0  0  0  0  0  0
   -0.1609    1.4589    1.8883 H   0  0  0  0  0  0  0  0  0  0  0  0
   -2.1340    2.1013    1.2960 C   0  0  0  0  0  0  0  0  0  0  0  0
   -1.8214    2.5141    0.3364 H   0  0  0  0  0  0  0  0  0  0  0  0
   -3.1275    1.6620    1.1896 H   0  0  0  0  0  0  0  0  0  0  0  0
   -2.1920    3.2356    2.3255 C   0  0  0  0  0  0  0  0  0  0  0  0
   -2.4961    2.8366    3.2936 H   0  0  0  0  0  0  0  0  0  0  0  0
   -1.2068    3.6935    2.4179 H   0  0  0  0  0  0  0  0  0  0  0  0
   -3.2001    4.2918    1.8768 C   0  0  0  0  0  0  0  0  0  0  0  0
   -2.8886    4.7049    0.9188 H   0  0  0  0  0  0  0  0  0  0  0  0
   -4.1811    3.8324    1.7668 H   0  0  0  0  0  0  0  0  0  0  0  0
   -3.2982    5.3828    2.8532 N   0  0  0  0  0  0  0  0  0  0  0  0
   -3.9607    6.0672    2.5189 H   0  0  0  0  0  0  0  0  0  0  0  0
   -3.6178    5.0097    3.7358 H   0  0  0  0  0  0  0  0  0  0  0  0
    0.1426   -1.0914    1.0590 C   0  0  0  0  0  0  0  0  0  0  0  0
    1.2633   -0.8708    0.6048 O   0  0  0  0  0  0  0  0  0  0  0  0
   -0.1265   -2.1434    1.8408 N   0  0  0  0  0  0  0  0  0  0  0  0
   -1.0669   -2.2468    2.1853 H   0  0  0  0  0  0  0  0  0  0  0  0
    0.8660   -3.1417    2.2359 C   0  0  0  0  0  0  0  0  0  0  0  0
    1.7173   -2.6481    2.7099 H   0  0  0  0  0  0  0  0  0  0  0  0
    0.4287   -3.8557    2.9352 H   0  0  0  0  0  0  0  0  0  0  0  0
    1.2232   -3.6741    1.3520 H   0  0  0  0  0  0  0  0  0  0  0  0
  5  6  2  0  0  0  0
  5  7  1  0  0  0  0
  2  3  1  0  0  0  0
  2  4  1  0  0  0  0
  2  5  1  0  0  0  0
  1  2  1  0  0  0  0
 26 27  2  0  0  0  0
 26 28  1  0  0  0  0
 23 24  1  0  0  0  0
 23 25  1  0  0  0  0
 20 21  1  0  0  0  0
 20 22  1  0  0  0  0
 20 23  1  0  0  0  0
 17 18  1  0  0  0  0
 17 19  1  0  0  0  0
 17 20  1  0  0  0  0
 14 15  1  0  0  0  0
 14 16  1  0  0  0  0
 14 17  1  0  0  0  0
 11 12  1  0  0  0  0
 11 13  1  0  0  0  0
 11 14  1  0  0  0  0
  9 10  1  0  0  0  0
  9 11  1  0  0  0  0
  9 26  1  0  0  0  0
  7  8  1  0  0  0  0
  7  9  1  0  0  0  0
 30 31  1  0  0  0  0
 30 32  1  0  0  0  0
 30 33  1  0  0  0  0
 28 29  1  0  0  0  0
 28 30  1  0  0  0  0
M  END
$$$$
default_name
  -OEChem-01062215323D

 33 32  0     1  0  0  0  0  0999 V2000
   -3.8420   -3.6918    1.5562 H   0  0  0  0  0  0  0  0  0  0  0  0
   -3.8430   -2.7008    1.1032 C   0  0  0  0  0  0  0  0  0  0  0  0
   -4.5510   -2.0608    1.6242 H   0  0  0  0  0  0  0  0  0  0  0  0
   -4.1140   -2.7798    0.0522 H   0  0  0  0  0  0  0  0  0  0  0  0
   -2.4570   -2.1098    1.2172 C   0  0  0  0  0  0  0  0  0  0  0  0
   -1.5600   -2.7438    1.7572 O   0  0  0  0  0  0  0  0  0  0  0  0
   -2.2870   -0.8898    0.7102 N   0  0  0  0  0  0  0  0  0  0  0  0
   -3.0820   -0.4218    0.2992 H   0  0  0  0  0  0  0  0  0  0  0  0
   -1.0240   -0.1468    0.7262 C   0  0  1  0  0  0  0  0  0  0  0  0
   -0.8552    0.2718   -0.2669 H   0  0  0  0  0  0  0  0  0  0  0  0
   -1.1440    1.0114    1.7357 C   0  0  0  0  0  0  0  0  0  0  0  0
   -1.4856    0.6058    2.6902 H   0  0  0  0  0  0  0  0  0  0  0  0
   -0.1609    1.4589    1.8883 H   0  0  0  0  0  0  0  0  0  0  0  0
   -2.1340    2.1013    1.2960 C   0  0  0  0  0  0  0  0  0  0  0  0
   -1.8214    2.5141    0.3364 H   0  0  0  0  0  0  0  0  0  0  0  0
   -3.1275    1.6620    1.1896 H   0  0  0  0  0  0  0  0  0  0  0  0
   -2.1920    3.2356    2.3255 C   0  0  0  0  0  0  0  0  0  0  0  0
   -2.4961    2.8366    3.2936 H   0  0  0  0  0  0  0  0  0  0  0  0
   -1.2068    3.6935    2.4179 H   0  0  0  0  0  0  0  0  0  0  0  0
   -3.2001    4.2918    1.8768 C   0  0  0  0  0  0  0  0  0  0  0  0
   -2.8886    4.7049    0.9188 H   0  0  0  0  0  0  0  0  0  0  0  0
   -4.1811    3.8324    1.7668 H   0  0  0  0  0  0  0  0  0  0  0  0
   -3.2982    5.3828    2.8532 N   0  0  0  0  0  0  0  0  0  0  0  0
   -3.9607    6.0672    2.5189 H   0  0  0  0  0  0  0  0  0  0  0  0
   -3.6178    5.0097    3.7358 H   0  0  0  0  0  0  0  0  0  0  0  0
    0.1426   -1.0914    1.0590 C   0  0  0  0  0  0  0  0  0  0  0  0
    1.3009   -0.7393    0.8463 O   0  0  0  0  0  0  0  0  0  0  0  0
   -0.1670   -2.2890    1.5693 N   0  0  0  0  0  0  0  0  0  0  0  0
   -1.1391   -2.4972    1.7279 H   0  0  0  0  0  0  0  0  0  0  0  0
    0.8224   -3.3056    1.9235 C   0  0  0  0  0  0  0  0  0  0  0  0
    1.5531   -2.8836    2.6169 H   0  0  0  0  0  0  0  0  0  0  0  0
    0.3354   -4.1626    2.3911 H   0  0  0  0  0  0  0  0  0  0  0  0
    1.3483   -3.6348    1.0249 H   0  0  0  0  0  0  0  0  0  0  0  0
  5  6  2  0  0  0  0
  5  7  1  0  0  0  0
  2  3  1  0  0  0  0
  2  4  1  0  0  0  0
  2  5  1  0  0  0  0
  1  2  1  0  0  0  0
 26 27  2  0  0  0  0
 26 28  1  0  0  0  0
 23 24  1  0  0  0  0
 23 25  1  0  0  0  0
 20 21  1  0  0  0  0
 20 22  1  0  0  0  0
 20 23  1  0  0  0  0
 17 18  1  0  0  0  0
 17 19  1  0  0  0  0
 17 20  1  0  0  0  0
 14 15  1  0  0  0  0
 14 16  1  0  0  0  0
 14 17  1  0  0  0  0
 11 12  1  0  0  0  0
 11 13  1  0  0  0  0
 11 14  1  0  0  0  0
  9 10  1  0  0  0  0
  9 11  1  0  0  0  0
  9 26  1  0  0  0  0
  7  8  1  0  0  0  0
  7  9  1  0  0  0  0
 30 31  1  0  0  0  0
 30 32  1  0  0  0  0
 30 33  1  0  0  0  0
 28 29  1  0  0  0  0
 28 30  1  0  0  0  0
M  END
$$$$
default_name
  -OEChem-01062215323D

 33 32  0     1  0  0  0  0  0999 V2000
   -3.8420   -3.6918    1.5562 H   0  0  0  0  0  0  0  0  0  0  0  0
   -3.8430   -2.7008    1.1032 C   0  0  0  0  0  0  0  0  0  0  0  0
   -4.5510   -2.0608    1.6242 H   0  0  0  0  0  0  0  0  0  0  0  0
   -4.1140   -2.7798    0.0522 H   0  0  0  0  0  0  0  0  0  0  0  0
   -2.4570   -2.1098    1.2172 C   0  0  0  0  0  0  0  0  0  0  0  0
   -1.5600   -2.7438    1.7572 O   0  0  0  0  0  0  0  0  0  0  0  0
   -2.2870   -0.8898    0.7102 N   0  0  0  0  0  0  0  0  0  0  0  0
   -3.0820   -0.4218    0.2992 H   0  0  0  0  0  0  0  0  0  0  0  0
   -1.0240   -0.1468    0.7262 C   0  0  1  0  0  0  0  0  0  0  0  0
   -0.8552    0.2718   -0.2669 H   0  0  0  0  0  0  0  0  0  0  0  0
   -1.1440    1.0114    1.7357 C   0  0  0  0  0  0  0  0  0  0  0  0
   -1.4856    0.6058    2.6902 H   0  0  0  0  0  0  0  0  0  0  0  0
   -0.1609    1.4589    1.8883 H   0  0  0  0  0  0  0  0  0  0  0  0
   -2.1340    2.1013    1.2960 C   0  0  0  0  0  0  0  0  0  0  0  0
   -1.8214    2.5141    0.3364 H   0  0  0  0  0  0  0  0  0  0  0  0
   -3.1275    1.6620    1.1896 H   0  0  0  0  0  0  0  0  0  0  0  0
   -2.1920    3.2356    2.3255 C   0  0  0  0  0  0  0  0  0  0  0  0
   -2.4961    2.8366    3.2936 H   0  0  0  0  0  0  0  0  0  0  0  0
   -1.2068    3.6935    2.4179 H   0  0  0  0  0  0  0  0  0  0  0  0
   -3.2001    4.2918    1.8768 C   0  0  0  0  0  0  0  0  0  0  0  0
   -2.8886    4.7049    0.9188 H   0  0  0  0  0  0  0  0  0  0  0  0
   -4.1811    3.8324    1.7668 H   0  0  0  0  0  0  0  0  0  0  0  0
   -3.2982    5.3828    2.8532 N   0  0  0  0  0  0  0  0  0  0  0  0
   -3.9607    6.0672    2.5189 H   0  0  0  0  0  0  0  0  0  0  0  0
   -3.6178    5.0097    3.7358 H   0  0  0  0  0  0  0  0  0  0  0  0
    0.1426   -1.0914    1.0590 C   0  0  0  0  0  0  0  0  0  0  0  0
    1.2915   -0.6575    1.1115 O   0  0  0  0  0  0  0  0  0  0  0  0
   -0.1547   -2.3785    1.2720 N   0  0  0  0  0  0  0  0  0  0  0  0
   -1.1222   -2.6532    1.2255 H   0  0  0  0  0  0  0  0  0  0  0  0
    0.8391   -3.4050    1.5825 C   0  0  0  0  0  0  0  0  0  0  0  0
    1.4226   -3.1020    2.4546 H   0  0  0  0  0  0  0  0  0  0  0  0
    0.3491   -4.3573    1.7904 H   0  0  0  0  0  0  0  0  0  0  0  0
    1.5189   -3.5256    0.7365 H   0  0  0  0  0  0  0  0  0  0  0  0
  5  6  2  0  0  0  0
  5  7  1  0  0  0  0
  2  3  1  0  0  0  0
  2  4  1  0  0  0  0
  2  5  1  0  0  0  0
  1  2  1  0  0  0  0
 26 27  2  0  0  0  0
 26 28  1  0  0  0  0
 23 24  1  0  0  0  0
 23 25  1  0  0  0  0
 20 21  1  0  0  0  0
 20 22  1  0  0  0  0
 20 23  1  0  0  0  0
 17 18  1  0  0  0  0
 17 19  1  0  0  0  0
 17 20  1  0  0  0  0
 14 15  1  0  0  0  0
 14 16  1  0  0  0  0
 14 17  1  0  0  0  0
 11 12  1  0  0  0  0
 11 13  1  0  0  0  0
 11 14  1  0  0  0  0
  9 10  1  0  0  0  0
  9 11  1  0  0  0  0
  9 26  1  0  0  0  0
  7  8  1  0  0  0  0
  7  9  1  0  0  0  0
 30 31  1  0  0  0  0
 30 32  1  0  0  0  0
 30 33  1  0  0  0  0
 28 29  1  0  0  0  0
 28 30  1  0  0  0  0
M  END
$$$$
default_name
  -OEChem-01062215323D

 33 32  0     1  0  0  0  0  0999 V2000
   -3.8420   -3.6918    1.5562 H   0  0  0  0  0  0  0  0  0  0  0  0
   -3.8430   -2.7008    1.1032 C   0  0  0  0  0  0  0  0  0  0  0  0
   -4.5510   -2.0608    1.6242 H   0  0  0  0  0  0  0  0  0  0  0  0
   -4.1140   -2.7798    0.0522 H   0  0  0  0  0  0  0  0  0  0  0  0
   -2.4570   -2.1098    1.2172 C   0  0  0  0  0  0  0  0  0  0  0  0
   -1.5600   -2.7438    1.7572 O   0  0  0  0  0  0  0  0  0  0  0  0
   -2.2870   -0.8898    0.7102 N   0  0  0  0  0  0  0  0  0  0  0  0
   -3.0820   -0.4218    0.2992 H   0  0  0  0  0  0  0  0  0  0  0  0
   -1.0240   -0.1468    0.7262 C   0  0  1  0  0  0  0  0  0  0  0  0
   -0.8552    0.2718   -0.2669 H   0  0  0  0  0  0  0  0  0  0  0  0
   -1.1440    1.0114    1.7357 C   0  0  0  0  0  0  0  0  0  0  0  0
   -1.4856    0.6058    2.6902 H   0  0  0  0  0  0  0  0  0  0  0  0
   -0.1609    1.4589    1.8883 H   0  0  0  0  0  0  0  0  0  0  0  0
   -2.1340    2.1013    1.2960 C   0  0  0  0  0  0  0  0  0  0  0  0
   -1.8214    2.5141    0.3364 H   0  0  0  0  0  0  0  0  0  0  0  0
   -3.1275    1.6620    1.1896 H   0  0  0  0  0  0  0  0  0  0  0  0
   -2.1920    3.2356    2.3255 C   0  0  0  0  0  0  0  0  0  0  0  0
   -2.4961    2.8366    3.2936 H   0  0  0  0  0  0  0  0  0  0  0  0
   -1.2068    3.6935    2.4179 H   0  0  0  0  0  0  0  0  0  0  0  0
   -3.2001    4.2918    1.8768 C   0  0  0  0  0  0  0  0  0  0  0  0
   -2.8886    4.7049    0.9188 H   0  0  0  0  0  0  0  0  0  0  0  0
   -4.1811    3.8324    1.7668 H   0  0  0  0  0  0  0  0  0  0  0  0
   -3.2982    5.3828    2.8532 N   0  0  0  0  0  0  0  0  0  0  0  0
   -3.9607    6.0672    2.5189 H   0  0  0  0  0  0  0  0  0  0  0  0
   -3.6178    5.0097    3.7358 H   0  0  0  0  0  0  0  0  0  0  0  0
    0.1426   -1.0914    1.0590 C   0  0  0  0  0  0  0  0  0  0  0  0
    1.2356   -0.6312    1.3821 O   0  0  0  0  0  0  0  0  0  0  0  0
   -0.0905   -2.4060    0.9693 N   0  0  0  0  0  0  0  0  0  0  0  0
   -1.0172   -2.7043    0.7123 H   0  0  0  0  0  0  0  0  0  0  0  0
    0.9151   -3.4332    1.2363 C   0  0  0  0  0  0  0  0  0  0  0  0
    1.3345   -3.2884    2.2343 H   0  0  0  0  0  0  0  0  0  0  0  0
    0.4687   -4.4267    1.1741 H   0  0  0  0  0  0  0  0  0  0  0  0
    1.7235   -3.3539    0.5065 H   0  0  0  0  0  0  0  0  0  0  0  0
  5  6  2  0  0  0  0
  5  7  1  0  0  0  0
  2  3  1  0  0  0  0
  2  4  1  0  0  0  0
  2  5  1  0  0  0  0
  1  2  1  0  0  0  0
 26 27  2  0  0  0  0
 26 28  1  0  0  0  0
 23 24  1  0  0  0  0
 23 25  1  0  0  0  0
 20 21  1  0  0  0  0
 20 22  1  0  0  0  0
 20 23  1  0  0  0  0
 17 18  1  0  0  0  0
 17 19  1  0  0  0  0
 17 20  1  0  0  0  0
 14 15  1  0  0  0  0
 14 16  1  0  0  0  0
 14 17  1  0  0  0  0
 11 12  1  0  0  0  0
 11 13  1  0  0  0  0
 11 14  1  0  0  0  0
  9 10  1  0  0  0  0
  9 11  1  0  0  0  0
  9 26  1  0  0  0  0
  7  8  1  0  0  0  0
  7  9  1  0  0  0  0
 30 31  1  0  0  0  0
 30 32  1  0  0  0  0
 30 33  1  0  0  0  0
 28 29  1  0  0  0  0
 28 30  1  0  0  0  0
M  END
$$$$
default_name
  -OEChem-01062215323D

 33 32  0     1  0  0  0  0  0999 V2000
   -3.8420   -3.6918    1.5562 H   0  0  0  0  0  0  0  0  0  0  0  0
   -3.8430   -2.7008    1.1032 C   0  0  0  0  0  0  0  0  0  0  0  0
   -4.5510   -2.0608    1.6242 H   0  0  0  0  0  0  0  0  0  0  0  0
   -4.1140   -2.7798    0.0522 H   0  0  0  0  0  0  0  0  0  0  0  0
   -2.4570   -2.1098    1.2172 C   0  0  0  0  0  0  0  0  0  0  0  0
   -1.5600   -2.7438    1.7572 O   0  0  0  0  0  0  0  0  0  0  0  0
   -2.2870   -0.8898    0.7102 N   0  0  0  0  0  0  0  0  0  0  0  0
   -3.0820   -0.4218    0.2992 H   0  0  0  0  0  0  0  0  0  0  0  0
   -1.0240   -0.1468    0.7262 C   0  0  1  0  0  0  0  0  0  0  0  0
   -0.8552    0.2718   -0.2669 H   0  0  0  0  0  0  0  0  0  0  0  0
   -1.1440    1.0114    1.7357 C   0  0  0  0  0  0  0  0  0  0  0  0
   -1.4856    0.6058    2.6902 H   0  0  0  0  0  0  0  0  0  0  0  0
   -0.1609    1.4589    1.8883 H   0  0  0  0  0  0  0  0  0  0  0  0
   -2.1340    2.1013    1.2960 C   0  0  0  0  0  0  0  0  0  0  0  0
   -1.8214    2.5141    0.3364 H   0  0  0  0  0  0  0  0  0  0  0  0
   -3.1275    1.6620    1.1896 H   0  0  0  0  0  0  0  0  0  0  0  0
   -2.1920    3.2356    2.3255 C   0  0  0  0  0  0  0  0  0  0  0  0
   -2.4961    2.8366    3.2936 H   0  0  0  0  0  0  0  0  0  0  0  0
   -1.2068    3.6935    2.4179 H   0  0  0  0  0  0  0  0  0  0  0  0
   -3.2001    4.2918    1.8768 C   0  0  0  0  0  0  0  0  0  0  0  0
   -2.8886    4.7049    0.9188 H   0  0  0  0  0  0  0  0  0  0  0  0
   -4.1811    3.8324    1.7668 H   0  0  0  0  0  0  0  0  0  0  0  0
   -3.2982    5.3828    2.8532 N   0  0  0  0  0  0  0  0  0  0  0  0
   -3.9607    6.0672    2.5189 H   0  0  0  0  0  0  0  0  0  0  0  0
   -3.6178    5.0097    3.7358 H   0  0  0  0  0  0  0  0  0  0  0  0
    0.1426   -1.0914    1.0590 C   0  0  0  0  0  0  0  0  0  0  0  0
    1.1371   -0.6620    1.6398 O   0  0  0  0  0  0  0  0  0  0  0  0
    0.0211   -2.3694    0.6816 N   0  0  0  0  0  0  0  0  0  0  0  0
   -0.8313   -2.6470    0.2232 H   0  0  0  0  0  0  0  0  0  0  0  0
    1.0450   -3.3882    0.9084 C   0  0  0  0  0  0  0  0  0  0  0  0
    1.2949   -3.4301    1.9708 H   0  0  0  0  0  0  0  0  0  0  0  0
    0.6861   -4.3660    0.5841 H   0  0  0  0  0  0  0  0  0  0  0  0
    1.9481   -3.1315    0.3507 H   0  0  0  0  0  0  0  0  0  0  0  0
  5  6  2  0  0  0  0
  5  7  1  0  0  0  0
  2  3  1  0  0  0  0
  2  4  1  0  0  0  0
  2  5  1  0  0  0  0
  1  2  1  0  0  0  0
 26 27  2  0  0  0  0
 26 28  1  0  0  0  0
 23 24  1  0  0  0  0
 23 25  1  0  0  0  0
 20 21  1  0  0  0  0
 20 22  1  0  0  0  0
 20 23  1  0  0  0  0
 17 18  1  0  0  0  0
 17 19  1  0  0  0  0
 17 20  1  0  0  0  0
 14 15  1  0  0  0  0
 14 16  1  0  0  0  0
 14 17  1  0  0  0  0
 11 12  1  0  0  0  0
 11 13  1  0  0  0  0
 11 14  1  0  0  0  0
  9 10  1  0  0  0  0
  9 11  1  0  0  0  0
  9 26  1  0  0  0  0
  7  8  1  0  0  0  0
  7  9  1  0  0  0  0
 30 31  1  0  0  0  0
 30 32  1  0  0  0  0
 30 33  1  0  0  0  0
 28 29  1  0  0  0  0
 28 30  1  0  0  0  0
M  END
$$$$
default_name
  -OEChem-01062215323D

 33 32  0     1  0  0  0  0  0999 V2000
   -3.8420   -3.6918    1.5562 H   0  0  0  0  0  0  0  0  0  0  0  0
   -3.8430   -2.7008    1.1032 C   0  0  0  0  0  0  0  0  0  0  0  0
   -4.5510   -2.0608    1.6242 H   0  0  0  0  0  0  0  0  0  0  0  0
   -4.1140   -2.7798    0.0522 H   0  0  0  0  0  0  0  0  0  0  0  0
   -2.4570   -2.1098    1.2172 C   0  0  0  0  0  0  0  0  0  0  0  0
   -1.5600   -2.7438    1.7572 O   0  0  0  0  0  0  0  0  0  0  0  0
   -2.2870   -0.8898    0.7102 N   0  0  0  0  0  0  0  0  0  0  0  0
   -3.0820   -0.4218    0.2992 H   0  0  0  0  0  0  0  0  0  0  0  0
   -1.0240   -0.1468    0.7262 C   0  0  1  0  0  0  0  0  0  0  0  0
   -0.8552    0.2718   -0.2669 H   0  0  0  0  0  0  0  0  0  0  0  0
   -1.1440    1.0114    1.7357 C   0  0  0  0  0  0  0  0  0  0  0  0
   -1.4856    0.6058    2.6902 H   0  0  0  0  0  0  0  0  0  0  0  0
   -0.1609    1.4589    1.8883 H   0  0  0  0  0  0  0  0  0  0  0  0
   -2.1340    2.1013    1.2960 C   0  0  0  0  0  0  0  0  0  0  0  0
   -1.8214    2.5141    0.3364 H   0  0  0  0  0  0  0  0  0  0  0  0
   -3.1275    1.6620    1.1896 H   0  0  0  0  0  0  0  0  0  0  0  0
   -2.1920    3.2356    2.3255 C   0  0  0  0  0  0  0  0  0  0  0  0
   -2.4961    2.8366    3.2936 H   0  0  0  0  0  0  0  0  0  0  0  0
   -1.2068    3.6935    2.4179 H   0  0  0  0  0  0  0  0  0  0  0  0
   -3.2001    4.2918    1.8768 C   0  0  0  0  0  0  0  0  0  0  0  0
   -2.8886    4.7049    0.9188 H   0  0  0  0  0  0  0  0  0  0  0  0
   -4.1811    3.8324    1.7668 H   0  0  0  0  0  0  0  0  0  0  0  0
   -3.2982    5.3828    2.8532 N   0  0  0  0  0  0  0  0  0  0  0  0
   -3.9607    6.0672    2.5189 H   0  0  0  0  0  0  0  0  0  0  0  0
   -3.6178    5.0097    3.7358 H   0  0  0  0  0  0  0  0  0  0  0  0
    0.1426   -1.0914    1.0590 C   0  0  0  0  0  0  0  0  0  0  0  0
    1.0028   -0.7479    1.8671 O   0  0  0  0  0  0  0  0  0  0  0  0
    0.1726   -2.2714    0.4287 N   0  0  0  0  0  0  0  0  0  0  0  0
   -0.5771   -2.4851   -0.2083 H   0  0  0  0  0  0  0  0  0  0  0  0
    1.2202   -3.2730    0.6212 C   0  0  0  0  0  0  0  0  0  0  0  0
    1.3065   -3.5174    1.6823 H   0  0  0  0  0  0  0  0  0  0  0  0
    0.9865   -4.1793    0.0608 H   0  0  0  0  0  0  0  0  0  0  0  0
    2.1773   -2.8735    0.2795 H   0  0  0  0  0  0  0  0  0  0  0  0
  5  6  2  0  0  0  0
  5  7  1  0  0  0  0
  2  3  1  0  0  0  0
  2  4  1  0  0  0  0
  2  5  1  0  0  0  0
  1  2  1  0  0  0  0
 26 27  2  0  0  0  0
 26 28  1  0  0  0  0
 23 24  1  0  0  0  0
 23 25  1  0  0  0  0
 20 21  1  0  0  0  0
 20 22  1  0  0  0  0
 20 23  1  0  0  0  0
 17 18  1  0  0  0  0
 17 19  1  0  0  0  0
 17 20  1  0  0  0  0
 14 15  1  0  0  0  0
 14 16  1  0  0  0  0
 14 17  1  0  0  0  0
 11 12  1  0  0  0  0
 11 13  1  0  0  0  0
 11 14  1  0  0  0  0
  9 10  1  0  0  0  0
  9 11  1  0  0  0  0
  9 26  1  0  0  0  0
  7  8  1  0  0  0  0
  7  9  1  0  0  0  0
 30 31  1  0  0  0  0
 30 32  1  0  0  0  0
 30 33  1  0  0  0  0
 28 29  1  0  0  0  0
 28 30  1  0  0  0  0
M  END
$$$$
default_name
  -OEChem-01062215323D

 33 32  0     1  0  0  0  0  0999 V2000
   -3.8420   -3.6918    1.5562 H   0  0  0  0  0  0  0  0  0  0  0  0
   -3.8430   -2.7008    1.1032 C   0  0  0  0  0  0  0  0  0  0  0  0
   -4.5510   -2.0608    1.6242 H   0  0  0  0  0  0  0  0  0  0  0  0
   -4.1140   -2.7798    0.0522 H   0  0  0  0  0  0  0  0  0  0  0  0
   -2.4570   -2.1098    1.2172 C   0  0  0  0  0  0  0  0  0  0  0  0
   -1.5600   -2.7438    1.7572 O   0  0  0  0  0  0  0  0  0  0  0  0
   -2.2870   -0.8898    0.7102 N   0  0  0  0  0  0  0  0  0  0  0  0
   -3.0820   -0.4218    0.2992 H   0  0  0  0  0  0  0  0  0  0  0  0
   -1.0240   -0.1468    0.7262 C   0  0  1  0  0  0  0  0  0  0  0  0
   -0.8552    0.2718   -0.2669 H   0  0  0  0  0  0  0  0  0  0  0  0
   -1.1440    1.0114    1.7357 C   0  0  0  0  0  0  0  0  0  0  0  0
   -1.4856    0.6058    2.6902 H   0  0  0  0  0  0  0  0  0  0  0  0
   -0.1609    1.4589    1.8883 H   0  0  0  0  0  0  0  0  0  0  0  0
   -2.1340    2.1013    1.2960 C   0  0  0  0  0  0  0  0  0  0  0  0
   -1.8214    2.5141    0.3364 H   0  0  0  0  0  0  0  0  0  0  0  0
   -3.1275    1.6620    1.1896 H   0  0  0  0  0  0  0  0  0  0  0  0
   -2.1920    3.2356    2.3255 C   0  0  0  0  0  0  0  0  0  0  0  0
   -2.4961    2.8366    3.2936 H   0  0  0  0  0  0  0  0  0  0  0  0
   -1.2068    3.6935    2.4179 H   0  0  0  0  0  0  0  0  0  0  0  0
   -3.2001    4.2918    1.8768 C   0  0  0  0  0  0  0  0  0  0  0  0
   -2.8886    4.7049    0.9188 H   0  0  0  0  0  0  0  0  0  0  0  0
   -4.1811    3.8324    1.7668 H   0  0  0  0  0  0  0  0  0  0  0  0
   -3.2982    5.3828    2.8532 N   0  0  0  0  0  0  0  0  0  0  0  0
   -3.9607    6.0672    2.5189 H   0  0  0  0  0  0  0  0  0  0  0  0
   -3.6178    5.0097    3.7358 H   0  0  0  0  0  0  0  0  0  0  0  0
    0.1426   -1.0914    1.0590 C   0  0  0  0  0  0  0  0  0  0  0  0
    0.8416   -0.8830    2.0483 O   0  0  0  0  0  0  0  0  0  0  0  0
    0.3537   -2.1185    0.2277 N   0  0  0  0  0  0  0  0  0  0  0  0
   -0.2721   -2.2298   -0.5530 H   0  0  0  0  0  0  0  0  0  0  0  0
    1.4286   -3.0955    0.3943 C   0  0  0  0  0  0  0  0  0  0  0  0
    1.3685   -3.5445    1.3882 H   0  0  0  0  0  0  0  0  0  0  0  0
    1.3495   -3.8794   -0.3602 H   0  0  0  0  0  0  0  0  0  0  0  0
    2.3956   -2.5974    0.2979 H   0  0  0  0  0  0  0  0  0  0  0  0
  5  6  2  0  0  0  0
  5  7  1  0  0  0  0
  2  3  1  0  0  0  0
  2  4  1  0  0  0  0
  2  5  1  0  0  0  0
  1  2  1  0  0  0  0
 26 27  2  0  0  0  0
 26 28  1  0  0  0  0
 23 24  1  0  0  0  0
 23 25  1  0  0  0  0
 20 21  1  0  0  0  0
 20 22  1  0  0  0  0
 20 23  1  0  0  0  0
 17 18  1  0  0  0  0
 17 19  1  0  0  0  0
 17 20  1  0  0  0  0
 14 15  1  0  0  0  0
 14 16  1  0  0  0  0
 14 17  1  0  0  0  0
 11 12  1  0  0  0  0
 11 13  1  0  0  0  0
 11 14  1  0  0  0  0
  9 10  1  0  0  0  0
  9 11  1  0  0  0  0
  9 26  1  0  0  0  0
  7  8  1  0  0  0  0
  7  9  1  0  0  0  0
 30 31  1  0  0  0  0
 30 32  1  0  0  0  0
 30 33  1  0  0  0  0
 28 29  1  0  0  0  0
 28 30  1  0  0  0  0
M  END
$$$$
default_name
  -OEChem-01062215323D

 33 32  0     1  0  0  0  0  0999 V2000
   -3.8420   -3.6918    1.5562 H   0  0  0  0  0  0  0  0  0  0  0  0
   -3.8430   -2.7008    1.1032 C   0  0  0  0  0  0  0  0  0  0  0  0
   -4.5510   -2.0608    1.6242 H   0  0  0  0  0  0  0  0  0  0  0  0
   -4.1140   -2.7798    0.0522 H   0  0  0  0  0  0  0  0  0  0  0  0
   -2.4570   -2.1098    1.2172 C   0  0  0  0  0  0  0  0  0  0  0  0
   -1.5600   -2.7438    1.7572 O   0  0  0  0  0  0  0  0  0  0  0  0
   -2.2870   -0.8898    0.7102 N   0  0  0  0  0  0  0  0  0  0  0  0
   -3.0820   -0.4218    0.2992 H   0  0  0  0  0  0  0  0  0  0  0  0
   -1.0240   -0.1468    0.7262 C   0  0  1  0  0  0  0  0  0  0  0  0
   -0.8552    0.2718   -0.2669 H   0  0  0  0  0  0  0  0  0  0  0  0
   -1.1440    1.0114    1.7357 C   0  0  0  0  0  0  0  0  0  0  0  0
   -1.4856    0.6058    2.6902 H   0  0  0  0  0  0  0  0  0  0  0  0
   -0.1609    1.4589    1.8883 H   0  0  0  0  0  0  0  0  0  0  0  0
   -2.1340    2.1013    1.2960 C   0  0  0  0  0  0  0  0  0  0  0  0
   -1.8214    2.5141    0.3364 H   0  0  0  0  0  0  0  0  0  0  0  0
   -3.1275    1.6620    1.1896 H   0  0  0  0  0  0  0  0  0  0  0  0
   -2.1920    3.2356    2.3255 C   0  0  0  0  0  0  0  0  0  0  0  0
   -2.4961    2.8366    3.2936 H   0  0  0  0  0  0  0  0  0  0  0  0
   -1.2068    3.6935    2.4179 H   0  0  0  0  0  0  0  0  0  0  0  0
   -3.2001    4.2918    1.8768 C   0  0  0  0  0  0  0  0  0  0  0  0
   -2.8886    4.7049    0.9188 H   0  0  0  0  0  0  0  0  0  0  0  0
   -4.1811    3.8324    1.7668 H   0  0  0  0  0  0  0  0  0  0  0  0
   -3.2982    5.3828    2.8532 N   0  0  0  0  0  0  0  0  0  0  0  0
   -3.9607    6.0672    2.5189 H   0  0  0  0  0  0  0  0  0  0  0  0
   -3.6178    5.0097    3.7358 H   0  0  0  0  0  0  0  0  0  0  0  0
    0.1426   -1.0914    1.0590 C   0  0  0  0  0  0  0  0  0  0  0  0
    0.6648   -1.0581    2.1712 O   0  0  0  0  0  0  0  0  0  0  0  0
    0.5521   -1.9212    0.0924 N   0  0  0  0  0  0  0  0  0  0  0  0
    0.0631   -1.8985   -0.7873 H   0  0  0  0  0  0  0  0  0  0  0  0
    1.6561   -2.8679    0.2431 C   0  0  0  0  0  0  0  0  0  0  0  0
    1.4766   -3.5094    1.1087 H   0  0  0  0  0  0  0  0  0  0  0  0
    1.7502   -3.4867   -0.6504 H   0  0  0  0  0  0  0  0  0  0  0  0
    2.5881   -2.3222    0.4045 H   0  0  0  0  0  0  0  0  0  0  0  0
  5  6  2  0  0  0  0
  5  7  1  0  0  0  0
  2  3  1  0  0  0  0
  2  4  1  0  0  0  0
  2  5  1  0  0  0  0
  1  2  1  0  0  0  0
 26 27  2  0  0  0  0
 26 28  1  0  0  0  0
 23 24  1  0  0  0  0
 23 25  1  0  0  0  0
 20 21  1  0  0  0  0
 20 22  1  0  0  0  0
 20 23  1  0  0  0  0
 17 18  1  0  0  0  0
 17 19  1  0  0  0  0
 17 20  1  0  0  0  0
 14 15  1  0  0  0  0
 14 16  1  0  0  0  0
 14 17  1  0  0  0  0
 11 12  1  0  0  0  0
 11 13  1  0  0  0  0
 11 14  1  0  0  0  0
  9 10  1  0  0  0  0
  9 11  1  0  0  0  0
  9 26  1  0  0  0  0
  7  8  1  0  0  0  0
  7  9  1  0  0  0  0
 30 31  1  0  0  0  0
 30 32  1  0  0  0  0
 30 33  1  0  0  0  0
 28 29  1  0  0  0  0
 28 30  1  0  0  0  0
M  END
$$$$
default_name
  -OEChem-01062215323D

 33 32  0     1  0  0  0  0  0999 V2000
   -3.8420   -3.6918    1.5562 H   0  0  0  0  0  0  0  0  0  0  0  0
   -3.8430   -2.7008    1.1032 C   0  0  0  0  0  0  0  0  0  0  0  0
   -4.5510   -2.0608    1.6242 H   0  0  0  0  0  0  0  0  0  0  0  0
   -4.1140   -2.7798    0.0522 H   0  0  0  0  0  0  0  0  0  0  0  0
   -2.4570   -2.1098    1.2172 C   0  0  0  0  0  0  0  0  0  0  0  0
   -1.5600   -2.7438    1.7572 O   0  0  0  0  0  0  0  0  0  0  0  0
   -2.2870   -0.8898    0.7102 N   0  0  0  0  0  0  0  0  0  0  0  0
   -3.0820   -0.4218    0.2992 H   0  0  0  0  0  0  0  0  0  0  0  0
   -1.0240   -0.1468    0.7262 C   0  0  1  0  0  0  0  0  0  0  0  0
   -0.8552    0.2718   -0.2669 H   0  0  0  0  0  0  0  0  0  0  0  0
   -1.1440    1.0114    1.7357 C   0  0  0  0  0  0  0  0  0  0  0  0
   -1.4856    0.6058    2.6902 H   0  0  0  0  0  0  0  0  0  0  0  0
   -0.1609    1.4589    1.8883 H   0  0  0  0  0  0  0  0  0  0  0  0
   -2.1340    2.1013    1.2960 C   0  0  0  0  0  0  0  0  0  0  0  0
   -1.8214    2.5141    0.3364 H   0  0  0  0  0  0  0  0  0  0  0  0
   -3.1275    1.6620    1.1896 H   0  0  0  0  0  0  0  0  0  0  0  0
   -2.1920    3.2356    2.3255 C   0  0  0  0  0  0  0  0  0  0  0  0
   -2.4961    2.8366    3.2936 H   0  0  0  0  0  0  0  0  0  0  0  0
   -1.2068    3.6935    2.4179 H   0  0  0  0  0  0  0  0  0  0  0  0
   -3.2001    4.2918    1.8768 C   0  0  0  0  0  0  0  0  0  0  0  0
   -2.8886    4.7049    0.9188 H   0  0  0  0  0  0  0  0  0  0  0  0
   -4.1811    3.8324    1.7668 H   0  0  0  0  0  0  0  0  0  0  0  0
   -3.2982    5.3828    2.8532 N   0  0  0  0  0  0  0  0  0  0  0  0
   -3.9607    6.0672    2.5189 H   0  0  0  0  0  0  0  0  0  0  0  0
   -3.6178    5.0097    3.7358 H   0  0  0  0  0  0  0  0  0  0  0  0
    0.1426   -1.0914    1.0590 C   0  0  0  0  0  0  0  0  0  0  0  0
    0.4842   -1.2614    2.2274 O   0  0  0  0  0  0  0  0  0  0  0  0
    0.7541   -1.6930    0.0320 N   0  0  0  0  0  0  0  0  0  0  0  0
    0.4055   -1.5136   -0.8953 H   0  0  0  0  0  0  0  0  0  0  0  0
    1.8871   -2.6055    0.1780 C   0  0  0  0  0  0  0  0  0  0  0  0
    1.6235   -3.4146    0.8628 H   0  0  0  0  0  0  0  0  0  0  0  0
    2.1614   -3.0280   -0.7897 H   0  0  0  0  0  0  0  0  0  0  0  0
    2.7416   -2.0665    0.5922 H   0  0  0  0  0  0  0  0  0  0  0  0
  5  6  2  0  0  0  0
  5  7  1  0  0  0  0
  2  3  1  0  0  0  0
  2  4  1  0  0  0  0
  2  5  1  0  0  0  0
  1  2  1  0  0  0  0
 26 27  2  0  0  0  0
 26 28  1  0  0  0  0
 23 24  1  0  0  0  0
 23 25  1  0  0  0  0
 20 21  1  0  0  0  0
 20 22  1  0  0  0  0
 20 23  1  0  0  0  0
 17 18  1  0  0  0  0
 17 19  1  0  0  0  0
 17 20  1  0  0  0  0
 14 15  1  0  0  0  0
 14 16  1  0  0  0  0
 14 17  1  0  0  0  0
 11 12  1  0  0  0  0
 11 13  1  0  0  0  0
 11 14  1  0  0  0  0
  9 10  1  0  0  0  0
  9 11  1  0  0  0  0
  9 26  1  0  0  0  0
  7  8  1  0  0  0  0
  7  9  1  0  0  0  0
 30 31  1  0  0  0  0
 30 32  1  0  0  0  0
 30 33  1  0  0  0  0
 28 29  1  0  0  0  0
 28 30  1  0  0  0  0
M  END
$$$$
default_name
  -OEChem-01062215323D

 33 32  0     1  0  0  0  0  0999 V2000
   -3.8420   -3.6918    1.5562 H   0  0  0  0  0  0  0  0  0  0  0  0
   -3.8430   -2.7008    1.1032 C   0  0  0  0  0  0  0  0  0  0  0  0
   -4.5510   -2.0608    1.6242 H   0  0  0  0  0  0  0  0  0  0  0  0
   -4.1140   -2.7798    0.0522 H   0  0  0  0  0  0  0  0  0  0  0  0
   -2.4570   -2.1098    1.2172 C   0  0  0  0  0  0  0  0  0  0  0  0
   -1.5600   -2.7438    1.7572 O   0  0  0  0  0  0  0  0  0  0  0  0
   -2.2870   -0.8898    0.7102 N   0  0  0  0  0  0  0  0  0  0  0  0
   -3.0820   -0.4218    0.2992 H   0  0  0  0  0  0  0  0  0  0  0  0
   -1.0240   -0.1468    0.7262 C   0  0  1  0  0  0  0  0  0  0  0  0
   -0.8552    0.2718   -0.2669 H   0  0  0  0  0  0  0  0  0  0  0  0
   -1.1440    1.0114    1.7357 C   0  0  0  0  0  0  0  0  0  0  0  0
   -1.4856    0.6058    2.6902 H   0  0  0  0  0  0  0  0  0  0  0  0
   -0.1609    1.4589    1.8883 H   0  0  0  0  0  0  0  0  0  0  0  0
   -2.1340    2.1013    1.2960 C   0  0  0  0  0  0  0  0  0  0  0  0
   -1.8214    2.5141    0.3364 H   0  0  0  0  0  0  0  0  0  0  0  0
   -3.1275    1.6620    1.1896 H   0  0  0  0  0  0  0  0  0  0  0  0
   -2.1920    3.2356    2.3255 C   0  0  0  0  0  0  0  0  0  0  0  0
   -2.4961    2.8366    3.2936 H   0  0  0  0  0  0  0  0  0  0  0  0
   -1.2068    3.6935    2.4179 H   0  0  0  0  0  0  0  0  0  0  0  0
   -3.2001    4.2918    1.8768 C   0  0  0  0  0  0  0  0  0  0  0  0
   -2.8886    4.7049    0.9188 H   0  0  0  0  0  0  0  0  0  0  0  0
   -4.1811    3.8324    1.7668 H   0  0  0  0  0  0  0  0  0  0  0  0
   -3.2982    5.3828    2.8532 N   0  0  0  0  0  0  0  0  0  0  0  0
   -3.9607    6.0672    2.5189 H   0  0  0  0  0  0  0  0  0  0  0  0
   -3.6178    5.0097    3.7358 H   0  0  0  0  0  0  0  0  0  0  0  0
    0.1426   -1.0914    1.0590 C   0  0  0  0  0  0  0  0  0  0  0  0
    0.3122   -1.4788    2.2131 O   0  0  0  0  0  0  0  0  0  0  0  0
    0.9460   -1.4494    0.0506 N   0  0  0  0  0  0  0  0  0  0  0  0
    0.7319   -1.1015   -0.8695 H   0  0  0  0  0  0  0  0  0  0  0  0
    2.1059   -2.3264    0.2033 C   0  0  0  0  0  0  0  0  0  0  0  0
    1.7992   -3.2664    0.6672 H   0  0  0  0  0  0  0  0  0  0  0  0
    2.5551   -2.5345   -0.7689 H   0  0  0  0  0  0  0  0  0  0  0  0
    2.8458   -1.8477    0.8482 H   0  0  0  0  0  0  0  0  0  0  0  0
  5  6  2  0  0  0  0
  5  7  1  0  0  0  0
  2  3  1  0  0  0  0
  2  4  1  0  0  0  0
  2  5  1  0  0  0  0
  1  2  1  0  0  0  0
 26 27  2  0  0  0  0
 26 28  1  0  0  0  0
 23 24  1  0  0  0  0
 23 25  1  0  0  0  0
 20 21  1  0  0  0  0
 20 22  1  0  0  0  0
 20 23  1  0  0  0  0
 17 18  1  0  0  0  0
 17 19  1  0  0  0  0
 17 20  1  0  0  0  0
 14 15  1  0  0  0  0
 14 16  1  0  0  0  0
 14 17  1  0  0  0  0
 11 12  1  0  0  0  0
 11 13  1  0  0  0  0
 11 14  1  0  0  0  0
  9 10  1  0  0  0  0
  9 11  1  0  0  0  0
  9 26  1  0  0  0  0
  7  8  1  0  0  0  0
  7  9  1  0  0  0  0
 30 31  1  0  0  0  0
 30 32  1  0  0  0  0
 30 33  1  0  0  0  0
 28 29  1  0  0  0  0
 28 30  1  0  0  0  0
M  END
$$$$
default_name
  -OEChem-01062215323D

 33 32  0     1  0  0  0  0  0999 V2000
   -3.8420   -3.6918    1.5562 H   0  0  0  0  0  0  0  0  0  0  0  0
   -3.8430   -2.7008    1.1032 C   0  0  0  0  0  0  0  0  0  0  0  0
   -4.5510   -2.0608    1.6242 H   0  0  0  0  0  0  0  0  0  0  0  0
   -4.1140   -2.7798    0.0522 H   0  0  0  0  0  0  0  0  0  0  0  0
   -2.4570   -2.1098    1.2172 C   0  0  0  0  0  0  0  0  0  0  0  0
   -1.5600   -2.7438    1.7572 O   0  0  0  0  0  0  0  0  0  0  0  0
   -2.2870   -0.8898    0.7102 N   0  0  0  0  0  0  0  0  0  0  0  0
   -3.0820   -0.4218    0.2992 H   0  0  0  0  0  0  0  0  0  0  0  0
   -1.0240   -0.1468    0.7262 C   0  0  1  0  0  0  0  0  0  0  0  0
   -0.8552    0.2718   -0.2669 H   0  0  0  0  0  0  0  0  0  0  0  0
   -1.1440    1.0114    1.7357 C   0  0  0  0  0  0  0  0  0  0  0  0
   -1.4856    0.6058    2.6902 H   0  0  0  0  0  0  0  0  0  0  0  0
   -0.1609    1.4589    1.8883 H   0  0  0  0  0  0  0  0  0  0  0  0
   -2.1340    2.1013    1.2960 C   0  0  0  0  0  0  0  0  0  0  0  0
   -1.8214    2.5141    0.3364 H   0  0  0  0  0  0  0  0  0  0  0  0
   -3.1275    1.6620    1.1896 H   0  0  0  0  0  0  0  0  0  0  0  0
   -2.1920    3.2356    2.3255 C   0  0  0  0  0  0  0  0  0  0  0  0
   -2.4961    2.8366    3.2936 H   0  0  0  0  0  0  0  0  0  0  0  0
   -1.2068    3.6935    2.4179 H   0  0  0  0  0  0  0  0  0  0  0  0
   -3.2001    4.2918    1.8768 C   0  0  0  0  0  0  0  0  0  0  0  0
   -2.8886    4.7049    0.9188 H   0  0  0  0  0  0  0  0  0  0  0  0
   -4.1811    3.8324    1.7668 H   0  0  0  0  0  0  0  0  0  0  0  0
   -3.2982    5.3828    2.8532 N   0  0  0  0  0  0  0  0  0  0  0  0
   -3.9607    6.0672    2.5189 H   0  0  0  0  0  0  0  0  0  0  0  0
   -3.6178    5.0097    3.7358 H   0  0  0  0  0  0  0  0  0  0  0  0
    0.1426   -1.0914    1.0590 C   0  0  0  0  0  0  0  0  0  0  0  0
    0.1605   -1.6957    2.1292 O   0  0  0  0  0  0  0  0  0  0  0  0
    1.1149   -1.2070    0.1470 N   0  0  0  0  0  0  0  0  0  0  0  0
    1.0200   -0.6902   -0.7118 H   0  0  0  0  0  0  0  0  0  0  0  0
    2.2976   -2.0495    0.3173 C   0  0  0  0  0  0  0  0  0  0  0  0
    1.9918   -3.0751    0.5354 H   0  0  0  0  0  0  0  0  0  0  0  0
    2.9044   -2.0398   -0.5892 H   0  0  0  0  0  0  0  0  0  0  0  0
    2.8934   -1.6808    1.1549 H   0  0  0  0  0  0  0  0  0  0  0  0
  5  6  2  0  0  0  0
  5  7  1  0  0  0  0
  2  3  1  0  0  0  0
  2  4  1  0  0  0  0
  2  5  1  0  0  0  0
  1  2  1  0  0  0  0
 26 27  2  0  0  0  0
 26 28  1  0  0  0  0
 23 24  1  0  0  0  0
 23 25  1  0  0  0  0
 20 21  1  0  0  0  0
 20 22  1  0  0  0  0
 20 23  1  0  0  0  0
 17 18  1  0  0  0  0
 17 19  1  0  0  0  0
 17 20  1  0  0  0  0
 14 15  1  0  0  0  0
 14 16  1  0  0  0  0
 14 17  1  0  0  0  0
 11 12  1  0  0  0  0
 11 13  1  0  0  0  0
 11 14  1  0  0  0  0
  9 10  1  0  0  0  0
  9 11  1  0  0  0  0
  9 26  1  0  0  0  0
  7  8  1  0  0  0  0
  7  9  1  0  0  0  0
 30 31  1  0  0  0  0
 30 32  1  0  0  0  0
 30 33  1  0  0  0  0
 28 29  1  0  0  0  0
 28 30  1  0  0  0  0
M  END
$$$$
default_name
  -OEChem-01062215323D

 33 32  0     1  0  0  0  0  0999 V2000
   -3.8420   -3.6918    1.5562 H   0  0  0  0  0  0  0  0  0  0  0  0
   -3.8430   -2.7008    1.1032 C   0  0  0  0  0  0  0  0  0  0  0  0
   -4.5510   -2.0608    1.6242 H   0  0  0  0  0  0  0  0  0  0  0  0
   -4.1140   -2.7798    0.0522 H   0  0  0  0  0  0  0  0  0  0  0  0
   -2.4570   -2.1098    1.2172 C   0  0  0  0  0  0  0  0  0  0  0  0
   -1.5600   -2.7438    1.7572 O   0  0  0  0  0  0  0  0  0  0  0  0
   -2.2870   -0.8898    0.7102 N   0  0  0  0  0  0  0  0  0  0  0  0
   -3.0820   -0.4218    0.2992 H   0  0  0  0  0  0  0  0  0  0  0  0
   -1.0240   -0.1468    0.7262 C   0  0  1  0  0  0  0  0  0  0  0  0
   -0.8552    0.2718   -0.2669 H   0  0  0  0  0  0  0  0  0  0  0  0
   -1.1440    1.0114    1.7357 C   0  0  0  0  0  0  0  0  0  0  0  0
   -1.4856    0.6058    2.6902 H   0  0  0  0  0  0  0  0  0  0  0  0
   -0.1609    1.4589    1.8883 H   0  0  0  0  0  0  0  0  0  0  0  0
   -2.1340    2.1013    1.2960 C   0  0  0  0  0  0  0  0  0  0  0  0
   -1.8214    2.5141    0.3364 H   0  0  0  0  0  0  0  0  0  0  0  0
   -3.1275    1.6620    1.1896 H   0  0  0  0  0  0  0  0  0  0  0  0
   -2.1920    3.2356    2.3255 C   0  0  0  0  0  0  0  0  0  0  0  0
   -2.4961    2.8366    3.2936 H   0  0  0  0  0  0  0  0  0  0  0  0
   -1.2068    3.6935    2.4179 H   0  0  0  0  0  0  0  0  0  0  0  0
   -3.2001    4.2918    1.8768 C   0  0  0  0  0  0  0  0  0  0  0  0
   -2.8886    4.7049    0.9188 H   0  0  0  0  0  0  0  0  0  0  0  0
   -4.1811    3.8324    1.7668 H   0  0  0  0  0  0  0  0  0  0  0  0
   -3.2982    5.3828    2.8532 N   0  0  0  0  0  0  0  0  0  0  0  0
   -3.9607    6.0672    2.5189 H   0  0  0  0  0  0  0  0  0  0  0  0
   -3.6178    5.0097    3.7358 H   0  0  0  0  0  0  0  0  0  0  0  0
    0.1426   -1.0914    1.0590 C   0  0  0  0  0  0  0  0  0  0  0  0
    0.0395   -1.8971    1.9815 O   0  0  0  0  0  0  0  0  0  0  0  0
    1.2490   -0.9823    0.3145 N   0  0  0  0  0  0  0  0  0  0  0  0
    1.2501   -0.3077   -0.4329 H   0  0  0  0  0  0  0  0  0  0  0  0
    2.4491   -1.7937    0.5123 C   0  0  0  0  0  0  0  0  0  0  0  0
    2.1880   -2.8537    0.4762 H   0  0  0  0  0  0  0  0  0  0  0  0
    3.1855   -1.5777   -0.2630 H   0  0  0  0  0  0  0  0  0  0  0  0
    2.8813   -1.5772    1.4915 H   0  0  0  0  0  0  0  0  0  0  0  0
  5  6  2  0  0  0  0
  5  7  1  0  0  0  0
  2  3  1  0  0  0  0
  2  4  1  0  0  0  0
  2  5  1  0  0  0  0
  1  2  1  0  0  0  0
 26 27  2  0  0  0  0
 26 28  1  0  0  0  0
 23 24  1  0  0  0  0
 23 25  1  0  0  0  0
 20 21  1  0  0  0  0
 20 22  1  0  0  0  0
 20 23  1  0  0  0  0
 17 18  1  0  0  0  0
 17 19  1  0  0  0  0
 17 20  1  0  0  0  0
 14 15  1  0  0  0  0
 14 16  1  0  0  0  0
 14 17  1  0  0  0  0
 11 12  1  0  0  0  0
 11 13  1  0  0  0  0
 11 14  1  0  0  0  0
  9 10  1  0  0  0  0
  9 11  1  0  0  0  0
  9 26  1  0  0  0  0
  7  8  1  0  0  0  0
  7  9  1  0  0  0  0
 30 31  1  0  0  0  0
 30 32  1  0  0  0  0
 30 33  1  0  0  0  0
 28 29  1  0  0  0  0
 28 30  1  0  0  0  0
M  END
$$$$
default_name
  -OEChem-01062215323D

 33 32  0     1  0  0  0  0  0999 V2000
   -3.8420   -3.6918    1.5562 H   0  0  0  0  0  0  0  0  0  0  0  0
   -3.8430   -2.7008    1.1032 C   0  0  0  0  0  0  0  0  0  0  0  0
   -4.5510   -2.0608    1.6242 H   0  0  0  0  0  0  0  0  0  0  0  0
   -4.1140   -2.7798    0.0522 H   0  0  0  0  0  0  0  0  0  0  0  0
   -2.4570   -2.1098    1.2172 C   0  0  0  0  0  0  0  0  0  0  0  0
   -1.5600   -2.7438    1.7572 O   0  0  0  0  0  0  0  0  0  0  0  0
   -2.2870   -0.8898    0.7102 N   0  0  0  0  0  0  0  0  0  0  0  0
   -3.0820   -0.4218    0.2992 H   0  0  0  0  0  0  0  0  0  0  0  0
   -1.0240   -0.1468    0.7262 C   0  0  1  0  0  0  0  0  0  0  0  0
   -0.8552    0.2718   -0.2669 H   0  0  0  0  0  0  0  0  0  0  0  0
   -1.1440    1.0114    1.7357 C   0  0  0  0  0  0  0  0  0  0  0  0
   -1.4856    0.6058    2.6902 H   0  0  0  0  0  0  0  0  0  0  0  0
   -0.1609    1.4589    1.8883 H   0  0  0  0  0  0  0  0  0  0  0  0
   -2.1340    2.1013    1.2960 C   0  0  0  0  0  0  0  0  0  0  0  0
   -1.8214    2.5141    0.3364 H   0  0  0  0  0  0  0  0  0  0  0  0
   -3.1275    1.6620    1.1896 H   0  0  0  0  0  0  0  0  0  0  0  0
   -2.1920    3.2356    2.3255 C   0  0  0  0  0  0  0  0  0  0  0  0
   -2.4961    2.8366    3.2936 H   0  0  0  0  0  0  0  0  0  0  0  0
   -1.2068    3.6935    2.4179 H   0  0  0  0  0  0  0  0  0  0  0  0
   -3.2001    4.2918    1.8768 C   0  0  0  0  0  0  0  0  0  0  0  0
   -2.8886    4.7049    0.9188 H   0  0  0  0  0  0  0  0  0  0  0  0
   -4.1811    3.8324    1.7668 H   0  0  0  0  0  0  0  0  0  0  0  0
   -3.2982    5.3828    2.8532 N   0  0  0  0  0  0  0  0  0  0  0  0
   -3.9607    6.0672    2.5189 H   0  0  0  0  0  0  0  0  0  0  0  0
   -3.6178    5.0097    3.7358 H   0  0  0  0  0  0  0  0  0  0  0  0
    0.1426   -1.0914    1.0590 C   0  0  0  0  0  0  0  0  0  0  0  0
   -0.0426   -2.0695    1.7800 O   0  0  0  0  0  0  0  0  0  0  0  0
    1.3394   -0.7906    0.5417 N   0  0  0  0  0  0  0  0  0  0  0  0
    1.4066    0.0198   -0.0518 H   0  0  0  0  0  0  0  0  0  0  0  0
    2.5501   -1.5765    0.7750 C   0  0  0  0  0  0  0  0  0  0  0  0
    2.3745   -2.6171    0.4938 H   0  0  0  0  0  0  0  0  0  0  0  0
    3.3793   -1.1797    0.1875 H   0  0  0  0  0  0  0  0  0  0  0  0
    2.8102   -1.5439    1.8351 H   0  0  0  0  0  0  0  0  0  0  0  0
  5  6  2  0  0  0  0
  5  7  1  0  0  0  0
  2  3  1  0  0  0  0
  2  4  1  0  0  0  0
  2  5  1  0  0  0  0
  1  2  1  0  0  0  0
 26 27  2  0  0  0  0
 26 28  1  0  0  0  0
 23 24  1  0  0  0  0
 23 25  1  0  0  0  0
 20 21  1  0  0  0  0
 20 22  1  0  0  0  0
 20 23  1  0  0  0  0
 17 18  1  0  0  0  0
 17 19  1  0  0  0  0
 17 20  1  0  0  0  0
 14 15  1  0  0  0  0
 14 16  1  0  0  0  0
 14 17  1  0  0  0  0
 11 12  1  0  0  0  0
 11 13  1  0  0  0  0
 11 14  1  0  0  0  0
  9 10  1  0  0  0  0
  9 11  1  0  0  0  0
  9 26  1  0  0  0  0
  7  8  1  0  0  0  0
  7  9  1  0  0  0  0
 30 31  1  0  0  0  0
 30 32  1  0  0  0  0
 30 33  1  0  0  0  0
 28 29  1  0  0  0  0
 28 30  1  0  0  0  0
M  END
$$$$
default_name
  -OEChem-01062215323D

 33 32  0     1  0  0  0  0  0999 V2000
   -3.8420   -3.6918    1.5562 H   0  0  0  0  0  0  0  0  0  0  0  0
   -3.8430   -2.7008    1.1032 C   0  0  0  0  0  0  0  0  0  0  0  0
   -4.5510   -2.0608    1.6242 H   0  0  0  0  0  0  0  0  0  0  0  0
   -4.1140   -2.7798    0.0522 H   0  0  0  0  0  0  0  0  0  0  0  0
   -2.4570   -2.1098    1.2172 C   0  0  0  0  0  0  0  0  0  0  0  0
   -1.5600   -2.7438    1.7572 O   0  0  0  0  0  0  0  0  0  0  0  0
   -2.2870   -0.8898    0.7102 N   0  0  0  0  0  0  0  0  0  0  0  0
   -3.0820   -0.4218    0.2992 H   0  0  0  0  0  0  0  0  0  0  0  0
   -1.0240   -0.1468    0.7262 C   0  0  1  0  0  0  0  0  0  0  0  0
   -0.8552    0.2718   -0.2669 H   0  0  0  0  0  0  0  0  0  0  0  0
   -1.1440    1.0114    1.7357 C   0  0  0  0  0  0  0  0  0  0  0  0
   -1.4856    0.6058    2.6902 H   0  0  0  0  0  0  0  0  0  0  0  0
   -0.1609    1.4589    1.8883 H   0  0  0  0  0  0  0  0  0  0  0  0
   -2.1340    2.1013    1.2960 C   0  0  0  0  0  0  0  0  0  0  0  0
   -1.8214    2.5141    0.3364 H   0  0  0  0  0  0  0  0  0  0  0  0
   -3.1275    1.6620    1.1896 H   0  0  0  0  0  0  0  0  0  0  0  0
   -2.1920    3.2356    2.3255 C   0  0  0  0  0  0  0  0  0  0  0  0
   -2.4961    2.8366    3.2936 H   0  0  0  0  0  0  0  0  0  0  0  0
   -1.2068    3.6935    2.4179 H   0  0  0  0  0  0  0  0  0  0  0  0
   -3.2001    4.2918    1.8768 C   0  0  0  0  0  0  0  0  0  0  0  0
   -2.8886    4.7049    0.9188 H   0  0  0  0  0  0  0  0  0  0  0  0
   -4.1811    3.8324    1.7668 H   0  0  0  0  0  0  0  0  0  0  0  0
   -3.2982    5.3828    2.8532 N   0  0  0  0  0  0  0  0  0  0  0  0
   -3.9607    6.0672    2.5189 H   0  0  0  0  0  0  0  0  0  0  0  0
   -3.6178    5.0097    3.7358 H   0  0  0  0  0  0  0  0  0  0  0  0
    0.1426   -1.0914    1.0590 C   0  0  0  0  0  0  0  0  0  0  0  0
   -0.0802   -2.2011    1.5384 O   0  0  0  0  0  0  0  0  0  0  0  0
    1.3798   -0.6451    0.8132 N   0  0  0  0  0  0  0  0  0  0  0  0
    1.4789    0.2702    0.4056 H   0  0  0  0  0  0  0  0  0  0  0  0
    2.5938   -1.4125    1.0875 C   0  0  0  0  0  0  0  0  0  0  0  0
    2.5386   -2.3816    0.5868 H   0  0  0  0  0  0  0  0  0  0  0  0
    3.4726   -0.8729    0.7317 H   0  0  0  0  0  0  0  0  0  0  0  0
    2.6851   -1.5832    2.1622 H   0  0  0  0  0  0  0  0  0  0  0  0
  5  6  2  0  0  0  0
  5  7  1  0  0  0  0
  2  3  1  0  0  0  0
  2  4  1  0  0  0  0
  2  5  1  0  0  0  0
  1  2  1  0  0  0  0
 26 27  2  0  0  0  0
 26 28  1  0  0  0  0
 23 24  1  0  0  0  0
 23 25  1  0  0  0  0
 20 21  1  0  0  0  0
 20 22  1  0  0  0  0
 20 23  1  0  0  0  0
 17 18  1  0  0  0  0
 17 19  1  0  0  0  0
 17 20  1  0  0  0  0
 14 15  1  0  0  0  0
 14 16  1  0  0  0  0
 14 17  1  0  0  0  0
 11 12  1  0  0  0  0
 11 13  1  0  0  0  0
 11 14  1  0  0  0  0
  9 10  1  0  0  0  0
  9 11  1  0  0  0  0
  9 26  1  0  0  0  0
  7  8  1  0  0  0  0
  7  9  1  0  0  0  0
 30 31  1  0  0  0  0
 30 32  1  0  0  0  0
 30 33  1  0  0  0  0
 28 29  1  0  0  0  0
 28 30  1  0  0  0  0
M  END
$$$$
default_name
  -OEChem-01062215323D

 33 32  0     1  0  0  0  0  0999 V2000
   -3.8420   -3.6918    1.5562 H   0  0  0  0  0  0  0  0  0  0  0  0
   -3.8430   -2.7008    1.1032 C   0  0  0  0  0  0  0  0  0  0  0  0
   -4.5510   -2.0608    1.6242 H   0  0  0  0  0  0  0  0  0  0  0  0
   -4.1140   -2.7798    0.0522 H   0  0  0  0  0  0  0  0  0  0  0  0
   -2.4570   -2.1098    1.2172 C   0  0  0  0  0  0  0  0  0  0  0  0
   -1.5600   -2.7438    1.7572 O   0  0  0  0  0  0  0  0  0  0  0  0
   -2.2870   -0.8898    0.7102 N   0  0  0  0  0  0  0  0  0  0  0  0
   -3.0820   -0.4218    0.2992 H   0  0  0  0  0  0  0  0  0  0  0  0
   -1.0240   -0.1468    0.7262 C   0  0  1  0  0  0  0  0  0  0  0  0
   -0.9823    0.4855   -0.1618 H   0  0  0  0  0  0  0  0  0  0  0  0
   -0.9962    0.7549    1.9756 C   0  0  0  0  0  0  0  0  0  0  0  0
   -1.2142    0.1408    2.8518 H   0  0  0  0  0  0  0  0  0  0  0  0
    0.0038    1.1745    2.0942 H   0  0  0  0  0  0  0  0  0  0  0  0
   -2.0222    1.8977    1.9238 C   0  0  0  0  0  0  0  0  0  0  0  0
   -1.8336    2.5195    1.0482 H   0  0  0  0  0  0  0  0  0  0  0  0
   -3.0263    1.4757    1.8530 H   0  0  0  0  0  0  0  0  0  0  0  0
   -1.9306    2.7728    3.1790 C   0  0  0  0  0  0  0  0  0  0  0  0
   -2.1094    2.1628    4.0649 H   0  0  0  0  0  0  0  0  0  0  0  0
   -0.9363    3.2160    3.2415 H   0  0  0  0  0  0  0  0  0  0  0  0
   -2.9762    3.8844    3.1134 C   0  0  0  0  0  0  0  0  0  0  0  0
   -2.7884    4.5062    2.2395 H   0  0  0  0  0  0  0  0  0  0  0  0
   -3.9685    3.4438    3.0330 H   0  0  0  0  0  0  0  0  0  0  0  0
   -2.9318    4.7284    4.3130 N   0  0  0  0  0  0  0  0  0  0  0  0
   -3.6241    5.4583    4.2295 H   0  0  0  0  0  0  0  0  0  0  0  0
   -3.1370    4.1625    5.1241 H   0  0  0  0  0  0  0  0  0  0  0  0
    0.1647   -1.1210    0.6840 C   0  0  0  0  0  0  0  0  0  0  0  0
   -0.0329   -2.3338    0.6530 O   0  0  0  0  0  0  0  0  0  0  0  0
    1.3922   -0.5884    0.6931 N   0  0  0  0  0  0  0  0  0  0  0  0
    1.4710    0.4152    0.7042 H   0  0  0  0  0  0  0  0  0  0  0  0
    2.6238   -1.3763    0.6728 C   0  0  0  0  0  0  0  0  0  0  0  0
    2.6155   -2.0519   -0.1854 H   0  0  0  0  0  0  0  0  0  0  0  0
    3.4930   -0.7204    0.6063 H   0  0  0  0  0  0  0  0  0  0  0  0
    2.6917   -1.9749    1.5835 H   0  0  0  0  0  0  0  0  0  0  0  0
  5  6  2  0  0  0  0
  5  7  1  0  0  0  0
  2  3  1  0  0  0  0
  2  4  1  0  0  0  0
  2  5  1  0  0  0  0
  1  2  1  0  0  0  0
 26 27  2  0  0  0  0
 26 28  1  0  0  0  0
 23 24  1  0  0  0  0
 23 25  1  0  0  0  0
 20 21  1  0  0  0  0
 20 22  1  0  0  0  0
 20 23  1  0  0  0  0
 17 18  1  0  0  0  0
 17 19  1  0  0  0  0
 17 20  1  0  0  0  0
 14 15  1  0  0  0  0
 14 16  1  0  0  0  0
 14 17  1  0  0  0  0
 11 12  1  0  0  0  0
 11 13  1  0  0  0  0
 11 14  1  0  0  0  0
  9 10  1  0  0  0  0
  9 11  1  0  0  0  0
  9 26  1  0  0  0  0
  7  8  1  0  0  0  0
  7  9  1  0  0  0  0
 30 31  1  0  0  0  0
 30 32  1  0  0  0  0
 30 33  1  0  0  0  0
 28 29  1  0  0  0  0
 28 30  1  0  0  0  0
M  END
$$$$
default_name
  -OEChem-01062215323D

 33 32  0     1  0  0  0  0  0999 V2000
   -3.8420   -3.6918    1.5562 H   0  0  0  0  0  0  0  0  0  0  0  0
   -3.8430   -2.7008    1.1032 C   0  0  0  0  0  0  0  0  0  0  0  0
   -4.5510   -2.0608    1.6242 H   0  0  0  0  0  0  0  0  0  0  0  0
   -4.1140   -2.7798    0.0522 H   0  0  0  0  0  0  0  0  0  0  0  0
   -2.4570   -2.1098    1.2172 C   0  0  0  0  0  0  0  0  0  0  0  0
   -1.5600   -2.7438    1.7572 O   0  0  0  0  0  0  0  0  0  0  0  0
   -2.2870   -0.8898    0.7102 N   0  0  0  0  0  0  0  0  0  0  0  0
   -3.0820   -0.4218    0.2992 H   0  0  0  0  0  0  0  0  0  0  0  0
   -1.0240   -0.1468    0.7262 C   0  0  1  0  0  0  0  0  0  0  0  0
   -0.9823    0.4855   -0.1618 H   0  0  0  0  0  0  0  0  0  0  0  0
   -0.9962    0.7549    1.9756 C   0  0  0  0  0  0  0  0  0  0  0  0
   -1.2142    0.1408    2.8518 H   0  0  0  0  0  0  0  0  0  0  0  0
    0.0038    1.1745    2.0942 H   0  0  0  0  0  0  0  0  0  0  0  0
   -2.0222    1.8977    1.9238 C   0  0  0  0  0  0  0  0  0  0  0  0
   -1.8336    2.5195    1.0482 H   0  0  0  0  0  0  0  0  0  0  0  0
   -3.0263    1.4757    1.8530 H   0  0  0  0  0  0  0  0  0  0  0  0
   -1.9306    2.7728    3.1790 C   0  0  0  0  0  0  0  0  0  0  0  0
   -2.1094    2.1628    4.0649 H   0  0  0  0  0  0  0  0  0  0  0  0
   -0.9363    3.2160    3.2415 H   0  0  0  0  0  0  0  0  0  0  0  0
   -2.9762    3.8844    3.1134 C   0  0  0  0  0  0  0  0  0  0  0  0
   -2.7884    4.5062    2.2395 H   0  0  0  0  0  0  0  0  0  0  0  0
   -3.9685    3.4438    3.0330 H   0  0  0  0  0  0  0  0  0  0  0  0
   -2.9318    4.7284    4.3130 N   0  0  0  0  0  0  0  0  0  0  0  0
   -3.6241    5.4583    4.2295 H   0  0  0  0  0  0  0  0  0  0  0  0
   -3.1370    4.1625    5.1241 H   0  0  0  0  0  0  0  0  0  0  0  0
    0.1647   -1.1210    0.6840 C   0  0  0  0  0  0  0  0  0  0  0  0
   -0.0135   -2.2982    0.3784 O   0  0  0  0  0  0  0  0  0  0  0  0
    1.3688   -0.6303    1.0001 N   0  0  0  0  0  0  0  0  0  0  0  0
    1.4350    0.3488    1.2251 H   0  0  0  0  0  0  0  0  0  0  0  0
    2.5944   -1.4273    1.0234 C   0  0  0  0  0  0  0  0  0  0  0  0
    2.7341   -1.9178    0.0575 H   0  0  0  0  0  0  0  0  0  0  0  0
    3.4563   -0.7922    1.2327 H   0  0  0  0  0  0  0  0  0  0  0  0
    2.5170   -2.1971    1.7941 H   0  0  0  0  0  0  0  0  0  0  0  0
  5  6  2  0  0  0  0
  5  7  1  0  0  0  0
  2  3  1  0  0  0  0
  2  4  1  0  0  0  0
  2  5  1  0  0  0  0
  1  2  1  0  0  0  0
 26 27  2  0  0  0  0
 26 28  1  0  0  0  0
 23 24  1  0  0  0  0
 23 25  1  0  0  0  0
 20 21  1  0  0  0  0
 20 22  1  0  0  0  0
 20 23  1  0  0  0  0
 17 18  1  0  0  0  0
 17 19  1  0  0  0  0
 17 20  1  0  0  0  0
 14 15  1  0  0  0  0
 14 16  1  0  0  0  0
 14 17  1  0  0  0  0
 11 12  1  0  0  0  0
 11 13  1  0  0  0  0
 11 14  1  0  0  0  0
  9 10  1  0  0  0  0
  9 11  1  0  0  0  0
  9 26  1  0  0  0  0
  7  8  1  0  0  0  0
  7  9  1  0  0  0  0
 30 31  1  0  0  0  0
 30 32  1  0  0  0  0
 30 33  1  0  0  0  0
 28 29  1  0  0  0  0
 28 30  1  0  0  0  0
M  END
$$$$
default_name
  -OEChem-01062215323D

 33 32  0     1  0  0  0  0  0999 V2000
   -3.8420   -3.6918    1.5562 H   0  0  0  0  0  0  0  0  0  0  0  0
   -3.8430   -2.7008    1.1032 C   0  0  0  0  0  0  0  0  0  0  0  0
   -4.5510   -2.0608    1.6242 H   0  0  0  0  0  0  0  0  0  0  0  0
   -4.1140   -2.7798    0.0522 H   0  0  0  0  0  0  0  0  0  0  0  0
   -2.4570   -2.1098    1.2172 C   0  0  0  0  0  0  0  0  0  0  0  0
   -1.5600   -2.7438    1.7572 O   0  0  0  0  0  0  0  0  0  0  0  0
   -2.2870   -0.8898    0.7102 N   0  0  0  0  0  0  0  0  0  0  0  0
   -3.0820   -0.4218    0.2992 H   0  0  0  0  0  0  0  0  0  0  0  0
   -1.0240   -0.1468    0.7262 C   0  0  1  0  0  0  0  0  0  0  0  0
   -0.9823    0.4855   -0.1618 H   0  0  0  0  0  0  0  0  0  0  0  0
   -0.9962    0.7549    1.9756 C   0  0  0  0  0  0  0  0  0  0  0  0
   -1.2142    0.1408    2.8518 H   0  0  0  0  0  0  0  0  0  0  0  0
    0.0038    1.1745    2.0942 H   0  0  0  0  0  0  0  0  0  0  0  0
   -2.0222    1.8977    1.9238 C   0  0  0  0  0  0  0  0  0  0  0  0
   -1.8336    2.5195    1.0482 H   0  0  0  0  0  0  0  0  0  0  0  0
   -3.0263    1.4757    1.8530 H   0  0  0  0  0  0  0  0  0  0  0  0
   -1.9306    2.7728    3.1790 C   0  0  0  0  0  0  0  0  0  0  0  0
   -2.1094    2.1628    4.0649 H   0  0  0  0  0  0  0  0  0  0  0  0
   -0.9363    3.2160    3.2415 H   0  0  0  0  0  0  0  0  0  0  0  0
   -2.9762    3.8844    3.1134 C   0  0  0  0  0  0  0  0  0  0  0  0
   -2.7884    4.5062    2.2395 H   0  0  0  0  0  0  0  0  0  0  0  0
   -3.9685    3.4438    3.0330 H   0  0  0  0  0  0  0  0  0  0  0  0
   -2.9318    4.7284    4.3130 N   0  0  0  0  0  0  0  0  0  0  0  0
   -3.6241    5.4583    4.2295 H   0  0  0  0  0  0  0  0  0  0  0  0
   -3.1370    4.1625    5.1241 H   0  0  0  0  0  0  0  0  0  0  0  0
    0.1647   -1.1210    0.6840 C   0  0  0  0  0  0  0  0  0  0  0  0
    0.0506   -2.2089    0.1234 O   0  0  0  0  0  0  0  0  0  0  0  0
    1.2955   -0.7320    1.2844 N   0  0  0  0  0  0  0  0  0  0  0  0
    1.3144    0.1806    1.7091 H   0  0  0  0  0  0  0  0  0  0  0  0
    2.5081   -1.5466    1.3471 C   0  0  0  0  0  0  0  0  0  0  0  0
    2.8097   -1.8377    0.3385 H   0  0  0  0  0  0  0  0  0  0  0  0
    3.3177   -0.9867    1.8174 H   0  0  0  0  0  0  0  0  0  0  0  0
    2.3123   -2.4526    1.9244 H   0  0  0  0  0  0  0  0  0  0  0  0
  5  6  2  0  0  0  0
  5  7  1  0  0  0  0
  2  3  1  0  0  0  0
  2  4  1  0  0  0  0
  2  5  1  0  0  0  0
  1  2  1  0  0  0  0
 26 27  2  0  0  0  0
 26 28  1  0  0  0  0
 23 24  1  0  0  0  0
 23 25  1  0  0  0  0
 20 21  1  0  0  0  0
 20 22  1  0  0  0  0
 20 23  1  0  0  0  0
 17 18  1  0  0  0  0
 17 19  1  0  0  0  0
 17 20  1  0  0  0  0
 14 15  1  0  0  0  0
 14 16  1  0  0  0  0
 14 17  1  0  0  0  0
 11 12  1  0  0  0  0
 11 13  1  0  0  0  0
 11 14  1  0  0  0  0
  9 10  1  0  0  0  0
  9 11  1  0  0  0  0
  9 26  1  0  0  0  0
  7  8  1  0  0  0  0
  7  9  1  0  0  0  0
 30 31  1  0  0  0  0
 30 32  1  0  0  0  0
 30 33  1  0  0  0  0
 28 29  1  0  0  0  0
 28 30  1  0  0  0  0
M  END
$$$$
default_name
  -OEChem-01062215323D

 33 32  0     1  0  0  0  0  0999 V2000
   -3.8420   -3.6918    1.5562 H   0  0  0  0  0  0  0  0  0  0  0  0
   -3.8430   -2.7008    1.1032 C   0  0  0  0  0  0  0  0  0  0  0  0
   -4.5510   -2.0608    1.6242 H   0  0  0  0  0  0  0  0  0  0  0  0
   -4.1140   -2.7798    0.0522 H   0  0  0  0  0  0  0  0  0  0  0  0
   -2.4570   -2.1098    1.2172 C   0  0  0  0  0  0  0  0  0  0  0  0
   -1.5600   -2.7438    1.7572 O   0  0  0  0  0  0  0  0  0  0  0  0
   -2.2870   -0.8898    0.7102 N   0  0  0  0  0  0  0  0  0  0  0  0
   -3.0820   -0.4218    0.2992 H   0  0  0  0  0  0  0  0  0  0  0  0
   -1.0240   -0.1468    0.7262 C   0  0  1  0  0  0  0  0  0  0  0  0
   -0.9823    0.4855   -0.1618 H   0  0  0  0  0  0  0  0  0  0  0  0
   -0.9962    0.7549    1.9756 C   0  0  0  0  0  0  0  0  0  0  0  0
   -1.2142    0.1408    2.8518 H   0  0  0  0  0  0  0  0  0  0  0  0
    0.0038    1.1745    2.0942 H   0  0  0  0  0  0  0  0  0  0  0  0
   -2.0222    1.8977    1.9238 C   0  0  0  0  0  0  0  0  0  0  0  0
   -1.8336    2.5195    1.0482 H   0  0  0  0  0  0  0  0  0  0  0  0
   -3.0263    1.4757    1.8530 H   0  0  0  0  0  0  0  0  0  0  0  0
   -1.9306    2.7728    3.1790 C   0  0  0  0  0  0  0  0  0  0  0  0
   -2.1094    2.1628    4.0649 H   0  0  0  0  0  0  0  0  0  0  0  0
   -0.9363    3.2160    3.2415 H   0  0  0  0  0  0  0  0  0  0  0  0
   -2.9762    3.8844    3.1134 C   0  0  0  0  0  0  0  0  0  0  0  0
   -2.7884    4.5062    2.2395 H   0  0  0  0  0  0  0  0  0  0  0  0
   -3.9685    3.4438    3.0330 H   0  0  0  0  0  0  0  0  0  0  0  0
   -2.9318    4.7284    4.3130 N   0  0  0  0  0  0  0  0  0  0  0  0
   -3.6241    5.4583    4.2295 H   0  0  0  0  0  0  0  0  0  0  0  0
   -3.1370    4.1625    5.1241 H   0  0  0  0  0  0  0  0  0  0  0  0
    0.1647   -1.1210    0.6840 C   0  0  0  0  0  0  0  0  0  0  0  0
    0.1549   -2.0722   -0.0945 O   0  0  0  0  0  0  0  0  0  0  0  0
    1.1774   -0.8867    1.5266 N   0  0  0  0  0  0  0  0  0  0  0  0
    1.1173   -0.0778    2.1231 H   0  0  0  0  0  0  0  0  0  0  0  0
    2.3708   -1.7260    1.6217 C   0  0  0  0  0  0  0  0  0  0  0  0
    2.8372   -1.8171    0.6382 H   0  0  0  0  0  0  0  0  0  0  0  0
    3.0865   -1.2906    2.3206 H   0  0  0  0  0  0  0  0  0  0  0  0
    2.0913   -2.7240    1.9656 H   0  0  0  0  0  0  0  0  0  0  0  0
  5  6  2  0  0  0  0
  5  7  1  0  0  0  0
  2  3  1  0  0  0  0
  2  4  1  0  0  0  0
  2  5  1  0  0  0  0
  1  2  1  0  0  0  0
 26 27  2  0  0  0  0
 26 28  1  0  0  0  0
 23 24  1  0  0  0  0
 23 25  1  0  0  0  0
 20 21  1  0  0  0  0
 20 22  1  0  0  0  0
 20 23  1  0  0  0  0
 17 18  1  0  0  0  0
 17 19  1  0  0  0  0
 17 20  1  0  0  0  0
 14 15  1  0  0  0  0
 14 16  1  0  0  0  0
 14 17  1  0  0  0  0
 11 12  1  0  0  0  0
 11 13  1  0  0  0  0
 11 14  1  0  0  0  0
  9 10  1  0  0  0  0
  9 11  1  0  0  0  0
  9 26  1  0  0  0  0
  7  8  1  0  0  0  0
  7  9  1  0  0  0  0
 30 31  1  0  0  0  0
 30 32  1  0  0  0  0
 30 33  1  0  0  0  0
 28 29  1  0  0  0  0
 28 30  1  0  0  0  0
M  END
$$$$
default_name
  -OEChem-01062215323D

 33 32  0     1  0  0  0  0  0999 V2000
   -3.8420   -3.6918    1.5562 H   0  0  0  0  0  0  0  0  0  0  0  0
   -3.8430   -2.7008    1.1032 C   0  0  0  0  0  0  0  0  0  0  0  0
   -4.5510   -2.0608    1.6242 H   0  0  0  0  0  0  0  0  0  0  0  0
   -4.1140   -2.7798    0.0522 H   0  0  0  0  0  0  0  0  0  0  0  0
   -2.4570   -2.1098    1.2172 C   0  0  0  0  0  0  0  0  0  0  0  0
   -1.5600   -2.7438    1.7572 O   0  0  0  0  0  0  0  0  0  0  0  0
   -2.2870   -0.8898    0.7102 N   0  0  0  0  0  0  0  0  0  0  0  0
   -3.0820   -0.4218    0.2992 H   0  0  0  0  0  0  0  0  0  0  0  0
   -1.0240   -0.1468    0.7262 C   0  0  1  0  0  0  0  0  0  0  0  0
   -0.9823    0.4855   -0.1618 H   0  0  0  0  0  0  0  0  0  0  0  0
   -0.9962    0.7549    1.9756 C   0  0  0  0  0  0  0  0  0  0  0  0
   -1.2142    0.1408    2.8518 H   0  0  0  0  0  0  0  0  0  0  0  0
    0.0038    1.1745    2.0942 H   0  0  0  0  0  0  0  0  0  0  0  0
   -2.0222    1.8977    1.9238 C   0  0  0  0  0  0  0  0  0  0  0  0
   -1.8336    2.5195    1.0482 H   0  0  0  0  0  0  0  0  0  0  0  0
   -3.0263    1.4757    1.8530 H   0  0  0  0  0  0  0  0  0  0  0  0
   -1.9306    2.7728    3.1790 C   0  0  0  0  0  0  0  0  0  0  0  0
   -2.1094    2.1628    4.0649 H   0  0  0  0  0  0  0  0  0  0  0  0
   -0.9363    3.2160    3.2415 H   0  0  0  0  0  0  0  0  0  0  0  0
   -2.9762    3.8844    3.1134 C   0  0  0  0  0  0  0  0  0  0  0  0
   -2.7884    4.5062    2.2395 H   0  0  0  0  0  0  0  0  0  0  0  0
   -3.9685    3.4438    3.0330 H   0  0  0  0  0  0  0  0  0  0  0  0
   -2.9318    4.7284    4.3130 N   0  0  0  0  0  0  0  0  0  0  0  0
   -3.6241    5.4583    4.2295 H   0  0  0  0  0  0  0  0  0  0  0  0
   -3.1370    4.1625    5.1241 H   0  0  0  0  0  0  0  0  0  0  0  0
    0.1647   -1.1210    0.6840 C   0  0  0  0  0  0  0  0  0  0  0  0
    0.2924   -1.8972   -0.2605 O   0  0  0  0  0  0  0  0  0  0  0  0
    1.0225   -1.0836    1.7103 N   0  0  0  0  0  0  0  0  0  0  0  0
    0.8572   -0.4089    2.4390 H   0  0  0  0  0  0  0  0  0  0  0  0
    2.1920   -1.9532    1.8285 C   0  0  0  0  0  0  0  0  0  0  0  0
    2.8148   -1.8573    0.9364 H   0  0  0  0  0  0  0  0  0  0  0  0
    2.7785   -1.6832    2.7079 H   0  0  0  0  0  0  0  0  0  0  0  0
    1.8692   -2.9928    1.9148 H   0  0  0  0  0  0  0  0  0  0  0  0
  5  6  2  0  0  0  0
  5  7  1  0  0  0  0
  2  3  1  0  0  0  0
  2  4  1  0  0  0  0
  2  5  1  0  0  0  0
  1  2  1  0  0  0  0
 26 27  2  0  0  0  0
 26 28  1  0  0  0  0
 23 24  1  0  0  0  0
 23 25  1  0  0  0  0
 20 21  1  0  0  0  0
 20 22  1  0  0  0  0
 20 23  1  0  0  0  0
 17 18  1  0  0  0  0
 17 19  1  0  0  0  0
 17 20  1  0  0  0  0
 14 15  1  0  0  0  0
 14 16  1  0  0  0  0
 14 17  1  0  0  0  0
 11 12  1  0  0  0  0
 11 13  1  0  0  0  0
 11 14  1  0  0  0  0
  9 10  1  0  0  0  0
  9 11  1  0  0  0  0
  9 26  1  0  0  0  0
  7  8  1  0  0  0  0
  7  9  1  0  0  0  0
 30 31  1  0  0  0  0
 30 32  1  0  0  0  0
 30 33  1  0  0  0  0
 28 29  1  0  0  0  0
 28 30  1  0  0  0  0
M  END
$$$$
default_name
  -OEChem-01062215323D

 33 32  0     1  0  0  0  0  0999 V2000
   -3.8420   -3.6918    1.5562 H   0  0  0  0  0  0  0  0  0  0  0  0
   -3.8430   -2.7008    1.1032 C   0  0  0  0  0  0  0  0  0  0  0  0
   -4.5510   -2.0608    1.6242 H   0  0  0  0  0  0  0  0  0  0  0  0
   -4.1140   -2.7798    0.0522 H   0  0  0  0  0  0  0  0  0  0  0  0
   -2.4570   -2.1098    1.2172 C   0  0  0  0  0  0  0  0  0  0  0  0
   -1.5600   -2.7438    1.7572 O   0  0  0  0  0  0  0  0  0  0  0  0
   -2.2870   -0.8898    0.7102 N   0  0  0  0  0  0  0  0  0  0  0  0
   -3.0820   -0.4218    0.2992 H   0  0  0  0  0  0  0  0  0  0  0  0
   -1.0240   -0.1468    0.7262 C   0  0  1  0  0  0  0  0  0  0  0  0
   -0.9823    0.4855   -0.1618 H   0  0  0  0  0  0  0  0  0  0  0  0
   -0.9962    0.7549    1.9756 C   0  0  0  0  0  0  0  0  0  0  0  0
   -1.2142    0.1408    2.8518 H   0  0  0  0  0  0  0  0  0  0  0  0
    0.0038    1.1745    2.0942 H   0  0  0  0  0  0  0  0  0  0  0  0
   -2.0222    1.8977    1.9238 C   0  0  0  0  0  0  0  0  0  0  0  0
   -1.8336    2.5195    1.0482 H   0  0  0  0  0  0  0  0  0  0  0  0
   -3.0263    1.4757    1.8530 H   0  0  0  0  0  0  0  0  0  0  0  0
   -1.9306    2.7728    3.1790 C   0  0  0  0  0  0  0  0  0  0  0  0
   -2.1094    2.1628    4.0649 H   0  0  0  0  0  0  0  0  0  0  0  0
   -0.9363    3.2160    3.2415 H   0  0  0  0  0  0  0  0  0  0  0  0
   -2.9762    3.8844    3.1134 C   0  0  0  0  0  0  0  0  0  0  0  0
   -2.7884    4.5062    2.2395 H   0  0  0  0  0  0  0  0  0  0  0  0
   -3.9685    3.4438    3.0330 H   0  0  0  0  0  0  0  0  0  0  0  0
   -2.9318    4.7284    4.3130 N   0  0  0  0  0  0  0  0  0  0  0  0
   -3.6241    5.4583    4.2295 H   0  0  0  0  0  0  0  0  0  0  0  0
   -3.1370    4.1625    5.1241 H   0  0  0  0  0  0  0  0  0  0  0  0
    0.1647   -1.1210    0.6840 C   0  0  0  0  0  0  0  0  0  0  0  0
    0.4537   -1.6960   -0.3633 O   0  0  0  0  0  0  0  0  0  0  0  0
    0.8413   -1.3096    1.8229 N   0  0  0  0  0  0  0  0  0  0  0  0
    0.5518   -0.7900    2.6352 H   0  0  0  0  0  0  0  0  0  0  0  0
    1.9836   -2.2128    1.9535 C   0  0  0  0  0  0  0  0  0  0  0  0
    2.7440   -1.9557    1.2128 H   0  0  0  0  0  0  0  0  0  0  0  0
    2.4147   -2.1377    2.9529 H   0  0  0  0  0  0  0  0  0  0  0  0
    1.6610   -3.2408    1.7755 H   0  0  0  0  0  0  0  0  0  0  0  0
  5  6  2  0  0  0  0
  5  7  1  0  0  0  0
  2  3  1  0  0  0  0
  2  4  1  0  0  0  0
  2  5  1  0  0  0  0
  1  2  1  0  0  0  0
 26 27  2  0  0  0  0
 26 28  1  0  0  0  0
 23 24  1  0  0  0  0
 23 25  1  0  0  0  0
 20 21  1  0  0  0  0
 20 22  1  0  0  0  0
 20 23  1  0  0  0  0
 17 18  1  0  0  0  0
 17 19  1  0  0  0  0
 17 20  1  0  0  0  0
 14 15  1  0  0  0  0
 14 16  1  0  0  0  0
 14 17  1  0  0  0  0
 11 12  1  0  0  0  0
 11 13  1  0  0  0  0
 11 14  1  0  0  0  0
  9 10  1  0  0  0  0
  9 11  1  0  0  0  0
  9 26  1  0  0  0  0
  7  8  1  0  0  0  0
  7  9  1  0  0  0  0
 30 31  1  0  0  0  0
 30 32  1  0  0  0  0
 30 33  1  0  0  0  0
 28 29  1  0  0  0  0
 28 30  1  0  0  0  0
M  END
$$$$
default_name
  -OEChem-01062215323D

 33 32  0     1  0  0  0  0  0999 V2000
   -3.8420   -3.6918    1.5562 H   0  0  0  0  0  0  0  0  0  0  0  0
   -3.8430   -2.7008    1.1032 C   0  0  0  0  0  0  0  0  0  0  0  0
   -4.5510   -2.0608    1.6242 H   0  0  0  0  0  0  0  0  0  0  0  0
   -4.1140   -2.7798    0.0522 H   0  0  0  0  0  0  0  0  0  0  0  0
   -2.4570   -2.1098    1.2172 C   0  0  0  0  0  0  0  0  0  0  0  0
   -1.5600   -2.7438    1.7572 O   0  0  0  0  0  0  0  0  0  0  0  0
   -2.2870   -0.8898    0.7102 N   0  0  0  0  0  0  0  0  0  0  0  0
   -3.0820   -0.4218    0.2992 H   0  0  0  0  0  0  0  0  0  0  0  0
   -1.0240   -0.1468    0.7262 C   0  0  1  0  0  0  0  0  0  0  0  0
   -0.9823    0.4855   -0.1618 H   0  0  0  0  0  0  0  0  0  0  0  0
   -0.9962    0.7549    1.9756 C   0  0  0  0  0  0  0  0  0  0  0  0
   -1.2142    0.1408    2.8518 H   0  0  0  0  0  0  0  0  0  0  0  0
    0.0038    1.1745    2.0942 H   0  0  0  0  0  0  0  0  0  0  0  0
   -2.0222    1.8977    1.9238 C   0  0  0  0  0  0  0  0  0  0  0  0
   -1.8336    2.5195    1.0482 H   0  0  0  0  0  0  0  0  0  0  0  0
   -3.0263    1.4757    1.8530 H   0  0  0  0  0  0  0  0  0  0  0  0
   -1.9306    2.7728    3.1790 C   0  0  0  0  0  0  0  0  0  0  0  0
   -2.1094    2.1628    4.0649 H   0  0  0  0  0  0  0  0  0  0  0  0
   -0.9363    3.2160    3.2415 H   0  0  0  0  0  0  0  0  0  0  0  0
   -2.9762    3.8844    3.1134 C   0  0  0  0  0  0  0  0  0  0  0  0
   -2.7884    4.5062    2.2395 H   0  0  0  0  0  0  0  0  0  0  0  0
   -3.9685    3.4438    3.0330 H   0  0  0  0  0  0  0  0  0  0  0  0
   -2.9318    4.7284    4.3130 N   0  0  0  0  0  0  0  0  0  0  0  0
   -3.6241    5.4583    4.2295 H   0  0  0  0  0  0  0  0  0  0  0  0
   -3.1370    4.1625    5.1241 H   0  0  0  0  0  0  0  0  0  0  0  0
    0.1647   -1.1210    0.6840 C   0  0  0  0  0  0  0  0  0  0  0  0
    0.6277   -1.4822   -0.3958 O   0  0  0  0  0  0  0  0  0  0  0  0
    0.6463   -1.5491    1.8567 N   0  0  0  0  0  0  0  0  0  0  0  0
    0.2219   -1.1953    2.6984 H   0  0  0  0  0  0  0  0  0  0  0  0
    1.7601   -2.4871    1.9881 C   0  0  0  0  0  0  0  0  0  0  0  0
    2.6295   -2.1056    1.4483 H   0  0  0  0  0  0  0  0  0  0  0  0
    2.0199   -2.6232    3.0389 H   0  0  0  0  0  0  0  0  0  0  0  0
    1.4810   -3.4509    1.5572 H   0  0  0  0  0  0  0  0  0  0  0  0
  5  6  2  0  0  0  0
  5  7  1  0  0  0  0
  2  3  1  0  0  0  0
  2  4  1  0  0  0  0
  2  5  1  0  0  0  0
  1  2  1  0  0  0  0
 26 27  2  0  0  0  0
 26 28  1  0  0  0  0
 23 24  1  0  0  0  0
 23 25  1  0  0  0  0
 20 21  1  0  0  0  0
 20 22  1  0  0  0  0
 20 23  1  0  0  0  0
 17 18  1  0  0  0  0
 17 19  1  0  0  0  0
 17 20  1  0  0  0  0
 14 15  1  0  0  0  0
 14 16  1  0  0  0  0
 14 17  1  0  0  0  0
 11 12  1  0  0  0  0
 11 13  1  0  0  0  0
 11 14  1  0  0  0  0
  9 10  1  0  0  0  0
  9 11  1  0  0  0  0
  9 26  1  0  0  0  0
  7  8  1  0  0  0  0
  7  9  1  0  0  0  0
 30 31  1  0  0  0  0
 30 32  1  0  0  0  0
 30 33  1  0  0  0  0
 28 29  1  0  0  0  0
 28 30  1  0  0  0  0
M  END
$$$$
default_name
  -OEChem-01062215323D

 33 32  0     1  0  0  0  0  0999 V2000
   -3.8420   -3.6918    1.5562 H   0  0  0  0  0  0  0  0  0  0  0  0
   -3.8430   -2.7008    1.1032 C   0  0  0  0  0  0  0  0  0  0  0  0
   -4.5510   -2.0608    1.6242 H   0  0  0  0  0  0  0  0  0  0  0  0
   -4.1140   -2.7798    0.0522 H   0  0  0  0  0  0  0  0  0  0  0  0
   -2.4570   -2.1098    1.2172 C   0  0  0  0  0  0  0  0  0  0  0  0
   -1.5600   -2.7438    1.7572 O   0  0  0  0  0  0  0  0  0  0  0  0
   -2.2870   -0.8898    0.7102 N   0  0  0  0  0  0  0  0  0  0  0  0
   -3.0820   -0.4218    0.2992 H   0  0  0  0  0  0  0  0  0  0  0  0
   -1.0240   -0.1468    0.7262 C   0  0  1  0  0  0  0  0  0  0  0  0
   -0.9823    0.4855   -0.1618 H   0  0  0  0  0  0  0  0  0  0  0  0
   -0.9962    0.7549    1.9756 C   0  0  0  0  0  0  0  0  0  0  0  0
   -1.2142    0.1408    2.8518 H   0  0  0  0  0  0  0  0  0  0  0  0
    0.0038    1.1745    2.0942 H   0  0  0  0  0  0  0  0  0  0  0  0
   -2.0222    1.8977    1.9238 C   0  0  0  0  0  0  0  0  0  0  0  0
   -1.8336    2.5195    1.0482 H   0  0  0  0  0  0  0  0  0  0  0  0
   -3.0263    1.4757    1.8530 H   0  0  0  0  0  0  0  0  0  0  0  0
   -1.9306    2.7728    3.1790 C   0  0  0  0  0  0  0  0  0  0  0  0
   -2.1094    2.1628    4.0649 H   0  0  0  0  0  0  0  0  0  0  0  0
   -0.9363    3.2160    3.2415 H   0  0  0  0  0  0  0  0  0  0  0  0
   -2.9762    3.8844    3.1134 C   0  0  0  0  0  0  0  0  0  0  0  0
   -2.7884    4.5062    2.2395 H   0  0  0  0  0  0  0  0  0  0  0  0
   -3.9685    3.4438    3.0330 H   0  0  0  0  0  0  0  0  0  0  0  0
   -2.9318    4.7284    4.3130 N   0  0  0  0  0  0  0  0  0  0  0  0
   -3.6241    5.4583    4.2295 H   0  0  0  0  0  0  0  0  0  0  0  0
   -3.1370    4.1625    5.1241 H   0  0  0  0  0  0  0  0  0  0  0  0
    0.1647   -1.1210    0.6840 C   0  0  0  0  0  0  0  0  0  0  0  0
    0.8027   -1.2704   -0.3560 O   0  0  0  0  0  0  0  0  0  0  0  0
    0.4506   -1.7858    1.8095 N   0  0  0  0  0  0  0  0  0  0  0  0
   -0.1100   -1.5970    2.6242 H   0  0  0  0  0  0  0  0  0  0  0  0
    1.5365   -2.7574    1.9300 C   0  0  0  0  0  0  0  0  0  0  0  0
    2.4793   -2.2966    1.6271 H   0  0  0  0  0  0  0  0  0  0  0  0
    1.6209   -3.1065    2.9601 H   0  0  0  0  0  0  0  0  0  0  0  0
    1.3415   -3.6089    1.2748 H   0  0  0  0  0  0  0  0  0  0  0  0
  5  6  2  0  0  0  0
  5  7  1  0  0  0  0
  2  3  1  0  0  0  0
  2  4  1  0  0  0  0
  2  5  1  0  0  0  0
  1  2  1  0  0  0  0
 26 27  2  0  0  0  0
 26 28  1  0  0  0  0
 23 24  1  0  0  0  0
 23 25  1  0  0  0  0
 20 21  1  0  0  0  0
 20 22  1  0  0  0  0
 20 23  1  0  0  0  0
 17 18  1  0  0  0  0
 17 19  1  0  0  0  0
 17 20  1  0  0  0  0
 14 15  1  0  0  0  0
 14 16  1  0  0  0  0
 14 17  1  0  0  0  0
 11 12  1  0  0  0  0
 11 13  1  0  0  0  0
 11 14  1  0  0  0  0
  9 10  1  0  0  0  0
  9 11  1  0  0  0  0
  9 26  1  0  0  0  0
  7  8  1  0  0  0  0
  7  9  1  0  0  0  0
 30 31  1  0  0  0  0
 30 32  1  0  0  0  0
 30 33  1  0  0  0  0
 28 29  1  0  0  0  0
 28 30  1  0  0  0  0
M  END
$$$$
default_name
  -OEChem-01062215323D

 33 32  0     1  0  0  0  0  0999 V2000
   -3.8420   -3.6918    1.5562 H   0  0  0  0  0  0  0  0  0  0  0  0
   -3.8430   -2.7008    1.1032 C   0  0  0  0  0  0  0  0  0  0  0  0
   -4.5510   -2.0608    1.6242 H   0  0  0  0  0  0  0  0  0  0  0  0
   -4.1140   -2.7798    0.0522 H   0  0  0  0  0  0  0  0  0  0  0  0
   -2.4570   -2.1098    1.2172 C   0  0  0  0  0  0  0  0  0  0  0  0
   -1.5600   -2.7438    1.7572 O   0  0  0  0  0  0  0  0  0  0  0  0
   -2.2870   -0.8898    0.7102 N   0  0  0  0  0  0  0  0  0  0  0  0
   -3.0820   -0.4218    0.2992 H   0  0  0  0  0  0  0  0  0  0  0  0
   -1.0240   -0.1468    0.7262 C   0  0  1  0  0  0  0  0  0  0  0  0
   -0.9823    0.4855   -0.1618 H   0  0  0  0  0  0  0  0  0  0  0  0
   -0.9962    0.7549    1.9756 C   0  0  0  0  0  0  0  0  0  0  0  0
   -1.2142    0.1408    2.8518 H   0  0  0  0  0  0  0  0  0  0  0  0
    0.0038    1.1745    2.0942 H   0  0  0  0  0  0  0  0  0  0  0  0
   -2.0222    1.8977    1.9238 C   0  0  0  0  0  0  0  0  0  0  0  0
   -1.8336    2.5195    1.0482 H   0  0  0  0  0  0  0  0  0  0  0  0
   -3.0263    1.4757    1.8530 H   0  0  0  0  0  0  0  0  0  0  0  0
   -1.9306    2.7728    3.1790 C   0  0  0  0  0  0  0  0  0  0  0  0
   -2.1094    2.1628    4.0649 H   0  0  0  0  0  0  0  0  0  0  0  0
   -0.9363    3.2160    3.2415 H   0  0  0  0  0  0  0  0  0  0  0  0
   -2.9762    3.8844    3.1134 C   0  0  0  0  0  0  0  0  0  0  0  0
   -2.7884    4.5062    2.2395 H   0  0  0  0  0  0  0  0  0  0  0  0
   -3.9685    3.4438    3.0330 H   0  0  0  0  0  0  0  0  0  0  0  0
   -2.9318    4.7284    4.3130 N   0  0  0  0  0  0  0  0  0  0  0  0
   -3.6241    5.4583    4.2295 H   0  0  0  0  0  0  0  0  0  0  0  0
   -3.1370    4.1625    5.1241 H   0  0  0  0  0  0  0  0  0  0  0  0
    0.1647   -1.1210    0.6840 C   0  0  0  0  0  0  0  0  0  0  0  0
    0.9667   -1.0751   -0.2464 O   0  0  0  0  0  0  0  0  0  0  0  0
    0.2677   -2.0036    1.6845 N   0  0  0  0  0  0  0  0  0  0  0  0
   -0.4213   -1.9679    2.4178 H   0  0  0  0  0  0  0  0  0  0  0  0
    1.3281   -3.0053    1.7831 C   0  0  0  0  0  0  0  0  0  0  0  0
    2.3035   -2.5159    1.7370 H   0  0  0  0  0  0  0  0  0  0  0  0
    1.2451   -3.5548    2.7219 H   0  0  0  0  0  0  0  0  0  0  0  0
    1.2519   -3.7040    0.9475 H   0  0  0  0  0  0  0  0  0  0  0  0
  5  6  2  0  0  0  0
  5  7  1  0  0  0  0
  2  3  1  0  0  0  0
  2  4  1  0  0  0  0
  2  5  1  0  0  0  0
  1  2  1  0  0  0  0
 26 27  2  0  0  0  0
 26 28  1  0  0  0  0
 23 24  1  0  0  0  0
 23 25  1  0  0  0  0
 20 21  1  0  0  0  0
 20 22  1  0  0  0  0
 20 23  1  0  0  0  0
 17 18  1  0  0  0  0
 17 19  1  0  0  0  0
 17 20  1  0  0  0  0
 14 15  1  0  0  0  0
 14 16  1  0  0  0  0
 14 17  1  0  0  0  0
 11 12  1  0  0  0  0
 11 13  1  0  0  0  0
 11 14  1  0  0  0  0
  9 10  1  0  0  0  0
  9 11  1  0  0  0  0
  9 26  1  0  0  0  0
  7  8  1  0  0  0  0
  7  9  1  0  0  0  0
 30 31  1  0  0  0  0
 30 32  1  0  0  0  0
 30 33  1  0  0  0  0
 28 29  1  0  0  0  0
 28 30  1  0  0  0  0
M  END
$$$$
default_name
  -OEChem-01062215323D

 33 32  0     1  0  0  0  0  0999 V2000
   -3.8420   -3.6918    1.5562 H   0  0  0  0  0  0  0  0  0  0  0  0
   -3.8430   -2.7008    1.1032 C   0  0  0  0  0  0  0  0  0  0  0  0
   -4.5510   -2.0608    1.6242 H   0  0  0  0  0  0  0  0  0  0  0  0
   -4.1140   -2.7798    0.0522 H   0  0  0  0  0  0  0  0  0  0  0  0
   -2.4570   -2.1098    1.2172 C   0  0  0  0  0  0  0  0  0  0  0  0
   -1.5600   -2.7438    1.7572 O   0  0  0  0  0  0  0  0  0  0  0  0
   -2.2870   -0.8898    0.7102 N   0  0  0  0  0  0  0  0  0  0  0  0
   -3.0820   -0.4218    0.2992 H   0  0  0  0  0  0  0  0  0  0  0  0
   -1.0240   -0.1468    0.7262 C   0  0  1  0  0  0  0  0  0  0  0  0
   -0.9823    0.4855   -0.1618 H   0  0  0  0  0  0  0  0  0  0  0  0
   -0.9962    0.7549    1.9756 C   0  0  0  0  0  0  0  0  0  0  0  0
   -1.2142    0.1408    2.8518 H   0  0  0  0  0  0  0  0  0  0  0  0
    0.0038    1.1745    2.0942 H   0  0  0  0  0  0  0  0  0  0  0  0
   -2.0222    1.8977    1.9238 C   0  0  0  0  0  0  0  0  0  0  0  0
   -1.8336    2.5195    1.0482 H   0  0  0  0  0  0  0  0  0  0  0  0
   -3.0263    1.4757    1.8530 H   0  0  0  0  0  0  0  0  0  0  0  0
   -1.9306    2.7728    3.1790 C   0  0  0  0  0  0  0  0  0  0  0  0
   -2.1094    2.1628    4.0649 H   0  0  0  0  0  0  0  0  0  0  0  0
   -0.9363    3.2160    3.2415 H   0  0  0  0  0  0  0  0  0  0  0  0
   -2.9762    3.8844    3.1134 C   0  0  0  0  0  0  0  0  0  0  0  0
   -2.7884    4.5062    2.2395 H   0  0  0  0  0  0  0  0  0  0  0  0
   -3.9685    3.4438    3.0330 H   0  0  0  0  0  0  0  0  0  0  0  0
   -2.9318    4.7284    4.3130 N   0  0  0  0  0  0  0  0  0  0  0  0
   -3.6241    5.4583    4.2295 H   0  0  0  0  0  0  0  0  0  0  0  0
   -3.1370    4.1625    5.1241 H   0  0  0  0  0  0  0  0  0  0  0  0
    0.1647   -1.1210    0.6840 C   0  0  0  0  0  0  0  0  0  0  0  0
    1.1085   -0.9094   -0.0745 O   0  0  0  0  0  0  0  0  0  0  0  0
    0.1099   -2.1876    1.4901 N   0  0  0  0  0  0  0  0  0  0  0  0
   -0.6907   -2.2826    2.0931 H   0  0  0  0  0  0  0  0  0  0  0  0
    1.1492   -3.2138    1.5575 C   0  0  0  0  0  0  0  0  0  0  0  0
    2.1141   -2.7484    1.7704 H   0  0  0  0  0  0  0  0  0  0  0  0
    0.9180   -3.9375    2.3405 H   0  0  0  0  0  0  0  0  0  0  0  0
    1.2184   -3.7298    0.5976 H   0  0  0  0  0  0  0  0  0  0  0  0
  5  6  2  0  0  0  0
  5  7  1  0  0  0  0
  2  3  1  0  0  0  0
  2  4  1  0  0  0  0
  2  5  1  0  0  0  0
  1  2  1  0  0  0  0
 26 27  2  0  0  0  0
 26 28  1  0  0  0  0
 23 24  1  0  0  0  0
 23 25  1  0  0  0  0
 20 21  1  0  0  0  0
 20 22  1  0  0  0  0
 20 23  1  0  0  0  0
 17 18  1  0  0  0  0
 17 19  1  0  0  0  0
 17 20  1  0  0  0  0
 14 15  1  0  0  0  0
 14 16  1  0  0  0  0
 14 17  1  0  0  0  0
 11 12  1  0  0  0  0
 11 13  1  0  0  0  0
 11 14  1  0  0  0  0
  9 10  1  0  0  0  0
  9 11  1  0  0  0  0
  9 26  1  0  0  0  0
  7  8  1  0  0  0  0
  7  9  1  0  0  0  0
 30 31  1  0  0  0  0
 30 32  1  0  0  0  0
 30 33  1  0  0  0  0
 28 29  1  0  0  0  0
 28 30  1  0  0  0  0
M  END
$$$$
default_name
  -OEChem-01062215323D

 33 32  0     1  0  0  0  0  0999 V2000
   -3.8420   -3.6918    1.5562 H   0  0  0  0  0  0  0  0  0  0  0  0
   -3.8430   -2.7008    1.1032 C   0  0  0  0  0  0  0  0  0  0  0  0
   -4.5510   -2.0608    1.6242 H   0  0  0  0  0  0  0  0  0  0  0  0
   -4.1140   -2.7798    0.0522 H   0  0  0  0  0  0  0  0  0  0  0  0
   -2.4570   -2.1098    1.2172 C   0  0  0  0  0  0  0  0  0  0  0  0
   -1.5600   -2.7438    1.7572 O   0  0  0  0  0  0  0  0  0  0  0  0
   -2.2870   -0.8898    0.7102 N   0  0  0  0  0  0  0  0  0  0  0  0
   -3.0820   -0.4218    0.2992 H   0  0  0  0  0  0  0  0  0  0  0  0
   -1.0240   -0.1468    0.7262 C   0  0  1  0  0  0  0  0  0  0  0  0
   -0.9823    0.4855   -0.1618 H   0  0  0  0  0  0  0  0  0  0  0  0
   -0.9962    0.7549    1.9756 C   0  0  0  0  0  0  0  0  0  0  0  0
   -1.2142    0.1408    2.8518 H   0  0  0  0  0  0  0  0  0  0  0  0
    0.0038    1.1745    2.0942 H   0  0  0  0  0  0  0  0  0  0  0  0
   -2.0222    1.8977    1.9238 C   0  0  0  0  0  0  0  0  0  0  0  0
   -1.8336    2.5195    1.0482 H   0  0  0  0  0  0  0  0  0  0  0  0
   -3.0263    1.4757    1.8530 H   0  0  0  0  0  0  0  0  0  0  0  0
   -1.9306    2.7728    3.1790 C   0  0  0  0  0  0  0  0  0  0  0  0
   -2.1094    2.1628    4.0649 H   0  0  0  0  0  0  0  0  0  0  0  0
   -0.9363    3.2160    3.2415 H   0  0  0  0  0  0  0  0  0  0  0  0
   -2.9762    3.8844    3.1134 C   0  0  0  0  0  0  0  0  0  0  0  0
   -2.7884    4.5062    2.2395 H   0  0  0  0  0  0  0  0  0  0  0  0
   -3.9685    3.4438    3.0330 H   0  0  0  0  0  0  0  0  0  0  0  0
   -2.9318    4.7284    4.3130 N   0  0  0  0  0  0  0  0  0  0  0  0
   -3.6241    5.4583    4.2295 H   0  0  0  0  0  0  0  0  0  0  0  0
   -3.1370    4.1625    5.1241 H   0  0  0  0  0  0  0  0  0  0  0  0
    0.1647   -1.1210    0.6840 C   0  0  0  0  0  0  0  0  0  0  0  0
    1.2185   -0.7849    0.1478 O   0  0  0  0  0  0  0  0  0  0  0  0
   -0.0119   -2.3254    1.2396 N   0  0  0  0  0  0  0  0  0  0  0  0
   -0.8999   -2.5196    1.6723 H   0  0  0  0  0  0  0  0  0  0  0  0
    1.0119   -3.3688    1.2685 C   0  0  0  0  0  0  0  0  0  0  0  0
    1.9240   -2.9784    1.7250 H   0  0  0  0  0  0  0  0  0  0  0  0
    0.6618   -4.2284    1.8418 H   0  0  0  0  0  0  0  0  0  0  0  0
    1.2432   -3.6844    0.2490 H   0  0  0  0  0  0  0  0  0  0  0  0
  5  6  2  0  0  0  0
  5  7  1  0  0  0  0
  2  3  1  0  0  0  0
  2  4  1  0  0  0  0
  2  5  1  0  0  0  0
  1  2  1  0  0  0  0
 26 27  2  0  0  0  0
 26 28  1  0  0  0  0
 23 24  1  0  0  0  0
 23 25  1  0  0  0  0
 20 21  1  0  0  0  0
 20 22  1  0  0  0  0
 20 23  1  0  0  0  0
 17 18  1  0  0  0  0
 17 19  1  0  0  0  0
 17 20  1  0  0  0  0
 14 15  1  0  0  0  0
 14 16  1  0  0  0  0
 14 17  1  0  0  0  0
 11 12  1  0  0  0  0
 11 13  1  0  0  0  0
 11 14  1  0  0  0  0
  9 10  1  0  0  0  0
  9 11  1  0  0  0  0
  9 26  1  0  0  0  0
  7  8  1  0  0  0  0
  7  9  1  0  0  0  0
 30 31  1  0  0  0  0
 30 32  1  0  0  0  0
 30 33  1  0  0  0  0
 28 29  1  0  0  0  0
 28 30  1  0  0  0  0
M  END
$$$$
default_name
  -OEChem-01062215323D

 33 32  0     1  0  0  0  0  0999 V2000
   -3.8420   -3.6918    1.5562 H   0  0  0  0  0  0  0  0  0  0  0  0
   -3.8430   -2.7008    1.1032 C   0  0  0  0  0  0  0  0  0  0  0  0
   -4.5510   -2.0608    1.6242 H   0  0  0  0  0  0  0  0  0  0  0  0
   -4.1140   -2.7798    0.0522 H   0  0  0  0  0  0  0  0  0  0  0  0
   -2.4570   -2.1098    1.2172 C   0  0  0  0  0  0  0  0  0  0  0  0
   -1.5600   -2.7438    1.7572 O   0  0  0  0  0  0  0  0  0  0  0  0
   -2.2870   -0.8898    0.7102 N   0  0  0  0  0  0  0  0  0  0  0  0
   -3.0820   -0.4218    0.2992 H   0  0  0  0  0  0  0  0  0  0  0  0
   -1.0240   -0.1468    0.7262 C   0  0  1  0  0  0  0  0  0  0  0  0
   -0.9823    0.4855   -0.1618 H   0  0  0  0  0  0  0  0  0  0  0  0
   -0.9962    0.7549    1.9756 C   0  0  0  0  0  0  0  0  0  0  0  0
   -1.2142    0.1408    2.8518 H   0  0  0  0  0  0  0  0  0  0  0  0
    0.0038    1.1745    2.0942 H   0  0  0  0  0  0  0  0  0  0  0  0
   -2.0222    1.8977    1.9238 C   0  0  0  0  0  0  0  0  0  0  0  0
   -1.8336    2.5195    1.0482 H   0  0  0  0  0  0  0  0  0  0  0  0
   -3.0263    1.4757    1.8530 H   0  0  0  0  0  0  0  0  0  0  0  0
   -1.9306    2.7728    3.1790 C   0  0  0  0  0  0  0  0  0  0  0  0
   -2.1094    2.1628    4.0649 H   0  0  0  0  0  0  0  0  0  0  0  0
   -0.9363    3.2160    3.2415 H   0  0  0  0  0  0  0  0  0  0  0  0
   -2.9762    3.8844    3.1134 C   0  0  0  0  0  0  0  0  0  0  0  0
   -2.7884    4.5062    2.2395 H   0  0  0  0  0  0  0  0  0  0  0  0
   -3.9685    3.4438    3.0330 H   0  0  0  0  0  0  0  0  0  0  0  0
   -2.9318    4.7284    4.3130 N   0  0  0  0  0  0  0  0  0  0  0  0
   -3.6241    5.4583    4.2295 H   0  0  0  0  0  0  0  0  0  0  0  0
   -3.1370    4.1625    5.1241 H   0  0  0  0  0  0  0  0  0  0  0  0
    0.1647   -1.1210    0.6840 C   0  0  0  0  0  0  0  0  0  0  0  0
    1.2892   -0.7098    0.4056 O   0  0  0  0  0  0  0  0  0  0  0  0
   -0.0894   -2.4075    0.9501 N   0  0  0  0  0  0  0  0  0  0  0  0
   -1.0347   -2.6630    1.1841 H   0  0  0  0  0  0  0  0  0  0  0  0
    0.9256   -3.4598    0.9357 C   0  0  0  0  0  0  0  0  0  0  0  0
    1.7463   -3.1901    1.6041 H   0  0  0  0  0  0  0  0  0  0  0  0
    0.4941   -4.4079    1.2599 H   0  0  0  0  0  0  0  0  0  0  0  0
    1.3247   -3.5710   -0.0746 H   0  0  0  0  0  0  0  0  0  0  0  0
  5  6  2  0  0  0  0
  5  7  1  0  0  0  0
  2  3  1  0  0  0  0
  2  4  1  0  0  0  0
  2  5  1  0  0  0  0
  1  2  1  0  0  0  0
 26 27  2  0  0  0  0
 26 28  1  0  0  0  0
 23 24  1  0  0  0  0
 23 25  1  0  0  0  0
 20 21  1  0  0  0  0
 20 22  1  0  0  0  0
 20 23  1  0  0  0  0
 17 18  1  0  0  0  0
 17 19  1  0  0  0  0
 17 20  1  0  0  0  0
 14 15  1  0  0  0  0
 14 16  1  0  0  0  0
 14 17  1  0  0  0  0
 11 12  1  0  0  0  0
 11 13  1  0  0  0  0
 11 14  1  0  0  0  0
  9 10  1  0  0  0  0
  9 11  1  0  0  0  0
  9 26  1  0  0  0  0
  7  8  1  0  0  0  0
  7  9  1  0  0  0  0
 30 31  1  0  0  0  0
 30 32  1  0  0  0  0
 30 33  1  0  0  0  0
 28 29  1  0  0  0  0
 28 30  1  0  0  0  0
M  END
$$$$
default_name
  -OEChem-01062215323D

 33 32  0     1  0  0  0  0  0999 V2000
   -3.8420   -3.6918    1.5562 H   0  0  0  0  0  0  0  0  0  0  0  0
   -3.8430   -2.7008    1.1032 C   0  0  0  0  0  0  0  0  0  0  0  0
   -4.5510   -2.0608    1.6242 H   0  0  0  0  0  0  0  0  0  0  0  0
   -4.1140   -2.7798    0.0522 H   0  0  0  0  0  0  0  0  0  0  0  0
   -2.4570   -2.1098    1.2172 C   0  0  0  0  0  0  0  0  0  0  0  0
   -1.5600   -2.7438    1.7572 O   0  0  0  0  0  0  0  0  0  0  0  0
   -2.2870   -0.8898    0.7102 N   0  0  0  0  0  0  0  0  0  0  0  0
   -3.0820   -0.4218    0.2992 H   0  0  0  0  0  0  0  0  0  0  0  0
   -1.0240   -0.1468    0.7262 C   0  0  1  0  0  0  0  0  0  0  0  0
   -0.9823    0.4855   -0.1618 H   0  0  0  0  0  0  0  0  0  0  0  0
   -0.9962    0.7549    1.9756 C   0  0  0  0  0  0  0  0  0  0  0  0
   -1.2142    0.1408    2.8518 H   0  0  0  0  0  0  0  0  0  0  0  0
    0.0038    1.1745    2.0942 H   0  0  0  0  0  0  0  0  0  0  0  0
   -2.0222    1.8977    1.9238 C   0  0  0  0  0  0  0  0  0  0  0  0
   -1.8336    2.5195    1.0482 H   0  0  0  0  0  0  0  0  0  0  0  0
   -3.0263    1.4757    1.8530 H   0  0  0  0  0  0  0  0  0  0  0  0
   -1.9306    2.7728    3.1790 C   0  0  0  0  0  0  0  0  0  0  0  0
   -2.1094    2.1628    4.0649 H   0  0  0  0  0  0  0  0  0  0  0  0
   -0.9363    3.2160    3.2415 H   0  0  0  0  0  0  0  0  0  0  0  0
   -2.9762    3.8844    3.1134 C   0  0  0  0  0  0  0  0  0  0  0  0
   -2.7884    4.5062    2.2395 H   0  0  0  0  0  0  0  0  0  0  0  0
   -3.9685    3.4438    3.0330 H   0  0  0  0  0  0  0  0  0  0  0  0
   -2.9318    4.7284    4.3130 N   0  0  0  0  0  0  0  0  0  0  0  0
   -3.6241    5.4583    4.2295 H   0  0  0  0  0  0  0  0  0  0  0  0
   -3.1370    4.1625    5.1241 H   0  0  0  0  0  0  0  0  0  0  0  0
    0.1647   -1.1210    0.6840 C   0  0  0  0  0  0  0  0  0  0  0  0
    1.3157   -0.6894    0.6812 O   0  0  0  0  0  0  0  0  0  0  0  0
   -0.1174   -2.4283    0.6414 N   0  0  0  0  0  0  0  0  0  0  0  0
   -1.0859   -2.7028    0.6618 H   0  0  0  0  0  0  0  0  0  0  0  0
    0.8961   -3.4804    0.5820 C   0  0  0  0  0  0  0  0  0  0  0  0
    1.5929   -3.3691    1.4157 H   0  0  0  0  0  0  0  0  0  0  0  0
    0.4262   -4.4636    0.6343 H   0  0  0  0  0  0  0  0  0  0  0  0
    1.4572   -3.3973   -0.3511 H   0  0  0  0  0  0  0  0  0  0  0  0
  5  6  2  0  0  0  0
  5  7  1  0  0  0  0
  2  3  1  0  0  0  0
  2  4  1  0  0  0  0
  2  5  1  0  0  0  0
  1  2  1  0  0  0  0
 26 27  2  0  0  0  0
 26 28  1  0  0  0  0
 23 24  1  0  0  0  0
 23 25  1  0  0  0  0
 20 21  1  0  0  0  0
 20 22  1  0  0  0  0
 20 23  1  0  0  0  0
 17 18  1  0  0  0  0
 17 19  1  0  0  0  0
 17 20  1  0  0  0  0
 14 15  1  0  0  0  0
 14 16  1  0  0  0  0
 14 17  1  0  0  0  0
 11 12  1  0  0  0  0
 11 13  1  0  0  0  0
 11 14  1  0  0  0  0
  9 10  1  0  0  0  0
  9 11  1  0  0  0  0
  9 26  1  0  0  0  0
  7  8  1  0  0  0  0
  7  9  1  0  0  0  0
 30 31  1  0  0  0  0
 30 32  1  0  0  0  0
 30 33  1  0  0  0  0
 28 29  1  0  0  0  0
 28 30  1  0  0  0  0
M  END
$$$$
default_name
  -OEChem-01062215323D

 33 32  0     1  0  0  0  0  0999 V2000
   -3.8420   -3.6918    1.5562 H   0  0  0  0  0  0  0  0  0  0  0  0
   -3.8430   -2.7008    1.1032 C   0  0  0  0  0  0  0  0  0  0  0  0
   -4.5510   -2.0608    1.6242 H   0  0  0  0  0  0  0  0  0  0  0  0
   -4.1140   -2.7798    0.0522 H   0  0  0  0  0  0  0  0  0  0  0  0
   -2.4570   -2.1098    1.2172 C   0  0  0  0  0  0  0  0  0  0  0  0
   -1.5600   -2.7438    1.7572 O   0  0  0  0  0  0  0  0  0  0  0  0
   -2.2870   -0.8898    0.7102 N   0  0  0  0  0  0  0  0  0  0  0  0
   -3.0820   -0.4218    0.2992 H   0  0  0  0  0  0  0  0  0  0  0  0
   -1.0240   -0.1468    0.7262 C   0  0  1  0  0  0  0  0  0  0  0  0
   -0.9823    0.4855   -0.1618 H   0  0  0  0  0  0  0  0  0  0  0  0
   -0.9962    0.7549    1.9756 C   0  0  0  0  0  0  0  0  0  0  0  0
   -1.2142    0.1408    2.8518 H   0  0  0  0  0  0  0  0  0  0  0  0
    0.0038    1.1745    2.0942 H   0  0  0  0  0  0  0  0  0  0  0  0
   -2.0222    1.8977    1.9238 C   0  0  0  0  0  0  0  0  0  0  0  0
   -1.8336    2.5195    1.0482 H   0  0  0  0  0  0  0  0  0  0  0  0
   -3.0263    1.4757    1.8530 H   0  0  0  0  0  0  0  0  0  0  0  0
   -1.9306    2.7728    3.1790 C   0  0  0  0  0  0  0  0  0  0  0  0
   -2.1094    2.1628    4.0649 H   0  0  0  0  0  0  0  0  0  0  0  0
   -0.9363    3.2160    3.2415 H   0  0  0  0  0  0  0  0  0  0  0  0
   -2.9762    3.8844    3.1134 C   0  0  0  0  0  0  0  0  0  0  0  0
   -2.7884    4.5062    2.2395 H   0  0  0  0  0  0  0  0  0  0  0  0
   -3.9685    3.4438    3.0330 H   0  0  0  0  0  0  0  0  0  0  0  0
   -2.9318    4.7284    4.3130 N   0  0  0  0  0  0  0  0  0  0  0  0
   -3.6241    5.4583    4.2295 H   0  0  0  0  0  0  0  0  0  0  0  0
   -3.1370    4.1625    5.1241 H   0  0  0  0  0  0  0  0  0  0  0  0
    0.1647   -1.1210    0.6840 C   0  0  0  0  0  0  0  0  0  0  0  0
    1.2962   -0.7251    0.9558 O   0  0  0  0  0  0  0  0  0  0  0  0
   -0.0940   -2.3864    0.3344 N   0  0  0  0  0  0  0  0  0  0  0  0
   -1.0499   -2.6363    0.1409 H   0  0  0  0  0  0  0  0  0  0  0  0
    0.9255   -3.4293    0.2314 C   0  0  0  0  0  0  0  0  0  0  0  0
    1.4743   -3.5032    1.1728 H   0  0  0  0  0  0  0  0  0  0  0  0
    0.4629   -4.3917    0.0079 H   0  0  0  0  0  0  0  0  0  0  0  0
    1.6318   -3.1751   -0.5617 H   0  0  0  0  0  0  0  0  0  0  0  0
  5  6  2  0  0  0  0
  5  7  1  0  0  0  0
  2  3  1  0  0  0  0
  2  4  1  0  0  0  0
  2  5  1  0  0  0  0
  1  2  1  0  0  0  0
 26 27  2  0  0  0  0
 26 28  1  0  0  0  0
 23 24  1  0  0  0  0
 23 25  1  0  0  0  0
 20 21  1  0  0  0  0
 20 22  1  0  0  0  0
 20 23  1  0  0  0  0
 17 18  1  0  0  0  0
 17 19  1  0  0  0  0
 17 20  1  0  0  0  0
 14 15  1  0  0  0  0
 14 16  1  0  0  0  0
 14 17  1  0  0  0  0
 11 12  1  0  0  0  0
 11 13  1  0  0  0  0
 11 14  1  0  0  0  0
  9 10  1  0  0  0  0
  9 11  1  0  0  0  0
  9 26  1  0  0  0  0
  7  8  1  0  0  0  0
  7  9  1  0  0  0  0
 30 31  1  0  0  0  0
 30 32  1  0  0  0  0
 30 33  1  0  0  0  0
 28 29  1  0  0  0  0
 28 30  1  0  0  0  0
M  END
$$$$
default_name
  -OEChem-01062215323D

 33 32  0     1  0  0  0  0  0999 V2000
   -3.8420   -3.6918    1.5562 H   0  0  0  0  0  0  0  0  0  0  0  0
   -3.8430   -2.7008    1.1032 C   0  0  0  0  0  0  0  0  0  0  0  0
   -4.5510   -2.0608    1.6242 H   0  0  0  0  0  0  0  0  0  0  0  0
   -4.1140   -2.7798    0.0522 H   0  0  0  0  0  0  0  0  0  0  0  0
   -2.4570   -2.1098    1.2172 C   0  0  0  0  0  0  0  0  0  0  0  0
   -1.5600   -2.7438    1.7572 O   0  0  0  0  0  0  0  0  0  0  0  0
   -2.2870   -0.8898    0.7102 N   0  0  0  0  0  0  0  0  0  0  0  0
   -3.0820   -0.4218    0.2992 H   0  0  0  0  0  0  0  0  0  0  0  0
   -1.0240   -0.1468    0.7262 C   0  0  1  0  0  0  0  0  0  0  0  0
   -0.9823    0.4855   -0.1618 H   0  0  0  0  0  0  0  0  0  0  0  0
   -0.9962    0.7549    1.9756 C   0  0  0  0  0  0  0  0  0  0  0  0
   -1.2142    0.1408    2.8518 H   0  0  0  0  0  0  0  0  0  0  0  0
    0.0038    1.1745    2.0942 H   0  0  0  0  0  0  0  0  0  0  0  0
   -2.0222    1.8977    1.9238 C   0  0  0  0  0  0  0  0  0  0  0  0
   -1.8336    2.5195    1.0482 H   0  0  0  0  0  0  0  0  0  0  0  0
   -3.0263    1.4757    1.8530 H   0  0  0  0  0  0  0  0  0  0  0  0
   -1.9306    2.7728    3.1790 C   0  0  0  0  0  0  0  0  0  0  0  0
   -2.1094    2.1628    4.0649 H   0  0  0  0  0  0  0  0  0  0  0  0
   -0.9363    3.2160    3.2415 H   0  0  0  0  0  0  0  0  0  0  0  0
   -2.9762    3.8844    3.1134 C   0  0  0  0  0  0  0  0  0  0  0  0
   -2.7884    4.5062    2.2395 H   0  0  0  0  0  0  0  0  0  0  0  0
   -3.9685    3.4438    3.0330 H   0  0  0  0  0  0  0  0  0  0  0  0
   -2.9318    4.7284    4.3130 N   0  0  0  0  0  0  0  0  0  0  0  0
   -3.6241    5.4583    4.2295 H   0  0  0  0  0  0  0  0  0  0  0  0
   -3.1370    4.1625    5.1241 H   0  0  0  0  0  0  0  0  0  0  0  0
    0.1647   -1.1210    0.6840 C   0  0  0  0  0  0  0  0  0  0  0  0
    1.2322   -0.8143    1.2108 O   0  0  0  0  0  0  0  0  0  0  0  0
   -0.0207   -2.2847    0.0501 N   0  0  0  0  0  0  0  0  0  0  0  0
   -0.9293   -2.4681   -0.3430 H   0  0  0  0  0  0  0  0  0  0  0  0
    1.0118   -3.3101   -0.0923 C   0  0  0  0  0  0  0  0  0  0  0  0
    1.3987   -3.5833    0.8919 H   0  0  0  0  0  0  0  0  0  0  0  0
    0.6015   -4.1972   -0.5769 H   0  0  0  0  0  0  0  0  0  0  0  0
    1.8366   -2.9196   -0.6920 H   0  0  0  0  0  0  0  0  0  0  0  0
  5  6  2  0  0  0  0
  5  7  1  0  0  0  0
  2  3  1  0  0  0  0
  2  4  1  0  0  0  0
  2  5  1  0  0  0  0
  1  2  1  0  0  0  0
 26 27  2  0  0  0  0
 26 28  1  0  0  0  0
 23 24  1  0  0  0  0
 23 25  1  0  0  0  0
 20 21  1  0  0  0  0
 20 22  1  0  0  0  0
 20 23  1  0  0  0  0
 17 18  1  0  0  0  0
 17 19  1  0  0  0  0
 17 20  1  0  0  0  0
 14 15  1  0  0  0  0
 14 16  1  0  0  0  0
 14 17  1  0  0  0  0
 11 12  1  0  0  0  0
 11 13  1  0  0  0  0
 11 14  1  0  0  0  0
  9 10  1  0  0  0  0
  9 11  1  0  0  0  0
  9 26  1  0  0  0  0
  7  8  1  0  0  0  0
  7  9  1  0  0  0  0
 30 31  1  0  0  0  0
 30 32  1  0  0  0  0
 30 33  1  0  0  0  0
 28 29  1  0  0  0  0
 28 30  1  0  0  0  0
M  END
$$$$
default_name
  -OEChem-01062215323D

 33 32  0     1  0  0  0  0  0999 V2000
   -3.8420   -3.6918    1.5562 H   0  0  0  0  0  0  0  0  0  0  0  0
   -3.8430   -2.7008    1.1032 C   0  0  0  0  0  0  0  0  0  0  0  0
   -4.5510   -2.0608    1.6242 H   0  0  0  0  0  0  0  0  0  0  0  0
   -4.1140   -2.7798    0.0522 H   0  0  0  0  0  0  0  0  0  0  0  0
   -2.4570   -2.1098    1.2172 C   0  0  0  0  0  0  0  0  0  0  0  0
   -1.5600   -2.7438    1.7572 O   0  0  0  0  0  0  0  0  0  0  0  0
   -2.2870   -0.8898    0.7102 N   0  0  0  0  0  0  0  0  0  0  0  0
   -3.0820   -0.4218    0.2992 H   0  0  0  0  0  0  0  0  0  0  0  0
   -1.0240   -0.1468    0.7262 C   0  0  1  0  0  0  0  0  0  0  0  0
   -0.9823    0.4855   -0.1618 H   0  0  0  0  0  0  0  0  0  0  0  0
   -0.9962    0.7549    1.9756 C   0  0  0  0  0  0  0  0  0  0  0  0
   -1.2142    0.1408    2.8518 H   0  0  0  0  0  0  0  0  0  0  0  0
    0.0038    1.1745    2.0942 H   0  0  0  0  0  0  0  0  0  0  0  0
   -2.0222    1.8977    1.9238 C   0  0  0  0  0  0  0  0  0  0  0  0
   -1.8336    2.5195    1.0482 H   0  0  0  0  0  0  0  0  0  0  0  0
   -3.0263    1.4757    1.8530 H   0  0  0  0  0  0  0  0  0  0  0  0
   -1.9306    2.7728    3.1790 C   0  0  0  0  0  0  0  0  0  0  0  0
   -2.1094    2.1628    4.0649 H   0  0  0  0  0  0  0  0  0  0  0  0
   -0.9363    3.2160    3.2415 H   0  0  0  0  0  0  0  0  0  0  0  0
   -2.9762    3.8844    3.1134 C   0  0  0  0  0  0  0  0  0  0  0  0
   -2.7884    4.5062    2.2395 H   0  0  0  0  0  0  0  0  0  0  0  0
   -3.9685    3.4438    3.0330 H   0  0  0  0  0  0  0  0  0  0  0  0
   -2.9318    4.7284    4.3130 N   0  0  0  0  0  0  0  0  0  0  0  0
   -3.6241    5.4583    4.2295 H   0  0  0  0  0  0  0  0  0  0  0  0
   -3.1370    4.1625    5.1241 H   0  0  0  0  0  0  0  0  0  0  0  0
    0.1647   -1.1210    0.6840 C   0  0  0  0  0  0  0  0  0  0  0  0
    1.1278   -0.9510    1.4287 O   0  0  0  0  0  0  0  0  0  0  0  0
    0.0974   -2.1301   -0.1922 N   0  0  0  0  0  0  0  0  0  0  0  0
   -0.7322   -2.2097   -0.7571 H   0  0  0  0  0  0  0  0  0  0  0  0
    1.1490   -3.1307   -0.3669 C   0  0  0  0  0  0  0  0  0  0  0  0
    1.3712   -3.6039    0.5921 H   0  0  0  0  0  0  0  0  0  0  0  0
    0.8327   -3.8933   -1.0800 H   0  0  0  0  0  0  0  0  0  0  0  0
    2.0576   -2.6482   -0.7331 H   0  0  0  0  0  0  0  0  0  0  0  0
  5  6  2  0  0  0  0
  5  7  1  0  0  0  0
  2  3  1  0  0  0  0
  2  4  1  0  0  0  0
  2  5  1  0  0  0  0
  1  2  1  0  0  0  0
 26 27  2  0  0  0  0
 26 28  1  0  0  0  0
 23 24  1  0  0  0  0
 23 25  1  0  0  0  0
 20 21  1  0  0  0  0
 20 22  1  0  0  0  0
 20 23  1  0  0  0  0
 17 18  1  0  0  0  0
 17 19  1  0  0  0  0
 17 20  1  0  0  0  0
 14 15  1  0  0  0  0
 14 16  1  0  0  0  0
 14 17  1  0  0  0  0
 11 12  1  0  0  0  0
 11 13  1  0  0  0  0
 11 14  1  0  0  0  0
  9 10  1  0  0  0  0
  9 11  1  0  0  0  0
  9 26  1  0  0  0  0
  7  8  1  0  0  0  0
  7  9  1  0  0  0  0
 30 31  1  0  0  0  0
 30 32  1  0  0  0  0
 30 33  1  0  0  0  0
 28 29  1  0  0  0  0
 28 30  1  0  0  0  0
M  END
$$$$
default_name
  -OEChem-01062215323D

 33 32  0     1  0  0  0  0  0999 V2000
   -3.8420   -3.6918    1.5562 H   0  0  0  0  0  0  0  0  0  0  0  0
   -3.8430   -2.7008    1.1032 C   0  0  0  0  0  0  0  0  0  0  0  0
   -4.5510   -2.0608    1.6242 H   0  0  0  0  0  0  0  0  0  0  0  0
   -4.1140   -2.7798    0.0522 H   0  0  0  0  0  0  0  0  0  0  0  0
   -2.4570   -2.1098    1.2172 C   0  0  0  0  0  0  0  0  0  0  0  0
   -1.5600   -2.7438    1.7572 O   0  0  0  0  0  0  0  0  0  0  0  0
   -2.2870   -0.8898    0.7102 N   0  0  0  0  0  0  0  0  0  0  0  0
   -3.0820   -0.4218    0.2992 H   0  0  0  0  0  0  0  0  0  0  0  0
   -1.0240   -0.1468    0.7262 C   0  0  1  0  0  0  0  0  0  0  0  0
   -0.9823    0.4855   -0.1618 H   0  0  0  0  0  0  0  0  0  0  0  0
   -0.9962    0.7549    1.9756 C   0  0  0  0  0  0  0  0  0  0  0  0
   -1.2142    0.1408    2.8518 H   0  0  0  0  0  0  0  0  0  0  0  0
    0.0038    1.1745    2.0942 H   0  0  0  0  0  0  0  0  0  0  0  0
   -2.0222    1.8977    1.9238 C   0  0  0  0  0  0  0  0  0  0  0  0
   -1.8336    2.5195    1.0482 H   0  0  0  0  0  0  0  0  0  0  0  0
   -3.0263    1.4757    1.8530 H   0  0  0  0  0  0  0  0  0  0  0  0
   -1.9306    2.7728    3.1790 C   0  0  0  0  0  0  0  0  0  0  0  0
   -2.1094    2.1628    4.0649 H   0  0  0  0  0  0  0  0  0  0  0  0
   -0.9363    3.2160    3.2415 H   0  0  0  0  0  0  0  0  0  0  0  0
   -2.9762    3.8844    3.1134 C   0  0  0  0  0  0  0  0  0  0  0  0
   -2.7884    4.5062    2.2395 H   0  0  0  0  0  0  0  0  0  0  0  0
   -3.9685    3.4438    3.0330 H   0  0  0  0  0  0  0  0  0  0  0  0
   -2.9318    4.7284    4.3130 N   0  0  0  0  0  0  0  0  0  0  0  0
   -3.6241    5.4583    4.2295 H   0  0  0  0  0  0  0  0  0  0  0  0
   -3.1370    4.1625    5.1241 H   0  0  0  0  0  0  0  0  0  0  0  0
    0.1647   -1.1210    0.6840 C   0  0  0  0  0  0  0  0  0  0  0  0
    0.9903   -1.1260    1.5947 O   0  0  0  0  0  0  0  0  0  0  0  0
    0.2523   -1.9331   -0.3758 N   0  0  0  0  0  0  0  0  0  0  0  0
   -0.4721   -1.8787   -1.0729 H   0  0  0  0  0  0  0  0  0  0  0  0
    1.3279   -2.9034   -0.5738 C   0  0  0  0  0  0  0  0  0  0  0  0
    1.3936   -3.5636    0.2939 H   0  0  0  0  0  0  0  0  0  0  0  0
    1.1407   -3.5007   -1.4673 H   0  0  0  0  0  0  0  0  0  0  0  0
    2.2797   -2.3794   -0.6823 H   0  0  0  0  0  0  0  0  0  0  0  0
  5  6  2  0  0  0  0
  5  7  1  0  0  0  0
  2  3  1  0  0  0  0
  2  4  1  0  0  0  0
  2  5  1  0  0  0  0
  1  2  1  0  0  0  0
 26 27  2  0  0  0  0
 26 28  1  0  0  0  0
 23 24  1  0  0  0  0
 23 25  1  0  0  0  0
 20 21  1  0  0  0  0
 20 22  1  0  0  0  0
 20 23  1  0  0  0  0
 17 18  1  0  0  0  0
 17 19  1  0  0  0  0
 17 20  1  0  0  0  0
 14 15  1  0  0  0  0
 14 16  1  0  0  0  0
 14 17  1  0  0  0  0
 11 12  1  0  0  0  0
 11 13  1  0  0  0  0
 11 14  1  0  0  0  0
  9 10  1  0  0  0  0
  9 11  1  0  0  0  0
  9 26  1  0  0  0  0
  7  8  1  0  0  0  0
  7  9  1  0  0  0  0
 30 31  1  0  0  0  0
 30 32  1  0  0  0  0
 30 33  1  0  0  0  0
 28 29  1  0  0  0  0
 28 30  1  0  0  0  0
M  END
$$$$
default_name
  -OEChem-01062215323D

 33 32  0     1  0  0  0  0  0999 V2000
   -3.8420   -3.6918    1.5562 H   0  0  0  0  0  0  0  0  0  0  0  0
   -3.8430   -2.7008    1.1032 C   0  0  0  0  0  0  0  0  0  0  0  0
   -4.5510   -2.0608    1.6242 H   0  0  0  0  0  0  0  0  0  0  0  0
   -4.1140   -2.7798    0.0522 H   0  0  0  0  0  0  0  0  0  0  0  0
   -2.4570   -2.1098    1.2172 C   0  0  0  0  0  0  0  0  0  0  0  0
   -1.5600   -2.7438    1.7572 O   0  0  0  0  0  0  0  0  0  0  0  0
   -2.2870   -0.8898    0.7102 N   0  0  0  0  0  0  0  0  0  0  0  0
   -3.0820   -0.4218    0.2992 H   0  0  0  0  0  0  0  0  0  0  0  0
   -1.0240   -0.1468    0.7262 C   0  0  1  0  0  0  0  0  0  0  0  0
   -0.9823    0.4855   -0.1618 H   0  0  0  0  0  0  0  0  0  0  0  0
   -0.9962    0.7549    1.9756 C   0  0  0  0  0  0  0  0  0  0  0  0
   -1.2142    0.1408    2.8518 H   0  0  0  0  0  0  0  0  0  0  0  0
    0.0038    1.1745    2.0942 H   0  0  0  0  0  0  0  0  0  0  0  0
   -2.0222    1.8977    1.9238 C   0  0  0  0  0  0  0  0  0  0  0  0
   -1.8336    2.5195    1.0482 H   0  0  0  0  0  0  0  0  0  0  0  0
   -3.0263    1.4757    1.8530 H   0  0  0  0  0  0  0  0  0  0  0  0
   -1.9306    2.7728    3.1790 C   0  0  0  0  0  0  0  0  0  0  0  0
   -2.1094    2.1628    4.0649 H   0  0  0  0  0  0  0  0  0  0  0  0
   -0.9363    3.2160    3.2415 H   0  0  0  0  0  0  0  0  0  0  0  0
   -2.9762    3.8844    3.1134 C   0  0  0  0  0  0  0  0  0  0  0  0
   -2.7884    4.5062    2.2395 H   0  0  0  0  0  0  0  0  0  0  0  0
   -3.9685    3.4438    3.0330 H   0  0  0  0  0  0  0  0  0  0  0  0
   -2.9318    4.7284    4.3130 N   0  0  0  0  0  0  0  0  0  0  0  0
   -3.6241    5.4583    4.2295 H   0  0  0  0  0  0  0  0  0  0  0  0
   -3.1370    4.1625    5.1241 H   0  0  0  0  0  0  0  0  0  0  0  0
    0.1647   -1.1210    0.6840 C   0  0  0  0  0  0  0  0  0  0  0  0
    0.8291   -1.3272    1.6975 O   0  0  0  0  0  0  0  0  0  0  0  0
    0.4335   -1.7071   -0.4884 N   0  0  0  0  0  0  0  0  0  0  0  0
   -0.1667   -1.4975   -1.2692 H   0  0  0  0  0  0  0  0  0  0  0  0
    1.5362   -2.6438   -0.6987 C   0  0  0  0  0  0  0  0  0  0  0  0
    1.4644   -3.4652    0.0176 H   0  0  0  0  0  0  0  0  0  0  0  0
    1.5045   -3.0462   -1.7123 H   0  0  0  0  0  0  0  0  0  0  0  0
    2.4879   -2.1314   -0.5430 H   0  0  0  0  0  0  0  0  0  0  0  0
  5  6  2  0  0  0  0
  5  7  1  0  0  0  0
  2  3  1  0  0  0  0
  2  4  1  0  0  0  0
  2  5  1  0  0  0  0
  1  2  1  0  0  0  0
 26 27  2  0  0  0  0
 26 28  1  0  0  0  0
 23 24  1  0  0  0  0
 23 25  1  0  0  0  0
 20 21  1  0  0  0  0
 20 22  1  0  0  0  0
 20 23  1  0  0  0  0
 17 18  1  0  0  0  0
 17 19  1  0  0  0  0
 17 20  1  0  0  0  0
 14 15  1  0  0  0  0
 14 16  1  0  0  0  0
 14 17  1  0  0  0  0
 11 12  1  0  0  0  0
 11 13  1  0  0  0  0
 11 14  1  0  0  0  0
  9 10  1  0  0  0  0
  9 11  1  0  0  0  0
  9 26  1  0  0  0  0
  7  8  1  0  0  0  0
  7  9  1  0  0  0  0
 30 31  1  0  0  0  0
 30 32  1  0  0  0  0
 30 33  1  0  0  0  0
 28 29  1  0  0  0  0
 28 30  1  0  0  0  0
M  END
$$$$
default_name
  -OEChem-01062215323D

 33 32  0     1  0  0  0  0  0999 V2000
   -3.8420   -3.6918    1.5562 H   0  0  0  0  0  0  0  0  0  0  0  0
   -3.8430   -2.7008    1.1032 C   0  0  0  0  0  0  0  0  0  0  0  0
   -4.5510   -2.0608    1.6242 H   0  0  0  0  0  0  0  0  0  0  0  0
   -4.1140   -2.7798    0.0522 H   0  0  0  0  0  0  0  0  0  0  0  0
   -2.4570   -2.1098    1.2172 C   0  0  0  0  0  0  0  0  0  0  0  0
   -1.5600   -2.7438    1.7572 O   0  0  0  0  0  0  0  0  0  0  0  0
   -2.2870   -0.8898    0.7102 N   0  0  0  0  0  0  0  0  0  0  0  0
   -3.0820   -0.4218    0.2992 H   0  0  0  0  0  0  0  0  0  0  0  0
   -1.0240   -0.1468    0.7262 C   0  0  1  0  0  0  0  0  0  0  0  0
   -0.9823    0.4855   -0.1618 H   0  0  0  0  0  0  0  0  0  0  0  0
   -0.9962    0.7549    1.9756 C   0  0  0  0  0  0  0  0  0  0  0  0
   -1.2142    0.1408    2.8518 H   0  0  0  0  0  0  0  0  0  0  0  0
    0.0038    1.1745    2.0942 H   0  0  0  0  0  0  0  0  0  0  0  0
   -2.0222    1.8977    1.9238 C   0  0  0  0  0  0  0  0  0  0  0  0
   -1.8336    2.5195    1.0482 H   0  0  0  0  0  0  0  0  0  0  0  0
   -3.0263    1.4757    1.8530 H   0  0  0  0  0  0  0  0  0  0  0  0
   -1.9306    2.7728    3.1790 C   0  0  0  0  0  0  0  0  0  0  0  0
   -2.1094    2.1628    4.0649 H   0  0  0  0  0  0  0  0  0  0  0  0
   -0.9363    3.2160    3.2415 H   0  0  0  0  0  0  0  0  0  0  0  0
   -2.9762    3.8844    3.1134 C   0  0  0  0  0  0  0  0  0  0  0  0
   -2.7884    4.5062    2.2395 H   0  0  0  0  0  0  0  0  0  0  0  0
   -3.9685    3.4438    3.0330 H   0  0  0  0  0  0  0  0  0  0  0  0
   -2.9318    4.7284    4.3130 N   0  0  0  0  0  0  0  0  0  0  0  0
   -3.6241    5.4583    4.2295 H   0  0  0  0  0  0  0  0  0  0  0  0
   -3.1370    4.1625    5.1241 H   0  0  0  0  0  0  0  0  0  0  0  0
    0.1647   -1.1210    0.6840 C   0  0  0  0  0  0  0  0  0  0  0  0
    0.6550   -1.5410    1.7300 O   0  0  0  0  0  0  0  0  0  0  0  0
    0.6285   -1.4677   -0.5223 N   0  0  0  0  0  0  0  0  0  0  0  0
    0.1632   -1.0923   -1.3323 H   0  0  0  0  0  0  0  0  0  0  0  0
    1.7598   -2.3695   -0.7334 C   0  0  0  0  0  0  0  0  0  0  0  0
    1.5789   -3.3154   -0.2180 H   0  0  0  0  0  0  0  0  0  0  0  0
    1.8993   -2.5607   -1.7983 H   0  0  0  0  0  0  0  0  0  0  0  0
    2.6678   -1.9213   -0.3247 H   0  0  0  0  0  0  0  0  0  0  0  0
  5  6  2  0  0  0  0
  5  7  1  0  0  0  0
  2  3  1  0  0  0  0
  2  4  1  0  0  0  0
  2  5  1  0  0  0  0
  1  2  1  0  0  0  0
 26 27  2  0  0  0  0
 26 28  1  0  0  0  0
 23 24  1  0  0  0  0
 23 25  1  0  0  0  0
 20 21  1  0  0  0  0
 20 22  1  0  0  0  0
 20 23  1  0  0  0  0
 17 18  1  0  0  0  0
 17 19  1  0  0  0  0
 17 20  1  0  0  0  0
 14 15  1  0  0  0  0
 14 16  1  0  0  0  0
 14 17  1  0  0  0  0
 11 12  1  0  0  0  0
 11 13  1  0  0  0  0
 11 14  1  0  0  0  0
  9 10  1  0  0  0  0
  9 11  1  0  0  0  0
  9 26  1  0  0  0  0
  7  8  1  0  0  0  0
  7  9  1  0  0  0  0
 30 31  1  0  0  0  0
 30 32  1  0  0  0  0
 30 33  1  0  0  0  0
 28 29  1  0  0  0  0
 28 30  1  0  0  0  0
M  END
$$$$
default_name
  -OEChem-01062215323D

 33 32  0     1  0  0  0  0  0999 V2000
   -3.8420   -3.6918    1.5562 H   0  0  0  0  0  0  0  0  0  0  0  0
   -3.8430   -2.7008    1.1032 C   0  0  0  0  0  0  0  0  0  0  0  0
   -4.5510   -2.0608    1.6242 H   0  0  0  0  0  0  0  0  0  0  0  0
   -4.1140   -2.7798    0.0522 H   0  0  0  0  0  0  0  0  0  0  0  0
   -2.4570   -2.1098    1.2172 C   0  0  0  0  0  0  0  0  0  0  0  0
   -1.5600   -2.7438    1.7572 O   0  0  0  0  0  0  0  0  0  0  0  0
   -2.2870   -0.8898    0.7102 N   0  0  0  0  0  0  0  0  0  0  0  0
   -3.0820   -0.4218    0.2992 H   0  0  0  0  0  0  0  0  0  0  0  0
   -1.0240   -0.1468    0.7262 C   0  0  1  0  0  0  0  0  0  0  0  0
   -0.9823    0.4855   -0.1618 H   0  0  0  0  0  0  0  0  0  0  0  0
   -0.9962    0.7549    1.9756 C   0  0  0  0  0  0  0  0  0  0  0  0
   -1.2142    0.1408    2.8518 H   0  0  0  0  0  0  0  0  0  0  0  0
    0.0038    1.1745    2.0942 H   0  0  0  0  0  0  0  0  0  0  0  0
   -2.0222    1.8977    1.9238 C   0  0  0  0  0  0  0  0  0  0  0  0
   -1.8336    2.5195    1.0482 H   0  0  0  0  0  0  0  0  0  0  0  0
   -3.0263    1.4757    1.8530 H   0  0  0  0  0  0  0  0  0  0  0  0
   -1.9306    2.7728    3.1790 C   0  0  0  0  0  0  0  0  0  0  0  0
   -2.1094    2.1628    4.0649 H   0  0  0  0  0  0  0  0  0  0  0  0
   -0.9363    3.2160    3.2415 H   0  0  0  0  0  0  0  0  0  0  0  0
   -2.9762    3.8844    3.1134 C   0  0  0  0  0  0  0  0  0  0  0  0
   -2.7884    4.5062    2.2395 H   0  0  0  0  0  0  0  0  0  0  0  0
   -3.9685    3.4438    3.0330 H   0  0  0  0  0  0  0  0  0  0  0  0
   -2.9318    4.7284    4.3130 N   0  0  0  0  0  0  0  0  0  0  0  0
   -3.6241    5.4583    4.2295 H   0  0  0  0  0  0  0  0  0  0  0  0
   -3.1370    4.1625    5.1241 H   0  0  0  0  0  0  0  0  0  0  0  0
    0.1647   -1.1210    0.6840 C   0  0  0  0  0  0  0  0  0  0  0  0
    0.4800   -1.7528    1.6902 O   0  0  0  0  0  0  0  0  0  0  0  0
    0.8242   -1.2310   -0.4751 N   0  0  0  0  0  0  0  0  0  0  0  0
    0.4951   -0.6905   -1.2582 H   0  0  0  0  0  0  0  0  0  0  0  0
    1.9834   -2.0992   -0.6753 C   0  0  0  0  0  0  0  0  0  0  0  0
    1.7291   -3.1243   -0.3968 H   0  0  0  0  0  0  0  0  0  0  0  0
    2.2983   -2.0774   -1.7196 H   0  0  0  0  0  0  0  0  0  0  0  0
    2.8074   -1.7633   -0.0423 H   0  0  0  0  0  0  0  0  0  0  0  0
  5  6  2  0  0  0  0
  5  7  1  0  0  0  0
  2  3  1  0  0  0  0
  2  4  1  0  0  0  0
  2  5  1  0  0  0  0
  1  2  1  0  0  0  0
 26 27  2  0  0  0  0
 26 28  1  0  0  0  0
 23 24  1  0  0  0  0
 23 25  1  0  0  0  0
 20 21  1  0  0  0  0
 20 22  1  0  0  0  0
 20 23  1  0  0  0  0
 17 18  1  0  0  0  0
 17 19  1  0  0  0  0
 17 20  1  0  0  0  0
 14 15  1  0  0  0  0
 14 16  1  0  0  0  0
 14 17  1  0  0  0  0
 11 12  1  0  0  0  0
 11 13  1  0  0  0  0
 11 14  1  0  0  0  0
  9 10  1  0  0  0  0
  9 11  1  0  0  0  0
  9 26  1  0  0  0  0
  7  8  1  0  0  0  0
  7  9  1  0  0  0  0
 30 31  1  0  0  0  0
 30 32  1  0  0  0  0
 30 33  1  0  0  0  0
 28 29  1  0  0  0  0
 28 30  1  0  0  0  0
M  END
$$$$
default_name
  -OEChem-01062215323D

 33 32  0     1  0  0  0  0  0999 V2000
   -3.8420   -3.6918    1.5562 H   0  0  0  0  0  0  0  0  0  0  0  0
   -3.8430   -2.7008    1.1032 C   0  0  0  0  0  0  0  0  0  0  0  0
   -4.5510   -2.0608    1.6242 H   0  0  0  0  0  0  0  0  0  0  0  0
   -4.1140   -2.7798    0.0522 H   0  0  0  0  0  0  0  0  0  0  0  0
   -2.4570   -2.1098    1.2172 C   0  0  0  0  0  0  0  0  0  0  0  0
   -1.5600   -2.7438    1.7572 O   0  0  0  0  0  0  0  0  0  0  0  0
   -2.2870   -0.8898    0.7102 N   0  0  0  0  0  0  0  0  0  0  0  0
   -3.0820   -0.4218    0.2992 H   0  0  0  0  0  0  0  0  0  0  0  0
   -1.0240   -0.1468    0.7262 C   0  0  1  0  0  0  0  0  0  0  0  0
   -0.9823    0.4855   -0.1618 H   0  0  0  0  0  0  0  0  0  0  0  0
   -0.9962    0.7549    1.9756 C   0  0  0  0  0  0  0  0  0  0  0  0
   -1.2142    0.1408    2.8518 H   0  0  0  0  0  0  0  0  0  0  0  0
    0.0038    1.1745    2.0942 H   0  0  0  0  0  0  0  0  0  0  0  0
   -2.0222    1.8977    1.9238 C   0  0  0  0  0  0  0  0  0  0  0  0
   -1.8336    2.5195    1.0482 H   0  0  0  0  0  0  0  0  0  0  0  0
   -3.0263    1.4757    1.8530 H   0  0  0  0  0  0  0  0  0  0  0  0
   -1.9306    2.7728    3.1790 C   0  0  0  0  0  0  0  0  0  0  0  0
   -2.1094    2.1628    4.0649 H   0  0  0  0  0  0  0  0  0  0  0  0
   -0.9363    3.2160    3.2415 H   0  0  0  0  0  0  0  0  0  0  0  0
   -2.9762    3.8844    3.1134 C   0  0  0  0  0  0  0  0  0  0  0  0
   -2.7884    4.5062    2.2395 H   0  0  0  0  0  0  0  0  0  0  0  0
   -3.9685    3.4438    3.0330 H   0  0  0  0  0  0  0  0  0  0  0  0
   -2.9318    4.7284    4.3130 N   0  0  0  0  0  0  0  0  0  0  0  0
   -3.6241    5.4583    4.2295 H   0  0  0  0  0  0  0  0  0  0  0  0
   -3.1370    4.1625    5.1241 H   0  0  0  0  0  0  0  0  0  0  0  0
    0.1647   -1.1210    0.6840 C   0  0  0  0  0  0  0  0  0  0  0  0
    0.3160   -1.9482    1.5806 O   0  0  0  0  0  0  0  0  0  0  0  0
    1.0071   -1.0132   -0.3500 N   0  0  0  0  0  0  0  0  0  0  0  0
    0.8063   -0.3197   -1.0517 H   0  0  0  0  0  0  0  0  0  0  0  0
    2.1918   -1.8514   -0.5284 C   0  0  0  0  0  0  0  0  0  0  0  0
    1.9049   -2.9050   -0.5067 H   0  0  0  0  0  0  0  0  0  0  0  0
    2.6741   -1.6291   -1.4813 H   0  0  0  0  0  0  0  0  0  0  0  0
    2.8969   -1.6681    0.2850 H   0  0  0  0  0  0  0  0  0  0  0  0
  5  6  2  0  0  0  0
  5  7  1  0  0  0  0
  2  3  1  0  0  0  0
  2  4  1  0  0  0  0
  2  5  1  0  0  0  0
  1  2  1  0  0  0  0
 26 27  2  0  0  0  0
 26 28  1  0  0  0  0
 23 24  1  0  0  0  0
 23 25  1  0  0  0  0
 20 21  1  0  0  0  0
 20 22  1  0  0  0  0
 20 23  1  0  0  0  0
 17 18  1  0  0  0  0
 17 19  1  0  0  0  0
 17 20  1  0  0  0  0
 14 15  1  0  0  0  0
 14 16  1  0  0  0  0
 14 17  1  0  0  0  0
 11 12  1  0  0  0  0
 11 13  1  0  0  0  0
 11 14  1  0  0  0  0
  9 10  1  0  0  0  0
  9 11  1  0  0  0  0
  9 26  1  0  0  0  0
  7  8  1  0  0  0  0
  7  9  1  0  0  0  0
 30 31  1  0  0  0  0
 30 32  1  0  0  0  0
 30 33  1  0  0  0  0
 28 29  1  0  0  0  0
 28 30  1  0  0  0  0
M  END
$$$$
default_name
  -OEChem-01062215323D

 33 32  0     1  0  0  0  0  0999 V2000
   -3.8420   -3.6918    1.5562 H   0  0  0  0  0  0  0  0  0  0  0  0
   -3.8430   -2.7008    1.1032 C   0  0  0  0  0  0  0  0  0  0  0  0
   -4.5510   -2.0608    1.6242 H   0  0  0  0  0  0  0  0  0  0  0  0
   -4.1140   -2.7798    0.0522 H   0  0  0  0  0  0  0  0  0  0  0  0
   -2.4570   -2.1098    1.2172 C   0  0  0  0  0  0  0  0  0  0  0  0
   -1.5600   -2.7438    1.7572 O   0  0  0  0  0  0  0  0  0  0  0  0
   -2.2870   -0.8898    0.7102 N   0  0  0  0  0  0  0  0  0  0  0  0
   -3.0820   -0.4218    0.2992 H   0  0  0  0  0  0  0  0  0  0  0  0
   -1.0240   -0.1468    0.7262 C   0  0  1  0  0  0  0  0  0  0  0  0
   -0.9823    0.4855   -0.1618 H   0  0  0  0  0  0  0  0  0  0  0  0
   -0.9962    0.7549    1.9756 C   0  0  0  0  0  0  0  0  0  0  0  0
   -1.2142    0.1408    2.8518 H   0  0  0  0  0  0  0  0  0  0  0  0
    0.0038    1.1745    2.0942 H   0  0  0  0  0  0  0  0  0  0  0  0
   -2.0222    1.8977    1.9238 C   0  0  0  0  0  0  0  0  0  0  0  0
   -1.8336    2.5195    1.0482 H   0  0  0  0  0  0  0  0  0  0  0  0
   -3.0263    1.4757    1.8530 H   0  0  0  0  0  0  0  0  0  0  0  0
   -1.9306    2.7728    3.1790 C   0  0  0  0  0  0  0  0  0  0  0  0
   -2.1094    2.1628    4.0649 H   0  0  0  0  0  0  0  0  0  0  0  0
   -0.9363    3.2160    3.2415 H   0  0  0  0  0  0  0  0  0  0  0  0
   -2.9762    3.8844    3.1134 C   0  0  0  0  0  0  0  0  0  0  0  0
   -2.7884    4.5062    2.2395 H   0  0  0  0  0  0  0  0  0  0  0  0
   -3.9685    3.4438    3.0330 H   0  0  0  0  0  0  0  0  0  0  0  0
   -2.9318    4.7284    4.3130 N   0  0  0  0  0  0  0  0  0  0  0  0
   -3.6241    5.4583    4.2295 H   0  0  0  0  0  0  0  0  0  0  0  0
   -3.1370    4.1625    5.1241 H   0  0  0  0  0  0  0  0  0  0  0  0
    0.1647   -1.1210    0.6840 C   0  0  0  0  0  0  0  0  0  0  0  0
    0.1742   -2.1138    1.4087 O   0  0  0  0  0  0  0  0  0  0  0  0
    1.1649   -0.8291   -0.1556 N   0  0  0  0  0  0  0  0  0  0  0  0
    1.0758   -0.0050   -0.7270 H   0  0  0  0  0  0  0  0  0  0  0  0
    2.3707   -1.6428   -0.3027 C   0  0  0  0  0  0  0  0  0  0  0  0
    2.0943   -2.6725   -0.5400 H   0  0  0  0  0  0  0  0  0  0  0  0
    3.0012   -1.2465   -1.0999 H   0  0  0  0  0  0  0  0  0  0  0  0
    2.9305   -1.6424    0.6349 H   0  0  0  0  0  0  0  0  0  0  0  0
  5  6  2  0  0  0  0
  5  7  1  0  0  0  0
  2  3  1  0  0  0  0
  2  4  1  0  0  0  0
  2  5  1  0  0  0  0
  1  2  1  0  0  0  0
 26 27  2  0  0  0  0
 26 28  1  0  0  0  0
 23 24  1  0  0  0  0
 23 25  1  0  0  0  0
 20 21  1  0  0  0  0
 20 22  1  0  0  0  0
 20 23  1  0  0  0  0
 17 18  1  0  0  0  0
 17 19  1  0  0  0  0
 17 20  1  0  0  0  0
 14 15  1  0  0  0  0
 14 16  1  0  0  0  0
 14 17  1  0  0  0  0
 11 12  1  0  0  0  0
 11 13  1  0  0  0  0
 11 14  1  0  0  0  0
  9 10  1  0  0  0  0
  9 11  1  0  0  0  0
  9 26  1  0  0  0  0
  7  8  1  0  0  0  0
  7  9  1  0  0  0  0
 30 31  1  0  0  0  0
 30 32  1  0  0  0  0
 30 33  1  0  0  0  0
 28 29  1  0  0  0  0
 28 30  1  0  0  0  0
M  END
$$$$
default_name
  -OEChem-01062215323D

 33 32  0     1  0  0  0  0  0999 V2000
   -3.8420   -3.6918    1.5562 H   0  0  0  0  0  0  0  0  0  0  0  0
   -3.8430   -2.7008    1.1032 C   0  0  0  0  0  0  0  0  0  0  0  0
   -4.5510   -2.0608    1.6242 H   0  0  0  0  0  0  0  0  0  0  0  0
   -4.1140   -2.7798    0.0522 H   0  0  0  0  0  0  0  0  0  0  0  0
   -2.4570   -2.1098    1.2172 C   0  0  0  0  0  0  0  0  0  0  0  0
   -1.5600   -2.7438    1.7572 O   0  0  0  0  0  0  0  0  0  0  0  0
   -2.2870   -0.8898    0.7102 N   0  0  0  0  0  0  0  0  0  0  0  0
   -3.0820   -0.4218    0.2992 H   0  0  0  0  0  0  0  0  0  0  0  0
   -1.0240   -0.1468    0.7262 C   0  0  1  0  0  0  0  0  0  0  0  0
   -0.9823    0.4855   -0.1618 H   0  0  0  0  0  0  0  0  0  0  0  0
   -0.9962    0.7549    1.9756 C   0  0  0  0  0  0  0  0  0  0  0  0
   -1.2142    0.1408    2.8518 H   0  0  0  0  0  0  0  0  0  0  0  0
    0.0038    1.1745    2.0942 H   0  0  0  0  0  0  0  0  0  0  0  0
   -2.0222    1.8977    1.9238 C   0  0  0  0  0  0  0  0  0  0  0  0
   -1.8336    2.5195    1.0482 H   0  0  0  0  0  0  0  0  0  0  0  0
   -3.0263    1.4757    1.8530 H   0  0  0  0  0  0  0  0  0  0  0  0
   -1.9306    2.7728    3.1790 C   0  0  0  0  0  0  0  0  0  0  0  0
   -2.1094    2.1628    4.0649 H   0  0  0  0  0  0  0  0  0  0  0  0
   -0.9363    3.2160    3.2415 H   0  0  0  0  0  0  0  0  0  0  0  0
   -2.9762    3.8844    3.1134 C   0  0  0  0  0  0  0  0  0  0  0  0
   -2.7884    4.5062    2.2395 H   0  0  0  0  0  0  0  0  0  0  0  0
   -3.9685    3.4438    3.0330 H   0  0  0  0  0  0  0  0  0  0  0  0
   -2.9318    4.7284    4.3130 N   0  0  0  0  0  0  0  0  0  0  0  0
   -3.6241    5.4583    4.2295 H   0  0  0  0  0  0  0  0  0  0  0  0
   -3.1370    4.1625    5.1241 H   0  0  0  0  0  0  0  0  0  0  0  0
    0.1647   -1.1210    0.6840 C   0  0  0  0  0  0  0  0  0  0  0  0
    0.0642   -2.2383    1.1863 O   0  0  0  0  0  0  0  0  0  0  0  0
    1.2867   -0.6913    0.0949 N   0  0  0  0  0  0  0  0  0  0  0  0
    1.2850    0.2321   -0.3063 H   0  0  0  0  0  0  0  0  0  0  0  0
    2.5080   -1.4878   -0.0137 C   0  0  0  0  0  0  0  0  0  0  0  0
    2.2844   -2.4426   -0.4947 H   0  0  0  0  0  0  0  0  0  0  0  0
    3.2574   -0.9555   -0.6012 H   0  0  0  0  0  0  0  0  0  0  0  0
    2.9057   -1.6878    0.9835 H   0  0  0  0  0  0  0  0  0  0  0  0
  5  6  2  0  0  0  0
  5  7  1  0  0  0  0
  2  3  1  0  0  0  0
  2  4  1  0  0  0  0
  2  5  1  0  0  0  0
  1  2  1  0  0  0  0
 26 27  2  0  0  0  0
 26 28  1  0  0  0  0
 23 24  1  0  0  0  0
 23 25  1  0  0  0  0
 20 21  1  0  0  0  0
 20 22  1  0  0  0  0
 20 23  1  0  0  0  0
 17 18  1  0  0  0  0
 17 19  1  0  0  0  0
 17 20  1  0  0  0  0
 14 15  1  0  0  0  0
 14 16  1  0  0  0  0
 14 17  1  0  0  0  0
 11 12  1  0  0  0  0
 11 13  1  0  0  0  0
 11 14  1  0  0  0  0
  9 10  1  0  0  0  0
  9 11  1  0  0  0  0
  9 26  1  0  0  0  0
  7  8  1  0  0  0  0
  7  9  1  0  0  0  0
 30 31  1  0  0  0  0
 30 32  1  0  0  0  0
 30 33  1  0  0  0  0
 28 29  1  0  0  0  0
 28 30  1  0  0  0  0
M  END
$$$$
default_name
  -OEChem-01062215323D

 33 32  0     1  0  0  0  0  0999 V2000
   -3.8420   -3.6918    1.5562 H   0  0  0  0  0  0  0  0  0  0  0  0
   -3.8430   -2.7008    1.1032 C   0  0  0  0  0  0  0  0  0  0  0  0
   -4.5510   -2.0608    1.6242 H   0  0  0  0  0  0  0  0  0  0  0  0
   -4.1140   -2.7798    0.0522 H   0  0  0  0  0  0  0  0  0  0  0  0
   -2.4570   -2.1098    1.2172 C   0  0  0  0  0  0  0  0  0  0  0  0
   -1.5600   -2.7438    1.7572 O   0  0  0  0  0  0  0  0  0  0  0  0
   -2.2870   -0.8898    0.7102 N   0  0  0  0  0  0  0  0  0  0  0  0
   -3.0820   -0.4218    0.2992 H   0  0  0  0  0  0  0  0  0  0  0  0
   -1.0240   -0.1468    0.7262 C   0  0  1  0  0  0  0  0  0  0  0  0
   -0.9823    0.4855   -0.1618 H   0  0  0  0  0  0  0  0  0  0  0  0
   -0.9962    0.7549    1.9756 C   0  0  0  0  0  0  0  0  0  0  0  0
   -1.2142    0.1408    2.8518 H   0  0  0  0  0  0  0  0  0  0  0  0
    0.0038    1.1745    2.0942 H   0  0  0  0  0  0  0  0  0  0  0  0
   -2.0222    1.8977    1.9238 C   0  0  0  0  0  0  0  0  0  0  0  0
   -1.8336    2.5195    1.0482 H   0  0  0  0  0  0  0  0  0  0  0  0
   -3.0263    1.4757    1.8530 H   0  0  0  0  0  0  0  0  0  0  0  0
   -1.9306    2.7728    3.1790 C   0  0  0  0  0  0  0  0  0  0  0  0
   -2.1094    2.1628    4.0649 H   0  0  0  0  0  0  0  0  0  0  0  0
   -0.9363    3.2160    3.2415 H   0  0  0  0  0  0  0  0  0  0  0  0
   -2.9762    3.8844    3.1134 C   0  0  0  0  0  0  0  0  0  0  0  0
   -2.7884    4.5062    2.2395 H   0  0  0  0  0  0  0  0  0  0  0  0
   -3.9685    3.4438    3.0330 H   0  0  0  0  0  0  0  0  0  0  0  0
   -2.9318    4.7284    4.3130 N   0  0  0  0  0  0  0  0  0  0  0  0
   -3.6241    5.4583    4.2295 H   0  0  0  0  0  0  0  0  0  0  0  0
   -3.1370    4.1625    5.1241 H   0  0  0  0  0  0  0  0  0  0  0  0
    0.1647   -1.1210    0.6840 C   0  0  0  0  0  0  0  0  0  0  0  0
   -0.0064   -2.3134    0.9286 O   0  0  0  0  0  0  0  0  0  0  0  0
    1.3642   -0.6093    0.3843 N   0  0  0  0  0  0  0  0  0  0  0  0
    1.4198    0.3754    0.1819 H   0  0  0  0  0  0  0  0  0  0  0  0
    2.5943   -1.3969    0.3190 C   0  0  0  0  0  0  0  0  0  0  0  0
    2.4621   -2.2309   -0.3737 H   0  0  0  0  0  0  0  0  0  0  0  0
    3.4251   -0.7761   -0.0193 H   0  0  0  0  0  0  0  0  0  0  0  0
    2.8242   -1.8012    1.3070 H   0  0  0  0  0  0  0  0  0  0  0  0
  5  6  2  0  0  0  0
  5  7  1  0  0  0  0
  2  3  1  0  0  0  0
  2  4  1  0  0  0  0
  2  5  1  0  0  0  0
  1  2  1  0  0  0  0
 26 27  2  0  0  0  0
 26 28  1  0  0  0  0
 23 24  1  0  0  0  0
 23 25  1  0  0  0  0
 20 21  1  0  0  0  0
 20 22  1  0  0  0  0
 20 23  1  0  0  0  0
 17 18  1  0  0  0  0
 17 19  1  0  0  0  0
 17 20  1  0  0  0  0
 14 15  1  0  0  0  0
 14 16  1  0  0  0  0
 14 17  1  0  0  0  0
 11 12  1  0  0  0  0
 11 13  1  0  0  0  0
 11 14  1  0  0  0  0
  9 10  1  0  0  0  0
  9 11  1  0  0  0  0
  9 26  1  0  0  0  0
  7  8  1  0  0  0  0
  7  9  1  0  0  0  0
 30 31  1  0  0  0  0
 30 32  1  0  0  0  0
 30 33  1  0  0  0  0
 28 29  1  0  0  0  0
 28 30  1  0  0  0  0
M  END
$$$$
default_name
  -OEChem-01062215323D

 33 32  0     1  0  0  0  0  0999 V2000
   -3.8420   -3.6918    1.5562 H   0  0  0  0  0  0  0  0  0  0  0  0
   -3.8430   -2.7008    1.1032 C   0  0  0  0  0  0  0  0  0  0  0  0
   -4.5510   -2.0608    1.6242 H   0  0  0  0  0  0  0  0  0  0  0  0
   -4.1140   -2.7798    0.0522 H   0  0  0  0  0  0  0  0  0  0  0  0
   -2.4570   -2.1098    1.2172 C   0  0  0  0  0  0  0  0  0  0  0  0
   -1.5600   -2.7438    1.7572 O   0  0  0  0  0  0  0  0  0  0  0  0
   -2.2870   -0.8898    0.7102 N   0  0  0  0  0  0  0  0  0  0  0  0
   -3.0820   -0.4218    0.2992 H   0  0  0  0  0  0  0  0  0  0  0  0
   -1.0240   -0.1468    0.7262 C   0  0  1  0  0  0  0  0  0  0  0  0
   -1.0918    0.6682    0.0042 H   0  0  0  0  0  0  0  0  0  0  0  0
   -0.8212    0.4541    2.1307 C   0  0  0  0  0  0  0  0  0  0  0  0
   -0.9294   -0.3436    2.8684 H   0  0  0  0  0  0  0  0  0  0  0  0
    0.1907    0.8544    2.2080 H   0  0  0  0  0  0  0  0  0  0  0  0
   -1.8312    1.5614    2.4701 C   0  0  0  0  0  0  0  0  0  0  0  0
   -1.7520    2.3659    1.7384 H   0  0  0  0  0  0  0  0  0  0  0  0
   -2.8410    1.1480    2.4389 H   0  0  0  0  0  0  0  0  0  0  0  0
   -1.5648    2.1362    3.8659 C   0  0  0  0  0  0  0  0  0  0  0  0
   -1.6329    1.3409    4.6089 H   0  0  0  0  0  0  0  0  0  0  0  0
   -0.5656    2.5718    3.8951 H   0  0  0  0  0  0  0  0  0  0  0  0
   -2.5964    3.2158    4.1876 C   0  0  0  0  0  0  0  0  0  0  0  0
   -2.5177    4.0199    3.4577 H   0  0  0  0  0  0  0  0  0  0  0  0
   -3.5960    2.7866    4.1415 H   0  0  0  0  0  0  0  0  0  0  0  0
   -2.3844    3.7718    5.5289 N   0  0  0  0  0  0  0  0  0  0  0  0
   -3.0729    4.4895    5.7019 H   0  0  0  0  0  0  0  0  0  0  0  0
   -2.4880    3.0358    6.2129 H   0  0  0  0  0  0  0  0  0  0  0  0
    0.1370   -1.0659    0.3123 C   0  0  0  0  0  0  0  0  0  0  0  0
   -0.0776   -2.2445    0.0375 O   0  0  0  0  0  0  0  0  0  0  0  0
    1.3614   -0.5271    0.2793 N   0  0  0  0  0  0  0  0  0  0  0  0
    1.4530    0.4501    0.5039 H   0  0  0  0  0  0  0  0  0  0  0  0
    2.5699   -1.2686   -0.0774 C   0  0  0  0  0  0  0  0  0  0  0  0
    2.4407   -1.7360   -1.0561 H   0  0  0  0  0  0  0  0  0  0  0  0
    3.4307   -0.5991   -0.1090 H   0  0  0  0  0  0  0  0  0  0  0  0
    2.7498   -2.0538    0.6598 H   0  0  0  0  0  0  0  0  0  0  0  0
  5  6  2  0  0  0  0
  5  7  1  0  0  0  0
  2  3  1  0  0  0  0
  2  4  1  0  0  0  0
  2  5  1  0  0  0  0
  1  2  1  0  0  0  0
 26 27  2  0  0  0  0
 26 28  1  0  0  0  0
 23 24  1  0  0  0  0
 23 25  1  0  0  0  0
 20 21  1  0  0  0  0
 20 22  1  0  0  0  0
 20 23  1  0  0  0  0
 17 18  1  0  0  0  0
 17 19  1  0  0  0  0
 17 20  1  0  0  0  0
 14 15  1  0  0  0  0
 14 16  1  0  0  0  0
 14 17  1  0  0  0  0
 11 12  1  0  0  0  0
 11 13  1  0  0  0  0
 11 14  1  0  0  0  0
  9 10  1  0  0  0  0
  9 11  1  0  0  0  0
  9 26  1  0  0  0  0
  7  8  1  0  0  0  0
  7  9  1  0  0  0  0
 30 31  1  0  0  0  0
 30 32  1  0  0  0  0
 30 33  1  0  0  0  0
 28 29  1  0  0  0  0
 28 30  1  0  0  0  0
M  END
$$$$
default_name
  -OEChem-01062215323D

 33 32  0     1  0  0  0  0  0999 V2000
   -3.8420   -3.6918    1.5562 H   0  0  0  0  0  0  0  0  0  0  0  0
   -3.8430   -2.7008    1.1032 C   0  0  0  0  0  0  0  0  0  0  0  0
   -4.5510   -2.0608    1.6242 H   0  0  0  0  0  0  0  0  0  0  0  0
   -4.1140   -2.7798    0.0522 H   0  0  0  0  0  0  0  0  0  0  0  0
   -2.4570   -2.1098    1.2172 C   0  0  0  0  0  0  0  0  0  0  0  0
   -1.5600   -2.7438    1.7572 O   0  0  0  0  0  0  0  0  0  0  0  0
   -2.2870   -0.8898    0.7102 N   0  0  0  0  0  0  0  0  0  0  0  0
   -3.0820   -0.4218    0.2992 H   0  0  0  0  0  0  0  0  0  0  0  0
   -1.0240   -0.1468    0.7262 C   0  0  1  0  0  0  0  0  0  0  0  0
   -1.0918    0.6682    0.0042 H   0  0  0  0  0  0  0  0  0  0  0  0
   -0.8212    0.4541    2.1307 C   0  0  0  0  0  0  0  0  0  0  0  0
   -0.9294   -0.3436    2.8684 H   0  0  0  0  0  0  0  0  0  0  0  0
    0.1907    0.8544    2.2080 H   0  0  0  0  0  0  0  0  0  0  0  0
   -1.8312    1.5614    2.4701 C   0  0  0  0  0  0  0  0  0  0  0  0
   -1.7520    2.3659    1.7384 H   0  0  0  0  0  0  0  0  0  0  0  0
   -2.8410    1.1480    2.4389 H   0  0  0  0  0  0  0  0  0  0  0  0
   -1.5648    2.1362    3.8659 C   0  0  0  0  0  0  0  0  0  0  0  0
   -1.6329    1.3409    4.6089 H   0  0  0  0  0  0  0  0  0  0  0  0
   -0.5656    2.5718    3.8951 H   0  0  0  0  0  0  0  0  0  0  0  0
   -2.5964    3.2158    4.1876 C   0  0  0  0  0  0  0  0  0  0  0  0
   -2.5177    4.0199    3.4577 H   0  0  0  0  0  0  0  0  0  0  0  0
   -3.5960    2.7866    4.1415 H   0  0  0  0  0  0  0  0  0  0  0  0
   -2.3844    3.7718    5.5289 N   0  0  0  0  0  0  0  0  0  0  0  0
   -3.0729    4.4895    5.7019 H   0  0  0  0  0  0  0  0  0  0  0  0
   -2.4880    3.0358    6.2129 H   0  0  0  0  0  0  0  0  0  0  0  0
    0.1370   -1.0659    0.3123 C   0  0  0  0  0  0  0  0  0  0  0  0
   -0.0941   -2.1483   -0.2224 O   0  0  0  0  0  0  0  0  0  0  0  0
    1.3780   -0.6367    0.5695 N   0  0  0  0  0  0  0  0  0  0  0  0
    1.4851    0.2686    0.9969 H   0  0  0  0  0  0  0  0  0  0  0  0
    2.5863   -1.3971    0.2537 C   0  0  0  0  0  0  0  0  0  0  0  0
    2.5918   -1.6573   -0.8070 H   0  0  0  0  0  0  0  0  0  0  0  0
    3.4759   -0.8094    0.4849 H   0  0  0  0  0  0  0  0  0  0  0  0
    2.6017   -2.3204    0.8364 H   0  0  0  0  0  0  0  0  0  0  0  0
  5  6  2  0  0  0  0
  5  7  1  0  0  0  0
  2  3  1  0  0  0  0
  2  4  1  0  0  0  0
  2  5  1  0  0  0  0
  1  2  1  0  0  0  0
 26 27  2  0  0  0  0
 26 28  1  0  0  0  0
 23 24  1  0  0  0  0
 23 25  1  0  0  0  0
 20 21  1  0  0  0  0
 20 22  1  0  0  0  0
 20 23  1  0  0  0  0
 17 18  1  0  0  0  0
 17 19  1  0  0  0  0
 17 20  1  0  0  0  0
 14 15  1  0  0  0  0
 14 16  1  0  0  0  0
 14 17  1  0  0  0  0
 11 12  1  0  0  0  0
 11 13  1  0  0  0  0
 11 14  1  0  0  0  0
  9 10  1  0  0  0  0
  9 11  1  0  0  0  0
  9 26  1  0  0  0  0
  7  8  1  0  0  0  0
  7  9  1  0  0  0  0
 30 31  1  0  0  0  0
 30 32  1  0  0  0  0
 30 33  1  0  0  0  0
 28 29  1  0  0  0  0
 28 30  1  0  0  0  0
M  END
$$$$
default_name
  -OEChem-01062215323D

 33 32  0     1  0  0  0  0  0999 V2000
   -3.8420   -3.6918    1.5562 H   0  0  0  0  0  0  0  0  0  0  0  0
   -3.8430   -2.7008    1.1032 C   0  0  0  0  0  0  0  0  0  0  0  0
   -4.5510   -2.0608    1.6242 H   0  0  0  0  0  0  0  0  0  0  0  0
   -4.1140   -2.7798    0.0522 H   0  0  0  0  0  0  0  0  0  0  0  0
   -2.4570   -2.1098    1.2172 C   0  0  0  0  0  0  0  0  0  0  0  0
   -1.5600   -2.7438    1.7572 O   0  0  0  0  0  0  0  0  0  0  0  0
   -2.2870   -0.8898    0.7102 N   0  0  0  0  0  0  0  0  0  0  0  0
   -3.0820   -0.4218    0.2992 H   0  0  0  0  0  0  0  0  0  0  0  0
   -1.0240   -0.1468    0.7262 C   0  0  1  0  0  0  0  0  0  0  0  0
   -1.0918    0.6682    0.0042 H   0  0  0  0  0  0  0  0  0  0  0  0
   -0.8212    0.4541    2.1307 C   0  0  0  0  0  0  0  0  0  0  0  0
   -0.9294   -0.3436    2.8684 H   0  0  0  0  0  0  0  0  0  0  0  0
    0.1907    0.8544    2.2080 H   0  0  0  0  0  0  0  0  0  0  0  0
   -1.8312    1.5614    2.4701 C   0  0  0  0  0  0  0  0  0  0  0  0
   -1.7520    2.3659    1.7384 H   0  0  0  0  0  0  0  0  0  0  0  0
   -2.8410    1.1480    2.4389 H   0  0  0  0  0  0  0  0  0  0  0  0
   -1.5648    2.1362    3.8659 C   0  0  0  0  0  0  0  0  0  0  0  0
   -1.6329    1.3409    4.6089 H   0  0  0  0  0  0  0  0  0  0  0  0
   -0.5656    2.5718    3.8951 H   0  0  0  0  0  0  0  0  0  0  0  0
   -2.5964    3.2158    4.1876 C   0  0  0  0  0  0  0  0  0  0  0  0
   -2.5177    4.0199    3.4577 H   0  0  0  0  0  0  0  0  0  0  0  0
   -3.5960    2.7866    4.1415 H   0  0  0  0  0  0  0  0  0  0  0  0
   -2.3844    3.7718    5.5289 N   0  0  0  0  0  0  0  0  0  0  0  0
   -3.0729    4.4895    5.7019 H   0  0  0  0  0  0  0  0  0  0  0  0
   -2.4880    3.0358    6.2129 H   0  0  0  0  0  0  0  0  0  0  0  0
    0.1370   -1.0659    0.3123 C   0  0  0  0  0  0  0  0  0  0  0  0
   -0.0630   -2.0033   -0.4571 O   0  0  0  0  0  0  0  0  0  0  0  0
    1.3416   -0.8005    0.8310 N   0  0  0  0  0  0  0  0  0  0  0  0
    1.4271   -0.0053    1.4426 H   0  0  0  0  0  0  0  0  0  0  0  0
    2.5419   -1.5870    0.5510 C   0  0  0  0  0  0  0  0  0  0  0  0
    2.7047   -1.6405   -0.5277 H   0  0  0  0  0  0  0  0  0  0  0  0
    3.4130   -1.1318    1.0244 H   0  0  0  0  0  0  0  0  0  0  0  0
    2.4128   -2.6021    0.9321 H   0  0  0  0  0  0  0  0  0  0  0  0
  5  6  2  0  0  0  0
  5  7  1  0  0  0  0
  2  3  1  0  0  0  0
  2  4  1  0  0  0  0
  2  5  1  0  0  0  0
  1  2  1  0  0  0  0
 26 27  2  0  0  0  0
 26 28  1  0  0  0  0
 23 24  1  0  0  0  0
 23 25  1  0  0  0  0
 20 21  1  0  0  0  0
 20 22  1  0  0  0  0
 20 23  1  0  0  0  0
 17 18  1  0  0  0  0
 17 19  1  0  0  0  0
 17 20  1  0  0  0  0
 14 15  1  0  0  0  0
 14 16  1  0  0  0  0
 14 17  1  0  0  0  0
 11 12  1  0  0  0  0
 11 13  1  0  0  0  0
 11 14  1  0  0  0  0
  9 10  1  0  0  0  0
  9 11  1  0  0  0  0
  9 26  1  0  0  0  0
  7  8  1  0  0  0  0
  7  9  1  0  0  0  0
 30 31  1  0  0  0  0
 30 32  1  0  0  0  0
 30 33  1  0  0  0  0
 28 29  1  0  0  0  0
 28 30  1  0  0  0  0
M  END
$$$$
default_name
  -OEChem-01062215323D

 33 32  0     1  0  0  0  0  0999 V2000
   -3.8420   -3.6918    1.5562 H   0  0  0  0  0  0  0  0  0  0  0  0
   -3.8430   -2.7008    1.1032 C   0  0  0  0  0  0  0  0  0  0  0  0
   -4.5510   -2.0608    1.6242 H   0  0  0  0  0  0  0  0  0  0  0  0
   -4.1140   -2.7798    0.0522 H   0  0  0  0  0  0  0  0  0  0  0  0
   -2.4570   -2.1098    1.2172 C   0  0  0  0  0  0  0  0  0  0  0  0
   -1.5600   -2.7438    1.7572 O   0  0  0  0  0  0  0  0  0  0  0  0
   -2.2870   -0.8898    0.7102 N   0  0  0  0  0  0  0  0  0  0  0  0
   -3.0820   -0.4218    0.2992 H   0  0  0  0  0  0  0  0  0  0  0  0
   -1.0240   -0.1468    0.7262 C   0  0  1  0  0  0  0  0  0  0  0  0
   -1.0918    0.6682    0.0042 H   0  0  0  0  0  0  0  0  0  0  0  0
   -0.8212    0.4541    2.1307 C   0  0  0  0  0  0  0  0  0  0  0  0
   -0.9294   -0.3436    2.8684 H   0  0  0  0  0  0  0  0  0  0  0  0
    0.1907    0.8544    2.2080 H   0  0  0  0  0  0  0  0  0  0  0  0
   -1.8312    1.5614    2.4701 C   0  0  0  0  0  0  0  0  0  0  0  0
   -1.7520    2.3659    1.7384 H   0  0  0  0  0  0  0  0  0  0  0  0
   -2.8410    1.1480    2.4389 H   0  0  0  0  0  0  0  0  0  0  0  0
   -1.5648    2.1362    3.8659 C   0  0  0  0  0  0  0  0  0  0  0  0
   -1.6329    1.3409    4.6089 H   0  0  0  0  0  0  0  0  0  0  0  0
   -0.5656    2.5718    3.8951 H   0  0  0  0  0  0  0  0  0  0  0  0
   -2.5964    3.2158    4.1876 C   0  0  0  0  0  0  0  0  0  0  0  0
   -2.5177    4.0199    3.4577 H   0  0  0  0  0  0  0  0  0  0  0  0
   -3.5960    2.7866    4.1415 H   0  0  0  0  0  0  0  0  0  0  0  0
   -2.3844    3.7718    5.5289 N   0  0  0  0  0  0  0  0  0  0  0  0
   -3.0729    4.4895    5.7019 H   0  0  0  0  0  0  0  0  0  0  0  0
   -2.4880    3.0358    6.2129 H   0  0  0  0  0  0  0  0  0  0  0  0
    0.1370   -1.0659    0.3123 C   0  0  0  0  0  0  0  0  0  0  0  0
    0.0134   -1.8196   -0.6507 O   0  0  0  0  0  0  0  0  0  0  0  0
    1.2545   -1.0073    1.0460 N   0  0  0  0  0  0  0  0  0  0  0  0
    1.2831   -0.3530    1.8106 H   0  0  0  0  0  0  0  0  0  0  0  0
    2.4398   -1.8254    0.7942 C   0  0  0  0  0  0  0  0  0  0  0  0
    2.7717   -1.6868   -0.2371 H   0  0  0  0  0  0  0  0  0  0  0  0
    3.2464   -1.5442    1.4728 H   0  0  0  0  0  0  0  0  0  0  0  0
    2.1959   -2.8798    0.9401 H   0  0  0  0  0  0  0  0  0  0  0  0
  5  6  2  0  0  0  0
  5  7  1  0  0  0  0
  2  3  1  0  0  0  0
  2  4  1  0  0  0  0
  2  5  1  0  0  0  0
  1  2  1  0  0  0  0
 26 27  2  0  0  0  0
 26 28  1  0  0  0  0
 23 24  1  0  0  0  0
 23 25  1  0  0  0  0
 20 21  1  0  0  0  0
 20 22  1  0  0  0  0
 20 23  1  0  0  0  0
 17 18  1  0  0  0  0
 17 19  1  0  0  0  0
 17 20  1  0  0  0  0
 14 15  1  0  0  0  0
 14 16  1  0  0  0  0
 14 17  1  0  0  0  0
 11 12  1  0  0  0  0
 11 13  1  0  0  0  0
 11 14  1  0  0  0  0
  9 10  1  0  0  0  0
  9 11  1  0  0  0  0
  9 26  1  0  0  0  0
  7  8  1  0  0  0  0
  7  9  1  0  0  0  0
 30 31  1  0  0  0  0
 30 32  1  0  0  0  0
 30 33  1  0  0  0  0
 28 29  1  0  0  0  0
 28 30  1  0  0  0  0
M  END
$$$$
default_name
  -OEChem-01062215323D

 33 32  0     1  0  0  0  0  0999 V2000
   -3.8420   -3.6918    1.5562 H   0  0  0  0  0  0  0  0  0  0  0  0
   -3.8430   -2.7008    1.1032 C   0  0  0  0  0  0  0  0  0  0  0  0
   -4.5510   -2.0608    1.6242 H   0  0  0  0  0  0  0  0  0  0  0  0
   -4.1140   -2.7798    0.0522 H   0  0  0  0  0  0  0  0  0  0  0  0
   -2.4570   -2.1098    1.2172 C   0  0  0  0  0  0  0  0  0  0  0  0
   -1.5600   -2.7438    1.7572 O   0  0  0  0  0  0  0  0  0  0  0  0
   -2.2870   -0.8898    0.7102 N   0  0  0  0  0  0  0  0  0  0  0  0
   -3.0820   -0.4218    0.2992 H   0  0  0  0  0  0  0  0  0  0  0  0
   -1.0240   -0.1468    0.7262 C   0  0  1  0  0  0  0  0  0  0  0  0
   -1.0918    0.6682    0.0042 H   0  0  0  0  0  0  0  0  0  0  0  0
   -0.8212    0.4541    2.1307 C   0  0  0  0  0  0  0  0  0  0  0  0
   -0.9294   -0.3436    2.8684 H   0  0  0  0  0  0  0  0  0  0  0  0
    0.1907    0.8544    2.2080 H   0  0  0  0  0  0  0  0  0  0  0  0
   -1.8312    1.5614    2.4701 C   0  0  0  0  0  0  0  0  0  0  0  0
   -1.7520    2.3659    1.7384 H   0  0  0  0  0  0  0  0  0  0  0  0
   -2.8410    1.1480    2.4389 H   0  0  0  0  0  0  0  0  0  0  0  0
   -1.5648    2.1362    3.8659 C   0  0  0  0  0  0  0  0  0  0  0  0
   -1.6329    1.3409    4.6089 H   0  0  0  0  0  0  0  0  0  0  0  0
   -0.5656    2.5718    3.8951 H   0  0  0  0  0  0  0  0  0  0  0  0
   -2.5964    3.2158    4.1876 C   0  0  0  0  0  0  0  0  0  0  0  0
   -2.5177    4.0199    3.4577 H   0  0  0  0  0  0  0  0  0  0  0  0
   -3.5960    2.7866    4.1415 H   0  0  0  0  0  0  0  0  0  0  0  0
   -2.3844    3.7718    5.5289 N   0  0  0  0  0  0  0  0  0  0  0  0
   -3.0729    4.4895    5.7019 H   0  0  0  0  0  0  0  0  0  0  0  0
   -2.4880    3.0358    6.2129 H   0  0  0  0  0  0  0  0  0  0  0  0
    0.1370   -1.0659    0.3123 C   0  0  0  0  0  0  0  0  0  0  0  0
    0.1300   -1.6097   -0.7900 O   0  0  0  0  0  0  0  0  0  0  0  0
    1.1227   -1.2430    1.1997 N   0  0  0  0  0  0  0  0  0  0  0  0
    1.0628   -0.7507    2.0759 H   0  0  0  0  0  0  0  0  0  0  0  0
    2.2870   -2.0962    0.9667 C   0  0  0  0  0  0  0  0  0  0  0  0
    2.7882   -1.7929    0.0449 H   0  0  0  0  0  0  0  0  0  0  0  0
    2.9873   -2.0186    1.7996 H   0  0  0  0  0  0  0  0  0  0  0  0
    1.9658   -3.1344    0.8601 H   0  0  0  0  0  0  0  0  0  0  0  0
  5  6  2  0  0  0  0
  5  7  1  0  0  0  0
  2  3  1  0  0  0  0
  2  4  1  0  0  0  0
  2  5  1  0  0  0  0
  1  2  1  0  0  0  0
 26 27  2  0  0  0  0
 26 28  1  0  0  0  0
 23 24  1  0  0  0  0
 23 25  1  0  0  0  0
 20 21  1  0  0  0  0
 20 22  1  0  0  0  0
 20 23  1  0  0  0  0
 17 18  1  0  0  0  0
 17 19  1  0  0  0  0
 17 20  1  0  0  0  0
 14 15  1  0  0  0  0
 14 16  1  0  0  0  0
 14 17  1  0  0  0  0
 11 12  1  0  0  0  0
 11 13  1  0  0  0  0
 11 14  1  0  0  0  0
  9 10  1  0  0  0  0
  9 11  1  0  0  0  0
  9 26  1  0  0  0  0
  7  8  1  0  0  0  0
  7  9  1  0  0  0  0
 30 31  1  0  0  0  0
 30 32  1  0  0  0  0
 30 33  1  0  0  0  0
 28 29  1  0  0  0  0
 28 30  1  0  0  0  0
M  END
$$$$
default_name
  -OEChem-01062215323D

 33 32  0     1  0  0  0  0  0999 V2000
   -3.8420   -3.6918    1.5562 H   0  0  0  0  0  0  0  0  0  0  0  0
   -3.8430   -2.7008    1.1032 C   0  0  0  0  0  0  0  0  0  0  0  0
   -4.5510   -2.0608    1.6242 H   0  0  0  0  0  0  0  0  0  0  0  0
   -4.1140   -2.7798    0.0522 H   0  0  0  0  0  0  0  0  0  0  0  0
   -2.4570   -2.1098    1.2172 C   0  0  0  0  0  0  0  0  0  0  0  0
   -1.5600   -2.7438    1.7572 O   0  0  0  0  0  0  0  0  0  0  0  0
   -2.2870   -0.8898    0.7102 N   0  0  0  0  0  0  0  0  0  0  0  0
   -3.0820   -0.4218    0.2992 H   0  0  0  0  0  0  0  0  0  0  0  0
   -1.0240   -0.1468    0.7262 C   0  0  1  0  0  0  0  0  0  0  0  0
   -1.0918    0.6682    0.0042 H   0  0  0  0  0  0  0  0  0  0  0  0
   -0.8212    0.4541    2.1307 C   0  0  0  0  0  0  0  0  0  0  0  0
   -0.9294   -0.3436    2.8684 H   0  0  0  0  0  0  0  0  0  0  0  0
    0.1907    0.8544    2.2080 H   0  0  0  0  0  0  0  0  0  0  0  0
   -1.8312    1.5614    2.4701 C   0  0  0  0  0  0  0  0  0  0  0  0
   -1.7520    2.3659    1.7384 H   0  0  0  0  0  0  0  0  0  0  0  0
   -2.8410    1.1480    2.4389 H   0  0  0  0  0  0  0  0  0  0  0  0
   -1.5648    2.1362    3.8659 C   0  0  0  0  0  0  0  0  0  0  0  0
   -1.6329    1.3409    4.6089 H   0  0  0  0  0  0  0  0  0  0  0  0
   -0.5656    2.5718    3.8951 H   0  0  0  0  0  0  0  0  0  0  0  0
   -2.5964    3.2158    4.1876 C   0  0  0  0  0  0  0  0  0  0  0  0
   -2.5177    4.0199    3.4577 H   0  0  0  0  0  0  0  0  0  0  0  0
   -3.5960    2.7866    4.1415 H   0  0  0  0  0  0  0  0  0  0  0  0
   -2.3844    3.7718    5.5289 N   0  0  0  0  0  0  0  0  0  0  0  0
   -3.0729    4.4895    5.7019 H   0  0  0  0  0  0  0  0  0  0  0  0
   -2.4880    3.0358    6.2129 H   0  0  0  0  0  0  0  0  0  0  0  0
    0.1370   -1.0659    0.3123 C   0  0  0  0  0  0  0  0  0  0  0  0
    0.2787   -1.3878   -0.8655 O   0  0  0  0  0  0  0  0  0  0  0  0
    0.9552   -1.4915    1.2818 N   0  0  0  0  0  0  0  0  0  0  0  0
    0.7813   -1.1713    2.2203 H   0  0  0  0  0  0  0  0  0  0  0  0
    2.0938   -2.3808    1.0567 C   0  0  0  0  0  0  0  0  0  0  0  0
    2.7531   -1.9516    0.2991 H   0  0  0  0  0  0  0  0  0  0  0  0
    2.6534   -2.5227    1.9824 H   0  0  0  0  0  0  0  0  0  0  0  0
    1.7382   -3.3487    0.6975 H   0  0  0  0  0  0  0  0  0  0  0  0
  5  6  2  0  0  0  0
  5  7  1  0  0  0  0
  2  3  1  0  0  0  0
  2  4  1  0  0  0  0
  2  5  1  0  0  0  0
  1  2  1  0  0  0  0
 26 27  2  0  0  0  0
 26 28  1  0  0  0  0
 23 24  1  0  0  0  0
 23 25  1  0  0  0  0
 20 21  1  0  0  0  0
 20 22  1  0  0  0  0
 20 23  1  0  0  0  0
 17 18  1  0  0  0  0
 17 19  1  0  0  0  0
 17 20  1  0  0  0  0
 14 15  1  0  0  0  0
 14 16  1  0  0  0  0
 14 17  1  0  0  0  0
 11 12  1  0  0  0  0
 11 13  1  0  0  0  0
 11 14  1  0  0  0  0
  9 10  1  0  0  0  0
  9 11  1  0  0  0  0
  9 26  1  0  0  0  0
  7  8  1  0  0  0  0
  7  9  1  0  0  0  0
 30 31  1  0  0  0  0
 30 32  1  0  0  0  0
 30 33  1  0  0  0  0
 28 29  1  0  0  0  0
 28 30  1  0  0  0  0
M  END
$$$$
default_name
  -OEChem-01062215323D

 33 32  0     1  0  0  0  0  0999 V2000
   -3.8420   -3.6918    1.5562 H   0  0  0  0  0  0  0  0  0  0  0  0
   -3.8430   -2.7008    1.1032 C   0  0  0  0  0  0  0  0  0  0  0  0
   -4.5510   -2.0608    1.6242 H   0  0  0  0  0  0  0  0  0  0  0  0
   -4.1140   -2.7798    0.0522 H   0  0  0  0  0  0  0  0  0  0  0  0
   -2.4570   -2.1098    1.2172 C   0  0  0  0  0  0  0  0  0  0  0  0
   -1.5600   -2.7438    1.7572 O   0  0  0  0  0  0  0  0  0  0  0  0
   -2.2870   -0.8898    0.7102 N   0  0  0  0  0  0  0  0  0  0  0  0
   -3.0820   -0.4218    0.2992 H   0  0  0  0  0  0  0  0  0  0  0  0
   -1.0240   -0.1468    0.7262 C   0  0  1  0  0  0  0  0  0  0  0  0
   -1.0918    0.6682    0.0042 H   0  0  0  0  0  0  0  0  0  0  0  0
   -0.8212    0.4541    2.1307 C   0  0  0  0  0  0  0  0  0  0  0  0
   -0.9294   -0.3436    2.8684 H   0  0  0  0  0  0  0  0  0  0  0  0
    0.1907    0.8544    2.2080 H   0  0  0  0  0  0  0  0  0  0  0  0
   -1.8312    1.5614    2.4701 C   0  0  0  0  0  0  0  0  0  0  0  0
   -1.7520    2.3659    1.7384 H   0  0  0  0  0  0  0  0  0  0  0  0
   -2.8410    1.1480    2.4389 H   0  0  0  0  0  0  0  0  0  0  0  0
   -1.5648    2.1362    3.8659 C   0  0  0  0  0  0  0  0  0  0  0  0
   -1.6329    1.3409    4.6089 H   0  0  0  0  0  0  0  0  0  0  0  0
   -0.5656    2.5718    3.8951 H   0  0  0  0  0  0  0  0  0  0  0  0
   -2.5964    3.2158    4.1876 C   0  0  0  0  0  0  0  0  0  0  0  0
   -2.5177    4.0199    3.4577 H   0  0  0  0  0  0  0  0  0  0  0  0
   -3.5960    2.7866    4.1415 H   0  0  0  0  0  0  0  0  0  0  0  0
   -2.3844    3.7718    5.5289 N   0  0  0  0  0  0  0  0  0  0  0  0
   -3.0729    4.4895    5.7019 H   0  0  0  0  0  0  0  0  0  0  0  0
   -2.4880    3.0358    6.2129 H   0  0  0  0  0  0  0  0  0  0  0  0
    0.1370   -1.0659    0.3123 C   0  0  0  0  0  0  0  0  0  0  0  0
    0.4495   -1.1691   -0.8720 O   0  0  0  0  0  0  0  0  0  0  0  0
    0.7634   -1.7359    1.2865 N   0  0  0  0  0  0  0  0  0  0  0  0
    0.4578   -1.5862    2.2340 H   0  0  0  0  0  0  0  0  0  0  0  0
    1.8734   -2.6598    1.0582 C   0  0  0  0  0  0  0  0  0  0  0  0
    2.6689   -2.1522    0.5082 H   0  0  0  0  0  0  0  0  0  0  0  0
    2.2675   -3.0220    2.0088 H   0  0  0  0  0  0  0  0  0  0  0  0
    1.5285   -3.5081    0.4633 H   0  0  0  0  0  0  0  0  0  0  0  0
  5  6  2  0  0  0  0
  5  7  1  0  0  0  0
  2  3  1  0  0  0  0
  2  4  1  0  0  0  0
  2  5  1  0  0  0  0
  1  2  1  0  0  0  0
 26 27  2  0  0  0  0
 26 28  1  0  0  0  0
 23 24  1  0  0  0  0
 23 25  1  0  0  0  0
 20 21  1  0  0  0  0
 20 22  1  0  0  0  0
 20 23  1  0  0  0  0
 17 18  1  0  0  0  0
 17 19  1  0  0  0  0
 17 20  1  0  0  0  0
 14 15  1  0  0  0  0
 14 16  1  0  0  0  0
 14 17  1  0  0  0  0
 11 12  1  0  0  0  0
 11 13  1  0  0  0  0
 11 14  1  0  0  0  0
  9 10  1  0  0  0  0
  9 11  1  0  0  0  0
  9 26  1  0  0  0  0
  7  8  1  0  0  0  0
  7  9  1  0  0  0  0
 30 31  1  0  0  0  0
 30 32  1  0  0  0  0
 30 33  1  0  0  0  0
 28 29  1  0  0  0  0
 28 30  1  0  0  0  0
M  END
$$$$
default_name
  -OEChem-01062215323D

 33 32  0     1  0  0  0  0  0999 V2000
   -3.8420   -3.6918    1.5562 H   0  0  0  0  0  0  0  0  0  0  0  0
   -3.8430   -2.7008    1.1032 C   0  0  0  0  0  0  0  0  0  0  0  0
   -4.5510   -2.0608    1.6242 H   0  0  0  0  0  0  0  0  0  0  0  0
   -4.1140   -2.7798    0.0522 H   0  0  0  0  0  0  0  0  0  0  0  0
   -2.4570   -2.1098    1.2172 C   0  0  0  0  0  0  0  0  0  0  0  0
   -1.5600   -2.7438    1.7572 O   0  0  0  0  0  0  0  0  0  0  0  0
   -2.2870   -0.8898    0.7102 N   0  0  0  0  0  0  0  0  0  0  0  0
   -3.0820   -0.4218    0.2992 H   0  0  0  0  0  0  0  0  0  0  0  0
   -1.0240   -0.1468    0.7262 C   0  0  1  0  0  0  0  0  0  0  0  0
   -1.0918    0.6682    0.0042 H   0  0  0  0  0  0  0  0  0  0  0  0
   -0.8212    0.4541    2.1307 C   0  0  0  0  0  0  0  0  0  0  0  0
   -0.9294   -0.3436    2.8684 H   0  0  0  0  0  0  0  0  0  0  0  0
    0.1907    0.8544    2.2080 H   0  0  0  0  0  0  0  0  0  0  0  0
   -1.8312    1.5614    2.4701 C   0  0  0  0  0  0  0  0  0  0  0  0
   -1.7520    2.3659    1.7384 H   0  0  0  0  0  0  0  0  0  0  0  0
   -2.8410    1.1480    2.4389 H   0  0  0  0  0  0  0  0  0  0  0  0
   -1.5648    2.1362    3.8659 C   0  0  0  0  0  0  0  0  0  0  0  0
   -1.6329    1.3409    4.6089 H   0  0  0  0  0  0  0  0  0  0  0  0
   -0.5656    2.5718    3.8951 H   0  0  0  0  0  0  0  0  0  0  0  0
   -2.5964    3.2158    4.1876 C   0  0  0  0  0  0  0  0  0  0  0  0
   -2.5177    4.0199    3.4577 H   0  0  0  0  0  0  0  0  0  0  0  0
   -3.5960    2.7866    4.1415 H   0  0  0  0  0  0  0  0  0  0  0  0
   -2.3844    3.7718    5.5289 N   0  0  0  0  0  0  0  0  0  0  0  0
   -3.0729    4.4895    5.7019 H   0  0  0  0  0  0  0  0  0  0  0  0
   -2.4880    3.0358    6.2129 H   0  0  0  0  0  0  0  0  0  0  0  0
    0.1370   -1.0659    0.3123 C   0  0  0  0  0  0  0  0  0  0  0  0
    0.6308   -0.9684   -0.8091 O   0  0  0  0  0  0  0  0  0  0  0  0
    0.5604   -1.9596    1.2137 N   0  0  0  0  0  0  0  0  0  0  0  0
    0.1142   -1.9671    2.1161 H   0  0  0  0  0  0  0  0  0  0  0  0
    1.6409   -2.9143    0.9710 C   0  0  0  0  0  0  0  0  0  0  0  0
    2.5412   -2.3809    0.6579 H   0  0  0  0  0  0  0  0  0  0  0  0
    1.8559   -3.4827    1.8770 H   0  0  0  0  0  0  0  0  0  0  0  0
    1.3512   -3.6016    0.1735 H   0  0  0  0  0  0  0  0  0  0  0  0
  5  6  2  0  0  0  0
  5  7  1  0  0  0  0
  2  3  1  0  0  0  0
  2  4  1  0  0  0  0
  2  5  1  0  0  0  0
  1  2  1  0  0  0  0
 26 27  2  0  0  0  0
 26 28  1  0  0  0  0
 23 24  1  0  0  0  0
 23 25  1  0  0  0  0
 20 21  1  0  0  0  0
 20 22  1  0  0  0  0
 20 23  1  0  0  0  0
 17 18  1  0  0  0  0
 17 19  1  0  0  0  0
 17 20  1  0  0  0  0
 14 15  1  0  0  0  0
 14 16  1  0  0  0  0
 14 17  1  0  0  0  0
 11 12  1  0  0  0  0
 11 13  1  0  0  0  0
 11 14  1  0  0  0  0
  9 10  1  0  0  0  0
  9 11  1  0  0  0  0
  9 26  1  0  0  0  0
  7  8  1  0  0  0  0
  7  9  1  0  0  0  0
 30 31  1  0  0  0  0
 30 32  1  0  0  0  0
 30 33  1  0  0  0  0
 28 29  1  0  0  0  0
 28 30  1  0  0  0  0
M  END
$$$$
default_name
  -OEChem-01062215323D

 33 32  0     1  0  0  0  0  0999 V2000
   -3.8420   -3.6918    1.5562 H   0  0  0  0  0  0  0  0  0  0  0  0
   -3.8430   -2.7008    1.1032 C   0  0  0  0  0  0  0  0  0  0  0  0
   -4.5510   -2.0608    1.6242 H   0  0  0  0  0  0  0  0  0  0  0  0
   -4.1140   -2.7798    0.0522 H   0  0  0  0  0  0  0  0  0  0  0  0
   -2.4570   -2.1098    1.2172 C   0  0  0  0  0  0  0  0  0  0  0  0
   -1.5600   -2.7438    1.7572 O   0  0  0  0  0  0  0  0  0  0  0  0
   -2.2870   -0.8898    0.7102 N   0  0  0  0  0  0  0  0  0  0  0  0
   -3.0820   -0.4218    0.2992 H   0  0  0  0  0  0  0  0  0  0  0  0
   -1.0240   -0.1468    0.7262 C   0  0  1  0  0  0  0  0  0  0  0  0
   -1.0918    0.6682    0.0042 H   0  0  0  0  0  0  0  0  0  0  0  0
   -0.8212    0.4541    2.1307 C   0  0  0  0  0  0  0  0  0  0  0  0
   -0.9294   -0.3436    2.8684 H   0  0  0  0  0  0  0  0  0  0  0  0
    0.1907    0.8544    2.2080 H   0  0  0  0  0  0  0  0  0  0  0  0
   -1.8312    1.5614    2.4701 C   0  0  0  0  0  0  0  0  0  0  0  0
   -1.7520    2.3659    1.7384 H   0  0  0  0  0  0  0  0  0  0  0  0
   -2.8410    1.1480    2.4389 H   0  0  0  0  0  0  0  0  0  0  0  0
   -1.5648    2.1362    3.8659 C   0  0  0  0  0  0  0  0  0  0  0  0
   -1.6329    1.3409    4.6089 H   0  0  0  0  0  0  0  0  0  0  0  0
   -0.5656    2.5718    3.8951 H   0  0  0  0  0  0  0  0  0  0  0  0
   -2.5964    3.2158    4.1876 C   0  0  0  0  0  0  0  0  0  0  0  0
   -2.5177    4.0199    3.4577 H   0  0  0  0  0  0  0  0  0  0  0  0
   -3.5960    2.7866    4.1415 H   0  0  0  0  0  0  0  0  0  0  0  0
   -2.3844    3.7718    5.5289 N   0  0  0  0  0  0  0  0  0  0  0  0
   -3.0729    4.4895    5.7019 H   0  0  0  0  0  0  0  0  0  0  0  0
   -2.4880    3.0358    6.2129 H   0  0  0  0  0  0  0  0  0  0  0  0
    0.1370   -1.0659    0.3123 C   0  0  0  0  0  0  0  0  0  0  0  0
    0.8101   -0.7995   -0.6811 O   0  0  0  0  0  0  0  0  0  0  0  0
    0.3600   -2.1472    1.0682 N   0  0  0  0  0  0  0  0  0  0  0  0
   -0.2260   -2.2881    1.8747 H   0  0  0  0  0  0  0  0  0  0  0  0
    1.4121   -3.1268    0.8010 C   0  0  0  0  0  0  0  0  0  0  0  0
    2.3787   -2.6223    0.7380 H   0  0  0  0  0  0  0  0  0  0  0  0
    1.4466   -3.8731    1.5960 H   0  0  0  0  0  0  0  0  0  0  0  0
    1.2182   -3.6230   -0.1522 H   0  0  0  0  0  0  0  0  0  0  0  0
  5  6  2  0  0  0  0
  5  7  1  0  0  0  0
  2  3  1  0  0  0  0
  2  4  1  0  0  0  0
  2  5  1  0  0  0  0
  1  2  1  0  0  0  0
 26 27  2  0  0  0  0
 26 28  1  0  0  0  0
 23 24  1  0  0  0  0
 23 25  1  0  0  0  0
 20 21  1  0  0  0  0
 20 22  1  0  0  0  0
 20 23  1  0  0  0  0
 17 18  1  0  0  0  0
 17 19  1  0  0  0  0
 17 20  1  0  0  0  0
 14 15  1  0  0  0  0
 14 16  1  0  0  0  0
 14 17  1  0  0  0  0
 11 12  1  0  0  0  0
 11 13  1  0  0  0  0
 11 14  1  0  0  0  0
  9 10  1  0  0  0  0
  9 11  1  0  0  0  0
  9 26  1  0  0  0  0
  7  8  1  0  0  0  0
  7  9  1  0  0  0  0
 30 31  1  0  0  0  0
 30 32  1  0  0  0  0
 30 33  1  0  0  0  0
 28 29  1  0  0  0  0
 28 30  1  0  0  0  0
M  END
$$$$
default_name
  -OEChem-01062215323D

 33 32  0     1  0  0  0  0  0999 V2000
   -3.8420   -3.6918    1.5562 H   0  0  0  0  0  0  0  0  0  0  0  0
   -3.8430   -2.7008    1.1032 C   0  0  0  0  0  0  0  0  0  0  0  0
   -4.5510   -2.0608    1.6242 H   0  0  0  0  0  0  0  0  0  0  0  0
   -4.1140   -2.7798    0.0522 H   0  0  0  0  0  0  0  0  0  0  0  0
   -2.4570   -2.1098    1.2172 C   0  0  0  0  0  0  0  0  0  0  0  0
   -1.5600   -2.7438    1.7572 O   0  0  0  0  0  0  0  0  0  0  0  0
   -2.2870   -0.8898    0.7102 N   0  0  0  0  0  0  0  0  0  0  0  0
   -3.0820   -0.4218    0.2992 H   0  0  0  0  0  0  0  0  0  0  0  0
   -1.0240   -0.1468    0.7262 C   0  0  1  0  0  0  0  0  0  0  0  0
   -1.0918    0.6682    0.0042 H   0  0  0  0  0  0  0  0  0  0  0  0
   -0.8212    0.4541    2.1307 C   0  0  0  0  0  0  0  0  0  0  0  0
   -0.9294   -0.3436    2.8684 H   0  0  0  0  0  0  0  0  0  0  0  0
    0.1907    0.8544    2.2080 H   0  0  0  0  0  0  0  0  0  0  0  0
   -1.8312    1.5614    2.4701 C   0  0  0  0  0  0  0  0  0  0  0  0
   -1.7520    2.3659    1.7384 H   0  0  0  0  0  0  0  0  0  0  0  0
   -2.8410    1.1480    2.4389 H   0  0  0  0  0  0  0  0  0  0  0  0
   -1.5648    2.1362    3.8659 C   0  0  0  0  0  0  0  0  0  0  0  0
   -1.6329    1.3409    4.6089 H   0  0  0  0  0  0  0  0  0  0  0  0
   -0.5656    2.5718    3.8951 H   0  0  0  0  0  0  0  0  0  0  0  0
   -2.5964    3.2158    4.1876 C   0  0  0  0  0  0  0  0  0  0  0  0
   -2.5177    4.0199    3.4577 H   0  0  0  0  0  0  0  0  0  0  0  0
   -3.5960    2.7866    4.1415 H   0  0  0  0  0  0  0  0  0  0  0  0
   -2.3844    3.7718    5.5289 N   0  0  0  0  0  0  0  0  0  0  0  0
   -3.0729    4.4895    5.7019 H   0  0  0  0  0  0  0  0  0  0  0  0
   -2.4880    3.0358    6.2129 H   0  0  0  0  0  0  0  0  0  0  0  0
    0.1370   -1.0659    0.3123 C   0  0  0  0  0  0  0  0  0  0  0  0
    0.9753   -0.6739   -0.4967 O   0  0  0  0  0  0  0  0  0  0  0  0
    0.1759   -2.2861    0.8600 N   0  0  0  0  0  0  0  0  0  0  0  0
   -0.5396   -2.5272    1.5261 H   0  0  0  0  0  0  0  0  0  0  0  0
    1.2025   -3.2830    0.5599 C   0  0  0  0  0  0  0  0  0  0  0  0
    2.1926   -2.8597    0.7432 H   0  0  0  0  0  0  0  0  0  0  0  0
    1.0676   -4.1669    1.1849 H   0  0  0  0  0  0  0  0  0  0  0  0
    1.1386   -3.5707   -0.4915 H   0  0  0  0  0  0  0  0  0  0  0  0
  5  6  2  0  0  0  0
  5  7  1  0  0  0  0
  2  3  1  0  0  0  0
  2  4  1  0  0  0  0
  2  5  1  0  0  0  0
  1  2  1  0  0  0  0
 26 27  2  0  0  0  0
 26 28  1  0  0  0  0
 23 24  1  0  0  0  0
 23 25  1  0  0  0  0
 20 21  1  0  0  0  0
 20 22  1  0  0  0  0
 20 23  1  0  0  0  0
 17 18  1  0  0  0  0
 17 19  1  0  0  0  0
 17 20  1  0  0  0  0
 14 15  1  0  0  0  0
 14 16  1  0  0  0  0
 14 17  1  0  0  0  0
 11 12  1  0  0  0  0
 11 13  1  0  0  0  0
 11 14  1  0  0  0  0
  9 10  1  0  0  0  0
  9 11  1  0  0  0  0
  9 26  1  0  0  0  0
  7  8  1  0  0  0  0
  7  9  1  0  0  0  0
 30 31  1  0  0  0  0
 30 32  1  0  0  0  0
 30 33  1  0  0  0  0
 28 29  1  0  0  0  0
 28 30  1  0  0  0  0
M  END
$$$$
default_name
  -OEChem-01062215323D

 33 32  0     1  0  0  0  0  0999 V2000
   -3.8420   -3.6918    1.5562 H   0  0  0  0  0  0  0  0  0  0  0  0
   -3.8430   -2.7008    1.1032 C   0  0  0  0  0  0  0  0  0  0  0  0
   -4.5510   -2.0608    1.6242 H   0  0  0  0  0  0  0  0  0  0  0  0
   -4.1140   -2.7798    0.0522 H   0  0  0  0  0  0  0  0  0  0  0  0
   -2.4570   -2.1098    1.2172 C   0  0  0  0  0  0  0  0  0  0  0  0
   -1.5600   -2.7438    1.7572 O   0  0  0  0  0  0  0  0  0  0  0  0
   -2.2870   -0.8898    0.7102 N   0  0  0  0  0  0  0  0  0  0  0  0
   -3.0820   -0.4218    0.2992 H   0  0  0  0  0  0  0  0  0  0  0  0
   -1.0240   -0.1468    0.7262 C   0  0  1  0  0  0  0  0  0  0  0  0
   -1.0918    0.6682    0.0042 H   0  0  0  0  0  0  0  0  0  0  0  0
   -0.8212    0.4541    2.1307 C   0  0  0  0  0  0  0  0  0  0  0  0
   -0.9294   -0.3436    2.8684 H   0  0  0  0  0  0  0  0  0  0  0  0
    0.1907    0.8544    2.2080 H   0  0  0  0  0  0  0  0  0  0  0  0
   -1.8312    1.5614    2.4701 C   0  0  0  0  0  0  0  0  0  0  0  0
   -1.7520    2.3659    1.7384 H   0  0  0  0  0  0  0  0  0  0  0  0
   -2.8410    1.1480    2.4389 H   0  0  0  0  0  0  0  0  0  0  0  0
   -1.5648    2.1362    3.8659 C   0  0  0  0  0  0  0  0  0  0  0  0
   -1.6329    1.3409    4.6089 H   0  0  0  0  0  0  0  0  0  0  0  0
   -0.5656    2.5718    3.8951 H   0  0  0  0  0  0  0  0  0  0  0  0
   -2.5964    3.2158    4.1876 C   0  0  0  0  0  0  0  0  0  0  0  0
   -2.5177    4.0199    3.4577 H   0  0  0  0  0  0  0  0  0  0  0  0
   -3.5960    2.7866    4.1415 H   0  0  0  0  0  0  0  0  0  0  0  0
   -2.3844    3.7718    5.5289 N   0  0  0  0  0  0  0  0  0  0  0  0
   -3.0729    4.4895    5.7019 H   0  0  0  0  0  0  0  0  0  0  0  0
   -2.4880    3.0358    6.2129 H   0  0  0  0  0  0  0  0  0  0  0  0
    0.1370   -1.0659    0.3123 C   0  0  0  0  0  0  0  0  0  0  0  0
    1.1151   -0.6001   -0.2685 O   0  0  0  0  0  0  0  0  0  0  0  0
    0.0205   -2.3667    0.6032 N   0  0  0  0  0  0  0  0  0  0  0  0
   -0.8052   -2.6682    1.0941 H   0  0  0  0  0  0  0  0  0  0  0  0
    1.0265   -3.3721    0.2641 C   0  0  0  0  0  0  0  0  0  0  0  0
    1.9954   -3.0771    0.6729 H   0  0  0  0  0  0  0  0  0  0  0  0
    0.7445   -4.3439    0.6718 H   0  0  0  0  0  0  0  0  0  0  0  0
    1.1179   -3.4483   -0.8213 H   0  0  0  0  0  0  0  0  0  0  0  0
  5  6  2  0  0  0  0
  5  7  1  0  0  0  0
  2  3  1  0  0  0  0
  2  4  1  0  0  0  0
  2  5  1  0  0  0  0
  1  2  1  0  0  0  0
 26 27  2  0  0  0  0
 26 28  1  0  0  0  0
 23 24  1  0  0  0  0
 23 25  1  0  0  0  0
 20 21  1  0  0  0  0
 20 22  1  0  0  0  0
 20 23  1  0  0  0  0
 17 18  1  0  0  0  0
 17 19  1  0  0  0  0
 17 20  1  0  0  0  0
 14 15  1  0  0  0  0
 14 16  1  0  0  0  0
 14 17  1  0  0  0  0
 11 12  1  0  0  0  0
 11 13  1  0  0  0  0
 11 14  1  0  0  0  0
  9 10  1  0  0  0  0
  9 11  1  0  0  0  0
  9 26  1  0  0  0  0
  7  8  1  0  0  0  0
  7  9  1  0  0  0  0
 30 31  1  0  0  0  0
 30 32  1  0  0  0  0
 30 33  1  0  0  0  0
 28 29  1  0  0  0  0
 28 30  1  0  0  0  0
M  END
$$$$
default_name
  -OEChem-01062215323D

 33 32  0     1  0  0  0  0  0999 V2000
   -3.8420   -3.6918    1.5562 H   0  0  0  0  0  0  0  0  0  0  0  0
   -3.8430   -2.7008    1.1032 C   0  0  0  0  0  0  0  0  0  0  0  0
   -4.5510   -2.0608    1.6242 H   0  0  0  0  0  0  0  0  0  0  0  0
   -4.1140   -2.7798    0.0522 H   0  0  0  0  0  0  0  0  0  0  0  0
   -2.4570   -2.1098    1.2172 C   0  0  0  0  0  0  0  0  0  0  0  0
   -1.5600   -2.7438    1.7572 O   0  0  0  0  0  0  0  0  0  0  0  0
   -2.2870   -0.8898    0.7102 N   0  0  0  0  0  0  0  0  0  0  0  0
   -3.0820   -0.4218    0.2992 H   0  0  0  0  0  0  0  0  0  0  0  0
   -1.0240   -0.1468    0.7262 C   0  0  1  0  0  0  0  0  0  0  0  0
   -1.0918    0.6682    0.0042 H   0  0  0  0  0  0  0  0  0  0  0  0
   -0.8212    0.4541    2.1307 C   0  0  0  0  0  0  0  0  0  0  0  0
   -0.9294   -0.3436    2.8684 H   0  0  0  0  0  0  0  0  0  0  0  0
    0.1907    0.8544    2.2080 H   0  0  0  0  0  0  0  0  0  0  0  0
   -1.8312    1.5614    2.4701 C   0  0  0  0  0  0  0  0  0  0  0  0
   -1.7520    2.3659    1.7384 H   0  0  0  0  0  0  0  0  0  0  0  0
   -2.8410    1.1480    2.4389 H   0  0  0  0  0  0  0  0  0  0  0  0
   -1.5648    2.1362    3.8659 C   0  0  0  0  0  0  0  0  0  0  0  0
   -1.6329    1.3409    4.6089 H   0  0  0  0  0  0  0  0  0  0  0  0
   -0.5656    2.5718    3.8951 H   0  0  0  0  0  0  0  0  0  0  0  0
   -2.5964    3.2158    4.1876 C   0  0  0  0  0  0  0  0  0  0  0  0
   -2.5177    4.0199    3.4577 H   0  0  0  0  0  0  0  0  0  0  0  0
   -3.5960    2.7866    4.1415 H   0  0  0  0  0  0  0  0  0  0  0  0
   -2.3844    3.7718    5.5289 N   0  0  0  0  0  0  0  0  0  0  0  0
   -3.0729    4.4895    5.7019 H   0  0  0  0  0  0  0  0  0  0  0  0
   -2.4880    3.0358    6.2129 H   0  0  0  0  0  0  0  0  0  0  0  0
    0.1370   -1.0659    0.3123 C   0  0  0  0  0  0  0  0  0  0  0  0
    1.2199   -0.5831   -0.0120 O   0  0  0  0  0  0  0  0  0  0  0  0
   -0.0954   -2.3836    0.3155 N   0  0  0  0  0  0  0  0  0  0  0  0
   -1.0047   -2.7015    0.6082 H   0  0  0  0  0  0  0  0  0  0  0  0
    0.8961   -3.3881   -0.0663 C   0  0  0  0  0  0  0  0  0  0  0  0
    1.8007   -3.2596    0.5321 H   0  0  0  0  0  0  0  0  0  0  0  0
    0.4996   -4.3921    0.0916 H   0  0  0  0  0  0  0  0  0  0  0  0
    1.1574   -3.2642   -1.1192 H   0  0  0  0  0  0  0  0  0  0  0  0
  5  6  2  0  0  0  0
  5  7  1  0  0  0  0
  2  3  1  0  0  0  0
  2  4  1  0  0  0  0
  2  5  1  0  0  0  0
  1  2  1  0  0  0  0
 26 27  2  0  0  0  0
 26 28  1  0  0  0  0
 23 24  1  0  0  0  0
 23 25  1  0  0  0  0
 20 21  1  0  0  0  0
 20 22  1  0  0  0  0
 20 23  1  0  0  0  0
 17 18  1  0  0  0  0
 17 19  1  0  0  0  0
 17 20  1  0  0  0  0
 14 15  1  0  0  0  0
 14 16  1  0  0  0  0
 14 17  1  0  0  0  0
 11 12  1  0  0  0  0
 11 13  1  0  0  0  0
 11 14  1  0  0  0  0
  9 10  1  0  0  0  0
  9 11  1  0  0  0  0
  9 26  1  0  0  0  0
  7  8  1  0  0  0  0
  7  9  1  0  0  0  0
 30 31  1  0  0  0  0
 30 32  1  0  0  0  0
 30 33  1  0  0  0  0
 28 29  1  0  0  0  0
 28 30  1  0  0  0  0
M  END
$$$$
default_name
  -OEChem-01062215323D

 33 32  0     1  0  0  0  0  0999 V2000
   -3.8420   -3.6918    1.5562 H   0  0  0  0  0  0  0  0  0  0  0  0
   -3.8430   -2.7008    1.1032 C   0  0  0  0  0  0  0  0  0  0  0  0
   -4.5510   -2.0608    1.6242 H   0  0  0  0  0  0  0  0  0  0  0  0
   -4.1140   -2.7798    0.0522 H   0  0  0  0  0  0  0  0  0  0  0  0
   -2.4570   -2.1098    1.2172 C   0  0  0  0  0  0  0  0  0  0  0  0
   -1.5600   -2.7438    1.7572 O   0  0  0  0  0  0  0  0  0  0  0  0
   -2.2870   -0.8898    0.7102 N   0  0  0  0  0  0  0  0  0  0  0  0
   -3.0820   -0.4218    0.2992 H   0  0  0  0  0  0  0  0  0  0  0  0
   -1.0240   -0.1468    0.7262 C   0  0  1  0  0  0  0  0  0  0  0  0
   -1.0918    0.6682    0.0042 H   0  0  0  0  0  0  0  0  0  0  0  0
   -0.8212    0.4541    2.1307 C   0  0  0  0  0  0  0  0  0  0  0  0
   -0.9294   -0.3436    2.8684 H   0  0  0  0  0  0  0  0  0  0  0  0
    0.1907    0.8544    2.2080 H   0  0  0  0  0  0  0  0  0  0  0  0
   -1.8312    1.5614    2.4701 C   0  0  0  0  0  0  0  0  0  0  0  0
   -1.7520    2.3659    1.7384 H   0  0  0  0  0  0  0  0  0  0  0  0
   -2.8410    1.1480    2.4389 H   0  0  0  0  0  0  0  0  0  0  0  0
   -1.5648    2.1362    3.8659 C   0  0  0  0  0  0  0  0  0  0  0  0
   -1.6329    1.3409    4.6089 H   0  0  0  0  0  0  0  0  0  0  0  0
   -0.5656    2.5718    3.8951 H   0  0  0  0  0  0  0  0  0  0  0  0
   -2.5964    3.2158    4.1876 C   0  0  0  0  0  0  0  0  0  0  0  0
   -2.5177    4.0199    3.4577 H   0  0  0  0  0  0  0  0  0  0  0  0
   -3.5960    2.7866    4.1415 H   0  0  0  0  0  0  0  0  0  0  0  0
   -2.3844    3.7718    5.5289 N   0  0  0  0  0  0  0  0  0  0  0  0
   -3.0729    4.4895    5.7019 H   0  0  0  0  0  0  0  0  0  0  0  0
   -2.4880    3.0358    6.2129 H   0  0  0  0  0  0  0  0  0  0  0  0
    0.1370   -1.0659    0.3123 C   0  0  0  0  0  0  0  0  0  0  0  0
    1.2827   -0.6242    0.2553 O   0  0  0  0  0  0  0  0  0  0  0  0
   -0.1641   -2.3355    0.0162 N   0  0  0  0  0  0  0  0  0  0  0  0
   -1.1246   -2.6248    0.1015 H   0  0  0  0  0  0  0  0  0  0  0  0
    0.8201   -3.3299   -0.4087 C   0  0  0  0  0  0  0  0  0  0  0  0
    1.6218   -3.3948    0.3303 H   0  0  0  0  0  0  0  0  0  0  0  0
    0.3494   -4.3081   -0.5161 H   0  0  0  0  0  0  0  0  0  0  0  0
    1.2546   -3.0309   -1.3649 H   0  0  0  0  0  0  0  0  0  0  0  0
  5  6  2  0  0  0  0
  5  7  1  0  0  0  0
  2  3  1  0  0  0  0
  2  4  1  0  0  0  0
  2  5  1  0  0  0  0
  1  2  1  0  0  0  0
 26 27  2  0  0  0  0
 26 28  1  0  0  0  0
 23 24  1  0  0  0  0
 23 25  1  0  0  0  0
 20 21  1  0  0  0  0
 20 22  1  0  0  0  0
 20 23  1  0  0  0  0
 17 18  1  0  0  0  0
 17 19  1  0  0  0  0
 17 20  1  0  0  0  0
 14 15  1  0  0  0  0
 14 16  1  0  0  0  0
 14 17  1  0  0  0  0
 11 12  1  0  0  0  0
 11 13  1  0  0  0  0
 11 14  1  0  0  0  0
  9 10  1  0  0  0  0
  9 11  1  0  0  0  0
  9 26  1  0  0  0  0
  7  8  1  0  0  0  0
  7  9  1  0  0  0  0
 30 31  1  0  0  0  0
 30 32  1  0  0  0  0
 30 33  1  0  0  0  0
 28 29  1  0  0  0  0
 28 30  1  0  0  0  0
M  END
$$$$
default_name
  -OEChem-01062215323D

 33 32  0     1  0  0  0  0  0999 V2000
   -3.8420   -3.6918    1.5562 H   0  0  0  0  0  0  0  0  0  0  0  0
   -3.8430   -2.7008    1.1032 C   0  0  0  0  0  0  0  0  0  0  0  0
   -4.5510   -2.0608    1.6242 H   0  0  0  0  0  0  0  0  0  0  0  0
   -4.1140   -2.7798    0.0522 H   0  0  0  0  0  0  0  0  0  0  0  0
   -2.4570   -2.1098    1.2172 C   0  0  0  0  0  0  0  0  0  0  0  0
   -1.5600   -2.7438    1.7572 O   0  0  0  0  0  0  0  0  0  0  0  0
   -2.2870   -0.8898    0.7102 N   0  0  0  0  0  0  0  0  0  0  0  0
   -3.0820   -0.4218    0.2992 H   0  0  0  0  0  0  0  0  0  0  0  0
   -1.0240   -0.1468    0.7262 C   0  0  1  0  0  0  0  0  0  0  0  0
   -1.0918    0.6682    0.0042 H   0  0  0  0  0  0  0  0  0  0  0  0
   -0.8212    0.4541    2.1307 C   0  0  0  0  0  0  0  0  0  0  0  0
   -0.9294   -0.3436    2.8684 H   0  0  0  0  0  0  0  0  0  0  0  0
    0.1907    0.8544    2.2080 H   0  0  0  0  0  0  0  0  0  0  0  0
   -1.8312    1.5614    2.4701 C   0  0  0  0  0  0  0  0  0  0  0  0
   -1.7520    2.3659    1.7384 H   0  0  0  0  0  0  0  0  0  0  0  0
   -2.8410    1.1480    2.4389 H   0  0  0  0  0  0  0  0  0  0  0  0
   -1.5648    2.1362    3.8659 C   0  0  0  0  0  0  0  0  0  0  0  0
   -1.6329    1.3409    4.6089 H   0  0  0  0  0  0  0  0  0  0  0  0
   -0.5656    2.5718    3.8951 H   0  0  0  0  0  0  0  0  0  0  0  0
   -2.5964    3.2158    4.1876 C   0  0  0  0  0  0  0  0  0  0  0  0
   -2.5177    4.0199    3.4577 H   0  0  0  0  0  0  0  0  0  0  0  0
   -3.5960    2.7866    4.1415 H   0  0  0  0  0  0  0  0  0  0  0  0
   -2.3844    3.7718    5.5289 N   0  0  0  0  0  0  0  0  0  0  0  0
   -3.0729    4.4895    5.7019 H   0  0  0  0  0  0  0  0  0  0  0  0
   -2.4880    3.0358    6.2129 H   0  0  0  0  0  0  0  0  0  0  0  0
    0.1370   -1.0659    0.3123 C   0  0  0  0  0  0  0  0  0  0  0  0
    1.2991   -0.7205    0.5152 O   0  0  0  0  0  0  0  0  0  0  0  0
   -0.1807   -2.2259   -0.2740 N   0  0  0  0  0  0  0  0  0  0  0  0
   -1.1567   -2.4433   -0.3916 H   0  0  0  0  0  0  0  0  0  0  0  0
    0.8037   -3.2014   -0.7398 C   0  0  0  0  0  0  0  0  0  0  0  0
    1.4707   -3.4735    0.0812 H   0  0  0  0  0  0  0  0  0  0  0  0
    0.3041   -4.0978   -1.1100 H   0  0  0  0  0  0  0  0  0  0  0  0
    1.4026   -2.7644   -1.5415 H   0  0  0  0  0  0  0  0  0  0  0  0
  5  6  2  0  0  0  0
  5  7  1  0  0  0  0
  2  3  1  0  0  0  0
  2  4  1  0  0  0  0
  2  5  1  0  0  0  0
  1  2  1  0  0  0  0
 26 27  2  0  0  0  0
 26 28  1  0  0  0  0
 23 24  1  0  0  0  0
 23 25  1  0  0  0  0
 20 21  1  0  0  0  0
 20 22  1  0  0  0  0
 20 23  1  0  0  0  0
 17 18  1  0  0  0  0
 17 19  1  0  0  0  0
 17 20  1  0  0  0  0
 14 15  1  0  0  0  0
 14 16  1  0  0  0  0
 14 17  1  0  0  0  0
 11 12  1  0  0  0  0
 11 13  1  0  0  0  0
 11 14  1  0  0  0  0
  9 10  1  0  0  0  0
  9 11  1  0  0  0  0
  9 26  1  0  0  0  0
  7  8  1  0  0  0  0
  7  9  1  0  0  0  0
 30 31  1  0  0  0  0
 30 32  1  0  0  0  0
 30 33  1  0  0  0  0
 28 29  1  0  0  0  0
 28 30  1  0  0  0  0
M  END
$$$$
default_name
  -OEChem-01062215323D

 33 32  0     1  0  0  0  0  0999 V2000
   -3.8420   -3.6918    1.5562 H   0  0  0  0  0  0  0  0  0  0  0  0
   -3.8430   -2.7008    1.1032 C   0  0  0  0  0  0  0  0  0  0  0  0
   -4.5510   -2.0608    1.6242 H   0  0  0  0  0  0  0  0  0  0  0  0
   -4.1140   -2.7798    0.0522 H   0  0  0  0  0  0  0  0  0  0  0  0
   -2.4570   -2.1098    1.2172 C   0  0  0  0  0  0  0  0  0  0  0  0
   -1.5600   -2.7438    1.7572 O   0  0  0  0  0  0  0  0  0  0  0  0
   -2.2870   -0.8898    0.7102 N   0  0  0  0  0  0  0  0  0  0  0  0
   -3.0820   -0.4218    0.2992 H   0  0  0  0  0  0  0  0  0  0  0  0
   -1.0240   -0.1468    0.7262 C   0  0  1  0  0  0  0  0  0  0  0  0
   -1.0918    0.6682    0.0042 H   0  0  0  0  0  0  0  0  0  0  0  0
   -0.8212    0.4541    2.1307 C   0  0  0  0  0  0  0  0  0  0  0  0
   -0.9294   -0.3436    2.8684 H   0  0  0  0  0  0  0  0  0  0  0  0
    0.1907    0.8544    2.2080 H   0  0  0  0  0  0  0  0  0  0  0  0
   -1.8312    1.5614    2.4701 C   0  0  0  0  0  0  0  0  0  0  0  0
   -1.7520    2.3659    1.7384 H   0  0  0  0  0  0  0  0  0  0  0  0
   -2.8410    1.1480    2.4389 H   0  0  0  0  0  0  0  0  0  0  0  0
   -1.5648    2.1362    3.8659 C   0  0  0  0  0  0  0  0  0  0  0  0
   -1.6329    1.3409    4.6089 H   0  0  0  0  0  0  0  0  0  0  0  0
   -0.5656    2.5718    3.8951 H   0  0  0  0  0  0  0  0  0  0  0  0
   -2.5964    3.2158    4.1876 C   0  0  0  0  0  0  0  0  0  0  0  0
   -2.5177    4.0199    3.4577 H   0  0  0  0  0  0  0  0  0  0  0  0
   -3.5960    2.7866    4.1415 H   0  0  0  0  0  0  0  0  0  0  0  0
   -2.3844    3.7718    5.5289 N   0  0  0  0  0  0  0  0  0  0  0  0
   -3.0729    4.4895    5.7019 H   0  0  0  0  0  0  0  0  0  0  0  0
   -2.4880    3.0358    6.2129 H   0  0  0  0  0  0  0  0  0  0  0  0
    0.1370   -1.0659    0.3123 C   0  0  0  0  0  0  0  0  0  0  0  0
    1.2681   -0.8654    0.7499 O   0  0  0  0  0  0  0  0  0  0  0  0
   -0.1443   -2.0621   -0.5355 N   0  0  0  0  0  0  0  0  0  0  0  0
   -1.0988   -2.1694   -0.8373 H   0  0  0  0  0  0  0  0  0  0  0  0
    0.8481   -3.0115   -1.0371 C   0  0  0  0  0  0  0  0  0  0  0  0
    1.3578   -3.4903   -0.1981 H   0  0  0  0  0  0  0  0  0  0  0  0
    0.3670   -3.7755   -1.6495 H   0  0  0  0  0  0  0  0  0  0  0  0
    1.5915   -2.4827   -1.6372 H   0  0  0  0  0  0  0  0  0  0  0  0
  5  6  2  0  0  0  0
  5  7  1  0  0  0  0
  2  3  1  0  0  0  0
  2  4  1  0  0  0  0
  2  5  1  0  0  0  0
  1  2  1  0  0  0  0
 26 27  2  0  0  0  0
 26 28  1  0  0  0  0
 23 24  1  0  0  0  0
 23 25  1  0  0  0  0
 20 21  1  0  0  0  0
 20 22  1  0  0  0  0
 20 23  1  0  0  0  0
 17 18  1  0  0  0  0
 17 19  1  0  0  0  0
 17 20  1  0  0  0  0
 14 15  1  0  0  0  0
 14 16  1  0  0  0  0
 14 17  1  0  0  0  0
 11 12  1  0  0  0  0
 11 13  1  0  0  0  0
 11 14  1  0  0  0  0
  9 10  1  0  0  0  0
  9 11  1  0  0  0  0
  9 26  1  0  0  0  0
  7  8  1  0  0  0  0
  7  9  1  0  0  0  0
 30 31  1  0  0  0  0
 30 32  1  0  0  0  0
 30 33  1  0  0  0  0
 28 29  1  0  0  0  0
 28 30  1  0  0  0  0
M  END
$$$$
default_name
  -OEChem-01062215323D

 33 32  0     1  0  0  0  0  0999 V2000
   -3.8420   -3.6918    1.5562 H   0  0  0  0  0  0  0  0  0  0  0  0
   -3.8430   -2.7008    1.1032 C   0  0  0  0  0  0  0  0  0  0  0  0
   -4.5510   -2.0608    1.6242 H   0  0  0  0  0  0  0  0  0  0  0  0
   -4.1140   -2.7798    0.0522 H   0  0  0  0  0  0  0  0  0  0  0  0
   -2.4570   -2.1098    1.2172 C   0  0  0  0  0  0  0  0  0  0  0  0
   -1.5600   -2.7438    1.7572 O   0  0  0  0  0  0  0  0  0  0  0  0
   -2.2870   -0.8898    0.7102 N   0  0  0  0  0  0  0  0  0  0  0  0
   -3.0820   -0.4218    0.2992 H   0  0  0  0  0  0  0  0  0  0  0  0
   -1.0240   -0.1468    0.7262 C   0  0  1  0  0  0  0  0  0  0  0  0
   -1.0918    0.6682    0.0042 H   0  0  0  0  0  0  0  0  0  0  0  0
   -0.8212    0.4541    2.1307 C   0  0  0  0  0  0  0  0  0  0  0  0
   -0.9294   -0.3436    2.8684 H   0  0  0  0  0  0  0  0  0  0  0  0
    0.1907    0.8544    2.2080 H   0  0  0  0  0  0  0  0  0  0  0  0
   -1.8312    1.5614    2.4701 C   0  0  0  0  0  0  0  0  0  0  0  0
   -1.7520    2.3659    1.7384 H   0  0  0  0  0  0  0  0  0  0  0  0
   -2.8410    1.1480    2.4389 H   0  0  0  0  0  0  0  0  0  0  0  0
   -1.5648    2.1362    3.8659 C   0  0  0  0  0  0  0  0  0  0  0  0
   -1.6329    1.3409    4.6089 H   0  0  0  0  0  0  0  0  0  0  0  0
   -0.5656    2.5718    3.8951 H   0  0  0  0  0  0  0  0  0  0  0  0
   -2.5964    3.2158    4.1876 C   0  0  0  0  0  0  0  0  0  0  0  0
   -2.5177    4.0199    3.4577 H   0  0  0  0  0  0  0  0  0  0  0  0
   -3.5960    2.7866    4.1415 H   0  0  0  0  0  0  0  0  0  0  0  0
   -2.3844    3.7718    5.5289 N   0  0  0  0  0  0  0  0  0  0  0  0
   -3.0729    4.4895    5.7019 H   0  0  0  0  0  0  0  0  0  0  0  0
   -2.4880    3.0358    6.2129 H   0  0  0  0  0  0  0  0  0  0  0  0
    0.1370   -1.0659    0.3123 C   0  0  0  0  0  0  0  0  0  0  0  0
    1.1917   -1.0491    0.9435 O   0  0  0  0  0  0  0  0  0  0  0  0
   -0.0572   -1.8553   -0.7504 N   0  0  0  0  0  0  0  0  0  0  0  0
   -0.9547   -1.8217   -1.2053 H   0  0  0  0  0  0  0  0  0  0  0  0
    0.9502   -2.7730   -1.2803 C   0  0  0  0  0  0  0  0  0  0  0  0
    1.2908   -3.4440   -0.4887 H   0  0  0  0  0  0  0  0  0  0  0  0
    0.5337   -3.3630   -2.0980 H   0  0  0  0  0  0  0  0  0  0  0  0
    1.8084   -2.2050   -1.6453 H   0  0  0  0  0  0  0  0  0  0  0  0
  5  6  2  0  0  0  0
  5  7  1  0  0  0  0
  2  3  1  0  0  0  0
  2  4  1  0  0  0  0
  2  5  1  0  0  0  0
  1  2  1  0  0  0  0
 26 27  2  0  0  0  0
 26 28  1  0  0  0  0
 23 24  1  0  0  0  0
 23 25  1  0  0  0  0
 20 21  1  0  0  0  0
 20 22  1  0  0  0  0
 20 23  1  0  0  0  0
 17 18  1  0  0  0  0
 17 19  1  0  0  0  0
 17 20  1  0  0  0  0
 14 15  1  0  0  0  0
 14 16  1  0  0  0  0
 14 17  1  0  0  0  0
 11 12  1  0  0  0  0
 11 13  1  0  0  0  0
 11 14  1  0  0  0  0
  9 10  1  0  0  0  0
  9 11  1  0  0  0  0
  9 26  1  0  0  0  0
  7  8  1  0  0  0  0
  7  9  1  0  0  0  0
 30 31  1  0  0  0  0
 30 32  1  0  0  0  0
 30 33  1  0  0  0  0
 28 29  1  0  0  0  0
 28 30  1  0  0  0  0
M  END
$$$$
default_name
  -OEChem-01062215323D

 33 32  0     1  0  0  0  0  0999 V2000
   -3.8420   -3.6918    1.5562 H   0  0  0  0  0  0  0  0  0  0  0  0
   -3.8430   -2.7008    1.1032 C   0  0  0  0  0  0  0  0  0  0  0  0
   -4.5510   -2.0608    1.6242 H   0  0  0  0  0  0  0  0  0  0  0  0
   -4.1140   -2.7798    0.0522 H   0  0  0  0  0  0  0  0  0  0  0  0
   -2.4570   -2.1098    1.2172 C   0  0  0  0  0  0  0  0  0  0  0  0
   -1.5600   -2.7438    1.7572 O   0  0  0  0  0  0  0  0  0  0  0  0
   -2.2870   -0.8898    0.7102 N   0  0  0  0  0  0  0  0  0  0  0  0
   -3.0820   -0.4218    0.2992 H   0  0  0  0  0  0  0  0  0  0  0  0
   -1.0240   -0.1468    0.7262 C   0  0  1  0  0  0  0  0  0  0  0  0
   -1.0918    0.6682    0.0042 H   0  0  0  0  0  0  0  0  0  0  0  0
   -0.8212    0.4541    2.1307 C   0  0  0  0  0  0  0  0  0  0  0  0
   -0.9294   -0.3436    2.8684 H   0  0  0  0  0  0  0  0  0  0  0  0
    0.1907    0.8544    2.2080 H   0  0  0  0  0  0  0  0  0  0  0  0
   -1.8312    1.5614    2.4701 C   0  0  0  0  0  0  0  0  0  0  0  0
   -1.7520    2.3659    1.7384 H   0  0  0  0  0  0  0  0  0  0  0  0
   -2.8410    1.1480    2.4389 H   0  0  0  0  0  0  0  0  0  0  0  0
   -1.5648    2.1362    3.8659 C   0  0  0  0  0  0  0  0  0  0  0  0
   -1.6329    1.3409    4.6089 H   0  0  0  0  0  0  0  0  0  0  0  0
   -0.5656    2.5718    3.8951 H   0  0  0  0  0  0  0  0  0  0  0  0
   -2.5964    3.2158    4.1876 C   0  0  0  0  0  0  0  0  0  0  0  0
   -2.5177    4.0199    3.4577 H   0  0  0  0  0  0  0  0  0  0  0  0
   -3.5960    2.7866    4.1415 H   0  0  0  0  0  0  0  0  0  0  0  0
   -2.3844    3.7718    5.5289 N   0  0  0  0  0  0  0  0  0  0  0  0
   -3.0729    4.4895    5.7019 H   0  0  0  0  0  0  0  0  0  0  0  0
   -2.4880    3.0358    6.2129 H   0  0  0  0  0  0  0  0  0  0  0  0
    0.1370   -1.0659    0.3123 C   0  0  0  0  0  0  0  0  0  0  0  0
    1.0751   -1.2591    1.0828 O   0  0  0  0  0  0  0  0  0  0  0  0
    0.0746   -1.6196   -0.9042 N   0  0  0  0  0  0  0  0  0  0  0  0
   -0.7345   -1.4241   -1.4706 H   0  0  0  0  0  0  0  0  0  0  0  0
    1.1030   -2.5023   -1.4528 C   0  0  0  0  0  0  0  0  0  0  0  0
    1.2743   -3.3379   -0.7707 H   0  0  0  0  0  0  0  0  0  0  0  0
    0.7927   -2.8886   -2.4247 H   0  0  0  0  0  0  0  0  0  0  0  0
    2.0386   -1.9504   -1.5652 H   0  0  0  0  0  0  0  0  0  0  0  0
  5  6  2  0  0  0  0
  5  7  1  0  0  0  0
  2  3  1  0  0  0  0
  2  4  1  0  0  0  0
  2  5  1  0  0  0  0
  1  2  1  0  0  0  0
 26 27  2  0  0  0  0
 26 28  1  0  0  0  0
 23 24  1  0  0  0  0
 23 25  1  0  0  0  0
 20 21  1  0  0  0  0
 20 22  1  0  0  0  0
 20 23  1  0  0  0  0
 17 18  1  0  0  0  0
 17 19  1  0  0  0  0
 17 20  1  0  0  0  0
 14 15  1  0  0  0  0
 14 16  1  0  0  0  0
 14 17  1  0  0  0  0
 11 12  1  0  0  0  0
 11 13  1  0  0  0  0
 11 14  1  0  0  0  0
  9 10  1  0  0  0  0
  9 11  1  0  0  0  0
  9 26  1  0  0  0  0
  7  8  1  0  0  0  0
  7  9  1  0  0  0  0
 30 31  1  0  0  0  0
 30 32  1  0  0  0  0
 30 33  1  0  0  0  0
 28 29  1  0  0  0  0
 28 30  1  0  0  0  0
M  END
$$$$
default_name
  -OEChem-01062215323D

 33 32  0     1  0  0  0  0  0999 V2000
   -3.8420   -3.6918    1.5562 H   0  0  0  0  0  0  0  0  0  0  0  0
   -3.8430   -2.7008    1.1032 C   0  0  0  0  0  0  0  0  0  0  0  0
   -4.5510   -2.0608    1.6242 H   0  0  0  0  0  0  0  0  0  0  0  0
   -4.1140   -2.7798    0.0522 H   0  0  0  0  0  0  0  0  0  0  0  0
   -2.4570   -2.1098    1.2172 C   0  0  0  0  0  0  0  0  0  0  0  0
   -1.5600   -2.7438    1.7572 O   0  0  0  0  0  0  0  0  0  0  0  0
   -2.2870   -0.8898    0.7102 N   0  0  0  0  0  0  0  0  0  0  0  0
   -3.0820   -0.4218    0.2992 H   0  0  0  0  0  0  0  0  0  0  0  0
   -1.0240   -0.1468    0.7262 C   0  0  1  0  0  0  0  0  0  0  0  0
   -1.0918    0.6682    0.0042 H   0  0  0  0  0  0  0  0  0  0  0  0
   -0.8212    0.4541    2.1307 C   0  0  0  0  0  0  0  0  0  0  0  0
   -0.9294   -0.3436    2.8684 H   0  0  0  0  0  0  0  0  0  0  0  0
    0.1907    0.8544    2.2080 H   0  0  0  0  0  0  0  0  0  0  0  0
   -1.8312    1.5614    2.4701 C   0  0  0  0  0  0  0  0  0  0  0  0
   -1.7520    2.3659    1.7384 H   0  0  0  0  0  0  0  0  0  0  0  0
   -2.8410    1.1480    2.4389 H   0  0  0  0  0  0  0  0  0  0  0  0
   -1.5648    2.1362    3.8659 C   0  0  0  0  0  0  0  0  0  0  0  0
   -1.6329    1.3409    4.6089 H   0  0  0  0  0  0  0  0  0  0  0  0
   -0.5656    2.5718    3.8951 H   0  0  0  0  0  0  0  0  0  0  0  0
   -2.5964    3.2158    4.1876 C   0  0  0  0  0  0  0  0  0  0  0  0
   -2.5177    4.0199    3.4577 H   0  0  0  0  0  0  0  0  0  0  0  0
   -3.5960    2.7866    4.1415 H   0  0  0  0  0  0  0  0  0  0  0  0
   -2.3844    3.7718    5.5289 N   0  0  0  0  0  0  0  0  0  0  0  0
   -3.0729    4.4895    5.7019 H   0  0  0  0  0  0  0  0  0  0  0  0
   -2.4880    3.0358    6.2129 H   0  0  0  0  0  0  0  0  0  0  0  0
    0.1370   -1.0659    0.3123 C   0  0  0  0  0  0  0  0  0  0  0  0
    0.9263   -1.4810    1.1582 O   0  0  0  0  0  0  0  0  0  0  0  0
    0.2421   -1.3711   -0.9862 N   0  0  0  0  0  0  0  0  0  0  0  0
   -0.4530   -1.0034   -1.6150 H   0  0  0  0  0  0  0  0  0  0  0  0
    1.2962   -2.2177   -1.5428 C   0  0  0  0  0  0  0  0  0  0  0  0
    1.3094   -3.1792   -1.0249 H   0  0  0  0  0  0  0  0  0  0  0  0
    1.1266   -2.3845   -2.6075 H   0  0  0  0  0  0  0  0  0  0  0  0
    2.2662   -1.7361   -1.4026 H   0  0  0  0  0  0  0  0  0  0  0  0
  5  6  2  0  0  0  0
  5  7  1  0  0  0  0
  2  3  1  0  0  0  0
  2  4  1  0  0  0  0
  2  5  1  0  0  0  0
  1  2  1  0  0  0  0
 26 27  2  0  0  0  0
 26 28  1  0  0  0  0
 23 24  1  0  0  0  0
 23 25  1  0  0  0  0
 20 21  1  0  0  0  0
 20 22  1  0  0  0  0
 20 23  1  0  0  0  0
 17 18  1  0  0  0  0
 17 19  1  0  0  0  0
 17 20  1  0  0  0  0
 14 15  1  0  0  0  0
 14 16  1  0  0  0  0
 14 17  1  0  0  0  0
 11 12  1  0  0  0  0
 11 13  1  0  0  0  0
 11 14  1  0  0  0  0
  9 10  1  0  0  0  0
  9 11  1  0  0  0  0
  9 26  1  0  0  0  0
  7  8  1  0  0  0  0
  7  9  1  0  0  0  0
 30 31  1  0  0  0  0
 30 32  1  0  0  0  0
 30 33  1  0  0  0  0
 28 29  1  0  0  0  0
 28 30  1  0  0  0  0
M  END
$$$$
default_name
  -OEChem-01062215323D

 33 32  0     1  0  0  0  0  0999 V2000
   -3.8420   -3.6918    1.5562 H   0  0  0  0  0  0  0  0  0  0  0  0
   -3.8430   -2.7008    1.1032 C   0  0  0  0  0  0  0  0  0  0  0  0
   -4.5510   -2.0608    1.6242 H   0  0  0  0  0  0  0  0  0  0  0  0
   -4.1140   -2.7798    0.0522 H   0  0  0  0  0  0  0  0  0  0  0  0
   -2.4570   -2.1098    1.2172 C   0  0  0  0  0  0  0  0  0  0  0  0
   -1.5600   -2.7438    1.7572 O   0  0  0  0  0  0  0  0  0  0  0  0
   -2.2870   -0.8898    0.7102 N   0  0  0  0  0  0  0  0  0  0  0  0
   -3.0820   -0.4218    0.2992 H   0  0  0  0  0  0  0  0  0  0  0  0
   -1.0240   -0.1468    0.7262 C   0  0  1  0  0  0  0  0  0  0  0  0
   -1.0918    0.6682    0.0042 H   0  0  0  0  0  0  0  0  0  0  0  0
   -0.8212    0.4541    2.1307 C   0  0  0  0  0  0  0  0  0  0  0  0
   -0.9294   -0.3436    2.8684 H   0  0  0  0  0  0  0  0  0  0  0  0
    0.1907    0.8544    2.2080 H   0  0  0  0  0  0  0  0  0  0  0  0
   -1.8312    1.5614    2.4701 C   0  0  0  0  0  0  0  0  0  0  0  0
   -1.7520    2.3659    1.7384 H   0  0  0  0  0  0  0  0  0  0  0  0
   -2.8410    1.1480    2.4389 H   0  0  0  0  0  0  0  0  0  0  0  0
   -1.5648    2.1362    3.8659 C   0  0  0  0  0  0  0  0  0  0  0  0
   -1.6329    1.3409    4.6089 H   0  0  0  0  0  0  0  0  0  0  0  0
   -0.5656    2.5718    3.8951 H   0  0  0  0  0  0  0  0  0  0  0  0
   -2.5964    3.2158    4.1876 C   0  0  0  0  0  0  0  0  0  0  0  0
   -2.5177    4.0199    3.4577 H   0  0  0  0  0  0  0  0  0  0  0  0
   -3.5960    2.7866    4.1415 H   0  0  0  0  0  0  0  0  0  0  0  0
   -2.3844    3.7718    5.5289 N   0  0  0  0  0  0  0  0  0  0  0  0
   -3.0729    4.4895    5.7019 H   0  0  0  0  0  0  0  0  0  0  0  0
   -2.4880    3.0358    6.2129 H   0  0  0  0  0  0  0  0  0  0  0  0
    0.1370   -1.0659    0.3123 C   0  0  0  0  0  0  0  0  0  0  0  0
    0.7555   -1.6997    1.1648 O   0  0  0  0  0  0  0  0  0  0  0  0
    0.4339   -1.1267   -0.9910 N   0  0  0  0  0  0  0  0  0  0  0  0
   -0.1294   -0.5885   -1.6287 H   0  0  0  0  0  0  0  0  0  0  0  0
    1.5166   -1.9386   -1.5443 C   0  0  0  0  0  0  0  0  0  0  0  0
    1.3936   -2.9786   -1.2340 H   0  0  0  0  0  0  0  0  0  0  0  0
    1.5125   -1.8852   -2.6339 H   0  0  0  0  0  0  0  0  0  0  0  0
    2.4758   -1.5767   -1.1684 H   0  0  0  0  0  0  0  0  0  0  0  0
  5  6  2  0  0  0  0
  5  7  1  0  0  0  0
  2  3  1  0  0  0  0
  2  4  1  0  0  0  0
  2  5  1  0  0  0  0
  1  2  1  0  0  0  0
 26 27  2  0  0  0  0
 26 28  1  0  0  0  0
 23 24  1  0  0  0  0
 23 25  1  0  0  0  0
 20 21  1  0  0  0  0
 20 22  1  0  0  0  0
 20 23  1  0  0  0  0
 17 18  1  0  0  0  0
 17 19  1  0  0  0  0
 17 20  1  0  0  0  0
 14 15  1  0  0  0  0
 14 16  1  0  0  0  0
 14 17  1  0  0  0  0
 11 12  1  0  0  0  0
 11 13  1  0  0  0  0
 11 14  1  0  0  0  0
  9 10  1  0  0  0  0
  9 11  1  0  0  0  0
  9 26  1  0  0  0  0
  7  8  1  0  0  0  0
  7  9  1  0  0  0  0
 30 31  1  0  0  0  0
 30 32  1  0  0  0  0
 30 33  1  0  0  0  0
 28 29  1  0  0  0  0
 28 30  1  0  0  0  0
M  END
$$$$
default_name
  -OEChem-01062215323D

 33 32  0     1  0  0  0  0  0999 V2000
   -3.8420   -3.6918    1.5562 H   0  0  0  0  0  0  0  0  0  0  0  0
   -3.8430   -2.7008    1.1032 C   0  0  0  0  0  0  0  0  0  0  0  0
   -4.5510   -2.0608    1.6242 H   0  0  0  0  0  0  0  0  0  0  0  0
   -4.1140   -2.7798    0.0522 H   0  0  0  0  0  0  0  0  0  0  0  0
   -2.4570   -2.1098    1.2172 C   0  0  0  0  0  0  0  0  0  0  0  0
   -1.5600   -2.7438    1.7572 O   0  0  0  0  0  0  0  0  0  0  0  0
   -2.2870   -0.8898    0.7102 N   0  0  0  0  0  0  0  0  0  0  0  0
   -3.0820   -0.4218    0.2992 H   0  0  0  0  0  0  0  0  0  0  0  0
   -1.0240   -0.1468    0.7262 C   0  0  1  0  0  0  0  0  0  0  0  0
   -1.0918    0.6682    0.0042 H   0  0  0  0  0  0  0  0  0  0  0  0
   -0.8212    0.4541    2.1307 C   0  0  0  0  0  0  0  0  0  0  0  0
   -0.9294   -0.3436    2.8684 H   0  0  0  0  0  0  0  0  0  0  0  0
    0.1907    0.8544    2.2080 H   0  0  0  0  0  0  0  0  0  0  0  0
   -1.8312    1.5614    2.4701 C   0  0  0  0  0  0  0  0  0  0  0  0
   -1.7520    2.3659    1.7384 H   0  0  0  0  0  0  0  0  0  0  0  0
   -2.8410    1.1480    2.4389 H   0  0  0  0  0  0  0  0  0  0  0  0
   -1.5648    2.1362    3.8659 C   0  0  0  0  0  0  0  0  0  0  0  0
   -1.6329    1.3409    4.6089 H   0  0  0  0  0  0  0  0  0  0  0  0
   -0.5656    2.5718    3.8951 H   0  0  0  0  0  0  0  0  0  0  0  0
   -2.5964    3.2158    4.1876 C   0  0  0  0  0  0  0  0  0  0  0  0
   -2.5177    4.0199    3.4577 H   0  0  0  0  0  0  0  0  0  0  0  0
   -3.5960    2.7866    4.1415 H   0  0  0  0  0  0  0  0  0  0  0  0
   -2.3844    3.7718    5.5289 N   0  0  0  0  0  0  0  0  0  0  0  0
   -3.0729    4.4895    5.7019 H   0  0  0  0  0  0  0  0  0  0  0  0
   -2.4880    3.0358    6.2129 H   0  0  0  0  0  0  0  0  0  0  0  0
    0.1370   -1.0659    0.3123 C   0  0  0  0  0  0  0  0  0  0  0  0
    0.5743   -1.9004    1.1019 O   0  0  0  0  0  0  0  0  0  0  0  0
    0.6369   -0.9030   -0.9181 N   0  0  0  0  0  0  0  0  0  0  0  0
    0.2142   -0.2076   -1.5108 H   0  0  0  0  0  0  0  0  0  0  0  0
    1.7491   -1.6842   -1.4571 C   0  0  0  0  0  0  0  0  0  0  0  0
    1.5213   -2.7499   -1.3837 H   0  0  0  0  0  0  0  0  0  0  0  0
    1.9241   -1.4246   -2.5022 H   0  0  0  0  0  0  0  0  0  0  0  0
    2.6532   -1.4832   -0.8786 H   0  0  0  0  0  0  0  0  0  0  0  0
  5  6  2  0  0  0  0
  5  7  1  0  0  0  0
  2  3  1  0  0  0  0
  2  4  1  0  0  0  0
  2  5  1  0  0  0  0
  1  2  1  0  0  0  0
 26 27  2  0  0  0  0
 26 28  1  0  0  0  0
 23 24  1  0  0  0  0
 23 25  1  0  0  0  0
 20 21  1  0  0  0  0
 20 22  1  0  0  0  0
 20 23  1  0  0  0  0
 17 18  1  0  0  0  0
 17 19  1  0  0  0  0
 17 20  1  0  0  0  0
 14 15  1  0  0  0  0
 14 16  1  0  0  0  0
 14 17  1  0  0  0  0
 11 12  1  0  0  0  0
 11 13  1  0  0  0  0
 11 14  1  0  0  0  0
  9 10  1  0  0  0  0
  9 11  1  0  0  0  0
  9 26  1  0  0  0  0
  7  8  1  0  0  0  0
  7  9  1  0  0  0  0
 30 31  1  0  0  0  0
 30 32  1  0  0  0  0
 30 33  1  0  0  0  0
 28 29  1  0  0  0  0
 28 30  1  0  0  0  0
M  END
$$$$
default_name
  -OEChem-01062215323D

 33 32  0     1  0  0  0  0  0999 V2000
   -3.8420   -3.6918    1.5562 H   0  0  0  0  0  0  0  0  0  0  0  0
   -3.8430   -2.7008    1.1032 C   0  0  0  0  0  0  0  0  0  0  0  0
   -4.5510   -2.0608    1.6242 H   0  0  0  0  0  0  0  0  0  0  0  0
   -4.1140   -2.7798    0.0522 H   0  0  0  0  0  0  0  0  0  0  0  0
   -2.4570   -2.1098    1.2172 C   0  0  0  0  0  0  0  0  0  0  0  0
   -1.5600   -2.7438    1.7572 O   0  0  0  0  0  0  0  0  0  0  0  0
   -2.2870   -0.8898    0.7102 N   0  0  0  0  0  0  0  0  0  0  0  0
   -3.0820   -0.4218    0.2992 H   0  0  0  0  0  0  0  0  0  0  0  0
   -1.0240   -0.1468    0.7262 C   0  0  1  0  0  0  0  0  0  0  0  0
   -1.0918    0.6682    0.0042 H   0  0  0  0  0  0  0  0  0  0  0  0
   -0.8212    0.4541    2.1307 C   0  0  0  0  0  0  0  0  0  0  0  0
   -0.9294   -0.3436    2.8684 H   0  0  0  0  0  0  0  0  0  0  0  0
    0.1907    0.8544    2.2080 H   0  0  0  0  0  0  0  0  0  0  0  0
   -1.8312    1.5614    2.4701 C   0  0  0  0  0  0  0  0  0  0  0  0
   -1.7520    2.3659    1.7384 H   0  0  0  0  0  0  0  0  0  0  0  0
   -2.8410    1.1480    2.4389 H   0  0  0  0  0  0  0  0  0  0  0  0
   -1.5648    2.1362    3.8659 C   0  0  0  0  0  0  0  0  0  0  0  0
   -1.6329    1.3409    4.6089 H   0  0  0  0  0  0  0  0  0  0  0  0
   -0.5656    2.5718    3.8951 H   0  0  0  0  0  0  0  0  0  0  0  0
   -2.5964    3.2158    4.1876 C   0  0  0  0  0  0  0  0  0  0  0  0
   -2.5177    4.0199    3.4577 H   0  0  0  0  0  0  0  0  0  0  0  0
   -3.5960    2.7866    4.1415 H   0  0  0  0  0  0  0  0  0  0  0  0
   -2.3844    3.7718    5.5289 N   0  0  0  0  0  0  0  0  0  0  0  0
   -3.0729    4.4895    5.7019 H   0  0  0  0  0  0  0  0  0  0  0  0
   -2.4880    3.0358    6.2129 H   0  0  0  0  0  0  0  0  0  0  0  0
    0.1370   -1.0659    0.3123 C   0  0  0  0  0  0  0  0  0  0  0  0
    0.3949   -2.0692    0.9739 O   0  0  0  0  0  0  0  0  0  0  0  0
    0.8373   -0.7154   -0.7726 N   0  0  0  0  0  0  0  0  0  0  0  0
    0.5543    0.1134   -1.2694 H   0  0  0  0  0  0  0  0  0  0  0  0
    1.9780   -1.4716   -1.2872 C   0  0  0  0  0  0  0  0  0  0  0  0
    1.6838   -2.5085   -1.4639 H   0  0  0  0  0  0  0  0  0  0  0  0
    2.3334   -1.0341   -2.2212 H   0  0  0  0  0  0  0  0  0  0  0  0
    2.7862   -1.4618   -0.5529 H   0  0  0  0  0  0  0  0  0  0  0  0
  5  6  2  0  0  0  0
  5  7  1  0  0  0  0
  2  3  1  0  0  0  0
  2  4  1  0  0  0  0
  2  5  1  0  0  0  0
  1  2  1  0  0  0  0
 26 27  2  0  0  0  0
 26 28  1  0  0  0  0
 23 24  1  0  0  0  0
 23 25  1  0  0  0  0
 20 21  1  0  0  0  0
 20 22  1  0  0  0  0
 20 23  1  0  0  0  0
 17 18  1  0  0  0  0
 17 19  1  0  0  0  0
 17 20  1  0  0  0  0
 14 15  1  0  0  0  0
 14 16  1  0  0  0  0
 14 17  1  0  0  0  0
 11 12  1  0  0  0  0
 11 13  1  0  0  0  0
 11 14  1  0  0  0  0
  9 10  1  0  0  0  0
  9 11  1  0  0  0  0
  9 26  1  0  0  0  0
  7  8  1  0  0  0  0
  7  9  1  0  0  0  0
 30 31  1  0  0  0  0
 30 32  1  0  0  0  0
 30 33  1  0  0  0  0
 28 29  1  0  0  0  0
 28 30  1  0  0  0  0
M  END
$$$$
default_name
  -OEChem-01062215323D

 33 32  0     1  0  0  0  0  0999 V2000
   -3.8420   -3.6918    1.5562 H   0  0  0  0  0  0  0  0  0  0  0  0
   -3.8430   -2.7008    1.1032 C   0  0  0  0  0  0  0  0  0  0  0  0
   -4.5510   -2.0608    1.6242 H   0  0  0  0  0  0  0  0  0  0  0  0
   -4.1140   -2.7798    0.0522 H   0  0  0  0  0  0  0  0  0  0  0  0
   -2.4570   -2.1098    1.2172 C   0  0  0  0  0  0  0  0  0  0  0  0
   -1.5600   -2.7438    1.7572 O   0  0  0  0  0  0  0  0  0  0  0  0
   -2.2870   -0.8898    0.7102 N   0  0  0  0  0  0  0  0  0  0  0  0
   -3.0820   -0.4218    0.2992 H   0  0  0  0  0  0  0  0  0  0  0  0
   -1.0240   -0.1468    0.7262 C   0  0  1  0  0  0  0  0  0  0  0  0
   -1.0918    0.6682    0.0042 H   0  0  0  0  0  0  0  0  0  0  0  0
   -0.8212    0.4541    2.1307 C   0  0  0  0  0  0  0  0  0  0  0  0
   -0.9294   -0.3436    2.8684 H   0  0  0  0  0  0  0  0  0  0  0  0
    0.1907    0.8544    2.2080 H   0  0  0  0  0  0  0  0  0  0  0  0
   -1.8312    1.5614    2.4701 C   0  0  0  0  0  0  0  0  0  0  0  0
   -1.7520    2.3659    1.7384 H   0  0  0  0  0  0  0  0  0  0  0  0
   -2.8410    1.1480    2.4389 H   0  0  0  0  0  0  0  0  0  0  0  0
   -1.5648    2.1362    3.8659 C   0  0  0  0  0  0  0  0  0  0  0  0
   -1.6329    1.3409    4.6089 H   0  0  0  0  0  0  0  0  0  0  0  0
   -0.5656    2.5718    3.8951 H   0  0  0  0  0  0  0  0  0  0  0  0
   -2.5964    3.2158    4.1876 C   0  0  0  0  0  0  0  0  0  0  0  0
   -2.5177    4.0199    3.4577 H   0  0  0  0  0  0  0  0  0  0  0  0
   -3.5960    2.7866    4.1415 H   0  0  0  0  0  0  0  0  0  0  0  0
   -2.3844    3.7718    5.5289 N   0  0  0  0  0  0  0  0  0  0  0  0
   -3.0729    4.4895    5.7019 H   0  0  0  0  0  0  0  0  0  0  0  0
   -2.4880    3.0358    6.2129 H   0  0  0  0  0  0  0  0  0  0  0  0
    0.1370   -1.0659    0.3123 C   0  0  0  0  0  0  0  0  0  0  0  0
    0.2297   -2.1949    0.7895 O   0  0  0  0  0  0  0  0  0  0  0  0
    1.0215   -0.5765   -0.5644 N   0  0  0  0  0  0  0  0  0  0  0  0
    0.8679    0.3525   -0.9208 H   0  0  0  0  0  0  0  0  0  0  0  0
    2.1875   -1.3155   -1.0461 C   0  0  0  0  0  0  0  0  0  0  0  0
    1.8699   -2.2711   -1.4690 H   0  0  0  0  0  0  0  0  0  0  0  0
    2.7125   -0.7403   -1.8101 H   0  0  0  0  0  0  0  0  0  0  0  0
    2.8658   -1.5141   -0.2136 H   0  0  0  0  0  0  0  0  0  0  0  0
  5  6  2  0  0  0  0
  5  7  1  0  0  0  0
  2  3  1  0  0  0  0
  2  4  1  0  0  0  0
  2  5  1  0  0  0  0
  1  2  1  0  0  0  0
 26 27  2  0  0  0  0
 26 28  1  0  0  0  0
 23 24  1  0  0  0  0
 23 25  1  0  0  0  0
 20 21  1  0  0  0  0
 20 22  1  0  0  0  0
 20 23  1  0  0  0  0
 17 18  1  0  0  0  0
 17 19  1  0  0  0  0
 17 20  1  0  0  0  0
 14 15  1  0  0  0  0
 14 16  1  0  0  0  0
 14 17  1  0  0  0  0
 11 12  1  0  0  0  0
 11 13  1  0  0  0  0
 11 14  1  0  0  0  0
  9 10  1  0  0  0  0
  9 11  1  0  0  0  0
  9 26  1  0  0  0  0
  7  8  1  0  0  0  0
  7  9  1  0  0  0  0
 30 31  1  0  0  0  0
 30 32  1  0  0  0  0
 30 33  1  0  0  0  0
 28 29  1  0  0  0  0
 28 30  1  0  0  0  0
M  END
$$$$
default_name
  -OEChem-01062215323D

 33 32  0     1  0  0  0  0  0999 V2000
   -3.8420   -3.6918    1.5562 H   0  0  0  0  0  0  0  0  0  0  0  0
   -3.8430   -2.7008    1.1032 C   0  0  0  0  0  0  0  0  0  0  0  0
   -4.5510   -2.0608    1.6242 H   0  0  0  0  0  0  0  0  0  0  0  0
   -4.1140   -2.7798    0.0522 H   0  0  0  0  0  0  0  0  0  0  0  0
   -2.4570   -2.1098    1.2172 C   0  0  0  0  0  0  0  0  0  0  0  0
   -1.5600   -2.7438    1.7572 O   0  0  0  0  0  0  0  0  0  0  0  0
   -2.2870   -0.8898    0.7102 N   0  0  0  0  0  0  0  0  0  0  0  0
   -3.0820   -0.4218    0.2992 H   0  0  0  0  0  0  0  0  0  0  0  0
   -1.0240   -0.1468    0.7262 C   0  0  1  0  0  0  0  0  0  0  0  0
   -1.0918    0.6682    0.0042 H   0  0  0  0  0  0  0  0  0  0  0  0
   -0.8212    0.4541    2.1307 C   0  0  0  0  0  0  0  0  0  0  0  0
   -0.9294   -0.3436    2.8684 H   0  0  0  0  0  0  0  0  0  0  0  0
    0.1907    0.8544    2.2080 H   0  0  0  0  0  0  0  0  0  0  0  0
   -1.8312    1.5614    2.4701 C   0  0  0  0  0  0  0  0  0  0  0  0
   -1.7520    2.3659    1.7384 H   0  0  0  0  0  0  0  0  0  0  0  0
   -2.8410    1.1480    2.4389 H   0  0  0  0  0  0  0  0  0  0  0  0
   -1.5648    2.1362    3.8659 C   0  0  0  0  0  0  0  0  0  0  0  0
   -1.6329    1.3409    4.6089 H   0  0  0  0  0  0  0  0  0  0  0  0
   -0.5656    2.5718    3.8951 H   0  0  0  0  0  0  0  0  0  0  0  0
   -2.5964    3.2158    4.1876 C   0  0  0  0  0  0  0  0  0  0  0  0
   -2.5177    4.0199    3.4577 H   0  0  0  0  0  0  0  0  0  0  0  0
   -3.5960    2.7866    4.1415 H   0  0  0  0  0  0  0  0  0  0  0  0
   -2.3844    3.7718    5.5289 N   0  0  0  0  0  0  0  0  0  0  0  0
   -3.0729    4.4895    5.7019 H   0  0  0  0  0  0  0  0  0  0  0  0
   -2.4880    3.0358    6.2129 H   0  0  0  0  0  0  0  0  0  0  0  0
    0.1370   -1.0659    0.3123 C   0  0  0  0  0  0  0  0  0  0  0  0
    0.0900   -2.2687    0.5613 O   0  0  0  0  0  0  0  0  0  0  0  0
    1.1768   -0.4959   -0.3077 N   0  0  0  0  0  0  0  0  0  0  0  0
    1.1335    0.4935   -0.4888 H   0  0  0  0  0  0  0  0  0  0  0  0
    2.3635   -1.2264   -0.7502 C   0  0  0  0  0  0  0  0  0  0  0  0
    2.0671   -2.0537   -1.3987 H   0  0  0  0  0  0  0  0  0  0  0  0
    3.0355   -0.5633   -1.2970 H   0  0  0  0  0  0  0  0  0  0  0  0
    2.8865   -1.6365    0.1162 H   0  0  0  0  0  0  0  0  0  0  0  0
  5  6  2  0  0  0  0
  5  7  1  0  0  0  0
  2  3  1  0  0  0  0
  2  4  1  0  0  0  0
  2  5  1  0  0  0  0
  1  2  1  0  0  0  0
 26 27  2  0  0  0  0
 26 28  1  0  0  0  0
 23 24  1  0  0  0  0
 23 25  1  0  0  0  0
 20 21  1  0  0  0  0
 20 22  1  0  0  0  0
 20 23  1  0  0  0  0
 17 18  1  0  0  0  0
 17 19  1  0  0  0  0
 17 20  1  0  0  0  0
 14 15  1  0  0  0  0
 14 16  1  0  0  0  0
 14 17  1  0  0  0  0
 11 12  1  0  0  0  0
 11 13  1  0  0  0  0
 11 14  1  0  0  0  0
  9 10  1  0  0  0  0
  9 11  1  0  0  0  0
  9 26  1  0  0  0  0
  7  8  1  0  0  0  0
  7  9  1  0  0  0  0
 30 31  1  0  0  0  0
 30 32  1  0  0  0  0
 30 33  1  0  0  0  0
 28 29  1  0  0  0  0
 28 30  1  0  0  0  0
M  END
$$$$
default_name
  -OEChem-01062215323D

 33 32  0     1  0  0  0  0  0999 V2000
   -3.8420   -3.6918    1.5562 H   0  0  0  0  0  0  0  0  0  0  0  0
   -3.8430   -2.7008    1.1032 C   0  0  0  0  0  0  0  0  0  0  0  0
   -4.5510   -2.0608    1.6242 H   0  0  0  0  0  0  0  0  0  0  0  0
   -4.1140   -2.7798    0.0522 H   0  0  0  0  0  0  0  0  0  0  0  0
   -2.4570   -2.1098    1.2172 C   0  0  0  0  0  0  0  0  0  0  0  0
   -1.5600   -2.7438    1.7572 O   0  0  0  0  0  0  0  0  0  0  0  0
   -2.2870   -0.8898    0.7102 N   0  0  0  0  0  0  0  0  0  0  0  0
   -3.0820   -0.4218    0.2992 H   0  0  0  0  0  0  0  0  0  0  0  0
   -1.0240   -0.1468    0.7262 C   0  0  1  0  0  0  0  0  0  0  0  0
   -1.0918    0.6682    0.0042 H   0  0  0  0  0  0  0  0  0  0  0  0
   -0.8212    0.4541    2.1307 C   0  0  0  0  0  0  0  0  0  0  0  0
   -0.9294   -0.3436    2.8684 H   0  0  0  0  0  0  0  0  0  0  0  0
    0.1907    0.8544    2.2080 H   0  0  0  0  0  0  0  0  0  0  0  0
   -1.8312    1.5614    2.4701 C   0  0  0  0  0  0  0  0  0  0  0  0
   -1.7520    2.3659    1.7384 H   0  0  0  0  0  0  0  0  0  0  0  0
   -2.8410    1.1480    2.4389 H   0  0  0  0  0  0  0  0  0  0  0  0
   -1.5648    2.1362    3.8659 C   0  0  0  0  0  0  0  0  0  0  0  0
   -1.6329    1.3409    4.6089 H   0  0  0  0  0  0  0  0  0  0  0  0
   -0.5656    2.5718    3.8951 H   0  0  0  0  0  0  0  0  0  0  0  0
   -2.5964    3.2158    4.1876 C   0  0  0  0  0  0  0  0  0  0  0  0
   -2.5177    4.0199    3.4577 H   0  0  0  0  0  0  0  0  0  0  0  0
   -3.5960    2.7866    4.1415 H   0  0  0  0  0  0  0  0  0  0  0  0
   -2.3844    3.7718    5.5289 N   0  0  0  0  0  0  0  0  0  0  0  0
   -3.0729    4.4895    5.7019 H   0  0  0  0  0  0  0  0  0  0  0  0
   -2.4880    3.0358    6.2129 H   0  0  0  0  0  0  0  0  0  0  0  0
    0.1370   -1.0659    0.3123 C   0  0  0  0  0  0  0  0  0  0  0  0
   -0.0149   -2.2856    0.3048 O   0  0  0  0  0  0  0  0  0  0  0  0
    1.2927   -0.4790   -0.0199 N   0  0  0  0  0  0  0  0  0  0  0  0
    1.3331    0.5268   -0.0029 H   0  0  0  0  0  0  0  0  0  0  0  0
    2.4940   -1.2104   -0.4198 C   0  0  0  0  0  0  0  0  0  0  0  0
    2.2617   -1.8712   -1.2579 H   0  0  0  0  0  0  0  0  0  0  0  0
    3.2805   -0.5152   -0.7168 H   0  0  0  0  0  0  0  0  0  0  0  0
    2.8469   -1.8206    0.4141 H   0  0  0  0  0  0  0  0  0  0  0  0
  5  6  2  0  0  0  0
  5  7  1  0  0  0  0
  2  3  1  0  0  0  0
  2  4  1  0  0  0  0
  2  5  1  0  0  0  0
  1  2  1  0  0  0  0
 26 27  2  0  0  0  0
 26 28  1  0  0  0  0
 23 24  1  0  0  0  0
 23 25  1  0  0  0  0
 20 21  1  0  0  0  0
 20 22  1  0  0  0  0
 20 23  1  0  0  0  0
 17 18  1  0  0  0  0
 17 19  1  0  0  0  0
 17 20  1  0  0  0  0
 14 15  1  0  0  0  0
 14 16  1  0  0  0  0
 14 17  1  0  0  0  0
 11 12  1  0  0  0  0
 11 13  1  0  0  0  0
 11 14  1  0  0  0  0
  9 10  1  0  0  0  0
  9 11  1  0  0  0  0
  9 26  1  0  0  0  0
  7  8  1  0  0  0  0
  7  9  1  0  0  0  0
 30 31  1  0  0  0  0
 30 32  1  0  0  0  0
 30 33  1  0  0  0  0
 28 29  1  0  0  0  0
 28 30  1  0  0  0  0
M  END
$$$$
default_name
  -OEChem-01062215323D

 33 32  0     1  0  0  0  0  0999 V2000
   -3.8420   -3.6918    1.5562 H   0  0  0  0  0  0  0  0  0  0  0  0
   -3.8430   -2.7008    1.1032 C   0  0  0  0  0  0  0  0  0  0  0  0
   -4.5510   -2.0608    1.6242 H   0  0  0  0  0  0  0  0  0  0  0  0
   -4.1140   -2.7798    0.0522 H   0  0  0  0  0  0  0  0  0  0  0  0
   -2.4570   -2.1098    1.2172 C   0  0  0  0  0  0  0  0  0  0  0  0
   -1.5600   -2.7438    1.7572 O   0  0  0  0  0  0  0  0  0  0  0  0
   -2.2870   -0.8898    0.7102 N   0  0  0  0  0  0  0  0  0  0  0  0
   -3.0820   -0.4218    0.2992 H   0  0  0  0  0  0  0  0  0  0  0  0
   -1.0240   -0.1468    0.7262 C   0  0  1  0  0  0  0  0  0  0  0  0
   -1.1764    0.8073    0.2196 H   0  0  0  0  0  0  0  0  0  0  0  0
   -0.6310    0.1295    2.1905 C   0  0  0  0  0  0  0  0  0  0  0  0
   -0.6508   -0.8144    2.7391 H   0  0  0  0  0  0  0  0  0  0  0  0
    0.3870    0.5203    2.2220 H   0  0  0  0  0  0  0  0  0  0  0  0
   -1.5741    1.1152    2.8977 C   0  0  0  0  0  0  0  0  0  0  0  0
   -1.5821    2.0638    2.3602 H   0  0  0  0  0  0  0  0  0  0  0  0
   -2.5841    0.7013    2.9075 H   0  0  0  0  0  0  0  0  0  0  0  0
   -1.1195    1.3690    4.3394 C   0  0  0  0  0  0  0  0  0  0  0  0
   -1.0988    0.4271    4.8884 H   0  0  0  0  0  0  0  0  0  0  0  0
   -0.1200    1.8049    4.3341 H   0  0  0  0  0  0  0  0  0  0  0  0
   -2.0867    2.3313    5.0262 C   0  0  0  0  0  0  0  0  0  0  0  0
   -2.0951    3.2791    4.4904 H   0  0  0  0  0  0  0  0  0  0  0  0
   -3.0888    1.9056    5.0167 H   0  0  0  0  0  0  0  0  0  0  0  0
   -1.6935    2.5781    6.4182 N   0  0  0  0  0  0  0  0  0  0  0  0
   -2.3445    3.2269    6.8357 H   0  0  0  0  0  0  0  0  0  0  0  0
   -1.7150    1.7064    6.9281 H   0  0  0  0  0  0  0  0  0  0  0  0
    0.0613   -0.9298   -0.0307 C   0  0  0  0  0  0  0  0  0  0  0  0
   -0.2019   -2.0212   -0.5313 O   0  0  0  0  0  0  0  0  0  0  0  0
    1.2771   -0.3756   -0.1026 N   0  0  0  0  0  0  0  0  0  0  0  0
    1.4092    0.5284    0.3204 H   0  0  0  0  0  0  0  0  0  0  0  0
    2.4192   -0.9974   -0.7710 C   0  0  0  0  0  0  0  0  0  0  0  0
    2.1567   -1.2372   -1.8037 H   0  0  0  0  0  0  0  0  0  0  0  0
    3.2763   -0.3226   -0.7647 H   0  0  0  0  0  0  0  0  0  0  0  0
    2.6850   -1.9239   -0.2577 H   0  0  0  0  0  0  0  0  0  0  0  0
  5  6  2  0  0  0  0
  5  7  1  0  0  0  0
  2  3  1  0  0  0  0
  2  4  1  0  0  0  0
  2  5  1  0  0  0  0
  1  2  1  0  0  0  0
 26 27  2  0  0  0  0
 26 28  1  0  0  0  0
 23 24  1  0  0  0  0
 23 25  1  0  0  0  0
 20 21  1  0  0  0  0
 20 22  1  0  0  0  0
 20 23  1  0  0  0  0
 17 18  1  0  0  0  0
 17 19  1  0  0  0  0
 17 20  1  0  0  0  0
 14 15  1  0  0  0  0
 14 16  1  0  0  0  0
 14 17  1  0  0  0  0
 11 12  1  0  0  0  0
 11 13  1  0  0  0  0
 11 14  1  0  0  0  0
  9 10  1  0  0  0  0
  9 11  1  0  0  0  0
  9 26  1  0  0  0  0
  7  8  1  0  0  0  0
  7  9  1  0  0  0  0
 30 31  1  0  0  0  0
 30 32  1  0  0  0  0
 30 33  1  0  0  0  0
 28 29  1  0  0  0  0
 28 30  1  0  0  0  0
M  END
$$$$
default_name
  -OEChem-01062215323D

 33 32  0     1  0  0  0  0  0999 V2000
   -3.8420   -3.6918    1.5562 H   0  0  0  0  0  0  0  0  0  0  0  0
   -3.8430   -2.7008    1.1032 C   0  0  0  0  0  0  0  0  0  0  0  0
   -4.5510   -2.0608    1.6242 H   0  0  0  0  0  0  0  0  0  0  0  0
   -4.1140   -2.7798    0.0522 H   0  0  0  0  0  0  0  0  0  0  0  0
   -2.4570   -2.1098    1.2172 C   0  0  0  0  0  0  0  0  0  0  0  0
   -1.5600   -2.7438    1.7572 O   0  0  0  0  0  0  0  0  0  0  0  0
   -2.2870   -0.8898    0.7102 N   0  0  0  0  0  0  0  0  0  0  0  0
   -3.0820   -0.4218    0.2992 H   0  0  0  0  0  0  0  0  0  0  0  0
   -1.0240   -0.1468    0.7262 C   0  0  1  0  0  0  0  0  0  0  0  0
   -1.1764    0.8073    0.2196 H   0  0  0  0  0  0  0  0  0  0  0  0
   -0.6310    0.1295    2.1905 C   0  0  0  0  0  0  0  0  0  0  0  0
   -0.6508   -0.8144    2.7391 H   0  0  0  0  0  0  0  0  0  0  0  0
    0.3870    0.5203    2.2220 H   0  0  0  0  0  0  0  0  0  0  0  0
   -1.5741    1.1152    2.8977 C   0  0  0  0  0  0  0  0  0  0  0  0
   -1.5821    2.0638    2.3602 H   0  0  0  0  0  0  0  0  0  0  0  0
   -2.5841    0.7013    2.9075 H   0  0  0  0  0  0  0  0  0  0  0  0
   -1.1195    1.3690    4.3394 C   0  0  0  0  0  0  0  0  0  0  0  0
   -1.0988    0.4271    4.8884 H   0  0  0  0  0  0  0  0  0  0  0  0
   -0.1200    1.8049    4.3341 H   0  0  0  0  0  0  0  0  0  0  0  0
   -2.0867    2.3313    5.0262 C   0  0  0  0  0  0  0  0  0  0  0  0
   -2.0951    3.2791    4.4904 H   0  0  0  0  0  0  0  0  0  0  0  0
   -3.0888    1.9056    5.0167 H   0  0  0  0  0  0  0  0  0  0  0  0
   -1.6935    2.5781    6.4182 N   0  0  0  0  0  0  0  0  0  0  0  0
   -2.3445    3.2269    6.8357 H   0  0  0  0  0  0  0  0  0  0  0  0
   -1.7150    1.7064    6.9281 H   0  0  0  0  0  0  0  0  0  0  0  0
    0.0613   -0.9298   -0.0307 C   0  0  0  0  0  0  0  0  0  0  0  0
   -0.2511   -1.8697   -0.7586 O   0  0  0  0  0  0  0  0  0  0  0  0
    1.3305   -0.5469    0.1511 N   0  0  0  0  0  0  0  0  0  0  0  0
    1.5037    0.2422    0.7519 H   0  0  0  0  0  0  0  0  0  0  0  0
    2.4774   -1.1961   -0.4819 C   0  0  0  0  0  0  0  0  0  0  0  0
    2.3402   -1.2133   -1.5653 H   0  0  0  0  0  0  0  0  0  0  0  0
    3.3967   -0.6591   -0.2439 H   0  0  0  0  0  0  0  0  0  0  0  0
    2.5583   -2.2257   -0.1272 H   0  0  0  0  0  0  0  0  0  0  0  0
  5  6  2  0  0  0  0
  5  7  1  0  0  0  0
  2  3  1  0  0  0  0
  2  4  1  0  0  0  0
  2  5  1  0  0  0  0
  1  2  1  0  0  0  0
 26 27  2  0  0  0  0
 26 28  1  0  0  0  0
 23 24  1  0  0  0  0
 23 25  1  0  0  0  0
 20 21  1  0  0  0  0
 20 22  1  0  0  0  0
 20 23  1  0  0  0  0
 17 18  1  0  0  0  0
 17 19  1  0  0  0  0
 17 20  1  0  0  0  0
 14 15  1  0  0  0  0
 14 16  1  0  0  0  0
 14 17  1  0  0  0  0
 11 12  1  0  0  0  0
 11 13  1  0  0  0  0
 11 14  1  0  0  0  0
  9 10  1  0  0  0  0
  9 11  1  0  0  0  0
  9 26  1  0  0  0  0
  7  8  1  0  0  0  0
  7  9  1  0  0  0  0
 30 31  1  0  0  0  0
 30 32  1  0  0  0  0
 30 33  1  0  0  0  0
 28 29  1  0  0  0  0
 28 30  1  0  0  0  0
M  END
$$$$
default_name
  -OEChem-01062215323D

 33 32  0     1  0  0  0  0  0999 V2000
   -3.8420   -3.6918    1.5562 H   0  0  0  0  0  0  0  0  0  0  0  0
   -3.8430   -2.7008    1.1032 C   0  0  0  0  0  0  0  0  0  0  0  0
   -4.5510   -2.0608    1.6242 H   0  0  0  0  0  0  0  0  0  0  0  0
   -4.1140   -2.7798    0.0522 H   0  0  0  0  0  0  0  0  0  0  0  0
   -2.4570   -2.1098    1.2172 C   0  0  0  0  0  0  0  0  0  0  0  0
   -1.5600   -2.7438    1.7572 O   0  0  0  0  0  0  0  0  0  0  0  0
   -2.2870   -0.8898    0.7102 N   0  0  0  0  0  0  0  0  0  0  0  0
   -3.0820   -0.4218    0.2992 H   0  0  0  0  0  0  0  0  0  0  0  0
   -1.0240   -0.1468    0.7262 C   0  0  1  0  0  0  0  0  0  0  0  0
   -1.1764    0.8073    0.2196 H   0  0  0  0  0  0  0  0  0  0  0  0
   -0.6310    0.1295    2.1905 C   0  0  0  0  0  0  0  0  0  0  0  0
   -0.6508   -0.8144    2.7391 H   0  0  0  0  0  0  0  0  0  0  0  0
    0.3870    0.5203    2.2220 H   0  0  0  0  0  0  0  0  0  0  0  0
   -1.5741    1.1152    2.8977 C   0  0  0  0  0  0  0  0  0  0  0  0
   -1.5821    2.0638    2.3602 H   0  0  0  0  0  0  0  0  0  0  0  0
   -2.5841    0.7013    2.9075 H   0  0  0  0  0  0  0  0  0  0  0  0
   -1.1195    1.3690    4.3394 C   0  0  0  0  0  0  0  0  0  0  0  0
   -1.0988    0.4271    4.8884 H   0  0  0  0  0  0  0  0  0  0  0  0
   -0.1200    1.8049    4.3341 H   0  0  0  0  0  0  0  0  0  0  0  0
   -2.0867    2.3313    5.0262 C   0  0  0  0  0  0  0  0  0  0  0  0
   -2.0951    3.2791    4.4904 H   0  0  0  0  0  0  0  0  0  0  0  0
   -3.0888    1.9056    5.0167 H   0  0  0  0  0  0  0  0  0  0  0  0
   -1.6935    2.5781    6.4182 N   0  0  0  0  0  0  0  0  0  0  0  0
   -2.3445    3.2269    6.8357 H   0  0  0  0  0  0  0  0  0  0  0  0
   -1.7150    1.7064    6.9281 H   0  0  0  0  0  0  0  0  0  0  0  0
    0.0613   -0.9298   -0.0307 C   0  0  0  0  0  0  0  0  0  0  0  0
   -0.2495   -1.6756   -0.9571 O   0  0  0  0  0  0  0  0  0  0  0  0
    1.3267   -0.7654    0.3718 N   0  0  0  0  0  0  0  0  0  0  0  0
    1.5016   -0.1252    1.1289 H   0  0  0  0  0  0  0  0  0  0  0  0
    2.4703   -1.4483   -0.2314 C   0  0  0  0  0  0  0  0  0  0  0  0
    2.4890   -1.2572   -1.3066 H   0  0  0  0  0  0  0  0  0  0  0  0
    3.4015   -1.0947    0.2135 H   0  0  0  0  0  0  0  0  0  0  0  0
    2.3802   -2.5250   -0.0730 H   0  0  0  0  0  0  0  0  0  0  0  0
  5  6  2  0  0  0  0
  5  7  1  0  0  0  0
  2  3  1  0  0  0  0
  2  4  1  0  0  0  0
  2  5  1  0  0  0  0
  1  2  1  0  0  0  0
 26 27  2  0  0  0  0
 26 28  1  0  0  0  0
 23 24  1  0  0  0  0
 23 25  1  0  0  0  0
 20 21  1  0  0  0  0
 20 22  1  0  0  0  0
 20 23  1  0  0  0  0
 17 18  1  0  0  0  0
 17 19  1  0  0  0  0
 17 20  1  0  0  0  0
 14 15  1  0  0  0  0
 14 16  1  0  0  0  0
 14 17  1  0  0  0  0
 11 12  1  0  0  0  0
 11 13  1  0  0  0  0
 11 14  1  0  0  0  0
  9 10  1  0  0  0  0
  9 11  1  0  0  0  0
  9 26  1  0  0  0  0
  7  8  1  0  0  0  0
  7  9  1  0  0  0  0
 30 31  1  0  0  0  0
 30 32  1  0  0  0  0
 30 33  1  0  0  0  0
 28 29  1  0  0  0  0
 28 30  1  0  0  0  0
M  END
$$$$
default_name
  -OEChem-01062215323D

 33 32  0     1  0  0  0  0  0999 V2000
   -3.8420   -3.6918    1.5562 H   0  0  0  0  0  0  0  0  0  0  0  0
   -3.8430   -2.7008    1.1032 C   0  0  0  0  0  0  0  0  0  0  0  0
   -4.5510   -2.0608    1.6242 H   0  0  0  0  0  0  0  0  0  0  0  0
   -4.1140   -2.7798    0.0522 H   0  0  0  0  0  0  0  0  0  0  0  0
   -2.4570   -2.1098    1.2172 C   0  0  0  0  0  0  0  0  0  0  0  0
   -1.5600   -2.7438    1.7572 O   0  0  0  0  0  0  0  0  0  0  0  0
   -2.2870   -0.8898    0.7102 N   0  0  0  0  0  0  0  0  0  0  0  0
   -3.0820   -0.4218    0.2992 H   0  0  0  0  0  0  0  0  0  0  0  0
   -1.0240   -0.1468    0.7262 C   0  0  1  0  0  0  0  0  0  0  0  0
   -1.1764    0.8073    0.2196 H   0  0  0  0  0  0  0  0  0  0  0  0
   -0.6310    0.1295    2.1905 C   0  0  0  0  0  0  0  0  0  0  0  0
   -0.6508   -0.8144    2.7391 H   0  0  0  0  0  0  0  0  0  0  0  0
    0.3870    0.5203    2.2220 H   0  0  0  0  0  0  0  0  0  0  0  0
   -1.5741    1.1152    2.8977 C   0  0  0  0  0  0  0  0  0  0  0  0
   -1.5821    2.0638    2.3602 H   0  0  0  0  0  0  0  0  0  0  0  0
   -2.5841    0.7013    2.9075 H   0  0  0  0  0  0  0  0  0  0  0  0
   -1.1195    1.3690    4.3394 C   0  0  0  0  0  0  0  0  0  0  0  0
   -1.0988    0.4271    4.8884 H   0  0  0  0  0  0  0  0  0  0  0  0
   -0.1200    1.8049    4.3341 H   0  0  0  0  0  0  0  0  0  0  0  0
   -2.0867    2.3313    5.0262 C   0  0  0  0  0  0  0  0  0  0  0  0
   -2.0951    3.2791    4.4904 H   0  0  0  0  0  0  0  0  0  0  0  0
   -3.0888    1.9056    5.0167 H   0  0  0  0  0  0  0  0  0  0  0  0
   -1.6935    2.5781    6.4182 N   0  0  0  0  0  0  0  0  0  0  0  0
   -2.3445    3.2269    6.8357 H   0  0  0  0  0  0  0  0  0  0  0  0
   -1.7150    1.7064    6.9281 H   0  0  0  0  0  0  0  0  0  0  0  0
    0.0613   -0.9298   -0.0307 C   0  0  0  0  0  0  0  0  0  0  0  0
   -0.1970   -1.4520   -1.1131 O   0  0  0  0  0  0  0  0  0  0  0  0
    1.2662   -1.0164    0.5447 N   0  0  0  0  0  0  0  0  0  0  0  0
    1.4030   -0.5486    1.4256 H   0  0  0  0  0  0  0  0  0  0  0  0
    2.3982   -1.7367   -0.0363 C   0  0  0  0  0  0  0  0  0  0  0  0
    2.5931   -1.3658   -1.0450 H   0  0  0  0  0  0  0  0  0  0  0  0
    3.2903   -1.5996    0.5764 H   0  0  0  0  0  0  0  0  0  0  0  0
    2.1629   -2.8012   -0.0988 H   0  0  0  0  0  0  0  0  0  0  0  0
  5  6  2  0  0  0  0
  5  7  1  0  0  0  0
  2  3  1  0  0  0  0
  2  4  1  0  0  0  0
  2  5  1  0  0  0  0
  1  2  1  0  0  0  0
 26 27  2  0  0  0  0
 26 28  1  0  0  0  0
 23 24  1  0  0  0  0
 23 25  1  0  0  0  0
 20 21  1  0  0  0  0
 20 22  1  0  0  0  0
 20 23  1  0  0  0  0
 17 18  1  0  0  0  0
 17 19  1  0  0  0  0
 17 20  1  0  0  0  0
 14 15  1  0  0  0  0
 14 16  1  0  0  0  0
 14 17  1  0  0  0  0
 11 12  1  0  0  0  0
 11 13  1  0  0  0  0
 11 14  1  0  0  0  0
  9 10  1  0  0  0  0
  9 11  1  0  0  0  0
  9 26  1  0  0  0  0
  7  8  1  0  0  0  0
  7  9  1  0  0  0  0
 30 31  1  0  0  0  0
 30 32  1  0  0  0  0
 30 33  1  0  0  0  0
 28 29  1  0  0  0  0
 28 30  1  0  0  0  0
M  END
$$$$
default_name
  -OEChem-01062215323D

 33 32  0     1  0  0  0  0  0999 V2000
   -3.8420   -3.6918    1.5562 H   0  0  0  0  0  0  0  0  0  0  0  0
   -3.8430   -2.7008    1.1032 C   0  0  0  0  0  0  0  0  0  0  0  0
   -4.5510   -2.0608    1.6242 H   0  0  0  0  0  0  0  0  0  0  0  0
   -4.1140   -2.7798    0.0522 H   0  0  0  0  0  0  0  0  0  0  0  0
   -2.4570   -2.1098    1.2172 C   0  0  0  0  0  0  0  0  0  0  0  0
   -1.5600   -2.7438    1.7572 O   0  0  0  0  0  0  0  0  0  0  0  0
   -2.2870   -0.8898    0.7102 N   0  0  0  0  0  0  0  0  0  0  0  0
   -3.0820   -0.4218    0.2992 H   0  0  0  0  0  0  0  0  0  0  0  0
   -1.0240   -0.1468    0.7262 C   0  0  1  0  0  0  0  0  0  0  0  0
   -1.1764    0.8073    0.2196 H   0  0  0  0  0  0  0  0  0  0  0  0
   -0.6310    0.1295    2.1905 C   0  0  0  0  0  0  0  0  0  0  0  0
   -0.6508   -0.8144    2.7391 H   0  0  0  0  0  0  0  0  0  0  0  0
    0.3870    0.5203    2.2220 H   0  0  0  0  0  0  0  0  0  0  0  0
   -1.5741    1.1152    2.8977 C   0  0  0  0  0  0  0  0  0  0  0  0
   -1.5821    2.0638    2.3602 H   0  0  0  0  0  0  0  0  0  0  0  0
   -2.5841    0.7013    2.9075 H   0  0  0  0  0  0  0  0  0  0  0  0
   -1.1195    1.3690    4.3394 C   0  0  0  0  0  0  0  0  0  0  0  0
   -1.0988    0.4271    4.8884 H   0  0  0  0  0  0  0  0  0  0  0  0
   -0.1200    1.8049    4.3341 H   0  0  0  0  0  0  0  0  0  0  0  0
   -2.0867    2.3313    5.0262 C   0  0  0  0  0  0  0  0  0  0  0  0
   -2.0951    3.2791    4.4904 H   0  0  0  0  0  0  0  0  0  0  0  0
   -3.0888    1.9056    5.0167 H   0  0  0  0  0  0  0  0  0  0  0  0
   -1.6935    2.5781    6.4182 N   0  0  0  0  0  0  0  0  0  0  0  0
   -2.3445    3.2269    6.8357 H   0  0  0  0  0  0  0  0  0  0  0  0
   -1.7150    1.7064    6.9281 H   0  0  0  0  0  0  0  0  0  0  0  0
    0.0613   -0.9298   -0.0307 C   0  0  0  0  0  0  0  0  0  0  0  0
   -0.0973   -1.2143   -1.2160 O   0  0  0  0  0  0  0  0  0  0  0  0
    1.1530   -1.2828    0.6578 N   0  0  0  0  0  0  0  0  0  0  0  0
    1.2148   -0.9992    1.6219 H   0  0  0  0  0  0  0  0  0  0  0  0
    2.2661   -2.0418    0.0898 C   0  0  0  0  0  0  0  0  0  0  0  0
    2.6453   -1.5318   -0.7985 H   0  0  0  0  0  0  0  0  0  0  0  0
    3.0708   -2.1394    0.8200 H   0  0  0  0  0  0  0  0  0  0  0  0
    1.9212   -3.0357   -0.2028 H   0  0  0  0  0  0  0  0  0  0  0  0
  5  6  2  0  0  0  0
  5  7  1  0  0  0  0
  2  3  1  0  0  0  0
  2  4  1  0  0  0  0
  2  5  1  0  0  0  0
  1  2  1  0  0  0  0
 26 27  2  0  0  0  0
 26 28  1  0  0  0  0
 23 24  1  0  0  0  0
 23 25  1  0  0  0  0
 20 21  1  0  0  0  0
 20 22  1  0  0  0  0
 20 23  1  0  0  0  0
 17 18  1  0  0  0  0
 17 19  1  0  0  0  0
 17 20  1  0  0  0  0
 14 15  1  0  0  0  0
 14 16  1  0  0  0  0
 14 17  1  0  0  0  0
 11 12  1  0  0  0  0
 11 13  1  0  0  0  0
 11 14  1  0  0  0  0
  9 10  1  0  0  0  0
  9 11  1  0  0  0  0
  9 26  1  0  0  0  0
  7  8  1  0  0  0  0
  7  9  1  0  0  0  0
 30 31  1  0  0  0  0
 30 32  1  0  0  0  0
 30 33  1  0  0  0  0
 28 29  1  0  0  0  0
 28 30  1  0  0  0  0
M  END
$$$$
default_name
  -OEChem-01062215323D

 33 32  0     1  0  0  0  0  0999 V2000
   -3.8420   -3.6918    1.5562 H   0  0  0  0  0  0  0  0  0  0  0  0
   -3.8430   -2.7008    1.1032 C   0  0  0  0  0  0  0  0  0  0  0  0
   -4.5510   -2.0608    1.6242 H   0  0  0  0  0  0  0  0  0  0  0  0
   -4.1140   -2.7798    0.0522 H   0  0  0  0  0  0  0  0  0  0  0  0
   -2.4570   -2.1098    1.2172 C   0  0  0  0  0  0  0  0  0  0  0  0
   -1.5600   -2.7438    1.7572 O   0  0  0  0  0  0  0  0  0  0  0  0
   -2.2870   -0.8898    0.7102 N   0  0  0  0  0  0  0  0  0  0  0  0
   -3.0820   -0.4218    0.2992 H   0  0  0  0  0  0  0  0  0  0  0  0
   -1.0240   -0.1468    0.7262 C   0  0  1  0  0  0  0  0  0  0  0  0
   -1.1764    0.8073    0.2196 H   0  0  0  0  0  0  0  0  0  0  0  0
   -0.6310    0.1295    2.1905 C   0  0  0  0  0  0  0  0  0  0  0  0
   -0.6508   -0.8144    2.7391 H   0  0  0  0  0  0  0  0  0  0  0  0
    0.3870    0.5203    2.2220 H   0  0  0  0  0  0  0  0  0  0  0  0
   -1.5741    1.1152    2.8977 C   0  0  0  0  0  0  0  0  0  0  0  0
   -1.5821    2.0638    2.3602 H   0  0  0  0  0  0  0  0  0  0  0  0
   -2.5841    0.7013    2.9075 H   0  0  0  0  0  0  0  0  0  0  0  0
   -1.1195    1.3690    4.3394 C   0  0  0  0  0  0  0  0  0  0  0  0
   -1.0988    0.4271    4.8884 H   0  0  0  0  0  0  0  0  0  0  0  0
   -0.1200    1.8049    4.3341 H   0  0  0  0  0  0  0  0  0  0  0  0
   -2.0867    2.3313    5.0262 C   0  0  0  0  0  0  0  0  0  0  0  0
   -2.0951    3.2791    4.4904 H   0  0  0  0  0  0  0  0  0  0  0  0
   -3.0888    1.9056    5.0167 H   0  0  0  0  0  0  0  0  0  0  0  0
   -1.6935    2.5781    6.4182 N   0  0  0  0  0  0  0  0  0  0  0  0
   -2.3445    3.2269    6.8357 H   0  0  0  0  0  0  0  0  0  0  0  0
   -1.7150    1.7064    6.9281 H   0  0  0  0  0  0  0  0  0  0  0  0
    0.0613   -0.9298   -0.0307 C   0  0  0  0  0  0  0  0  0  0  0  0
    0.0429   -0.9785   -1.2588 O   0  0  0  0  0  0  0  0  0  0  0  0
    0.9947   -1.5462    0.7035 N   0  0  0  0  0  0  0  0  0  0  0  0
    0.9497   -1.4464    1.7043 H   0  0  0  0  0  0  0  0  0  0  0  0
    2.0830   -2.3427    0.1386 C   0  0  0  0  0  0  0  0  0  0  0  0
    2.6421   -1.7438   -0.5838 H   0  0  0  0  0  0  0  0  0  0  0  0
    2.7578   -2.6774    0.9277 H   0  0  0  0  0  0  0  0  0  0  0  0
    1.6716   -3.2123   -0.3780 H   0  0  0  0  0  0  0  0  0  0  0  0
  5  6  2  0  0  0  0
  5  7  1  0  0  0  0
  2  3  1  0  0  0  0
  2  4  1  0  0  0  0
  2  5  1  0  0  0  0
  1  2  1  0  0  0  0
 26 27  2  0  0  0  0
 26 28  1  0  0  0  0
 23 24  1  0  0  0  0
 23 25  1  0  0  0  0
 20 21  1  0  0  0  0
 20 22  1  0  0  0  0
 20 23  1  0  0  0  0
 17 18  1  0  0  0  0
 17 19  1  0  0  0  0
 17 20  1  0  0  0  0
 14 15  1  0  0  0  0
 14 16  1  0  0  0  0
 14 17  1  0  0  0  0
 11 12  1  0  0  0  0
 11 13  1  0  0  0  0
 11 14  1  0  0  0  0
  9 10  1  0  0  0  0
  9 11  1  0  0  0  0
  9 26  1  0  0  0  0
  7  8  1  0  0  0  0
  7  9  1  0  0  0  0
 30 31  1  0  0  0  0
 30 32  1  0  0  0  0
 30 33  1  0  0  0  0
 28 29  1  0  0  0  0
 28 30  1  0  0  0  0
M  END
$$$$
default_name
  -OEChem-01062215323D

 33 32  0     1  0  0  0  0  0999 V2000
   -3.8420   -3.6918    1.5562 H   0  0  0  0  0  0  0  0  0  0  0  0
   -3.8430   -2.7008    1.1032 C   0  0  0  0  0  0  0  0  0  0  0  0
   -4.5510   -2.0608    1.6242 H   0  0  0  0  0  0  0  0  0  0  0  0
   -4.1140   -2.7798    0.0522 H   0  0  0  0  0  0  0  0  0  0  0  0
   -2.4570   -2.1098    1.2172 C   0  0  0  0  0  0  0  0  0  0  0  0
   -1.5600   -2.7438    1.7572 O   0  0  0  0  0  0  0  0  0  0  0  0
   -2.2870   -0.8898    0.7102 N   0  0  0  0  0  0  0  0  0  0  0  0
   -3.0820   -0.4218    0.2992 H   0  0  0  0  0  0  0  0  0  0  0  0
   -1.0240   -0.1468    0.7262 C   0  0  1  0  0  0  0  0  0  0  0  0
   -1.1764    0.8073    0.2196 H   0  0  0  0  0  0  0  0  0  0  0  0
   -0.6310    0.1295    2.1905 C   0  0  0  0  0  0  0  0  0  0  0  0
   -0.6508   -0.8144    2.7391 H   0  0  0  0  0  0  0  0  0  0  0  0
    0.3870    0.5203    2.2220 H   0  0  0  0  0  0  0  0  0  0  0  0
   -1.5741    1.1152    2.8977 C   0  0  0  0  0  0  0  0  0  0  0  0
   -1.5821    2.0638    2.3602 H   0  0  0  0  0  0  0  0  0  0  0  0
   -2.5841    0.7013    2.9075 H   0  0  0  0  0  0  0  0  0  0  0  0
   -1.1195    1.3690    4.3394 C   0  0  0  0  0  0  0  0  0  0  0  0
   -1.0988    0.4271    4.8884 H   0  0  0  0  0  0  0  0  0  0  0  0
   -0.1200    1.8049    4.3341 H   0  0  0  0  0  0  0  0  0  0  0  0
   -2.0867    2.3313    5.0262 C   0  0  0  0  0  0  0  0  0  0  0  0
   -2.0951    3.2791    4.4904 H   0  0  0  0  0  0  0  0  0  0  0  0
   -3.0888    1.9056    5.0167 H   0  0  0  0  0  0  0  0  0  0  0  0
   -1.6935    2.5781    6.4182 N   0  0  0  0  0  0  0  0  0  0  0  0
   -2.3445    3.2269    6.8357 H   0  0  0  0  0  0  0  0  0  0  0  0
   -1.7150    1.7064    6.9281 H   0  0  0  0  0  0  0  0  0  0  0  0
    0.0613   -0.9298   -0.0307 C   0  0  0  0  0  0  0  0  0  0  0  0
    0.2141   -0.7609   -1.2387 O   0  0  0  0  0  0  0  0  0  0  0  0
    0.8023   -1.7889    0.6786 N   0  0  0  0  0  0  0  0  0  0  0  0
    0.6257   -1.8596    1.6673 H   0  0  0  0  0  0  0  0  0  0  0  0
    1.8614   -2.6189    0.1065 C   0  0  0  0  0  0  0  0  0  0  0  0
    2.5836   -1.9874   -0.4156 H   0  0  0  0  0  0  0  0  0  0  0  0
    2.3727   -3.1768    0.8923 H   0  0  0  0  0  0  0  0  0  0  0  0
    1.4310   -3.3192   -0.6123 H   0  0  0  0  0  0  0  0  0  0  0  0
  5  6  2  0  0  0  0
  5  7  1  0  0  0  0
  2  3  1  0  0  0  0
  2  4  1  0  0  0  0
  2  5  1  0  0  0  0
  1  2  1  0  0  0  0
 26 27  2  0  0  0  0
 26 28  1  0  0  0  0
 23 24  1  0  0  0  0
 23 25  1  0  0  0  0
 20 21  1  0  0  0  0
 20 22  1  0  0  0  0
 20 23  1  0  0  0  0
 17 18  1  0  0  0  0
 17 19  1  0  0  0  0
 17 20  1  0  0  0  0
 14 15  1  0  0  0  0
 14 16  1  0  0  0  0
 14 17  1  0  0  0  0
 11 12  1  0  0  0  0
 11 13  1  0  0  0  0
 11 14  1  0  0  0  0
  9 10  1  0  0  0  0
  9 11  1  0  0  0  0
  9 26  1  0  0  0  0
  7  8  1  0  0  0  0
  7  9  1  0  0  0  0
 30 31  1  0  0  0  0
 30 32  1  0  0  0  0
 30 33  1  0  0  0  0
 28 29  1  0  0  0  0
 28 30  1  0  0  0  0
M  END
$$$$
default_name
  -OEChem-01062215323D

 33 32  0     1  0  0  0  0  0999 V2000
   -3.8420   -3.6918    1.5562 H   0  0  0  0  0  0  0  0  0  0  0  0
   -3.8430   -2.7008    1.1032 C   0  0  0  0  0  0  0  0  0  0  0  0
   -4.5510   -2.0608    1.6242 H   0  0  0  0  0  0  0  0  0  0  0  0
   -4.1140   -2.7798    0.0522 H   0  0  0  0  0  0  0  0  0  0  0  0
   -2.4570   -2.1098    1.2172 C   0  0  0  0  0  0  0  0  0  0  0  0
   -1.5600   -2.7438    1.7572 O   0  0  0  0  0  0  0  0  0  0  0  0
   -2.2870   -0.8898    0.7102 N   0  0  0  0  0  0  0  0  0  0  0  0
   -3.0820   -0.4218    0.2992 H   0  0  0  0  0  0  0  0  0  0  0  0
   -1.0240   -0.1468    0.7262 C   0  0  1  0  0  0  0  0  0  0  0  0
   -1.1764    0.8073    0.2196 H   0  0  0  0  0  0  0  0  0  0  0  0
   -0.6310    0.1295    2.1905 C   0  0  0  0  0  0  0  0  0  0  0  0
   -0.6508   -0.8144    2.7391 H   0  0  0  0  0  0  0  0  0  0  0  0
    0.3870    0.5203    2.2220 H   0  0  0  0  0  0  0  0  0  0  0  0
   -1.5741    1.1152    2.8977 C   0  0  0  0  0  0  0  0  0  0  0  0
   -1.5821    2.0638    2.3602 H   0  0  0  0  0  0  0  0  0  0  0  0
   -2.5841    0.7013    2.9075 H   0  0  0  0  0  0  0  0  0  0  0  0
   -1.1195    1.3690    4.3394 C   0  0  0  0  0  0  0  0  0  0  0  0
   -1.0988    0.4271    4.8884 H   0  0  0  0  0  0  0  0  0  0  0  0
   -0.1200    1.8049    4.3341 H   0  0  0  0  0  0  0  0  0  0  0  0
   -2.0867    2.3313    5.0262 C   0  0  0  0  0  0  0  0  0  0  0  0
   -2.0951    3.2791    4.4904 H   0  0  0  0  0  0  0  0  0  0  0  0
   -3.0888    1.9056    5.0167 H   0  0  0  0  0  0  0  0  0  0  0  0
   -1.6935    2.5781    6.4182 N   0  0  0  0  0  0  0  0  0  0  0  0
   -2.3445    3.2269    6.8357 H   0  0  0  0  0  0  0  0  0  0  0  0
   -1.7150    1.7064    6.9281 H   0  0  0  0  0  0  0  0  0  0  0  0
    0.0613   -0.9298   -0.0307 C   0  0  0  0  0  0  0  0  0  0  0  0
    0.4044   -0.5761   -1.1568 O   0  0  0  0  0  0  0  0  0  0  0  0
    0.5888   -1.9943    0.5849 N   0  0  0  0  0  0  0  0  0  0  0  0
    0.2651   -2.2107    1.5134 H   0  0  0  0  0  0  0  0  0  0  0  0
    1.6164   -2.8516   -0.0041 C   0  0  0  0  0  0  0  0  0  0  0  0
    2.4740   -2.2460   -0.3053 H   0  0  0  0  0  0  0  0  0  0  0  0
    1.9418   -3.6037    0.7160 H   0  0  0  0  0  0  0  0  0  0  0  0
    1.2160   -3.3489   -0.8899 H   0  0  0  0  0  0  0  0  0  0  0  0
  5  6  2  0  0  0  0
  5  7  1  0  0  0  0
  2  3  1  0  0  0  0
  2  4  1  0  0  0  0
  2  5  1  0  0  0  0
  1  2  1  0  0  0  0
 26 27  2  0  0  0  0
 26 28  1  0  0  0  0
 23 24  1  0  0  0  0
 23 25  1  0  0  0  0
 20 21  1  0  0  0  0
 20 22  1  0  0  0  0
 20 23  1  0  0  0  0
 17 18  1  0  0  0  0
 17 19  1  0  0  0  0
 17 20  1  0  0  0  0
 14 15  1  0  0  0  0
 14 16  1  0  0  0  0
 14 17  1  0  0  0  0
 11 12  1  0  0  0  0
 11 13  1  0  0  0  0
 11 14  1  0  0  0  0
  9 10  1  0  0  0  0
  9 11  1  0  0  0  0
  9 26  1  0  0  0  0
  7  8  1  0  0  0  0
  7  9  1  0  0  0  0
 30 31  1  0  0  0  0
 30 32  1  0  0  0  0
 30 33  1  0  0  0  0
 28 29  1  0  0  0  0
 28 30  1  0  0  0  0
M  END
$$$$
default_name
  -OEChem-01062215323D

 33 32  0     1  0  0  0  0  0999 V2000
   -3.8420   -3.6918    1.5562 H   0  0  0  0  0  0  0  0  0  0  0  0
   -3.8430   -2.7008    1.1032 C   0  0  0  0  0  0  0  0  0  0  0  0
   -4.5510   -2.0608    1.6242 H   0  0  0  0  0  0  0  0  0  0  0  0
   -4.1140   -2.7798    0.0522 H   0  0  0  0  0  0  0  0  0  0  0  0
   -2.4570   -2.1098    1.2172 C   0  0  0  0  0  0  0  0  0  0  0  0
   -1.5600   -2.7438    1.7572 O   0  0  0  0  0  0  0  0  0  0  0  0
   -2.2870   -0.8898    0.7102 N   0  0  0  0  0  0  0  0  0  0  0  0
   -3.0820   -0.4218    0.2992 H   0  0  0  0  0  0  0  0  0  0  0  0
   -1.0240   -0.1468    0.7262 C   0  0  1  0  0  0  0  0  0  0  0  0
   -1.1764    0.8073    0.2196 H   0  0  0  0  0  0  0  0  0  0  0  0
   -0.6310    0.1295    2.1905 C   0  0  0  0  0  0  0  0  0  0  0  0
   -0.6508   -0.8144    2.7391 H   0  0  0  0  0  0  0  0  0  0  0  0
    0.3870    0.5203    2.2220 H   0  0  0  0  0  0  0  0  0  0  0  0
   -1.5741    1.1152    2.8977 C   0  0  0  0  0  0  0  0  0  0  0  0
   -1.5821    2.0638    2.3602 H   0  0  0  0  0  0  0  0  0  0  0  0
   -2.5841    0.7013    2.9075 H   0  0  0  0  0  0  0  0  0  0  0  0
   -1.1195    1.3690    4.3394 C   0  0  0  0  0  0  0  0  0  0  0  0
   -1.0988    0.4271    4.8884 H   0  0  0  0  0  0  0  0  0  0  0  0
   -0.1200    1.8049    4.3341 H   0  0  0  0  0  0  0  0  0  0  0  0
   -2.0867    2.3313    5.0262 C   0  0  0  0  0  0  0  0  0  0  0  0
   -2.0951    3.2791    4.4904 H   0  0  0  0  0  0  0  0  0  0  0  0
   -3.0888    1.9056    5.0167 H   0  0  0  0  0  0  0  0  0  0  0  0
   -1.6935    2.5781    6.4182 N   0  0  0  0  0  0  0  0  0  0  0  0
   -2.3445    3.2269    6.8357 H   0  0  0  0  0  0  0  0  0  0  0  0
   -1.7150    1.7064    6.9281 H   0  0  0  0  0  0  0  0  0  0  0  0
    0.0613   -0.9298   -0.0307 C   0  0  0  0  0  0  0  0  0  0  0  0
    0.6011   -0.4368   -1.0190 O   0  0  0  0  0  0  0  0  0  0  0  0
    0.3687   -2.1483    0.4287 N   0  0  0  0  0  0  0  0  0  0  0  0
   -0.1077   -2.4757    1.2530 H   0  0  0  0  0  0  0  0  0  0  0  0
    1.3646   -3.0249   -0.1857 C   0  0  0  0  0  0  0  0  0  0  0  0
    2.3206   -2.5019   -0.2605 H   0  0  0  0  0  0  0  0  0  0  0  0
    1.4944   -3.9289    0.4110 H   0  0  0  0  0  0  0  0  0  0  0  0
    1.0410   -3.2995   -1.1919 H   0  0  0  0  0  0  0  0  0  0  0  0
  5  6  2  0  0  0  0
  5  7  1  0  0  0  0
  2  3  1  0  0  0  0
  2  4  1  0  0  0  0
  2  5  1  0  0  0  0
  1  2  1  0  0  0  0
 26 27  2  0  0  0  0
 26 28  1  0  0  0  0
 23 24  1  0  0  0  0
 23 25  1  0  0  0  0
 20 21  1  0  0  0  0
 20 22  1  0  0  0  0
 20 23  1  0  0  0  0
 17 18  1  0  0  0  0
 17 19  1  0  0  0  0
 17 20  1  0  0  0  0
 14 15  1  0  0  0  0
 14 16  1  0  0  0  0
 14 17  1  0  0  0  0
 11 12  1  0  0  0  0
 11 13  1  0  0  0  0
 11 14  1  0  0  0  0
  9 10  1  0  0  0  0
  9 11  1  0  0  0  0
  9 26  1  0  0  0  0
  7  8  1  0  0  0  0
  7  9  1  0  0  0  0
 30 31  1  0  0  0  0
 30 32  1  0  0  0  0
 30 33  1  0  0  0  0
 28 29  1  0  0  0  0
 28 30  1  0  0  0  0
M  END
$$$$
default_name
  -OEChem-01062215323D

 33 32  0     1  0  0  0  0  0999 V2000
   -3.8420   -3.6918    1.5562 H   0  0  0  0  0  0  0  0  0  0  0  0
   -3.8430   -2.7008    1.1032 C   0  0  0  0  0  0  0  0  0  0  0  0
   -4.5510   -2.0608    1.6242 H   0  0  0  0  0  0  0  0  0  0  0  0
   -4.1140   -2.7798    0.0522 H   0  0  0  0  0  0  0  0  0  0  0  0
   -2.4570   -2.1098    1.2172 C   0  0  0  0  0  0  0  0  0  0  0  0
   -1.5600   -2.7438    1.7572 O   0  0  0  0  0  0  0  0  0  0  0  0
   -2.2870   -0.8898    0.7102 N   0  0  0  0  0  0  0  0  0  0  0  0
   -3.0820   -0.4218    0.2992 H   0  0  0  0  0  0  0  0  0  0  0  0
   -1.0240   -0.1468    0.7262 C   0  0  1  0  0  0  0  0  0  0  0  0
   -1.1764    0.8073    0.2196 H   0  0  0  0  0  0  0  0  0  0  0  0
   -0.6310    0.1295    2.1905 C   0  0  0  0  0  0  0  0  0  0  0  0
   -0.6508   -0.8144    2.7391 H   0  0  0  0  0  0  0  0  0  0  0  0
    0.3870    0.5203    2.2220 H   0  0  0  0  0  0  0  0  0  0  0  0
   -1.5741    1.1152    2.8977 C   0  0  0  0  0  0  0  0  0  0  0  0
   -1.5821    2.0638    2.3602 H   0  0  0  0  0  0  0  0  0  0  0  0
   -2.5841    0.7013    2.9075 H   0  0  0  0  0  0  0  0  0  0  0  0
   -1.1195    1.3690    4.3394 C   0  0  0  0  0  0  0  0  0  0  0  0
   -1.0988    0.4271    4.8884 H   0  0  0  0  0  0  0  0  0  0  0  0
   -0.1200    1.8049    4.3341 H   0  0  0  0  0  0  0  0  0  0  0  0
   -2.0867    2.3313    5.0262 C   0  0  0  0  0  0  0  0  0  0  0  0
   -2.0951    3.2791    4.4904 H   0  0  0  0  0  0  0  0  0  0  0  0
   -3.0888    1.9056    5.0167 H   0  0  0  0  0  0  0  0  0  0  0  0
   -1.6935    2.5781    6.4182 N   0  0  0  0  0  0  0  0  0  0  0  0
   -2.3445    3.2269    6.8357 H   0  0  0  0  0  0  0  0  0  0  0  0
   -1.7150    1.7064    6.9281 H   0  0  0  0  0  0  0  0  0  0  0  0
    0.0613   -0.9298   -0.0307 C   0  0  0  0  0  0  0  0  0  0  0  0
    0.7906   -0.3526   -0.8344 O   0  0  0  0  0  0  0  0  0  0  0  0
    0.1571   -2.2405    0.2207 N   0  0  0  0  0  0  0  0  0  0  0  0
   -0.4673   -2.6367    0.9039 H   0  0  0  0  0  0  0  0  0  0  0  0
    1.1233   -3.1271   -0.4260 C   0  0  0  0  0  0  0  0  0  0  0  0
    2.1339   -2.7378   -0.2842 H   0  0  0  0  0  0  0  0  0  0  0  0
    1.0611   -4.1303   -0.0020 H   0  0  0  0  0  0  0  0  0  0  0  0
    0.9182   -3.1743   -1.4975 H   0  0  0  0  0  0  0  0  0  0  0  0
  5  6  2  0  0  0  0
  5  7  1  0  0  0  0
  2  3  1  0  0  0  0
  2  4  1  0  0  0  0
  2  5  1  0  0  0  0
  1  2  1  0  0  0  0
 26 27  2  0  0  0  0
 26 28  1  0  0  0  0
 23 24  1  0  0  0  0
 23 25  1  0  0  0  0
 20 21  1  0  0  0  0
 20 22  1  0  0  0  0
 20 23  1  0  0  0  0
 17 18  1  0  0  0  0
 17 19  1  0  0  0  0
 17 20  1  0  0  0  0
 14 15  1  0  0  0  0
 14 16  1  0  0  0  0
 14 17  1  0  0  0  0
 11 12  1  0  0  0  0
 11 13  1  0  0  0  0
 11 14  1  0  0  0  0
  9 10  1  0  0  0  0
  9 11  1  0  0  0  0
  9 26  1  0  0  0  0
  7  8  1  0  0  0  0
  7  9  1  0  0  0  0
 30 31  1  0  0  0  0
 30 32  1  0  0  0  0
 30 33  1  0  0  0  0
 28 29  1  0  0  0  0
 28 30  1  0  0  0  0
M  END
$$$$
default_name
  -OEChem-01062215323D

 33 32  0     1  0  0  0  0  0999 V2000
   -3.8420   -3.6918    1.5562 H   0  0  0  0  0  0  0  0  0  0  0  0
   -3.8430   -2.7008    1.1032 C   0  0  0  0  0  0  0  0  0  0  0  0
   -4.5510   -2.0608    1.6242 H   0  0  0  0  0  0  0  0  0  0  0  0
   -4.1140   -2.7798    0.0522 H   0  0  0  0  0  0  0  0  0  0  0  0
   -2.4570   -2.1098    1.2172 C   0  0  0  0  0  0  0  0  0  0  0  0
   -1.5600   -2.7438    1.7572 O   0  0  0  0  0  0  0  0  0  0  0  0
   -2.2870   -0.8898    0.7102 N   0  0  0  0  0  0  0  0  0  0  0  0
   -3.0820   -0.4218    0.2992 H   0  0  0  0  0  0  0  0  0  0  0  0
   -1.0240   -0.1468    0.7262 C   0  0  1  0  0  0  0  0  0  0  0  0
   -1.1764    0.8073    0.2196 H   0  0  0  0  0  0  0  0  0  0  0  0
   -0.6310    0.1295    2.1905 C   0  0  0  0  0  0  0  0  0  0  0  0
   -0.6508   -0.8144    2.7391 H   0  0  0  0  0  0  0  0  0  0  0  0
    0.3870    0.5203    2.2220 H   0  0  0  0  0  0  0  0  0  0  0  0
   -1.5741    1.1152    2.8977 C   0  0  0  0  0  0  0  0  0  0  0  0
   -1.5821    2.0638    2.3602 H   0  0  0  0  0  0  0  0  0  0  0  0
   -2.5841    0.7013    2.9075 H   0  0  0  0  0  0  0  0  0  0  0  0
   -1.1195    1.3690    4.3394 C   0  0  0  0  0  0  0  0  0  0  0  0
   -1.0988    0.4271    4.8884 H   0  0  0  0  0  0  0  0  0  0  0  0
   -0.1200    1.8049    4.3341 H   0  0  0  0  0  0  0  0  0  0  0  0
   -2.0867    2.3313    5.0262 C   0  0  0  0  0  0  0  0  0  0  0  0
   -2.0951    3.2791    4.4904 H   0  0  0  0  0  0  0  0  0  0  0  0
   -3.0888    1.9056    5.0167 H   0  0  0  0  0  0  0  0  0  0  0  0
   -1.6935    2.5781    6.4182 N   0  0  0  0  0  0  0  0  0  0  0  0
   -2.3445    3.2269    6.8357 H   0  0  0  0  0  0  0  0  0  0  0  0
   -1.7150    1.7064    6.9281 H   0  0  0  0  0  0  0  0  0  0  0  0
    0.0613   -0.9298   -0.0307 C   0  0  0  0  0  0  0  0  0  0  0  0
    0.9600   -0.3290   -0.6158 O   0  0  0  0  0  0  0  0  0  0  0  0
   -0.0316   -2.2646   -0.0249 N   0  0  0  0  0  0  0  0  0  0  0  0
   -0.7891   -2.6825    0.4900 H   0  0  0  0  0  0  0  0  0  0  0  0
    0.9088   -3.1511   -0.7086 C   0  0  0  0  0  0  0  0  0  0  0  0
    1.9266   -2.9375   -0.3747 H   0  0  0  0  0  0  0  0  0  0  0  0
    0.6712   -4.1942   -0.4949 H   0  0  0  0  0  0  0  0  0  0  0  0
    0.8557   -2.9819   -1.7861 H   0  0  0  0  0  0  0  0  0  0  0  0
  5  6  2  0  0  0  0
  5  7  1  0  0  0  0
  2  3  1  0  0  0  0
  2  4  1  0  0  0  0
  2  5  1  0  0  0  0
  1  2  1  0  0  0  0
 26 27  2  0  0  0  0
 26 28  1  0  0  0  0
 23 24  1  0  0  0  0
 23 25  1  0  0  0  0
 20 21  1  0  0  0  0
 20 22  1  0  0  0  0
 20 23  1  0  0  0  0
 17 18  1  0  0  0  0
 17 19  1  0  0  0  0
 17 20  1  0  0  0  0
 14 15  1  0  0  0  0
 14 16  1  0  0  0  0
 14 17  1  0  0  0  0
 11 12  1  0  0  0  0
 11 13  1  0  0  0  0
 11 14  1  0  0  0  0
  9 10  1  0  0  0  0
  9 11  1  0  0  0  0
  9 26  1  0  0  0  0
  7  8  1  0  0  0  0
  7  9  1  0  0  0  0
 30 31  1  0  0  0  0
 30 32  1  0  0  0  0
 30 33  1  0  0  0  0
 28 29  1  0  0  0  0
 28 30  1  0  0  0  0
M  END
$$$$
default_name
  -OEChem-01062215323D

 33 32  0     1  0  0  0  0  0999 V2000
   -3.8420   -3.6918    1.5562 H   0  0  0  0  0  0  0  0  0  0  0  0
   -3.8430   -2.7008    1.1032 C   0  0  0  0  0  0  0  0  0  0  0  0
   -4.5510   -2.0608    1.6242 H   0  0  0  0  0  0  0  0  0  0  0  0
   -4.1140   -2.7798    0.0522 H   0  0  0  0  0  0  0  0  0  0  0  0
   -2.4570   -2.1098    1.2172 C   0  0  0  0  0  0  0  0  0  0  0  0
   -1.5600   -2.7438    1.7572 O   0  0  0  0  0  0  0  0  0  0  0  0
   -2.2870   -0.8898    0.7102 N   0  0  0  0  0  0  0  0  0  0  0  0
   -3.0820   -0.4218    0.2992 H   0  0  0  0  0  0  0  0  0  0  0  0
   -1.0240   -0.1468    0.7262 C   0  0  1  0  0  0  0  0  0  0  0  0
   -1.1764    0.8073    0.2196 H   0  0  0  0  0  0  0  0  0  0  0  0
   -0.6310    0.1295    2.1905 C   0  0  0  0  0  0  0  0  0  0  0  0
   -0.6508   -0.8144    2.7391 H   0  0  0  0  0  0  0  0  0  0  0  0
    0.3870    0.5203    2.2220 H   0  0  0  0  0  0  0  0  0  0  0  0
   -1.5741    1.1152    2.8977 C   0  0  0  0  0  0  0  0  0  0  0  0
   -1.5821    2.0638    2.3602 H   0  0  0  0  0  0  0  0  0  0  0  0
   -2.5841    0.7013    2.9075 H   0  0  0  0  0  0  0  0  0  0  0  0
   -1.1195    1.3690    4.3394 C   0  0  0  0  0  0  0  0  0  0  0  0
   -1.0988    0.4271    4.8884 H   0  0  0  0  0  0  0  0  0  0  0  0
   -0.1200    1.8049    4.3341 H   0  0  0  0  0  0  0  0  0  0  0  0
   -2.0867    2.3313    5.0262 C   0  0  0  0  0  0  0  0  0  0  0  0
   -2.0951    3.2791    4.4904 H   0  0  0  0  0  0  0  0  0  0  0  0
   -3.0888    1.9056    5.0167 H   0  0  0  0  0  0  0  0  0  0  0  0
   -1.6935    2.5781    6.4182 N   0  0  0  0  0  0  0  0  0  0  0  0
   -2.3445    3.2269    6.8357 H   0  0  0  0  0  0  0  0  0  0  0  0
   -1.7150    1.7064    6.9281 H   0  0  0  0  0  0  0  0  0  0  0  0
    0.0613   -0.9298   -0.0307 C   0  0  0  0  0  0  0  0  0  0  0  0
    1.0979   -0.3678   -0.3780 O   0  0  0  0  0  0  0  0  0  0  0  0
   -0.1846   -2.2190   -0.2915 N   0  0  0  0  0  0  0  0  0  0  0  0
   -1.0513   -2.6102    0.0393 H   0  0  0  0  0  0  0  0  0  0  0  0
    0.7359   -3.0954   -1.0143 C   0  0  0  0  0  0  0  0  0  0  0  0
    1.7129   -3.0875   -0.5260 H   0  0  0  0  0  0  0  0  0  0  0  0
    0.3515   -4.1162   -1.0340 H   0  0  0  0  0  0  0  0  0  0  0  0
    0.8580   -2.7354   -2.0379 H   0  0  0  0  0  0  0  0  0  0  0  0
  5  6  2  0  0  0  0
  5  7  1  0  0  0  0
  2  3  1  0  0  0  0
  2  4  1  0  0  0  0
  2  5  1  0  0  0  0
  1  2  1  0  0  0  0
 26 27  2  0  0  0  0
 26 28  1  0  0  0  0
 23 24  1  0  0  0  0
 23 25  1  0  0  0  0
 20 21  1  0  0  0  0
 20 22  1  0  0  0  0
 20 23  1  0  0  0  0
 17 18  1  0  0  0  0
 17 19  1  0  0  0  0
 17 20  1  0  0  0  0
 14 15  1  0  0  0  0
 14 16  1  0  0  0  0
 14 17  1  0  0  0  0
 11 12  1  0  0  0  0
 11 13  1  0  0  0  0
 11 14  1  0  0  0  0
  9 10  1  0  0  0  0
  9 11  1  0  0  0  0
  9 26  1  0  0  0  0
  7  8  1  0  0  0  0
  7  9  1  0  0  0  0
 30 31  1  0  0  0  0
 30 32  1  0  0  0  0
 30 33  1  0  0  0  0
 28 29  1  0  0  0  0
 28 30  1  0  0  0  0
M  END
$$$$
default_name
  -OEChem-01062215323D

 33 32  0     1  0  0  0  0  0999 V2000
   -3.8420   -3.6918    1.5562 H   0  0  0  0  0  0  0  0  0  0  0  0
   -3.8430   -2.7008    1.1032 C   0  0  0  0  0  0  0  0  0  0  0  0
   -4.5510   -2.0608    1.6242 H   0  0  0  0  0  0  0  0  0  0  0  0
   -4.1140   -2.7798    0.0522 H   0  0  0  0  0  0  0  0  0  0  0  0
   -2.4570   -2.1098    1.2172 C   0  0  0  0  0  0  0  0  0  0  0  0
   -1.5600   -2.7438    1.7572 O   0  0  0  0  0  0  0  0  0  0  0  0
   -2.2870   -0.8898    0.7102 N   0  0  0  0  0  0  0  0  0  0  0  0
   -3.0820   -0.4218    0.2992 H   0  0  0  0  0  0  0  0  0  0  0  0
   -1.0240   -0.1468    0.7262 C   0  0  1  0  0  0  0  0  0  0  0  0
   -1.1764    0.8073    0.2196 H   0  0  0  0  0  0  0  0  0  0  0  0
   -0.6310    0.1295    2.1905 C   0  0  0  0  0  0  0  0  0  0  0  0
   -0.6508   -0.8144    2.7391 H   0  0  0  0  0  0  0  0  0  0  0  0
    0.3870    0.5203    2.2220 H   0  0  0  0  0  0  0  0  0  0  0  0
   -1.5741    1.1152    2.8977 C   0  0  0  0  0  0  0  0  0  0  0  0
   -1.5821    2.0638    2.3602 H   0  0  0  0  0  0  0  0  0  0  0  0
   -2.5841    0.7013    2.9075 H   0  0  0  0  0  0  0  0  0  0  0  0
   -1.1195    1.3690    4.3394 C   0  0  0  0  0  0  0  0  0  0  0  0
   -1.0988    0.4271    4.8884 H   0  0  0  0  0  0  0  0  0  0  0  0
   -0.1200    1.8049    4.3341 H   0  0  0  0  0  0  0  0  0  0  0  0
   -2.0867    2.3313    5.0262 C   0  0  0  0  0  0  0  0  0  0  0  0
   -2.0951    3.2791    4.4904 H   0  0  0  0  0  0  0  0  0  0  0  0
   -3.0888    1.9056    5.0167 H   0  0  0  0  0  0  0  0  0  0  0  0
   -1.6935    2.5781    6.4182 N   0  0  0  0  0  0  0  0  0  0  0  0
   -2.3445    3.2269    6.8357 H   0  0  0  0  0  0  0  0  0  0  0  0
   -1.7150    1.7064    6.9281 H   0  0  0  0  0  0  0  0  0  0  0  0
    0.0613   -0.9298   -0.0307 C   0  0  0  0  0  0  0  0  0  0  0  0
    1.1948   -0.4663   -0.1372 O   0  0  0  0  0  0  0  0  0  0  0  0
   -0.2914   -2.1067   -0.5608 N   0  0  0  0  0  0  0  0  0  0  0  0
   -1.2358   -2.4246   -0.4173 H   0  0  0  0  0  0  0  0  0  0  0  0
    0.6162   -2.9637   -1.3221 C   0  0  0  0  0  0  0  0  0  0  0  0
    1.5073   -3.1774   -0.7277 H   0  0  0  0  0  0  0  0  0  0  0  0
    0.1237   -3.9016   -1.5826 H   0  0  0  0  0  0  0  0  0  0  0  0
    0.9247   -2.4515   -2.2358 H   0  0  0  0  0  0  0  0  0  0  0  0
  5  6  2  0  0  0  0
  5  7  1  0  0  0  0
  2  3  1  0  0  0  0
  2  4  1  0  0  0  0
  2  5  1  0  0  0  0
  1  2  1  0  0  0  0
 26 27  2  0  0  0  0
 26 28  1  0  0  0  0
 23 24  1  0  0  0  0
 23 25  1  0  0  0  0
 20 21  1  0  0  0  0
 20 22  1  0  0  0  0
 20 23  1  0  0  0  0
 17 18  1  0  0  0  0
 17 19  1  0  0  0  0
 17 20  1  0  0  0  0
 14 15  1  0  0  0  0
 14 16  1  0  0  0  0
 14 17  1  0  0  0  0
 11 12  1  0  0  0  0
 11 13  1  0  0  0  0
 11 14  1  0  0  0  0
  9 10  1  0  0  0  0
  9 11  1  0  0  0  0
  9 26  1  0  0  0  0
  7  8  1  0  0  0  0
  7  9  1  0  0  0  0
 30 31  1  0  0  0  0
 30 32  1  0  0  0  0
 30 33  1  0  0  0  0
 28 29  1  0  0  0  0
 28 30  1  0  0  0  0
M  END
$$$$
default_name
  -OEChem-01062215323D

 33 32  0     1  0  0  0  0  0999 V2000
   -3.8420   -3.6918    1.5562 H   0  0  0  0  0  0  0  0  0  0  0  0
   -3.8430   -2.7008    1.1032 C   0  0  0  0  0  0  0  0  0  0  0  0
   -4.5510   -2.0608    1.6242 H   0  0  0  0  0  0  0  0  0  0  0  0
   -4.1140   -2.7798    0.0522 H   0  0  0  0  0  0  0  0  0  0  0  0
   -2.4570   -2.1098    1.2172 C   0  0  0  0  0  0  0  0  0  0  0  0
   -1.5600   -2.7438    1.7572 O   0  0  0  0  0  0  0  0  0  0  0  0
   -2.2870   -0.8898    0.7102 N   0  0  0  0  0  0  0  0  0  0  0  0
   -3.0820   -0.4218    0.2992 H   0  0  0  0  0  0  0  0  0  0  0  0
   -1.0240   -0.1468    0.7262 C   0  0  1  0  0  0  0  0  0  0  0  0
   -1.1764    0.8073    0.2196 H   0  0  0  0  0  0  0  0  0  0  0  0
   -0.6310    0.1295    2.1905 C   0  0  0  0  0  0  0  0  0  0  0  0
   -0.6508   -0.8144    2.7391 H   0  0  0  0  0  0  0  0  0  0  0  0
    0.3870    0.5203    2.2220 H   0  0  0  0  0  0  0  0  0  0  0  0
   -1.5741    1.1152    2.8977 C   0  0  0  0  0  0  0  0  0  0  0  0
   -1.5821    2.0638    2.3602 H   0  0  0  0  0  0  0  0  0  0  0  0
   -2.5841    0.7013    2.9075 H   0  0  0  0  0  0  0  0  0  0  0  0
   -1.1195    1.3690    4.3394 C   0  0  0  0  0  0  0  0  0  0  0  0
   -1.0988    0.4271    4.8884 H   0  0  0  0  0  0  0  0  0  0  0  0
   -0.1200    1.8049    4.3341 H   0  0  0  0  0  0  0  0  0  0  0  0
   -2.0867    2.3313    5.0262 C   0  0  0  0  0  0  0  0  0  0  0  0
   -2.0951    3.2791    4.4904 H   0  0  0  0  0  0  0  0  0  0  0  0
   -3.0888    1.9056    5.0167 H   0  0  0  0  0  0  0  0  0  0  0  0
   -1.6935    2.5781    6.4182 N   0  0  0  0  0  0  0  0  0  0  0  0
   -2.3445    3.2269    6.8357 H   0  0  0  0  0  0  0  0  0  0  0  0
   -1.7150    1.7064    6.9281 H   0  0  0  0  0  0  0  0  0  0  0  0
    0.0613   -0.9298   -0.0307 C   0  0  0  0  0  0  0  0  0  0  0  0
    1.2441   -0.6178    0.0901 O   0  0  0  0  0  0  0  0  0  0  0  0
   -0.3448   -1.9354   -0.8145 N   0  0  0  0  0  0  0  0  0  0  0  0
   -1.3303   -2.1384   -0.8488 H   0  0  0  0  0  0  0  0  0  0  0  0
    0.5580   -2.7649   -1.6111 C   0  0  0  0  0  0  0  0  0  0  0  0
    1.3238   -3.2013   -0.9661 H   0  0  0  0  0  0  0  0  0  0  0  0
    0.0033   -3.5650   -2.1034 H   0  0  0  0  0  0  0  0  0  0  0  0
    1.0515   -2.1497   -2.3663 H   0  0  0  0  0  0  0  0  0  0  0  0
  5  6  2  0  0  0  0
  5  7  1  0  0  0  0
  2  3  1  0  0  0  0
  2  4  1  0  0  0  0
  2  5  1  0  0  0  0
  1  2  1  0  0  0  0
 26 27  2  0  0  0  0
 26 28  1  0  0  0  0
 23 24  1  0  0  0  0
 23 25  1  0  0  0  0
 20 21  1  0  0  0  0
 20 22  1  0  0  0  0
 20 23  1  0  0  0  0
 17 18  1  0  0  0  0
 17 19  1  0  0  0  0
 17 20  1  0  0  0  0
 14 15  1  0  0  0  0
 14 16  1  0  0  0  0
 14 17  1  0  0  0  0
 11 12  1  0  0  0  0
 11 13  1  0  0  0  0
 11 14  1  0  0  0  0
  9 10  1  0  0  0  0
  9 11  1  0  0  0  0
  9 26  1  0  0  0  0
  7  8  1  0  0  0  0
  7  9  1  0  0  0  0
 30 31  1  0  0  0  0
 30 32  1  0  0  0  0
 30 33  1  0  0  0  0
 28 29  1  0  0  0  0
 28 30  1  0  0  0  0
M  END
$$$$
default_name
  -OEChem-01062215323D

 33 32  0     1  0  0  0  0  0999 V2000
   -3.8420   -3.6918    1.5562 H   0  0  0  0  0  0  0  0  0  0  0  0
   -3.8430   -2.7008    1.1032 C   0  0  0  0  0  0  0  0  0  0  0  0
   -4.5510   -2.0608    1.6242 H   0  0  0  0  0  0  0  0  0  0  0  0
   -4.1140   -2.7798    0.0522 H   0  0  0  0  0  0  0  0  0  0  0  0
   -2.4570   -2.1098    1.2172 C   0  0  0  0  0  0  0  0  0  0  0  0
   -1.5600   -2.7438    1.7572 O   0  0  0  0  0  0  0  0  0  0  0  0
   -2.2870   -0.8898    0.7102 N   0  0  0  0  0  0  0  0  0  0  0  0
   -3.0820   -0.4218    0.2992 H   0  0  0  0  0  0  0  0  0  0  0  0
   -1.0240   -0.1468    0.7262 C   0  0  1  0  0  0  0  0  0  0  0  0
   -1.1764    0.8073    0.2196 H   0  0  0  0  0  0  0  0  0  0  0  0
   -0.6310    0.1295    2.1905 C   0  0  0  0  0  0  0  0  0  0  0  0
   -0.6508   -0.8144    2.7391 H   0  0  0  0  0  0  0  0  0  0  0  0
    0.3870    0.5203    2.2220 H   0  0  0  0  0  0  0  0  0  0  0  0
   -1.5741    1.1152    2.8977 C   0  0  0  0  0  0  0  0  0  0  0  0
   -1.5821    2.0638    2.3602 H   0  0  0  0  0  0  0  0  0  0  0  0
   -2.5841    0.7013    2.9075 H   0  0  0  0  0  0  0  0  0  0  0  0
   -1.1195    1.3690    4.3394 C   0  0  0  0  0  0  0  0  0  0  0  0
   -1.0988    0.4271    4.8884 H   0  0  0  0  0  0  0  0  0  0  0  0
   -0.1200    1.8049    4.3341 H   0  0  0  0  0  0  0  0  0  0  0  0
   -2.0867    2.3313    5.0262 C   0  0  0  0  0  0  0  0  0  0  0  0
   -2.0951    3.2791    4.4904 H   0  0  0  0  0  0  0  0  0  0  0  0
   -3.0888    1.9056    5.0167 H   0  0  0  0  0  0  0  0  0  0  0  0
   -1.6935    2.5781    6.4182 N   0  0  0  0  0  0  0  0  0  0  0  0
   -2.3445    3.2269    6.8357 H   0  0  0  0  0  0  0  0  0  0  0  0
   -1.7150    1.7064    6.9281 H   0  0  0  0  0  0  0  0  0  0  0  0
    0.0613   -0.9298   -0.0307 C   0  0  0  0  0  0  0  0  0  0  0  0
    1.2424   -0.8119    0.2886 O   0  0  0  0  0  0  0  0  0  0  0  0
   -0.3411   -1.7168   -1.0353 N   0  0  0  0  0  0  0  0  0  0  0  0
   -1.3282   -1.7710   -1.2258 H   0  0  0  0  0  0  0  0  0  0  0  0
    0.5652   -2.5128   -1.8617 C   0  0  0  0  0  0  0  0  0  0  0  0
    1.1750   -3.1574   -1.2249 H   0  0  0  0  0  0  0  0  0  0  0  0
   -0.0015   -3.1295   -2.5608 H   0  0  0  0  0  0  0  0  0  0  0  0
    1.2295   -1.8504   -2.4205 H   0  0  0  0  0  0  0  0  0  0  0  0
  5  6  2  0  0  0  0
  5  7  1  0  0  0  0
  2  3  1  0  0  0  0
  2  4  1  0  0  0  0
  2  5  1  0  0  0  0
  1  2  1  0  0  0  0
 26 27  2  0  0  0  0
 26 28  1  0  0  0  0
 23 24  1  0  0  0  0
 23 25  1  0  0  0  0
 20 21  1  0  0  0  0
 20 22  1  0  0  0  0
 20 23  1  0  0  0  0
 17 18  1  0  0  0  0
 17 19  1  0  0  0  0
 17 20  1  0  0  0  0
 14 15  1  0  0  0  0
 14 16  1  0  0  0  0
 14 17  1  0  0  0  0
 11 12  1  0  0  0  0
 11 13  1  0  0  0  0
 11 14  1  0  0  0  0
  9 10  1  0  0  0  0
  9 11  1  0  0  0  0
  9 26  1  0  0  0  0
  7  8  1  0  0  0  0
  7  9  1  0  0  0  0
 30 31  1  0  0  0  0
 30 32  1  0  0  0  0
 30 33  1  0  0  0  0
 28 29  1  0  0  0  0
 28 30  1  0  0  0  0
M  END
$$$$
default_name
  -OEChem-01062215323D

 33 32  0     1  0  0  0  0  0999 V2000
   -3.8420   -3.6918    1.5562 H   0  0  0  0  0  0  0  0  0  0  0  0
   -3.8430   -2.7008    1.1032 C   0  0  0  0  0  0  0  0  0  0  0  0
   -4.5510   -2.0608    1.6242 H   0  0  0  0  0  0  0  0  0  0  0  0
   -4.1140   -2.7798    0.0522 H   0  0  0  0  0  0  0  0  0  0  0  0
   -2.4570   -2.1098    1.2172 C   0  0  0  0  0  0  0  0  0  0  0  0
   -1.5600   -2.7438    1.7572 O   0  0  0  0  0  0  0  0  0  0  0  0
   -2.2870   -0.8898    0.7102 N   0  0  0  0  0  0  0  0  0  0  0  0
   -3.0820   -0.4218    0.2992 H   0  0  0  0  0  0  0  0  0  0  0  0
   -1.0240   -0.1468    0.7262 C   0  0  1  0  0  0  0  0  0  0  0  0
   -1.1764    0.8073    0.2196 H   0  0  0  0  0  0  0  0  0  0  0  0
   -0.6310    0.1295    2.1905 C   0  0  0  0  0  0  0  0  0  0  0  0
   -0.6508   -0.8144    2.7391 H   0  0  0  0  0  0  0  0  0  0  0  0
    0.3870    0.5203    2.2220 H   0  0  0  0  0  0  0  0  0  0  0  0
   -1.5741    1.1152    2.8977 C   0  0  0  0  0  0  0  0  0  0  0  0
   -1.5821    2.0638    2.3602 H   0  0  0  0  0  0  0  0  0  0  0  0
   -2.5841    0.7013    2.9075 H   0  0  0  0  0  0  0  0  0  0  0  0
   -1.1195    1.3690    4.3394 C   0  0  0  0  0  0  0  0  0  0  0  0
   -1.0988    0.4271    4.8884 H   0  0  0  0  0  0  0  0  0  0  0  0
   -0.1200    1.8049    4.3341 H   0  0  0  0  0  0  0  0  0  0  0  0
   -2.0867    2.3313    5.0262 C   0  0  0  0  0  0  0  0  0  0  0  0
   -2.0951    3.2791    4.4904 H   0  0  0  0  0  0  0  0  0  0  0  0
   -3.0888    1.9056    5.0167 H   0  0  0  0  0  0  0  0  0  0  0  0
   -1.6935    2.5781    6.4182 N   0  0  0  0  0  0  0  0  0  0  0  0
   -2.3445    3.2269    6.8357 H   0  0  0  0  0  0  0  0  0  0  0  0
   -1.7150    1.7064    6.9281 H   0  0  0  0  0  0  0  0  0  0  0  0
    0.0613   -0.9298   -0.0307 C   0  0  0  0  0  0  0  0  0  0  0  0
    1.1899   -1.0355    0.4446 O   0  0  0  0  0  0  0  0  0  0  0  0
   -0.2805   -1.4658   -1.2081 N   0  0  0  0  0  0  0  0  0  0  0  0
   -1.2296   -1.3476   -1.5225 H   0  0  0  0  0  0  0  0  0  0  0  0
    0.6373   -2.2243   -2.0567 C   0  0  0  0  0  0  0  0  0  0  0  0
    1.0710   -3.0488   -1.4865 H   0  0  0  0  0  0  0  0  0  0  0  0
    0.1097   -2.6246   -2.9237 H   0  0  0  0  0  0  0  0  0  0  0  0
    1.4468   -1.5742   -2.3948 H   0  0  0  0  0  0  0  0  0  0  0  0
  5  6  2  0  0  0  0
  5  7  1  0  0  0  0
  2  3  1  0  0  0  0
  2  4  1  0  0  0  0
  2  5  1  0  0  0  0
  1  2  1  0  0  0  0
 26 27  2  0  0  0  0
 26 28  1  0  0  0  0
 23 24  1  0  0  0  0
 23 25  1  0  0  0  0
 20 21  1  0  0  0  0
 20 22  1  0  0  0  0
 20 23  1  0  0  0  0
 17 18  1  0  0  0  0
 17 19  1  0  0  0  0
 17 20  1  0  0  0  0
 14 15  1  0  0  0  0
 14 16  1  0  0  0  0
 14 17  1  0  0  0  0
 11 12  1  0  0  0  0
 11 13  1  0  0  0  0
 11 14  1  0  0  0  0
  9 10  1  0  0  0  0
  9 11  1  0  0  0  0
  9 26  1  0  0  0  0
  7  8  1  0  0  0  0
  7  9  1  0  0  0  0
 30 31  1  0  0  0  0
 30 32  1  0  0  0  0
 30 33  1  0  0  0  0
 28 29  1  0  0  0  0
 28 30  1  0  0  0  0
M  END
$$$$
default_name
  -OEChem-01062215323D

 33 32  0     1  0  0  0  0  0999 V2000
   -3.8420   -3.6918    1.5562 H   0  0  0  0  0  0  0  0  0  0  0  0
   -3.8430   -2.7008    1.1032 C   0  0  0  0  0  0  0  0  0  0  0  0
   -4.5510   -2.0608    1.6242 H   0  0  0  0  0  0  0  0  0  0  0  0
   -4.1140   -2.7798    0.0522 H   0  0  0  0  0  0  0  0  0  0  0  0
   -2.4570   -2.1098    1.2172 C   0  0  0  0  0  0  0  0  0  0  0  0
   -1.5600   -2.7438    1.7572 O   0  0  0  0  0  0  0  0  0  0  0  0
   -2.2870   -0.8898    0.7102 N   0  0  0  0  0  0  0  0  0  0  0  0
   -3.0820   -0.4218    0.2992 H   0  0  0  0  0  0  0  0  0  0  0  0
   -1.0240   -0.1468    0.7262 C   0  0  1  0  0  0  0  0  0  0  0  0
   -1.1764    0.8073    0.2196 H   0  0  0  0  0  0  0  0  0  0  0  0
   -0.6310    0.1295    2.1905 C   0  0  0  0  0  0  0  0  0  0  0  0
   -0.6508   -0.8144    2.7391 H   0  0  0  0  0  0  0  0  0  0  0  0
    0.3870    0.5203    2.2220 H   0  0  0  0  0  0  0  0  0  0  0  0
   -1.5741    1.1152    2.8977 C   0  0  0  0  0  0  0  0  0  0  0  0
   -1.5821    2.0638    2.3602 H   0  0  0  0  0  0  0  0  0  0  0  0
   -2.5841    0.7013    2.9075 H   0  0  0  0  0  0  0  0  0  0  0  0
   -1.1195    1.3690    4.3394 C   0  0  0  0  0  0  0  0  0  0  0  0
   -1.0988    0.4271    4.8884 H   0  0  0  0  0  0  0  0  0  0  0  0
   -0.1200    1.8049    4.3341 H   0  0  0  0  0  0  0  0  0  0  0  0
   -2.0867    2.3313    5.0262 C   0  0  0  0  0  0  0  0  0  0  0  0
   -2.0951    3.2791    4.4904 H   0  0  0  0  0  0  0  0  0  0  0  0
   -3.0888    1.9056    5.0167 H   0  0  0  0  0  0  0  0  0  0  0  0
   -1.6935    2.5781    6.4182 N   0  0  0  0  0  0  0  0  0  0  0  0
   -2.3445    3.2269    6.8357 H   0  0  0  0  0  0  0  0  0  0  0  0
   -1.7150    1.7064    6.9281 H   0  0  0  0  0  0  0  0  0  0  0  0
    0.0613   -0.9298   -0.0307 C   0  0  0  0  0  0  0  0  0  0  0  0
    1.0902   -1.2732    0.5475 O   0  0  0  0  0  0  0  0  0  0  0  0
   -0.1673   -1.1995   -1.3213 N   0  0  0  0  0  0  0  0  0  0  0  0
   -1.0414   -0.8970   -1.7188 H   0  0  0  0  0  0  0  0  0  0  0  0
    0.7693   -1.9193   -2.1829 C   0  0  0  0  0  0  0  0  0  0  0  0
    1.0188   -2.8828   -1.7330 H   0  0  0  0  0  0  0  0  0  0  0  0
    0.3292   -2.0847   -3.1673 H   0  0  0  0  0  0  0  0  0  0  0  0
    1.6885   -1.3397   -2.2908 H   0  0  0  0  0  0  0  0  0  0  0  0
  5  6  2  0  0  0  0
  5  7  1  0  0  0  0
  2  3  1  0  0  0  0
  2  4  1  0  0  0  0
  2  5  1  0  0  0  0
  1  2  1  0  0  0  0
 26 27  2  0  0  0  0
 26 28  1  0  0  0  0
 23 24  1  0  0  0  0
 23 25  1  0  0  0  0
 20 21  1  0  0  0  0
 20 22  1  0  0  0  0
 20 23  1  0  0  0  0
 17 18  1  0  0  0  0
 17 19  1  0  0  0  0
 17 20  1  0  0  0  0
 14 15  1  0  0  0  0
 14 16  1  0  0  0  0
 14 17  1  0  0  0  0
 11 12  1  0  0  0  0
 11 13  1  0  0  0  0
 11 14  1  0  0  0  0
  9 10  1  0  0  0  0
  9 11  1  0  0  0  0
  9 26  1  0  0  0  0
  7  8  1  0  0  0  0
  7  9  1  0  0  0  0
 30 31  1  0  0  0  0
 30 32  1  0  0  0  0
 30 33  1  0  0  0  0
 28 29  1  0  0  0  0
 28 30  1  0  0  0  0
M  END
$$$$
default_name
  -OEChem-01062215323D

 33 32  0     1  0  0  0  0  0999 V2000
   -3.8420   -3.6918    1.5562 H   0  0  0  0  0  0  0  0  0  0  0  0
   -3.8430   -2.7008    1.1032 C   0  0  0  0  0  0  0  0  0  0  0  0
   -4.5510   -2.0608    1.6242 H   0  0  0  0  0  0  0  0  0  0  0  0
   -4.1140   -2.7798    0.0522 H   0  0  0  0  0  0  0  0  0  0  0  0
   -2.4570   -2.1098    1.2172 C   0  0  0  0  0  0  0  0  0  0  0  0
   -1.5600   -2.7438    1.7572 O   0  0  0  0  0  0  0  0  0  0  0  0
   -2.2870   -0.8898    0.7102 N   0  0  0  0  0  0  0  0  0  0  0  0
   -3.0820   -0.4218    0.2992 H   0  0  0  0  0  0  0  0  0  0  0  0
   -1.0240   -0.1468    0.7262 C   0  0  1  0  0  0  0  0  0  0  0  0
   -1.1764    0.8073    0.2196 H   0  0  0  0  0  0  0  0  0  0  0  0
   -0.6310    0.1295    2.1905 C   0  0  0  0  0  0  0  0  0  0  0  0
   -0.6508   -0.8144    2.7391 H   0  0  0  0  0  0  0  0  0  0  0  0
    0.3870    0.5203    2.2220 H   0  0  0  0  0  0  0  0  0  0  0  0
   -1.5741    1.1152    2.8977 C   0  0  0  0  0  0  0  0  0  0  0  0
   -1.5821    2.0638    2.3602 H   0  0  0  0  0  0  0  0  0  0  0  0
   -2.5841    0.7013    2.9075 H   0  0  0  0  0  0  0  0  0  0  0  0
   -1.1195    1.3690    4.3394 C   0  0  0  0  0  0  0  0  0  0  0  0
   -1.0988    0.4271    4.8884 H   0  0  0  0  0  0  0  0  0  0  0  0
   -0.1200    1.8049    4.3341 H   0  0  0  0  0  0  0  0  0  0  0  0
   -2.0867    2.3313    5.0262 C   0  0  0  0  0  0  0  0  0  0  0  0
   -2.0951    3.2791    4.4904 H   0  0  0  0  0  0  0  0  0  0  0  0
   -3.0888    1.9056    5.0167 H   0  0  0  0  0  0  0  0  0  0  0  0
   -1.6935    2.5781    6.4182 N   0  0  0  0  0  0  0  0  0  0  0  0
   -2.3445    3.2269    6.8357 H   0  0  0  0  0  0  0  0  0  0  0  0
   -1.7150    1.7064    6.9281 H   0  0  0  0  0  0  0  0  0  0  0  0
    0.0613   -0.9298   -0.0307 C   0  0  0  0  0  0  0  0  0  0  0  0
    0.9500   -1.5089    0.5903 O   0  0  0  0  0  0  0  0  0  0  0  0
   -0.0090   -0.9360   -1.3669 N   0  0  0  0  0  0  0  0  0  0  0  0
   -0.7763   -0.4498   -1.8012 H   0  0  0  0  0  0  0  0  0  0  0  0
    0.9524   -1.6184   -2.2316 C   0  0  0  0  0  0  0  0  0  0  0  0
    1.0220   -2.6708   -1.9477 H   0  0  0  0  0  0  0  0  0  0  0  0
    0.6422   -1.5468   -3.2751 H   0  0  0  0  0  0  0  0  0  0  0  0
    1.9381   -1.1631   -2.1156 H   0  0  0  0  0  0  0  0  0  0  0  0
  5  6  2  0  0  0  0
  5  7  1  0  0  0  0
  2  3  1  0  0  0  0
  2  4  1  0  0  0  0
  2  5  1  0  0  0  0
  1  2  1  0  0  0  0
 26 27  2  0  0  0  0
 26 28  1  0  0  0  0
 23 24  1  0  0  0  0
 23 25  1  0  0  0  0
 20 21  1  0  0  0  0
 20 22  1  0  0  0  0
 20 23  1  0  0  0  0
 17 18  1  0  0  0  0
 17 19  1  0  0  0  0
 17 20  1  0  0  0  0
 14 15  1  0  0  0  0
 14 16  1  0  0  0  0
 14 17  1  0  0  0  0
 11 12  1  0  0  0  0
 11 13  1  0  0  0  0
 11 14  1  0  0  0  0
  9 10  1  0  0  0  0
  9 11  1  0  0  0  0
  9 26  1  0  0  0  0
  7  8  1  0  0  0  0
  7  9  1  0  0  0  0
 30 31  1  0  0  0  0
 30 32  1  0  0  0  0
 30 33  1  0  0  0  0
 28 29  1  0  0  0  0
 28 30  1  0  0  0  0
M  END
$$$$
default_name
  -OEChem-01062215323D

 33 32  0     1  0  0  0  0  0999 V2000
   -3.8420   -3.6918    1.5562 H   0  0  0  0  0  0  0  0  0  0  0  0
   -3.8430   -2.7008    1.1032 C   0  0  0  0  0  0  0  0  0  0  0  0
   -4.5510   -2.0608    1.6242 H   0  0  0  0  0  0  0  0  0  0  0  0
   -4.1140   -2.7798    0.0522 H   0  0  0  0  0  0  0  0  0  0  0  0
   -2.4570   -2.1098    1.2172 C   0  0  0  0  0  0  0  0  0  0  0  0
   -1.5600   -2.7438    1.7572 O   0  0  0  0  0  0  0  0  0  0  0  0
   -2.2870   -0.8898    0.7102 N   0  0  0  0  0  0  0  0  0  0  0  0
   -3.0820   -0.4218    0.2992 H   0  0  0  0  0  0  0  0  0  0  0  0
   -1.0240   -0.1468    0.7262 C   0  0  1  0  0  0  0  0  0  0  0  0
   -1.1764    0.8073    0.2196 H   0  0  0  0  0  0  0  0  0  0  0  0
   -0.6310    0.1295    2.1905 C   0  0  0  0  0  0  0  0  0  0  0  0
   -0.6508   -0.8144    2.7391 H   0  0  0  0  0  0  0  0  0  0  0  0
    0.3870    0.5203    2.2220 H   0  0  0  0  0  0  0  0  0  0  0  0
   -1.5741    1.1152    2.8977 C   0  0  0  0  0  0  0  0  0  0  0  0
   -1.5821    2.0638    2.3602 H   0  0  0  0  0  0  0  0  0  0  0  0
   -2.5841    0.7013    2.9075 H   0  0  0  0  0  0  0  0  0  0  0  0
   -1.1195    1.3690    4.3394 C   0  0  0  0  0  0  0  0  0  0  0  0
   -1.0988    0.4271    4.8884 H   0  0  0  0  0  0  0  0  0  0  0  0
   -0.1200    1.8049    4.3341 H   0  0  0  0  0  0  0  0  0  0  0  0
   -2.0867    2.3313    5.0262 C   0  0  0  0  0  0  0  0  0  0  0  0
   -2.0951    3.2791    4.4904 H   0  0  0  0  0  0  0  0  0  0  0  0
   -3.0888    1.9056    5.0167 H   0  0  0  0  0  0  0  0  0  0  0  0
   -1.6935    2.5781    6.4182 N   0  0  0  0  0  0  0  0  0  0  0  0
   -2.3445    3.2269    6.8357 H   0  0  0  0  0  0  0  0  0  0  0  0
   -1.7150    1.7064    6.9281 H   0  0  0  0  0  0  0  0  0  0  0  0
    0.0613   -0.9298   -0.0307 C   0  0  0  0  0  0  0  0  0  0  0  0
    0.7789   -1.7266    0.5702 O   0  0  0  0  0  0  0  0  0  0  0  0
    0.1834   -0.6933   -1.3421 N   0  0  0  0  0  0  0  0  0  0  0  0
   -0.4524   -0.0366   -1.7642 H   0  0  0  0  0  0  0  0  0  0  0  0
    1.1740   -1.3422   -2.1996 C   0  0  0  0  0  0  0  0  0  0  0  0
    1.0804   -2.4272   -2.1159 H   0  0  0  0  0  0  0  0  0  0  0  0
    1.0273   -1.0473   -3.2396 H   0  0  0  0  0  0  0  0  0  0  0  0
    2.1787   -1.0563   -1.8812 H   0  0  0  0  0  0  0  0  0  0  0  0
  5  6  2  0  0  0  0
  5  7  1  0  0  0  0
  2  3  1  0  0  0  0
  2  4  1  0  0  0  0
  2  5  1  0  0  0  0
  1  2  1  0  0  0  0
 26 27  2  0  0  0  0
 26 28  1  0  0  0  0
 23 24  1  0  0  0  0
 23 25  1  0  0  0  0
 20 21  1  0  0  0  0
 20 22  1  0  0  0  0
 20 23  1  0  0  0  0
 17 18  1  0  0  0  0
 17 19  1  0  0  0  0
 17 20  1  0  0  0  0
 14 15  1  0  0  0  0
 14 16  1  0  0  0  0
 14 17  1  0  0  0  0
 11 12  1  0  0  0  0
 11 13  1  0  0  0  0
 11 14  1  0  0  0  0
  9 10  1  0  0  0  0
  9 11  1  0  0  0  0
  9 26  1  0  0  0  0
  7  8  1  0  0  0  0
  7  9  1  0  0  0  0
 30 31  1  0  0  0  0
 30 32  1  0  0  0  0
 30 33  1  0  0  0  0
 28 29  1  0  0  0  0
 28 30  1  0  0  0  0
M  END
$$$$
default_name
  -OEChem-01062215323D

 33 32  0     1  0  0  0  0  0999 V2000
   -3.8420   -3.6918    1.5562 H   0  0  0  0  0  0  0  0  0  0  0  0
   -3.8430   -2.7008    1.1032 C   0  0  0  0  0  0  0  0  0  0  0  0
   -4.5510   -2.0608    1.6242 H   0  0  0  0  0  0  0  0  0  0  0  0
   -4.1140   -2.7798    0.0522 H   0  0  0  0  0  0  0  0  0  0  0  0
   -2.4570   -2.1098    1.2172 C   0  0  0  0  0  0  0  0  0  0  0  0
   -1.5600   -2.7438    1.7572 O   0  0  0  0  0  0  0  0  0  0  0  0
   -2.2870   -0.8898    0.7102 N   0  0  0  0  0  0  0  0  0  0  0  0
   -3.0820   -0.4218    0.2992 H   0  0  0  0  0  0  0  0  0  0  0  0
   -1.0240   -0.1468    0.7262 C   0  0  1  0  0  0  0  0  0  0  0  0
   -1.1764    0.8073    0.2196 H   0  0  0  0  0  0  0  0  0  0  0  0
   -0.6310    0.1295    2.1905 C   0  0  0  0  0  0  0  0  0  0  0  0
   -0.6508   -0.8144    2.7391 H   0  0  0  0  0  0  0  0  0  0  0  0
    0.3870    0.5203    2.2220 H   0  0  0  0  0  0  0  0  0  0  0  0
   -1.5741    1.1152    2.8977 C   0  0  0  0  0  0  0  0  0  0  0  0
   -1.5821    2.0638    2.3602 H   0  0  0  0  0  0  0  0  0  0  0  0
   -2.5841    0.7013    2.9075 H   0  0  0  0  0  0  0  0  0  0  0  0
   -1.1195    1.3690    4.3394 C   0  0  0  0  0  0  0  0  0  0  0  0
   -1.0988    0.4271    4.8884 H   0  0  0  0  0  0  0  0  0  0  0  0
   -0.1200    1.8049    4.3341 H   0  0  0  0  0  0  0  0  0  0  0  0
   -2.0867    2.3313    5.0262 C   0  0  0  0  0  0  0  0  0  0  0  0
   -2.0951    3.2791    4.4904 H   0  0  0  0  0  0  0  0  0  0  0  0
   -3.0888    1.9056    5.0167 H   0  0  0  0  0  0  0  0  0  0  0  0
   -1.6935    2.5781    6.4182 N   0  0  0  0  0  0  0  0  0  0  0  0
   -2.3445    3.2269    6.8357 H   0  0  0  0  0  0  0  0  0  0  0  0
   -1.7150    1.7064    6.9281 H   0  0  0  0  0  0  0  0  0  0  0  0
    0.0613   -0.9298   -0.0307 C   0  0  0  0  0  0  0  0  0  0  0  0
    0.5885   -1.9114    0.4884 O   0  0  0  0  0  0  0  0  0  0  0  0
    0.3969   -0.4880   -1.2484 N   0  0  0  0  0  0  0  0  0  0  0  0
   -0.0917    0.3145   -1.6103 H   0  0  0  0  0  0  0  0  0  0  0  0
    1.4191   -1.1095   -2.0890 C   0  0  0  0  0  0  0  0  0  0  0  0
    1.1901   -2.1686   -2.2262 H   0  0  0  0  0  0  0  0  0  0  0  0
    1.4582   -0.6205   -3.0634 H   0  0  0  0  0  0  0  0  0  0  0  0
    2.3937   -1.0265   -1.6036 H   0  0  0  0  0  0  0  0  0  0  0  0
  5  6  2  0  0  0  0
  5  7  1  0  0  0  0
  2  3  1  0  0  0  0
  2  4  1  0  0  0  0
  2  5  1  0  0  0  0
  1  2  1  0  0  0  0
 26 27  2  0  0  0  0
 26 28  1  0  0  0  0
 23 24  1  0  0  0  0
 23 25  1  0  0  0  0
 20 21  1  0  0  0  0
 20 22  1  0  0  0  0
 20 23  1  0  0  0  0
 17 18  1  0  0  0  0
 17 19  1  0  0  0  0
 17 20  1  0  0  0  0
 14 15  1  0  0  0  0
 14 16  1  0  0  0  0
 14 17  1  0  0  0  0
 11 12  1  0  0  0  0
 11 13  1  0  0  0  0
 11 14  1  0  0  0  0
  9 10  1  0  0  0  0
  9 11  1  0  0  0  0
  9 26  1  0  0  0  0
  7  8  1  0  0  0  0
  7  9  1  0  0  0  0
 30 31  1  0  0  0  0
 30 32  1  0  0  0  0
 30 33  1  0  0  0  0
 28 29  1  0  0  0  0
 28 30  1  0  0  0  0
M  END
$$$$
default_name
  -OEChem-01062215323D

 33 32  0     1  0  0  0  0  0999 V2000
   -3.8420   -3.6918    1.5562 H   0  0  0  0  0  0  0  0  0  0  0  0
   -3.8430   -2.7008    1.1032 C   0  0  0  0  0  0  0  0  0  0  0  0
   -4.5510   -2.0608    1.6242 H   0  0  0  0  0  0  0  0  0  0  0  0
   -4.1140   -2.7798    0.0522 H   0  0  0  0  0  0  0  0  0  0  0  0
   -2.4570   -2.1098    1.2172 C   0  0  0  0  0  0  0  0  0  0  0  0
   -1.5600   -2.7438    1.7572 O   0  0  0  0  0  0  0  0  0  0  0  0
   -2.2870   -0.8898    0.7102 N   0  0  0  0  0  0  0  0  0  0  0  0
   -3.0820   -0.4218    0.2992 H   0  0  0  0  0  0  0  0  0  0  0  0
   -1.0240   -0.1468    0.7262 C   0  0  1  0  0  0  0  0  0  0  0  0
   -1.1764    0.8073    0.2196 H   0  0  0  0  0  0  0  0  0  0  0  0
   -0.6310    0.1295    2.1905 C   0  0  0  0  0  0  0  0  0  0  0  0
   -0.6508   -0.8144    2.7391 H   0  0  0  0  0  0  0  0  0  0  0  0
    0.3870    0.5203    2.2220 H   0  0  0  0  0  0  0  0  0  0  0  0
   -1.5741    1.1152    2.8977 C   0  0  0  0  0  0  0  0  0  0  0  0
   -1.5821    2.0638    2.3602 H   0  0  0  0  0  0  0  0  0  0  0  0
   -2.5841    0.7013    2.9075 H   0  0  0  0  0  0  0  0  0  0  0  0
   -1.1195    1.3690    4.3394 C   0  0  0  0  0  0  0  0  0  0  0  0
   -1.0988    0.4271    4.8884 H   0  0  0  0  0  0  0  0  0  0  0  0
   -0.1200    1.8049    4.3341 H   0  0  0  0  0  0  0  0  0  0  0  0
   -2.0867    2.3313    5.0262 C   0  0  0  0  0  0  0  0  0  0  0  0
   -2.0951    3.2791    4.4904 H   0  0  0  0  0  0  0  0  0  0  0  0
   -3.0888    1.9056    5.0167 H   0  0  0  0  0  0  0  0  0  0  0  0
   -1.6935    2.5781    6.4182 N   0  0  0  0  0  0  0  0  0  0  0  0
   -2.3445    3.2269    6.8357 H   0  0  0  0  0  0  0  0  0  0  0  0
   -1.7150    1.7064    6.9281 H   0  0  0  0  0  0  0  0  0  0  0  0
    0.0613   -0.9298   -0.0307 C   0  0  0  0  0  0  0  0  0  0  0  0
    0.3919   -2.0506    0.3505 O   0  0  0  0  0  0  0  0  0  0  0  0
    0.6170   -0.3339   -1.0922 N   0  0  0  0  0  0  0  0  0  0  0  0
    0.2811    0.5795   -1.3499 H   0  0  0  0  0  0  0  0  0  0  0  0
    1.6708   -0.9362   -1.9073 C   0  0  0  0  0  0  0  0  0  0  0  0
    1.3435   -1.9127   -2.2710 H   0  0  0  0  0  0  0  0  0  0  0  0
    1.9056   -0.2952   -2.7583 H   0  0  0  0  0  0  0  0  0  0  0  0
    2.5687   -1.0759   -1.3017 H   0  0  0  0  0  0  0  0  0  0  0  0
  5  6  2  0  0  0  0
  5  7  1  0  0  0  0
  2  3  1  0  0  0  0
  2  4  1  0  0  0  0
  2  5  1  0  0  0  0
  1  2  1  0  0  0  0
 26 27  2  0  0  0  0
 26 28  1  0  0  0  0
 23 24  1  0  0  0  0
 23 25  1  0  0  0  0
 20 21  1  0  0  0  0
 20 22  1  0  0  0  0
 20 23  1  0  0  0  0
 17 18  1  0  0  0  0
 17 19  1  0  0  0  0
 17 20  1  0  0  0  0
 14 15  1  0  0  0  0
 14 16  1  0  0  0  0
 14 17  1  0  0  0  0
 11 12  1  0  0  0  0
 11 13  1  0  0  0  0
 11 14  1  0  0  0  0
  9 10  1  0  0  0  0
  9 11  1  0  0  0  0
  9 26  1  0  0  0  0
  7  8  1  0  0  0  0
  7  9  1  0  0  0  0
 30 31  1  0  0  0  0
 30 32  1  0  0  0  0
 30 33  1  0  0  0  0
 28 29  1  0  0  0  0
 28 30  1  0  0  0  0
M  END
$$$$
default_name
  -OEChem-01062215323D

 33 32  0     1  0  0  0  0  0999 V2000
   -3.8420   -3.6918    1.5562 H   0  0  0  0  0  0  0  0  0  0  0  0
   -3.8430   -2.7008    1.1032 C   0  0  0  0  0  0  0  0  0  0  0  0
   -4.5510   -2.0608    1.6242 H   0  0  0  0  0  0  0  0  0  0  0  0
   -4.1140   -2.7798    0.0522 H   0  0  0  0  0  0  0  0  0  0  0  0
   -2.4570   -2.1098    1.2172 C   0  0  0  0  0  0  0  0  0  0  0  0
   -1.5600   -2.7438    1.7572 O   0  0  0  0  0  0  0  0  0  0  0  0
   -2.2870   -0.8898    0.7102 N   0  0  0  0  0  0  0  0  0  0  0  0
   -3.0820   -0.4218    0.2992 H   0  0  0  0  0  0  0  0  0  0  0  0
   -1.0240   -0.1468    0.7262 C   0  0  1  0  0  0  0  0  0  0  0  0
   -1.1764    0.8073    0.2196 H   0  0  0  0  0  0  0  0  0  0  0  0
   -0.6310    0.1295    2.1905 C   0  0  0  0  0  0  0  0  0  0  0  0
   -0.6508   -0.8144    2.7391 H   0  0  0  0  0  0  0  0  0  0  0  0
    0.3870    0.5203    2.2220 H   0  0  0  0  0  0  0  0  0  0  0  0
   -1.5741    1.1152    2.8977 C   0  0  0  0  0  0  0  0  0  0  0  0
   -1.5821    2.0638    2.3602 H   0  0  0  0  0  0  0  0  0  0  0  0
   -2.5841    0.7013    2.9075 H   0  0  0  0  0  0  0  0  0  0  0  0
   -1.1195    1.3690    4.3394 C   0  0  0  0  0  0  0  0  0  0  0  0
   -1.0988    0.4271    4.8884 H   0  0  0  0  0  0  0  0  0  0  0  0
   -0.1200    1.8049    4.3341 H   0  0  0  0  0  0  0  0  0  0  0  0
   -2.0867    2.3313    5.0262 C   0  0  0  0  0  0  0  0  0  0  0  0
   -2.0951    3.2791    4.4904 H   0  0  0  0  0  0  0  0  0  0  0  0
   -3.0888    1.9056    5.0167 H   0  0  0  0  0  0  0  0  0  0  0  0
   -1.6935    2.5781    6.4182 N   0  0  0  0  0  0  0  0  0  0  0  0
   -2.3445    3.2269    6.8357 H   0  0  0  0  0  0  0  0  0  0  0  0
   -1.7150    1.7064    6.9281 H   0  0  0  0  0  0  0  0  0  0  0  0
    0.0613   -0.9298   -0.0307 C   0  0  0  0  0  0  0  0  0  0  0  0
    0.2024   -2.1349    0.1659 O   0  0  0  0  0  0  0  0  0  0  0  0
    0.8286   -0.2417   -0.8842 N   0  0  0  0  0  0  0  0  0  0  0  0
    0.6407    0.7405   -1.0008 H   0  0  0  0  0  0  0  0  0  0  0  0
    1.9121   -0.8340   -1.6670 C   0  0  0  0  0  0  0  0  0  0  0  0
    1.5302   -1.6768   -2.2473 H   0  0  0  0  0  0  0  0  0  0  0  0
    2.3389   -0.0938   -2.3453 H   0  0  0  0  0  0  0  0  0  0  0  0
    2.6915   -1.2011   -0.9960 H   0  0  0  0  0  0  0  0  0  0  0  0
  5  6  2  0  0  0  0
  5  7  1  0  0  0  0
  2  3  1  0  0  0  0
  2  4  1  0  0  0  0
  2  5  1  0  0  0  0
  1  2  1  0  0  0  0
 26 27  2  0  0  0  0
 26 28  1  0  0  0  0
 23 24  1  0  0  0  0
 23 25  1  0  0  0  0
 20 21  1  0  0  0  0
 20 22  1  0  0  0  0
 20 23  1  0  0  0  0
 17 18  1  0  0  0  0
 17 19  1  0  0  0  0
 17 20  1  0  0  0  0
 14 15  1  0  0  0  0
 14 16  1  0  0  0  0
 14 17  1  0  0  0  0
 11 12  1  0  0  0  0
 11 13  1  0  0  0  0
 11 14  1  0  0  0  0
  9 10  1  0  0  0  0
  9 11  1  0  0  0  0
  9 26  1  0  0  0  0
  7  8  1  0  0  0  0
  7  9  1  0  0  0  0
 30 31  1  0  0  0  0
 30 32  1  0  0  0  0
 30 33  1  0  0  0  0
 28 29  1  0  0  0  0
 28 30  1  0  0  0  0
M  END
$$$$
default_name
  -OEChem-01062215323D

 33 32  0     1  0  0  0  0  0999 V2000
   -3.8420   -3.6918    1.5562 H   0  0  0  0  0  0  0  0  0  0  0  0
   -3.8430   -2.7008    1.1032 C   0  0  0  0  0  0  0  0  0  0  0  0
   -4.5510   -2.0608    1.6242 H   0  0  0  0  0  0  0  0  0  0  0  0
   -4.1140   -2.7798    0.0522 H   0  0  0  0  0  0  0  0  0  0  0  0
   -2.4570   -2.1098    1.2172 C   0  0  0  0  0  0  0  0  0  0  0  0
   -1.5600   -2.7438    1.7572 O   0  0  0  0  0  0  0  0  0  0  0  0
   -2.2870   -0.8898    0.7102 N   0  0  0  0  0  0  0  0  0  0  0  0
   -3.0820   -0.4218    0.2992 H   0  0  0  0  0  0  0  0  0  0  0  0
   -1.0240   -0.1468    0.7262 C   0  0  1  0  0  0  0  0  0  0  0  0
   -1.1764    0.8073    0.2196 H   0  0  0  0  0  0  0  0  0  0  0  0
   -0.6310    0.1295    2.1905 C   0  0  0  0  0  0  0  0  0  0  0  0
   -0.6508   -0.8144    2.7391 H   0  0  0  0  0  0  0  0  0  0  0  0
    0.3870    0.5203    2.2220 H   0  0  0  0  0  0  0  0  0  0  0  0
   -1.5741    1.1152    2.8977 C   0  0  0  0  0  0  0  0  0  0  0  0
   -1.5821    2.0638    2.3602 H   0  0  0  0  0  0  0  0  0  0  0  0
   -2.5841    0.7013    2.9075 H   0  0  0  0  0  0  0  0  0  0  0  0
   -1.1195    1.3690    4.3394 C   0  0  0  0  0  0  0  0  0  0  0  0
   -1.0988    0.4271    4.8884 H   0  0  0  0  0  0  0  0  0  0  0  0
   -0.1200    1.8049    4.3341 H   0  0  0  0  0  0  0  0  0  0  0  0
   -2.0867    2.3313    5.0262 C   0  0  0  0  0  0  0  0  0  0  0  0
   -2.0951    3.2791    4.4904 H   0  0  0  0  0  0  0  0  0  0  0  0
   -3.0888    1.9056    5.0167 H   0  0  0  0  0  0  0  0  0  0  0  0
   -1.6935    2.5781    6.4182 N   0  0  0  0  0  0  0  0  0  0  0  0
   -2.3445    3.2269    6.8357 H   0  0  0  0  0  0  0  0  0  0  0  0
   -1.7150    1.7064    6.9281 H   0  0  0  0  0  0  0  0  0  0  0  0
    0.0613   -0.9298   -0.0307 C   0  0  0  0  0  0  0  0  0  0  0  0
    0.0329   -2.1585   -0.0527 O   0  0  0  0  0  0  0  0  0  0  0  0
    1.0173   -0.2176   -0.6385 N   0  0  0  0  0  0  0  0  0  0  0  0
    0.9625    0.7863   -0.5869 H   0  0  0  0  0  0  0  0  0  0  0  0
    2.1266   -0.8100   -1.3844 C   0  0  0  0  0  0  0  0  0  0  0  0
    1.7374   -1.4771   -2.1567 H   0  0  0  0  0  0  0  0  0  0  0  0
    2.7288   -0.0299   -1.8525 H   0  0  0  0  0  0  0  0  0  0  0  0
    2.7540   -1.3935   -0.7075 H   0  0  0  0  0  0  0  0  0  0  0  0
  5  6  2  0  0  0  0
  5  7  1  0  0  0  0
  2  3  1  0  0  0  0
  2  4  1  0  0  0  0
  2  5  1  0  0  0  0
  1  2  1  0  0  0  0
 26 27  2  0  0  0  0
 26 28  1  0  0  0  0
 23 24  1  0  0  0  0
 23 25  1  0  0  0  0
 20 21  1  0  0  0  0
 20 22  1  0  0  0  0
 20 23  1  0  0  0  0
 17 18  1  0  0  0  0
 17 19  1  0  0  0  0
 17 20  1  0  0  0  0
 14 15  1  0  0  0  0
 14 16  1  0  0  0  0
 14 17  1  0  0  0  0
 11 12  1  0  0  0  0
 11 13  1  0  0  0  0
 11 14  1  0  0  0  0
  9 10  1  0  0  0  0
  9 11  1  0  0  0  0
  9 26  1  0  0  0  0
  7  8  1  0  0  0  0
  7  9  1  0  0  0  0
 30 31  1  0  0  0  0
 30 32  1  0  0  0  0
 30 33  1  0  0  0  0
 28 29  1  0  0  0  0
 28 30  1  0  0  0  0
M  END
$$$$
default_name
  -OEChem-01062215323D

 33 32  0     1  0  0  0  0  0999 V2000
   -3.8420   -3.6918    1.5562 H   0  0  0  0  0  0  0  0  0  0  0  0
   -3.8430   -2.7008    1.1032 C   0  0  0  0  0  0  0  0  0  0  0  0
   -4.5510   -2.0608    1.6242 H   0  0  0  0  0  0  0  0  0  0  0  0
   -4.1140   -2.7798    0.0522 H   0  0  0  0  0  0  0  0  0  0  0  0
   -2.4570   -2.1098    1.2172 C   0  0  0  0  0  0  0  0  0  0  0  0
   -1.5600   -2.7438    1.7572 O   0  0  0  0  0  0  0  0  0  0  0  0
   -2.2870   -0.8898    0.7102 N   0  0  0  0  0  0  0  0  0  0  0  0
   -3.0820   -0.4218    0.2992 H   0  0  0  0  0  0  0  0  0  0  0  0
   -1.0240   -0.1468    0.7262 C   0  0  1  0  0  0  0  0  0  0  0  0
   -1.1764    0.8073    0.2196 H   0  0  0  0  0  0  0  0  0  0  0  0
   -0.6310    0.1295    2.1905 C   0  0  0  0  0  0  0  0  0  0  0  0
   -0.6508   -0.8144    2.7391 H   0  0  0  0  0  0  0  0  0  0  0  0
    0.3870    0.5203    2.2220 H   0  0  0  0  0  0  0  0  0  0  0  0
   -1.5741    1.1152    2.8977 C   0  0  0  0  0  0  0  0  0  0  0  0
   -1.5821    2.0638    2.3602 H   0  0  0  0  0  0  0  0  0  0  0  0
   -2.5841    0.7013    2.9075 H   0  0  0  0  0  0  0  0  0  0  0  0
   -1.1195    1.3690    4.3394 C   0  0  0  0  0  0  0  0  0  0  0  0
   -1.0988    0.4271    4.8884 H   0  0  0  0  0  0  0  0  0  0  0  0
   -0.1200    1.8049    4.3341 H   0  0  0  0  0  0  0  0  0  0  0  0
   -2.0867    2.3313    5.0262 C   0  0  0  0  0  0  0  0  0  0  0  0
   -2.0951    3.2791    4.4904 H   0  0  0  0  0  0  0  0  0  0  0  0
   -3.0888    1.9056    5.0167 H   0  0  0  0  0  0  0  0  0  0  0  0
   -1.6935    2.5781    6.4182 N   0  0  0  0  0  0  0  0  0  0  0  0
   -2.3445    3.2269    6.8357 H   0  0  0  0  0  0  0  0  0  0  0  0
   -1.7150    1.7064    6.9281 H   0  0  0  0  0  0  0  0  0  0  0  0
    0.0613   -0.9298   -0.0307 C   0  0  0  0  0  0  0  0  0  0  0  0
   -0.1050   -2.1197   -0.2905 O   0  0  0  0  0  0  0  0  0  0  0  0
    1.1703   -0.2633   -0.3719 N   0  0  0  0  0  0  0  0  0  0  0  0
    1.2246    0.7140   -0.1362 H   0  0  0  0  0  0  0  0  0  0  0  0
    2.2995   -0.8657   -1.0788 C   0  0  0  0  0  0  0  0  0  0  0  0
    1.9511   -1.3271   -2.0054 H   0  0  0  0  0  0  0  0  0  0  0  0
    3.0485   -0.1080   -1.3133 H   0  0  0  0  0  0  0  0  0  0  0  0
    2.7518   -1.6401   -0.4556 H   0  0  0  0  0  0  0  0  0  0  0  0
  5  6  2  0  0  0  0
  5  7  1  0  0  0  0
  2  3  1  0  0  0  0
  2  4  1  0  0  0  0
  2  5  1  0  0  0  0
  1  2  1  0  0  0  0
 26 27  2  0  0  0  0
 26 28  1  0  0  0  0
 23 24  1  0  0  0  0
 23 25  1  0  0  0  0
 20 21  1  0  0  0  0
 20 22  1  0  0  0  0
 20 23  1  0  0  0  0
 17 18  1  0  0  0  0
 17 19  1  0  0  0  0
 17 20  1  0  0  0  0
 14 15  1  0  0  0  0
 14 16  1  0  0  0  0
 14 17  1  0  0  0  0
 11 12  1  0  0  0  0
 11 13  1  0  0  0  0
 11 14  1  0  0  0  0
  9 10  1  0  0  0  0
  9 11  1  0  0  0  0
  9 26  1  0  0  0  0
  7  8  1  0  0  0  0
  7  9  1  0  0  0  0
 30 31  1  0  0  0  0
 30 32  1  0  0  0  0
 30 33  1  0  0  0  0
 28 29  1  0  0  0  0
 28 30  1  0  0  0  0
M  END
$$$$
default_name
  -OEChem-01062215323D

 33 32  0     1  0  0  0  0  0999 V2000
   -3.8420   -3.6918    1.5562 H   0  0  0  0  0  0  0  0  0  0  0  0
   -3.8430   -2.7008    1.1032 C   0  0  0  0  0  0  0  0  0  0  0  0
   -4.5510   -2.0608    1.6242 H   0  0  0  0  0  0  0  0  0  0  0  0
   -4.1140   -2.7798    0.0522 H   0  0  0  0  0  0  0  0  0  0  0  0
   -2.4570   -2.1098    1.2172 C   0  0  0  0  0  0  0  0  0  0  0  0
   -1.5600   -2.7438    1.7572 O   0  0  0  0  0  0  0  0  0  0  0  0
   -2.2870   -0.8898    0.7102 N   0  0  0  0  0  0  0  0  0  0  0  0
   -3.0820   -0.4218    0.2992 H   0  0  0  0  0  0  0  0  0  0  0  0
   -1.0240   -0.1468    0.7262 C   0  0  1  0  0  0  0  0  0  0  0  0
   -1.2302    0.8933    0.4698 H   0  0  0  0  0  0  0  0  0  0  0  0
   -0.4385   -0.1969    2.1508 C   0  0  0  0  0  0  0  0  0  0  0  0
   -0.3973   -1.2395    2.4726 H   0  0  0  0  0  0  0  0  0  0  0  0
    0.5795    0.1951    2.1353 H   0  0  0  0  0  0  0  0  0  0  0  0
   -1.2684    0.5895    3.1775 C   0  0  0  0  0  0  0  0  0  0  0  0
   -1.3356    1.6338    2.8711 H   0  0  0  0  0  0  0  0  0  0  0  0
   -2.2733    0.1661    3.2267 H   0  0  0  0  0  0  0  0  0  0  0  0
   -0.6251    0.5237    4.5673 C   0  0  0  0  0  0  0  0  0  0  0  0
   -0.5437   -0.5164    4.8846 H   0  0  0  0  0  0  0  0  0  0  0  0
    0.3702    0.9674    4.5285 H   0  0  0  0  0  0  0  0  0  0  0  0
   -1.4819    1.2914    5.5720 C   0  0  0  0  0  0  0  0  0  0  0  0
   -1.5492    2.3345    5.2672 H   0  0  0  0  0  0  0  0  0  0  0  0
   -2.4815    0.8608    5.5990 H   0  0  0  0  0  0  0  0  0  0  0  0
   -0.9059    1.2286    6.9203 N   0  0  0  0  0  0  0  0  0  0  0  0
   -1.4885    1.7564    7.5536 H   0  0  0  0  0  0  0  0  0  0  0  0
   -0.8707    0.2650    7.2210 H   0  0  0  0  0  0  0  0  0  0  0  0
   -0.0572   -0.7220   -0.3218 C   0  0  0  0  0  0  0  0  0  0  0  0
   -0.3971   -1.6789   -1.0145 O   0  0  0  0  0  0  0  0  0  0  0  0
    1.1451   -0.1443   -0.4267 N   0  0  0  0  0  0  0  0  0  0  0  0
    1.3427    0.6449    0.1665 H   0  0  0  0  0  0  0  0  0  0  0  0
    2.1818   -0.5812   -1.3606 C   0  0  0  0  0  0  0  0  0  0  0  0
    1.7829   -0.5893   -2.3773 H   0  0  0  0  0  0  0  0  0  0  0  0
    3.0404    0.0904   -1.3161 H   0  0  0  0  0  0  0  0  0  0  0  0
    2.5016   -1.5939   -1.1065 H   0  0  0  0  0  0  0  0  0  0  0  0
  5  6  2  0  0  0  0
  5  7  1  0  0  0  0
  2  3  1  0  0  0  0
  2  4  1  0  0  0  0
  2  5  1  0  0  0  0
  1  2  1  0  0  0  0
 26 27  2  0  0  0  0
 26 28  1  0  0  0  0
 23 24  1  0  0  0  0
 23 25  1  0  0  0  0
 20 21  1  0  0  0  0
 20 22  1  0  0  0  0
 20 23  1  0  0  0  0
 17 18  1  0  0  0  0
 17 19  1  0  0  0  0
 17 20  1  0  0  0  0
 14 15  1  0  0  0  0
 14 16  1  0  0  0  0
 14 17  1  0  0  0  0
 11 12  1  0  0  0  0
 11 13  1  0  0  0  0
 11 14  1  0  0  0  0
  9 10  1  0  0  0  0
  9 11  1  0  0  0  0
  9 26  1  0  0  0  0
  7  8  1  0  0  0  0
  7  9  1  0  0  0  0
 30 31  1  0  0  0  0
 30 32  1  0  0  0  0
 30 33  1  0  0  0  0
 28 29  1  0  0  0  0
 28 30  1  0  0  0  0
M  END
$$$$
default_name
  -OEChem-01062215323D

 33 32  0     1  0  0  0  0  0999 V2000
   -3.8420   -3.6918    1.5562 H   0  0  0  0  0  0  0  0  0  0  0  0
   -3.8430   -2.7008    1.1032 C   0  0  0  0  0  0  0  0  0  0  0  0
   -4.5510   -2.0608    1.6242 H   0  0  0  0  0  0  0  0  0  0  0  0
   -4.1140   -2.7798    0.0522 H   0  0  0  0  0  0  0  0  0  0  0  0
   -2.4570   -2.1098    1.2172 C   0  0  0  0  0  0  0  0  0  0  0  0
   -1.5600   -2.7438    1.7572 O   0  0  0  0  0  0  0  0  0  0  0  0
   -2.2870   -0.8898    0.7102 N   0  0  0  0  0  0  0  0  0  0  0  0
   -3.0820   -0.4218    0.2992 H   0  0  0  0  0  0  0  0  0  0  0  0
   -1.0240   -0.1468    0.7262 C   0  0  1  0  0  0  0  0  0  0  0  0
   -1.2302    0.8933    0.4698 H   0  0  0  0  0  0  0  0  0  0  0  0
   -0.4385   -0.1969    2.1508 C   0  0  0  0  0  0  0  0  0  0  0  0
   -0.3973   -1.2395    2.4726 H   0  0  0  0  0  0  0  0  0  0  0  0
    0.5795    0.1951    2.1353 H   0  0  0  0  0  0  0  0  0  0  0  0
   -1.2684    0.5895    3.1775 C   0  0  0  0  0  0  0  0  0  0  0  0
   -1.3356    1.6338    2.8711 H   0  0  0  0  0  0  0  0  0  0  0  0
   -2.2733    0.1661    3.2267 H   0  0  0  0  0  0  0  0  0  0  0  0
   -0.6251    0.5237    4.5673 C   0  0  0  0  0  0  0  0  0  0  0  0
   -0.5437   -0.5164    4.8846 H   0  0  0  0  0  0  0  0  0  0  0  0
    0.3702    0.9674    4.5285 H   0  0  0  0  0  0  0  0  0  0  0  0
   -1.4819    1.2914    5.5720 C   0  0  0  0  0  0  0  0  0  0  0  0
   -1.5492    2.3345    5.2672 H   0  0  0  0  0  0  0  0  0  0  0  0
   -2.4815    0.8608    5.5990 H   0  0  0  0  0  0  0  0  0  0  0  0
   -0.9059    1.2286    6.9203 N   0  0  0  0  0  0  0  0  0  0  0  0
   -1.4885    1.7564    7.5536 H   0  0  0  0  0  0  0  0  0  0  0  0
   -0.8707    0.2650    7.2210 H   0  0  0  0  0  0  0  0  0  0  0  0
   -0.0572   -0.7220   -0.3218 C   0  0  0  0  0  0  0  0  0  0  0  0
   -0.4740   -1.4815   -1.1939 O   0  0  0  0  0  0  0  0  0  0  0  0
    1.2293   -0.3668   -0.2269 N   0  0  0  0  0  0  0  0  0  0  0  0
    1.4896    0.2714    0.5070 H   0  0  0  0  0  0  0  0  0  0  0  0
    2.2752   -0.8383   -1.1334 C   0  0  0  0  0  0  0  0  0  0  0  0
    1.9964   -0.6160   -2.1658 H   0  0  0  0  0  0  0  0  0  0  0  0
    3.2242   -0.3516   -0.9040 H   0  0  0  0  0  0  0  0  0  0  0  0
    2.3895   -1.9194   -1.0312 H   0  0  0  0  0  0  0  0  0  0  0  0
  5  6  2  0  0  0  0
  5  7  1  0  0  0  0
  2  3  1  0  0  0  0
  2  4  1  0  0  0  0
  2  5  1  0  0  0  0
  1  2  1  0  0  0  0
 26 27  2  0  0  0  0
 26 28  1  0  0  0  0
 23 24  1  0  0  0  0
 23 25  1  0  0  0  0
 20 21  1  0  0  0  0
 20 22  1  0  0  0  0
 20 23  1  0  0  0  0
 17 18  1  0  0  0  0
 17 19  1  0  0  0  0
 17 20  1  0  0  0  0
 14 15  1  0  0  0  0
 14 16  1  0  0  0  0
 14 17  1  0  0  0  0
 11 12  1  0  0  0  0
 11 13  1  0  0  0  0
 11 14  1  0  0  0  0
  9 10  1  0  0  0  0
  9 11  1  0  0  0  0
  9 26  1  0  0  0  0
  7  8  1  0  0  0  0
  7  9  1  0  0  0  0
 30 31  1  0  0  0  0
 30 32  1  0  0  0  0
 30 33  1  0  0  0  0
 28 29  1  0  0  0  0
 28 30  1  0  0  0  0
M  END
$$$$
default_name
  -OEChem-01062215323D

 33 32  0     1  0  0  0  0  0999 V2000
   -3.8420   -3.6918    1.5562 H   0  0  0  0  0  0  0  0  0  0  0  0
   -3.8430   -2.7008    1.1032 C   0  0  0  0  0  0  0  0  0  0  0  0
   -4.5510   -2.0608    1.6242 H   0  0  0  0  0  0  0  0  0  0  0  0
   -4.1140   -2.7798    0.0522 H   0  0  0  0  0  0  0  0  0  0  0  0
   -2.4570   -2.1098    1.2172 C   0  0  0  0  0  0  0  0  0  0  0  0
   -1.5600   -2.7438    1.7572 O   0  0  0  0  0  0  0  0  0  0  0  0
   -2.2870   -0.8898    0.7102 N   0  0  0  0  0  0  0  0  0  0  0  0
   -3.0820   -0.4218    0.2992 H   0  0  0  0  0  0  0  0  0  0  0  0
   -1.0240   -0.1468    0.7262 C   0  0  1  0  0  0  0  0  0  0  0  0
   -1.2302    0.8933    0.4698 H   0  0  0  0  0  0  0  0  0  0  0  0
   -0.4385   -0.1969    2.1508 C   0  0  0  0  0  0  0  0  0  0  0  0
   -0.3973   -1.2395    2.4726 H   0  0  0  0  0  0  0  0  0  0  0  0
    0.5795    0.1951    2.1353 H   0  0  0  0  0  0  0  0  0  0  0  0
   -1.2684    0.5895    3.1775 C   0  0  0  0  0  0  0  0  0  0  0  0
   -1.3356    1.6338    2.8711 H   0  0  0  0  0  0  0  0  0  0  0  0
   -2.2733    0.1661    3.2267 H   0  0  0  0  0  0  0  0  0  0  0  0
   -0.6251    0.5237    4.5673 C   0  0  0  0  0  0  0  0  0  0  0  0
   -0.5437   -0.5164    4.8846 H   0  0  0  0  0  0  0  0  0  0  0  0
    0.3702    0.9674    4.5285 H   0  0  0  0  0  0  0  0  0  0  0  0
   -1.4819    1.2914    5.5720 C   0  0  0  0  0  0  0  0  0  0  0  0
   -1.5492    2.3345    5.2672 H   0  0  0  0  0  0  0  0  0  0  0  0
   -2.4815    0.8608    5.5990 H   0  0  0  0  0  0  0  0  0  0  0  0
   -0.9059    1.2286    6.9203 N   0  0  0  0  0  0  0  0  0  0  0  0
   -1.4885    1.7564    7.5536 H   0  0  0  0  0  0  0  0  0  0  0  0
   -0.8707    0.2650    7.2210 H   0  0  0  0  0  0  0  0  0  0  0  0
   -0.0572   -0.7220   -0.3218 C   0  0  0  0  0  0  0  0  0  0  0  0
   -0.4962   -1.2480   -1.3424 O   0  0  0  0  0  0  0  0  0  0  0  0
    1.2521   -0.6292   -0.0619 N   0  0  0  0  0  0  0  0  0  0  0  0
    1.5327   -0.1707    0.7894 H   0  0  0  0  0  0  0  0  0  0  0  0
    2.2980   -1.1400   -0.9467 C   0  0  0  0  0  0  0  0  0  0  0  0
    2.1774   -0.7138   -1.9451 H   0  0  0  0  0  0  0  0  0  0  0  0
    3.2838   -0.8780   -0.5600 H   0  0  0  0  0  0  0  0  0  0  0  0
    2.2165   -2.2263   -1.0224 H   0  0  0  0  0  0  0  0  0  0  0  0
  5  6  2  0  0  0  0
  5  7  1  0  0  0  0
  2  3  1  0  0  0  0
  2  4  1  0  0  0  0
  2  5  1  0  0  0  0
  1  2  1  0  0  0  0
 26 27  2  0  0  0  0
 26 28  1  0  0  0  0
 23 24  1  0  0  0  0
 23 25  1  0  0  0  0
 20 21  1  0  0  0  0
 20 22  1  0  0  0  0
 20 23  1  0  0  0  0
 17 18  1  0  0  0  0
 17 19  1  0  0  0  0
 17 20  1  0  0  0  0
 14 15  1  0  0  0  0
 14 16  1  0  0  0  0
 14 17  1  0  0  0  0
 11 12  1  0  0  0  0
 11 13  1  0  0  0  0
 11 14  1  0  0  0  0
  9 10  1  0  0  0  0
  9 11  1  0  0  0  0
  9 26  1  0  0  0  0
  7  8  1  0  0  0  0
  7  9  1  0  0  0  0
 30 31  1  0  0  0  0
 30 32  1  0  0  0  0
 30 33  1  0  0  0  0
 28 29  1  0  0  0  0
 28 30  1  0  0  0  0
M  END
$$$$
default_name
  -OEChem-01062215323D

 33 32  0     1  0  0  0  0  0999 V2000
   -3.8420   -3.6918    1.5562 H   0  0  0  0  0  0  0  0  0  0  0  0
   -3.8430   -2.7008    1.1032 C   0  0  0  0  0  0  0  0  0  0  0  0
   -4.5510   -2.0608    1.6242 H   0  0  0  0  0  0  0  0  0  0  0  0
   -4.1140   -2.7798    0.0522 H   0  0  0  0  0  0  0  0  0  0  0  0
   -2.4570   -2.1098    1.2172 C   0  0  0  0  0  0  0  0  0  0  0  0
   -1.5600   -2.7438    1.7572 O   0  0  0  0  0  0  0  0  0  0  0  0
   -2.2870   -0.8898    0.7102 N   0  0  0  0  0  0  0  0  0  0  0  0
   -3.0820   -0.4218    0.2992 H   0  0  0  0  0  0  0  0  0  0  0  0
   -1.0240   -0.1468    0.7262 C   0  0  1  0  0  0  0  0  0  0  0  0
   -1.2302    0.8933    0.4698 H   0  0  0  0  0  0  0  0  0  0  0  0
   -0.4385   -0.1969    2.1508 C   0  0  0  0  0  0  0  0  0  0  0  0
   -0.3973   -1.2395    2.4726 H   0  0  0  0  0  0  0  0  0  0  0  0
    0.5795    0.1951    2.1353 H   0  0  0  0  0  0  0  0  0  0  0  0
   -1.2684    0.5895    3.1775 C   0  0  0  0  0  0  0  0  0  0  0  0
   -1.3356    1.6338    2.8711 H   0  0  0  0  0  0  0  0  0  0  0  0
   -2.2733    0.1661    3.2267 H   0  0  0  0  0  0  0  0  0  0  0  0
   -0.6251    0.5237    4.5673 C   0  0  0  0  0  0  0  0  0  0  0  0
   -0.5437   -0.5164    4.8846 H   0  0  0  0  0  0  0  0  0  0  0  0
    0.3702    0.9674    4.5285 H   0  0  0  0  0  0  0  0  0  0  0  0
   -1.4819    1.2914    5.5720 C   0  0  0  0  0  0  0  0  0  0  0  0
   -1.5492    2.3345    5.2672 H   0  0  0  0  0  0  0  0  0  0  0  0
   -2.4815    0.8608    5.5990 H   0  0  0  0  0  0  0  0  0  0  0  0
   -0.9059    1.2286    6.9203 N   0  0  0  0  0  0  0  0  0  0  0  0
   -1.4885    1.7564    7.5536 H   0  0  0  0  0  0  0  0  0  0  0  0
   -0.8707    0.2650    7.2210 H   0  0  0  0  0  0  0  0  0  0  0  0
   -0.0572   -0.7220   -0.3218 C   0  0  0  0  0  0  0  0  0  0  0  0
   -0.4620   -0.9944   -1.4501 O   0  0  0  0  0  0  0  0  0  0  0  0
    1.2118   -0.9134    0.0569 N   0  0  0  0  0  0  0  0  0  0  0  0
    1.4689   -0.6513    0.9944 H   0  0  0  0  0  0  0  0  0  0  0  0
    2.2487   -1.4659   -0.8133 C   0  0  0  0  0  0  0  0  0  0  0  0
    2.3137   -0.8761   -1.7303 H   0  0  0  0  0  0  0  0  0  0  0  0
    3.2153   -1.4530   -0.3076 H   0  0  0  0  0  0  0  0  0  0  0  0
    1.9944   -2.4937   -1.0805 H   0  0  0  0  0  0  0  0  0  0  0  0
  5  6  2  0  0  0  0
  5  7  1  0  0  0  0
  2  3  1  0  0  0  0
  2  4  1  0  0  0  0
  2  5  1  0  0  0  0
  1  2  1  0  0  0  0
 26 27  2  0  0  0  0
 26 28  1  0  0  0  0
 23 24  1  0  0  0  0
 23 25  1  0  0  0  0
 20 21  1  0  0  0  0
 20 22  1  0  0  0  0
 20 23  1  0  0  0  0
 17 18  1  0  0  0  0
 17 19  1  0  0  0  0
 17 20  1  0  0  0  0
 14 15  1  0  0  0  0
 14 16  1  0  0  0  0
 14 17  1  0  0  0  0
 11 12  1  0  0  0  0
 11 13  1  0  0  0  0
 11 14  1  0  0  0  0
  9 10  1  0  0  0  0
  9 11  1  0  0  0  0
  9 26  1  0  0  0  0
  7  8  1  0  0  0  0
  7  9  1  0  0  0  0
 30 31  1  0  0  0  0
 30 32  1  0  0  0  0
 30 33  1  0  0  0  0
 28 29  1  0  0  0  0
 28 30  1  0  0  0  0
M  END
$$$$
default_name
  -OEChem-01062215323D

 33 32  0     1  0  0  0  0  0999 V2000
   -3.8420   -3.6918    1.5562 H   0  0  0  0  0  0  0  0  0  0  0  0
   -3.8430   -2.7008    1.1032 C   0  0  0  0  0  0  0  0  0  0  0  0
   -4.5510   -2.0608    1.6242 H   0  0  0  0  0  0  0  0  0  0  0  0
   -4.1140   -2.7798    0.0522 H   0  0  0  0  0  0  0  0  0  0  0  0
   -2.4570   -2.1098    1.2172 C   0  0  0  0  0  0  0  0  0  0  0  0
   -1.5600   -2.7438    1.7572 O   0  0  0  0  0  0  0  0  0  0  0  0
   -2.2870   -0.8898    0.7102 N   0  0  0  0  0  0  0  0  0  0  0  0
   -3.0820   -0.4218    0.2992 H   0  0  0  0  0  0  0  0  0  0  0  0
   -1.0240   -0.1468    0.7262 C   0  0  1  0  0  0  0  0  0  0  0  0
   -1.2302    0.8933    0.4698 H   0  0  0  0  0  0  0  0  0  0  0  0
   -0.4385   -0.1969    2.1508 C   0  0  0  0  0  0  0  0  0  0  0  0
   -0.3973   -1.2395    2.4726 H   0  0  0  0  0  0  0  0  0  0  0  0
    0.5795    0.1951    2.1353 H   0  0  0  0  0  0  0  0  0  0  0  0
   -1.2684    0.5895    3.1775 C   0  0  0  0  0  0  0  0  0  0  0  0
   -1.3356    1.6338    2.8711 H   0  0  0  0  0  0  0  0  0  0  0  0
   -2.2733    0.1661    3.2267 H   0  0  0  0  0  0  0  0  0  0  0  0
   -0.6251    0.5237    4.5673 C   0  0  0  0  0  0  0  0  0  0  0  0
   -0.5437   -0.5164    4.8846 H   0  0  0  0  0  0  0  0  0  0  0  0
    0.3702    0.9674    4.5285 H   0  0  0  0  0  0  0  0  0  0  0  0
   -1.4819    1.2914    5.5720 C   0  0  0  0  0  0  0  0  0  0  0  0
   -1.5492    2.3345    5.2672 H   0  0  0  0  0  0  0  0  0  0  0  0
   -2.4815    0.8608    5.5990 H   0  0  0  0  0  0  0  0  0  0  0  0
   -0.9059    1.2286    6.9203 N   0  0  0  0  0  0  0  0  0  0  0  0
   -1.4885    1.7564    7.5536 H   0  0  0  0  0  0  0  0  0  0  0  0
   -0.8707    0.2650    7.2210 H   0  0  0  0  0  0  0  0  0  0  0  0
   -0.0572   -0.7220   -0.3218 C   0  0  0  0  0  0  0  0  0  0  0  0
   -0.3738   -0.7380   -1.5095 O   0  0  0  0  0  0  0  0  0  0  0  0
    1.1112   -1.2002    0.1216 N   0  0  0  0  0  0  0  0  0  0  0  0
    1.3027   -1.1376    1.1080 H   0  0  0  0  0  0  0  0  0  0  0  0
    2.1307   -1.7937   -0.7423 C   0  0  0  0  0  0  0  0  0  0  0  0
    2.3959   -1.0919   -1.5361 H   0  0  0  0  0  0  0  0  0  0  0  0
    3.0232   -2.0373   -0.1641 H   0  0  0  0  0  0  0  0  0  0  0  0
    1.7383   -2.7033   -1.2017 H   0  0  0  0  0  0  0  0  0  0  0  0
  5  6  2  0  0  0  0
  5  7  1  0  0  0  0
  2  3  1  0  0  0  0
  2  4  1  0  0  0  0
  2  5  1  0  0  0  0
  1  2  1  0  0  0  0
 26 27  2  0  0  0  0
 26 28  1  0  0  0  0
 23 24  1  0  0  0  0
 23 25  1  0  0  0  0
 20 21  1  0  0  0  0
 20 22  1  0  0  0  0
 20 23  1  0  0  0  0
 17 18  1  0  0  0  0
 17 19  1  0  0  0  0
 17 20  1  0  0  0  0
 14 15  1  0  0  0  0
 14 16  1  0  0  0  0
 14 17  1  0  0  0  0
 11 12  1  0  0  0  0
 11 13  1  0  0  0  0
 11 14  1  0  0  0  0
  9 10  1  0  0  0  0
  9 11  1  0  0  0  0
  9 26  1  0  0  0  0
  7  8  1  0  0  0  0
  7  9  1  0  0  0  0
 30 31  1  0  0  0  0
 30 32  1  0  0  0  0
 30 33  1  0  0  0  0
 28 29  1  0  0  0  0
 28 30  1  0  0  0  0
M  END
$$$$
default_name
  -OEChem-01062215323D

 33 32  0     1  0  0  0  0  0999 V2000
   -3.8420   -3.6918    1.5562 H   0  0  0  0  0  0  0  0  0  0  0  0
   -3.8430   -2.7008    1.1032 C   0  0  0  0  0  0  0  0  0  0  0  0
   -4.5510   -2.0608    1.6242 H   0  0  0  0  0  0  0  0  0  0  0  0
   -4.1140   -2.7798    0.0522 H   0  0  0  0  0  0  0  0  0  0  0  0
   -2.4570   -2.1098    1.2172 C   0  0  0  0  0  0  0  0  0  0  0  0
   -1.5600   -2.7438    1.7572 O   0  0  0  0  0  0  0  0  0  0  0  0
   -2.2870   -0.8898    0.7102 N   0  0  0  0  0  0  0  0  0  0  0  0
   -3.0820   -0.4218    0.2992 H   0  0  0  0  0  0  0  0  0  0  0  0
   -1.0240   -0.1468    0.7262 C   0  0  1  0  0  0  0  0  0  0  0  0
   -1.2302    0.8933    0.4698 H   0  0  0  0  0  0  0  0  0  0  0  0
   -0.4385   -0.1969    2.1508 C   0  0  0  0  0  0  0  0  0  0  0  0
   -0.3973   -1.2395    2.4726 H   0  0  0  0  0  0  0  0  0  0  0  0
    0.5795    0.1951    2.1353 H   0  0  0  0  0  0  0  0  0  0  0  0
   -1.2684    0.5895    3.1775 C   0  0  0  0  0  0  0  0  0  0  0  0
   -1.3356    1.6338    2.8711 H   0  0  0  0  0  0  0  0  0  0  0  0
   -2.2733    0.1661    3.2267 H   0  0  0  0  0  0  0  0  0  0  0  0
   -0.6251    0.5237    4.5673 C   0  0  0  0  0  0  0  0  0  0  0  0
   -0.5437   -0.5164    4.8846 H   0  0  0  0  0  0  0  0  0  0  0  0
    0.3702    0.9674    4.5285 H   0  0  0  0  0  0  0  0  0  0  0  0
   -1.4819    1.2914    5.5720 C   0  0  0  0  0  0  0  0  0  0  0  0
   -1.5492    2.3345    5.2672 H   0  0  0  0  0  0  0  0  0  0  0  0
   -2.4815    0.8608    5.5990 H   0  0  0  0  0  0  0  0  0  0  0  0
   -0.9059    1.2286    6.9203 N   0  0  0  0  0  0  0  0  0  0  0  0
   -1.4885    1.7564    7.5536 H   0  0  0  0  0  0  0  0  0  0  0  0
   -0.8707    0.2650    7.2210 H   0  0  0  0  0  0  0  0  0  0  0  0
   -0.0572   -0.7220   -0.3218 C   0  0  0  0  0  0  0  0  0  0  0  0
   -0.2376   -0.4962   -1.5166 O   0  0  0  0  0  0  0  0  0  0  0  0
    0.9572   -1.4700    0.1276 N   0  0  0  0  0  0  0  0  0  0  0  0
    1.0454   -1.5965    1.1225 H   0  0  0  0  0  0  0  0  0  0  0  0
    1.9520   -2.1011   -0.7384 C   0  0  0  0  0  0  0  0  0  0  0  0
    2.4183   -1.3465   -1.3756 H   0  0  0  0  0  0  0  0  0  0  0  0
    2.7206   -2.5912   -0.1392 H   0  0  0  0  0  0  0  0  0  0  0  0
    1.4657   -2.8409   -1.3776 H   0  0  0  0  0  0  0  0  0  0  0  0
  5  6  2  0  0  0  0
  5  7  1  0  0  0  0
  2  3  1  0  0  0  0
  2  4  1  0  0  0  0
  2  5  1  0  0  0  0
  1  2  1  0  0  0  0
 26 27  2  0  0  0  0
 26 28  1  0  0  0  0
 23 24  1  0  0  0  0
 23 25  1  0  0  0  0
 20 21  1  0  0  0  0
 20 22  1  0  0  0  0
 20 23  1  0  0  0  0
 17 18  1  0  0  0  0
 17 19  1  0  0  0  0
 17 20  1  0  0  0  0
 14 15  1  0  0  0  0
 14 16  1  0  0  0  0
 14 17  1  0  0  0  0
 11 12  1  0  0  0  0
 11 13  1  0  0  0  0
 11 14  1  0  0  0  0
  9 10  1  0  0  0  0
  9 11  1  0  0  0  0
  9 26  1  0  0  0  0
  7  8  1  0  0  0  0
  7  9  1  0  0  0  0
 30 31  1  0  0  0  0
 30 32  1  0  0  0  0
 30 33  1  0  0  0  0
 28 29  1  0  0  0  0
 28 30  1  0  0  0  0
M  END
$$$$
default_name
  -OEChem-01062215323D

 33 32  0     1  0  0  0  0  0999 V2000
   -3.8420   -3.6918    1.5562 H   0  0  0  0  0  0  0  0  0  0  0  0
   -3.8430   -2.7008    1.1032 C   0  0  0  0  0  0  0  0  0  0  0  0
   -4.5510   -2.0608    1.6242 H   0  0  0  0  0  0  0  0  0  0  0  0
   -4.1140   -2.7798    0.0522 H   0  0  0  0  0  0  0  0  0  0  0  0
   -2.4570   -2.1098    1.2172 C   0  0  0  0  0  0  0  0  0  0  0  0
   -1.5600   -2.7438    1.7572 O   0  0  0  0  0  0  0  0  0  0  0  0
   -2.2870   -0.8898    0.7102 N   0  0  0  0  0  0  0  0  0  0  0  0
   -3.0820   -0.4218    0.2992 H   0  0  0  0  0  0  0  0  0  0  0  0
   -1.0240   -0.1468    0.7262 C   0  0  1  0  0  0  0  0  0  0  0  0
   -1.2302    0.8933    0.4698 H   0  0  0  0  0  0  0  0  0  0  0  0
   -0.4385   -0.1969    2.1508 C   0  0  0  0  0  0  0  0  0  0  0  0
   -0.3973   -1.2395    2.4726 H   0  0  0  0  0  0  0  0  0  0  0  0
    0.5795    0.1951    2.1353 H   0  0  0  0  0  0  0  0  0  0  0  0
   -1.2684    0.5895    3.1775 C   0  0  0  0  0  0  0  0  0  0  0  0
   -1.3356    1.6338    2.8711 H   0  0  0  0  0  0  0  0  0  0  0  0
   -2.2733    0.1661    3.2267 H   0  0  0  0  0  0  0  0  0  0  0  0
   -0.6251    0.5237    4.5673 C   0  0  0  0  0  0  0  0  0  0  0  0
   -0.5437   -0.5164    4.8846 H   0  0  0  0  0  0  0  0  0  0  0  0
    0.3702    0.9674    4.5285 H   0  0  0  0  0  0  0  0  0  0  0  0
   -1.4819    1.2914    5.5720 C   0  0  0  0  0  0  0  0  0  0  0  0
   -1.5492    2.3345    5.2672 H   0  0  0  0  0  0  0  0  0  0  0  0
   -2.4815    0.8608    5.5990 H   0  0  0  0  0  0  0  0  0  0  0  0
   -0.9059    1.2286    6.9203 N   0  0  0  0  0  0  0  0  0  0  0  0
   -1.4885    1.7564    7.5536 H   0  0  0  0  0  0  0  0  0  0  0  0
   -0.8707    0.2650    7.2210 H   0  0  0  0  0  0  0  0  0  0  0  0
   -0.0572   -0.7220   -0.3218 C   0  0  0  0  0  0  0  0  0  0  0  0
   -0.0627   -0.2855   -1.4709 O   0  0  0  0  0  0  0  0  0  0  0  0
    0.7602   -1.7044    0.0746 N   0  0  0  0  0  0  0  0  0  0  0  0
    0.7144   -1.9967    1.0369 H   0  0  0  0  0  0  0  0  0  0  0  0
    1.7248   -2.3671   -0.8020 C   0  0  0  0  0  0  0  0  0  0  0  0
    2.3796   -1.6224   -1.2599 H   0  0  0  0  0  0  0  0  0  0  0  0
    2.3283   -3.0769   -0.2345 H   0  0  0  0  0  0  0  0  0  0  0  0
    1.1952   -2.8970   -1.5964 H   0  0  0  0  0  0  0  0  0  0  0  0
  5  6  2  0  0  0  0
  5  7  1  0  0  0  0
  2  3  1  0  0  0  0
  2  4  1  0  0  0  0
  2  5  1  0  0  0  0
  1  2  1  0  0  0  0
 26 27  2  0  0  0  0
 26 28  1  0  0  0  0
 23 24  1  0  0  0  0
 23 25  1  0  0  0  0
 20 21  1  0  0  0  0
 20 22  1  0  0  0  0
 20 23  1  0  0  0  0
 17 18  1  0  0  0  0
 17 19  1  0  0  0  0
 17 20  1  0  0  0  0
 14 15  1  0  0  0  0
 14 16  1  0  0  0  0
 14 17  1  0  0  0  0
 11 12  1  0  0  0  0
 11 13  1  0  0  0  0
 11 14  1  0  0  0  0
  9 10  1  0  0  0  0
  9 11  1  0  0  0  0
  9 26  1  0  0  0  0
  7  8  1  0  0  0  0
  7  9  1  0  0  0  0
 30 31  1  0  0  0  0
 30 32  1  0  0  0  0
 30 33  1  0  0  0  0
 28 29  1  0  0  0  0
 28 30  1  0  0  0  0
M  END
$$$$
default_name
  -OEChem-01062215323D

 33 32  0     1  0  0  0  0  0999 V2000
   -3.8420   -3.6918    1.5562 H   0  0  0  0  0  0  0  0  0  0  0  0
   -3.8430   -2.7008    1.1032 C   0  0  0  0  0  0  0  0  0  0  0  0
   -4.5510   -2.0608    1.6242 H   0  0  0  0  0  0  0  0  0  0  0  0
   -4.1140   -2.7798    0.0522 H   0  0  0  0  0  0  0  0  0  0  0  0
   -2.4570   -2.1098    1.2172 C   0  0  0  0  0  0  0  0  0  0  0  0
   -1.5600   -2.7438    1.7572 O   0  0  0  0  0  0  0  0  0  0  0  0
   -2.2870   -0.8898    0.7102 N   0  0  0  0  0  0  0  0  0  0  0  0
   -3.0820   -0.4218    0.2992 H   0  0  0  0  0  0  0  0  0  0  0  0
   -1.0240   -0.1468    0.7262 C   0  0  1  0  0  0  0  0  0  0  0  0
   -1.2302    0.8933    0.4698 H   0  0  0  0  0  0  0  0  0  0  0  0
   -0.4385   -0.1969    2.1508 C   0  0  0  0  0  0  0  0  0  0  0  0
   -0.3973   -1.2395    2.4726 H   0  0  0  0  0  0  0  0  0  0  0  0
    0.5795    0.1951    2.1353 H   0  0  0  0  0  0  0  0  0  0  0  0
   -1.2684    0.5895    3.1775 C   0  0  0  0  0  0  0  0  0  0  0  0
   -1.3356    1.6338    2.8711 H   0  0  0  0  0  0  0  0  0  0  0  0
   -2.2733    0.1661    3.2267 H   0  0  0  0  0  0  0  0  0  0  0  0
   -0.6251    0.5237    4.5673 C   0  0  0  0  0  0  0  0  0  0  0  0
   -0.5437   -0.5164    4.8846 H   0  0  0  0  0  0  0  0  0  0  0  0
    0.3702    0.9674    4.5285 H   0  0  0  0  0  0  0  0  0  0  0  0
   -1.4819    1.2914    5.5720 C   0  0  0  0  0  0  0  0  0  0  0  0
   -1.5492    2.3345    5.2672 H   0  0  0  0  0  0  0  0  0  0  0  0
   -2.4815    0.8608    5.5990 H   0  0  0  0  0  0  0  0  0  0  0  0
   -0.9059    1.2286    6.9203 N   0  0  0  0  0  0  0  0  0  0  0  0
   -1.4885    1.7564    7.5536 H   0  0  0  0  0  0  0  0  0  0  0  0
   -0.8707    0.2650    7.2210 H   0  0  0  0  0  0  0  0  0  0  0  0
   -0.0572   -0.7220   -0.3218 C   0  0  0  0  0  0  0  0  0  0  0  0
    0.1390   -0.1202   -1.3755 O   0  0  0  0  0  0  0  0  0  0  0  0
    0.5338   -1.8874   -0.0339 N   0  0  0  0  0  0  0  0  0  0  0  0
    0.3324   -2.3110    0.8570 H   0  0  0  0  0  0  0  0  0  0  0  0
    1.4645   -2.5736   -0.9287 C   0  0  0  0  0  0  0  0  0  0  0  0
    2.2823   -1.9010   -1.1967 H   0  0  0  0  0  0  0  0  0  0  0  0
    1.8728   -3.4614   -0.4436 H   0  0  0  0  0  0  0  0  0  0  0  0
    0.9451   -2.8679   -1.8430 H   0  0  0  0  0  0  0  0  0  0  0  0
  5  6  2  0  0  0  0
  5  7  1  0  0  0  0
  2  3  1  0  0  0  0
  2  4  1  0  0  0  0
  2  5  1  0  0  0  0
  1  2  1  0  0  0  0
 26 27  2  0  0  0  0
 26 28  1  0  0  0  0
 23 24  1  0  0  0  0
 23 25  1  0  0  0  0
 20 21  1  0  0  0  0
 20 22  1  0  0  0  0
 20 23  1  0  0  0  0
 17 18  1  0  0  0  0
 17 19  1  0  0  0  0
 17 20  1  0  0  0  0
 14 15  1  0  0  0  0
 14 16  1  0  0  0  0
 14 17  1  0  0  0  0
 11 12  1  0  0  0  0
 11 13  1  0  0  0  0
 11 14  1  0  0  0  0
  9 10  1  0  0  0  0
  9 11  1  0  0  0  0
  9 26  1  0  0  0  0
  7  8  1  0  0  0  0
  7  9  1  0  0  0  0
 30 31  1  0  0  0  0
 30 32  1  0  0  0  0
 30 33  1  0  0  0  0
 28 29  1  0  0  0  0
 28 30  1  0  0  0  0
M  END
$$$$
default_name
  -OEChem-01062215323D

 33 32  0     1  0  0  0  0  0999 V2000
   -3.8420   -3.6918    1.5562 H   0  0  0  0  0  0  0  0  0  0  0  0
   -3.8430   -2.7008    1.1032 C   0  0  0  0  0  0  0  0  0  0  0  0
   -4.5510   -2.0608    1.6242 H   0  0  0  0  0  0  0  0  0  0  0  0
   -4.1140   -2.7798    0.0522 H   0  0  0  0  0  0  0  0  0  0  0  0
   -2.4570   -2.1098    1.2172 C   0  0  0  0  0  0  0  0  0  0  0  0
   -1.5600   -2.7438    1.7572 O   0  0  0  0  0  0  0  0  0  0  0  0
   -2.2870   -0.8898    0.7102 N   0  0  0  0  0  0  0  0  0  0  0  0
   -3.0820   -0.4218    0.2992 H   0  0  0  0  0  0  0  0  0  0  0  0
   -1.0240   -0.1468    0.7262 C   0  0  1  0  0  0  0  0  0  0  0  0
   -1.2302    0.8933    0.4698 H   0  0  0  0  0  0  0  0  0  0  0  0
   -0.4385   -0.1969    2.1508 C   0  0  0  0  0  0  0  0  0  0  0  0
   -0.3973   -1.2395    2.4726 H   0  0  0  0  0  0  0  0  0  0  0  0
    0.5795    0.1951    2.1353 H   0  0  0  0  0  0  0  0  0  0  0  0
   -1.2684    0.5895    3.1775 C   0  0  0  0  0  0  0  0  0  0  0  0
   -1.3356    1.6338    2.8711 H   0  0  0  0  0  0  0  0  0  0  0  0
   -2.2733    0.1661    3.2267 H   0  0  0  0  0  0  0  0  0  0  0  0
   -0.6251    0.5237    4.5673 C   0  0  0  0  0  0  0  0  0  0  0  0
   -0.5437   -0.5164    4.8846 H   0  0  0  0  0  0  0  0  0  0  0  0
    0.3702    0.9674    4.5285 H   0  0  0  0  0  0  0  0  0  0  0  0
   -1.4819    1.2914    5.5720 C   0  0  0  0  0  0  0  0  0  0  0  0
   -1.5492    2.3345    5.2672 H   0  0  0  0  0  0  0  0  0  0  0  0
   -2.4815    0.8608    5.5990 H   0  0  0  0  0  0  0  0  0  0  0  0
   -0.9059    1.2286    6.9203 N   0  0  0  0  0  0  0  0  0  0  0  0
   -1.4885    1.7564    7.5536 H   0  0  0  0  0  0  0  0  0  0  0  0
   -0.8707    0.2650    7.2210 H   0  0  0  0  0  0  0  0  0  0  0  0
   -0.0572   -0.7220   -0.3218 C   0  0  0  0  0  0  0  0  0  0  0  0
    0.3537   -0.0117   -1.2370 O   0  0  0  0  0  0  0  0  0  0  0  0
    0.2932   -2.0067   -0.1903 N   0  0  0  0  0  0  0  0  0  0  0  0
   -0.0746   -2.5179    0.5952 H   0  0  0  0  0  0  0  0  0  0  0  0
    1.1890   -2.7065   -1.1099 C   0  0  0  0  0  0  0  0  0  0  0  0
    2.1331   -2.1632   -1.1905 H   0  0  0  0  0  0  0  0  0  0  0  0
    1.3853   -3.7183   -0.7523 H   0  0  0  0  0  0  0  0  0  0  0  0
    0.7326   -2.7556   -2.1007 H   0  0  0  0  0  0  0  0  0  0  0  0
  5  6  2  0  0  0  0
  5  7  1  0  0  0  0
  2  3  1  0  0  0  0
  2  4  1  0  0  0  0
  2  5  1  0  0  0  0
  1  2  1  0  0  0  0
 26 27  2  0  0  0  0
 26 28  1  0  0  0  0
 23 24  1  0  0  0  0
 23 25  1  0  0  0  0
 20 21  1  0  0  0  0
 20 22  1  0  0  0  0
 20 23  1  0  0  0  0
 17 18  1  0  0  0  0
 17 19  1  0  0  0  0
 17 20  1  0  0  0  0
 14 15  1  0  0  0  0
 14 16  1  0  0  0  0
 14 17  1  0  0  0  0
 11 12  1  0  0  0  0
 11 13  1  0  0  0  0
 11 14  1  0  0  0  0
  9 10  1  0  0  0  0
  9 11  1  0  0  0  0
  9 26  1  0  0  0  0
  7  8  1  0  0  0  0
  7  9  1  0  0  0  0
 30 31  1  0  0  0  0
 30 32  1  0  0  0  0
 30 33  1  0  0  0  0
 28 29  1  0  0  0  0
 28 30  1  0  0  0  0
M  END
$$$$
default_name
  -OEChem-01062215323D

 33 32  0     1  0  0  0  0  0999 V2000
   -3.8420   -3.6918    1.5562 H   0  0  0  0  0  0  0  0  0  0  0  0
   -3.8430   -2.7008    1.1032 C   0  0  0  0  0  0  0  0  0  0  0  0
   -4.5510   -2.0608    1.6242 H   0  0  0  0  0  0  0  0  0  0  0  0
   -4.1140   -2.7798    0.0522 H   0  0  0  0  0  0  0  0  0  0  0  0
   -2.4570   -2.1098    1.2172 C   0  0  0  0  0  0  0  0  0  0  0  0
   -1.5600   -2.7438    1.7572 O   0  0  0  0  0  0  0  0  0  0  0  0
   -2.2870   -0.8898    0.7102 N   0  0  0  0  0  0  0  0  0  0  0  0
   -3.0820   -0.4218    0.2992 H   0  0  0  0  0  0  0  0  0  0  0  0
   -1.0240   -0.1468    0.7262 C   0  0  1  0  0  0  0  0  0  0  0  0
   -1.2302    0.8933    0.4698 H   0  0  0  0  0  0  0  0  0  0  0  0
   -0.4385   -0.1969    2.1508 C   0  0  0  0  0  0  0  0  0  0  0  0
   -0.3973   -1.2395    2.4726 H   0  0  0  0  0  0  0  0  0  0  0  0
    0.5795    0.1951    2.1353 H   0  0  0  0  0  0  0  0  0  0  0  0
   -1.2684    0.5895    3.1775 C   0  0  0  0  0  0  0  0  0  0  0  0
   -1.3356    1.6338    2.8711 H   0  0  0  0  0  0  0  0  0  0  0  0
   -2.2733    0.1661    3.2267 H   0  0  0  0  0  0  0  0  0  0  0  0
   -0.6251    0.5237    4.5673 C   0  0  0  0  0  0  0  0  0  0  0  0
   -0.5437   -0.5164    4.8846 H   0  0  0  0  0  0  0  0  0  0  0  0
    0.3702    0.9674    4.5285 H   0  0  0  0  0  0  0  0  0  0  0  0
   -1.4819    1.2914    5.5720 C   0  0  0  0  0  0  0  0  0  0  0  0
   -1.5492    2.3345    5.2672 H   0  0  0  0  0  0  0  0  0  0  0  0
   -2.4815    0.8608    5.5990 H   0  0  0  0  0  0  0  0  0  0  0  0
   -0.9059    1.2286    6.9203 N   0  0  0  0  0  0  0  0  0  0  0  0
   -1.4885    1.7564    7.5536 H   0  0  0  0  0  0  0  0  0  0  0  0
   -0.8707    0.2650    7.2210 H   0  0  0  0  0  0  0  0  0  0  0  0
   -0.0572   -0.7220   -0.3218 C   0  0  0  0  0  0  0  0  0  0  0  0
    0.5669    0.0326   -1.0648 O   0  0  0  0  0  0  0  0  0  0  0  0
    0.0550   -2.0539   -0.3841 N   0  0  0  0  0  0  0  0  0  0  0  0
   -0.4788   -2.6034    0.2691 H   0  0  0  0  0  0  0  0  0  0  0  0
    0.9169   -2.7568   -1.3332 C   0  0  0  0  0  0  0  0  0  0  0  0
    1.9420   -2.3911   -1.2416 H   0  0  0  0  0  0  0  0  0  0  0  0
    0.8989   -3.8302   -1.1395 H   0  0  0  0  0  0  0  0  0  0  0  0
    0.5721   -2.5676   -2.3519 H   0  0  0  0  0  0  0  0  0  0  0  0
  5  6  2  0  0  0  0
  5  7  1  0  0  0  0
  2  3  1  0  0  0  0
  2  4  1  0  0  0  0
  2  5  1  0  0  0  0
  1  2  1  0  0  0  0
 26 27  2  0  0  0  0
 26 28  1  0  0  0  0
 23 24  1  0  0  0  0
 23 25  1  0  0  0  0
 20 21  1  0  0  0  0
 20 22  1  0  0  0  0
 20 23  1  0  0  0  0
 17 18  1  0  0  0  0
 17 19  1  0  0  0  0
 17 20  1  0  0  0  0
 14 15  1  0  0  0  0
 14 16  1  0  0  0  0
 14 17  1  0  0  0  0
 11 12  1  0  0  0  0
 11 13  1  0  0  0  0
 11 14  1  0  0  0  0
  9 10  1  0  0  0  0
  9 11  1  0  0  0  0
  9 26  1  0  0  0  0
  7  8  1  0  0  0  0
  7  9  1  0  0  0  0
 30 31  1  0  0  0  0
 30 32  1  0  0  0  0
 30 33  1  0  0  0  0
 28 29  1  0  0  0  0
 28 30  1  0  0  0  0
M  END
$$$$
default_name
  -OEChem-01062215323D

 33 32  0     1  0  0  0  0  0999 V2000
   -3.8420   -3.6918    1.5562 H   0  0  0  0  0  0  0  0  0  0  0  0
   -3.8430   -2.7008    1.1032 C   0  0  0  0  0  0  0  0  0  0  0  0
   -4.5510   -2.0608    1.6242 H   0  0  0  0  0  0  0  0  0  0  0  0
   -4.1140   -2.7798    0.0522 H   0  0  0  0  0  0  0  0  0  0  0  0
   -2.4570   -2.1098    1.2172 C   0  0  0  0  0  0  0  0  0  0  0  0
   -1.5600   -2.7438    1.7572 O   0  0  0  0  0  0  0  0  0  0  0  0
   -2.2870   -0.8898    0.7102 N   0  0  0  0  0  0  0  0  0  0  0  0
   -3.0820   -0.4218    0.2992 H   0  0  0  0  0  0  0  0  0  0  0  0
   -1.0240   -0.1468    0.7262 C   0  0  1  0  0  0  0  0  0  0  0  0
   -1.2302    0.8933    0.4698 H   0  0  0  0  0  0  0  0  0  0  0  0
   -0.4385   -0.1969    2.1508 C   0  0  0  0  0  0  0  0  0  0  0  0
   -0.3973   -1.2395    2.4726 H   0  0  0  0  0  0  0  0  0  0  0  0
    0.5795    0.1951    2.1353 H   0  0  0  0  0  0  0  0  0  0  0  0
   -1.2684    0.5895    3.1775 C   0  0  0  0  0  0  0  0  0  0  0  0
   -1.3356    1.6338    2.8711 H   0  0  0  0  0  0  0  0  0  0  0  0
   -2.2733    0.1661    3.2267 H   0  0  0  0  0  0  0  0  0  0  0  0
   -0.6251    0.5237    4.5673 C   0  0  0  0  0  0  0  0  0  0  0  0
   -0.5437   -0.5164    4.8846 H   0  0  0  0  0  0  0  0  0  0  0  0
    0.3702    0.9674    4.5285 H   0  0  0  0  0  0  0  0  0  0  0  0
   -1.4819    1.2914    5.5720 C   0  0  0  0  0  0  0  0  0  0  0  0
   -1.5492    2.3345    5.2672 H   0  0  0  0  0  0  0  0  0  0  0  0
   -2.4815    0.8608    5.5990 H   0  0  0  0  0  0  0  0  0  0  0  0
   -0.9059    1.2286    6.9203 N   0  0  0  0  0  0  0  0  0  0  0  0
   -1.4885    1.7564    7.5536 H   0  0  0  0  0  0  0  0  0  0  0  0
   -0.8707    0.2650    7.2210 H   0  0  0  0  0  0  0  0  0  0  0  0
   -0.0572   -0.7220   -0.3218 C   0  0  0  0  0  0  0  0  0  0  0  0
    0.7639    0.0098   -0.8705 O   0  0  0  0  0  0  0  0  0  0  0  0
   -0.1647   -2.0260   -0.6021 N   0  0  0  0  0  0  0  0  0  0  0  0
   -0.8528   -2.5615   -0.0988 H   0  0  0  0  0  0  0  0  0  0  0  0
    0.6669   -2.7210   -1.5835 C   0  0  0  0  0  0  0  0  0  0  0  0
    1.7223   -2.5692   -1.3465 H   0  0  0  0  0  0  0  0  0  0  0  0
    0.4469   -3.7895   -1.5788 H   0  0  0  0  0  0  0  0  0  0  0  0
    0.4746   -2.3169   -2.5795 H   0  0  0  0  0  0  0  0  0  0  0  0
  5  6  2  0  0  0  0
  5  7  1  0  0  0  0
  2  3  1  0  0  0  0
  2  4  1  0  0  0  0
  2  5  1  0  0  0  0
  1  2  1  0  0  0  0
 26 27  2  0  0  0  0
 26 28  1  0  0  0  0
 23 24  1  0  0  0  0
 23 25  1  0  0  0  0
 20 21  1  0  0  0  0
 20 22  1  0  0  0  0
 20 23  1  0  0  0  0
 17 18  1  0  0  0  0
 17 19  1  0  0  0  0
 17 20  1  0  0  0  0
 14 15  1  0  0  0  0
 14 16  1  0  0  0  0
 14 17  1  0  0  0  0
 11 12  1  0  0  0  0
 11 13  1  0  0  0  0
 11 14  1  0  0  0  0
  9 10  1  0  0  0  0
  9 11  1  0  0  0  0
  9 26  1  0  0  0  0
  7  8  1  0  0  0  0
  7  9  1  0  0  0  0
 30 31  1  0  0  0  0
 30 32  1  0  0  0  0
 30 33  1  0  0  0  0
 28 29  1  0  0  0  0
 28 30  1  0  0  0  0
M  END
$$$$
default_name
  -OEChem-01062215323D

 33 32  0     1  0  0  0  0  0999 V2000
   -3.8420   -3.6918    1.5562 H   0  0  0  0  0  0  0  0  0  0  0  0
   -3.8430   -2.7008    1.1032 C   0  0  0  0  0  0  0  0  0  0  0  0
   -4.5510   -2.0608    1.6242 H   0  0  0  0  0  0  0  0  0  0  0  0
   -4.1140   -2.7798    0.0522 H   0  0  0  0  0  0  0  0  0  0  0  0
   -2.4570   -2.1098    1.2172 C   0  0  0  0  0  0  0  0  0  0  0  0
   -1.5600   -2.7438    1.7572 O   0  0  0  0  0  0  0  0  0  0  0  0
   -2.2870   -0.8898    0.7102 N   0  0  0  0  0  0  0  0  0  0  0  0
   -3.0820   -0.4218    0.2992 H   0  0  0  0  0  0  0  0  0  0  0  0
   -1.0240   -0.1468    0.7262 C   0  0  1  0  0  0  0  0  0  0  0  0
   -1.2302    0.8933    0.4698 H   0  0  0  0  0  0  0  0  0  0  0  0
   -0.4385   -0.1969    2.1508 C   0  0  0  0  0  0  0  0  0  0  0  0
   -0.3973   -1.2395    2.4726 H   0  0  0  0  0  0  0  0  0  0  0  0
    0.5795    0.1951    2.1353 H   0  0  0  0  0  0  0  0  0  0  0  0
   -1.2684    0.5895    3.1775 C   0  0  0  0  0  0  0  0  0  0  0  0
   -1.3356    1.6338    2.8711 H   0  0  0  0  0  0  0  0  0  0  0  0
   -2.2733    0.1661    3.2267 H   0  0  0  0  0  0  0  0  0  0  0  0
   -0.6251    0.5237    4.5673 C   0  0  0  0  0  0  0  0  0  0  0  0
   -0.5437   -0.5164    4.8846 H   0  0  0  0  0  0  0  0  0  0  0  0
    0.3702    0.9674    4.5285 H   0  0  0  0  0  0  0  0  0  0  0  0
   -1.4819    1.2914    5.5720 C   0  0  0  0  0  0  0  0  0  0  0  0
   -1.5492    2.3345    5.2672 H   0  0  0  0  0  0  0  0  0  0  0  0
   -2.4815    0.8608    5.5990 H   0  0  0  0  0  0  0  0  0  0  0  0
   -0.9059    1.2286    6.9203 N   0  0  0  0  0  0  0  0  0  0  0  0
   -1.4885    1.7564    7.5536 H   0  0  0  0  0  0  0  0  0  0  0  0
   -0.8707    0.2650    7.2210 H   0  0  0  0  0  0  0  0  0  0  0  0
   -0.0572   -0.7220   -0.3218 C   0  0  0  0  0  0  0  0  0  0  0  0
    0.9314   -0.0785   -0.6675 O   0  0  0  0  0  0  0  0  0  0  0  0
   -0.3508   -1.9248   -0.8293 N   0  0  0  0  0  0  0  0  0  0  0  0
   -1.1711   -2.3952   -0.4837 H   0  0  0  0  0  0  0  0  0  0  0  0
    0.4560   -2.6016   -1.8436 C   0  0  0  0  0  0  0  0  0  0  0  0
    1.4887   -2.6855   -1.4982 H   0  0  0  0  0  0  0  0  0  0  0  0
    0.0600   -3.5990   -2.0403 H   0  0  0  0  0  0  0  0  0  0  0  0
    0.4466   -2.0204   -2.7680 H   0  0  0  0  0  0  0  0  0  0  0  0
  5  6  2  0  0  0  0
  5  7  1  0  0  0  0
  2  3  1  0  0  0  0
  2  4  1  0  0  0  0
  2  5  1  0  0  0  0
  1  2  1  0  0  0  0
 26 27  2  0  0  0  0
 26 28  1  0  0  0  0
 23 24  1  0  0  0  0
 23 25  1  0  0  0  0
 20 21  1  0  0  0  0
 20 22  1  0  0  0  0
 20 23  1  0  0  0  0
 17 18  1  0  0  0  0
 17 19  1  0  0  0  0
 17 20  1  0  0  0  0
 14 15  1  0  0  0  0
 14 16  1  0  0  0  0
 14 17  1  0  0  0  0
 11 12  1  0  0  0  0
 11 13  1  0  0  0  0
 11 14  1  0  0  0  0
  9 10  1  0  0  0  0
  9 11  1  0  0  0  0
  9 26  1  0  0  0  0
  7  8  1  0  0  0  0
  7  9  1  0  0  0  0
 30 31  1  0  0  0  0
 30 32  1  0  0  0  0
 30 33  1  0  0  0  0
 28 29  1  0  0  0  0
 28 30  1  0  0  0  0
M  END
$$$$
default_name
  -OEChem-01062215323D

 33 32  0     1  0  0  0  0  0999 V2000
   -3.8420   -3.6918    1.5562 H   0  0  0  0  0  0  0  0  0  0  0  0
   -3.8430   -2.7008    1.1032 C   0  0  0  0  0  0  0  0  0  0  0  0
   -4.5510   -2.0608    1.6242 H   0  0  0  0  0  0  0  0  0  0  0  0
   -4.1140   -2.7798    0.0522 H   0  0  0  0  0  0  0  0  0  0  0  0
   -2.4570   -2.1098    1.2172 C   0  0  0  0  0  0  0  0  0  0  0  0
   -1.5600   -2.7438    1.7572 O   0  0  0  0  0  0  0  0  0  0  0  0
   -2.2870   -0.8898    0.7102 N   0  0  0  0  0  0  0  0  0  0  0  0
   -3.0820   -0.4218    0.2992 H   0  0  0  0  0  0  0  0  0  0  0  0
   -1.0240   -0.1468    0.7262 C   0  0  1  0  0  0  0  0  0  0  0  0
   -1.2302    0.8933    0.4698 H   0  0  0  0  0  0  0  0  0  0  0  0
   -0.4385   -0.1969    2.1508 C   0  0  0  0  0  0  0  0  0  0  0  0
   -0.3973   -1.2395    2.4726 H   0  0  0  0  0  0  0  0  0  0  0  0
    0.5795    0.1951    2.1353 H   0  0  0  0  0  0  0  0  0  0  0  0
   -1.2684    0.5895    3.1775 C   0  0  0  0  0  0  0  0  0  0  0  0
   -1.3356    1.6338    2.8711 H   0  0  0  0  0  0  0  0  0  0  0  0
   -2.2733    0.1661    3.2267 H   0  0  0  0  0  0  0  0  0  0  0  0
   -0.6251    0.5237    4.5673 C   0  0  0  0  0  0  0  0  0  0  0  0
   -0.5437   -0.5164    4.8846 H   0  0  0  0  0  0  0  0  0  0  0  0
    0.3702    0.9674    4.5285 H   0  0  0  0  0  0  0  0  0  0  0  0
   -1.4819    1.2914    5.5720 C   0  0  0  0  0  0  0  0  0  0  0  0
   -1.5492    2.3345    5.2672 H   0  0  0  0  0  0  0  0  0  0  0  0
   -2.4815    0.8608    5.5990 H   0  0  0  0  0  0  0  0  0  0  0  0
   -0.9059    1.2286    6.9203 N   0  0  0  0  0  0  0  0  0  0  0  0
   -1.4885    1.7564    7.5536 H   0  0  0  0  0  0  0  0  0  0  0  0
   -0.8707    0.2650    7.2210 H   0  0  0  0  0  0  0  0  0  0  0  0
   -0.0572   -0.7220   -0.3218 C   0  0  0  0  0  0  0  0  0  0  0  0
    1.0579   -0.2265   -0.4696 O   0  0  0  0  0  0  0  0  0  0  0  0
   -0.4908   -1.7572   -1.0504 N   0  0  0  0  0  0  0  0  0  0  0  0
   -1.4119   -2.1158   -0.8592 H   0  0  0  0  0  0  0  0  0  0  0  0
    0.2984   -2.4068   -2.0959 C   0  0  0  0  0  0  0  0  0  0  0  0
    1.2573   -2.7318   -1.6862 H   0  0  0  0  0  0  0  0  0  0  0  0
   -0.2354   -3.2716   -2.4925 H   0  0  0  0  0  0  0  0  0  0  0  0
    0.4902   -1.6985   -2.9046 H   0  0  0  0  0  0  0  0  0  0  0  0
  5  6  2  0  0  0  0
  5  7  1  0  0  0  0
  2  3  1  0  0  0  0
  2  4  1  0  0  0  0
  2  5  1  0  0  0  0
  1  2  1  0  0  0  0
 26 27  2  0  0  0  0
 26 28  1  0  0  0  0
 23 24  1  0  0  0  0
 23 25  1  0  0  0  0
 20 21  1  0  0  0  0
 20 22  1  0  0  0  0
 20 23  1  0  0  0  0
 17 18  1  0  0  0  0
 17 19  1  0  0  0  0
 17 20  1  0  0  0  0
 14 15  1  0  0  0  0
 14 16  1  0  0  0  0
 14 17  1  0  0  0  0
 11 12  1  0  0  0  0
 11 13  1  0  0  0  0
 11 14  1  0  0  0  0
  9 10  1  0  0  0  0
  9 11  1  0  0  0  0
  9 26  1  0  0  0  0
  7  8  1  0  0  0  0
  7  9  1  0  0  0  0
 30 31  1  0  0  0  0
 30 32  1  0  0  0  0
 30 33  1  0  0  0  0
 28 29  1  0  0  0  0
 28 30  1  0  0  0  0
M  END
$$$$
default_name
  -OEChem-01062215323D

 33 32  0     1  0  0  0  0  0999 V2000
   -3.8420   -3.6918    1.5562 H   0  0  0  0  0  0  0  0  0  0  0  0
   -3.8430   -2.7008    1.1032 C   0  0  0  0  0  0  0  0  0  0  0  0
   -4.5510   -2.0608    1.6242 H   0  0  0  0  0  0  0  0  0  0  0  0
   -4.1140   -2.7798    0.0522 H   0  0  0  0  0  0  0  0  0  0  0  0
   -2.4570   -2.1098    1.2172 C   0  0  0  0  0  0  0  0  0  0  0  0
   -1.5600   -2.7438    1.7572 O   0  0  0  0  0  0  0  0  0  0  0  0
   -2.2870   -0.8898    0.7102 N   0  0  0  0  0  0  0  0  0  0  0  0
   -3.0820   -0.4218    0.2992 H   0  0  0  0  0  0  0  0  0  0  0  0
   -1.0240   -0.1468    0.7262 C   0  0  1  0  0  0  0  0  0  0  0  0
   -1.2302    0.8933    0.4698 H   0  0  0  0  0  0  0  0  0  0  0  0
   -0.4385   -0.1969    2.1508 C   0  0  0  0  0  0  0  0  0  0  0  0
   -0.3973   -1.2395    2.4726 H   0  0  0  0  0  0  0  0  0  0  0  0
    0.5795    0.1951    2.1353 H   0  0  0  0  0  0  0  0  0  0  0  0
   -1.2684    0.5895    3.1775 C   0  0  0  0  0  0  0  0  0  0  0  0
   -1.3356    1.6338    2.8711 H   0  0  0  0  0  0  0  0  0  0  0  0
   -2.2733    0.1661    3.2267 H   0  0  0  0  0  0  0  0  0  0  0  0
   -0.6251    0.5237    4.5673 C   0  0  0  0  0  0  0  0  0  0  0  0
   -0.5437   -0.5164    4.8846 H   0  0  0  0  0  0  0  0  0  0  0  0
    0.3702    0.9674    4.5285 H   0  0  0  0  0  0  0  0  0  0  0  0
   -1.4819    1.2914    5.5720 C   0  0  0  0  0  0  0  0  0  0  0  0
   -1.5492    2.3345    5.2672 H   0  0  0  0  0  0  0  0  0  0  0  0
   -2.4815    0.8608    5.5990 H   0  0  0  0  0  0  0  0  0  0  0  0
   -0.9059    1.2286    6.9203 N   0  0  0  0  0  0  0  0  0  0  0  0
   -1.4885    1.7564    7.5536 H   0  0  0  0  0  0  0  0  0  0  0  0
   -0.8707    0.2650    7.2210 H   0  0  0  0  0  0  0  0  0  0  0  0
   -0.0572   -0.7220   -0.3218 C   0  0  0  0  0  0  0  0  0  0  0  0
    1.1349   -0.4239   -0.2902 O   0  0  0  0  0  0  0  0  0  0  0  0
   -0.5750   -1.5347   -1.2502 N   0  0  0  0  0  0  0  0  0  0  0  0
   -1.5588   -1.7423   -1.1997 H   0  0  0  0  0  0  0  0  0  0  0  0
    0.2051   -2.1497   -2.3231 C   0  0  0  0  0  0  0  0  0  0  0  0
    1.0438   -2.7052   -1.8977 H   0  0  0  0  0  0  0  0  0  0  0  0
   -0.4192   -2.8296   -2.9046 H   0  0  0  0  0  0  0  0  0  0  0  0
    0.6023   -1.3729   -2.9798 H   0  0  0  0  0  0  0  0  0  0  0  0
  5  6  2  0  0  0  0
  5  7  1  0  0  0  0
  2  3  1  0  0  0  0
  2  4  1  0  0  0  0
  2  5  1  0  0  0  0
  1  2  1  0  0  0  0
 26 27  2  0  0  0  0
 26 28  1  0  0  0  0
 23 24  1  0  0  0  0
 23 25  1  0  0  0  0
 20 21  1  0  0  0  0
 20 22  1  0  0  0  0
 20 23  1  0  0  0  0
 17 18  1  0  0  0  0
 17 19  1  0  0  0  0
 17 20  1  0  0  0  0
 14 15  1  0  0  0  0
 14 16  1  0  0  0  0
 14 17  1  0  0  0  0
 11 12  1  0  0  0  0
 11 13  1  0  0  0  0
 11 14  1  0  0  0  0
  9 10  1  0  0  0  0
  9 11  1  0  0  0  0
  9 26  1  0  0  0  0
  7  8  1  0  0  0  0
  7  9  1  0  0  0  0
 30 31  1  0  0  0  0
 30 32  1  0  0  0  0
 30 33  1  0  0  0  0
 28 29  1  0  0  0  0
 28 30  1  0  0  0  0
M  END
$$$$
default_name
  -OEChem-01062215323D

 33 32  0     1  0  0  0  0  0999 V2000
   -3.8420   -3.6918    1.5562 H   0  0  0  0  0  0  0  0  0  0  0  0
   -3.8430   -2.7008    1.1032 C   0  0  0  0  0  0  0  0  0  0  0  0
   -4.5510   -2.0608    1.6242 H   0  0  0  0  0  0  0  0  0  0  0  0
   -4.1140   -2.7798    0.0522 H   0  0  0  0  0  0  0  0  0  0  0  0
   -2.4570   -2.1098    1.2172 C   0  0  0  0  0  0  0  0  0  0  0  0
   -1.5600   -2.7438    1.7572 O   0  0  0  0  0  0  0  0  0  0  0  0
   -2.2870   -0.8898    0.7102 N   0  0  0  0  0  0  0  0  0  0  0  0
   -3.0820   -0.4218    0.2992 H   0  0  0  0  0  0  0  0  0  0  0  0
   -1.0240   -0.1468    0.7262 C   0  0  1  0  0  0  0  0  0  0  0  0
   -1.2302    0.8933    0.4698 H   0  0  0  0  0  0  0  0  0  0  0  0
   -0.4385   -0.1969    2.1508 C   0  0  0  0  0  0  0  0  0  0  0  0
   -0.3973   -1.2395    2.4726 H   0  0  0  0  0  0  0  0  0  0  0  0
    0.5795    0.1951    2.1353 H   0  0  0  0  0  0  0  0  0  0  0  0
   -1.2684    0.5895    3.1775 C   0  0  0  0  0  0  0  0  0  0  0  0
   -1.3356    1.6338    2.8711 H   0  0  0  0  0  0  0  0  0  0  0  0
   -2.2733    0.1661    3.2267 H   0  0  0  0  0  0  0  0  0  0  0  0
   -0.6251    0.5237    4.5673 C   0  0  0  0  0  0  0  0  0  0  0  0
   -0.5437   -0.5164    4.8846 H   0  0  0  0  0  0  0  0  0  0  0  0
    0.3702    0.9674    4.5285 H   0  0  0  0  0  0  0  0  0  0  0  0
   -1.4819    1.2914    5.5720 C   0  0  0  0  0  0  0  0  0  0  0  0
   -1.5492    2.3345    5.2672 H   0  0  0  0  0  0  0  0  0  0  0  0
   -2.4815    0.8608    5.5990 H   0  0  0  0  0  0  0  0  0  0  0  0
   -0.9059    1.2286    6.9203 N   0  0  0  0  0  0  0  0  0  0  0  0
   -1.4885    1.7564    7.5536 H   0  0  0  0  0  0  0  0  0  0  0  0
   -0.8707    0.2650    7.2210 H   0  0  0  0  0  0  0  0  0  0  0  0
   -0.0572   -0.7220   -0.3218 C   0  0  0  0  0  0  0  0  0  0  0  0
    1.1570   -0.6574   -0.1417 O   0  0  0  0  0  0  0  0  0  0  0  0
   -0.5977   -1.2724   -1.4152 N   0  0  0  0  0  0  0  0  0  0  0  0
   -1.6019   -1.3003   -1.4821 H   0  0  0  0  0  0  0  0  0  0  0  0
    0.1823   -1.8479   -2.5098 C   0  0  0  0  0  0  0  0  0  0  0  0
    0.8628   -2.6074   -2.1184 H   0  0  0  0  0  0  0  0  0  0  0  0
   -0.4788   -2.3032   -3.2486 H   0  0  0  0  0  0  0  0  0  0  0  0
    0.7753   -1.0660   -2.9887 H   0  0  0  0  0  0  0  0  0  0  0  0
  5  6  2  0  0  0  0
  5  7  1  0  0  0  0
  2  3  1  0  0  0  0
  2  4  1  0  0  0  0
  2  5  1  0  0  0  0
  1  2  1  0  0  0  0
 26 27  2  0  0  0  0
 26 28  1  0  0  0  0
 23 24  1  0  0  0  0
 23 25  1  0  0  0  0
 20 21  1  0  0  0  0
 20 22  1  0  0  0  0
 20 23  1  0  0  0  0
 17 18  1  0  0  0  0
 17 19  1  0  0  0  0
 17 20  1  0  0  0  0
 14 15  1  0  0  0  0
 14 16  1  0  0  0  0
 14 17  1  0  0  0  0
 11 12  1  0  0  0  0
 11 13  1  0  0  0  0
 11 14  1  0  0  0  0
  9 10  1  0  0  0  0
  9 11  1  0  0  0  0
  9 26  1  0  0  0  0
  7  8  1  0  0  0  0
  7  9  1  0  0  0  0
 30 31  1  0  0  0  0
 30 32  1  0  0  0  0
 30 33  1  0  0  0  0
 28 29  1  0  0  0  0
 28 30  1  0  0  0  0
M  END
$$$$
default_name
  -OEChem-01062215323D

 33 32  0     1  0  0  0  0  0999 V2000
   -3.8420   -3.6918    1.5562 H   0  0  0  0  0  0  0  0  0  0  0  0
   -3.8430   -2.7008    1.1032 C   0  0  0  0  0  0  0  0  0  0  0  0
   -4.5510   -2.0608    1.6242 H   0  0  0  0  0  0  0  0  0  0  0  0
   -4.1140   -2.7798    0.0522 H   0  0  0  0  0  0  0  0  0  0  0  0
   -2.4570   -2.1098    1.2172 C   0  0  0  0  0  0  0  0  0  0  0  0
   -1.5600   -2.7438    1.7572 O   0  0  0  0  0  0  0  0  0  0  0  0
   -2.2870   -0.8898    0.7102 N   0  0  0  0  0  0  0  0  0  0  0  0
   -3.0820   -0.4218    0.2992 H   0  0  0  0  0  0  0  0  0  0  0  0
   -1.0240   -0.1468    0.7262 C   0  0  1  0  0  0  0  0  0  0  0  0
   -1.2302    0.8933    0.4698 H   0  0  0  0  0  0  0  0  0  0  0  0
   -0.4385   -0.1969    2.1508 C   0  0  0  0  0  0  0  0  0  0  0  0
   -0.3973   -1.2395    2.4726 H   0  0  0  0  0  0  0  0  0  0  0  0
    0.5795    0.1951    2.1353 H   0  0  0  0  0  0  0  0  0  0  0  0
   -1.2684    0.5895    3.1775 C   0  0  0  0  0  0  0  0  0  0  0  0
   -1.3356    1.6338    2.8711 H   0  0  0  0  0  0  0  0  0  0  0  0
   -2.2733    0.1661    3.2267 H   0  0  0  0  0  0  0  0  0  0  0  0
   -0.6251    0.5237    4.5673 C   0  0  0  0  0  0  0  0  0  0  0  0
   -0.5437   -0.5164    4.8846 H   0  0  0  0  0  0  0  0  0  0  0  0
    0.3702    0.9674    4.5285 H   0  0  0  0  0  0  0  0  0  0  0  0
   -1.4819    1.2914    5.5720 C   0  0  0  0  0  0  0  0  0  0  0  0
   -1.5492    2.3345    5.2672 H   0  0  0  0  0  0  0  0  0  0  0  0
   -2.4815    0.8608    5.5990 H   0  0  0  0  0  0  0  0  0  0  0  0
   -0.9059    1.2286    6.9203 N   0  0  0  0  0  0  0  0  0  0  0  0
   -1.4885    1.7564    7.5536 H   0  0  0  0  0  0  0  0  0  0  0  0
   -0.8707    0.2650    7.2210 H   0  0  0  0  0  0  0  0  0  0  0  0
   -0.0572   -0.7220   -0.3218 C   0  0  0  0  0  0  0  0  0  0  0  0
    1.1228   -0.9110   -0.0340 O   0  0  0  0  0  0  0  0  0  0  0  0
   -0.5574   -0.9881   -1.5340 N   0  0  0  0  0  0  0  0  0  0  0  0
   -1.5381   -0.8197   -1.6871 H   0  0  0  0  0  0  0  0  0  0  0  0
    0.2316   -1.5221   -2.6432 C   0  0  0  0  0  0  0  0  0  0  0  0
    0.7265   -2.4450   -2.3332 H   0  0  0  0  0  0  0  0  0  0  0  0
   -0.4103   -1.7283   -3.5009 H   0  0  0  0  0  0  0  0  0  0  0  0
    0.9974   -0.7987   -2.9306 H   0  0  0  0  0  0  0  0  0  0  0  0
  5  6  2  0  0  0  0
  5  7  1  0  0  0  0
  2  3  1  0  0  0  0
  2  4  1  0  0  0  0
  2  5  1  0  0  0  0
  1  2  1  0  0  0  0
 26 27  2  0  0  0  0
 26 28  1  0  0  0  0
 23 24  1  0  0  0  0
 23 25  1  0  0  0  0
 20 21  1  0  0  0  0
 20 22  1  0  0  0  0
 20 23  1  0  0  0  0
 17 18  1  0  0  0  0
 17 19  1  0  0  0  0
 17 20  1  0  0  0  0
 14 15  1  0  0  0  0
 14 16  1  0  0  0  0
 14 17  1  0  0  0  0
 11 12  1  0  0  0  0
 11 13  1  0  0  0  0
 11 14  1  0  0  0  0
  9 10  1  0  0  0  0
  9 11  1  0  0  0  0
  9 26  1  0  0  0  0
  7  8  1  0  0  0  0
  7  9  1  0  0  0  0
 30 31  1  0  0  0  0
 30 32  1  0  0  0  0
 30 33  1  0  0  0  0
 28 29  1  0  0  0  0
 28 30  1  0  0  0  0
M  END
$$$$
default_name
  -OEChem-01062215323D

 33 32  0     1  0  0  0  0  0999 V2000
   -3.8420   -3.6918    1.5562 H   0  0  0  0  0  0  0  0  0  0  0  0
   -3.8430   -2.7008    1.1032 C   0  0  0  0  0  0  0  0  0  0  0  0
   -4.5510   -2.0608    1.6242 H   0  0  0  0  0  0  0  0  0  0  0  0
   -4.1140   -2.7798    0.0522 H   0  0  0  0  0  0  0  0  0  0  0  0
   -2.4570   -2.1098    1.2172 C   0  0  0  0  0  0  0  0  0  0  0  0
   -1.5600   -2.7438    1.7572 O   0  0  0  0  0  0  0  0  0  0  0  0
   -2.2870   -0.8898    0.7102 N   0  0  0  0  0  0  0  0  0  0  0  0
   -3.0820   -0.4218    0.2992 H   0  0  0  0  0  0  0  0  0  0  0  0
   -1.0240   -0.1468    0.7262 C   0  0  1  0  0  0  0  0  0  0  0  0
   -1.2302    0.8933    0.4698 H   0  0  0  0  0  0  0  0  0  0  0  0
   -0.4385   -0.1969    2.1508 C   0  0  0  0  0  0  0  0  0  0  0  0
   -0.3973   -1.2395    2.4726 H   0  0  0  0  0  0  0  0  0  0  0  0
    0.5795    0.1951    2.1353 H   0  0  0  0  0  0  0  0  0  0  0  0
   -1.2684    0.5895    3.1775 C   0  0  0  0  0  0  0  0  0  0  0  0
   -1.3356    1.6338    2.8711 H   0  0  0  0  0  0  0  0  0  0  0  0
   -2.2733    0.1661    3.2267 H   0  0  0  0  0  0  0  0  0  0  0  0
   -0.6251    0.5237    4.5673 C   0  0  0  0  0  0  0  0  0  0  0  0
   -0.5437   -0.5164    4.8846 H   0  0  0  0  0  0  0  0  0  0  0  0
    0.3702    0.9674    4.5285 H   0  0  0  0  0  0  0  0  0  0  0  0
   -1.4819    1.2914    5.5720 C   0  0  0  0  0  0  0  0  0  0  0  0
   -1.5492    2.3345    5.2672 H   0  0  0  0  0  0  0  0  0  0  0  0
   -2.4815    0.8608    5.5990 H   0  0  0  0  0  0  0  0  0  0  0  0
   -0.9059    1.2286    6.9203 N   0  0  0  0  0  0  0  0  0  0  0  0
   -1.4885    1.7564    7.5536 H   0  0  0  0  0  0  0  0  0  0  0  0
   -0.8707    0.2650    7.2210 H   0  0  0  0  0  0  0  0  0  0  0  0
   -0.0572   -0.7220   -0.3218 C   0  0  0  0  0  0  0  0  0  0  0  0
    1.0346   -1.1674    0.0254 O   0  0  0  0  0  0  0  0  0  0  0  0
   -0.4568   -0.7013   -1.5987 N   0  0  0  0  0  0  0  0  0  0  0  0
   -1.3719   -0.3334   -1.8007 H   0  0  0  0  0  0  0  0  0  0  0  0
    0.3496   -1.1943   -2.7143 C   0  0  0  0  0  0  0  0  0  0  0  0
    0.6443   -2.2292   -2.5275 H   0  0  0  0  0  0  0  0  0  0  0  0
   -0.2182   -1.1439   -3.6445 H   0  0  0  0  0  0  0  0  0  0  0  0
    1.2535   -0.5891   -2.8094 H   0  0  0  0  0  0  0  0  0  0  0  0
  5  6  2  0  0  0  0
  5  7  1  0  0  0  0
  2  3  1  0  0  0  0
  2  4  1  0  0  0  0
  2  5  1  0  0  0  0
  1  2  1  0  0  0  0
 26 27  2  0  0  0  0
 26 28  1  0  0  0  0
 23 24  1  0  0  0  0
 23 25  1  0  0  0  0
 20 21  1  0  0  0  0
 20 22  1  0  0  0  0
 20 23  1  0  0  0  0
 17 18  1  0  0  0  0
 17 19  1  0  0  0  0
 17 20  1  0  0  0  0
 14 15  1  0  0  0  0
 14 16  1  0  0  0  0
 14 17  1  0  0  0  0
 11 12  1  0  0  0  0
 11 13  1  0  0  0  0
 11 14  1  0  0  0  0
  9 10  1  0  0  0  0
  9 11  1  0  0  0  0
  9 26  1  0  0  0  0
  7  8  1  0  0  0  0
  7  9  1  0  0  0  0
 30 31  1  0  0  0  0
 30 32  1  0  0  0  0
 30 33  1  0  0  0  0
 28 29  1  0  0  0  0
 28 30  1  0  0  0  0
M  END
$$$$
default_name
  -OEChem-01062215323D

 33 32  0     1  0  0  0  0  0999 V2000
   -3.8420   -3.6918    1.5562 H   0  0  0  0  0  0  0  0  0  0  0  0
   -3.8430   -2.7008    1.1032 C   0  0  0  0  0  0  0  0  0  0  0  0
   -4.5510   -2.0608    1.6242 H   0  0  0  0  0  0  0  0  0  0  0  0
   -4.1140   -2.7798    0.0522 H   0  0  0  0  0  0  0  0  0  0  0  0
   -2.4570   -2.1098    1.2172 C   0  0  0  0  0  0  0  0  0  0  0  0
   -1.5600   -2.7438    1.7572 O   0  0  0  0  0  0  0  0  0  0  0  0
   -2.2870   -0.8898    0.7102 N   0  0  0  0  0  0  0  0  0  0  0  0
   -3.0820   -0.4218    0.2992 H   0  0  0  0  0  0  0  0  0  0  0  0
   -1.0240   -0.1468    0.7262 C   0  0  1  0  0  0  0  0  0  0  0  0
   -1.2302    0.8933    0.4698 H   0  0  0  0  0  0  0  0  0  0  0  0
   -0.4385   -0.1969    2.1508 C   0  0  0  0  0  0  0  0  0  0  0  0
   -0.3973   -1.2395    2.4726 H   0  0  0  0  0  0  0  0  0  0  0  0
    0.5795    0.1951    2.1353 H   0  0  0  0  0  0  0  0  0  0  0  0
   -1.2684    0.5895    3.1775 C   0  0  0  0  0  0  0  0  0  0  0  0
   -1.3356    1.6338    2.8711 H   0  0  0  0  0  0  0  0  0  0  0  0
   -2.2733    0.1661    3.2267 H   0  0  0  0  0  0  0  0  0  0  0  0
   -0.6251    0.5237    4.5673 C   0  0  0  0  0  0  0  0  0  0  0  0
   -0.5437   -0.5164    4.8846 H   0  0  0  0  0  0  0  0  0  0  0  0
    0.3702    0.9674    4.5285 H   0  0  0  0  0  0  0  0  0  0  0  0
   -1.4819    1.2914    5.5720 C   0  0  0  0  0  0  0  0  0  0  0  0
   -1.5492    2.3345    5.2672 H   0  0  0  0  0  0  0  0  0  0  0  0
   -2.4815    0.8608    5.5990 H   0  0  0  0  0  0  0  0  0  0  0  0
   -0.9059    1.2286    6.9203 N   0  0  0  0  0  0  0  0  0  0  0  0
   -1.4885    1.7564    7.5536 H   0  0  0  0  0  0  0  0  0  0  0  0
   -0.8707    0.2650    7.2210 H   0  0  0  0  0  0  0  0  0  0  0  0
   -0.0572   -0.7220   -0.3218 C   0  0  0  0  0  0  0  0  0  0  0  0
    0.8984   -1.4092    0.0324 O   0  0  0  0  0  0  0  0  0  0  0  0
   -0.3028   -0.4315   -1.6047 N   0  0  0  0  0  0  0  0  0  0  0  0
   -1.1146    0.1256   -1.8152 H   0  0  0  0  0  0  0  0  0  0  0  0
    0.5283   -0.8869   -2.7181 C   0  0  0  0  0  0  0  0  0  0  0  0
    0.6219   -1.9747   -2.6879 H   0  0  0  0  0  0  0  0  0  0  0  0
    0.0844   -0.5900   -3.6694 H   0  0  0  0  0  0  0  0  0  0  0  0
    1.5261   -0.4515   -2.6334 H   0  0  0  0  0  0  0  0  0  0  0  0
  5  6  2  0  0  0  0
  5  7  1  0  0  0  0
  2  3  1  0  0  0  0
  2  4  1  0  0  0  0
  2  5  1  0  0  0  0
  1  2  1  0  0  0  0
 26 27  2  0  0  0  0
 26 28  1  0  0  0  0
 23 24  1  0  0  0  0
 23 25  1  0  0  0  0
 20 21  1  0  0  0  0
 20 22  1  0  0  0  0
 20 23  1  0  0  0  0
 17 18  1  0  0  0  0
 17 19  1  0  0  0  0
 17 20  1  0  0  0  0
 14 15  1  0  0  0  0
 14 16  1  0  0  0  0
 14 17  1  0  0  0  0
 11 12  1  0  0  0  0
 11 13  1  0  0  0  0
 11 14  1  0  0  0  0
  9 10  1  0  0  0  0
  9 11  1  0  0  0  0
  9 26  1  0  0  0  0
  7  8  1  0  0  0  0
  7  9  1  0  0  0  0
 30 31  1  0  0  0  0
 30 32  1  0  0  0  0
 30 33  1  0  0  0  0
 28 29  1  0  0  0  0
 28 30  1  0  0  0  0
M  END
$$$$
default_name
  -OEChem-01062215323D

 33 32  0     1  0  0  0  0  0999 V2000
   -3.8420   -3.6918    1.5562 H   0  0  0  0  0  0  0  0  0  0  0  0
   -3.8430   -2.7008    1.1032 C   0  0  0  0  0  0  0  0  0  0  0  0
   -4.5510   -2.0608    1.6242 H   0  0  0  0  0  0  0  0  0  0  0  0
   -4.1140   -2.7798    0.0522 H   0  0  0  0  0  0  0  0  0  0  0  0
   -2.4570   -2.1098    1.2172 C   0  0  0  0  0  0  0  0  0  0  0  0
   -1.5600   -2.7438    1.7572 O   0  0  0  0  0  0  0  0  0  0  0  0
   -2.2870   -0.8898    0.7102 N   0  0  0  0  0  0  0  0  0  0  0  0
   -3.0820   -0.4218    0.2992 H   0  0  0  0  0  0  0  0  0  0  0  0
   -1.0240   -0.1468    0.7262 C   0  0  1  0  0  0  0  0  0  0  0  0
   -1.2302    0.8933    0.4698 H   0  0  0  0  0  0  0  0  0  0  0  0
   -0.4385   -0.1969    2.1508 C   0  0  0  0  0  0  0  0  0  0  0  0
   -0.3973   -1.2395    2.4726 H   0  0  0  0  0  0  0  0  0  0  0  0
    0.5795    0.1951    2.1353 H   0  0  0  0  0  0  0  0  0  0  0  0
   -1.2684    0.5895    3.1775 C   0  0  0  0  0  0  0  0  0  0  0  0
   -1.3356    1.6338    2.8711 H   0  0  0  0  0  0  0  0  0  0  0  0
   -2.2733    0.1661    3.2267 H   0  0  0  0  0  0  0  0  0  0  0  0
   -0.6251    0.5237    4.5673 C   0  0  0  0  0  0  0  0  0  0  0  0
   -0.5437   -0.5164    4.8846 H   0  0  0  0  0  0  0  0  0  0  0  0
    0.3702    0.9674    4.5285 H   0  0  0  0  0  0  0  0  0  0  0  0
   -1.4819    1.2914    5.5720 C   0  0  0  0  0  0  0  0  0  0  0  0
   -1.5492    2.3345    5.2672 H   0  0  0  0  0  0  0  0  0  0  0  0
   -2.4815    0.8608    5.5990 H   0  0  0  0  0  0  0  0  0  0  0  0
   -0.9059    1.2286    6.9203 N   0  0  0  0  0  0  0  0  0  0  0  0
   -1.4885    1.7564    7.5536 H   0  0  0  0  0  0  0  0  0  0  0  0
   -0.8707    0.2650    7.2210 H   0  0  0  0  0  0  0  0  0  0  0  0
   -0.0572   -0.7220   -0.3218 C   0  0  0  0  0  0  0  0  0  0  0  0
    0.7235   -1.6199   -0.0132 O   0  0  0  0  0  0  0  0  0  0  0  0
   -0.1059   -0.1971   -1.5517 N   0  0  0  0  0  0  0  0  0  0  0  0
   -0.7836    0.5258   -1.7296 H   0  0  0  0  0  0  0  0  0  0  0  0
    0.7555   -0.6209   -2.6545 C   0  0  0  0  0  0  0  0  0  0  0  0
    0.6606   -1.6987   -2.8037 H   0  0  0  0  0  0  0  0  0  0  0  0
    0.4767   -0.1043   -3.5741 H   0  0  0  0  0  0  0  0  0  0  0  0
    1.7966   -0.3954   -2.4147 H   0  0  0  0  0  0  0  0  0  0  0  0
  5  6  2  0  0  0  0
  5  7  1  0  0  0  0
  2  3  1  0  0  0  0
  2  4  1  0  0  0  0
  2  5  1  0  0  0  0
  1  2  1  0  0  0  0
 26 27  2  0  0  0  0
 26 28  1  0  0  0  0
 23 24  1  0  0  0  0
 23 25  1  0  0  0  0
 20 21  1  0  0  0  0
 20 22  1  0  0  0  0
 20 23  1  0  0  0  0
 17 18  1  0  0  0  0
 17 19  1  0  0  0  0
 17 20  1  0  0  0  0
 14 15  1  0  0  0  0
 14 16  1  0  0  0  0
 14 17  1  0  0  0  0
 11 12  1  0  0  0  0
 11 13  1  0  0  0  0
 11 14  1  0  0  0  0
  9 10  1  0  0  0  0
  9 11  1  0  0  0  0
  9 26  1  0  0  0  0
  7  8  1  0  0  0  0
  7  9  1  0  0  0  0
 30 31  1  0  0  0  0
 30 32  1  0  0  0  0
 30 33  1  0  0  0  0
 28 29  1  0  0  0  0
 28 30  1  0  0  0  0
M  END
$$$$
default_name
  -OEChem-01062215323D

 33 32  0     1  0  0  0  0  0999 V2000
   -3.8420   -3.6918    1.5562 H   0  0  0  0  0  0  0  0  0  0  0  0
   -3.8430   -2.7008    1.1032 C   0  0  0  0  0  0  0  0  0  0  0  0
   -4.5510   -2.0608    1.6242 H   0  0  0  0  0  0  0  0  0  0  0  0
   -4.1140   -2.7798    0.0522 H   0  0  0  0  0  0  0  0  0  0  0  0
   -2.4570   -2.1098    1.2172 C   0  0  0  0  0  0  0  0  0  0  0  0
   -1.5600   -2.7438    1.7572 O   0  0  0  0  0  0  0  0  0  0  0  0
   -2.2870   -0.8898    0.7102 N   0  0  0  0  0  0  0  0  0  0  0  0
   -3.0820   -0.4218    0.2992 H   0  0  0  0  0  0  0  0  0  0  0  0
   -1.0240   -0.1468    0.7262 C   0  0  1  0  0  0  0  0  0  0  0  0
   -1.2302    0.8933    0.4698 H   0  0  0  0  0  0  0  0  0  0  0  0
   -0.4385   -0.1969    2.1508 C   0  0  0  0  0  0  0  0  0  0  0  0
   -0.3973   -1.2395    2.4726 H   0  0  0  0  0  0  0  0  0  0  0  0
    0.5795    0.1951    2.1353 H   0  0  0  0  0  0  0  0  0  0  0  0
   -1.2684    0.5895    3.1775 C   0  0  0  0  0  0  0  0  0  0  0  0
   -1.3356    1.6338    2.8711 H   0  0  0  0  0  0  0  0  0  0  0  0
   -2.2733    0.1661    3.2267 H   0  0  0  0  0  0  0  0  0  0  0  0
   -0.6251    0.5237    4.5673 C   0  0  0  0  0  0  0  0  0  0  0  0
   -0.5437   -0.5164    4.8846 H   0  0  0  0  0  0  0  0  0  0  0  0
    0.3702    0.9674    4.5285 H   0  0  0  0  0  0  0  0  0  0  0  0
   -1.4819    1.2914    5.5720 C   0  0  0  0  0  0  0  0  0  0  0  0
   -1.5492    2.3345    5.2672 H   0  0  0  0  0  0  0  0  0  0  0  0
   -2.4815    0.8608    5.5990 H   0  0  0  0  0  0  0  0  0  0  0  0
   -0.9059    1.2286    6.9203 N   0  0  0  0  0  0  0  0  0  0  0  0
   -1.4885    1.7564    7.5536 H   0  0  0  0  0  0  0  0  0  0  0  0
   -0.8707    0.2650    7.2210 H   0  0  0  0  0  0  0  0  0  0  0  0
   -0.0572   -0.7220   -0.3218 C   0  0  0  0  0  0  0  0  0  0  0  0
    0.5218   -1.7851   -0.1086 O   0  0  0  0  0  0  0  0  0  0  0  0
    0.1206   -0.0141   -1.4433 N   0  0  0  0  0  0  0  0  0  0  0  0
   -0.4017    0.8401   -1.5497 H   0  0  0  0  0  0  0  0  0  0  0  0
    1.0157   -0.4144   -2.5278 C   0  0  0  0  0  0  0  0  0  0  0  0
    0.7579   -1.4202   -2.8668 H   0  0  0  0  0  0  0  0  0  0  0  0
    0.9322    0.2801   -3.3649 H   0  0  0  0  0  0  0  0  0  0  0  0
    2.0467   -0.4244   -2.1681 H   0  0  0  0  0  0  0  0  0  0  0  0
  5  6  2  0  0  0  0
  5  7  1  0  0  0  0
  2  3  1  0  0  0  0
  2  4  1  0  0  0  0
  2  5  1  0  0  0  0
  1  2  1  0  0  0  0
 26 27  2  0  0  0  0
 26 28  1  0  0  0  0
 23 24  1  0  0  0  0
 23 25  1  0  0  0  0
 20 21  1  0  0  0  0
 20 22  1  0  0  0  0
 20 23  1  0  0  0  0
 17 18  1  0  0  0  0
 17 19  1  0  0  0  0
 17 20  1  0  0  0  0
 14 15  1  0  0  0  0
 14 16  1  0  0  0  0
 14 17  1  0  0  0  0
 11 12  1  0  0  0  0
 11 13  1  0  0  0  0
 11 14  1  0  0  0  0
  9 10  1  0  0  0  0
  9 11  1  0  0  0  0
  9 26  1  0  0  0  0
  7  8  1  0  0  0  0
  7  9  1  0  0  0  0
 30 31  1  0  0  0  0
 30 32  1  0  0  0  0
 30 33  1  0  0  0  0
 28 29  1  0  0  0  0
 28 30  1  0  0  0  0
M  END
$$$$
default_name
  -OEChem-01062215323D

 33 32  0     1  0  0  0  0  0999 V2000
   -3.8420   -3.6918    1.5562 H   0  0  0  0  0  0  0  0  0  0  0  0
   -3.8430   -2.7008    1.1032 C   0  0  0  0  0  0  0  0  0  0  0  0
   -4.5510   -2.0608    1.6242 H   0  0  0  0  0  0  0  0  0  0  0  0
   -4.1140   -2.7798    0.0522 H   0  0  0  0  0  0  0  0  0  0  0  0
   -2.4570   -2.1098    1.2172 C   0  0  0  0  0  0  0  0  0  0  0  0
   -1.5600   -2.7438    1.7572 O   0  0  0  0  0  0  0  0  0  0  0  0
   -2.2870   -0.8898    0.7102 N   0  0  0  0  0  0  0  0  0  0  0  0
   -3.0820   -0.4218    0.2992 H   0  0  0  0  0  0  0  0  0  0  0  0
   -1.0240   -0.1468    0.7262 C   0  0  1  0  0  0  0  0  0  0  0  0
   -1.2302    0.8933    0.4698 H   0  0  0  0  0  0  0  0  0  0  0  0
   -0.4385   -0.1969    2.1508 C   0  0  0  0  0  0  0  0  0  0  0  0
   -0.3973   -1.2395    2.4726 H   0  0  0  0  0  0  0  0  0  0  0  0
    0.5795    0.1951    2.1353 H   0  0  0  0  0  0  0  0  0  0  0  0
   -1.2684    0.5895    3.1775 C   0  0  0  0  0  0  0  0  0  0  0  0
   -1.3356    1.6338    2.8711 H   0  0  0  0  0  0  0  0  0  0  0  0
   -2.2733    0.1661    3.2267 H   0  0  0  0  0  0  0  0  0  0  0  0
   -0.6251    0.5237    4.5673 C   0  0  0  0  0  0  0  0  0  0  0  0
   -0.5437   -0.5164    4.8846 H   0  0  0  0  0  0  0  0  0  0  0  0
    0.3702    0.9674    4.5285 H   0  0  0  0  0  0  0  0  0  0  0  0
   -1.4819    1.2914    5.5720 C   0  0  0  0  0  0  0  0  0  0  0  0
   -1.5492    2.3345    5.2672 H   0  0  0  0  0  0  0  0  0  0  0  0
   -2.4815    0.8608    5.5990 H   0  0  0  0  0  0  0  0  0  0  0  0
   -0.9059    1.2286    6.9203 N   0  0  0  0  0  0  0  0  0  0  0  0
   -1.4885    1.7564    7.5536 H   0  0  0  0  0  0  0  0  0  0  0  0
   -0.8707    0.2650    7.2210 H   0  0  0  0  0  0  0  0  0  0  0  0
   -0.0572   -0.7220   -0.3218 C   0  0  0  0  0  0  0  0  0  0  0  0
    0.3071   -1.8936   -0.2471 O   0  0  0  0  0  0  0  0  0  0  0  0
    0.3611    0.1051   -1.2868 N   0  0  0  0  0  0  0  0  0  0  0  0
    0.0053    1.0470   -1.2879 H   0  0  0  0  0  0  0  0  0  0  0  0
    1.2913   -0.2815   -2.3466 C   0  0  0  0  0  0  0  0  0  0  0  0
    0.9071   -1.1580   -2.8730 H   0  0  0  0  0  0  0  0  0  0  0  0
    1.4197    0.5371   -3.0563 H   0  0  0  0  0  0  0  0  0  0  0  0
    2.2592   -0.5368   -1.9104 H   0  0  0  0  0  0  0  0  0  0  0  0
  5  6  2  0  0  0  0
  5  7  1  0  0  0  0
  2  3  1  0  0  0  0
  2  4  1  0  0  0  0
  2  5  1  0  0  0  0
  1  2  1  0  0  0  0
 26 27  2  0  0  0  0
 26 28  1  0  0  0  0
 23 24  1  0  0  0  0
 23 25  1  0  0  0  0
 20 21  1  0  0  0  0
 20 22  1  0  0  0  0
 20 23  1  0  0  0  0
 17 18  1  0  0  0  0
 17 19  1  0  0  0  0
 17 20  1  0  0  0  0
 14 15  1  0  0  0  0
 14 16  1  0  0  0  0
 14 17  1  0  0  0  0
 11 12  1  0  0  0  0
 11 13  1  0  0  0  0
 11 14  1  0  0  0  0
  9 10  1  0  0  0  0
  9 11  1  0  0  0  0
  9 26  1  0  0  0  0
  7  8  1  0  0  0  0
  7  9  1  0  0  0  0
 30 31  1  0  0  0  0
 30 32  1  0  0  0  0
 30 33  1  0  0  0  0
 28 29  1  0  0  0  0
 28 30  1  0  0  0  0
M  END
$$$$
default_name
  -OEChem-01062215323D

 33 32  0     1  0  0  0  0  0999 V2000
   -3.8420   -3.6918    1.5562 H   0  0  0  0  0  0  0  0  0  0  0  0
   -3.8430   -2.7008    1.1032 C   0  0  0  0  0  0  0  0  0  0  0  0
   -4.5510   -2.0608    1.6242 H   0  0  0  0  0  0  0  0  0  0  0  0
   -4.1140   -2.7798    0.0522 H   0  0  0  0  0  0  0  0  0  0  0  0
   -2.4570   -2.1098    1.2172 C   0  0  0  0  0  0  0  0  0  0  0  0
   -1.5600   -2.7438    1.7572 O   0  0  0  0  0  0  0  0  0  0  0  0
   -2.2870   -0.8898    0.7102 N   0  0  0  0  0  0  0  0  0  0  0  0
   -3.0820   -0.4218    0.2992 H   0  0  0  0  0  0  0  0  0  0  0  0
   -1.0240   -0.1468    0.7262 C   0  0  1  0  0  0  0  0  0  0  0  0
   -1.2302    0.8933    0.4698 H   0  0  0  0  0  0  0  0  0  0  0  0
   -0.4385   -0.1969    2.1508 C   0  0  0  0  0  0  0  0  0  0  0  0
   -0.3973   -1.2395    2.4726 H   0  0  0  0  0  0  0  0  0  0  0  0
    0.5795    0.1951    2.1353 H   0  0  0  0  0  0  0  0  0  0  0  0
   -1.2684    0.5895    3.1775 C   0  0  0  0  0  0  0  0  0  0  0  0
   -1.3356    1.6338    2.8711 H   0  0  0  0  0  0  0  0  0  0  0  0
   -2.2733    0.1661    3.2267 H   0  0  0  0  0  0  0  0  0  0  0  0
   -0.6251    0.5237    4.5673 C   0  0  0  0  0  0  0  0  0  0  0  0
   -0.5437   -0.5164    4.8846 H   0  0  0  0  0  0  0  0  0  0  0  0
    0.3702    0.9674    4.5285 H   0  0  0  0  0  0  0  0  0  0  0  0
   -1.4819    1.2914    5.5720 C   0  0  0  0  0  0  0  0  0  0  0  0
   -1.5492    2.3345    5.2672 H   0  0  0  0  0  0  0  0  0  0  0  0
   -2.4815    0.8608    5.5990 H   0  0  0  0  0  0  0  0  0  0  0  0
   -0.9059    1.2286    6.9203 N   0  0  0  0  0  0  0  0  0  0  0  0
   -1.4885    1.7564    7.5536 H   0  0  0  0  0  0  0  0  0  0  0  0
   -0.8707    0.2650    7.2210 H   0  0  0  0  0  0  0  0  0  0  0  0
   -0.0572   -0.7220   -0.3218 C   0  0  0  0  0  0  0  0  0  0  0  0
    0.0939   -1.9380   -0.4194 O   0  0  0  0  0  0  0  0  0  0  0  0
    0.5993    0.1524   -1.0930 N   0  0  0  0  0  0  0  0  0  0  0  0
    0.4096    1.1324   -0.9618 H   0  0  0  0  0  0  0  0  0  0  0  0
    1.5633   -0.2312   -2.1233 C   0  0  0  0  0  0  0  0  0  0  0  0
    1.0982   -0.9301   -2.8219 H   0  0  0  0  0  0  0  0  0  0  0  0
    1.9061    0.6490   -2.6691 H   0  0  0  0  0  0  0  0  0  0  0  0
    2.4197   -0.7247   -1.6591 H   0  0  0  0  0  0  0  0  0  0  0  0
  5  6  2  0  0  0  0
  5  7  1  0  0  0  0
  2  3  1  0  0  0  0
  2  4  1  0  0  0  0
  2  5  1  0  0  0  0
  1  2  1  0  0  0  0
 26 27  2  0  0  0  0
 26 28  1  0  0  0  0
 23 24  1  0  0  0  0
 23 25  1  0  0  0  0
 20 21  1  0  0  0  0
 20 22  1  0  0  0  0
 20 23  1  0  0  0  0
 17 18  1  0  0  0  0
 17 19  1  0  0  0  0
 17 20  1  0  0  0  0
 14 15  1  0  0  0  0
 14 16  1  0  0  0  0
 14 17  1  0  0  0  0
 11 12  1  0  0  0  0
 11 13  1  0  0  0  0
 11 14  1  0  0  0  0
  9 10  1  0  0  0  0
  9 11  1  0  0  0  0
  9 26  1  0  0  0  0
  7  8  1  0  0  0  0
  7  9  1  0  0  0  0
 30 31  1  0  0  0  0
 30 32  1  0  0  0  0
 30 33  1  0  0  0  0
 28 29  1  0  0  0  0
 28 30  1  0  0  0  0
M  END
$$$$
default_name
  -OEChem-01062215323D

 33 32  0     1  0  0  0  0  0999 V2000
   -3.8420   -3.6918    1.5562 H   0  0  0  0  0  0  0  0  0  0  0  0
   -3.8430   -2.7008    1.1032 C   0  0  0  0  0  0  0  0  0  0  0  0
   -4.5510   -2.0608    1.6242 H   0  0  0  0  0  0  0  0  0  0  0  0
   -4.1140   -2.7798    0.0522 H   0  0  0  0  0  0  0  0  0  0  0  0
   -2.4570   -2.1098    1.2172 C   0  0  0  0  0  0  0  0  0  0  0  0
   -1.5600   -2.7438    1.7572 O   0  0  0  0  0  0  0  0  0  0  0  0
   -2.2870   -0.8898    0.7102 N   0  0  0  0  0  0  0  0  0  0  0  0
   -3.0820   -0.4218    0.2992 H   0  0  0  0  0  0  0  0  0  0  0  0
   -1.0240   -0.1468    0.7262 C   0  0  1  0  0  0  0  0  0  0  0  0
   -1.2302    0.8933    0.4698 H   0  0  0  0  0  0  0  0  0  0  0  0
   -0.4385   -0.1969    2.1508 C   0  0  0  0  0  0  0  0  0  0  0  0
   -0.3973   -1.2395    2.4726 H   0  0  0  0  0  0  0  0  0  0  0  0
    0.5795    0.1951    2.1353 H   0  0  0  0  0  0  0  0  0  0  0  0
   -1.2684    0.5895    3.1775 C   0  0  0  0  0  0  0  0  0  0  0  0
   -1.3356    1.6338    2.8711 H   0  0  0  0  0  0  0  0  0  0  0  0
   -2.2733    0.1661    3.2267 H   0  0  0  0  0  0  0  0  0  0  0  0
   -0.6251    0.5237    4.5673 C   0  0  0  0  0  0  0  0  0  0  0  0
   -0.5437   -0.5164    4.8846 H   0  0  0  0  0  0  0  0  0  0  0  0
    0.3702    0.9674    4.5285 H   0  0  0  0  0  0  0  0  0  0  0  0
   -1.4819    1.2914    5.5720 C   0  0  0  0  0  0  0  0  0  0  0  0
   -1.5492    2.3345    5.2672 H   0  0  0  0  0  0  0  0  0  0  0  0
   -2.4815    0.8608    5.5990 H   0  0  0  0  0  0  0  0  0  0  0  0
   -0.9059    1.2286    6.9203 N   0  0  0  0  0  0  0  0  0  0  0  0
   -1.4885    1.7564    7.5536 H   0  0  0  0  0  0  0  0  0  0  0  0
   -0.8707    0.2650    7.2210 H   0  0  0  0  0  0  0  0  0  0  0  0
   -0.0572   -0.7220   -0.3218 C   0  0  0  0  0  0  0  0  0  0  0  0
   -0.1031   -1.9152   -0.6136 O   0  0  0  0  0  0  0  0  0  0  0  0
    0.8190    0.1245   -0.8751 N   0  0  0  0  0  0  0  0  0  0  0  0
    0.7836    1.0906   -0.5939 H   0  0  0  0  0  0  0  0  0  0  0  0
    1.8133   -0.2670   -1.8730 C   0  0  0  0  0  0  0  0  0  0  0  0
    1.3179   -0.7519   -2.7170 H   0  0  0  0  0  0  0  0  0  0  0  0
    2.3581    0.6083   -2.2298 H   0  0  0  0  0  0  0  0  0  0  0  0
    2.5172   -0.9755   -1.4315 H   0  0  0  0  0  0  0  0  0  0  0  0
  5  6  2  0  0  0  0
  5  7  1  0  0  0  0
  2  3  1  0  0  0  0
  2  4  1  0  0  0  0
  2  5  1  0  0  0  0
  1  2  1  0  0  0  0
 26 27  2  0  0  0  0
 26 28  1  0  0  0  0
 23 24  1  0  0  0  0
 23 25  1  0  0  0  0
 20 21  1  0  0  0  0
 20 22  1  0  0  0  0
 20 23  1  0  0  0  0
 17 18  1  0  0  0  0
 17 19  1  0  0  0  0
 17 20  1  0  0  0  0
 14 15  1  0  0  0  0
 14 16  1  0  0  0  0
 14 17  1  0  0  0  0
 11 12  1  0  0  0  0
 11 13  1  0  0  0  0
 11 14  1  0  0  0  0
  9 10  1  0  0  0  0
  9 11  1  0  0  0  0
  9 26  1  0  0  0  0
  7  8  1  0  0  0  0
  7  9  1  0  0  0  0
 30 31  1  0  0  0  0
 30 32  1  0  0  0  0
 30 33  1  0  0  0  0
 28 29  1  0  0  0  0
 28 30  1  0  0  0  0
M  END
$$$$
default_name
  -OEChem-01062215323D

 33 32  0     1  0  0  0  0  0999 V2000
   -3.8420   -3.6918    1.5562 H   0  0  0  0  0  0  0  0  0  0  0  0
   -3.8430   -2.7008    1.1032 C   0  0  0  0  0  0  0  0  0  0  0  0
   -4.5510   -2.0608    1.6242 H   0  0  0  0  0  0  0  0  0  0  0  0
   -4.1140   -2.7798    0.0522 H   0  0  0  0  0  0  0  0  0  0  0  0
   -2.4570   -2.1098    1.2172 C   0  0  0  0  0  0  0  0  0  0  0  0
   -1.5600   -2.7438    1.7572 O   0  0  0  0  0  0  0  0  0  0  0  0
   -2.2870   -0.8898    0.7102 N   0  0  0  0  0  0  0  0  0  0  0  0
   -3.0820   -0.4218    0.2992 H   0  0  0  0  0  0  0  0  0  0  0  0
   -1.0240   -0.1468    0.7262 C   0  0  1  0  0  0  0  0  0  0  0  0
   -1.2302    0.8933    0.4698 H   0  0  0  0  0  0  0  0  0  0  0  0
   -0.4385   -0.1969    2.1508 C   0  0  0  0  0  0  0  0  0  0  0  0
   -0.3973   -1.2395    2.4726 H   0  0  0  0  0  0  0  0  0  0  0  0
    0.5795    0.1951    2.1353 H   0  0  0  0  0  0  0  0  0  0  0  0
   -1.2684    0.5895    3.1775 C   0  0  0  0  0  0  0  0  0  0  0  0
   -1.3356    1.6338    2.8711 H   0  0  0  0  0  0  0  0  0  0  0  0
   -2.2733    0.1661    3.2267 H   0  0  0  0  0  0  0  0  0  0  0  0
   -0.6251    0.5237    4.5673 C   0  0  0  0  0  0  0  0  0  0  0  0
   -0.5437   -0.5164    4.8846 H   0  0  0  0  0  0  0  0  0  0  0  0
    0.3702    0.9674    4.5285 H   0  0  0  0  0  0  0  0  0  0  0  0
   -1.4819    1.2914    5.5720 C   0  0  0  0  0  0  0  0  0  0  0  0
   -1.5492    2.3345    5.2672 H   0  0  0  0  0  0  0  0  0  0  0  0
   -2.4815    0.8608    5.5990 H   0  0  0  0  0  0  0  0  0  0  0  0
   -0.9059    1.2286    6.9203 N   0  0  0  0  0  0  0  0  0  0  0  0
   -1.4885    1.7564    7.5536 H   0  0  0  0  0  0  0  0  0  0  0  0
   -0.8707    0.2650    7.2210 H   0  0  0  0  0  0  0  0  0  0  0  0
   -0.0572   -0.7220   -0.3218 C   0  0  0  0  0  0  0  0  0  0  0  0
   -0.2706   -1.8268   -0.8166 O   0  0  0  0  0  0  0  0  0  0  0  0
    1.0052    0.0233   -0.6478 N   0  0  0  0  0  0  0  0  0  0  0  0
    1.1019    0.9243   -0.2090 H   0  0  0  0  0  0  0  0  0  0  0  0
    2.0243   -0.3863   -1.6129 C   0  0  0  0  0  0  0  0  0  0  0  0
    1.5515   -0.6357   -2.5653 H   0  0  0  0  0  0  0  0  0  0  0  0
    2.7450    0.4178   -1.7683 H   0  0  0  0  0  0  0  0  0  0  0  0
    2.5452   -1.2719   -1.2430 H   0  0  0  0  0  0  0  0  0  0  0  0
  5  6  2  0  0  0  0
  5  7  1  0  0  0  0
  2  3  1  0  0  0  0
  2  4  1  0  0  0  0
  2  5  1  0  0  0  0
  1  2  1  0  0  0  0
 26 27  2  0  0  0  0
 26 28  1  0  0  0  0
 23 24  1  0  0  0  0
 23 25  1  0  0  0  0
 20 21  1  0  0  0  0
 20 22  1  0  0  0  0
 20 23  1  0  0  0  0
 17 18  1  0  0  0  0
 17 19  1  0  0  0  0
 17 20  1  0  0  0  0
 14 15  1  0  0  0  0
 14 16  1  0  0  0  0
 14 17  1  0  0  0  0
 11 12  1  0  0  0  0
 11 13  1  0  0  0  0
 11 14  1  0  0  0  0
  9 10  1  0  0  0  0
  9 11  1  0  0  0  0
  9 26  1  0  0  0  0
  7  8  1  0  0  0  0
  7  9  1  0  0  0  0
 30 31  1  0  0  0  0
 30 32  1  0  0  0  0
 30 33  1  0  0  0  0
 28 29  1  0  0  0  0
 28 30  1  0  0  0  0
M  END
$$$$
default_name
  -OEChem-01062215323D

 33 32  0     1  0  0  0  0  0999 V2000
   -3.8420   -3.6918    1.5562 H   0  0  0  0  0  0  0  0  0  0  0  0
   -3.8430   -2.7008    1.1032 C   0  0  0  0  0  0  0  0  0  0  0  0
   -4.5510   -2.0608    1.6242 H   0  0  0  0  0  0  0  0  0  0  0  0
   -4.1140   -2.7798    0.0522 H   0  0  0  0  0  0  0  0  0  0  0  0
   -2.4570   -2.1098    1.2172 C   0  0  0  0  0  0  0  0  0  0  0  0
   -1.5600   -2.7438    1.7572 O   0  0  0  0  0  0  0  0  0  0  0  0
   -2.2870   -0.8898    0.7102 N   0  0  0  0  0  0  0  0  0  0  0  0
   -3.0820   -0.4218    0.2992 H   0  0  0  0  0  0  0  0  0  0  0  0
   -1.0240   -0.1468    0.7262 C   0  0  1  0  0  0  0  0  0  0  0  0
   -1.2496    0.9205    0.7378 H   0  0  0  0  0  0  0  0  0  0  0  0
   -0.2568   -0.5028    2.0144 C   0  0  0  0  0  0  0  0  0  0  0  0
   -0.1863   -1.5900    2.0872 H   0  0  0  0  0  0  0  0  0  0  0  0
    0.7549   -0.0992    1.9537 H   0  0  0  0  0  0  0  0  0  0  0  0
   -0.9349    0.0202    3.2903 C   0  0  0  0  0  0  0  0  0  0  0  0
   -1.0293    1.1051    3.2364 H   0  0  0  0  0  0  0  0  0  0  0  0
   -1.9296   -0.4213    3.3749 H   0  0  0  0  0  0  0  0  0  0  0  0
   -0.1152   -0.3423    4.5338 C   0  0  0  0  0  0  0  0  0  0  0  0
   -0.0054   -1.4253    4.5975 H   0  0  0  0  0  0  0  0  0  0  0  0
    0.8716    0.1164    4.4652 H   0  0  0  0  0  0  0  0  0  0  0  0
   -0.8231    0.1668    5.7880 C   0  0  0  0  0  0  0  0  0  0  0  0
   -0.9173    1.2503    5.7352 H   0  0  0  0  0  0  0  0  0  0  0  0
   -1.8156   -0.2766    5.8487 H   0  0  0  0  0  0  0  0  0  0  0  0
   -0.0756   -0.1846    7.0008 N   0  0  0  0  0  0  0  0  0  0  0  0
   -0.5634    0.1783    7.8067 H   0  0  0  0  0  0  0  0  0  0  0  0
   -0.0127   -1.1903    7.0716 H   0  0  0  0  0  0  0  0  0  0  0  0
   -0.2105   -0.4567   -0.5411 C   0  0  0  0  0  0  0  0  0  0  0  0
   -0.6501   -1.2410   -1.3793 O   0  0  0  0  0  0  0  0  0  0  0  0
    0.9745    0.1510   -0.6708 N   0  0  0  0  0  0  0  0  0  0  0  0
    1.2578    0.7915    0.0525 H   0  0  0  0  0  0  0  0  0  0  0  0
    1.8740   -0.0483   -1.8062 C   0  0  0  0  0  0  0  0  0  0  0  0
    1.3447    0.1633   -2.7378 H   0  0  0  0  0  0  0  0  0  0  0  0
    2.7390    0.6115   -1.7256 H   0  0  0  0  0  0  0  0  0  0  0  0
    2.2122   -1.0863   -1.8287 H   0  0  0  0  0  0  0  0  0  0  0  0
  5  6  2  0  0  0  0
  5  7  1  0  0  0  0
  2  3  1  0  0  0  0
  2  4  1  0  0  0  0
  2  5  1  0  0  0  0
  1  2  1  0  0  0  0
 26 27  2  0  0  0  0
 26 28  1  0  0  0  0
 23 24  1  0  0  0  0
 23 25  1  0  0  0  0
 20 21  1  0  0  0  0
 20 22  1  0  0  0  0
 20 23  1  0  0  0  0
 17 18  1  0  0  0  0
 17 19  1  0  0  0  0
 17 20  1  0  0  0  0
 14 15  1  0  0  0  0
 14 16  1  0  0  0  0
 14 17  1  0  0  0  0
 11 12  1  0  0  0  0
 11 13  1  0  0  0  0
 11 14  1  0  0  0  0
  9 10  1  0  0  0  0
  9 11  1  0  0  0  0
  9 26  1  0  0  0  0
  7  8  1  0  0  0  0
  7  9  1  0  0  0  0
 30 31  1  0  0  0  0
 30 32  1  0  0  0  0
 30 33  1  0  0  0  0
 28 29  1  0  0  0  0
 28 30  1  0  0  0  0
M  END
$$$$
default_name
  -OEChem-01062215323D

 33 32  0     1  0  0  0  0  0999 V2000
   -3.8420   -3.6918    1.5562 H   0  0  0  0  0  0  0  0  0  0  0  0
   -3.8430   -2.7008    1.1032 C   0  0  0  0  0  0  0  0  0  0  0  0
   -4.5510   -2.0608    1.6242 H   0  0  0  0  0  0  0  0  0  0  0  0
   -4.1140   -2.7798    0.0522 H   0  0  0  0  0  0  0  0  0  0  0  0
   -2.4570   -2.1098    1.2172 C   0  0  0  0  0  0  0  0  0  0  0  0
   -1.5600   -2.7438    1.7572 O   0  0  0  0  0  0  0  0  0  0  0  0
   -2.2870   -0.8898    0.7102 N   0  0  0  0  0  0  0  0  0  0  0  0
   -3.0820   -0.4218    0.2992 H   0  0  0  0  0  0  0  0  0  0  0  0
   -1.0240   -0.1468    0.7262 C   0  0  1  0  0  0  0  0  0  0  0  0
   -1.2496    0.9205    0.7378 H   0  0  0  0  0  0  0  0  0  0  0  0
   -0.2568   -0.5028    2.0144 C   0  0  0  0  0  0  0  0  0  0  0  0
   -0.1863   -1.5900    2.0872 H   0  0  0  0  0  0  0  0  0  0  0  0
    0.7549   -0.0992    1.9537 H   0  0  0  0  0  0  0  0  0  0  0  0
   -0.9349    0.0202    3.2903 C   0  0  0  0  0  0  0  0  0  0  0  0
   -1.0293    1.1051    3.2364 H   0  0  0  0  0  0  0  0  0  0  0  0
   -1.9296   -0.4213    3.3749 H   0  0  0  0  0  0  0  0  0  0  0  0
   -0.1152   -0.3423    4.5338 C   0  0  0  0  0  0  0  0  0  0  0  0
   -0.0054   -1.4253    4.5975 H   0  0  0  0  0  0  0  0  0  0  0  0
    0.8716    0.1164    4.4652 H   0  0  0  0  0  0  0  0  0  0  0  0
   -0.8231    0.1668    5.7880 C   0  0  0  0  0  0  0  0  0  0  0  0
   -0.9173    1.2503    5.7352 H   0  0  0  0  0  0  0  0  0  0  0  0
   -1.8156   -0.2766    5.8487 H   0  0  0  0  0  0  0  0  0  0  0  0
   -0.0756   -0.1846    7.0008 N   0  0  0  0  0  0  0  0  0  0  0  0
   -0.5634    0.1783    7.8067 H   0  0  0  0  0  0  0  0  0  0  0  0
   -0.0127   -1.1903    7.0716 H   0  0  0  0  0  0  0  0  0  0  0  0
   -0.2105   -0.4567   -0.5411 C   0  0  0  0  0  0  0  0  0  0  0  0
   -0.7475   -1.0100   -1.4984 O   0  0  0  0  0  0  0  0  0  0  0  0
    1.0816   -0.1089   -0.5385 N   0  0  0  0  0  0  0  0  0  0  0  0
    1.4438    0.3542    0.2788 H   0  0  0  0  0  0  0  0  0  0  0  0
    1.9933   -0.3479   -1.6563 C   0  0  0  0  0  0  0  0  0  0  0  0
    1.5838    0.0940   -2.5674 H   0  0  0  0  0  0  0  0  0  0  0  0
    2.9700    0.0922   -1.4503 H   0  0  0  0  0  0  0  0  0  0  0  0
    2.1070   -1.4224   -1.8140 H   0  0  0  0  0  0  0  0  0  0  0  0
  5  6  2  0  0  0  0
  5  7  1  0  0  0  0
  2  3  1  0  0  0  0
  2  4  1  0  0  0  0
  2  5  1  0  0  0  0
  1  2  1  0  0  0  0
 26 27  2  0  0  0  0
 26 28  1  0  0  0  0
 23 24  1  0  0  0  0
 23 25  1  0  0  0  0
 20 21  1  0  0  0  0
 20 22  1  0  0  0  0
 20 23  1  0  0  0  0
 17 18  1  0  0  0  0
 17 19  1  0  0  0  0
 17 20  1  0  0  0  0
 14 15  1  0  0  0  0
 14 16  1  0  0  0  0
 14 17  1  0  0  0  0
 11 12  1  0  0  0  0
 11 13  1  0  0  0  0
 11 14  1  0  0  0  0
  9 10  1  0  0  0  0
  9 11  1  0  0  0  0
  9 26  1  0  0  0  0
  7  8  1  0  0  0  0
  7  9  1  0  0  0  0
 30 31  1  0  0  0  0
 30 32  1  0  0  0  0
 30 33  1  0  0  0  0
 28 29  1  0  0  0  0
 28 30  1  0  0  0  0
M  END
$$$$
default_name
  -OEChem-01062215323D

 33 32  0     1  0  0  0  0  0999 V2000
   -3.8420   -3.6918    1.5562 H   0  0  0  0  0  0  0  0  0  0  0  0
   -3.8430   -2.7008    1.1032 C   0  0  0  0  0  0  0  0  0  0  0  0
   -4.5510   -2.0608    1.6242 H   0  0  0  0  0  0  0  0  0  0  0  0
   -4.1140   -2.7798    0.0522 H   0  0  0  0  0  0  0  0  0  0  0  0
   -2.4570   -2.1098    1.2172 C   0  0  0  0  0  0  0  0  0  0  0  0
   -1.5600   -2.7438    1.7572 O   0  0  0  0  0  0  0  0  0  0  0  0
   -2.2870   -0.8898    0.7102 N   0  0  0  0  0  0  0  0  0  0  0  0
   -3.0820   -0.4218    0.2992 H   0  0  0  0  0  0  0  0  0  0  0  0
   -1.0240   -0.1468    0.7262 C   0  0  1  0  0  0  0  0  0  0  0  0
   -1.2496    0.9205    0.7378 H   0  0  0  0  0  0  0  0  0  0  0  0
   -0.2568   -0.5028    2.0144 C   0  0  0  0  0  0  0  0  0  0  0  0
   -0.1863   -1.5900    2.0872 H   0  0  0  0  0  0  0  0  0  0  0  0
    0.7549   -0.0992    1.9537 H   0  0  0  0  0  0  0  0  0  0  0  0
   -0.9349    0.0202    3.2903 C   0  0  0  0  0  0  0  0  0  0  0  0
   -1.0293    1.1051    3.2364 H   0  0  0  0  0  0  0  0  0  0  0  0
   -1.9296   -0.4213    3.3749 H   0  0  0  0  0  0  0  0  0  0  0  0
   -0.1152   -0.3423    4.5338 C   0  0  0  0  0  0  0  0  0  0  0  0
   -0.0054   -1.4253    4.5975 H   0  0  0  0  0  0  0  0  0  0  0  0
    0.8716    0.1164    4.4652 H   0  0  0  0  0  0  0  0  0  0  0  0
   -0.8231    0.1668    5.7880 C   0  0  0  0  0  0  0  0  0  0  0  0
   -0.9173    1.2503    5.7352 H   0  0  0  0  0  0  0  0  0  0  0  0
   -1.8156   -0.2766    5.8487 H   0  0  0  0  0  0  0  0  0  0  0  0
   -0.0756   -0.1846    7.0008 N   0  0  0  0  0  0  0  0  0  0  0  0
   -0.5634    0.1783    7.8067 H   0  0  0  0  0  0  0  0  0  0  0  0
   -0.0127   -1.1903    7.0716 H   0  0  0  0  0  0  0  0  0  0  0  0
   -0.2105   -0.4567   -0.5411 C   0  0  0  0  0  0  0  0  0  0  0  0
   -0.7862   -0.7497   -1.5869 O   0  0  0  0  0  0  0  0  0  0  0  0
    1.1226   -0.4010   -0.4407 N   0  0  0  0  0  0  0  0  0  0  0  0
    1.5183   -0.1389    0.4472 H   0  0  0  0  0  0  0  0  0  0  0  0
    2.0368   -0.6832   -1.5463 C   0  0  0  0  0  0  0  0  0  0  0  0
    1.7911   -0.0473   -2.3998 H   0  0  0  0  0  0  0  0  0  0  0  0
    3.0681   -0.4965   -1.2433 H   0  0  0  0  0  0  0  0  0  0  0  0
    1.9330   -1.7266   -1.8513 H   0  0  0  0  0  0  0  0  0  0  0  0
  5  6  2  0  0  0  0
  5  7  1  0  0  0  0
  2  3  1  0  0  0  0
  2  4  1  0  0  0  0
  2  5  1  0  0  0  0
  1  2  1  0  0  0  0
 26 27  2  0  0  0  0
 26 28  1  0  0  0  0
 23 24  1  0  0  0  0
 23 25  1  0  0  0  0
 20 21  1  0  0  0  0
 20 22  1  0  0  0  0
 20 23  1  0  0  0  0
 17 18  1  0  0  0  0
 17 19  1  0  0  0  0
 17 20  1  0  0  0  0
 14 15  1  0  0  0  0
 14 16  1  0  0  0  0
 14 17  1  0  0  0  0
 11 12  1  0  0  0  0
 11 13  1  0  0  0  0
 11 14  1  0  0  0  0
  9 10  1  0  0  0  0
  9 11  1  0  0  0  0
  9 26  1  0  0  0  0
  7  8  1  0  0  0  0
  7  9  1  0  0  0  0
 30 31  1  0  0  0  0
 30 32  1  0  0  0  0
 30 33  1  0  0  0  0
 28 29  1  0  0  0  0
 28 30  1  0  0  0  0
M  END
$$$$
default_name
  -OEChem-01062215323D

 33 32  0     1  0  0  0  0  0999 V2000
   -3.8420   -3.6918    1.5562 H   0  0  0  0  0  0  0  0  0  0  0  0
   -3.8430   -2.7008    1.1032 C   0  0  0  0  0  0  0  0  0  0  0  0
   -4.5510   -2.0608    1.6242 H   0  0  0  0  0  0  0  0  0  0  0  0
   -4.1140   -2.7798    0.0522 H   0  0  0  0  0  0  0  0  0  0  0  0
   -2.4570   -2.1098    1.2172 C   0  0  0  0  0  0  0  0  0  0  0  0
   -1.5600   -2.7438    1.7572 O   0  0  0  0  0  0  0  0  0  0  0  0
   -2.2870   -0.8898    0.7102 N   0  0  0  0  0  0  0  0  0  0  0  0
   -3.0820   -0.4218    0.2992 H   0  0  0  0  0  0  0  0  0  0  0  0
   -1.0240   -0.1468    0.7262 C   0  0  1  0  0  0  0  0  0  0  0  0
   -1.2496    0.9205    0.7378 H   0  0  0  0  0  0  0  0  0  0  0  0
   -0.2568   -0.5028    2.0144 C   0  0  0  0  0  0  0  0  0  0  0  0
   -0.1863   -1.5900    2.0872 H   0  0  0  0  0  0  0  0  0  0  0  0
    0.7549   -0.0992    1.9537 H   0  0  0  0  0  0  0  0  0  0  0  0
   -0.9349    0.0202    3.2903 C   0  0  0  0  0  0  0  0  0  0  0  0
   -1.0293    1.1051    3.2364 H   0  0  0  0  0  0  0  0  0  0  0  0
   -1.9296   -0.4213    3.3749 H   0  0  0  0  0  0  0  0  0  0  0  0
   -0.1152   -0.3423    4.5338 C   0  0  0  0  0  0  0  0  0  0  0  0
   -0.0054   -1.4253    4.5975 H   0  0  0  0  0  0  0  0  0  0  0  0
    0.8716    0.1164    4.4652 H   0  0  0  0  0  0  0  0  0  0  0  0
   -0.8231    0.1668    5.7880 C   0  0  0  0  0  0  0  0  0  0  0  0
   -0.9173    1.2503    5.7352 H   0  0  0  0  0  0  0  0  0  0  0  0
   -1.8156   -0.2766    5.8487 H   0  0  0  0  0  0  0  0  0  0  0  0
   -0.0756   -0.1846    7.0008 N   0  0  0  0  0  0  0  0  0  0  0  0
   -0.5634    0.1783    7.8067 H   0  0  0  0  0  0  0  0  0  0  0  0
   -0.0127   -1.1903    7.0716 H   0  0  0  0  0  0  0  0  0  0  0  0
   -0.2105   -0.4567   -0.5411 C   0  0  0  0  0  0  0  0  0  0  0  0
   -0.7634   -0.4779   -1.6387 O   0  0  0  0  0  0  0  0  0  0  0  0
    1.0949   -0.7052   -0.3841 N   0  0  0  0  0  0  0  0  0  0  0  0
    1.4763   -0.6541    0.5462 H   0  0  0  0  0  0  0  0  0  0  0  0
    2.0016   -1.0314   -1.4838 C   0  0  0  0  0  0  0  0  0  0  0  0
    1.9525   -0.2510   -2.2464 H   0  0  0  0  0  0  0  0  0  0  0  0
    3.0264   -1.1144   -1.1190 H   0  0  0  0  0  0  0  0  0  0  0  0
    1.7020   -1.9781   -1.9380 H   0  0  0  0  0  0  0  0  0  0  0  0
  5  6  2  0  0  0  0
  5  7  1  0  0  0  0
  2  3  1  0  0  0  0
  2  4  1  0  0  0  0
  2  5  1  0  0  0  0
  1  2  1  0  0  0  0
 26 27  2  0  0  0  0
 26 28  1  0  0  0  0
 23 24  1  0  0  0  0
 23 25  1  0  0  0  0
 20 21  1  0  0  0  0
 20 22  1  0  0  0  0
 20 23  1  0  0  0  0
 17 18  1  0  0  0  0
 17 19  1  0  0  0  0
 17 20  1  0  0  0  0
 14 15  1  0  0  0  0
 14 16  1  0  0  0  0
 14 17  1  0  0  0  0
 11 12  1  0  0  0  0
 11 13  1  0  0  0  0
 11 14  1  0  0  0  0
  9 10  1  0  0  0  0
  9 11  1  0  0  0  0
  9 26  1  0  0  0  0
  7  8  1  0  0  0  0
  7  9  1  0  0  0  0
 30 31  1  0  0  0  0
 30 32  1  0  0  0  0
 30 33  1  0  0  0  0
 28 29  1  0  0  0  0
 28 30  1  0  0  0  0
M  END
$$$$
default_name
  -OEChem-01062215323D

 33 32  0     1  0  0  0  0  0999 V2000
   -3.8420   -3.6918    1.5562 H   0  0  0  0  0  0  0  0  0  0  0  0
   -3.8430   -2.7008    1.1032 C   0  0  0  0  0  0  0  0  0  0  0  0
   -4.5510   -2.0608    1.6242 H   0  0  0  0  0  0  0  0  0  0  0  0
   -4.1140   -2.7798    0.0522 H   0  0  0  0  0  0  0  0  0  0  0  0
   -2.4570   -2.1098    1.2172 C   0  0  0  0  0  0  0  0  0  0  0  0
   -1.5600   -2.7438    1.7572 O   0  0  0  0  0  0  0  0  0  0  0  0
   -2.2870   -0.8898    0.7102 N   0  0  0  0  0  0  0  0  0  0  0  0
   -3.0820   -0.4218    0.2992 H   0  0  0  0  0  0  0  0  0  0  0  0
   -1.0240   -0.1468    0.7262 C   0  0  1  0  0  0  0  0  0  0  0  0
   -1.2496    0.9205    0.7378 H   0  0  0  0  0  0  0  0  0  0  0  0
   -0.2568   -0.5028    2.0144 C   0  0  0  0  0  0  0  0  0  0  0  0
   -0.1863   -1.5900    2.0872 H   0  0  0  0  0  0  0  0  0  0  0  0
    0.7549   -0.0992    1.9537 H   0  0  0  0  0  0  0  0  0  0  0  0
   -0.9349    0.0202    3.2903 C   0  0  0  0  0  0  0  0  0  0  0  0
   -1.0293    1.1051    3.2364 H   0  0  0  0  0  0  0  0  0  0  0  0
   -1.9296   -0.4213    3.3749 H   0  0  0  0  0  0  0  0  0  0  0  0
   -0.1152   -0.3423    4.5338 C   0  0  0  0  0  0  0  0  0  0  0  0
   -0.0054   -1.4253    4.5975 H   0  0  0  0  0  0  0  0  0  0  0  0
    0.8716    0.1164    4.4652 H   0  0  0  0  0  0  0  0  0  0  0  0
   -0.8231    0.1668    5.7880 C   0  0  0  0  0  0  0  0  0  0  0  0
   -0.9173    1.2503    5.7352 H   0  0  0  0  0  0  0  0  0  0  0  0
   -1.8156   -0.2766    5.8487 H   0  0  0  0  0  0  0  0  0  0  0  0
   -0.0756   -0.1846    7.0008 N   0  0  0  0  0  0  0  0  0  0  0  0
   -0.5634    0.1783    7.8067 H   0  0  0  0  0  0  0  0  0  0  0  0
   -0.0127   -1.1903    7.0716 H   0  0  0  0  0  0  0  0  0  0  0  0
   -0.2105   -0.4567   -0.5411 C   0  0  0  0  0  0  0  0  0  0  0  0
   -0.6807   -0.2132   -1.6504 O   0  0  0  0  0  0  0  0  0  0  0  0
    1.0002   -1.0009   -0.3725 N   0  0  0  0  0  0  0  0  0  0  0  0
    1.3206   -1.1564    0.5692 H   0  0  0  0  0  0  0  0  0  0  0  0
    1.8900   -1.3688   -1.4729 C   0  0  0  0  0  0  0  0  0  0  0  0
    2.0569   -0.5032   -2.1177 H   0  0  0  0  0  0  0  0  0  0  0  0
    2.8478   -1.7193   -1.0856 H   0  0  0  0  0  0  0  0  0  0  0  0
    1.4297   -2.1600   -2.0684 H   0  0  0  0  0  0  0  0  0  0  0  0
  5  6  2  0  0  0  0
  5  7  1  0  0  0  0
  2  3  1  0  0  0  0
  2  4  1  0  0  0  0
  2  5  1  0  0  0  0
  1  2  1  0  0  0  0
 26 27  2  0  0  0  0
 26 28  1  0  0  0  0
 23 24  1  0  0  0  0
 23 25  1  0  0  0  0
 20 21  1  0  0  0  0
 20 22  1  0  0  0  0
 20 23  1  0  0  0  0
 17 18  1  0  0  0  0
 17 19  1  0  0  0  0
 17 20  1  0  0  0  0
 14 15  1  0  0  0  0
 14 16  1  0  0  0  0
 14 17  1  0  0  0  0
 11 12  1  0  0  0  0
 11 13  1  0  0  0  0
 11 14  1  0  0  0  0
  9 10  1  0  0  0  0
  9 11  1  0  0  0  0
  9 26  1  0  0  0  0
  7  8  1  0  0  0  0
  7  9  1  0  0  0  0
 30 31  1  0  0  0  0
 30 32  1  0  0  0  0
 30 33  1  0  0  0  0
 28 29  1  0  0  0  0
 28 30  1  0  0  0  0
M  END
$$$$
default_name
  -OEChem-01062215323D

 33 32  0     1  0  0  0  0  0999 V2000
   -3.8420   -3.6918    1.5562 H   0  0  0  0  0  0  0  0  0  0  0  0
   -3.8430   -2.7008    1.1032 C   0  0  0  0  0  0  0  0  0  0  0  0
   -4.5510   -2.0608    1.6242 H   0  0  0  0  0  0  0  0  0  0  0  0
   -4.1140   -2.7798    0.0522 H   0  0  0  0  0  0  0  0  0  0  0  0
   -2.4570   -2.1098    1.2172 C   0  0  0  0  0  0  0  0  0  0  0  0
   -1.5600   -2.7438    1.7572 O   0  0  0  0  0  0  0  0  0  0  0  0
   -2.2870   -0.8898    0.7102 N   0  0  0  0  0  0  0  0  0  0  0  0
   -3.0820   -0.4218    0.2992 H   0  0  0  0  0  0  0  0  0  0  0  0
   -1.0240   -0.1468    0.7262 C   0  0  1  0  0  0  0  0  0  0  0  0
   -1.2496    0.9205    0.7378 H   0  0  0  0  0  0  0  0  0  0  0  0
   -0.2568   -0.5028    2.0144 C   0  0  0  0  0  0  0  0  0  0  0  0
   -0.1863   -1.5900    2.0872 H   0  0  0  0  0  0  0  0  0  0  0  0
    0.7549   -0.0992    1.9537 H   0  0  0  0  0  0  0  0  0  0  0  0
   -0.9349    0.0202    3.2903 C   0  0  0  0  0  0  0  0  0  0  0  0
   -1.0293    1.1051    3.2364 H   0  0  0  0  0  0  0  0  0  0  0  0
   -1.9296   -0.4213    3.3749 H   0  0  0  0  0  0  0  0  0  0  0  0
   -0.1152   -0.3423    4.5338 C   0  0  0  0  0  0  0  0  0  0  0  0
   -0.0054   -1.4253    4.5975 H   0  0  0  0  0  0  0  0  0  0  0  0
    0.8716    0.1164    4.4652 H   0  0  0  0  0  0  0  0  0  0  0  0
   -0.8231    0.1668    5.7880 C   0  0  0  0  0  0  0  0  0  0  0  0
   -0.9173    1.2503    5.7352 H   0  0  0  0  0  0  0  0  0  0  0  0
   -1.8156   -0.2766    5.8487 H   0  0  0  0  0  0  0  0  0  0  0  0
   -0.0756   -0.1846    7.0008 N   0  0  0  0  0  0  0  0  0  0  0  0
   -0.5634    0.1783    7.8067 H   0  0  0  0  0  0  0  0  0  0  0  0
   -0.0127   -1.1903    7.0716 H   0  0  0  0  0  0  0  0  0  0  0  0
   -0.2105   -0.4567   -0.5411 C   0  0  0  0  0  0  0  0  0  0  0  0
   -0.5437    0.0265   -1.6211 O   0  0  0  0  0  0  0  0  0  0  0  0
    0.8451   -1.2680   -0.4068 N   0  0  0  0  0  0  0  0  0  0  0  0
    1.0619   -1.6115    0.5144 H   0  0  0  0  0  0  0  0  0  0  0  0
    1.7097   -1.6724   -1.5144 C   0  0  0  0  0  0  0  0  0  0  0  0
    2.0972   -0.7867   -2.0225 H   0  0  0  0  0  0  0  0  0  0  0  0
    2.5445   -2.2701   -1.1456 H   0  0  0  0  0  0  0  0  0  0  0  0
    1.1346   -2.2597   -2.2333 H   0  0  0  0  0  0  0  0  0  0  0  0
  5  6  2  0  0  0  0
  5  7  1  0  0  0  0
  2  3  1  0  0  0  0
  2  4  1  0  0  0  0
  2  5  1  0  0  0  0
  1  2  1  0  0  0  0
 26 27  2  0  0  0  0
 26 28  1  0  0  0  0
 23 24  1  0  0  0  0
 23 25  1  0  0  0  0
 20 21  1  0  0  0  0
 20 22  1  0  0  0  0
 20 23  1  0  0  0  0
 17 18  1  0  0  0  0
 17 19  1  0  0  0  0
 17 20  1  0  0  0  0
 14 15  1  0  0  0  0
 14 16  1  0  0  0  0
 14 17  1  0  0  0  0
 11 12  1  0  0  0  0
 11 13  1  0  0  0  0
 11 14  1  0  0  0  0
  9 10  1  0  0  0  0
  9 11  1  0  0  0  0
  9 26  1  0  0  0  0
  7  8  1  0  0  0  0
  7  9  1  0  0  0  0
 30 31  1  0  0  0  0
 30 32  1  0  0  0  0
 30 33  1  0  0  0  0
 28 29  1  0  0  0  0
 28 30  1  0  0  0  0
M  END
$$$$
default_name
  -OEChem-01062215323D

 33 32  0     1  0  0  0  0  0999 V2000
   -3.8420   -3.6918    1.5562 H   0  0  0  0  0  0  0  0  0  0  0  0
   -3.8430   -2.7008    1.1032 C   0  0  0  0  0  0  0  0  0  0  0  0
   -4.5510   -2.0608    1.6242 H   0  0  0  0  0  0  0  0  0  0  0  0
   -4.1140   -2.7798    0.0522 H   0  0  0  0  0  0  0  0  0  0  0  0
   -2.4570   -2.1098    1.2172 C   0  0  0  0  0  0  0  0  0  0  0  0
   -1.5600   -2.7438    1.7572 O   0  0  0  0  0  0  0  0  0  0  0  0
   -2.2870   -0.8898    0.7102 N   0  0  0  0  0  0  0  0  0  0  0  0
   -3.0820   -0.4218    0.2992 H   0  0  0  0  0  0  0  0  0  0  0  0
   -1.0240   -0.1468    0.7262 C   0  0  1  0  0  0  0  0  0  0  0  0
   -1.2496    0.9205    0.7378 H   0  0  0  0  0  0  0  0  0  0  0  0
   -0.2568   -0.5028    2.0144 C   0  0  0  0  0  0  0  0  0  0  0  0
   -0.1863   -1.5900    2.0872 H   0  0  0  0  0  0  0  0  0  0  0  0
    0.7549   -0.0992    1.9537 H   0  0  0  0  0  0  0  0  0  0  0  0
   -0.9349    0.0202    3.2903 C   0  0  0  0  0  0  0  0  0  0  0  0
   -1.0293    1.1051    3.2364 H   0  0  0  0  0  0  0  0  0  0  0  0
   -1.9296   -0.4213    3.3749 H   0  0  0  0  0  0  0  0  0  0  0  0
   -0.1152   -0.3423    4.5338 C   0  0  0  0  0  0  0  0  0  0  0  0
   -0.0054   -1.4253    4.5975 H   0  0  0  0  0  0  0  0  0  0  0  0
    0.8716    0.1164    4.4652 H   0  0  0  0  0  0  0  0  0  0  0  0
   -0.8231    0.1668    5.7880 C   0  0  0  0  0  0  0  0  0  0  0  0
   -0.9173    1.2503    5.7352 H   0  0  0  0  0  0  0  0  0  0  0  0
   -1.8156   -0.2766    5.8487 H   0  0  0  0  0  0  0  0  0  0  0  0
   -0.0756   -0.1846    7.0008 N   0  0  0  0  0  0  0  0  0  0  0  0
   -0.5634    0.1783    7.8067 H   0  0  0  0  0  0  0  0  0  0  0  0
   -0.0127   -1.1903    7.0716 H   0  0  0  0  0  0  0  0  0  0  0  0
   -0.2105   -0.4567   -0.5411 C   0  0  0  0  0  0  0  0  0  0  0  0
   -0.3618    0.2248   -1.5528 O   0  0  0  0  0  0  0  0  0  0  0  0
    0.6401   -1.4881   -0.4845 N   0  0  0  0  0  0  0  0  0  0  0  0
    0.7177   -1.9884    0.3857 H   0  0  0  0  0  0  0  0  0  0  0  0
    1.4729   -1.9216   -1.6054 C   0  0  0  0  0  0  0  0  0  0  0  0
    2.0707   -1.0821   -1.9672 H   0  0  0  0  0  0  0  0  0  0  0  0
    2.1372   -2.7292   -1.2948 H   0  0  0  0  0  0  0  0  0  0  0  0
    0.8370   -2.2704   -2.4218 H   0  0  0  0  0  0  0  0  0  0  0  0
  5  6  2  0  0  0  0
  5  7  1  0  0  0  0
  2  3  1  0  0  0  0
  2  4  1  0  0  0  0
  2  5  1  0  0  0  0
  1  2  1  0  0  0  0
 26 27  2  0  0  0  0
 26 28  1  0  0  0  0
 23 24  1  0  0  0  0
 23 25  1  0  0  0  0
 20 21  1  0  0  0  0
 20 22  1  0  0  0  0
 20 23  1  0  0  0  0
 17 18  1  0  0  0  0
 17 19  1  0  0  0  0
 17 20  1  0  0  0  0
 14 15  1  0  0  0  0
 14 16  1  0  0  0  0
 14 17  1  0  0  0  0
 11 12  1  0  0  0  0
 11 13  1  0  0  0  0
 11 14  1  0  0  0  0
  9 10  1  0  0  0  0
  9 11  1  0  0  0  0
  9 26  1  0  0  0  0
  7  8  1  0  0  0  0
  7  9  1  0  0  0  0
 30 31  1  0  0  0  0
 30 32  1  0  0  0  0
 30 33  1  0  0  0  0
 28 29  1  0  0  0  0
 28 30  1  0  0  0  0
M  END
$$$$
default_name
  -OEChem-01062215323D

 33 32  0     1  0  0  0  0  0999 V2000
   -3.8420   -3.6918    1.5562 H   0  0  0  0  0  0  0  0  0  0  0  0
   -3.8430   -2.7008    1.1032 C   0  0  0  0  0  0  0  0  0  0  0  0
   -4.5510   -2.0608    1.6242 H   0  0  0  0  0  0  0  0  0  0  0  0
   -4.1140   -2.7798    0.0522 H   0  0  0  0  0  0  0  0  0  0  0  0
   -2.4570   -2.1098    1.2172 C   0  0  0  0  0  0  0  0  0  0  0  0
   -1.5600   -2.7438    1.7572 O   0  0  0  0  0  0  0  0  0  0  0  0
   -2.2870   -0.8898    0.7102 N   0  0  0  0  0  0  0  0  0  0  0  0
   -3.0820   -0.4218    0.2992 H   0  0  0  0  0  0  0  0  0  0  0  0
   -1.0240   -0.1468    0.7262 C   0  0  1  0  0  0  0  0  0  0  0  0
   -1.2496    0.9205    0.7378 H   0  0  0  0  0  0  0  0  0  0  0  0
   -0.2568   -0.5028    2.0144 C   0  0  0  0  0  0  0  0  0  0  0  0
   -0.1863   -1.5900    2.0872 H   0  0  0  0  0  0  0  0  0  0  0  0
    0.7549   -0.0992    1.9537 H   0  0  0  0  0  0  0  0  0  0  0  0
   -0.9349    0.0202    3.2903 C   0  0  0  0  0  0  0  0  0  0  0  0
   -1.0293    1.1051    3.2364 H   0  0  0  0  0  0  0  0  0  0  0  0
   -1.9296   -0.4213    3.3749 H   0  0  0  0  0  0  0  0  0  0  0  0
   -0.1152   -0.3423    4.5338 C   0  0  0  0  0  0  0  0  0  0  0  0
   -0.0054   -1.4253    4.5975 H   0  0  0  0  0  0  0  0  0  0  0  0
    0.8716    0.1164    4.4652 H   0  0  0  0  0  0  0  0  0  0  0  0
   -0.8231    0.1668    5.7880 C   0  0  0  0  0  0  0  0  0  0  0  0
   -0.9173    1.2503    5.7352 H   0  0  0  0  0  0  0  0  0  0  0  0
   -1.8156   -0.2766    5.8487 H   0  0  0  0  0  0  0  0  0  0  0  0
   -0.0756   -0.1846    7.0008 N   0  0  0  0  0  0  0  0  0  0  0  0
   -0.5634    0.1783    7.8067 H   0  0  0  0  0  0  0  0  0  0  0  0
   -0.0127   -1.1903    7.0716 H   0  0  0  0  0  0  0  0  0  0  0  0
   -0.2105   -0.4567   -0.5411 C   0  0  0  0  0  0  0  0  0  0  0  0
   -0.1473    0.3681   -1.4502 O   0  0  0  0  0  0  0  0  0  0  0  0
    0.3991   -1.6464   -0.6005 N   0  0  0  0  0  0  0  0  0  0  0  0
    0.3116   -2.2614    0.1918 H   0  0  0  0  0  0  0  0  0  0  0  0
    1.1957   -2.0992   -1.7399 C   0  0  0  0  0  0  0  0  0  0  0  0
    1.9792   -1.3694   -1.9557 H   0  0  0  0  0  0  0  0  0  0  0  0
    1.6535   -3.0654   -1.5230 H   0  0  0  0  0  0  0  0  0  0  0  0
    0.5571   -2.1915   -2.6208 H   0  0  0  0  0  0  0  0  0  0  0  0
  5  6  2  0  0  0  0
  5  7  1  0  0  0  0
  2  3  1  0  0  0  0
  2  4  1  0  0  0  0
  2  5  1  0  0  0  0
  1  2  1  0  0  0  0
 26 27  2  0  0  0  0
 26 28  1  0  0  0  0
 23 24  1  0  0  0  0
 23 25  1  0  0  0  0
 20 21  1  0  0  0  0
 20 22  1  0  0  0  0
 20 23  1  0  0  0  0
 17 18  1  0  0  0  0
 17 19  1  0  0  0  0
 17 20  1  0  0  0  0
 14 15  1  0  0  0  0
 14 16  1  0  0  0  0
 14 17  1  0  0  0  0
 11 12  1  0  0  0  0
 11 13  1  0  0  0  0
 11 14  1  0  0  0  0
  9 10  1  0  0  0  0
  9 11  1  0  0  0  0
  9 26  1  0  0  0  0
  7  8  1  0  0  0  0
  7  9  1  0  0  0  0
 30 31  1  0  0  0  0
 30 32  1  0  0  0  0
 30 33  1  0  0  0  0
 28 29  1  0  0  0  0
 28 30  1  0  0  0  0
M  END
$$$$
default_name
  -OEChem-01062215323D

 33 32  0     1  0  0  0  0  0999 V2000
   -3.8420   -3.6918    1.5562 H   0  0  0  0  0  0  0  0  0  0  0  0
   -3.8430   -2.7008    1.1032 C   0  0  0  0  0  0  0  0  0  0  0  0
   -4.5510   -2.0608    1.6242 H   0  0  0  0  0  0  0  0  0  0  0  0
   -4.1140   -2.7798    0.0522 H   0  0  0  0  0  0  0  0  0  0  0  0
   -2.4570   -2.1098    1.2172 C   0  0  0  0  0  0  0  0  0  0  0  0
   -1.5600   -2.7438    1.7572 O   0  0  0  0  0  0  0  0  0  0  0  0
   -2.2870   -0.8898    0.7102 N   0  0  0  0  0  0  0  0  0  0  0  0
   -3.0820   -0.4218    0.2992 H   0  0  0  0  0  0  0  0  0  0  0  0
   -1.0240   -0.1468    0.7262 C   0  0  1  0  0  0  0  0  0  0  0  0
   -1.2496    0.9205    0.7378 H   0  0  0  0  0  0  0  0  0  0  0  0
   -0.2568   -0.5028    2.0144 C   0  0  0  0  0  0  0  0  0  0  0  0
   -0.1863   -1.5900    2.0872 H   0  0  0  0  0  0  0  0  0  0  0  0
    0.7549   -0.0992    1.9537 H   0  0  0  0  0  0  0  0  0  0  0  0
   -0.9349    0.0202    3.2903 C   0  0  0  0  0  0  0  0  0  0  0  0
   -1.0293    1.1051    3.2364 H   0  0  0  0  0  0  0  0  0  0  0  0
   -1.9296   -0.4213    3.3749 H   0  0  0  0  0  0  0  0  0  0  0  0
   -0.1152   -0.3423    4.5338 C   0  0  0  0  0  0  0  0  0  0  0  0
   -0.0054   -1.4253    4.5975 H   0  0  0  0  0  0  0  0  0  0  0  0
    0.8716    0.1164    4.4652 H   0  0  0  0  0  0  0  0  0  0  0  0
   -0.8231    0.1668    5.7880 C   0  0  0  0  0  0  0  0  0  0  0  0
   -0.9173    1.2503    5.7352 H   0  0  0  0  0  0  0  0  0  0  0  0
   -1.8156   -0.2766    5.8487 H   0  0  0  0  0  0  0  0  0  0  0  0
   -0.0756   -0.1846    7.0008 N   0  0  0  0  0  0  0  0  0  0  0  0
   -0.5634    0.1783    7.8067 H   0  0  0  0  0  0  0  0  0  0  0  0
   -0.0127   -1.1903    7.0716 H   0  0  0  0  0  0  0  0  0  0  0  0
   -0.2105   -0.4567   -0.5411 C   0  0  0  0  0  0  0  0  0  0  0  0
    0.0850    0.4468   -1.3203 O   0  0  0  0  0  0  0  0  0  0  0  0
    0.1387   -1.7320   -0.7467 N   0  0  0  0  0  0  0  0  0  0  0  0
   -0.1287   -2.4119   -0.0540 H   0  0  0  0  0  0  0  0  0  0  0  0
    0.8972   -2.1932   -1.9085 C   0  0  0  0  0  0  0  0  0  0  0  0
    1.8289   -1.6290   -1.9886 H   0  0  0  0  0  0  0  0  0  0  0  0
    1.1266   -3.2557   -1.8147 H   0  0  0  0  0  0  0  0  0  0  0  0
    0.3139   -2.0284   -2.8168 H   0  0  0  0  0  0  0  0  0  0  0  0
  5  6  2  0  0  0  0
  5  7  1  0  0  0  0
  2  3  1  0  0  0  0
  2  4  1  0  0  0  0
  2  5  1  0  0  0  0
  1  2  1  0  0  0  0
 26 27  2  0  0  0  0
 26 28  1  0  0  0  0
 23 24  1  0  0  0  0
 23 25  1  0  0  0  0
 20 21  1  0  0  0  0
 20 22  1  0  0  0  0
 20 23  1  0  0  0  0
 17 18  1  0  0  0  0
 17 19  1  0  0  0  0
 17 20  1  0  0  0  0
 14 15  1  0  0  0  0
 14 16  1  0  0  0  0
 14 17  1  0  0  0  0
 11 12  1  0  0  0  0
 11 13  1  0  0  0  0
 11 14  1  0  0  0  0
  9 10  1  0  0  0  0
  9 11  1  0  0  0  0
  9 26  1  0  0  0  0
  7  8  1  0  0  0  0
  7  9  1  0  0  0  0
 30 31  1  0  0  0  0
 30 32  1  0  0  0  0
 30 33  1  0  0  0  0
 28 29  1  0  0  0  0
 28 30  1  0  0  0  0
M  END
$$$$
default_name
  -OEChem-01062215323D

 33 32  0     1  0  0  0  0  0999 V2000
   -3.8420   -3.6918    1.5562 H   0  0  0  0  0  0  0  0  0  0  0  0
   -3.8430   -2.7008    1.1032 C   0  0  0  0  0  0  0  0  0  0  0  0
   -4.5510   -2.0608    1.6242 H   0  0  0  0  0  0  0  0  0  0  0  0
   -4.1140   -2.7798    0.0522 H   0  0  0  0  0  0  0  0  0  0  0  0
   -2.4570   -2.1098    1.2172 C   0  0  0  0  0  0  0  0  0  0  0  0
   -1.5600   -2.7438    1.7572 O   0  0  0  0  0  0  0  0  0  0  0  0
   -2.2870   -0.8898    0.7102 N   0  0  0  0  0  0  0  0  0  0  0  0
   -3.0820   -0.4218    0.2992 H   0  0  0  0  0  0  0  0  0  0  0  0
   -1.0240   -0.1468    0.7262 C   0  0  1  0  0  0  0  0  0  0  0  0
   -1.2496    0.9205    0.7378 H   0  0  0  0  0  0  0  0  0  0  0  0
   -0.2568   -0.5028    2.0144 C   0  0  0  0  0  0  0  0  0  0  0  0
   -0.1863   -1.5900    2.0872 H   0  0  0  0  0  0  0  0  0  0  0  0
    0.7549   -0.0992    1.9537 H   0  0  0  0  0  0  0  0  0  0  0  0
   -0.9349    0.0202    3.2903 C   0  0  0  0  0  0  0  0  0  0  0  0
   -1.0293    1.1051    3.2364 H   0  0  0  0  0  0  0  0  0  0  0  0
   -1.9296   -0.4213    3.3749 H   0  0  0  0  0  0  0  0  0  0  0  0
   -0.1152   -0.3423    4.5338 C   0  0  0  0  0  0  0  0  0  0  0  0
   -0.0054   -1.4253    4.5975 H   0  0  0  0  0  0  0  0  0  0  0  0
    0.8716    0.1164    4.4652 H   0  0  0  0  0  0  0  0  0  0  0  0
   -0.8231    0.1668    5.7880 C   0  0  0  0  0  0  0  0  0  0  0  0
   -0.9173    1.2503    5.7352 H   0  0  0  0  0  0  0  0  0  0  0  0
   -1.8156   -0.2766    5.8487 H   0  0  0  0  0  0  0  0  0  0  0  0
   -0.0756   -0.1846    7.0008 N   0  0  0  0  0  0  0  0  0  0  0  0
   -0.5634    0.1783    7.8067 H   0  0  0  0  0  0  0  0  0  0  0  0
   -0.0127   -1.1903    7.0716 H   0  0  0  0  0  0  0  0  0  0  0  0
   -0.2105   -0.4567   -0.5411 C   0  0  0  0  0  0  0  0  0  0  0  0
    0.3195    0.4554   -1.1719 O   0  0  0  0  0  0  0  0  0  0  0  0
   -0.1235   -1.7391   -0.9133 N   0  0  0  0  0  0  0  0  0  0  0  0
   -0.5734   -2.4297   -0.3351 H   0  0  0  0  0  0  0  0  0  0  0  0
    0.5975   -2.1973   -2.0999 C   0  0  0  0  0  0  0  0  0  0  0  0
    1.6301   -1.8431   -2.0639 H   0  0  0  0  0  0  0  0  0  0  0  0
    0.5922   -3.2871   -2.1500 H   0  0  0  0  0  0  0  0  0  0  0  0
    0.1240   -1.7920   -2.9965 H   0  0  0  0  0  0  0  0  0  0  0  0
  5  6  2  0  0  0  0
  5  7  1  0  0  0  0
  2  3  1  0  0  0  0
  2  4  1  0  0  0  0
  2  5  1  0  0  0  0
  1  2  1  0  0  0  0
 26 27  2  0  0  0  0
 26 28  1  0  0  0  0
 23 24  1  0  0  0  0
 23 25  1  0  0  0  0
 20 21  1  0  0  0  0
 20 22  1  0  0  0  0
 20 23  1  0  0  0  0
 17 18  1  0  0  0  0
 17 19  1  0  0  0  0
 17 20  1  0  0  0  0
 14 15  1  0  0  0  0
 14 16  1  0  0  0  0
 14 17  1  0  0  0  0
 11 12  1  0  0  0  0
 11 13  1  0  0  0  0
 11 14  1  0  0  0  0
  9 10  1  0  0  0  0
  9 11  1  0  0  0  0
  9 26  1  0  0  0  0
  7  8  1  0  0  0  0
  7  9  1  0  0  0  0
 30 31  1  0  0  0  0
 30 32  1  0  0  0  0
 30 33  1  0  0  0  0
 28 29  1  0  0  0  0
 28 30  1  0  0  0  0
M  END
$$$$
default_name
  -OEChem-01062215323D

 33 32  0     1  0  0  0  0  0999 V2000
   -3.8420   -3.6918    1.5562 H   0  0  0  0  0  0  0  0  0  0  0  0
   -3.8430   -2.7008    1.1032 C   0  0  0  0  0  0  0  0  0  0  0  0
   -4.5510   -2.0608    1.6242 H   0  0  0  0  0  0  0  0  0  0  0  0
   -4.1140   -2.7798    0.0522 H   0  0  0  0  0  0  0  0  0  0  0  0
   -2.4570   -2.1098    1.2172 C   0  0  0  0  0  0  0  0  0  0  0  0
   -1.5600   -2.7438    1.7572 O   0  0  0  0  0  0  0  0  0  0  0  0
   -2.2870   -0.8898    0.7102 N   0  0  0  0  0  0  0  0  0  0  0  0
   -3.0820   -0.4218    0.2992 H   0  0  0  0  0  0  0  0  0  0  0  0
   -1.0240   -0.1468    0.7262 C   0  0  1  0  0  0  0  0  0  0  0  0
   -1.2496    0.9205    0.7378 H   0  0  0  0  0  0  0  0  0  0  0  0
   -0.2568   -0.5028    2.0144 C   0  0  0  0  0  0  0  0  0  0  0  0
   -0.1863   -1.5900    2.0872 H   0  0  0  0  0  0  0  0  0  0  0  0
    0.7549   -0.0992    1.9537 H   0  0  0  0  0  0  0  0  0  0  0  0
   -0.9349    0.0202    3.2903 C   0  0  0  0  0  0  0  0  0  0  0  0
   -1.0293    1.1051    3.2364 H   0  0  0  0  0  0  0  0  0  0  0  0
   -1.9296   -0.4213    3.3749 H   0  0  0  0  0  0  0  0  0  0  0  0
   -0.1152   -0.3423    4.5338 C   0  0  0  0  0  0  0  0  0  0  0  0
   -0.0054   -1.4253    4.5975 H   0  0  0  0  0  0  0  0  0  0  0  0
    0.8716    0.1164    4.4652 H   0  0  0  0  0  0  0  0  0  0  0  0
   -0.8231    0.1668    5.7880 C   0  0  0  0  0  0  0  0  0  0  0  0
   -0.9173    1.2503    5.7352 H   0  0  0  0  0  0  0  0  0  0  0  0
   -1.8156   -0.2766    5.8487 H   0  0  0  0  0  0  0  0  0  0  0  0
   -0.0756   -0.1846    7.0008 N   0  0  0  0  0  0  0  0  0  0  0  0
   -0.5634    0.1783    7.8067 H   0  0  0  0  0  0  0  0  0  0  0  0
   -0.0127   -1.1903    7.0716 H   0  0  0  0  0  0  0  0  0  0  0  0
   -0.2105   -0.4567   -0.5411 C   0  0  0  0  0  0  0  0  0  0  0  0
    0.5401    0.3934   -1.0152 O   0  0  0  0  0  0  0  0  0  0  0  0
   -0.3696   -1.6672   -1.0889 N   0  0  0  0  0  0  0  0  0  0  0  0
   -0.9920   -2.3135   -0.6322 H   0  0  0  0  0  0  0  0  0  0  0  0
    0.3172   -2.1111   -2.3009 C   0  0  0  0  0  0  0  0  0  0  0  0
    1.3963   -1.9973   -2.1762 H   0  0  0  0  0  0  0  0  0  0  0  0
    0.0869   -3.1575   -2.5061 H   0  0  0  0  0  0  0  0  0  0  0  0
    0.0004   -1.4986   -3.1476 H   0  0  0  0  0  0  0  0  0  0  0  0
  5  6  2  0  0  0  0
  5  7  1  0  0  0  0
  2  3  1  0  0  0  0
  2  4  1  0  0  0  0
  2  5  1  0  0  0  0
  1  2  1  0  0  0  0
 26 27  2  0  0  0  0
 26 28  1  0  0  0  0
 23 24  1  0  0  0  0
 23 25  1  0  0  0  0
 20 21  1  0  0  0  0
 20 22  1  0  0  0  0
 20 23  1  0  0  0  0
 17 18  1  0  0  0  0
 17 19  1  0  0  0  0
 17 20  1  0  0  0  0
 14 15  1  0  0  0  0
 14 16  1  0  0  0  0
 14 17  1  0  0  0  0
 11 12  1  0  0  0  0
 11 13  1  0  0  0  0
 11 14  1  0  0  0  0
  9 10  1  0  0  0  0
  9 11  1  0  0  0  0
  9 26  1  0  0  0  0
  7  8  1  0  0  0  0
  7  9  1  0  0  0  0
 30 31  1  0  0  0  0
 30 32  1  0  0  0  0
 30 33  1  0  0  0  0
 28 29  1  0  0  0  0
 28 30  1  0  0  0  0
M  END
$$$$
default_name
  -OEChem-01062215323D

 33 32  0     1  0  0  0  0  0999 V2000
   -3.8420   -3.6918    1.5562 H   0  0  0  0  0  0  0  0  0  0  0  0
   -3.8430   -2.7008    1.1032 C   0  0  0  0  0  0  0  0  0  0  0  0
   -4.5510   -2.0608    1.6242 H   0  0  0  0  0  0  0  0  0  0  0  0
   -4.1140   -2.7798    0.0522 H   0  0  0  0  0  0  0  0  0  0  0  0
   -2.4570   -2.1098    1.2172 C   0  0  0  0  0  0  0  0  0  0  0  0
   -1.5600   -2.7438    1.7572 O   0  0  0  0  0  0  0  0  0  0  0  0
   -2.2870   -0.8898    0.7102 N   0  0  0  0  0  0  0  0  0  0  0  0
   -3.0820   -0.4218    0.2992 H   0  0  0  0  0  0  0  0  0  0  0  0
   -1.0240   -0.1468    0.7262 C   0  0  1  0  0  0  0  0  0  0  0  0
   -1.2496    0.9205    0.7378 H   0  0  0  0  0  0  0  0  0  0  0  0
   -0.2568   -0.5028    2.0144 C   0  0  0  0  0  0  0  0  0  0  0  0
   -0.1863   -1.5900    2.0872 H   0  0  0  0  0  0  0  0  0  0  0  0
    0.7549   -0.0992    1.9537 H   0  0  0  0  0  0  0  0  0  0  0  0
   -0.9349    0.0202    3.2903 C   0  0  0  0  0  0  0  0  0  0  0  0
   -1.0293    1.1051    3.2364 H   0  0  0  0  0  0  0  0  0  0  0  0
   -1.9296   -0.4213    3.3749 H   0  0  0  0  0  0  0  0  0  0  0  0
   -0.1152   -0.3423    4.5338 C   0  0  0  0  0  0  0  0  0  0  0  0
   -0.0054   -1.4253    4.5975 H   0  0  0  0  0  0  0  0  0  0  0  0
    0.8716    0.1164    4.4652 H   0  0  0  0  0  0  0  0  0  0  0  0
   -0.8231    0.1668    5.7880 C   0  0  0  0  0  0  0  0  0  0  0  0
   -0.9173    1.2503    5.7352 H   0  0  0  0  0  0  0  0  0  0  0  0
   -1.8156   -0.2766    5.8487 H   0  0  0  0  0  0  0  0  0  0  0  0
   -0.0756   -0.1846    7.0008 N   0  0  0  0  0  0  0  0  0  0  0  0
   -0.5634    0.1783    7.8067 H   0  0  0  0  0  0  0  0  0  0  0  0
   -0.0127   -1.1903    7.0716 H   0  0  0  0  0  0  0  0  0  0  0  0
   -0.2105   -0.4567   -0.5411 C   0  0  0  0  0  0  0  0  0  0  0  0
    0.7317    0.2650   -0.8608 O   0  0  0  0  0  0  0  0  0  0  0  0
   -0.5828   -1.5212   -1.2614 N   0  0  0  0  0  0  0  0  0  0  0  0
   -1.3561   -2.0713   -0.9252 H   0  0  0  0  0  0  0  0  0  0  0  0
    0.0753   -1.9405   -2.4979 C   0  0  0  0  0  0  0  0  0  0  0  0
    1.1435   -2.0809   -2.3181 H   0  0  0  0  0  0  0  0  0  0  0  0
   -0.3550   -2.8758   -2.8587 H   0  0  0  0  0  0  0  0  0  0  0  0
   -0.0485   -1.1681   -3.2598 H   0  0  0  0  0  0  0  0  0  0  0  0
  5  6  2  0  0  0  0
  5  7  1  0  0  0  0
  2  3  1  0  0  0  0
  2  4  1  0  0  0  0
  2  5  1  0  0  0  0
  1  2  1  0  0  0  0
 26 27  2  0  0  0  0
 26 28  1  0  0  0  0
 23 24  1  0  0  0  0
 23 25  1  0  0  0  0
 20 21  1  0  0  0  0
 20 22  1  0  0  0  0
 20 23  1  0  0  0  0
 17 18  1  0  0  0  0
 17 19  1  0  0  0  0
 17 20  1  0  0  0  0
 14 15  1  0  0  0  0
 14 16  1  0  0  0  0
 14 17  1  0  0  0  0
 11 12  1  0  0  0  0
 11 13  1  0  0  0  0
 11 14  1  0  0  0  0
  9 10  1  0  0  0  0
  9 11  1  0  0  0  0
  9 26  1  0  0  0  0
  7  8  1  0  0  0  0
  7  9  1  0  0  0  0
 30 31  1  0  0  0  0
 30 32  1  0  0  0  0
 30 33  1  0  0  0  0
 28 29  1  0  0  0  0
 28 30  1  0  0  0  0
M  END
$$$$
default_name
  -OEChem-01062215323D

 33 32  0     1  0  0  0  0  0999 V2000
   -3.8420   -3.6918    1.5562 H   0  0  0  0  0  0  0  0  0  0  0  0
   -3.8430   -2.7008    1.1032 C   0  0  0  0  0  0  0  0  0  0  0  0
   -4.5510   -2.0608    1.6242 H   0  0  0  0  0  0  0  0  0  0  0  0
   -4.1140   -2.7798    0.0522 H   0  0  0  0  0  0  0  0  0  0  0  0
   -2.4570   -2.1098    1.2172 C   0  0  0  0  0  0  0  0  0  0  0  0
   -1.5600   -2.7438    1.7572 O   0  0  0  0  0  0  0  0  0  0  0  0
   -2.2870   -0.8898    0.7102 N   0  0  0  0  0  0  0  0  0  0  0  0
   -3.0820   -0.4218    0.2992 H   0  0  0  0  0  0  0  0  0  0  0  0
   -1.0240   -0.1468    0.7262 C   0  0  1  0  0  0  0  0  0  0  0  0
   -1.2496    0.9205    0.7378 H   0  0  0  0  0  0  0  0  0  0  0  0
   -0.2568   -0.5028    2.0144 C   0  0  0  0  0  0  0  0  0  0  0  0
   -0.1863   -1.5900    2.0872 H   0  0  0  0  0  0  0  0  0  0  0  0
    0.7549   -0.0992    1.9537 H   0  0  0  0  0  0  0  0  0  0  0  0
   -0.9349    0.0202    3.2903 C   0  0  0  0  0  0  0  0  0  0  0  0
   -1.0293    1.1051    3.2364 H   0  0  0  0  0  0  0  0  0  0  0  0
   -1.9296   -0.4213    3.3749 H   0  0  0  0  0  0  0  0  0  0  0  0
   -0.1152   -0.3423    4.5338 C   0  0  0  0  0  0  0  0  0  0  0  0
   -0.0054   -1.4253    4.5975 H   0  0  0  0  0  0  0  0  0  0  0  0
    0.8716    0.1164    4.4652 H   0  0  0  0  0  0  0  0  0  0  0  0
   -0.8231    0.1668    5.7880 C   0  0  0  0  0  0  0  0  0  0  0  0
   -0.9173    1.2503    5.7352 H   0  0  0  0  0  0  0  0  0  0  0  0
   -1.8156   -0.2766    5.8487 H   0  0  0  0  0  0  0  0  0  0  0  0
   -0.0756   -0.1846    7.0008 N   0  0  0  0  0  0  0  0  0  0  0  0
   -0.5634    0.1783    7.8067 H   0  0  0  0  0  0  0  0  0  0  0  0
   -0.0127   -1.1903    7.0716 H   0  0  0  0  0  0  0  0  0  0  0  0
   -0.2105   -0.4567   -0.5411 C   0  0  0  0  0  0  0  0  0  0  0  0
    0.8814    0.0790   -0.7192 O   0  0  0  0  0  0  0  0  0  0  0  0
   -0.7486   -1.3110   -1.4192 N   0  0  0  0  0  0  0  0  0  0  0  0
   -1.6408   -1.7195   -1.1940 H   0  0  0  0  0  0  0  0  0  0  0  0
   -0.1117   -1.6971   -2.6774 C   0  0  0  0  0  0  0  0  0  0  0  0
    0.8888   -2.0883   -2.4798 H   0  0  0  0  0  0  0  0  0  0  0  0
   -0.7034   -2.4611   -3.1837 H   0  0  0  0  0  0  0  0  0  0  0  0
   -0.0194   -0.8231   -3.3255 H   0  0  0  0  0  0  0  0  0  0  0  0
  5  6  2  0  0  0  0
  5  7  1  0  0  0  0
  2  3  1  0  0  0  0
  2  4  1  0  0  0  0
  2  5  1  0  0  0  0
  1  2  1  0  0  0  0
 26 27  2  0  0  0  0
 26 28  1  0  0  0  0
 23 24  1  0  0  0  0
 23 25  1  0  0  0  0
 20 21  1  0  0  0  0
 20 22  1  0  0  0  0
 20 23  1  0  0  0  0
 17 18  1  0  0  0  0
 17 19  1  0  0  0  0
 17 20  1  0  0  0  0
 14 15  1  0  0  0  0
 14 16  1  0  0  0  0
 14 17  1  0  0  0  0
 11 12  1  0  0  0  0
 11 13  1  0  0  0  0
 11 14  1  0  0  0  0
  9 10  1  0  0  0  0
  9 11  1  0  0  0  0
  9 26  1  0  0  0  0
  7  8  1  0  0  0  0
  7  9  1  0  0  0  0
 30 31  1  0  0  0  0
 30 32  1  0  0  0  0
 30 33  1  0  0  0  0
 28 29  1  0  0  0  0
 28 30  1  0  0  0  0
M  END
$$$$
default_name
  -OEChem-01062215323D

 33 32  0     1  0  0  0  0  0999 V2000
   -3.8420   -3.6918    1.5562 H   0  0  0  0  0  0  0  0  0  0  0  0
   -3.8430   -2.7008    1.1032 C   0  0  0  0  0  0  0  0  0  0  0  0
   -4.5510   -2.0608    1.6242 H   0  0  0  0  0  0  0  0  0  0  0  0
   -4.1140   -2.7798    0.0522 H   0  0  0  0  0  0  0  0  0  0  0  0
   -2.4570   -2.1098    1.2172 C   0  0  0  0  0  0  0  0  0  0  0  0
   -1.5600   -2.7438    1.7572 O   0  0  0  0  0  0  0  0  0  0  0  0
   -2.2870   -0.8898    0.7102 N   0  0  0  0  0  0  0  0  0  0  0  0
   -3.0820   -0.4218    0.2992 H   0  0  0  0  0  0  0  0  0  0  0  0
   -1.0240   -0.1468    0.7262 C   0  0  1  0  0  0  0  0  0  0  0  0
   -1.2496    0.9205    0.7378 H   0  0  0  0  0  0  0  0  0  0  0  0
   -0.2568   -0.5028    2.0144 C   0  0  0  0  0  0  0  0  0  0  0  0
   -0.1863   -1.5900    2.0872 H   0  0  0  0  0  0  0  0  0  0  0  0
    0.7549   -0.0992    1.9537 H   0  0  0  0  0  0  0  0  0  0  0  0
   -0.9349    0.0202    3.2903 C   0  0  0  0  0  0  0  0  0  0  0  0
   -1.0293    1.1051    3.2364 H   0  0  0  0  0  0  0  0  0  0  0  0
   -1.9296   -0.4213    3.3749 H   0  0  0  0  0  0  0  0  0  0  0  0
   -0.1152   -0.3423    4.5338 C   0  0  0  0  0  0  0  0  0  0  0  0
   -0.0054   -1.4253    4.5975 H   0  0  0  0  0  0  0  0  0  0  0  0
    0.8716    0.1164    4.4652 H   0  0  0  0  0  0  0  0  0  0  0  0
   -0.8231    0.1668    5.7880 C   0  0  0  0  0  0  0  0  0  0  0  0
   -0.9173    1.2503    5.7352 H   0  0  0  0  0  0  0  0  0  0  0  0
   -1.8156   -0.2766    5.8487 H   0  0  0  0  0  0  0  0  0  0  0  0
   -0.0756   -0.1846    7.0008 N   0  0  0  0  0  0  0  0  0  0  0  0
   -0.5634    0.1783    7.8067 H   0  0  0  0  0  0  0  0  0  0  0  0
   -0.0127   -1.1903    7.0716 H   0  0  0  0  0  0  0  0  0  0  0  0
   -0.2105   -0.4567   -0.5411 C   0  0  0  0  0  0  0  0  0  0  0  0
    0.9789   -0.1521   -0.6001 O   0  0  0  0  0  0  0  0  0  0  0  0
   -0.8556   -1.0511   -1.5515 N   0  0  0  0  0  0  0  0  0  0  0  0
   -1.8267   -1.2822   -1.4203 H   0  0  0  0  0  0  0  0  0  0  0  0
   -0.2310   -1.3976   -2.8273 C   0  0  0  0  0  0  0  0  0  0  0  0
    0.6496   -2.0190   -2.6502 H   0  0  0  0  0  0  0  0  0  0  0  0
   -0.9345   -1.9418   -3.4591 H   0  0  0  0  0  0  0  0  0  0  0  0
    0.0857   -0.4871   -3.3402 H   0  0  0  0  0  0  0  0  0  0  0  0
  5  6  2  0  0  0  0
  5  7  1  0  0  0  0
  2  3  1  0  0  0  0
  2  4  1  0  0  0  0
  2  5  1  0  0  0  0
  1  2  1  0  0  0  0
 26 27  2  0  0  0  0
 26 28  1  0  0  0  0
 23 24  1  0  0  0  0
 23 25  1  0  0  0  0
 20 21  1  0  0  0  0
 20 22  1  0  0  0  0
 20 23  1  0  0  0  0
 17 18  1  0  0  0  0
 17 19  1  0  0  0  0
 17 20  1  0  0  0  0
 14 15  1  0  0  0  0
 14 16  1  0  0  0  0
 14 17  1  0  0  0  0
 11 12  1  0  0  0  0
 11 13  1  0  0  0  0
 11 14  1  0  0  0  0
  9 10  1  0  0  0  0
  9 11  1  0  0  0  0
  9 26  1  0  0  0  0
  7  8  1  0  0  0  0
  7  9  1  0  0  0  0
 30 31  1  0  0  0  0
 30 32  1  0  0  0  0
 30 33  1  0  0  0  0
 28 29  1  0  0  0  0
 28 30  1  0  0  0  0
M  END
$$$$
default_name
  -OEChem-01062215323D

 33 32  0     1  0  0  0  0  0999 V2000
   -3.8420   -3.6918    1.5562 H   0  0  0  0  0  0  0  0  0  0  0  0
   -3.8430   -2.7008    1.1032 C   0  0  0  0  0  0  0  0  0  0  0  0
   -4.5510   -2.0608    1.6242 H   0  0  0  0  0  0  0  0  0  0  0  0
   -4.1140   -2.7798    0.0522 H   0  0  0  0  0  0  0  0  0  0  0  0
   -2.4570   -2.1098    1.2172 C   0  0  0  0  0  0  0  0  0  0  0  0
   -1.5600   -2.7438    1.7572 O   0  0  0  0  0  0  0  0  0  0  0  0
   -2.2870   -0.8898    0.7102 N   0  0  0  0  0  0  0  0  0  0  0  0
   -3.0820   -0.4218    0.2992 H   0  0  0  0  0  0  0  0  0  0  0  0
   -1.0240   -0.1468    0.7262 C   0  0  1  0  0  0  0  0  0  0  0  0
   -1.2496    0.9205    0.7378 H   0  0  0  0  0  0  0  0  0  0  0  0
   -0.2568   -0.5028    2.0144 C   0  0  0  0  0  0  0  0  0  0  0  0
   -0.1863   -1.5900    2.0872 H   0  0  0  0  0  0  0  0  0  0  0  0
    0.7549   -0.0992    1.9537 H   0  0  0  0  0  0  0  0  0  0  0  0
   -0.9349    0.0202    3.2903 C   0  0  0  0  0  0  0  0  0  0  0  0
   -1.0293    1.1051    3.2364 H   0  0  0  0  0  0  0  0  0  0  0  0
   -1.9296   -0.4213    3.3749 H   0  0  0  0  0  0  0  0  0  0  0  0
   -0.1152   -0.3423    4.5338 C   0  0  0  0  0  0  0  0  0  0  0  0
   -0.0054   -1.4253    4.5975 H   0  0  0  0  0  0  0  0  0  0  0  0
    0.8716    0.1164    4.4652 H   0  0  0  0  0  0  0  0  0  0  0  0
   -0.8231    0.1668    5.7880 C   0  0  0  0  0  0  0  0  0  0  0  0
   -0.9173    1.2503    5.7352 H   0  0  0  0  0  0  0  0  0  0  0  0
   -1.8156   -0.2766    5.8487 H   0  0  0  0  0  0  0  0  0  0  0  0
   -0.0756   -0.1846    7.0008 N   0  0  0  0  0  0  0  0  0  0  0  0
   -0.5634    0.1783    7.8067 H   0  0  0  0  0  0  0  0  0  0  0  0
   -0.0127   -1.1903    7.0716 H   0  0  0  0  0  0  0  0  0  0  0  0
   -0.2105   -0.4567   -0.5411 C   0  0  0  0  0  0  0  0  0  0  0  0
    1.0175   -0.4124   -0.5116 O   0  0  0  0  0  0  0  0  0  0  0  0
   -0.8967   -0.7590   -1.6493 N   0  0  0  0  0  0  0  0  0  0  0  0
   -1.9012   -0.7891   -1.5887 H   0  0  0  0  0  0  0  0  0  0  0  0
   -0.2745   -1.0623   -2.9372 C   0  0  0  0  0  0  0  0  0  0  0  0
    0.4423   -1.8777   -2.8179 H   0  0  0  0  0  0  0  0  0  0  0  0
   -1.0325   -1.3531   -3.6660 H   0  0  0  0  0  0  0  0  0  0  0  0
    0.2598   -0.1829   -3.3029 H   0  0  0  0  0  0  0  0  0  0  0  0
  5  6  2  0  0  0  0
  5  7  1  0  0  0  0
  2  3  1  0  0  0  0
  2  4  1  0  0  0  0
  2  5  1  0  0  0  0
  1  2  1  0  0  0  0
 26 27  2  0  0  0  0
 26 28  1  0  0  0  0
 23 24  1  0  0  0  0
 23 25  1  0  0  0  0
 20 21  1  0  0  0  0
 20 22  1  0  0  0  0
 20 23  1  0  0  0  0
 17 18  1  0  0  0  0
 17 19  1  0  0  0  0
 17 20  1  0  0  0  0
 14 15  1  0  0  0  0
 14 16  1  0  0  0  0
 14 17  1  0  0  0  0
 11 12  1  0  0  0  0
 11 13  1  0  0  0  0
 11 14  1  0  0  0  0
  9 10  1  0  0  0  0
  9 11  1  0  0  0  0
  9 26  1  0  0  0  0
  7  8  1  0  0  0  0
  7  9  1  0  0  0  0
 30 31  1  0  0  0  0
 30 32  1  0  0  0  0
 30 33  1  0  0  0  0
 28 29  1  0  0  0  0
 28 30  1  0  0  0  0
M  END
$$$$
default_name
  -OEChem-01062215323D

 33 32  0     1  0  0  0  0  0999 V2000
   -3.8420   -3.6918    1.5562 H   0  0  0  0  0  0  0  0  0  0  0  0
   -3.8430   -2.7008    1.1032 C   0  0  0  0  0  0  0  0  0  0  0  0
   -4.5510   -2.0608    1.6242 H   0  0  0  0  0  0  0  0  0  0  0  0
   -4.1140   -2.7798    0.0522 H   0  0  0  0  0  0  0  0  0  0  0  0
   -2.4570   -2.1098    1.2172 C   0  0  0  0  0  0  0  0  0  0  0  0
   -1.5600   -2.7438    1.7572 O   0  0  0  0  0  0  0  0  0  0  0  0
   -2.2870   -0.8898    0.7102 N   0  0  0  0  0  0  0  0  0  0  0  0
   -3.0820   -0.4218    0.2992 H   0  0  0  0  0  0  0  0  0  0  0  0
   -1.0240   -0.1468    0.7262 C   0  0  1  0  0  0  0  0  0  0  0  0
   -1.2496    0.9205    0.7378 H   0  0  0  0  0  0  0  0  0  0  0  0
   -0.2568   -0.5028    2.0144 C   0  0  0  0  0  0  0  0  0  0  0  0
   -0.1863   -1.5900    2.0872 H   0  0  0  0  0  0  0  0  0  0  0  0
    0.7549   -0.0992    1.9537 H   0  0  0  0  0  0  0  0  0  0  0  0
   -0.9349    0.0202    3.2903 C   0  0  0  0  0  0  0  0  0  0  0  0
   -1.0293    1.1051    3.2364 H   0  0  0  0  0  0  0  0  0  0  0  0
   -1.9296   -0.4213    3.3749 H   0  0  0  0  0  0  0  0  0  0  0  0
   -0.1152   -0.3423    4.5338 C   0  0  0  0  0  0  0  0  0  0  0  0
   -0.0054   -1.4253    4.5975 H   0  0  0  0  0  0  0  0  0  0  0  0
    0.8716    0.1164    4.4652 H   0  0  0  0  0  0  0  0  0  0  0  0
   -0.8231    0.1668    5.7880 C   0  0  0  0  0  0  0  0  0  0  0  0
   -0.9173    1.2503    5.7352 H   0  0  0  0  0  0  0  0  0  0  0  0
   -1.8156   -0.2766    5.8487 H   0  0  0  0  0  0  0  0  0  0  0  0
   -0.0756   -0.1846    7.0008 N   0  0  0  0  0  0  0  0  0  0  0  0
   -0.5634    0.1783    7.8067 H   0  0  0  0  0  0  0  0  0  0  0  0
   -0.0127   -1.1903    7.0716 H   0  0  0  0  0  0  0  0  0  0  0  0
   -0.2105   -0.4567   -0.5411 C   0  0  0  0  0  0  0  0  0  0  0  0
    0.9947   -0.6841   -0.4598 O   0  0  0  0  0  0  0  0  0  0  0  0
   -0.8690   -0.4548   -1.7060 N   0  0  0  0  0  0  0  0  0  0  0  0
   -1.8592   -0.2739   -1.6878 H   0  0  0  0  0  0  0  0  0  0  0  0
   -0.2393   -0.7140   -2.9998 C   0  0  0  0  0  0  0  0  0  0  0  0
    0.2810   -1.6740   -2.9713 H   0  0  0  0  0  0  0  0  0  0  0  0
   -0.9908   -0.7352   -3.7903 H   0  0  0  0  0  0  0  0  0  0  0  0
    0.4908    0.0686   -3.2161 H   0  0  0  0  0  0  0  0  0  0  0  0
  5  6  2  0  0  0  0
  5  7  1  0  0  0  0
  2  3  1  0  0  0  0
  2  4  1  0  0  0  0
  2  5  1  0  0  0  0
  1  2  1  0  0  0  0
 26 27  2  0  0  0  0
 26 28  1  0  0  0  0
 23 24  1  0  0  0  0
 23 25  1  0  0  0  0
 20 21  1  0  0  0  0
 20 22  1  0  0  0  0
 20 23  1  0  0  0  0
 17 18  1  0  0  0  0
 17 19  1  0  0  0  0
 17 20  1  0  0  0  0
 14 15  1  0  0  0  0
 14 16  1  0  0  0  0
 14 17  1  0  0  0  0
 11 12  1  0  0  0  0
 11 13  1  0  0  0  0
 11 14  1  0  0  0  0
  9 10  1  0  0  0  0
  9 11  1  0  0  0  0
  9 26  1  0  0  0  0
  7  8  1  0  0  0  0
  7  9  1  0  0  0  0
 30 31  1  0  0  0  0
 30 32  1  0  0  0  0
 30 33  1  0  0  0  0
 28 29  1  0  0  0  0
 28 30  1  0  0  0  0
M  END
$$$$
default_name
  -OEChem-01062215323D

 33 32  0     1  0  0  0  0  0999 V2000
   -3.8420   -3.6918    1.5562 H   0  0  0  0  0  0  0  0  0  0  0  0
   -3.8430   -2.7008    1.1032 C   0  0  0  0  0  0  0  0  0  0  0  0
   -4.5510   -2.0608    1.6242 H   0  0  0  0  0  0  0  0  0  0  0  0
   -4.1140   -2.7798    0.0522 H   0  0  0  0  0  0  0  0  0  0  0  0
   -2.4570   -2.1098    1.2172 C   0  0  0  0  0  0  0  0  0  0  0  0
   -1.5600   -2.7438    1.7572 O   0  0  0  0  0  0  0  0  0  0  0  0
   -2.2870   -0.8898    0.7102 N   0  0  0  0  0  0  0  0  0  0  0  0
   -3.0820   -0.4218    0.2992 H   0  0  0  0  0  0  0  0  0  0  0  0
   -1.0240   -0.1468    0.7262 C   0  0  1  0  0  0  0  0  0  0  0  0
   -1.2496    0.9205    0.7378 H   0  0  0  0  0  0  0  0  0  0  0  0
   -0.2568   -0.5028    2.0144 C   0  0  0  0  0  0  0  0  0  0  0  0
   -0.1863   -1.5900    2.0872 H   0  0  0  0  0  0  0  0  0  0  0  0
    0.7549   -0.0992    1.9537 H   0  0  0  0  0  0  0  0  0  0  0  0
   -0.9349    0.0202    3.2903 C   0  0  0  0  0  0  0  0  0  0  0  0
   -1.0293    1.1051    3.2364 H   0  0  0  0  0  0  0  0  0  0  0  0
   -1.9296   -0.4213    3.3749 H   0  0  0  0  0  0  0  0  0  0  0  0
   -0.1152   -0.3423    4.5338 C   0  0  0  0  0  0  0  0  0  0  0  0
   -0.0054   -1.4253    4.5975 H   0  0  0  0  0  0  0  0  0  0  0  0
    0.8716    0.1164    4.4652 H   0  0  0  0  0  0  0  0  0  0  0  0
   -0.8231    0.1668    5.7880 C   0  0  0  0  0  0  0  0  0  0  0  0
   -0.9173    1.2503    5.7352 H   0  0  0  0  0  0  0  0  0  0  0  0
   -1.8156   -0.2766    5.8487 H   0  0  0  0  0  0  0  0  0  0  0  0
   -0.0756   -0.1846    7.0008 N   0  0  0  0  0  0  0  0  0  0  0  0
   -0.5634    0.1783    7.8067 H   0  0  0  0  0  0  0  0  0  0  0  0
   -0.0127   -1.1903    7.0716 H   0  0  0  0  0  0  0  0  0  0  0  0
   -0.2105   -0.4567   -0.5411 C   0  0  0  0  0  0  0  0  0  0  0  0
    0.9120   -0.9489   -0.4481 O   0  0  0  0  0  0  0  0  0  0  0  0
   -0.7743   -0.1591   -1.7175 N   0  0  0  0  0  0  0  0  0  0  0  0
   -1.7035    0.2284   -1.7107 H   0  0  0  0  0  0  0  0  0  0  0  0
   -0.1277   -0.3766   -3.0107 C   0  0  0  0  0  0  0  0  0  0  0  0
    0.1766   -1.4218   -3.0999 H   0  0  0  0  0  0  0  0  0  0  0  0
   -0.8122   -0.1303   -3.8237 H   0  0  0  0  0  0  0  0  0  0  0  0
    0.7631    0.2505   -3.0858 H   0  0  0  0  0  0  0  0  0  0  0  0
  5  6  2  0  0  0  0
  5  7  1  0  0  0  0
  2  3  1  0  0  0  0
  2  4  1  0  0  0  0
  2  5  1  0  0  0  0
  1  2  1  0  0  0  0
 26 27  2  0  0  0  0
 26 28  1  0  0  0  0
 23 24  1  0  0  0  0
 23 25  1  0  0  0  0
 20 21  1  0  0  0  0
 20 22  1  0  0  0  0
 20 23  1  0  0  0  0
 17 18  1  0  0  0  0
 17 19  1  0  0  0  0
 17 20  1  0  0  0  0
 14 15  1  0  0  0  0
 14 16  1  0  0  0  0
 14 17  1  0  0  0  0
 11 12  1  0  0  0  0
 11 13  1  0  0  0  0
 11 14  1  0  0  0  0
  9 10  1  0  0  0  0
  9 11  1  0  0  0  0
  9 26  1  0  0  0  0
  7  8  1  0  0  0  0
  7  9  1  0  0  0  0
 30 31  1  0  0  0  0
 30 32  1  0  0  0  0
 30 33  1  0  0  0  0
 28 29  1  0  0  0  0
 28 30  1  0  0  0  0
M  END
$$$$
default_name
  -OEChem-01062215323D

 33 32  0     1  0  0  0  0  0999 V2000
   -3.8420   -3.6918    1.5562 H   0  0  0  0  0  0  0  0  0  0  0  0
   -3.8430   -2.7008    1.1032 C   0  0  0  0  0  0  0  0  0  0  0  0
   -4.5510   -2.0608    1.6242 H   0  0  0  0  0  0  0  0  0  0  0  0
   -4.1140   -2.7798    0.0522 H   0  0  0  0  0  0  0  0  0  0  0  0
   -2.4570   -2.1098    1.2172 C   0  0  0  0  0  0  0  0  0  0  0  0
   -1.5600   -2.7438    1.7572 O   0  0  0  0  0  0  0  0  0  0  0  0
   -2.2870   -0.8898    0.7102 N   0  0  0  0  0  0  0  0  0  0  0  0
   -3.0820   -0.4218    0.2992 H   0  0  0  0  0  0  0  0  0  0  0  0
   -1.0240   -0.1468    0.7262 C   0  0  1  0  0  0  0  0  0  0  0  0
   -1.2496    0.9205    0.7378 H   0  0  0  0  0  0  0  0  0  0  0  0
   -0.2568   -0.5028    2.0144 C   0  0  0  0  0  0  0  0  0  0  0  0
   -0.1863   -1.5900    2.0872 H   0  0  0  0  0  0  0  0  0  0  0  0
    0.7549   -0.0992    1.9537 H   0  0  0  0  0  0  0  0  0  0  0  0
   -0.9349    0.0202    3.2903 C   0  0  0  0  0  0  0  0  0  0  0  0
   -1.0293    1.1051    3.2364 H   0  0  0  0  0  0  0  0  0  0  0  0
   -1.9296   -0.4213    3.3749 H   0  0  0  0  0  0  0  0  0  0  0  0
   -0.1152   -0.3423    4.5338 C   0  0  0  0  0  0  0  0  0  0  0  0
   -0.0054   -1.4253    4.5975 H   0  0  0  0  0  0  0  0  0  0  0  0
    0.8716    0.1164    4.4652 H   0  0  0  0  0  0  0  0  0  0  0  0
   -0.8231    0.1668    5.7880 C   0  0  0  0  0  0  0  0  0  0  0  0
   -0.9173    1.2503    5.7352 H   0  0  0  0  0  0  0  0  0  0  0  0
   -1.8156   -0.2766    5.8487 H   0  0  0  0  0  0  0  0  0  0  0  0
   -0.0756   -0.1846    7.0008 N   0  0  0  0  0  0  0  0  0  0  0  0
   -0.5634    0.1783    7.8067 H   0  0  0  0  0  0  0  0  0  0  0  0
   -0.0127   -1.1903    7.0716 H   0  0  0  0  0  0  0  0  0  0  0  0
   -0.2105   -0.4567   -0.5411 C   0  0  0  0  0  0  0  0  0  0  0  0
    0.7750   -1.1886   -0.4774 O   0  0  0  0  0  0  0  0  0  0  0  0
   -0.6192    0.1080   -1.6833 N   0  0  0  0  0  0  0  0  0  0  0  0
   -1.4448    0.6835   -1.6560 H   0  0  0  0  0  0  0  0  0  0  0  0
    0.0526   -0.0730   -2.9692 C   0  0  0  0  0  0  0  0  0  0  0  0
    0.1363   -1.1383   -3.1952 H   0  0  0  0  0  0  0  0  0  0  0  0
   -0.5089    0.4205   -3.7637 H   0  0  0  0  0  0  0  0  0  0  0  0
    1.0581    0.3502   -2.9208 H   0  0  0  0  0  0  0  0  0  0  0  0
  5  6  2  0  0  0  0
  5  7  1  0  0  0  0
  2  3  1  0  0  0  0
  2  4  1  0  0  0  0
  2  5  1  0  0  0  0
  1  2  1  0  0  0  0
 26 27  2  0  0  0  0
 26 28  1  0  0  0  0
 23 24  1  0  0  0  0
 23 25  1  0  0  0  0
 20 21  1  0  0  0  0
 20 22  1  0  0  0  0
 20 23  1  0  0  0  0
 17 18  1  0  0  0  0
 17 19  1  0  0  0  0
 17 20  1  0  0  0  0
 14 15  1  0  0  0  0
 14 16  1  0  0  0  0
 14 17  1  0  0  0  0
 11 12  1  0  0  0  0
 11 13  1  0  0  0  0
 11 14  1  0  0  0  0
  9 10  1  0  0  0  0
  9 11  1  0  0  0  0
  9 26  1  0  0  0  0
  7  8  1  0  0  0  0
  7  9  1  0  0  0  0
 30 31  1  0  0  0  0
 30 32  1  0  0  0  0
 30 33  1  0  0  0  0
 28 29  1  0  0  0  0
 28 30  1  0  0  0  0
M  END
$$$$
default_name
  -OEChem-01062215323D

 33 32  0     1  0  0  0  0  0999 V2000
   -3.8420   -3.6918    1.5562 H   0  0  0  0  0  0  0  0  0  0  0  0
   -3.8430   -2.7008    1.1032 C   0  0  0  0  0  0  0  0  0  0  0  0
   -4.5510   -2.0608    1.6242 H   0  0  0  0  0  0  0  0  0  0  0  0
   -4.1140   -2.7798    0.0522 H   0  0  0  0  0  0  0  0  0  0  0  0
   -2.4570   -2.1098    1.2172 C   0  0  0  0  0  0  0  0  0  0  0  0
   -1.5600   -2.7438    1.7572 O   0  0  0  0  0  0  0  0  0  0  0  0
   -2.2870   -0.8898    0.7102 N   0  0  0  0  0  0  0  0  0  0  0  0
   -3.0820   -0.4218    0.2992 H   0  0  0  0  0  0  0  0  0  0  0  0
   -1.0240   -0.1468    0.7262 C   0  0  1  0  0  0  0  0  0  0  0  0
   -1.2496    0.9205    0.7378 H   0  0  0  0  0  0  0  0  0  0  0  0
   -0.2568   -0.5028    2.0144 C   0  0  0  0  0  0  0  0  0  0  0  0
   -0.1863   -1.5900    2.0872 H   0  0  0  0  0  0  0  0  0  0  0  0
    0.7549   -0.0992    1.9537 H   0  0  0  0  0  0  0  0  0  0  0  0
   -0.9349    0.0202    3.2903 C   0  0  0  0  0  0  0  0  0  0  0  0
   -1.0293    1.1051    3.2364 H   0  0  0  0  0  0  0  0  0  0  0  0
   -1.9296   -0.4213    3.3749 H   0  0  0  0  0  0  0  0  0  0  0  0
   -0.1152   -0.3423    4.5338 C   0  0  0  0  0  0  0  0  0  0  0  0
   -0.0054   -1.4253    4.5975 H   0  0  0  0  0  0  0  0  0  0  0  0
    0.8716    0.1164    4.4652 H   0  0  0  0  0  0  0  0  0  0  0  0
   -0.8231    0.1668    5.7880 C   0  0  0  0  0  0  0  0  0  0  0  0
   -0.9173    1.2503    5.7352 H   0  0  0  0  0  0  0  0  0  0  0  0
   -1.8156   -0.2766    5.8487 H   0  0  0  0  0  0  0  0  0  0  0  0
   -0.0756   -0.1846    7.0008 N   0  0  0  0  0  0  0  0  0  0  0  0
   -0.5634    0.1783    7.8067 H   0  0  0  0  0  0  0  0  0  0  0  0
   -0.0127   -1.1903    7.0716 H   0  0  0  0  0  0  0  0  0  0  0  0
   -0.2105   -0.4567   -0.5411 C   0  0  0  0  0  0  0  0  0  0  0  0
    0.5931   -1.3868   -0.5457 O   0  0  0  0  0  0  0  0  0  0  0  0
   -0.4142    0.3281   -1.6055 N   0  0  0  0  0  0  0  0  0  0  0  0
   -1.1007    1.0604   -1.5272 H   0  0  0  0  0  0  0  0  0  0  0  0
    0.2894    0.1761   -2.8781 C   0  0  0  0  0  0  0  0  0  0  0  0
    0.1628   -0.8429   -3.2504 H   0  0  0  0  0  0  0  0  0  0  0  0
   -0.1016    0.8797   -3.6145 H   0  0  0  0  0  0  0  0  0  0  0  0
    1.3557    0.3610   -2.7324 H   0  0  0  0  0  0  0  0  0  0  0  0
  5  6  2  0  0  0  0
  5  7  1  0  0  0  0
  2  3  1  0  0  0  0
  2  4  1  0  0  0  0
  2  5  1  0  0  0  0
  1  2  1  0  0  0  0
 26 27  2  0  0  0  0
 26 28  1  0  0  0  0
 23 24  1  0  0  0  0
 23 25  1  0  0  0  0
 20 21  1  0  0  0  0
 20 22  1  0  0  0  0
 20 23  1  0  0  0  0
 17 18  1  0  0  0  0
 17 19  1  0  0  0  0
 17 20  1  0  0  0  0
 14 15  1  0  0  0  0
 14 16  1  0  0  0  0
 14 17  1  0  0  0  0
 11 12  1  0  0  0  0
 11 13  1  0  0  0  0
 11 14  1  0  0  0  0
  9 10  1  0  0  0  0
  9 11  1  0  0  0  0
  9 26  1  0  0  0  0
  7  8  1  0  0  0  0
  7  9  1  0  0  0  0
 30 31  1  0  0  0  0
 30 32  1  0  0  0  0
 30 33  1  0  0  0  0
 28 29  1  0  0  0  0
 28 30  1  0  0  0  0
M  END
$$$$
default_name
  -OEChem-01062215323D

 33 32  0     1  0  0  0  0  0999 V2000
   -3.8420   -3.6918    1.5562 H   0  0  0  0  0  0  0  0  0  0  0  0
   -3.8430   -2.7008    1.1032 C   0  0  0  0  0  0  0  0  0  0  0  0
   -4.5510   -2.0608    1.6242 H   0  0  0  0  0  0  0  0  0  0  0  0
   -4.1140   -2.7798    0.0522 H   0  0  0  0  0  0  0  0  0  0  0  0
   -2.4570   -2.1098    1.2172 C   0  0  0  0  0  0  0  0  0  0  0  0
   -1.5600   -2.7438    1.7572 O   0  0  0  0  0  0  0  0  0  0  0  0
   -2.2870   -0.8898    0.7102 N   0  0  0  0  0  0  0  0  0  0  0  0
   -3.0820   -0.4218    0.2992 H   0  0  0  0  0  0  0  0  0  0  0  0
   -1.0240   -0.1468    0.7262 C   0  0  1  0  0  0  0  0  0  0  0  0
   -1.2496    0.9205    0.7378 H   0  0  0  0  0  0  0  0  0  0  0  0
   -0.2568   -0.5028    2.0144 C   0  0  0  0  0  0  0  0  0  0  0  0
   -0.1863   -1.5900    2.0872 H   0  0  0  0  0  0  0  0  0  0  0  0
    0.7549   -0.0992    1.9537 H   0  0  0  0  0  0  0  0  0  0  0  0
   -0.9349    0.0202    3.2903 C   0  0  0  0  0  0  0  0  0  0  0  0
   -1.0293    1.1051    3.2364 H   0  0  0  0  0  0  0  0  0  0  0  0
   -1.9296   -0.4213    3.3749 H   0  0  0  0  0  0  0  0  0  0  0  0
   -0.1152   -0.3423    4.5338 C   0  0  0  0  0  0  0  0  0  0  0  0
   -0.0054   -1.4253    4.5975 H   0  0  0  0  0  0  0  0  0  0  0  0
    0.8716    0.1164    4.4652 H   0  0  0  0  0  0  0  0  0  0  0  0
   -0.8231    0.1668    5.7880 C   0  0  0  0  0  0  0  0  0  0  0  0
   -0.9173    1.2503    5.7352 H   0  0  0  0  0  0  0  0  0  0  0  0
   -1.8156   -0.2766    5.8487 H   0  0  0  0  0  0  0  0  0  0  0  0
   -0.0756   -0.1846    7.0008 N   0  0  0  0  0  0  0  0  0  0  0  0
   -0.5634    0.1783    7.8067 H   0  0  0  0  0  0  0  0  0  0  0  0
   -0.0127   -1.1903    7.0716 H   0  0  0  0  0  0  0  0  0  0  0  0
   -0.2105   -0.4567   -0.5411 C   0  0  0  0  0  0  0  0  0  0  0  0
    0.3787   -1.5302   -0.6483 O   0  0  0  0  0  0  0  0  0  0  0  0
   -0.1732    0.4864   -1.4896 N   0  0  0  0  0  0  0  0  0  0  0  0
   -0.6946    1.3334   -1.3334 H   0  0  0  0  0  0  0  0  0  0  0  0
    0.5666    0.3537   -2.7437 C   0  0  0  0  0  0  0  0  0  0  0  0
    0.2543   -0.5556   -3.2620 H   0  0  0  0  0  0  0  0  0  0  0  0
    0.3820    1.2158   -3.3863 H   0  0  0  0  0  0  0  0  0  0  0  0
    1.6357    0.2821   -2.5334 H   0  0  0  0  0  0  0  0  0  0  0  0
  5  6  2  0  0  0  0
  5  7  1  0  0  0  0
  2  3  1  0  0  0  0
  2  4  1  0  0  0  0
  2  5  1  0  0  0  0
  1  2  1  0  0  0  0
 26 27  2  0  0  0  0
 26 28  1  0  0  0  0
 23 24  1  0  0  0  0
 23 25  1  0  0  0  0
 20 21  1  0  0  0  0
 20 22  1  0  0  0  0
 20 23  1  0  0  0  0
 17 18  1  0  0  0  0
 17 19  1  0  0  0  0
 17 20  1  0  0  0  0
 14 15  1  0  0  0  0
 14 16  1  0  0  0  0
 14 17  1  0  0  0  0
 11 12  1  0  0  0  0
 11 13  1  0  0  0  0
 11 14  1  0  0  0  0
  9 10  1  0  0  0  0
  9 11  1  0  0  0  0
  9 26  1  0  0  0  0
  7  8  1  0  0  0  0
  7  9  1  0  0  0  0
 30 31  1  0  0  0  0
 30 32  1  0  0  0  0
 30 33  1  0  0  0  0
 28 29  1  0  0  0  0
 28 30  1  0  0  0  0
M  END
$$$$
default_name
  -OEChem-01062215323D

 33 32  0     1  0  0  0  0  0999 V2000
   -3.8420   -3.6918    1.5562 H   0  0  0  0  0  0  0  0  0  0  0  0
   -3.8430   -2.7008    1.1032 C   0  0  0  0  0  0  0  0  0  0  0  0
   -4.5510   -2.0608    1.6242 H   0  0  0  0  0  0  0  0  0  0  0  0
   -4.1140   -2.7798    0.0522 H   0  0  0  0  0  0  0  0  0  0  0  0
   -2.4570   -2.1098    1.2172 C   0  0  0  0  0  0  0  0  0  0  0  0
   -1.5600   -2.7438    1.7572 O   0  0  0  0  0  0  0  0  0  0  0  0
   -2.2870   -0.8898    0.7102 N   0  0  0  0  0  0  0  0  0  0  0  0
   -3.0820   -0.4218    0.2992 H   0  0  0  0  0  0  0  0  0  0  0  0
   -1.0240   -0.1468    0.7262 C   0  0  1  0  0  0  0  0  0  0  0  0
   -1.2496    0.9205    0.7378 H   0  0  0  0  0  0  0  0  0  0  0  0
   -0.2568   -0.5028    2.0144 C   0  0  0  0  0  0  0  0  0  0  0  0
   -0.1863   -1.5900    2.0872 H   0  0  0  0  0  0  0  0  0  0  0  0
    0.7549   -0.0992    1.9537 H   0  0  0  0  0  0  0  0  0  0  0  0
   -0.9349    0.0202    3.2903 C   0  0  0  0  0  0  0  0  0  0  0  0
   -1.0293    1.1051    3.2364 H   0  0  0  0  0  0  0  0  0  0  0  0
   -1.9296   -0.4213    3.3749 H   0  0  0  0  0  0  0  0  0  0  0  0
   -0.1152   -0.3423    4.5338 C   0  0  0  0  0  0  0  0  0  0  0  0
   -0.0054   -1.4253    4.5975 H   0  0  0  0  0  0  0  0  0  0  0  0
    0.8716    0.1164    4.4652 H   0  0  0  0  0  0  0  0  0  0  0  0
   -0.8231    0.1668    5.7880 C   0  0  0  0  0  0  0  0  0  0  0  0
   -0.9173    1.2503    5.7352 H   0  0  0  0  0  0  0  0  0  0  0  0
   -1.8156   -0.2766    5.8487 H   0  0  0  0  0  0  0  0  0  0  0  0
   -0.0756   -0.1846    7.0008 N   0  0  0  0  0  0  0  0  0  0  0  0
   -0.5634    0.1783    7.8067 H   0  0  0  0  0  0  0  0  0  0  0  0
   -0.0127   -1.1903    7.0716 H   0  0  0  0  0  0  0  0  0  0  0  0
   -0.2105   -0.4567   -0.5411 C   0  0  0  0  0  0  0  0  0  0  0  0
    0.1463   -1.6089   -0.7782 O   0  0  0  0  0  0  0  0  0  0  0  0
    0.0872    0.5720   -1.3433 N   0  0  0  0  0  0  0  0  0  0  0  0
   -0.2542    1.4839   -1.0875 H   0  0  0  0  0  0  0  0  0  0  0  0
    0.8651    0.4478   -2.5751 C   0  0  0  0  0  0  0  0  0  0  0  0
    0.4046   -0.2960   -3.2290 H   0  0  0  0  0  0  0  0  0  0  0  0
    0.9090    1.4061   -3.0946 H   0  0  0  0  0  0  0  0  0  0  0  0
    1.8789    0.1189   -2.3374 H   0  0  0  0  0  0  0  0  0  0  0  0
  5  6  2  0  0  0  0
  5  7  1  0  0  0  0
  2  3  1  0  0  0  0
  2  4  1  0  0  0  0
  2  5  1  0  0  0  0
  1  2  1  0  0  0  0
 26 27  2  0  0  0  0
 26 28  1  0  0  0  0
 23 24  1  0  0  0  0
 23 25  1  0  0  0  0
 20 21  1  0  0  0  0
 20 22  1  0  0  0  0
 20 23  1  0  0  0  0
 17 18  1  0  0  0  0
 17 19  1  0  0  0  0
 17 20  1  0  0  0  0
 14 15  1  0  0  0  0
 14 16  1  0  0  0  0
 14 17  1  0  0  0  0
 11 12  1  0  0  0  0
 11 13  1  0  0  0  0
 11 14  1  0  0  0  0
  9 10  1  0  0  0  0
  9 11  1  0  0  0  0
  9 26  1  0  0  0  0
  7  8  1  0  0  0  0
  7  9  1  0  0  0  0
 30 31  1  0  0  0  0
 30 32  1  0  0  0  0
 30 33  1  0  0  0  0
 28 29  1  0  0  0  0
 28 30  1  0  0  0  0
M  END
$$$$
default_name
  -OEChem-01062215323D

 33 32  0     1  0  0  0  0  0999 V2000
   -3.8420   -3.6918    1.5562 H   0  0  0  0  0  0  0  0  0  0  0  0
   -3.8430   -2.7008    1.1032 C   0  0  0  0  0  0  0  0  0  0  0  0
   -4.5510   -2.0608    1.6242 H   0  0  0  0  0  0  0  0  0  0  0  0
   -4.1140   -2.7798    0.0522 H   0  0  0  0  0  0  0  0  0  0  0  0
   -2.4570   -2.1098    1.2172 C   0  0  0  0  0  0  0  0  0  0  0  0
   -1.5600   -2.7438    1.7572 O   0  0  0  0  0  0  0  0  0  0  0  0
   -2.2870   -0.8898    0.7102 N   0  0  0  0  0  0  0  0  0  0  0  0
   -3.0820   -0.4218    0.2992 H   0  0  0  0  0  0  0  0  0  0  0  0
   -1.0240   -0.1468    0.7262 C   0  0  1  0  0  0  0  0  0  0  0  0
   -1.2496    0.9205    0.7378 H   0  0  0  0  0  0  0  0  0  0  0  0
   -0.2568   -0.5028    2.0144 C   0  0  0  0  0  0  0  0  0  0  0  0
   -0.1863   -1.5900    2.0872 H   0  0  0  0  0  0  0  0  0  0  0  0
    0.7549   -0.0992    1.9537 H   0  0  0  0  0  0  0  0  0  0  0  0
   -0.9349    0.0202    3.2903 C   0  0  0  0  0  0  0  0  0  0  0  0
   -1.0293    1.1051    3.2364 H   0  0  0  0  0  0  0  0  0  0  0  0
   -1.9296   -0.4213    3.3749 H   0  0  0  0  0  0  0  0  0  0  0  0
   -0.1152   -0.3423    4.5338 C   0  0  0  0  0  0  0  0  0  0  0  0
   -0.0054   -1.4253    4.5975 H   0  0  0  0  0  0  0  0  0  0  0  0
    0.8716    0.1164    4.4652 H   0  0  0  0  0  0  0  0  0  0  0  0
   -0.8231    0.1668    5.7880 C   0  0  0  0  0  0  0  0  0  0  0  0
   -0.9173    1.2503    5.7352 H   0  0  0  0  0  0  0  0  0  0  0  0
   -1.8156   -0.2766    5.8487 H   0  0  0  0  0  0  0  0  0  0  0  0
   -0.0756   -0.1846    7.0008 N   0  0  0  0  0  0  0  0  0  0  0  0
   -0.5634    0.1783    7.8067 H   0  0  0  0  0  0  0  0  0  0  0  0
   -0.0127   -1.1903    7.0716 H   0  0  0  0  0  0  0  0  0  0  0  0
   -0.2105   -0.4567   -0.5411 C   0  0  0  0  0  0  0  0  0  0  0  0
   -0.0882   -1.6175   -0.9266 O   0  0  0  0  0  0  0  0  0  0  0  0
    0.3494    0.5791   -1.1768 N   0  0  0  0  0  0  0  0  0  0  0  0
    0.1904    1.5017   -0.8064 H   0  0  0  0  0  0  0  0  0  0  0  0
    1.1648    0.4519   -2.3837 C   0  0  0  0  0  0  0  0  0  0  0  0
    0.6034   -0.0818   -3.1537 H   0  0  0  0  0  0  0  0  0  0  0  0
    1.4433    1.4375   -2.7593 H   0  0  0  0  0  0  0  0  0  0  0  0
    2.0688   -0.1175   -2.1577 H   0  0  0  0  0  0  0  0  0  0  0  0
  5  6  2  0  0  0  0
  5  7  1  0  0  0  0
  2  3  1  0  0  0  0
  2  4  1  0  0  0  0
  2  5  1  0  0  0  0
  1  2  1  0  0  0  0
 26 27  2  0  0  0  0
 26 28  1  0  0  0  0
 23 24  1  0  0  0  0
 23 25  1  0  0  0  0
 20 21  1  0  0  0  0
 20 22  1  0  0  0  0
 20 23  1  0  0  0  0
 17 18  1  0  0  0  0
 17 19  1  0  0  0  0
 17 20  1  0  0  0  0
 14 15  1  0  0  0  0
 14 16  1  0  0  0  0
 14 17  1  0  0  0  0
 11 12  1  0  0  0  0
 11 13  1  0  0  0  0
 11 14  1  0  0  0  0
  9 10  1  0  0  0  0
  9 11  1  0  0  0  0
  9 26  1  0  0  0  0
  7  8  1  0  0  0  0
  7  9  1  0  0  0  0
 30 31  1  0  0  0  0
 30 32  1  0  0  0  0
 30 33  1  0  0  0  0
 28 29  1  0  0  0  0
 28 30  1  0  0  0  0
M  END
$$$$
default_name
  -OEChem-01062215323D

 33 32  0     1  0  0  0  0  0999 V2000
   -3.8420   -3.6918    1.5562 H   0  0  0  0  0  0  0  0  0  0  0  0
   -3.8430   -2.7008    1.1032 C   0  0  0  0  0  0  0  0  0  0  0  0
   -4.5510   -2.0608    1.6242 H   0  0  0  0  0  0  0  0  0  0  0  0
   -4.1140   -2.7798    0.0522 H   0  0  0  0  0  0  0  0  0  0  0  0
   -2.4570   -2.1098    1.2172 C   0  0  0  0  0  0  0  0  0  0  0  0
   -1.5600   -2.7438    1.7572 O   0  0  0  0  0  0  0  0  0  0  0  0
   -2.2870   -0.8898    0.7102 N   0  0  0  0  0  0  0  0  0  0  0  0
   -3.0820   -0.4218    0.2992 H   0  0  0  0  0  0  0  0  0  0  0  0
   -1.0240   -0.1468    0.7262 C   0  0  1  0  0  0  0  0  0  0  0  0
   -1.2496    0.9205    0.7378 H   0  0  0  0  0  0  0  0  0  0  0  0
   -0.2568   -0.5028    2.0144 C   0  0  0  0  0  0  0  0  0  0  0  0
   -0.1863   -1.5900    2.0872 H   0  0  0  0  0  0  0  0  0  0  0  0
    0.7549   -0.0992    1.9537 H   0  0  0  0  0  0  0  0  0  0  0  0
   -0.9349    0.0202    3.2903 C   0  0  0  0  0  0  0  0  0  0  0  0
   -1.0293    1.1051    3.2364 H   0  0  0  0  0  0  0  0  0  0  0  0
   -1.9296   -0.4213    3.3749 H   0  0  0  0  0  0  0  0  0  0  0  0
   -0.1152   -0.3423    4.5338 C   0  0  0  0  0  0  0  0  0  0  0  0
   -0.0054   -1.4253    4.5975 H   0  0  0  0  0  0  0  0  0  0  0  0
    0.8716    0.1164    4.4652 H   0  0  0  0  0  0  0  0  0  0  0  0
   -0.8231    0.1668    5.7880 C   0  0  0  0  0  0  0  0  0  0  0  0
   -0.9173    1.2503    5.7352 H   0  0  0  0  0  0  0  0  0  0  0  0
   -1.8156   -0.2766    5.8487 H   0  0  0  0  0  0  0  0  0  0  0  0
   -0.0756   -0.1846    7.0008 N   0  0  0  0  0  0  0  0  0  0  0  0
   -0.5634    0.1783    7.8067 H   0  0  0  0  0  0  0  0  0  0  0  0
   -0.0127   -1.1903    7.0716 H   0  0  0  0  0  0  0  0  0  0  0  0
   -0.2105   -0.4567   -0.5411 C   0  0  0  0  0  0  0  0  0  0  0  0
   -0.3087   -1.5555   -1.0833 O   0  0  0  0  0  0  0  0  0  0  0  0
    0.5955    0.5072   -1.0012 N   0  0  0  0  0  0  0  0  0  0  0  0
    0.6091    1.3855   -0.5093 H   0  0  0  0  0  0  0  0  0  0  0  0
    1.4451    0.3657   -2.1827 C   0  0  0  0  0  0  0  0  0  0  0  0
    0.8372    0.0723   -3.0414 H   0  0  0  0  0  0  0  0  0  0  0  0
    1.9487    1.3079   -2.4032 H   0  0  0  0  0  0  0  0  0  0  0  0
    2.1924   -0.4109   -2.0066 H   0  0  0  0  0  0  0  0  0  0  0  0
  5  6  2  0  0  0  0
  5  7  1  0  0  0  0
  2  3  1  0  0  0  0
  2  4  1  0  0  0  0
  2  5  1  0  0  0  0
  1  2  1  0  0  0  0
 26 27  2  0  0  0  0
 26 28  1  0  0  0  0
 23 24  1  0  0  0  0
 23 25  1  0  0  0  0
 20 21  1  0  0  0  0
 20 22  1  0  0  0  0
 20 23  1  0  0  0  0
 17 18  1  0  0  0  0
 17 19  1  0  0  0  0
 17 20  1  0  0  0  0
 14 15  1  0  0  0  0
 14 16  1  0  0  0  0
 14 17  1  0  0  0  0
 11 12  1  0  0  0  0
 11 13  1  0  0  0  0
 11 14  1  0  0  0  0
  9 10  1  0  0  0  0
  9 11  1  0  0  0  0
  9 26  1  0  0  0  0
  7  8  1  0  0  0  0
  7  9  1  0  0  0  0
 30 31  1  0  0  0  0
 30 32  1  0  0  0  0
 30 33  1  0  0  0  0
 28 29  1  0  0  0  0
 28 30  1  0  0  0  0
M  END
$$$$
default_name
  -OEChem-01062215323D

 33 32  0     1  0  0  0  0  0999 V2000
   -3.8420   -3.6918    1.5562 H   0  0  0  0  0  0  0  0  0  0  0  0
   -3.8430   -2.7008    1.1032 C   0  0  0  0  0  0  0  0  0  0  0  0
   -4.5510   -2.0608    1.6242 H   0  0  0  0  0  0  0  0  0  0  0  0
   -4.1140   -2.7798    0.0522 H   0  0  0  0  0  0  0  0  0  0  0  0
   -2.4570   -2.1098    1.2172 C   0  0  0  0  0  0  0  0  0  0  0  0
   -1.5600   -2.7438    1.7572 O   0  0  0  0  0  0  0  0  0  0  0  0
   -2.2870   -0.8898    0.7102 N   0  0  0  0  0  0  0  0  0  0  0  0
   -3.0820   -0.4218    0.2992 H   0  0  0  0  0  0  0  0  0  0  0  0
   -1.0240   -0.1468    0.7262 C   0  0  1  0  0  0  0  0  0  0  0  0
   -1.2496    0.9205    0.7378 H   0  0  0  0  0  0  0  0  0  0  0  0
   -0.2568   -0.5028    2.0144 C   0  0  0  0  0  0  0  0  0  0  0  0
   -0.1863   -1.5900    2.0872 H   0  0  0  0  0  0  0  0  0  0  0  0
    0.7549   -0.0992    1.9537 H   0  0  0  0  0  0  0  0  0  0  0  0
   -0.9349    0.0202    3.2903 C   0  0  0  0  0  0  0  0  0  0  0  0
   -1.0293    1.1051    3.2364 H   0  0  0  0  0  0  0  0  0  0  0  0
   -1.9296   -0.4213    3.3749 H   0  0  0  0  0  0  0  0  0  0  0  0
   -0.1152   -0.3423    4.5338 C   0  0  0  0  0  0  0  0  0  0  0  0
   -0.0054   -1.4253    4.5975 H   0  0  0  0  0  0  0  0  0  0  0  0
    0.8716    0.1164    4.4652 H   0  0  0  0  0  0  0  0  0  0  0  0
   -0.8231    0.1668    5.7880 C   0  0  0  0  0  0  0  0  0  0  0  0
   -0.9173    1.2503    5.7352 H   0  0  0  0  0  0  0  0  0  0  0  0
   -1.8156   -0.2766    5.8487 H   0  0  0  0  0  0  0  0  0  0  0  0
   -0.0756   -0.1846    7.0008 N   0  0  0  0  0  0  0  0  0  0  0  0
   -0.5634    0.1783    7.8067 H   0  0  0  0  0  0  0  0  0  0  0  0
   -0.0127   -1.1903    7.0716 H   0  0  0  0  0  0  0  0  0  0  0  0
   -0.2105   -0.4567   -0.5411 C   0  0  0  0  0  0  0  0  0  0  0  0
   -0.5004   -1.4271   -1.2378 O   0  0  0  0  0  0  0  0  0  0  0  0
    0.8087    0.3612   -0.8286 N   0  0  0  0  0  0  0  0  0  0  0  0
    0.9731    1.1433   -0.2163 H   0  0  0  0  0  0  0  0  0  0  0  0
    1.6870    0.1951   -1.9857 C   0  0  0  0  0  0  0  0  0  0  0  0
    1.0900    0.1559   -2.8995 H   0  0  0  0  0  0  0  0  0  0  0  0
    2.3906    1.0262   -2.0507 H   0  0  0  0  0  0  0  0  0  0  0  0
    2.2413   -0.7413   -1.8944 H   0  0  0  0  0  0  0  0  0  0  0  0
  5  6  2  0  0  0  0
  5  7  1  0  0  0  0
  2  3  1  0  0  0  0
  2  4  1  0  0  0  0
  2  5  1  0  0  0  0
  1  2  1  0  0  0  0
 26 27  2  0  0  0  0
 26 28  1  0  0  0  0
 23 24  1  0  0  0  0
 23 25  1  0  0  0  0
 20 21  1  0  0  0  0
 20 22  1  0  0  0  0
 20 23  1  0  0  0  0
 17 18  1  0  0  0  0
 17 19  1  0  0  0  0
 17 20  1  0  0  0  0
 14 15  1  0  0  0  0
 14 16  1  0  0  0  0
 14 17  1  0  0  0  0
 11 12  1  0  0  0  0
 11 13  1  0  0  0  0
 11 14  1  0  0  0  0
  9 10  1  0  0  0  0
  9 11  1  0  0  0  0
  9 26  1  0  0  0  0
  7  8  1  0  0  0  0
  7  9  1  0  0  0  0
 30 31  1  0  0  0  0
 30 32  1  0  0  0  0
 30 33  1  0  0  0  0
 28 29  1  0  0  0  0
 28 30  1  0  0  0  0
M  END
$$$$
default_name
  -OEChem-01062215323D

 33 32  0     1  0  0  0  0  0999 V2000
   -3.8420   -3.6918    1.5562 H   0  0  0  0  0  0  0  0  0  0  0  0
   -3.8430   -2.7008    1.1032 C   0  0  0  0  0  0  0  0  0  0  0  0
   -4.5510   -2.0608    1.6242 H   0  0  0  0  0  0  0  0  0  0  0  0
   -4.1140   -2.7798    0.0522 H   0  0  0  0  0  0  0  0  0  0  0  0
   -2.4570   -2.1098    1.2172 C   0  0  0  0  0  0  0  0  0  0  0  0
   -1.5600   -2.7438    1.7572 O   0  0  0  0  0  0  0  0  0  0  0  0
   -2.2870   -0.8898    0.7102 N   0  0  0  0  0  0  0  0  0  0  0  0
   -3.0820   -0.4218    0.2992 H   0  0  0  0  0  0  0  0  0  0  0  0
   -1.0240   -0.1468    0.7262 C   0  0  1  0  0  0  0  0  0  0  0  0
   -1.2332    0.8869    1.0052 H   0  0  0  0  0  0  0  0  0  0  0  0
   -0.0983   -0.7673    1.7906 C   0  0  0  0  0  0  0  0  0  0  0  0
   -0.0320   -1.8419    1.6089 H   0  0  0  0  0  0  0  0  0  0  0  0
    0.9013   -0.3425    1.6896 H   0  0  0  0  0  0  0  0  0  0  0  0
   -0.5964   -0.5539    3.2286 C   0  0  0  0  0  0  0  0  0  0  0  0
   -0.6839    0.5139    3.4310 H   0  0  0  0  0  0  0  0  0  0  0  0
   -1.5766   -1.0207    3.3419 H   0  0  0  0  0  0  0  0  0  0  0  0
    0.3754   -1.1699    4.2415 C   0  0  0  0  0  0  0  0  0  0  0  0
    0.4795   -2.2377    4.0468 H   0  0  0  0  0  0  0  0  0  0  0  0
    1.3500   -0.6900    4.1484 H   0  0  0  0  0  0  0  0  0  0  0  0
   -0.1552   -0.9657    5.6592 C   0  0  0  0  0  0  0  0  0  0  0  0
   -0.2425    0.1004    5.8624 H   0  0  0  0  0  0  0  0  0  0  0  0
   -1.1364   -1.4290    5.7488 H   0  0  0  0  0  0  0  0  0  0  0  0
    0.7411   -1.5653    6.6545 N   0  0  0  0  0  0  0  0  0  0  0  0
    0.3679   -1.3998    7.5777 H   0  0  0  0  0  0  0  0  0  0  0  0
    0.8005   -2.5602    6.4901 H   0  0  0  0  0  0  0  0  0  0  0  0
   -0.3881   -0.1520   -0.6736 C   0  0  0  0  0  0  0  0  0  0  0  0
   -0.9435   -0.7374   -1.6009 O   0  0  0  0  0  0  0  0  0  0  0  0
    0.7768    0.4903   -0.8184 N   0  0  0  0  0  0  0  0  0  0  0  0
    1.1605    0.9583   -0.0138 H   0  0  0  0  0  0  0  0  0  0  0  0
    1.5166    0.5649   -2.0773 C   0  0  0  0  0  0  0  0  0  0  0  0
    0.8720    0.9695   -2.8607 H   0  0  0  0  0  0  0  0  0  0  0  0
    2.3926    1.2055   -1.9654 H   0  0  0  0  0  0  0  0  0  0  0  0
    1.8364   -0.4358   -2.3750 H   0  0  0  0  0  0  0  0  0  0  0  0
  5  6  2  0  0  0  0
  5  7  1  0  0  0  0
  2  3  1  0  0  0  0
  2  4  1  0  0  0  0
  2  5  1  0  0  0  0
  1  2  1  0  0  0  0
 26 27  2  0  0  0  0
 26 28  1  0  0  0  0
 23 24  1  0  0  0  0
 23 25  1  0  0  0  0
 20 21  1  0  0  0  0
 20 22  1  0  0  0  0
 20 23  1  0  0  0  0
 17 18  1  0  0  0  0
 17 19  1  0  0  0  0
 17 20  1  0  0  0  0
 14 15  1  0  0  0  0
 14 16  1  0  0  0  0
 14 17  1  0  0  0  0
 11 12  1  0  0  0  0
 11 13  1  0  0  0  0
 11 14  1  0  0  0  0
  9 10  1  0  0  0  0
  9 11  1  0  0  0  0
  9 26  1  0  0  0  0
  7  8  1  0  0  0  0
  7  9  1  0  0  0  0
 30 31  1  0  0  0  0
 30 32  1  0  0  0  0
 30 33  1  0  0  0  0
 28 29  1  0  0  0  0
 28 30  1  0  0  0  0
M  END
$$$$
default_name
  -OEChem-01062215323D

 33 32  0     1  0  0  0  0  0999 V2000
   -3.8420   -3.6918    1.5562 H   0  0  0  0  0  0  0  0  0  0  0  0
   -3.8430   -2.7008    1.1032 C   0  0  0  0  0  0  0  0  0  0  0  0
   -4.5510   -2.0608    1.6242 H   0  0  0  0  0  0  0  0  0  0  0  0
   -4.1140   -2.7798    0.0522 H   0  0  0  0  0  0  0  0  0  0  0  0
   -2.4570   -2.1098    1.2172 C   0  0  0  0  0  0  0  0  0  0  0  0
   -1.5600   -2.7438    1.7572 O   0  0  0  0  0  0  0  0  0  0  0  0
   -2.2870   -0.8898    0.7102 N   0  0  0  0  0  0  0  0  0  0  0  0
   -3.0820   -0.4218    0.2992 H   0  0  0  0  0  0  0  0  0  0  0  0
   -1.0240   -0.1468    0.7262 C   0  0  1  0  0  0  0  0  0  0  0  0
   -1.2332    0.8869    1.0052 H   0  0  0  0  0  0  0  0  0  0  0  0
   -0.0983   -0.7673    1.7906 C   0  0  0  0  0  0  0  0  0  0  0  0
   -0.0320   -1.8419    1.6089 H   0  0  0  0  0  0  0  0  0  0  0  0
    0.9013   -0.3425    1.6896 H   0  0  0  0  0  0  0  0  0  0  0  0
   -0.5964   -0.5539    3.2286 C   0  0  0  0  0  0  0  0  0  0  0  0
   -0.6839    0.5139    3.4310 H   0  0  0  0  0  0  0  0  0  0  0  0
   -1.5766   -1.0207    3.3419 H   0  0  0  0  0  0  0  0  0  0  0  0
    0.3754   -1.1699    4.2415 C   0  0  0  0  0  0  0  0  0  0  0  0
    0.4795   -2.2377    4.0468 H   0  0  0  0  0  0  0  0  0  0  0  0
    1.3500   -0.6900    4.1484 H   0  0  0  0  0  0  0  0  0  0  0  0
   -0.1552   -0.9657    5.6592 C   0  0  0  0  0  0  0  0  0  0  0  0
   -0.2425    0.1004    5.8624 H   0  0  0  0  0  0  0  0  0  0  0  0
   -1.1364   -1.4290    5.7488 H   0  0  0  0  0  0  0  0  0  0  0  0
    0.7411   -1.5653    6.6545 N   0  0  0  0  0  0  0  0  0  0  0  0
    0.3679   -1.3998    7.5777 H   0  0  0  0  0  0  0  0  0  0  0  0
    0.8005   -2.5602    6.4901 H   0  0  0  0  0  0  0  0  0  0  0  0
   -0.3881   -0.1520   -0.6736 C   0  0  0  0  0  0  0  0  0  0  0  0
   -1.0530   -0.4874   -1.6515 O   0  0  0  0  0  0  0  0  0  0  0  0
    0.8972    0.2093   -0.7626 N   0  0  0  0  0  0  0  0  0  0  0  0
    1.3693    0.4850    0.0828 H   0  0  0  0  0  0  0  0  0  0  0  0
    1.6510    0.2417   -2.0150 C   0  0  0  0  0  0  0  0  0  0  0  0
    1.1306    0.8682   -2.7428 H   0  0  0  0  0  0  0  0  0  0  0  0
    2.6516    0.6420   -1.8456 H   0  0  0  0  0  0  0  0  0  0  0  0
    1.7300   -0.7685   -2.4221 H   0  0  0  0  0  0  0  0  0  0  0  0
  5  6  2  0  0  0  0
  5  7  1  0  0  0  0
  2  3  1  0  0  0  0
  2  4  1  0  0  0  0
  2  5  1  0  0  0  0
  1  2  1  0  0  0  0
 26 27  2  0  0  0  0
 26 28  1  0  0  0  0
 23 24  1  0  0  0  0
 23 25  1  0  0  0  0
 20 21  1  0  0  0  0
 20 22  1  0  0  0  0
 20 23  1  0  0  0  0
 17 18  1  0  0  0  0
 17 19  1  0  0  0  0
 17 20  1  0  0  0  0
 14 15  1  0  0  0  0
 14 16  1  0  0  0  0
 14 17  1  0  0  0  0
 11 12  1  0  0  0  0
 11 13  1  0  0  0  0
 11 14  1  0  0  0  0
  9 10  1  0  0  0  0
  9 11  1  0  0  0  0
  9 26  1  0  0  0  0
  7  8  1  0  0  0  0
  7  9  1  0  0  0  0
 30 31  1  0  0  0  0
 30 32  1  0  0  0  0
 30 33  1  0  0  0  0
 28 29  1  0  0  0  0
 28 30  1  0  0  0  0
M  END
$$$$
default_name
  -OEChem-01062215323D

 33 32  0     1  0  0  0  0  0999 V2000
   -3.8420   -3.6918    1.5562 H   0  0  0  0  0  0  0  0  0  0  0  0
   -3.8430   -2.7008    1.1032 C   0  0  0  0  0  0  0  0  0  0  0  0
   -4.5510   -2.0608    1.6242 H   0  0  0  0  0  0  0  0  0  0  0  0
   -4.1140   -2.7798    0.0522 H   0  0  0  0  0  0  0  0  0  0  0  0
   -2.4570   -2.1098    1.2172 C   0  0  0  0  0  0  0  0  0  0  0  0
   -1.5600   -2.7438    1.7572 O   0  0  0  0  0  0  0  0  0  0  0  0
   -2.2870   -0.8898    0.7102 N   0  0  0  0  0  0  0  0  0  0  0  0
   -3.0820   -0.4218    0.2992 H   0  0  0  0  0  0  0  0  0  0  0  0
   -1.0240   -0.1468    0.7262 C   0  0  1  0  0  0  0  0  0  0  0  0
   -1.2332    0.8869    1.0052 H   0  0  0  0  0  0  0  0  0  0  0  0
   -0.0983   -0.7673    1.7906 C   0  0  0  0  0  0  0  0  0  0  0  0
   -0.0320   -1.8419    1.6089 H   0  0  0  0  0  0  0  0  0  0  0  0
    0.9013   -0.3425    1.6896 H   0  0  0  0  0  0  0  0  0  0  0  0
   -0.5964   -0.5539    3.2286 C   0  0  0  0  0  0  0  0  0  0  0  0
   -0.6839    0.5139    3.4310 H   0  0  0  0  0  0  0  0  0  0  0  0
   -1.5766   -1.0207    3.3419 H   0  0  0  0  0  0  0  0  0  0  0  0
    0.3754   -1.1699    4.2415 C   0  0  0  0  0  0  0  0  0  0  0  0
    0.4795   -2.2377    4.0468 H   0  0  0  0  0  0  0  0  0  0  0  0
    1.3500   -0.6900    4.1484 H   0  0  0  0  0  0  0  0  0  0  0  0
   -0.1552   -0.9657    5.6592 C   0  0  0  0  0  0  0  0  0  0  0  0
   -0.2425    0.1004    5.8624 H   0  0  0  0  0  0  0  0  0  0  0  0
   -1.1364   -1.4290    5.7488 H   0  0  0  0  0  0  0  0  0  0  0  0
    0.7411   -1.5653    6.6545 N   0  0  0  0  0  0  0  0  0  0  0  0
    0.3679   -1.3998    7.5777 H   0  0  0  0  0  0  0  0  0  0  0  0
    0.8005   -2.5602    6.4901 H   0  0  0  0  0  0  0  0  0  0  0  0
   -0.3881   -0.1520   -0.6736 C   0  0  0  0  0  0  0  0  0  0  0  0
   -1.0998   -0.2147   -1.6738 O   0  0  0  0  0  0  0  0  0  0  0  0
    0.9472   -0.0964   -0.7387 N   0  0  0  0  0  0  0  0  0  0  0  0
    1.4594   -0.0319    0.1257 H   0  0  0  0  0  0  0  0  0  0  0  0
    1.7046   -0.1089   -1.9894 C   0  0  0  0  0  0  0  0  0  0  0  0
    1.3565    0.6967   -2.6396 H   0  0  0  0  0  0  0  0  0  0  0  0
    2.7689    0.0238   -1.7900 H   0  0  0  0  0  0  0  0  0  0  0  0
    1.5490   -1.0597   -2.5032 H   0  0  0  0  0  0  0  0  0  0  0  0
  5  6  2  0  0  0  0
  5  7  1  0  0  0  0
  2  3  1  0  0  0  0
  2  4  1  0  0  0  0
  2  5  1  0  0  0  0
  1  2  1  0  0  0  0
 26 27  2  0  0  0  0
 26 28  1  0  0  0  0
 23 24  1  0  0  0  0
 23 25  1  0  0  0  0
 20 21  1  0  0  0  0
 20 22  1  0  0  0  0
 20 23  1  0  0  0  0
 17 18  1  0  0  0  0
 17 19  1  0  0  0  0
 17 20  1  0  0  0  0
 14 15  1  0  0  0  0
 14 16  1  0  0  0  0
 14 17  1  0  0  0  0
 11 12  1  0  0  0  0
 11 13  1  0  0  0  0
 11 14  1  0  0  0  0
  9 10  1  0  0  0  0
  9 11  1  0  0  0  0
  9 26  1  0  0  0  0
  7  8  1  0  0  0  0
  7  9  1  0  0  0  0
 30 31  1  0  0  0  0
 30 32  1  0  0  0  0
 30 33  1  0  0  0  0
 28 29  1  0  0  0  0
 28 30  1  0  0  0  0
M  END
$$$$
default_name
  -OEChem-01062215323D

 33 32  0     1  0  0  0  0  0999 V2000
   -3.8420   -3.6918    1.5562 H   0  0  0  0  0  0  0  0  0  0  0  0
   -3.8430   -2.7008    1.1032 C   0  0  0  0  0  0  0  0  0  0  0  0
   -4.5510   -2.0608    1.6242 H   0  0  0  0  0  0  0  0  0  0  0  0
   -4.1140   -2.7798    0.0522 H   0  0  0  0  0  0  0  0  0  0  0  0
   -2.4570   -2.1098    1.2172 C   0  0  0  0  0  0  0  0  0  0  0  0
   -1.5600   -2.7438    1.7572 O   0  0  0  0  0  0  0  0  0  0  0  0
   -2.2870   -0.8898    0.7102 N   0  0  0  0  0  0  0  0  0  0  0  0
   -3.0820   -0.4218    0.2992 H   0  0  0  0  0  0  0  0  0  0  0  0
   -1.0240   -0.1468    0.7262 C   0  0  1  0  0  0  0  0  0  0  0  0
   -1.2332    0.8869    1.0052 H   0  0  0  0  0  0  0  0  0  0  0  0
   -0.0983   -0.7673    1.7906 C   0  0  0  0  0  0  0  0  0  0  0  0
   -0.0320   -1.8419    1.6089 H   0  0  0  0  0  0  0  0  0  0  0  0
    0.9013   -0.3425    1.6896 H   0  0  0  0  0  0  0  0  0  0  0  0
   -0.5964   -0.5539    3.2286 C   0  0  0  0  0  0  0  0  0  0  0  0
   -0.6839    0.5139    3.4310 H   0  0  0  0  0  0  0  0  0  0  0  0
   -1.5766   -1.0207    3.3419 H   0  0  0  0  0  0  0  0  0  0  0  0
    0.3754   -1.1699    4.2415 C   0  0  0  0  0  0  0  0  0  0  0  0
    0.4795   -2.2377    4.0468 H   0  0  0  0  0  0  0  0  0  0  0  0
    1.3500   -0.6900    4.1484 H   0  0  0  0  0  0  0  0  0  0  0  0
   -0.1552   -0.9657    5.6592 C   0  0  0  0  0  0  0  0  0  0  0  0
   -0.2425    0.1004    5.8624 H   0  0  0  0  0  0  0  0  0  0  0  0
   -1.1364   -1.4290    5.7488 H   0  0  0  0  0  0  0  0  0  0  0  0
    0.7411   -1.5653    6.6545 N   0  0  0  0  0  0  0  0  0  0  0  0
    0.3679   -1.3998    7.5777 H   0  0  0  0  0  0  0  0  0  0  0  0
    0.8005   -2.5602    6.4901 H   0  0  0  0  0  0  0  0  0  0  0  0
   -0.3881   -0.1520   -0.6736 C   0  0  0  0  0  0  0  0  0  0  0  0
   -1.0808    0.0622   -1.6662 O   0  0  0  0  0  0  0  0  0  0  0  0
    0.9235   -0.4061   -0.7483 N   0  0  0  0  0  0  0  0  0  0  0  0
    1.4246   -0.5569    0.1118 H   0  0  0  0  0  0  0  0  0  0  0  0
    1.6737   -0.4629   -2.0021 C   0  0  0  0  0  0  0  0  0  0  0  0
    1.5341    0.4669   -2.5580 H   0  0  0  0  0  0  0  0  0  0  0  0
    2.7365   -0.6069   -1.8024 H   0  0  0  0  0  0  0  0  0  0  0  0
    1.3055   -1.2897   -2.6130 H   0  0  0  0  0  0  0  0  0  0  0  0
  5  6  2  0  0  0  0
  5  7  1  0  0  0  0
  2  3  1  0  0  0  0
  2  4  1  0  0  0  0
  2  5  1  0  0  0  0
  1  2  1  0  0  0  0
 26 27  2  0  0  0  0
 26 28  1  0  0  0  0
 23 24  1  0  0  0  0
 23 25  1  0  0  0  0
 20 21  1  0  0  0  0
 20 22  1  0  0  0  0
 20 23  1  0  0  0  0
 17 18  1  0  0  0  0
 17 19  1  0  0  0  0
 17 20  1  0  0  0  0
 14 15  1  0  0  0  0
 14 16  1  0  0  0  0
 14 17  1  0  0  0  0
 11 12  1  0  0  0  0
 11 13  1  0  0  0  0
 11 14  1  0  0  0  0
  9 10  1  0  0  0  0
  9 11  1  0  0  0  0
  9 26  1  0  0  0  0
  7  8  1  0  0  0  0
  7  9  1  0  0  0  0
 30 31  1  0  0  0  0
 30 32  1  0  0  0  0
 30 33  1  0  0  0  0
 28 29  1  0  0  0  0
 28 30  1  0  0  0  0
M  END
$$$$
default_name
  -OEChem-01062215323D

 33 32  0     1  0  0  0  0  0999 V2000
   -3.8420   -3.6918    1.5562 H   0  0  0  0  0  0  0  0  0  0  0  0
   -3.8430   -2.7008    1.1032 C   0  0  0  0  0  0  0  0  0  0  0  0
   -4.5510   -2.0608    1.6242 H   0  0  0  0  0  0  0  0  0  0  0  0
   -4.1140   -2.7798    0.0522 H   0  0  0  0  0  0  0  0  0  0  0  0
   -2.4570   -2.1098    1.2172 C   0  0  0  0  0  0  0  0  0  0  0  0
   -1.5600   -2.7438    1.7572 O   0  0  0  0  0  0  0  0  0  0  0  0
   -2.2870   -0.8898    0.7102 N   0  0  0  0  0  0  0  0  0  0  0  0
   -3.0820   -0.4218    0.2992 H   0  0  0  0  0  0  0  0  0  0  0  0
   -1.0240   -0.1468    0.7262 C   0  0  1  0  0  0  0  0  0  0  0  0
   -1.2332    0.8869    1.0052 H   0  0  0  0  0  0  0  0  0  0  0  0
   -0.0983   -0.7673    1.7906 C   0  0  0  0  0  0  0  0  0  0  0  0
   -0.0320   -1.8419    1.6089 H   0  0  0  0  0  0  0  0  0  0  0  0
    0.9013   -0.3425    1.6896 H   0  0  0  0  0  0  0  0  0  0  0  0
   -0.5964   -0.5539    3.2286 C   0  0  0  0  0  0  0  0  0  0  0  0
   -0.6839    0.5139    3.4310 H   0  0  0  0  0  0  0  0  0  0  0  0
   -1.5766   -1.0207    3.3419 H   0  0  0  0  0  0  0  0  0  0  0  0
    0.3754   -1.1699    4.2415 C   0  0  0  0  0  0  0  0  0  0  0  0
    0.4795   -2.2377    4.0468 H   0  0  0  0  0  0  0  0  0  0  0  0
    1.3500   -0.6900    4.1484 H   0  0  0  0  0  0  0  0  0  0  0  0
   -0.1552   -0.9657    5.6592 C   0  0  0  0  0  0  0  0  0  0  0  0
   -0.2425    0.1004    5.8624 H   0  0  0  0  0  0  0  0  0  0  0  0
   -1.1364   -1.4290    5.7488 H   0  0  0  0  0  0  0  0  0  0  0  0
    0.7411   -1.5653    6.6545 N   0  0  0  0  0  0  0  0  0  0  0  0
    0.3679   -1.3998    7.5777 H   0  0  0  0  0  0  0  0  0  0  0  0
    0.8005   -2.5602    6.4901 H   0  0  0  0  0  0  0  0  0  0  0  0
   -0.3881   -0.1520   -0.6736 C   0  0  0  0  0  0  0  0  0  0  0  0
   -0.9971    0.3243   -1.6292 O   0  0  0  0  0  0  0  0  0  0  0  0
    0.8276   -0.6986   -0.7908 N   0  0  0  0  0  0  0  0  0  0  0  0
    1.2672   -1.0543    0.0422 H   0  0  0  0  0  0  0  0  0  0  0  0
    1.5604   -0.7961   -2.0522 C   0  0  0  0  0  0  0  0  0  0  0  0
    1.6515    0.1942   -2.5037 H   0  0  0  0  0  0  0  0  0  0  0  0
    2.5565   -1.2071   -1.8818 H   0  0  0  0  0  0  0  0  0  0  0  0
    1.0163   -1.4427   -2.7438 H   0  0  0  0  0  0  0  0  0  0  0  0
  5  6  2  0  0  0  0
  5  7  1  0  0  0  0
  2  3  1  0  0  0  0
  2  4  1  0  0  0  0
  2  5  1  0  0  0  0
  1  2  1  0  0  0  0
 26 27  2  0  0  0  0
 26 28  1  0  0  0  0
 23 24  1  0  0  0  0
 23 25  1  0  0  0  0
 20 21  1  0  0  0  0
 20 22  1  0  0  0  0
 20 23  1  0  0  0  0
 17 18  1  0  0  0  0
 17 19  1  0  0  0  0
 17 20  1  0  0  0  0
 14 15  1  0  0  0  0
 14 16  1  0  0  0  0
 14 17  1  0  0  0  0
 11 12  1  0  0  0  0
 11 13  1  0  0  0  0
 11 14  1  0  0  0  0
  9 10  1  0  0  0  0
  9 11  1  0  0  0  0
  9 26  1  0  0  0  0
  7  8  1  0  0  0  0
  7  9  1  0  0  0  0
 30 31  1  0  0  0  0
 30 32  1  0  0  0  0
 30 33  1  0  0  0  0
 28 29  1  0  0  0  0
 28 30  1  0  0  0  0
M  END
$$$$
default_name
  -OEChem-01062215323D

 33 32  0     1  0  0  0  0  0999 V2000
   -3.8420   -3.6918    1.5562 H   0  0  0  0  0  0  0  0  0  0  0  0
   -3.8430   -2.7008    1.1032 C   0  0  0  0  0  0  0  0  0  0  0  0
   -4.5510   -2.0608    1.6242 H   0  0  0  0  0  0  0  0  0  0  0  0
   -4.1140   -2.7798    0.0522 H   0  0  0  0  0  0  0  0  0  0  0  0
   -2.4570   -2.1098    1.2172 C   0  0  0  0  0  0  0  0  0  0  0  0
   -1.5600   -2.7438    1.7572 O   0  0  0  0  0  0  0  0  0  0  0  0
   -2.2870   -0.8898    0.7102 N   0  0  0  0  0  0  0  0  0  0  0  0
   -3.0820   -0.4218    0.2992 H   0  0  0  0  0  0  0  0  0  0  0  0
   -1.0240   -0.1468    0.7262 C   0  0  1  0  0  0  0  0  0  0  0  0
   -1.2332    0.8869    1.0052 H   0  0  0  0  0  0  0  0  0  0  0  0
   -0.0983   -0.7673    1.7906 C   0  0  0  0  0  0  0  0  0  0  0  0
   -0.0320   -1.8419    1.6089 H   0  0  0  0  0  0  0  0  0  0  0  0
    0.9013   -0.3425    1.6896 H   0  0  0  0  0  0  0  0  0  0  0  0
   -0.5964   -0.5539    3.2286 C   0  0  0  0  0  0  0  0  0  0  0  0
   -0.6839    0.5139    3.4310 H   0  0  0  0  0  0  0  0  0  0  0  0
   -1.5766   -1.0207    3.3419 H   0  0  0  0  0  0  0  0  0  0  0  0
    0.3754   -1.1699    4.2415 C   0  0  0  0  0  0  0  0  0  0  0  0
    0.4795   -2.2377    4.0468 H   0  0  0  0  0  0  0  0  0  0  0  0
    1.3500   -0.6900    4.1484 H   0  0  0  0  0  0  0  0  0  0  0  0
   -0.1552   -0.9657    5.6592 C   0  0  0  0  0  0  0  0  0  0  0  0
   -0.2425    0.1004    5.8624 H   0  0  0  0  0  0  0  0  0  0  0  0
   -1.1364   -1.4290    5.7488 H   0  0  0  0  0  0  0  0  0  0  0  0
    0.7411   -1.5653    6.6545 N   0  0  0  0  0  0  0  0  0  0  0  0
    0.3679   -1.3998    7.5777 H   0  0  0  0  0  0  0  0  0  0  0  0
    0.8005   -2.5602    6.4901 H   0  0  0  0  0  0  0  0  0  0  0  0
   -0.3881   -0.1520   -0.6736 C   0  0  0  0  0  0  0  0  0  0  0  0
   -0.8546    0.5538   -1.5653 O   0  0  0  0  0  0  0  0  0  0  0  0
    0.6662   -0.9539   -0.8632 N   0  0  0  0  0  0  0  0  0  0  0  0
    0.9981   -1.4902   -0.0784 H   0  0  0  0  0  0  0  0  0  0  0  0
    1.3726   -1.0860   -2.1365 C   0  0  0  0  0  0  0  0  0  0  0  0
    1.7006   -0.1026   -2.4803 H   0  0  0  0  0  0  0  0  0  0  0  0
    2.2414   -1.7360   -2.0230 H   0  0  0  0  0  0  0  0  0  0  0  0
    0.7009   -1.5083   -2.8868 H   0  0  0  0  0  0  0  0  0  0  0  0
  5  6  2  0  0  0  0
  5  7  1  0  0  0  0
  2  3  1  0  0  0  0
  2  4  1  0  0  0  0
  2  5  1  0  0  0  0
  1  2  1  0  0  0  0
 26 27  2  0  0  0  0
 26 28  1  0  0  0  0
 23 24  1  0  0  0  0
 23 25  1  0  0  0  0
 20 21  1  0  0  0  0
 20 22  1  0  0  0  0
 20 23  1  0  0  0  0
 17 18  1  0  0  0  0
 17 19  1  0  0  0  0
 17 20  1  0  0  0  0
 14 15  1  0  0  0  0
 14 16  1  0  0  0  0
 14 17  1  0  0  0  0
 11 12  1  0  0  0  0
 11 13  1  0  0  0  0
 11 14  1  0  0  0  0
  9 10  1  0  0  0  0
  9 11  1  0  0  0  0
  9 26  1  0  0  0  0
  7  8  1  0  0  0  0
  7  9  1  0  0  0  0
 30 31  1  0  0  0  0
 30 32  1  0  0  0  0
 30 33  1  0  0  0  0
 28 29  1  0  0  0  0
 28 30  1  0  0  0  0
M  END
$$$$
default_name
  -OEChem-01062215323D

 33 32  0     1  0  0  0  0  0999 V2000
   -3.8420   -3.6918    1.5562 H   0  0  0  0  0  0  0  0  0  0  0  0
   -3.8430   -2.7008    1.1032 C   0  0  0  0  0  0  0  0  0  0  0  0
   -4.5510   -2.0608    1.6242 H   0  0  0  0  0  0  0  0  0  0  0  0
   -4.1140   -2.7798    0.0522 H   0  0  0  0  0  0  0  0  0  0  0  0
   -2.4570   -2.1098    1.2172 C   0  0  0  0  0  0  0  0  0  0  0  0
   -1.5600   -2.7438    1.7572 O   0  0  0  0  0  0  0  0  0  0  0  0
   -2.2870   -0.8898    0.7102 N   0  0  0  0  0  0  0  0  0  0  0  0
   -3.0820   -0.4218    0.2992 H   0  0  0  0  0  0  0  0  0  0  0  0
   -1.0240   -0.1468    0.7262 C   0  0  1  0  0  0  0  0  0  0  0  0
   -1.2332    0.8869    1.0052 H   0  0  0  0  0  0  0  0  0  0  0  0
   -0.0983   -0.7673    1.7906 C   0  0  0  0  0  0  0  0  0  0  0  0
   -0.0320   -1.8419    1.6089 H   0  0  0  0  0  0  0  0  0  0  0  0
    0.9013   -0.3425    1.6896 H   0  0  0  0  0  0  0  0  0  0  0  0
   -0.5964   -0.5539    3.2286 C   0  0  0  0  0  0  0  0  0  0  0  0
   -0.6839    0.5139    3.4310 H   0  0  0  0  0  0  0  0  0  0  0  0
   -1.5766   -1.0207    3.3419 H   0  0  0  0  0  0  0  0  0  0  0  0
    0.3754   -1.1699    4.2415 C   0  0  0  0  0  0  0  0  0  0  0  0
    0.4795   -2.2377    4.0468 H   0  0  0  0  0  0  0  0  0  0  0  0
    1.3500   -0.6900    4.1484 H   0  0  0  0  0  0  0  0  0  0  0  0
   -0.1552   -0.9657    5.6592 C   0  0  0  0  0  0  0  0  0  0  0  0
   -0.2425    0.1004    5.8624 H   0  0  0  0  0  0  0  0  0  0  0  0
   -1.1364   -1.4290    5.7488 H   0  0  0  0  0  0  0  0  0  0  0  0
    0.7411   -1.5653    6.6545 N   0  0  0  0  0  0  0  0  0  0  0  0
    0.3679   -1.3998    7.5777 H   0  0  0  0  0  0  0  0  0  0  0  0
    0.8005   -2.5602    6.4901 H   0  0  0  0  0  0  0  0  0  0  0  0
   -0.3881   -0.1520   -0.6736 C   0  0  0  0  0  0  0  0  0  0  0  0
   -0.6629    0.7350   -1.4789 O   0  0  0  0  0  0  0  0  0  0  0  0
    0.4500   -1.1548   -0.9606 N   0  0  0  0  0  0  0  0  0  0  0  0
    0.6355   -1.8350   -0.2418 H   0  0  0  0  0  0  0  0  0  0  0  0
    1.1228   -1.3127   -2.2491 C   0  0  0  0  0  0  0  0  0  0  0  0
    1.6780   -0.4033   -2.4894 H   0  0  0  0  0  0  0  0  0  0  0  0
    1.8124   -2.1574   -2.2163 H   0  0  0  0  0  0  0  0  0  0  0  0
    0.3810   -1.4821   -3.0322 H   0  0  0  0  0  0  0  0  0  0  0  0
  5  6  2  0  0  0  0
  5  7  1  0  0  0  0
  2  3  1  0  0  0  0
  2  4  1  0  0  0  0
  2  5  1  0  0  0  0
  1  2  1  0  0  0  0
 26 27  2  0  0  0  0
 26 28  1  0  0  0  0
 23 24  1  0  0  0  0
 23 25  1  0  0  0  0
 20 21  1  0  0  0  0
 20 22  1  0  0  0  0
 20 23  1  0  0  0  0
 17 18  1  0  0  0  0
 17 19  1  0  0  0  0
 17 20  1  0  0  0  0
 14 15  1  0  0  0  0
 14 16  1  0  0  0  0
 14 17  1  0  0  0  0
 11 12  1  0  0  0  0
 11 13  1  0  0  0  0
 11 14  1  0  0  0  0
  9 10  1  0  0  0  0
  9 11  1  0  0  0  0
  9 26  1  0  0  0  0
  7  8  1  0  0  0  0
  7  9  1  0  0  0  0
 30 31  1  0  0  0  0
 30 32  1  0  0  0  0
 30 33  1  0  0  0  0
 28 29  1  0  0  0  0
 28 30  1  0  0  0  0
M  END
$$$$
default_name
  -OEChem-01062215323D

 33 32  0     1  0  0  0  0  0999 V2000
   -3.8420   -3.6918    1.5562 H   0  0  0  0  0  0  0  0  0  0  0  0
   -3.8430   -2.7008    1.1032 C   0  0  0  0  0  0  0  0  0  0  0  0
   -4.5510   -2.0608    1.6242 H   0  0  0  0  0  0  0  0  0  0  0  0
   -4.1140   -2.7798    0.0522 H   0  0  0  0  0  0  0  0  0  0  0  0
   -2.4570   -2.1098    1.2172 C   0  0  0  0  0  0  0  0  0  0  0  0
   -1.5600   -2.7438    1.7572 O   0  0  0  0  0  0  0  0  0  0  0  0
   -2.2870   -0.8898    0.7102 N   0  0  0  0  0  0  0  0  0  0  0  0
   -3.0820   -0.4218    0.2992 H   0  0  0  0  0  0  0  0  0  0  0  0
   -1.0240   -0.1468    0.7262 C   0  0  1  0  0  0  0  0  0  0  0  0
   -1.2332    0.8869    1.0052 H   0  0  0  0  0  0  0  0  0  0  0  0
   -0.0983   -0.7673    1.7906 C   0  0  0  0  0  0  0  0  0  0  0  0
   -0.0320   -1.8419    1.6089 H   0  0  0  0  0  0  0  0  0  0  0  0
    0.9013   -0.3425    1.6896 H   0  0  0  0  0  0  0  0  0  0  0  0
   -0.5964   -0.5539    3.2286 C   0  0  0  0  0  0  0  0  0  0  0  0
   -0.6839    0.5139    3.4310 H   0  0  0  0  0  0  0  0  0  0  0  0
   -1.5766   -1.0207    3.3419 H   0  0  0  0  0  0  0  0  0  0  0  0
    0.3754   -1.1699    4.2415 C   0  0  0  0  0  0  0  0  0  0  0  0
    0.4795   -2.2377    4.0468 H   0  0  0  0  0  0  0  0  0  0  0  0
    1.3500   -0.6900    4.1484 H   0  0  0  0  0  0  0  0  0  0  0  0
   -0.1552   -0.9657    5.6592 C   0  0  0  0  0  0  0  0  0  0  0  0
   -0.2425    0.1004    5.8624 H   0  0  0  0  0  0  0  0  0  0  0  0
   -1.1364   -1.4290    5.7488 H   0  0  0  0  0  0  0  0  0  0  0  0
    0.7411   -1.5653    6.6545 N   0  0  0  0  0  0  0  0  0  0  0  0
    0.3679   -1.3998    7.5777 H   0  0  0  0  0  0  0  0  0  0  0  0
    0.8005   -2.5602    6.4901 H   0  0  0  0  0  0  0  0  0  0  0  0
   -0.3881   -0.1520   -0.6736 C   0  0  0  0  0  0  0  0  0  0  0  0
   -0.4351    0.8557   -1.3759 O   0  0  0  0  0  0  0  0  0  0  0  0
    0.1941   -1.2875   -1.0764 N   0  0  0  0  0  0  0  0  0  0  0  0
    0.2041   -2.0651   -0.4369 H   0  0  0  0  0  0  0  0  0  0  0  0
    0.8283   -1.4608   -2.3823 C   0  0  0  0  0  0  0  0  0  0  0  0
    1.5853   -0.6875   -2.5304 H   0  0  0  0  0  0  0  0  0  0  0  0
    1.2990   -2.4428   -2.4485 H   0  0  0  0  0  0  0  0  0  0  0  0
    0.0783   -1.3658   -3.1702 H   0  0  0  0  0  0  0  0  0  0  0  0
  5  6  2  0  0  0  0
  5  7  1  0  0  0  0
  2  3  1  0  0  0  0
  2  4  1  0  0  0  0
  2  5  1  0  0  0  0
  1  2  1  0  0  0  0
 26 27  2  0  0  0  0
 26 28  1  0  0  0  0
 23 24  1  0  0  0  0
 23 25  1  0  0  0  0
 20 21  1  0  0  0  0
 20 22  1  0  0  0  0
 20 23  1  0  0  0  0
 17 18  1  0  0  0  0
 17 19  1  0  0  0  0
 17 20  1  0  0  0  0
 14 15  1  0  0  0  0
 14 16  1  0  0  0  0
 14 17  1  0  0  0  0
 11 12  1  0  0  0  0
 11 13  1  0  0  0  0
 11 14  1  0  0  0  0
  9 10  1  0  0  0  0
  9 11  1  0  0  0  0
  9 26  1  0  0  0  0
  7  8  1  0  0  0  0
  7  9  1  0  0  0  0
 30 31  1  0  0  0  0
 30 32  1  0  0  0  0
 30 33  1  0  0  0  0
 28 29  1  0  0  0  0
 28 30  1  0  0  0  0
M  END
$$$$
default_name
  -OEChem-01062215323D

 33 32  0     1  0  0  0  0  0999 V2000
   -3.8420   -3.6918    1.5562 H   0  0  0  0  0  0  0  0  0  0  0  0
   -3.8430   -2.7008    1.1032 C   0  0  0  0  0  0  0  0  0  0  0  0
   -4.5510   -2.0608    1.6242 H   0  0  0  0  0  0  0  0  0  0  0  0
   -4.1140   -2.7798    0.0522 H   0  0  0  0  0  0  0  0  0  0  0  0
   -2.4570   -2.1098    1.2172 C   0  0  0  0  0  0  0  0  0  0  0  0
   -1.5600   -2.7438    1.7572 O   0  0  0  0  0  0  0  0  0  0  0  0
   -2.2870   -0.8898    0.7102 N   0  0  0  0  0  0  0  0  0  0  0  0
   -3.0820   -0.4218    0.2992 H   0  0  0  0  0  0  0  0  0  0  0  0
   -1.0240   -0.1468    0.7262 C   0  0  1  0  0  0  0  0  0  0  0  0
   -1.2332    0.8869    1.0052 H   0  0  0  0  0  0  0  0  0  0  0  0
   -0.0983   -0.7673    1.7906 C   0  0  0  0  0  0  0  0  0  0  0  0
   -0.0320   -1.8419    1.6089 H   0  0  0  0  0  0  0  0  0  0  0  0
    0.9013   -0.3425    1.6896 H   0  0  0  0  0  0  0  0  0  0  0  0
   -0.5964   -0.5539    3.2286 C   0  0  0  0  0  0  0  0  0  0  0  0
   -0.6839    0.5139    3.4310 H   0  0  0  0  0  0  0  0  0  0  0  0
   -1.5766   -1.0207    3.3419 H   0  0  0  0  0  0  0  0  0  0  0  0
    0.3754   -1.1699    4.2415 C   0  0  0  0  0  0  0  0  0  0  0  0
    0.4795   -2.2377    4.0468 H   0  0  0  0  0  0  0  0  0  0  0  0
    1.3500   -0.6900    4.1484 H   0  0  0  0  0  0  0  0  0  0  0  0
   -0.1552   -0.9657    5.6592 C   0  0  0  0  0  0  0  0  0  0  0  0
   -0.2425    0.1004    5.8624 H   0  0  0  0  0  0  0  0  0  0  0  0
   -1.1364   -1.4290    5.7488 H   0  0  0  0  0  0  0  0  0  0  0  0
    0.7411   -1.5653    6.6545 N   0  0  0  0  0  0  0  0  0  0  0  0
    0.3679   -1.3998    7.5777 H   0  0  0  0  0  0  0  0  0  0  0  0
    0.8005   -2.5602    6.4901 H   0  0  0  0  0  0  0  0  0  0  0  0
   -0.3881   -0.1520   -0.6736 C   0  0  0  0  0  0  0  0  0  0  0  0
   -0.1867    0.9076   -1.2633 O   0  0  0  0  0  0  0  0  0  0  0  0
   -0.0844   -1.3430   -1.2027 N   0  0  0  0  0  0  0  0  0  0  0  0
   -0.2665   -2.1648   -0.6504 H   0  0  0  0  0  0  0  0  0  0  0  0
    0.5091   -1.5202   -2.5271 C   0  0  0  0  0  0  0  0  0  0  0  0
    1.4289   -0.9359   -2.6005 H   0  0  0  0  0  0  0  0  0  0  0  0
    0.7360   -2.5726   -2.7037 H   0  0  0  0  0  0  0  0  0  0  0  0
   -0.1866   -1.1674   -3.2913 H   0  0  0  0  0  0  0  0  0  0  0  0
  5  6  2  0  0  0  0
  5  7  1  0  0  0  0
  2  3  1  0  0  0  0
  2  4  1  0  0  0  0
  2  5  1  0  0  0  0
  1  2  1  0  0  0  0
 26 27  2  0  0  0  0
 26 28  1  0  0  0  0
 23 24  1  0  0  0  0
 23 25  1  0  0  0  0
 20 21  1  0  0  0  0
 20 22  1  0  0  0  0
 20 23  1  0  0  0  0
 17 18  1  0  0  0  0
 17 19  1  0  0  0  0
 17 20  1  0  0  0  0
 14 15  1  0  0  0  0
 14 16  1  0  0  0  0
 14 17  1  0  0  0  0
 11 12  1  0  0  0  0
 11 13  1  0  0  0  0
 11 14  1  0  0  0  0
  9 10  1  0  0  0  0
  9 11  1  0  0  0  0
  9 26  1  0  0  0  0
  7  8  1  0  0  0  0
  7  9  1  0  0  0  0
 30 31  1  0  0  0  0
 30 32  1  0  0  0  0
 30 33  1  0  0  0  0
 28 29  1  0  0  0  0
 28 30  1  0  0  0  0
M  END
$$$$
default_name
  -OEChem-01062215323D

 33 32  0     1  0  0  0  0  0999 V2000
   -3.8420   -3.6918    1.5562 H   0  0  0  0  0  0  0  0  0  0  0  0
   -3.8430   -2.7008    1.1032 C   0  0  0  0  0  0  0  0  0  0  0  0
   -4.5510   -2.0608    1.6242 H   0  0  0  0  0  0  0  0  0  0  0  0
   -4.1140   -2.7798    0.0522 H   0  0  0  0  0  0  0  0  0  0  0  0
   -2.4570   -2.1098    1.2172 C   0  0  0  0  0  0  0  0  0  0  0  0
   -1.5600   -2.7438    1.7572 O   0  0  0  0  0  0  0  0  0  0  0  0
   -2.2870   -0.8898    0.7102 N   0  0  0  0  0  0  0  0  0  0  0  0
   -3.0820   -0.4218    0.2992 H   0  0  0  0  0  0  0  0  0  0  0  0
   -1.0240   -0.1468    0.7262 C   0  0  1  0  0  0  0  0  0  0  0  0
   -1.2332    0.8869    1.0052 H   0  0  0  0  0  0  0  0  0  0  0  0
   -0.0983   -0.7673    1.7906 C   0  0  0  0  0  0  0  0  0  0  0  0
   -0.0320   -1.8419    1.6089 H   0  0  0  0  0  0  0  0  0  0  0  0
    0.9013   -0.3425    1.6896 H   0  0  0  0  0  0  0  0  0  0  0  0
   -0.5964   -0.5539    3.2286 C   0  0  0  0  0  0  0  0  0  0  0  0
   -0.6839    0.5139    3.4310 H   0  0  0  0  0  0  0  0  0  0  0  0
   -1.5766   -1.0207    3.3419 H   0  0  0  0  0  0  0  0  0  0  0  0
    0.3754   -1.1699    4.2415 C   0  0  0  0  0  0  0  0  0  0  0  0
    0.4795   -2.2377    4.0468 H   0  0  0  0  0  0  0  0  0  0  0  0
    1.3500   -0.6900    4.1484 H   0  0  0  0  0  0  0  0  0  0  0  0
   -0.1552   -0.9657    5.6592 C   0  0  0  0  0  0  0  0  0  0  0  0
   -0.2425    0.1004    5.8624 H   0  0  0  0  0  0  0  0  0  0  0  0
   -1.1364   -1.4290    5.7488 H   0  0  0  0  0  0  0  0  0  0  0  0
    0.7411   -1.5653    6.6545 N   0  0  0  0  0  0  0  0  0  0  0  0
    0.3679   -1.3998    7.5777 H   0  0  0  0  0  0  0  0  0  0  0  0
    0.8005   -2.5602    6.4901 H   0  0  0  0  0  0  0  0  0  0  0  0
   -0.3881   -0.1520   -0.6736 C   0  0  0  0  0  0  0  0  0  0  0  0
    0.0653    0.8870   -1.1487 O   0  0  0  0  0  0  0  0  0  0  0  0
   -0.3663   -1.3174   -1.3308 N   0  0  0  0  0  0  0  0  0  0  0  0
   -0.7445   -2.1273   -0.8676 H   0  0  0  0  0  0  0  0  0  0  0  0
    0.1868   -1.4868   -2.6736 C   0  0  0  0  0  0  0  0  0  0  0  0
    1.2194   -1.1313   -2.6950 H   0  0  0  0  0  0  0  0  0  0  0  0
    0.1618   -2.5379   -2.9647 H   0  0  0  0  0  0  0  0  0  0  0  0
   -0.3956   -0.9003   -3.3872 H   0  0  0  0  0  0  0  0  0  0  0  0
  5  6  2  0  0  0  0
  5  7  1  0  0  0  0
  2  3  1  0  0  0  0
  2  4  1  0  0  0  0
  2  5  1  0  0  0  0
  1  2  1  0  0  0  0
 26 27  2  0  0  0  0
 26 28  1  0  0  0  0
 23 24  1  0  0  0  0
 23 25  1  0  0  0  0
 20 21  1  0  0  0  0
 20 22  1  0  0  0  0
 20 23  1  0  0  0  0
 17 18  1  0  0  0  0
 17 19  1  0  0  0  0
 17 20  1  0  0  0  0
 14 15  1  0  0  0  0
 14 16  1  0  0  0  0
 14 17  1  0  0  0  0
 11 12  1  0  0  0  0
 11 13  1  0  0  0  0
 11 14  1  0  0  0  0
  9 10  1  0  0  0  0
  9 11  1  0  0  0  0
  9 26  1  0  0  0  0
  7  8  1  0  0  0  0
  7  9  1  0  0  0  0
 30 31  1  0  0  0  0
 30 32  1  0  0  0  0
 30 33  1  0  0  0  0
 28 29  1  0  0  0  0
 28 30  1  0  0  0  0
M  END
$$$$
default_name
  -OEChem-01062215323D

 33 32  0     1  0  0  0  0  0999 V2000
   -3.8420   -3.6918    1.5562 H   0  0  0  0  0  0  0  0  0  0  0  0
   -3.8430   -2.7008    1.1032 C   0  0  0  0  0  0  0  0  0  0  0  0
   -4.5510   -2.0608    1.6242 H   0  0  0  0  0  0  0  0  0  0  0  0
   -4.1140   -2.7798    0.0522 H   0  0  0  0  0  0  0  0  0  0  0  0
   -2.4570   -2.1098    1.2172 C   0  0  0  0  0  0  0  0  0  0  0  0
   -1.5600   -2.7438    1.7572 O   0  0  0  0  0  0  0  0  0  0  0  0
   -2.2870   -0.8898    0.7102 N   0  0  0  0  0  0  0  0  0  0  0  0
   -3.0820   -0.4218    0.2992 H   0  0  0  0  0  0  0  0  0  0  0  0
   -1.0240   -0.1468    0.7262 C   0  0  1  0  0  0  0  0  0  0  0  0
   -1.2332    0.8869    1.0052 H   0  0  0  0  0  0  0  0  0  0  0  0
   -0.0983   -0.7673    1.7906 C   0  0  0  0  0  0  0  0  0  0  0  0
   -0.0320   -1.8419    1.6089 H   0  0  0  0  0  0  0  0  0  0  0  0
    0.9013   -0.3425    1.6896 H   0  0  0  0  0  0  0  0  0  0  0  0
   -0.5964   -0.5539    3.2286 C   0  0  0  0  0  0  0  0  0  0  0  0
   -0.6839    0.5139    3.4310 H   0  0  0  0  0  0  0  0  0  0  0  0
   -1.5766   -1.0207    3.3419 H   0  0  0  0  0  0  0  0  0  0  0  0
    0.3754   -1.1699    4.2415 C   0  0  0  0  0  0  0  0  0  0  0  0
    0.4795   -2.2377    4.0468 H   0  0  0  0  0  0  0  0  0  0  0  0
    1.3500   -0.6900    4.1484 H   0  0  0  0  0  0  0  0  0  0  0  0
   -0.1552   -0.9657    5.6592 C   0  0  0  0  0  0  0  0  0  0  0  0
   -0.2425    0.1004    5.8624 H   0  0  0  0  0  0  0  0  0  0  0  0
   -1.1364   -1.4290    5.7488 H   0  0  0  0  0  0  0  0  0  0  0  0
    0.7411   -1.5653    6.6545 N   0  0  0  0  0  0  0  0  0  0  0  0
    0.3679   -1.3998    7.5777 H   0  0  0  0  0  0  0  0  0  0  0  0
    0.8005   -2.5602    6.4901 H   0  0  0  0  0  0  0  0  0  0  0  0
   -0.3881   -0.1520   -0.6736 C   0  0  0  0  0  0  0  0  0  0  0  0
    0.3038    0.7956   -1.0400 O   0  0  0  0  0  0  0  0  0  0  0  0
   -0.6324   -1.2125   -1.4521 N   0  0  0  0  0  0  0  0  0  0  0  0
   -1.1971   -1.9553   -1.0739 H   0  0  0  0  0  0  0  0  0  0  0  0
   -0.1164   -1.3629   -2.8119 C   0  0  0  0  0  0  0  0  0  0  0  0
    0.9710   -1.2607   -2.8073 H   0  0  0  0  0  0  0  0  0  0  0  0
   -0.3844   -2.3412   -3.2135 H   0  0  0  0  0  0  0  0  0  0  0  0
   -0.5345   -0.5829   -3.4515 H   0  0  0  0  0  0  0  0  0  0  0  0
  5  6  2  0  0  0  0
  5  7  1  0  0  0  0
  2  3  1  0  0  0  0
  2  4  1  0  0  0  0
  2  5  1  0  0  0  0
  1  2  1  0  0  0  0
 26 27  2  0  0  0  0
 26 28  1  0  0  0  0
 23 24  1  0  0  0  0
 23 25  1  0  0  0  0
 20 21  1  0  0  0  0
 20 22  1  0  0  0  0
 20 23  1  0  0  0  0
 17 18  1  0  0  0  0
 17 19  1  0  0  0  0
 17 20  1  0  0  0  0
 14 15  1  0  0  0  0
 14 16  1  0  0  0  0
 14 17  1  0  0  0  0
 11 12  1  0  0  0  0
 11 13  1  0  0  0  0
 11 14  1  0  0  0  0
  9 10  1  0  0  0  0
  9 11  1  0  0  0  0
  9 26  1  0  0  0  0
  7  8  1  0  0  0  0
  7  9  1  0  0  0  0
 30 31  1  0  0  0  0
 30 32  1  0  0  0  0
 30 33  1  0  0  0  0
 28 29  1  0  0  0  0
 28 30  1  0  0  0  0
M  END
$$$$
default_name
  -OEChem-01062215323D

 33 32  0     1  0  0  0  0  0999 V2000
   -3.8420   -3.6918    1.5562 H   0  0  0  0  0  0  0  0  0  0  0  0
   -3.8430   -2.7008    1.1032 C   0  0  0  0  0  0  0  0  0  0  0  0
   -4.5510   -2.0608    1.6242 H   0  0  0  0  0  0  0  0  0  0  0  0
   -4.1140   -2.7798    0.0522 H   0  0  0  0  0  0  0  0  0  0  0  0
   -2.4570   -2.1098    1.2172 C   0  0  0  0  0  0  0  0  0  0  0  0
   -1.5600   -2.7438    1.7572 O   0  0  0  0  0  0  0  0  0  0  0  0
   -2.2870   -0.8898    0.7102 N   0  0  0  0  0  0  0  0  0  0  0  0
   -3.0820   -0.4218    0.2992 H   0  0  0  0  0  0  0  0  0  0  0  0
   -1.0240   -0.1468    0.7262 C   0  0  1  0  0  0  0  0  0  0  0  0
   -1.2332    0.8869    1.0052 H   0  0  0  0  0  0  0  0  0  0  0  0
   -0.0983   -0.7673    1.7906 C   0  0  0  0  0  0  0  0  0  0  0  0
   -0.0320   -1.8419    1.6089 H   0  0  0  0  0  0  0  0  0  0  0  0
    0.9013   -0.3425    1.6896 H   0  0  0  0  0  0  0  0  0  0  0  0
   -0.5964   -0.5539    3.2286 C   0  0  0  0  0  0  0  0  0  0  0  0
   -0.6839    0.5139    3.4310 H   0  0  0  0  0  0  0  0  0  0  0  0
   -1.5766   -1.0207    3.3419 H   0  0  0  0  0  0  0  0  0  0  0  0
    0.3754   -1.1699    4.2415 C   0  0  0  0  0  0  0  0  0  0  0  0
    0.4795   -2.2377    4.0468 H   0  0  0  0  0  0  0  0  0  0  0  0
    1.3500   -0.6900    4.1484 H   0  0  0  0  0  0  0  0  0  0  0  0
   -0.1552   -0.9657    5.6592 C   0  0  0  0  0  0  0  0  0  0  0  0
   -0.2425    0.1004    5.8624 H   0  0  0  0  0  0  0  0  0  0  0  0
   -1.1364   -1.4290    5.7488 H   0  0  0  0  0  0  0  0  0  0  0  0
    0.7411   -1.5653    6.6545 N   0  0  0  0  0  0  0  0  0  0  0  0
    0.3679   -1.3998    7.5777 H   0  0  0  0  0  0  0  0  0  0  0  0
    0.8005   -2.5602    6.4901 H   0  0  0  0  0  0  0  0  0  0  0  0
   -0.3881   -0.1520   -0.6736 C   0  0  0  0  0  0  0  0  0  0  0  0
    0.5125    0.6394   -0.9446 O   0  0  0  0  0  0  0  0  0  0  0  0
   -0.8647   -1.0356   -1.5583 N   0  0  0  0  0  0  0  0  0  0  0  0
   -1.5936   -1.6604   -1.2551 H   0  0  0  0  0  0  0  0  0  0  0  0
   -0.3801   -1.1570   -2.9324 C   0  0  0  0  0  0  0  0  0  0  0  0
    0.7007   -1.3150   -2.9299 H   0  0  0  0  0  0  0  0  0  0  0  0
   -0.8654   -1.9959   -3.4334 H   0  0  0  0  0  0  0  0  0  0  0  0
   -0.5937   -0.2366   -3.4797 H   0  0  0  0  0  0  0  0  0  0  0  0
  5  6  2  0  0  0  0
  5  7  1  0  0  0  0
  2  3  1  0  0  0  0
  2  4  1  0  0  0  0
  2  5  1  0  0  0  0
  1  2  1  0  0  0  0
 26 27  2  0  0  0  0
 26 28  1  0  0  0  0
 23 24  1  0  0  0  0
 23 25  1  0  0  0  0
 20 21  1  0  0  0  0
 20 22  1  0  0  0  0
 20 23  1  0  0  0  0
 17 18  1  0  0  0  0
 17 19  1  0  0  0  0
 17 20  1  0  0  0  0
 14 15  1  0  0  0  0
 14 16  1  0  0  0  0
 14 17  1  0  0  0  0
 11 12  1  0  0  0  0
 11 13  1  0  0  0  0
 11 14  1  0  0  0  0
  9 10  1  0  0  0  0
  9 11  1  0  0  0  0
  9 26  1  0  0  0  0
  7  8  1  0  0  0  0
  7  9  1  0  0  0  0
 30 31  1  0  0  0  0
 30 32  1  0  0  0  0
 30 33  1  0  0  0  0
 28 29  1  0  0  0  0
 28 30  1  0  0  0  0
M  END
$$$$
default_name
  -OEChem-01062215323D

 33 32  0     1  0  0  0  0  0999 V2000
   -3.8420   -3.6918    1.5562 H   0  0  0  0  0  0  0  0  0  0  0  0
   -3.8430   -2.7008    1.1032 C   0  0  0  0  0  0  0  0  0  0  0  0
   -4.5510   -2.0608    1.6242 H   0  0  0  0  0  0  0  0  0  0  0  0
   -4.1140   -2.7798    0.0522 H   0  0  0  0  0  0  0  0  0  0  0  0
   -2.4570   -2.1098    1.2172 C   0  0  0  0  0  0  0  0  0  0  0  0
   -1.5600   -2.7438    1.7572 O   0  0  0  0  0  0  0  0  0  0  0  0
   -2.2870   -0.8898    0.7102 N   0  0  0  0  0  0  0  0  0  0  0  0
   -3.0820   -0.4218    0.2992 H   0  0  0  0  0  0  0  0  0  0  0  0
   -1.0240   -0.1468    0.7262 C   0  0  1  0  0  0  0  0  0  0  0  0
   -1.2332    0.8869    1.0052 H   0  0  0  0  0  0  0  0  0  0  0  0
   -0.0983   -0.7673    1.7906 C   0  0  0  0  0  0  0  0  0  0  0  0
   -0.0320   -1.8419    1.6089 H   0  0  0  0  0  0  0  0  0  0  0  0
    0.9013   -0.3425    1.6896 H   0  0  0  0  0  0  0  0  0  0  0  0
   -0.5964   -0.5539    3.2286 C   0  0  0  0  0  0  0  0  0  0  0  0
   -0.6839    0.5139    3.4310 H   0  0  0  0  0  0  0  0  0  0  0  0
   -1.5766   -1.0207    3.3419 H   0  0  0  0  0  0  0  0  0  0  0  0
    0.3754   -1.1699    4.2415 C   0  0  0  0  0  0  0  0  0  0  0  0
    0.4795   -2.2377    4.0468 H   0  0  0  0  0  0  0  0  0  0  0  0
    1.3500   -0.6900    4.1484 H   0  0  0  0  0  0  0  0  0  0  0  0
   -0.1552   -0.9657    5.6592 C   0  0  0  0  0  0  0  0  0  0  0  0
   -0.2425    0.1004    5.8624 H   0  0  0  0  0  0  0  0  0  0  0  0
   -1.1364   -1.4290    5.7488 H   0  0  0  0  0  0  0  0  0  0  0  0
    0.7411   -1.5653    6.6545 N   0  0  0  0  0  0  0  0  0  0  0  0
    0.3679   -1.3998    7.5777 H   0  0  0  0  0  0  0  0  0  0  0  0
    0.8005   -2.5602    6.4901 H   0  0  0  0  0  0  0  0  0  0  0  0
   -0.3881   -0.1520   -0.6736 C   0  0  0  0  0  0  0  0  0  0  0  0
    0.6773    0.4291   -0.8690 O   0  0  0  0  0  0  0  0  0  0  0  0
   -1.0473   -0.7985   -1.6421 N   0  0  0  0  0  0  0  0  0  0  0  0
   -1.9070   -1.2626   -1.3989 H   0  0  0  0  0  0  0  0  0  0  0  0
   -0.5861   -0.8831   -3.0270 C   0  0  0  0  0  0  0  0  0  0  0  0
    0.4269   -1.2907   -3.0544 H   0  0  0  0  0  0  0  0  0  0  0  0
   -1.2485   -1.5254   -3.6092 H   0  0  0  0  0  0  0  0  0  0  0  0
   -0.5694    0.1148   -3.4700 H   0  0  0  0  0  0  0  0  0  0  0  0
  5  6  2  0  0  0  0
  5  7  1  0  0  0  0
  2  3  1  0  0  0  0
  2  4  1  0  0  0  0
  2  5  1  0  0  0  0
  1  2  1  0  0  0  0
 26 27  2  0  0  0  0
 26 28  1  0  0  0  0
 23 24  1  0  0  0  0
 23 25  1  0  0  0  0
 20 21  1  0  0  0  0
 20 22  1  0  0  0  0
 20 23  1  0  0  0  0
 17 18  1  0  0  0  0
 17 19  1  0  0  0  0
 17 20  1  0  0  0  0
 14 15  1  0  0  0  0
 14 16  1  0  0  0  0
 14 17  1  0  0  0  0
 11 12  1  0  0  0  0
 11 13  1  0  0  0  0
 11 14  1  0  0  0  0
  9 10  1  0  0  0  0
  9 11  1  0  0  0  0
  9 26  1  0  0  0  0
  7  8  1  0  0  0  0
  7  9  1  0  0  0  0
 30 31  1  0  0  0  0
 30 32  1  0  0  0  0
 30 33  1  0  0  0  0
 28 29  1  0  0  0  0
 28 30  1  0  0  0  0
M  END
$$$$
default_name
  -OEChem-01062215323D

 33 32  0     1  0  0  0  0  0999 V2000
   -3.8420   -3.6918    1.5562 H   0  0  0  0  0  0  0  0  0  0  0  0
   -3.8430   -2.7008    1.1032 C   0  0  0  0  0  0  0  0  0  0  0  0
   -4.5510   -2.0608    1.6242 H   0  0  0  0  0  0  0  0  0  0  0  0
   -4.1140   -2.7798    0.0522 H   0  0  0  0  0  0  0  0  0  0  0  0
   -2.4570   -2.1098    1.2172 C   0  0  0  0  0  0  0  0  0  0  0  0
   -1.5600   -2.7438    1.7572 O   0  0  0  0  0  0  0  0  0  0  0  0
   -2.2870   -0.8898    0.7102 N   0  0  0  0  0  0  0  0  0  0  0  0
   -3.0820   -0.4218    0.2992 H   0  0  0  0  0  0  0  0  0  0  0  0
   -1.0240   -0.1468    0.7262 C   0  0  1  0  0  0  0  0  0  0  0  0
   -1.2332    0.8869    1.0052 H   0  0  0  0  0  0  0  0  0  0  0  0
   -0.0983   -0.7673    1.7906 C   0  0  0  0  0  0  0  0  0  0  0  0
   -0.0320   -1.8419    1.6089 H   0  0  0  0  0  0  0  0  0  0  0  0
    0.9013   -0.3425    1.6896 H   0  0  0  0  0  0  0  0  0  0  0  0
   -0.5964   -0.5539    3.2286 C   0  0  0  0  0  0  0  0  0  0  0  0
   -0.6839    0.5139    3.4310 H   0  0  0  0  0  0  0  0  0  0  0  0
   -1.5766   -1.0207    3.3419 H   0  0  0  0  0  0  0  0  0  0  0  0
    0.3754   -1.1699    4.2415 C   0  0  0  0  0  0  0  0  0  0  0  0
    0.4795   -2.2377    4.0468 H   0  0  0  0  0  0  0  0  0  0  0  0
    1.3500   -0.6900    4.1484 H   0  0  0  0  0  0  0  0  0  0  0  0
   -0.1552   -0.9657    5.6592 C   0  0  0  0  0  0  0  0  0  0  0  0
   -0.2425    0.1004    5.8624 H   0  0  0  0  0  0  0  0  0  0  0  0
   -1.1364   -1.4290    5.7488 H   0  0  0  0  0  0  0  0  0  0  0  0
    0.7411   -1.5653    6.6545 N   0  0  0  0  0  0  0  0  0  0  0  0
    0.3679   -1.3998    7.5777 H   0  0  0  0  0  0  0  0  0  0  0  0
    0.8005   -2.5602    6.4901 H   0  0  0  0  0  0  0  0  0  0  0  0
   -0.3881   -0.1520   -0.6736 C   0  0  0  0  0  0  0  0  0  0  0  0
    0.7868    0.1791   -0.8183 O   0  0  0  0  0  0  0  0  0  0  0  0
   -1.1677   -0.5176   -1.6979 N   0  0  0  0  0  0  0  0  0  0  0  0
   -2.1158   -0.7892   -1.4956 H   0  0  0  0  0  0  0  0  0  0  0  0
   -0.7205   -0.5599   -3.0893 C   0  0  0  0  0  0  0  0  0  0  0  0
    0.1682   -1.1894   -3.1723 H   0  0  0  0  0  0  0  0  0  0  0  0
   -1.5075   -0.9619   -3.7289 H   0  0  0  0  0  0  0  0  0  0  0  0
   -0.4630    0.4475   -3.4229 H   0  0  0  0  0  0  0  0  0  0  0  0
  5  6  2  0  0  0  0
  5  7  1  0  0  0  0
  2  3  1  0  0  0  0
  2  4  1  0  0  0  0
  2  5  1  0  0  0  0
  1  2  1  0  0  0  0
 26 27  2  0  0  0  0
 26 28  1  0  0  0  0
 23 24  1  0  0  0  0
 23 25  1  0  0  0  0
 20 21  1  0  0  0  0
 20 22  1  0  0  0  0
 20 23  1  0  0  0  0
 17 18  1  0  0  0  0
 17 19  1  0  0  0  0
 17 20  1  0  0  0  0
 14 15  1  0  0  0  0
 14 16  1  0  0  0  0
 14 17  1  0  0  0  0
 11 12  1  0  0  0  0
 11 13  1  0  0  0  0
 11 14  1  0  0  0  0
  9 10  1  0  0  0  0
  9 11  1  0  0  0  0
  9 26  1  0  0  0  0
  7  8  1  0  0  0  0
  7  9  1  0  0  0  0
 30 31  1  0  0  0  0
 30 32  1  0  0  0  0
 30 33  1  0  0  0  0
 28 29  1  0  0  0  0
 28 30  1  0  0  0  0
M  END
$$$$
default_name
  -OEChem-01062215323D

 33 32  0     1  0  0  0  0  0999 V2000
   -3.8420   -3.6918    1.5562 H   0  0  0  0  0  0  0  0  0  0  0  0
   -3.8430   -2.7008    1.1032 C   0  0  0  0  0  0  0  0  0  0  0  0
   -4.5510   -2.0608    1.6242 H   0  0  0  0  0  0  0  0  0  0  0  0
   -4.1140   -2.7798    0.0522 H   0  0  0  0  0  0  0  0  0  0  0  0
   -2.4570   -2.1098    1.2172 C   0  0  0  0  0  0  0  0  0  0  0  0
   -1.5600   -2.7438    1.7572 O   0  0  0  0  0  0  0  0  0  0  0  0
   -2.2870   -0.8898    0.7102 N   0  0  0  0  0  0  0  0  0  0  0  0
   -3.0820   -0.4218    0.2992 H   0  0  0  0  0  0  0  0  0  0  0  0
   -1.0240   -0.1468    0.7262 C   0  0  1  0  0  0  0  0  0  0  0  0
   -1.2332    0.8869    1.0052 H   0  0  0  0  0  0  0  0  0  0  0  0
   -0.0983   -0.7673    1.7906 C   0  0  0  0  0  0  0  0  0  0  0  0
   -0.0320   -1.8419    1.6089 H   0  0  0  0  0  0  0  0  0  0  0  0
    0.9013   -0.3425    1.6896 H   0  0  0  0  0  0  0  0  0  0  0  0
   -0.5964   -0.5539    3.2286 C   0  0  0  0  0  0  0  0  0  0  0  0
   -0.6839    0.5139    3.4310 H   0  0  0  0  0  0  0  0  0  0  0  0
   -1.5766   -1.0207    3.3419 H   0  0  0  0  0  0  0  0  0  0  0  0
    0.3754   -1.1699    4.2415 C   0  0  0  0  0  0  0  0  0  0  0  0
    0.4795   -2.2377    4.0468 H   0  0  0  0  0  0  0  0  0  0  0  0
    1.3500   -0.6900    4.1484 H   0  0  0  0  0  0  0  0  0  0  0  0
   -0.1552   -0.9657    5.6592 C   0  0  0  0  0  0  0  0  0  0  0  0
   -0.2425    0.1004    5.8624 H   0  0  0  0  0  0  0  0  0  0  0  0
   -1.1364   -1.4290    5.7488 H   0  0  0  0  0  0  0  0  0  0  0  0
    0.7411   -1.5653    6.6545 N   0  0  0  0  0  0  0  0  0  0  0  0
    0.3679   -1.3998    7.5777 H   0  0  0  0  0  0  0  0  0  0  0  0
    0.8005   -2.5602    6.4901 H   0  0  0  0  0  0  0  0  0  0  0  0
   -0.3881   -0.1520   -0.6736 C   0  0  0  0  0  0  0  0  0  0  0  0
    0.8336   -0.0936   -0.7960 O   0  0  0  0  0  0  0  0  0  0  0  0
   -1.2177   -0.2118   -1.7218 N   0  0  0  0  0  0  0  0  0  0  0  0
   -2.2058   -0.2724   -1.5384 H   0  0  0  0  0  0  0  0  0  0  0  0
   -0.7740   -0.2093   -3.1149 C   0  0  0  0  0  0  0  0  0  0  0  0
   -0.0576   -1.0180   -3.2755 H   0  0  0  0  0  0  0  0  0  0  0  0
   -1.6247   -0.3438   -3.7845 H   0  0  0  0  0  0  0  0  0  0  0  0
   -0.2820    0.7387   -3.3418 H   0  0  0  0  0  0  0  0  0  0  0  0
  5  6  2  0  0  0  0
  5  7  1  0  0  0  0
  2  3  1  0  0  0  0
  2  4  1  0  0  0  0
  2  5  1  0  0  0  0
  1  2  1  0  0  0  0
 26 27  2  0  0  0  0
 26 28  1  0  0  0  0
 23 24  1  0  0  0  0
 23 25  1  0  0  0  0
 20 21  1  0  0  0  0
 20 22  1  0  0  0  0
 20 23  1  0  0  0  0
 17 18  1  0  0  0  0
 17 19  1  0  0  0  0
 17 20  1  0  0  0  0
 14 15  1  0  0  0  0
 14 16  1  0  0  0  0
 14 17  1  0  0  0  0
 11 12  1  0  0  0  0
 11 13  1  0  0  0  0
 11 14  1  0  0  0  0
  9 10  1  0  0  0  0
  9 11  1  0  0  0  0
  9 26  1  0  0  0  0
  7  8  1  0  0  0  0
  7  9  1  0  0  0  0
 30 31  1  0  0  0  0
 30 32  1  0  0  0  0
 30 33  1  0  0  0  0
 28 29  1  0  0  0  0
 28 30  1  0  0  0  0
M  END
$$$$
default_name
  -OEChem-01062215323D

 33 32  0     1  0  0  0  0  0999 V2000
   -3.8420   -3.6918    1.5562 H   0  0  0  0  0  0  0  0  0  0  0  0
   -3.8430   -2.7008    1.1032 C   0  0  0  0  0  0  0  0  0  0  0  0
   -4.5510   -2.0608    1.6242 H   0  0  0  0  0  0  0  0  0  0  0  0
   -4.1140   -2.7798    0.0522 H   0  0  0  0  0  0  0  0  0  0  0  0
   -2.4570   -2.1098    1.2172 C   0  0  0  0  0  0  0  0  0  0  0  0
   -1.5600   -2.7438    1.7572 O   0  0  0  0  0  0  0  0  0  0  0  0
   -2.2870   -0.8898    0.7102 N   0  0  0  0  0  0  0  0  0  0  0  0
   -3.0820   -0.4218    0.2992 H   0  0  0  0  0  0  0  0  0  0  0  0
   -1.0240   -0.1468    0.7262 C   0  0  1  0  0  0  0  0  0  0  0  0
   -1.2332    0.8869    1.0052 H   0  0  0  0  0  0  0  0  0  0  0  0
   -0.0983   -0.7673    1.7906 C   0  0  0  0  0  0  0  0  0  0  0  0
   -0.0320   -1.8419    1.6089 H   0  0  0  0  0  0  0  0  0  0  0  0
    0.9013   -0.3425    1.6896 H   0  0  0  0  0  0  0  0  0  0  0  0
   -0.5964   -0.5539    3.2286 C   0  0  0  0  0  0  0  0  0  0  0  0
   -0.6839    0.5139    3.4310 H   0  0  0  0  0  0  0  0  0  0  0  0
   -1.5766   -1.0207    3.3419 H   0  0  0  0  0  0  0  0  0  0  0  0
    0.3754   -1.1699    4.2415 C   0  0  0  0  0  0  0  0  0  0  0  0
    0.4795   -2.2377    4.0468 H   0  0  0  0  0  0  0  0  0  0  0  0
    1.3500   -0.6900    4.1484 H   0  0  0  0  0  0  0  0  0  0  0  0
   -0.1552   -0.9657    5.6592 C   0  0  0  0  0  0  0  0  0  0  0  0
   -0.2425    0.1004    5.8624 H   0  0  0  0  0  0  0  0  0  0  0  0
   -1.1364   -1.4290    5.7488 H   0  0  0  0  0  0  0  0  0  0  0  0
    0.7411   -1.5653    6.6545 N   0  0  0  0  0  0  0  0  0  0  0  0
    0.3679   -1.3998    7.5777 H   0  0  0  0  0  0  0  0  0  0  0  0
    0.8005   -2.5602    6.4901 H   0  0  0  0  0  0  0  0  0  0  0  0
   -0.3881   -0.1520   -0.6736 C   0  0  0  0  0  0  0  0  0  0  0  0
    0.8145   -0.3704   -0.8036 O   0  0  0  0  0  0  0  0  0  0  0  0
   -1.1940    0.0978   -1.7122 N   0  0  0  0  0  0  0  0  0  0  0  0
   -2.1710    0.2526   -1.5246 H   0  0  0  0  0  0  0  0  0  0  0  0
   -0.7431    0.1447   -3.1022 C   0  0  0  0  0  0  0  0  0  0  0  0
   -0.2353   -0.7881   -3.3571 H   0  0  0  0  0  0  0  0  0  0  0  0
   -1.5923    0.2869   -3.7722 H   0  0  0  0  0  0  0  0  0  0  0  0
   -0.0385    0.9687   -3.2320 H   0  0  0  0  0  0  0  0  0  0  0  0
  5  6  2  0  0  0  0
  5  7  1  0  0  0  0
  2  3  1  0  0  0  0
  2  4  1  0  0  0  0
  2  5  1  0  0  0  0
  1  2  1  0  0  0  0
 26 27  2  0  0  0  0
 26 28  1  0  0  0  0
 23 24  1  0  0  0  0
 23 25  1  0  0  0  0
 20 21  1  0  0  0  0
 20 22  1  0  0  0  0
 20 23  1  0  0  0  0
 17 18  1  0  0  0  0
 17 19  1  0  0  0  0
 17 20  1  0  0  0  0
 14 15  1  0  0  0  0
 14 16  1  0  0  0  0
 14 17  1  0  0  0  0
 11 12  1  0  0  0  0
 11 13  1  0  0  0  0
 11 14  1  0  0  0  0
  9 10  1  0  0  0  0
  9 11  1  0  0  0  0
  9 26  1  0  0  0  0
  7  8  1  0  0  0  0
  7  9  1  0  0  0  0
 30 31  1  0  0  0  0
 30 32  1  0  0  0  0
 30 33  1  0  0  0  0
 28 29  1  0  0  0  0
 28 30  1  0  0  0  0
M  END
$$$$
default_name
  -OEChem-01062215323D

 33 32  0     1  0  0  0  0  0999 V2000
   -3.8420   -3.6918    1.5562 H   0  0  0  0  0  0  0  0  0  0  0  0
   -3.8430   -2.7008    1.1032 C   0  0  0  0  0  0  0  0  0  0  0  0
   -4.5510   -2.0608    1.6242 H   0  0  0  0  0  0  0  0  0  0  0  0
   -4.1140   -2.7798    0.0522 H   0  0  0  0  0  0  0  0  0  0  0  0
   -2.4570   -2.1098    1.2172 C   0  0  0  0  0  0  0  0  0  0  0  0
   -1.5600   -2.7438    1.7572 O   0  0  0  0  0  0  0  0  0  0  0  0
   -2.2870   -0.8898    0.7102 N   0  0  0  0  0  0  0  0  0  0  0  0
   -3.0820   -0.4218    0.2992 H   0  0  0  0  0  0  0  0  0  0  0  0
   -1.0240   -0.1468    0.7262 C   0  0  1  0  0  0  0  0  0  0  0  0
   -1.2332    0.8869    1.0052 H   0  0  0  0  0  0  0  0  0  0  0  0
   -0.0983   -0.7673    1.7906 C   0  0  0  0  0  0  0  0  0  0  0  0
   -0.0320   -1.8419    1.6089 H   0  0  0  0  0  0  0  0  0  0  0  0
    0.9013   -0.3425    1.6896 H   0  0  0  0  0  0  0  0  0  0  0  0
   -0.5964   -0.5539    3.2286 C   0  0  0  0  0  0  0  0  0  0  0  0
   -0.6839    0.5139    3.4310 H   0  0  0  0  0  0  0  0  0  0  0  0
   -1.5766   -1.0207    3.3419 H   0  0  0  0  0  0  0  0  0  0  0  0
    0.3754   -1.1699    4.2415 C   0  0  0  0  0  0  0  0  0  0  0  0
    0.4795   -2.2377    4.0468 H   0  0  0  0  0  0  0  0  0  0  0  0
    1.3500   -0.6900    4.1484 H   0  0  0  0  0  0  0  0  0  0  0  0
   -0.1552   -0.9657    5.6592 C   0  0  0  0  0  0  0  0  0  0  0  0
   -0.2425    0.1004    5.8624 H   0  0  0  0  0  0  0  0  0  0  0  0
   -1.1364   -1.4290    5.7488 H   0  0  0  0  0  0  0  0  0  0  0  0
    0.7411   -1.5653    6.6545 N   0  0  0  0  0  0  0  0  0  0  0  0
    0.3679   -1.3998    7.5777 H   0  0  0  0  0  0  0  0  0  0  0  0
    0.8005   -2.5602    6.4901 H   0  0  0  0  0  0  0  0  0  0  0  0
   -0.3881   -0.1520   -0.6736 C   0  0  0  0  0  0  0  0  0  0  0  0
    0.7309   -0.6326   -0.8406 O   0  0  0  0  0  0  0  0  0  0  0  0
   -1.0981    0.3903   -1.6697 N   0  0  0  0  0  0  0  0  0  0  0  0
   -2.0136    0.7500   -1.4550 H   0  0  0  0  0  0  0  0  0  0  0  0
   -0.6299    0.4780   -3.0520 C   0  0  0  0  0  0  0  0  0  0  0  0
   -0.3526   -0.5155   -3.4114 H   0  0  0  0  0  0  0  0  0  0  0  0
   -1.4124    0.8871   -3.6927 H   0  0  0  0  0  0  0  0  0  0  0  0
    0.2508    1.1217   -3.1012 H   0  0  0  0  0  0  0  0  0  0  0  0
  5  6  2  0  0  0  0
  5  7  1  0  0  0  0
  2  3  1  0  0  0  0
  2  4  1  0  0  0  0
  2  5  1  0  0  0  0
  1  2  1  0  0  0  0
 26 27  2  0  0  0  0
 26 28  1  0  0  0  0
 23 24  1  0  0  0  0
 23 25  1  0  0  0  0
 20 21  1  0  0  0  0
 20 22  1  0  0  0  0
 20 23  1  0  0  0  0
 17 18  1  0  0  0  0
 17 19  1  0  0  0  0
 17 20  1  0  0  0  0
 14 15  1  0  0  0  0
 14 16  1  0  0  0  0
 14 17  1  0  0  0  0
 11 12  1  0  0  0  0
 11 13  1  0  0  0  0
 11 14  1  0  0  0  0
  9 10  1  0  0  0  0
  9 11  1  0  0  0  0
  9 26  1  0  0  0  0
  7  8  1  0  0  0  0
  7  9  1  0  0  0  0
 30 31  1  0  0  0  0
 30 32  1  0  0  0  0
 30 33  1  0  0  0  0
 28 29  1  0  0  0  0
 28 30  1  0  0  0  0
M  END
$$$$
default_name
  -OEChem-01062215323D

 33 32  0     1  0  0  0  0  0999 V2000
   -3.8420   -3.6918    1.5562 H   0  0  0  0  0  0  0  0  0  0  0  0
   -3.8430   -2.7008    1.1032 C   0  0  0  0  0  0  0  0  0  0  0  0
   -4.5510   -2.0608    1.6242 H   0  0  0  0  0  0  0  0  0  0  0  0
   -4.1140   -2.7798    0.0522 H   0  0  0  0  0  0  0  0  0  0  0  0
   -2.4570   -2.1098    1.2172 C   0  0  0  0  0  0  0  0  0  0  0  0
   -1.5600   -2.7438    1.7572 O   0  0  0  0  0  0  0  0  0  0  0  0
   -2.2870   -0.8898    0.7102 N   0  0  0  0  0  0  0  0  0  0  0  0
   -3.0820   -0.4218    0.2992 H   0  0  0  0  0  0  0  0  0  0  0  0
   -1.0240   -0.1468    0.7262 C   0  0  1  0  0  0  0  0  0  0  0  0
   -1.2332    0.8869    1.0052 H   0  0  0  0  0  0  0  0  0  0  0  0
   -0.0983   -0.7673    1.7906 C   0  0  0  0  0  0  0  0  0  0  0  0
   -0.0320   -1.8419    1.6089 H   0  0  0  0  0  0  0  0  0  0  0  0
    0.9013   -0.3425    1.6896 H   0  0  0  0  0  0  0  0  0  0  0  0
   -0.5964   -0.5539    3.2286 C   0  0  0  0  0  0  0  0  0  0  0  0
   -0.6839    0.5139    3.4310 H   0  0  0  0  0  0  0  0  0  0  0  0
   -1.5766   -1.0207    3.3419 H   0  0  0  0  0  0  0  0  0  0  0  0
    0.3754   -1.1699    4.2415 C   0  0  0  0  0  0  0  0  0  0  0  0
    0.4795   -2.2377    4.0468 H   0  0  0  0  0  0  0  0  0  0  0  0
    1.3500   -0.6900    4.1484 H   0  0  0  0  0  0  0  0  0  0  0  0
   -0.1552   -0.9657    5.6592 C   0  0  0  0  0  0  0  0  0  0  0  0
   -0.2425    0.1004    5.8624 H   0  0  0  0  0  0  0  0  0  0  0  0
   -1.1364   -1.4290    5.7488 H   0  0  0  0  0  0  0  0  0  0  0  0
    0.7411   -1.5653    6.6545 N   0  0  0  0  0  0  0  0  0  0  0  0
    0.3679   -1.3998    7.5777 H   0  0  0  0  0  0  0  0  0  0  0  0
    0.8005   -2.5602    6.4901 H   0  0  0  0  0  0  0  0  0  0  0  0
   -0.3881   -0.1520   -0.6736 C   0  0  0  0  0  0  0  0  0  0  0  0
    0.5884   -0.8621   -0.9045 O   0  0  0  0  0  0  0  0  0  0  0  0
   -0.9366    0.6457   -1.5973 N   0  0  0  0  0  0  0  0  0  0  0  0
   -1.7445    1.1859   -1.3344 H   0  0  0  0  0  0  0  0  0  0  0  0
   -0.4420    0.7678   -2.9678 C   0  0  0  0  0  0  0  0  0  0  0  0
   -0.4017   -0.2187   -3.4348 H   0  0  0  0  0  0  0  0  0  0  0  0
   -1.0972    1.4160   -3.5515 H   0  0  0  0  0  0  0  0  0  0  0  0
    0.5661    1.1873   -2.9582 H   0  0  0  0  0  0  0  0  0  0  0  0
  5  6  2  0  0  0  0
  5  7  1  0  0  0  0
  2  3  1  0  0  0  0
  2  4  1  0  0  0  0
  2  5  1  0  0  0  0
  1  2  1  0  0  0  0
 26 27  2  0  0  0  0
 26 28  1  0  0  0  0
 23 24  1  0  0  0  0
 23 25  1  0  0  0  0
 20 21  1  0  0  0  0
 20 22  1  0  0  0  0
 20 23  1  0  0  0  0
 17 18  1  0  0  0  0
 17 19  1  0  0  0  0
 17 20  1  0  0  0  0
 14 15  1  0  0  0  0
 14 16  1  0  0  0  0
 14 17  1  0  0  0  0
 11 12  1  0  0  0  0
 11 13  1  0  0  0  0
 11 14  1  0  0  0  0
  9 10  1  0  0  0  0
  9 11  1  0  0  0  0
  9 26  1  0  0  0  0
  7  8  1  0  0  0  0
  7  9  1  0  0  0  0
 30 31  1  0  0  0  0
 30 32  1  0  0  0  0
 30 33  1  0  0  0  0
 28 29  1  0  0  0  0
 28 30  1  0  0  0  0
M  END
$$$$
default_name
  -OEChem-01062215323D

 33 32  0     1  0  0  0  0  0999 V2000
   -3.8420   -3.6918    1.5562 H   0  0  0  0  0  0  0  0  0  0  0  0
   -3.8430   -2.7008    1.1032 C   0  0  0  0  0  0  0  0  0  0  0  0
   -4.5510   -2.0608    1.6242 H   0  0  0  0  0  0  0  0  0  0  0  0
   -4.1140   -2.7798    0.0522 H   0  0  0  0  0  0  0  0  0  0  0  0
   -2.4570   -2.1098    1.2172 C   0  0  0  0  0  0  0  0  0  0  0  0
   -1.5600   -2.7438    1.7572 O   0  0  0  0  0  0  0  0  0  0  0  0
   -2.2870   -0.8898    0.7102 N   0  0  0  0  0  0  0  0  0  0  0  0
   -3.0820   -0.4218    0.2992 H   0  0  0  0  0  0  0  0  0  0  0  0
   -1.0240   -0.1468    0.7262 C   0  0  1  0  0  0  0  0  0  0  0  0
   -1.2332    0.8869    1.0052 H   0  0  0  0  0  0  0  0  0  0  0  0
   -0.0983   -0.7673    1.7906 C   0  0  0  0  0  0  0  0  0  0  0  0
   -0.0320   -1.8419    1.6089 H   0  0  0  0  0  0  0  0  0  0  0  0
    0.9013   -0.3425    1.6896 H   0  0  0  0  0  0  0  0  0  0  0  0
   -0.5964   -0.5539    3.2286 C   0  0  0  0  0  0  0  0  0  0  0  0
   -0.6839    0.5139    3.4310 H   0  0  0  0  0  0  0  0  0  0  0  0
   -1.5766   -1.0207    3.3419 H   0  0  0  0  0  0  0  0  0  0  0  0
    0.3754   -1.1699    4.2415 C   0  0  0  0  0  0  0  0  0  0  0  0
    0.4795   -2.2377    4.0468 H   0  0  0  0  0  0  0  0  0  0  0  0
    1.3500   -0.6900    4.1484 H   0  0  0  0  0  0  0  0  0  0  0  0
   -0.1552   -0.9657    5.6592 C   0  0  0  0  0  0  0  0  0  0  0  0
   -0.2425    0.1004    5.8624 H   0  0  0  0  0  0  0  0  0  0  0  0
   -1.1364   -1.4290    5.7488 H   0  0  0  0  0  0  0  0  0  0  0  0
    0.7411   -1.5653    6.6545 N   0  0  0  0  0  0  0  0  0  0  0  0
    0.3679   -1.3998    7.5777 H   0  0  0  0  0  0  0  0  0  0  0  0
    0.8005   -2.5602    6.4901 H   0  0  0  0  0  0  0  0  0  0  0  0
   -0.3881   -0.1520   -0.6736 C   0  0  0  0  0  0  0  0  0  0  0  0
    0.3967   -1.0433   -0.9909 O   0  0  0  0  0  0  0  0  0  0  0  0
   -0.7205    0.8466   -1.4999 N   0  0  0  0  0  0  0  0  0  0  0  0
   -1.3819    1.5307   -1.1709 H   0  0  0  0  0  0  0  0  0  0  0  0
   -0.1923    0.9945   -2.8552 C   0  0  0  0  0  0  0  0  0  0  0  0
   -0.3791    0.0821   -3.4257 H   0  0  0  0  0  0  0  0  0  0  0  0
   -0.6683    1.8375   -3.3582 H   0  0  0  0  0  0  0  0  0  0  0  0
    0.8860    1.1611   -2.8128 H   0  0  0  0  0  0  0  0  0  0  0  0
  5  6  2  0  0  0  0
  5  7  1  0  0  0  0
  2  3  1  0  0  0  0
  2  4  1  0  0  0  0
  2  5  1  0  0  0  0
  1  2  1  0  0  0  0
 26 27  2  0  0  0  0
 26 28  1  0  0  0  0
 23 24  1  0  0  0  0
 23 25  1  0  0  0  0
 20 21  1  0  0  0  0
 20 22  1  0  0  0  0
 20 23  1  0  0  0  0
 17 18  1  0  0  0  0
 17 19  1  0  0  0  0
 17 20  1  0  0  0  0
 14 15  1  0  0  0  0
 14 16  1  0  0  0  0
 14 17  1  0  0  0  0
 11 12  1  0  0  0  0
 11 13  1  0  0  0  0
 11 14  1  0  0  0  0
  9 10  1  0  0  0  0
  9 11  1  0  0  0  0
  9 26  1  0  0  0  0
  7  8  1  0  0  0  0
  7  9  1  0  0  0  0
 30 31  1  0  0  0  0
 30 32  1  0  0  0  0
 30 33  1  0  0  0  0
 28 29  1  0  0  0  0
 28 30  1  0  0  0  0
M  END
$$$$
default_name
  -OEChem-01062215323D

 33 32  0     1  0  0  0  0  0999 V2000
   -3.8420   -3.6918    1.5562 H   0  0  0  0  0  0  0  0  0  0  0  0
   -3.8430   -2.7008    1.1032 C   0  0  0  0  0  0  0  0  0  0  0  0
   -4.5510   -2.0608    1.6242 H   0  0  0  0  0  0  0  0  0  0  0  0
   -4.1140   -2.7798    0.0522 H   0  0  0  0  0  0  0  0  0  0  0  0
   -2.4570   -2.1098    1.2172 C   0  0  0  0  0  0  0  0  0  0  0  0
   -1.5600   -2.7438    1.7572 O   0  0  0  0  0  0  0  0  0  0  0  0
   -2.2870   -0.8898    0.7102 N   0  0  0  0  0  0  0  0  0  0  0  0
   -3.0820   -0.4218    0.2992 H   0  0  0  0  0  0  0  0  0  0  0  0
   -1.0240   -0.1468    0.7262 C   0  0  1  0  0  0  0  0  0  0  0  0
   -1.2332    0.8869    1.0052 H   0  0  0  0  0  0  0  0  0  0  0  0
   -0.0983   -0.7673    1.7906 C   0  0  0  0  0  0  0  0  0  0  0  0
   -0.0320   -1.8419    1.6089 H   0  0  0  0  0  0  0  0  0  0  0  0
    0.9013   -0.3425    1.6896 H   0  0  0  0  0  0  0  0  0  0  0  0
   -0.5964   -0.5539    3.2286 C   0  0  0  0  0  0  0  0  0  0  0  0
   -0.6839    0.5139    3.4310 H   0  0  0  0  0  0  0  0  0  0  0  0
   -1.5766   -1.0207    3.3419 H   0  0  0  0  0  0  0  0  0  0  0  0
    0.3754   -1.1699    4.2415 C   0  0  0  0  0  0  0  0  0  0  0  0
    0.4795   -2.2377    4.0468 H   0  0  0  0  0  0  0  0  0  0  0  0
    1.3500   -0.6900    4.1484 H   0  0  0  0  0  0  0  0  0  0  0  0
   -0.1552   -0.9657    5.6592 C   0  0  0  0  0  0  0  0  0  0  0  0
   -0.2425    0.1004    5.8624 H   0  0  0  0  0  0  0  0  0  0  0  0
   -1.1364   -1.4290    5.7488 H   0  0  0  0  0  0  0  0  0  0  0  0
    0.7411   -1.5653    6.6545 N   0  0  0  0  0  0  0  0  0  0  0  0
    0.3679   -1.3998    7.5777 H   0  0  0  0  0  0  0  0  0  0  0  0
    0.8005   -2.5602    6.4901 H   0  0  0  0  0  0  0  0  0  0  0  0
   -0.3881   -0.1520   -0.6736 C   0  0  0  0  0  0  0  0  0  0  0  0
    0.1689   -1.1640   -1.0939 O   0  0  0  0  0  0  0  0  0  0  0  0
   -0.4645    0.9793   -1.3841 N   0  0  0  0  0  0  0  0  0  0  0  0
   -0.9506    1.7608   -0.9759 H   0  0  0  0  0  0  0  0  0  0  0  0
    0.1022    1.1426   -2.7220 C   0  0  0  0  0  0  0  0  0  0  0  0
   -0.2865    0.3663   -3.3847 H   0  0  0  0  0  0  0  0  0  0  0  0
   -0.1548    2.1228   -3.1261 H   0  0  0  0  0  0  0  0  0  0  0  0
    1.1888    1.0448   -2.6748 H   0  0  0  0  0  0  0  0  0  0  0  0
  5  6  2  0  0  0  0
  5  7  1  0  0  0  0
  2  3  1  0  0  0  0
  2  4  1  0  0  0  0
  2  5  1  0  0  0  0
  1  2  1  0  0  0  0
 26 27  2  0  0  0  0
 26 28  1  0  0  0  0
 23 24  1  0  0  0  0
 23 25  1  0  0  0  0
 20 21  1  0  0  0  0
 20 22  1  0  0  0  0
 20 23  1  0  0  0  0
 17 18  1  0  0  0  0
 17 19  1  0  0  0  0
 17 20  1  0  0  0  0
 14 15  1  0  0  0  0
 14 16  1  0  0  0  0
 14 17  1  0  0  0  0
 11 12  1  0  0  0  0
 11 13  1  0  0  0  0
 11 14  1  0  0  0  0
  9 10  1  0  0  0  0
  9 11  1  0  0  0  0
  9 26  1  0  0  0  0
  7  8  1  0  0  0  0
  7  9  1  0  0  0  0
 30 31  1  0  0  0  0
 30 32  1  0  0  0  0
 30 33  1  0  0  0  0
 28 29  1  0  0  0  0
 28 30  1  0  0  0  0
M  END
$$$$
default_name
  -OEChem-01062215323D

 33 32  0     1  0  0  0  0  0999 V2000
   -3.8420   -3.6918    1.5562 H   0  0  0  0  0  0  0  0  0  0  0  0
   -3.8430   -2.7008    1.1032 C   0  0  0  0  0  0  0  0  0  0  0  0
   -4.5510   -2.0608    1.6242 H   0  0  0  0  0  0  0  0  0  0  0  0
   -4.1140   -2.7798    0.0522 H   0  0  0  0  0  0  0  0  0  0  0  0
   -2.4570   -2.1098    1.2172 C   0  0  0  0  0  0  0  0  0  0  0  0
   -1.5600   -2.7438    1.7572 O   0  0  0  0  0  0  0  0  0  0  0  0
   -2.2870   -0.8898    0.7102 N   0  0  0  0  0  0  0  0  0  0  0  0
   -3.0820   -0.4218    0.2992 H   0  0  0  0  0  0  0  0  0  0  0  0
   -1.0240   -0.1468    0.7262 C   0  0  1  0  0  0  0  0  0  0  0  0
   -1.2332    0.8869    1.0052 H   0  0  0  0  0  0  0  0  0  0  0  0
   -0.0983   -0.7673    1.7906 C   0  0  0  0  0  0  0  0  0  0  0  0
   -0.0320   -1.8419    1.6089 H   0  0  0  0  0  0  0  0  0  0  0  0
    0.9013   -0.3425    1.6896 H   0  0  0  0  0  0  0  0  0  0  0  0
   -0.5964   -0.5539    3.2286 C   0  0  0  0  0  0  0  0  0  0  0  0
   -0.6839    0.5139    3.4310 H   0  0  0  0  0  0  0  0  0  0  0  0
   -1.5766   -1.0207    3.3419 H   0  0  0  0  0  0  0  0  0  0  0  0
    0.3754   -1.1699    4.2415 C   0  0  0  0  0  0  0  0  0  0  0  0
    0.4795   -2.2377    4.0468 H   0  0  0  0  0  0  0  0  0  0  0  0
    1.3500   -0.6900    4.1484 H   0  0  0  0  0  0  0  0  0  0  0  0
   -0.1552   -0.9657    5.6592 C   0  0  0  0  0  0  0  0  0  0  0  0
   -0.2425    0.1004    5.8624 H   0  0  0  0  0  0  0  0  0  0  0  0
   -1.1364   -1.4290    5.7488 H   0  0  0  0  0  0  0  0  0  0  0  0
    0.7411   -1.5653    6.6545 N   0  0  0  0  0  0  0  0  0  0  0  0
    0.3679   -1.3998    7.5777 H   0  0  0  0  0  0  0  0  0  0  0  0
    0.8005   -2.5602    6.4901 H   0  0  0  0  0  0  0  0  0  0  0  0
   -0.3881   -0.1520   -0.6736 C   0  0  0  0  0  0  0  0  0  0  0  0
   -0.0795   -1.2158   -1.2066 O   0  0  0  0  0  0  0  0  0  0  0  0
   -0.1861    1.0347   -1.2578 N   0  0  0  0  0  0  0  0  0  0  0  0
   -0.4799    1.8605   -0.7624 H   0  0  0  0  0  0  0  0  0  0  0  0
    0.4215    1.2020   -2.5772 C   0  0  0  0  0  0  0  0  0  0  0  0
   -0.1301    0.6146   -3.3146 H   0  0  0  0  0  0  0  0  0  0  0  0
    0.4082    2.2526   -2.8708 H   0  0  0  0  0  0  0  0  0  0  0  0
    1.4536    0.8464   -2.5537 H   0  0  0  0  0  0  0  0  0  0  0  0
  5  6  2  0  0  0  0
  5  7  1  0  0  0  0
  2  3  1  0  0  0  0
  2  4  1  0  0  0  0
  2  5  1  0  0  0  0
  1  2  1  0  0  0  0
 26 27  2  0  0  0  0
 26 28  1  0  0  0  0
 23 24  1  0  0  0  0
 23 25  1  0  0  0  0
 20 21  1  0  0  0  0
 20 22  1  0  0  0  0
 20 23  1  0  0  0  0
 17 18  1  0  0  0  0
 17 19  1  0  0  0  0
 17 20  1  0  0  0  0
 14 15  1  0  0  0  0
 14 16  1  0  0  0  0
 14 17  1  0  0  0  0
 11 12  1  0  0  0  0
 11 13  1  0  0  0  0
 11 14  1  0  0  0  0
  9 10  1  0  0  0  0
  9 11  1  0  0  0  0
  9 26  1  0  0  0  0
  7  8  1  0  0  0  0
  7  9  1  0  0  0  0
 30 31  1  0  0  0  0
 30 32  1  0  0  0  0
 30 33  1  0  0  0  0
 28 29  1  0  0  0  0
 28 30  1  0  0  0  0
M  END
$$$$
default_name
  -OEChem-01062215323D

 33 32  0     1  0  0  0  0  0999 V2000
   -3.8420   -3.6918    1.5562 H   0  0  0  0  0  0  0  0  0  0  0  0
   -3.8430   -2.7008    1.1032 C   0  0  0  0  0  0  0  0  0  0  0  0
   -4.5510   -2.0608    1.6242 H   0  0  0  0  0  0  0  0  0  0  0  0
   -4.1140   -2.7798    0.0522 H   0  0  0  0  0  0  0  0  0  0  0  0
   -2.4570   -2.1098    1.2172 C   0  0  0  0  0  0  0  0  0  0  0  0
   -1.5600   -2.7438    1.7572 O   0  0  0  0  0  0  0  0  0  0  0  0
   -2.2870   -0.8898    0.7102 N   0  0  0  0  0  0  0  0  0  0  0  0
   -3.0820   -0.4218    0.2992 H   0  0  0  0  0  0  0  0  0  0  0  0
   -1.0240   -0.1468    0.7262 C   0  0  1  0  0  0  0  0  0  0  0  0
   -1.2332    0.8869    1.0052 H   0  0  0  0  0  0  0  0  0  0  0  0
   -0.0983   -0.7673    1.7906 C   0  0  0  0  0  0  0  0  0  0  0  0
   -0.0320   -1.8419    1.6089 H   0  0  0  0  0  0  0  0  0  0  0  0
    0.9013   -0.3425    1.6896 H   0  0  0  0  0  0  0  0  0  0  0  0
   -0.5964   -0.5539    3.2286 C   0  0  0  0  0  0  0  0  0  0  0  0
   -0.6839    0.5139    3.4310 H   0  0  0  0  0  0  0  0  0  0  0  0
   -1.5766   -1.0207    3.3419 H   0  0  0  0  0  0  0  0  0  0  0  0
    0.3754   -1.1699    4.2415 C   0  0  0  0  0  0  0  0  0  0  0  0
    0.4795   -2.2377    4.0468 H   0  0  0  0  0  0  0  0  0  0  0  0
    1.3500   -0.6900    4.1484 H   0  0  0  0  0  0  0  0  0  0  0  0
   -0.1552   -0.9657    5.6592 C   0  0  0  0  0  0  0  0  0  0  0  0
   -0.2425    0.1004    5.8624 H   0  0  0  0  0  0  0  0  0  0  0  0
   -1.1364   -1.4290    5.7488 H   0  0  0  0  0  0  0  0  0  0  0  0
    0.7411   -1.5653    6.6545 N   0  0  0  0  0  0  0  0  0  0  0  0
    0.3679   -1.3998    7.5777 H   0  0  0  0  0  0  0  0  0  0  0  0
    0.8005   -2.5602    6.4901 H   0  0  0  0  0  0  0  0  0  0  0  0
   -0.3881   -0.1520   -0.6736 C   0  0  0  0  0  0  0  0  0  0  0  0
   -0.3315   -1.1953   -1.3211 O   0  0  0  0  0  0  0  0  0  0  0  0
    0.0958    1.0091   -1.1297 N   0  0  0  0  0  0  0  0  0  0  0  0
   -0.0019    1.8230   -0.5452 H   0  0  0  0  0  0  0  0  0  0  0  0
    0.7437    1.1686   -2.4306 C   0  0  0  0  0  0  0  0  0  0  0  0
    0.0795    0.8101   -3.2201 H   0  0  0  0  0  0  0  0  0  0  0  0
    0.9823    2.2180   -2.6098 H   0  0  0  0  0  0  0  0  0  0  0  0
    1.6626    0.5794   -2.4578 H   0  0  0  0  0  0  0  0  0  0  0  0
  5  6  2  0  0  0  0
  5  7  1  0  0  0  0
  2  3  1  0  0  0  0
  2  4  1  0  0  0  0
  2  5  1  0  0  0  0
  1  2  1  0  0  0  0
 26 27  2  0  0  0  0
 26 28  1  0  0  0  0
 23 24  1  0  0  0  0
 23 25  1  0  0  0  0
 20 21  1  0  0  0  0
 20 22  1  0  0  0  0
 20 23  1  0  0  0  0
 17 18  1  0  0  0  0
 17 19  1  0  0  0  0
 17 20  1  0  0  0  0
 14 15  1  0  0  0  0
 14 16  1  0  0  0  0
 14 17  1  0  0  0  0
 11 12  1  0  0  0  0
 11 13  1  0  0  0  0
 11 14  1  0  0  0  0
  9 10  1  0  0  0  0
  9 11  1  0  0  0  0
  9 26  1  0  0  0  0
  7  8  1  0  0  0  0
  7  9  1  0  0  0  0
 30 31  1  0  0  0  0
 30 32  1  0  0  0  0
 30 33  1  0  0  0  0
 28 29  1  0  0  0  0
 28 30  1  0  0  0  0
M  END
$$$$
default_name
  -OEChem-01062215323D

 33 32  0     1  0  0  0  0  0999 V2000
   -3.8420   -3.6918    1.5562 H   0  0  0  0  0  0  0  0  0  0  0  0
   -3.8430   -2.7008    1.1032 C   0  0  0  0  0  0  0  0  0  0  0  0
   -4.5510   -2.0608    1.6242 H   0  0  0  0  0  0  0  0  0  0  0  0
   -4.1140   -2.7798    0.0522 H   0  0  0  0  0  0  0  0  0  0  0  0
   -2.4570   -2.1098    1.2172 C   0  0  0  0  0  0  0  0  0  0  0  0
   -1.5600   -2.7438    1.7572 O   0  0  0  0  0  0  0  0  0  0  0  0
   -2.2870   -0.8898    0.7102 N   0  0  0  0  0  0  0  0  0  0  0  0
   -3.0820   -0.4218    0.2992 H   0  0  0  0  0  0  0  0  0  0  0  0
   -1.0240   -0.1468    0.7262 C   0  0  1  0  0  0  0  0  0  0  0  0
   -1.2332    0.8869    1.0052 H   0  0  0  0  0  0  0  0  0  0  0  0
   -0.0983   -0.7673    1.7906 C   0  0  0  0  0  0  0  0  0  0  0  0
   -0.0320   -1.8419    1.6089 H   0  0  0  0  0  0  0  0  0  0  0  0
    0.9013   -0.3425    1.6896 H   0  0  0  0  0  0  0  0  0  0  0  0
   -0.5964   -0.5539    3.2286 C   0  0  0  0  0  0  0  0  0  0  0  0
   -0.6839    0.5139    3.4310 H   0  0  0  0  0  0  0  0  0  0  0  0
   -1.5766   -1.0207    3.3419 H   0  0  0  0  0  0  0  0  0  0  0  0
    0.3754   -1.1699    4.2415 C   0  0  0  0  0  0  0  0  0  0  0  0
    0.4795   -2.2377    4.0468 H   0  0  0  0  0  0  0  0  0  0  0  0
    1.3500   -0.6900    4.1484 H   0  0  0  0  0  0  0  0  0  0  0  0
   -0.1552   -0.9657    5.6592 C   0  0  0  0  0  0  0  0  0  0  0  0
   -0.2425    0.1004    5.8624 H   0  0  0  0  0  0  0  0  0  0  0  0
   -1.1364   -1.4290    5.7488 H   0  0  0  0  0  0  0  0  0  0  0  0
    0.7411   -1.5653    6.6545 N   0  0  0  0  0  0  0  0  0  0  0  0
    0.3679   -1.3998    7.5777 H   0  0  0  0  0  0  0  0  0  0  0  0
    0.8005   -2.5602    6.4901 H   0  0  0  0  0  0  0  0  0  0  0  0
   -0.3881   -0.1520   -0.6736 C   0  0  0  0  0  0  0  0  0  0  0  0
   -0.5700   -1.1039   -1.4298 O   0  0  0  0  0  0  0  0  0  0  0  0
    0.3620    0.9043   -1.0084 N   0  0  0  0  0  0  0  0  0  0  0  0
    0.4507    1.6510   -0.3389 H   0  0  0  0  0  0  0  0  0  0  0  0
    1.0470    1.0448   -2.2924 C   0  0  0  0  0  0  0  0  0  0  0  0
    0.3279    0.9394   -3.1077 H   0  0  0  0  0  0  0  0  0  0  0  0
    1.5285    2.0213   -2.3610 H   0  0  0  0  0  0  0  0  0  0  0  0
    1.8015    0.2619   -2.3935 H   0  0  0  0  0  0  0  0  0  0  0  0
  5  6  2  0  0  0  0
  5  7  1  0  0  0  0
  2  3  1  0  0  0  0
  2  4  1  0  0  0  0
  2  5  1  0  0  0  0
  1  2  1  0  0  0  0
 26 27  2  0  0  0  0
 26 28  1  0  0  0  0
 23 24  1  0  0  0  0
 23 25  1  0  0  0  0
 20 21  1  0  0  0  0
 20 22  1  0  0  0  0
 20 23  1  0  0  0  0
 17 18  1  0  0  0  0
 17 19  1  0  0  0  0
 17 20  1  0  0  0  0
 14 15  1  0  0  0  0
 14 16  1  0  0  0  0
 14 17  1  0  0  0  0
 11 12  1  0  0  0  0
 11 13  1  0  0  0  0
 11 14  1  0  0  0  0
  9 10  1  0  0  0  0
  9 11  1  0  0  0  0
  9 26  1  0  0  0  0
  7  8  1  0  0  0  0
  7  9  1  0  0  0  0
 30 31  1  0  0  0  0
 30 32  1  0  0  0  0
 30 33  1  0  0  0  0
 28 29  1  0  0  0  0
 28 30  1  0  0  0  0
M  END
$$$$
default_name
  -OEChem-01062215323D

 33 32  0     1  0  0  0  0  0999 V2000
   -3.8420   -3.6918    1.5562 H   0  0  0  0  0  0  0  0  0  0  0  0
   -3.8430   -2.7008    1.1032 C   0  0  0  0  0  0  0  0  0  0  0  0
   -4.5510   -2.0608    1.6242 H   0  0  0  0  0  0  0  0  0  0  0  0
   -4.1140   -2.7798    0.0522 H   0  0  0  0  0  0  0  0  0  0  0  0
   -2.4570   -2.1098    1.2172 C   0  0  0  0  0  0  0  0  0  0  0  0
   -1.5600   -2.7438    1.7572 O   0  0  0  0  0  0  0  0  0  0  0  0
   -2.2870   -0.8898    0.7102 N   0  0  0  0  0  0  0  0  0  0  0  0
   -3.0820   -0.4218    0.2992 H   0  0  0  0  0  0  0  0  0  0  0  0
   -1.0240   -0.1468    0.7262 C   0  0  1  0  0  0  0  0  0  0  0  0
   -1.2332    0.8869    1.0052 H   0  0  0  0  0  0  0  0  0  0  0  0
   -0.0983   -0.7673    1.7906 C   0  0  0  0  0  0  0  0  0  0  0  0
   -0.0320   -1.8419    1.6089 H   0  0  0  0  0  0  0  0  0  0  0  0
    0.9013   -0.3425    1.6896 H   0  0  0  0  0  0  0  0  0  0  0  0
   -0.5964   -0.5539    3.2286 C   0  0  0  0  0  0  0  0  0  0  0  0
   -0.6839    0.5139    3.4310 H   0  0  0  0  0  0  0  0  0  0  0  0
   -1.5766   -1.0207    3.3419 H   0  0  0  0  0  0  0  0  0  0  0  0
    0.3754   -1.1699    4.2415 C   0  0  0  0  0  0  0  0  0  0  0  0
    0.4795   -2.2377    4.0468 H   0  0  0  0  0  0  0  0  0  0  0  0
    1.3500   -0.6900    4.1484 H   0  0  0  0  0  0  0  0  0  0  0  0
   -0.1552   -0.9657    5.6592 C   0  0  0  0  0  0  0  0  0  0  0  0
   -0.2425    0.1004    5.8624 H   0  0  0  0  0  0  0  0  0  0  0  0
   -1.1364   -1.4290    5.7488 H   0  0  0  0  0  0  0  0  0  0  0  0
    0.7411   -1.5653    6.6545 N   0  0  0  0  0  0  0  0  0  0  0  0
    0.3679   -1.3998    7.5777 H   0  0  0  0  0  0  0  0  0  0  0  0
    0.8005   -2.5602    6.4901 H   0  0  0  0  0  0  0  0  0  0  0  0
   -0.3881   -0.1520   -0.6736 C   0  0  0  0  0  0  0  0  0  0  0  0
   -0.7788   -0.9477   -1.5252 O   0  0  0  0  0  0  0  0  0  0  0  0
    0.5942    0.7273   -0.9022 N   0  0  0  0  0  0  0  0  0  0  0  0
    0.8472    1.3561   -0.1577 H   0  0  0  0  0  0  0  0  0  0  0  0
    1.3106    0.8389   -2.1719 C   0  0  0  0  0  0  0  0  0  0  0  0
    0.5982    0.9938   -2.9852 H   0  0  0  0  0  0  0  0  0  0  0  0
    2.0096    1.6759   -2.1412 H   0  0  0  0  0  0  0  0  0  0  0  0
    1.8608   -0.0844   -2.3653 H   0  0  0  0  0  0  0  0  0  0  0  0
  5  6  2  0  0  0  0
  5  7  1  0  0  0  0
  2  3  1  0  0  0  0
  2  4  1  0  0  0  0
  2  5  1  0  0  0  0
  1  2  1  0  0  0  0
 26 27  2  0  0  0  0
 26 28  1  0  0  0  0
 23 24  1  0  0  0  0
 23 25  1  0  0  0  0
 20 21  1  0  0  0  0
 20 22  1  0  0  0  0
 20 23  1  0  0  0  0
 17 18  1  0  0  0  0
 17 19  1  0  0  0  0
 17 20  1  0  0  0  0
 14 15  1  0  0  0  0
 14 16  1  0  0  0  0
 14 17  1  0  0  0  0
 11 12  1  0  0  0  0
 11 13  1  0  0  0  0
 11 14  1  0  0  0  0
  9 10  1  0  0  0  0
  9 11  1  0  0  0  0
  9 26  1  0  0  0  0
  7  8  1  0  0  0  0
  7  9  1  0  0  0  0
 30 31  1  0  0  0  0
 30 32  1  0  0  0  0
 30 33  1  0  0  0  0
 28 29  1  0  0  0  0
 28 30  1  0  0  0  0
M  END
$$$$
default_name
  -OEChem-01062215323D

 33 32  0     1  0  0  0  0  0999 V2000
   -3.8420   -3.6918    1.5562 H   0  0  0  0  0  0  0  0  0  0  0  0
   -3.8430   -2.7008    1.1032 C   0  0  0  0  0  0  0  0  0  0  0  0
   -4.5510   -2.0608    1.6242 H   0  0  0  0  0  0  0  0  0  0  0  0
   -4.1140   -2.7798    0.0522 H   0  0  0  0  0  0  0  0  0  0  0  0
   -2.4570   -2.1098    1.2172 C   0  0  0  0  0  0  0  0  0  0  0  0
   -1.5600   -2.7438    1.7572 O   0  0  0  0  0  0  0  0  0  0  0  0
   -2.2870   -0.8898    0.7102 N   0  0  0  0  0  0  0  0  0  0  0  0
   -3.0820   -0.4218    0.2992 H   0  0  0  0  0  0  0  0  0  0  0  0
   -1.0240   -0.1468    0.7262 C   0  0  1  0  0  0  0  0  0  0  0  0
   -1.1822    0.7949    1.2538 H   0  0  0  0  0  0  0  0  0  0  0  0
    0.0261   -0.9724    1.4946 C   0  0  0  0  0  0  0  0  0  0  0  0
    0.0550   -1.9782    1.0705 H   0  0  0  0  0  0  0  0  0  0  0  0
    1.0088   -0.5182    1.3610 H   0  0  0  0  0  0  0  0  0  0  0  0
   -0.2759   -1.0938    2.9965 C   0  0  0  0  0  0  0  0  0  0  0  0
   -0.3231   -0.0997    3.4418 H   0  0  0  0  0  0  0  0  0  0  0  0
   -1.2382   -1.5914    3.1300 H   0  0  0  0  0  0  0  0  0  0  0  0
    0.8132   -1.9027    3.7101 C   0  0  0  0  0  0  0  0  0  0  0  0
    0.8779   -2.8983    3.2700 H   0  0  0  0  0  0  0  0  0  0  0  0
    1.7729   -1.3969    3.5997 H   0  0  0  0  0  0  0  0  0  0  0  0
    0.4762   -2.0290    5.1946 C   0  0  0  0  0  0  0  0  0  0  0  0
    0.4293   -1.0368    5.6403 H   0  0  0  0  0  0  0  0  0  0  0  0
   -0.4901   -2.5180    5.3062 H   0  0  0  0  0  0  0  0  0  0  0  0
    1.4883   -2.8194    5.9047 N   0  0  0  0  0  0  0  0  0  0  0  0
    1.2419   -2.8705    6.8823 H   0  0  0  0  0  0  0  0  0  0  0  0
    1.5136   -3.7514    5.5160 H   0  0  0  0  0  0  0  0  0  0  0  0
   -0.5779    0.1714   -0.7104 C   0  0  0  0  0  0  0  0  0  0  0  0
   -1.2575   -0.2024   -1.6640 O   0  0  0  0  0  0  0  0  0  0  0  0
    0.5655    0.8503   -0.8593 N   0  0  0  0  0  0  0  0  0  0  0  0
    1.0574    1.1340   -0.0279 H   0  0  0  0  0  0  0  0  0  0  0  0
    1.1342    1.2168   -2.1554 C   0  0  0  0  0  0  0  0  0  0  0  0
    0.3970    1.7743   -2.7375 H   0  0  0  0  0  0  0  0  0  0  0  0
    2.0249    1.8317   -2.0190 H   0  0  0  0  0  0  0  0  0  0  0  0
    1.3999    0.3134   -2.7083 H   0  0  0  0  0  0  0  0  0  0  0  0
  5  6  2  0  0  0  0
  5  7  1  0  0  0  0
  2  3  1  0  0  0  0
  2  4  1  0  0  0  0
  2  5  1  0  0  0  0
  1  2  1  0  0  0  0
 26 27  2  0  0  0  0
 26 28  1  0  0  0  0
 23 24  1  0  0  0  0
 23 25  1  0  0  0  0
 20 21  1  0  0  0  0
 20 22  1  0  0  0  0
 20 23  1  0  0  0  0
 17 18  1  0  0  0  0
 17 19  1  0  0  0  0
 17 20  1  0  0  0  0
 14 15  1  0  0  0  0
 14 16  1  0  0  0  0
 14 17  1  0  0  0  0
 11 12  1  0  0  0  0
 11 13  1  0  0  0  0
 11 14  1  0  0  0  0
  9 10  1  0  0  0  0
  9 11  1  0  0  0  0
  9 26  1  0  0  0  0
  7  8  1  0  0  0  0
  7  9  1  0  0  0  0
 30 31  1  0  0  0  0
 30 32  1  0  0  0  0
 30 33  1  0  0  0  0
 28 29  1  0  0  0  0
 28 30  1  0  0  0  0
M  END
$$$$
default_name
  -OEChem-01062215323D

 33 32  0     1  0  0  0  0  0999 V2000
   -3.8420   -3.6918    1.5562 H   0  0  0  0  0  0  0  0  0  0  0  0
   -3.8430   -2.7008    1.1032 C   0  0  0  0  0  0  0  0  0  0  0  0
   -4.5510   -2.0608    1.6242 H   0  0  0  0  0  0  0  0  0  0  0  0
   -4.1140   -2.7798    0.0522 H   0  0  0  0  0  0  0  0  0  0  0  0
   -2.4570   -2.1098    1.2172 C   0  0  0  0  0  0  0  0  0  0  0  0
   -1.5600   -2.7438    1.7572 O   0  0  0  0  0  0  0  0  0  0  0  0
   -2.2870   -0.8898    0.7102 N   0  0  0  0  0  0  0  0  0  0  0  0
   -3.0820   -0.4218    0.2992 H   0  0  0  0  0  0  0  0  0  0  0  0
   -1.0240   -0.1468    0.7262 C   0  0  1  0  0  0  0  0  0  0  0  0
   -1.1822    0.7949    1.2538 H   0  0  0  0  0  0  0  0  0  0  0  0
    0.0261   -0.9724    1.4946 C   0  0  0  0  0  0  0  0  0  0  0  0
    0.0550   -1.9782    1.0705 H   0  0  0  0  0  0  0  0  0  0  0  0
    1.0088   -0.5182    1.3610 H   0  0  0  0  0  0  0  0  0  0  0  0
   -0.2759   -1.0938    2.9965 C   0  0  0  0  0  0  0  0  0  0  0  0
   -0.3231   -0.0997    3.4418 H   0  0  0  0  0  0  0  0  0  0  0  0
   -1.2382   -1.5914    3.1300 H   0  0  0  0  0  0  0  0  0  0  0  0
    0.8132   -1.9027    3.7101 C   0  0  0  0  0  0  0  0  0  0  0  0
    0.8779   -2.8983    3.2700 H   0  0  0  0  0  0  0  0  0  0  0  0
    1.7729   -1.3969    3.5997 H   0  0  0  0  0  0  0  0  0  0  0  0
    0.4762   -2.0290    5.1946 C   0  0  0  0  0  0  0  0  0  0  0  0
    0.4293   -1.0368    5.6403 H   0  0  0  0  0  0  0  0  0  0  0  0
   -0.4901   -2.5180    5.3062 H   0  0  0  0  0  0  0  0  0  0  0  0
    1.4883   -2.8194    5.9047 N   0  0  0  0  0  0  0  0  0  0  0  0
    1.2419   -2.8705    6.8823 H   0  0  0  0  0  0  0  0  0  0  0  0
    1.5136   -3.7514    5.5160 H   0  0  0  0  0  0  0  0  0  0  0  0
   -0.5779    0.1714   -0.7104 C   0  0  0  0  0  0  0  0  0  0  0  0
   -1.3697    0.0507   -1.6428 O   0  0  0  0  0  0  0  0  0  0  0  0
    0.6888    0.5662   -0.8839 N   0  0  0  0  0  0  0  0  0  0  0  0
    1.2713    0.6548   -0.0675 H   0  0  0  0  0  0  0  0  0  0  0  0
    1.2716    0.8902   -2.1851 C   0  0  0  0  0  0  0  0  0  0  0  0
    0.6676    1.6538   -2.6801 H   0  0  0  0  0  0  0  0  0  0  0  0
    2.2906    1.2603   -2.0631 H   0  0  0  0  0  0  0  0  0  0  0  0
    1.2843   -0.0023   -2.8141 H   0  0  0  0  0  0  0  0  0  0  0  0
  5  6  2  0  0  0  0
  5  7  1  0  0  0  0
  2  3  1  0  0  0  0
  2  4  1  0  0  0  0
  2  5  1  0  0  0  0
  1  2  1  0  0  0  0
 26 27  2  0  0  0  0
 26 28  1  0  0  0  0
 23 24  1  0  0  0  0
 23 25  1  0  0  0  0
 20 21  1  0  0  0  0
 20 22  1  0  0  0  0
 20 23  1  0  0  0  0
 17 18  1  0  0  0  0
 17 19  1  0  0  0  0
 17 20  1  0  0  0  0
 14 15  1  0  0  0  0
 14 16  1  0  0  0  0
 14 17  1  0  0  0  0
 11 12  1  0  0  0  0
 11 13  1  0  0  0  0
 11 14  1  0  0  0  0
  9 10  1  0  0  0  0
  9 11  1  0  0  0  0
  9 26  1  0  0  0  0
  7  8  1  0  0  0  0
  7  9  1  0  0  0  0
 30 31  1  0  0  0  0
 30 32  1  0  0  0  0
 30 33  1  0  0  0  0
 28 29  1  0  0  0  0
 28 30  1  0  0  0  0
M  END
$$$$
default_name
  -OEChem-01062215323D

 33 32  0     1  0  0  0  0  0999 V2000
   -3.8420   -3.6918    1.5562 H   0  0  0  0  0  0  0  0  0  0  0  0
   -3.8430   -2.7008    1.1032 C   0  0  0  0  0  0  0  0  0  0  0  0
   -4.5510   -2.0608    1.6242 H   0  0  0  0  0  0  0  0  0  0  0  0
   -4.1140   -2.7798    0.0522 H   0  0  0  0  0  0  0  0  0  0  0  0
   -2.4570   -2.1098    1.2172 C   0  0  0  0  0  0  0  0  0  0  0  0
   -1.5600   -2.7438    1.7572 O   0  0  0  0  0  0  0  0  0  0  0  0
   -2.2870   -0.8898    0.7102 N   0  0  0  0  0  0  0  0  0  0  0  0
   -3.0820   -0.4218    0.2992 H   0  0  0  0  0  0  0  0  0  0  0  0
   -1.0240   -0.1468    0.7262 C   0  0  1  0  0  0  0  0  0  0  0  0
   -1.1822    0.7949    1.2538 H   0  0  0  0  0  0  0  0  0  0  0  0
    0.0261   -0.9724    1.4946 C   0  0  0  0  0  0  0  0  0  0  0  0
    0.0550   -1.9782    1.0705 H   0  0  0  0  0  0  0  0  0  0  0  0
    1.0088   -0.5182    1.3610 H   0  0  0  0  0  0  0  0  0  0  0  0
   -0.2759   -1.0938    2.9965 C   0  0  0  0  0  0  0  0  0  0  0  0
   -0.3231   -0.0997    3.4418 H   0  0  0  0  0  0  0  0  0  0  0  0
   -1.2382   -1.5914    3.1300 H   0  0  0  0  0  0  0  0  0  0  0  0
    0.8132   -1.9027    3.7101 C   0  0  0  0  0  0  0  0  0  0  0  0
    0.8779   -2.8983    3.2700 H   0  0  0  0  0  0  0  0  0  0  0  0
    1.7729   -1.3969    3.5997 H   0  0  0  0  0  0  0  0  0  0  0  0
    0.4762   -2.0290    5.1946 C   0  0  0  0  0  0  0  0  0  0  0  0
    0.4293   -1.0368    5.6403 H   0  0  0  0  0  0  0  0  0  0  0  0
   -0.4901   -2.5180    5.3062 H   0  0  0  0  0  0  0  0  0  0  0  0
    1.4883   -2.8194    5.9047 N   0  0  0  0  0  0  0  0  0  0  0  0
    1.2419   -2.8705    6.8823 H   0  0  0  0  0  0  0  0  0  0  0  0
    1.5136   -3.7514    5.5160 H   0  0  0  0  0  0  0  0  0  0  0  0
   -0.5779    0.1714   -0.7104 C   0  0  0  0  0  0  0  0  0  0  0  0
   -1.4157    0.3206   -1.5973 O   0  0  0  0  0  0  0  0  0  0  0  0
    0.7379    0.2637   -0.9356 N   0  0  0  0  0  0  0  0  0  0  0  0
    1.3600    0.1431   -0.1533 H   0  0  0  0  0  0  0  0  0  0  0  0
    1.3239    0.5438   -2.2456 C   0  0  0  0  0  0  0  0  0  0  0  0
    0.9030    1.4677   -2.6482 H   0  0  0  0  0  0  0  0  0  0  0  0
    2.4067    0.6475   -2.1627 H   0  0  0  0  0  0  0  0  0  0  0  0
    1.0906   -0.2712   -2.9339 H   0  0  0  0  0  0  0  0  0  0  0  0
  5  6  2  0  0  0  0
  5  7  1  0  0  0  0
  2  3  1  0  0  0  0
  2  4  1  0  0  0  0
  2  5  1  0  0  0  0
  1  2  1  0  0  0  0
 26 27  2  0  0  0  0
 26 28  1  0  0  0  0
 23 24  1  0  0  0  0
 23 25  1  0  0  0  0
 20 21  1  0  0  0  0
 20 22  1  0  0  0  0
 20 23  1  0  0  0  0
 17 18  1  0  0  0  0
 17 19  1  0  0  0  0
 17 20  1  0  0  0  0
 14 15  1  0  0  0  0
 14 16  1  0  0  0  0
 14 17  1  0  0  0  0
 11 12  1  0  0  0  0
 11 13  1  0  0  0  0
 11 14  1  0  0  0  0
  9 10  1  0  0  0  0
  9 11  1  0  0  0  0
  9 26  1  0  0  0  0
  7  8  1  0  0  0  0
  7  9  1  0  0  0  0
 30 31  1  0  0  0  0
 30 32  1  0  0  0  0
 30 33  1  0  0  0  0
 28 29  1  0  0  0  0
 28 30  1  0  0  0  0
M  END
$$$$
default_name
  -OEChem-01062215323D

 33 32  0     1  0  0  0  0  0999 V2000
   -3.8420   -3.6918    1.5562 H   0  0  0  0  0  0  0  0  0  0  0  0
   -3.8430   -2.7008    1.1032 C   0  0  0  0  0  0  0  0  0  0  0  0
   -4.5510   -2.0608    1.6242 H   0  0  0  0  0  0  0  0  0  0  0  0
   -4.1140   -2.7798    0.0522 H   0  0  0  0  0  0  0  0  0  0  0  0
   -2.4570   -2.1098    1.2172 C   0  0  0  0  0  0  0  0  0  0  0  0
   -1.5600   -2.7438    1.7572 O   0  0  0  0  0  0  0  0  0  0  0  0
   -2.2870   -0.8898    0.7102 N   0  0  0  0  0  0  0  0  0  0  0  0
   -3.0820   -0.4218    0.2992 H   0  0  0  0  0  0  0  0  0  0  0  0
   -1.0240   -0.1468    0.7262 C   0  0  1  0  0  0  0  0  0  0  0  0
   -1.1822    0.7949    1.2538 H   0  0  0  0  0  0  0  0  0  0  0  0
    0.0261   -0.9724    1.4946 C   0  0  0  0  0  0  0  0  0  0  0  0
    0.0550   -1.9782    1.0705 H   0  0  0  0  0  0  0  0  0  0  0  0
    1.0088   -0.5182    1.3610 H   0  0  0  0  0  0  0  0  0  0  0  0
   -0.2759   -1.0938    2.9965 C   0  0  0  0  0  0  0  0  0  0  0  0
   -0.3231   -0.0997    3.4418 H   0  0  0  0  0  0  0  0  0  0  0  0
   -1.2382   -1.5914    3.1300 H   0  0  0  0  0  0  0  0  0  0  0  0
    0.8132   -1.9027    3.7101 C   0  0  0  0  0  0  0  0  0  0  0  0
    0.8779   -2.8983    3.2700 H   0  0  0  0  0  0  0  0  0  0  0  0
    1.7729   -1.3969    3.5997 H   0  0  0  0  0  0  0  0  0  0  0  0
    0.4762   -2.0290    5.1946 C   0  0  0  0  0  0  0  0  0  0  0  0
    0.4293   -1.0368    5.6403 H   0  0  0  0  0  0  0  0  0  0  0  0
   -0.4901   -2.5180    5.3062 H   0  0  0  0  0  0  0  0  0  0  0  0
    1.4883   -2.8194    5.9047 N   0  0  0  0  0  0  0  0  0  0  0  0
    1.2419   -2.8705    6.8823 H   0  0  0  0  0  0  0  0  0  0  0  0
    1.5136   -3.7514    5.5160 H   0  0  0  0  0  0  0  0  0  0  0  0
   -0.5779    0.1714   -0.7104 C   0  0  0  0  0  0  0  0  0  0  0  0
   -1.3925    0.5891   -1.5306 O   0  0  0  0  0  0  0  0  0  0  0  0
    0.7094   -0.0364   -1.0109 N   0  0  0  0  0  0  0  0  0  0  0  0
    1.3173   -0.3662   -0.2793 H   0  0  0  0  0  0  0  0  0  0  0  0
    1.2873    0.2010   -2.3328 C   0  0  0  0  0  0  0  0  0  0  0  0
    1.0871    1.2286   -2.6440 H   0  0  0  0  0  0  0  0  0  0  0  0
    2.3653    0.0350   -2.3112 H   0  0  0  0  0  0  0  0  0  0  0  0
    0.8320   -0.4752   -3.0593 H   0  0  0  0  0  0  0  0  0  0  0  0
  5  6  2  0  0  0  0
  5  7  1  0  0  0  0
  2  3  1  0  0  0  0
  2  4  1  0  0  0  0
  2  5  1  0  0  0  0
  1  2  1  0  0  0  0
 26 27  2  0  0  0  0
 26 28  1  0  0  0  0
 23 24  1  0  0  0  0
 23 25  1  0  0  0  0
 20 21  1  0  0  0  0
 20 22  1  0  0  0  0
 20 23  1  0  0  0  0
 17 18  1  0  0  0  0
 17 19  1  0  0  0  0
 17 20  1  0  0  0  0
 14 15  1  0  0  0  0
 14 16  1  0  0  0  0
 14 17  1  0  0  0  0
 11 12  1  0  0  0  0
 11 13  1  0  0  0  0
 11 14  1  0  0  0  0
  9 10  1  0  0  0  0
  9 11  1  0  0  0  0
  9 26  1  0  0  0  0
  7  8  1  0  0  0  0
  7  9  1  0  0  0  0
 30 31  1  0  0  0  0
 30 32  1  0  0  0  0
 30 33  1  0  0  0  0
 28 29  1  0  0  0  0
 28 30  1  0  0  0  0
M  END
$$$$
default_name
  -OEChem-01062215323D

 33 32  0     1  0  0  0  0  0999 V2000
   -3.8420   -3.6918    1.5562 H   0  0  0  0  0  0  0  0  0  0  0  0
   -3.8430   -2.7008    1.1032 C   0  0  0  0  0  0  0  0  0  0  0  0
   -4.5510   -2.0608    1.6242 H   0  0  0  0  0  0  0  0  0  0  0  0
   -4.1140   -2.7798    0.0522 H   0  0  0  0  0  0  0  0  0  0  0  0
   -2.4570   -2.1098    1.2172 C   0  0  0  0  0  0  0  0  0  0  0  0
   -1.5600   -2.7438    1.7572 O   0  0  0  0  0  0  0  0  0  0  0  0
   -2.2870   -0.8898    0.7102 N   0  0  0  0  0  0  0  0  0  0  0  0
   -3.0820   -0.4218    0.2992 H   0  0  0  0  0  0  0  0  0  0  0  0
   -1.0240   -0.1468    0.7262 C   0  0  1  0  0  0  0  0  0  0  0  0
   -1.1822    0.7949    1.2538 H   0  0  0  0  0  0  0  0  0  0  0  0
    0.0261   -0.9724    1.4946 C   0  0  0  0  0  0  0  0  0  0  0  0
    0.0550   -1.9782    1.0705 H   0  0  0  0  0  0  0  0  0  0  0  0
    1.0088   -0.5182    1.3610 H   0  0  0  0  0  0  0  0  0  0  0  0
   -0.2759   -1.0938    2.9965 C   0  0  0  0  0  0  0  0  0  0  0  0
   -0.3231   -0.0997    3.4418 H   0  0  0  0  0  0  0  0  0  0  0  0
   -1.2382   -1.5914    3.1300 H   0  0  0  0  0  0  0  0  0  0  0  0
    0.8132   -1.9027    3.7101 C   0  0  0  0  0  0  0  0  0  0  0  0
    0.8779   -2.8983    3.2700 H   0  0  0  0  0  0  0  0  0  0  0  0
    1.7729   -1.3969    3.5997 H   0  0  0  0  0  0  0  0  0  0  0  0
    0.4762   -2.0290    5.1946 C   0  0  0  0  0  0  0  0  0  0  0  0
    0.4293   -1.0368    5.6403 H   0  0  0  0  0  0  0  0  0  0  0  0
   -0.4901   -2.5180    5.3062 H   0  0  0  0  0  0  0  0  0  0  0  0
    1.4883   -2.8194    5.9047 N   0  0  0  0  0  0  0  0  0  0  0  0
    1.2419   -2.8705    6.8823 H   0  0  0  0  0  0  0  0  0  0  0  0
    1.5136   -3.7514    5.5160 H   0  0  0  0  0  0  0  0  0  0  0  0
   -0.5779    0.1714   -0.7104 C   0  0  0  0  0  0  0  0  0  0  0  0
   -1.3015    0.8378   -1.4473 O   0  0  0  0  0  0  0  0  0  0  0  0
    0.6052   -0.3137   -1.1047 N   0  0  0  0  0  0  0  0  0  0  0  0
    1.1462   -0.8383   -0.4370 H   0  0  0  0  0  0  0  0  0  0  0  0
    1.1644   -0.1147   -2.4409 C   0  0  0  0  0  0  0  0  0  0  0  0
    1.2073    0.9529   -2.6677 H   0  0  0  0  0  0  0  0  0  0  0  0
    2.1693   -0.5355   -2.4984 H   0  0  0  0  0  0  0  0  0  0  0  0
    0.5263   -0.6003   -3.1820 H   0  0  0  0  0  0  0  0  0  0  0  0
  5  6  2  0  0  0  0
  5  7  1  0  0  0  0
  2  3  1  0  0  0  0
  2  4  1  0  0  0  0
  2  5  1  0  0  0  0
  1  2  1  0  0  0  0
 26 27  2  0  0  0  0
 26 28  1  0  0  0  0
 23 24  1  0  0  0  0
 23 25  1  0  0  0  0
 20 21  1  0  0  0  0
 20 22  1  0  0  0  0
 20 23  1  0  0  0  0
 17 18  1  0  0  0  0
 17 19  1  0  0  0  0
 17 20  1  0  0  0  0
 14 15  1  0  0  0  0
 14 16  1  0  0  0  0
 14 17  1  0  0  0  0
 11 12  1  0  0  0  0
 11 13  1  0  0  0  0
 11 14  1  0  0  0  0
  9 10  1  0  0  0  0
  9 11  1  0  0  0  0
  9 26  1  0  0  0  0
  7  8  1  0  0  0  0
  7  9  1  0  0  0  0
 30 31  1  0  0  0  0
 30 32  1  0  0  0  0
 30 33  1  0  0  0  0
 28 29  1  0  0  0  0
 28 30  1  0  0  0  0
M  END
$$$$
default_name
  -OEChem-01062215323D

 33 32  0     1  0  0  0  0  0999 V2000
   -3.8420   -3.6918    1.5562 H   0  0  0  0  0  0  0  0  0  0  0  0
   -3.8430   -2.7008    1.1032 C   0  0  0  0  0  0  0  0  0  0  0  0
   -4.5510   -2.0608    1.6242 H   0  0  0  0  0  0  0  0  0  0  0  0
   -4.1140   -2.7798    0.0522 H   0  0  0  0  0  0  0  0  0  0  0  0
   -2.4570   -2.1098    1.2172 C   0  0  0  0  0  0  0  0  0  0  0  0
   -1.5600   -2.7438    1.7572 O   0  0  0  0  0  0  0  0  0  0  0  0
   -2.2870   -0.8898    0.7102 N   0  0  0  0  0  0  0  0  0  0  0  0
   -3.0820   -0.4218    0.2992 H   0  0  0  0  0  0  0  0  0  0  0  0
   -1.0240   -0.1468    0.7262 C   0  0  1  0  0  0  0  0  0  0  0  0
   -1.1822    0.7949    1.2538 H   0  0  0  0  0  0  0  0  0  0  0  0
    0.0261   -0.9724    1.4946 C   0  0  0  0  0  0  0  0  0  0  0  0
    0.0550   -1.9782    1.0705 H   0  0  0  0  0  0  0  0  0  0  0  0
    1.0088   -0.5182    1.3610 H   0  0  0  0  0  0  0  0  0  0  0  0
   -0.2759   -1.0938    2.9965 C   0  0  0  0  0  0  0  0  0  0  0  0
   -0.3231   -0.0997    3.4418 H   0  0  0  0  0  0  0  0  0  0  0  0
   -1.2382   -1.5914    3.1300 H   0  0  0  0  0  0  0  0  0  0  0  0
    0.8132   -1.9027    3.7101 C   0  0  0  0  0  0  0  0  0  0  0  0
    0.8779   -2.8983    3.2700 H   0  0  0  0  0  0  0  0  0  0  0  0
    1.7729   -1.3969    3.5997 H   0  0  0  0  0  0  0  0  0  0  0  0
    0.4762   -2.0290    5.1946 C   0  0  0  0  0  0  0  0  0  0  0  0
    0.4293   -1.0368    5.6403 H   0  0  0  0  0  0  0  0  0  0  0  0
   -0.4901   -2.5180    5.3062 H   0  0  0  0  0  0  0  0  0  0  0  0
    1.4883   -2.8194    5.9047 N   0  0  0  0  0  0  0  0  0  0  0  0
    1.2419   -2.8705    6.8823 H   0  0  0  0  0  0  0  0  0  0  0  0
    1.5136   -3.7514    5.5160 H   0  0  0  0  0  0  0  0  0  0  0  0
   -0.5779    0.1714   -0.7104 C   0  0  0  0  0  0  0  0  0  0  0  0
   -1.1491    1.0498   -1.3530 O   0  0  0  0  0  0  0  0  0  0  0  0
    0.4325   -0.5493   -1.2105 N   0  0  0  0  0  0  0  0  0  0  0  0
    0.8583   -1.2411   -0.6156 H   0  0  0  0  0  0  0  0  0  0  0  0
    0.9636   -0.3817   -2.5624 C   0  0  0  0  0  0  0  0  0  0  0  0
    1.2554    0.6592   -2.7178 H   0  0  0  0  0  0  0  0  0  0  0  0
    1.8319   -1.0251   -2.7116 H   0  0  0  0  0  0  0  0  0  0  0  0
    0.1941   -0.6380   -3.2935 H   0  0  0  0  0  0  0  0  0  0  0  0
  5  6  2  0  0  0  0
  5  7  1  0  0  0  0
  2  3  1  0  0  0  0
  2  4  1  0  0  0  0
  2  5  1  0  0  0  0
  1  2  1  0  0  0  0
 26 27  2  0  0  0  0
 26 28  1  0  0  0  0
 23 24  1  0  0  0  0
 23 25  1  0  0  0  0
 20 21  1  0  0  0  0
 20 22  1  0  0  0  0
 20 23  1  0  0  0  0
 17 18  1  0  0  0  0
 17 19  1  0  0  0  0
 17 20  1  0  0  0  0
 14 15  1  0  0  0  0
 14 16  1  0  0  0  0
 14 17  1  0  0  0  0
 11 12  1  0  0  0  0
 11 13  1  0  0  0  0
 11 14  1  0  0  0  0
  9 10  1  0  0  0  0
  9 11  1  0  0  0  0
  9 26  1  0  0  0  0
  7  8  1  0  0  0  0
  7  9  1  0  0  0  0
 30 31  1  0  0  0  0
 30 32  1  0  0  0  0
 30 33  1  0  0  0  0
 28 29  1  0  0  0  0
 28 30  1  0  0  0  0
M  END
$$$$
default_name
  -OEChem-01062215323D

 33 32  0     1  0  0  0  0  0999 V2000
   -3.8420   -3.6918    1.5562 H   0  0  0  0  0  0  0  0  0  0  0  0
   -3.8430   -2.7008    1.1032 C   0  0  0  0  0  0  0  0  0  0  0  0
   -4.5510   -2.0608    1.6242 H   0  0  0  0  0  0  0  0  0  0  0  0
   -4.1140   -2.7798    0.0522 H   0  0  0  0  0  0  0  0  0  0  0  0
   -2.4570   -2.1098    1.2172 C   0  0  0  0  0  0  0  0  0  0  0  0
   -1.5600   -2.7438    1.7572 O   0  0  0  0  0  0  0  0  0  0  0  0
   -2.2870   -0.8898    0.7102 N   0  0  0  0  0  0  0  0  0  0  0  0
   -3.0820   -0.4218    0.2992 H   0  0  0  0  0  0  0  0  0  0  0  0
   -1.0240   -0.1468    0.7262 C   0  0  1  0  0  0  0  0  0  0  0  0
   -1.1822    0.7949    1.2538 H   0  0  0  0  0  0  0  0  0  0  0  0
    0.0261   -0.9724    1.4946 C   0  0  0  0  0  0  0  0  0  0  0  0
    0.0550   -1.9782    1.0705 H   0  0  0  0  0  0  0  0  0  0  0  0
    1.0088   -0.5182    1.3610 H   0  0  0  0  0  0  0  0  0  0  0  0
   -0.2759   -1.0938    2.9965 C   0  0  0  0  0  0  0  0  0  0  0  0
   -0.3231   -0.0997    3.4418 H   0  0  0  0  0  0  0  0  0  0  0  0
   -1.2382   -1.5914    3.1300 H   0  0  0  0  0  0  0  0  0  0  0  0
    0.8132   -1.9027    3.7101 C   0  0  0  0  0  0  0  0  0  0  0  0
    0.8779   -2.8983    3.2700 H   0  0  0  0  0  0  0  0  0  0  0  0
    1.7729   -1.3969    3.5997 H   0  0  0  0  0  0  0  0  0  0  0  0
    0.4762   -2.0290    5.1946 C   0  0  0  0  0  0  0  0  0  0  0  0
    0.4293   -1.0368    5.6403 H   0  0  0  0  0  0  0  0  0  0  0  0
   -0.4901   -2.5180    5.3062 H   0  0  0  0  0  0  0  0  0  0  0  0
    1.4883   -2.8194    5.9047 N   0  0  0  0  0  0  0  0  0  0  0  0
    1.2419   -2.8705    6.8823 H   0  0  0  0  0  0  0  0  0  0  0  0
    1.5136   -3.7514    5.5160 H   0  0  0  0  0  0  0  0  0  0  0  0
   -0.5779    0.1714   -0.7104 C   0  0  0  0  0  0  0  0  0  0  0  0
   -0.9455    1.2106   -1.2542 O   0  0  0  0  0  0  0  0  0  0  0  0
    0.2031   -0.7272   -1.3212 N   0  0  0  0  0  0  0  0  0  0  0  0
    0.4732   -1.5471   -0.8030 H   0  0  0  0  0  0  0  0  0  0  0  0
    0.6986   -0.5820   -2.6891 C   0  0  0  0  0  0  0  0  0  0  0  0
    1.2282    0.3677   -2.7908 H   0  0  0  0  0  0  0  0  0  0  0  0
    1.3763   -1.4005   -2.9362 H   0  0  0  0  0  0  0  0  0  0  0  0
   -0.1419   -0.5857   -3.3862 H   0  0  0  0  0  0  0  0  0  0  0  0
  5  6  2  0  0  0  0
  5  7  1  0  0  0  0
  2  3  1  0  0  0  0
  2  4  1  0  0  0  0
  2  5  1  0  0  0  0
  1  2  1  0  0  0  0
 26 27  2  0  0  0  0
 26 28  1  0  0  0  0
 23 24  1  0  0  0  0
 23 25  1  0  0  0  0
 20 21  1  0  0  0  0
 20 22  1  0  0  0  0
 20 23  1  0  0  0  0
 17 18  1  0  0  0  0
 17 19  1  0  0  0  0
 17 20  1  0  0  0  0
 14 15  1  0  0  0  0
 14 16  1  0  0  0  0
 14 17  1  0  0  0  0
 11 12  1  0  0  0  0
 11 13  1  0  0  0  0
 11 14  1  0  0  0  0
  9 10  1  0  0  0  0
  9 11  1  0  0  0  0
  9 26  1  0  0  0  0
  7  8  1  0  0  0  0
  7  9  1  0  0  0  0
 30 31  1  0  0  0  0
 30 32  1  0  0  0  0
 30 33  1  0  0  0  0
 28 29  1  0  0  0  0
 28 30  1  0  0  0  0
M  END
$$$$
default_name
  -OEChem-01062215323D

 33 32  0     1  0  0  0  0  0999 V2000
   -3.8420   -3.6918    1.5562 H   0  0  0  0  0  0  0  0  0  0  0  0
   -3.8430   -2.7008    1.1032 C   0  0  0  0  0  0  0  0  0  0  0  0
   -4.5510   -2.0608    1.6242 H   0  0  0  0  0  0  0  0  0  0  0  0
   -4.1140   -2.7798    0.0522 H   0  0  0  0  0  0  0  0  0  0  0  0
   -2.4570   -2.1098    1.2172 C   0  0  0  0  0  0  0  0  0  0  0  0
   -1.5600   -2.7438    1.7572 O   0  0  0  0  0  0  0  0  0  0  0  0
   -2.2870   -0.8898    0.7102 N   0  0  0  0  0  0  0  0  0  0  0  0
   -3.0820   -0.4218    0.2992 H   0  0  0  0  0  0  0  0  0  0  0  0
   -1.0240   -0.1468    0.7262 C   0  0  1  0  0  0  0  0  0  0  0  0
   -1.1822    0.7949    1.2538 H   0  0  0  0  0  0  0  0  0  0  0  0
    0.0261   -0.9724    1.4946 C   0  0  0  0  0  0  0  0  0  0  0  0
    0.0550   -1.9782    1.0705 H   0  0  0  0  0  0  0  0  0  0  0  0
    1.0088   -0.5182    1.3610 H   0  0  0  0  0  0  0  0  0  0  0  0
   -0.2759   -1.0938    2.9965 C   0  0  0  0  0  0  0  0  0  0  0  0
   -0.3231   -0.0997    3.4418 H   0  0  0  0  0  0  0  0  0  0  0  0
   -1.2382   -1.5914    3.1300 H   0  0  0  0  0  0  0  0  0  0  0  0
    0.8132   -1.9027    3.7101 C   0  0  0  0  0  0  0  0  0  0  0  0
    0.8779   -2.8983    3.2700 H   0  0  0  0  0  0  0  0  0  0  0  0
    1.7729   -1.3969    3.5997 H   0  0  0  0  0  0  0  0  0  0  0  0
    0.4762   -2.0290    5.1946 C   0  0  0  0  0  0  0  0  0  0  0  0
    0.4293   -1.0368    5.6403 H   0  0  0  0  0  0  0  0  0  0  0  0
   -0.4901   -2.5180    5.3062 H   0  0  0  0  0  0  0  0  0  0  0  0
    1.4883   -2.8194    5.9047 N   0  0  0  0  0  0  0  0  0  0  0  0
    1.2419   -2.8705    6.8823 H   0  0  0  0  0  0  0  0  0  0  0  0
    1.5136   -3.7514    5.5160 H   0  0  0  0  0  0  0  0  0  0  0  0
   -0.5779    0.1714   -0.7104 C   0  0  0  0  0  0  0  0  0  0  0  0
   -0.7047    1.3093   -1.1576 O   0  0  0  0  0  0  0  0  0  0  0  0
   -0.0675   -0.8353   -1.4291 N   0  0  0  0  0  0  0  0  0  0  0  0
    0.0172   -1.7355   -0.9863 H   0  0  0  0  0  0  0  0  0  0  0  0
    0.3873   -0.7019   -2.8123 C   0  0  0  0  0  0  0  0  0  0  0  0
    1.1276    0.0982   -2.8817 H   0  0  0  0  0  0  0  0  0  0  0  0
    0.8333   -1.6359   -3.1570 H   0  0  0  0  0  0  0  0  0  0  0  0
   -0.4587   -0.4470   -3.4539 H   0  0  0  0  0  0  0  0  0  0  0  0
  5  6  2  0  0  0  0
  5  7  1  0  0  0  0
  2  3  1  0  0  0  0
  2  4  1  0  0  0  0
  2  5  1  0  0  0  0
  1  2  1  0  0  0  0
 26 27  2  0  0  0  0
 26 28  1  0  0  0  0
 23 24  1  0  0  0  0
 23 25  1  0  0  0  0
 20 21  1  0  0  0  0
 20 22  1  0  0  0  0
 20 23  1  0  0  0  0
 17 18  1  0  0  0  0
 17 19  1  0  0  0  0
 17 20  1  0  0  0  0
 14 15  1  0  0  0  0
 14 16  1  0  0  0  0
 14 17  1  0  0  0  0
 11 12  1  0  0  0  0
 11 13  1  0  0  0  0
 11 14  1  0  0  0  0
  9 10  1  0  0  0  0
  9 11  1  0  0  0  0
  9 26  1  0  0  0  0
  7  8  1  0  0  0  0
  7  9  1  0  0  0  0
 30 31  1  0  0  0  0
 30 32  1  0  0  0  0
 30 33  1  0  0  0  0
 28 29  1  0  0  0  0
 28 30  1  0  0  0  0
M  END
$$$$
default_name
  -OEChem-01062215323D

 33 32  0     1  0  0  0  0  0999 V2000
   -3.8420   -3.6918    1.5562 H   0  0  0  0  0  0  0  0  0  0  0  0
   -3.8430   -2.7008    1.1032 C   0  0  0  0  0  0  0  0  0  0  0  0
   -4.5510   -2.0608    1.6242 H   0  0  0  0  0  0  0  0  0  0  0  0
   -4.1140   -2.7798    0.0522 H   0  0  0  0  0  0  0  0  0  0  0  0
   -2.4570   -2.1098    1.2172 C   0  0  0  0  0  0  0  0  0  0  0  0
   -1.5600   -2.7438    1.7572 O   0  0  0  0  0  0  0  0  0  0  0  0
   -2.2870   -0.8898    0.7102 N   0  0  0  0  0  0  0  0  0  0  0  0
   -3.0820   -0.4218    0.2992 H   0  0  0  0  0  0  0  0  0  0  0  0
   -1.0240   -0.1468    0.7262 C   0  0  1  0  0  0  0  0  0  0  0  0
   -1.1822    0.7949    1.2538 H   0  0  0  0  0  0  0  0  0  0  0  0
    0.0261   -0.9724    1.4946 C   0  0  0  0  0  0  0  0  0  0  0  0
    0.0550   -1.9782    1.0705 H   0  0  0  0  0  0  0  0  0  0  0  0
    1.0088   -0.5182    1.3610 H   0  0  0  0  0  0  0  0  0  0  0  0
   -0.2759   -1.0938    2.9965 C   0  0  0  0  0  0  0  0  0  0  0  0
   -0.3231   -0.0997    3.4418 H   0  0  0  0  0  0  0  0  0  0  0  0
   -1.2382   -1.5914    3.1300 H   0  0  0  0  0  0  0  0  0  0  0  0
    0.8132   -1.9027    3.7101 C   0  0  0  0  0  0  0  0  0  0  0  0
    0.8779   -2.8983    3.2700 H   0  0  0  0  0  0  0  0  0  0  0  0
    1.7729   -1.3969    3.5997 H   0  0  0  0  0  0  0  0  0  0  0  0
    0.4762   -2.0290    5.1946 C   0  0  0  0  0  0  0  0  0  0  0  0
    0.4293   -1.0368    5.6403 H   0  0  0  0  0  0  0  0  0  0  0  0
   -0.4901   -2.5180    5.3062 H   0  0  0  0  0  0  0  0  0  0  0  0
    1.4883   -2.8194    5.9047 N   0  0  0  0  0  0  0  0  0  0  0  0
    1.2419   -2.8705    6.8823 H   0  0  0  0  0  0  0  0  0  0  0  0
    1.5136   -3.7514    5.5160 H   0  0  0  0  0  0  0  0  0  0  0  0
   -0.5779    0.1714   -0.7104 C   0  0  0  0  0  0  0  0  0  0  0  0
   -0.4431    1.3391   -1.0697 O   0  0  0  0  0  0  0  0  0  0  0  0
   -0.3608   -0.8661   -1.5270 N   0  0  0  0  0  0  0  0  0  0  0  0
   -0.4786   -1.7935   -1.1531 H   0  0  0  0  0  0  0  0  0  0  0  0
    0.0511   -0.7332   -2.9236 C   0  0  0  0  0  0  0  0  0  0  0  0
    0.9603   -0.1310   -2.9844 H   0  0  0  0  0  0  0  0  0  0  0  0
    0.2401   -1.7155   -3.3588 H   0  0  0  0  0  0  0  0  0  0  0  0
   -0.7348   -0.2313   -3.4919 H   0  0  0  0  0  0  0  0  0  0  0  0
  5  6  2  0  0  0  0
  5  7  1  0  0  0  0
  2  3  1  0  0  0  0
  2  4  1  0  0  0  0
  2  5  1  0  0  0  0
  1  2  1  0  0  0  0
 26 27  2  0  0  0  0
 26 28  1  0  0  0  0
 23 24  1  0  0  0  0
 23 25  1  0  0  0  0
 20 21  1  0  0  0  0
 20 22  1  0  0  0  0
 20 23  1  0  0  0  0
 17 18  1  0  0  0  0
 17 19  1  0  0  0  0
 17 20  1  0  0  0  0
 14 15  1  0  0  0  0
 14 16  1  0  0  0  0
 14 17  1  0  0  0  0
 11 12  1  0  0  0  0
 11 13  1  0  0  0  0
 11 14  1  0  0  0  0
  9 10  1  0  0  0  0
  9 11  1  0  0  0  0
  9 26  1  0  0  0  0
  7  8  1  0  0  0  0
  7  9  1  0  0  0  0
 30 31  1  0  0  0  0
 30 32  1  0  0  0  0
 30 33  1  0  0  0  0
 28 29  1  0  0  0  0
 28 30  1  0  0  0  0
M  END
$$$$
default_name
  -OEChem-01062215323D

 33 32  0     1  0  0  0  0  0999 V2000
   -3.8420   -3.6918    1.5562 H   0  0  0  0  0  0  0  0  0  0  0  0
   -3.8430   -2.7008    1.1032 C   0  0  0  0  0  0  0  0  0  0  0  0
   -4.5510   -2.0608    1.6242 H   0  0  0  0  0  0  0  0  0  0  0  0
   -4.1140   -2.7798    0.0522 H   0  0  0  0  0  0  0  0  0  0  0  0
   -2.4570   -2.1098    1.2172 C   0  0  0  0  0  0  0  0  0  0  0  0
   -1.5600   -2.7438    1.7572 O   0  0  0  0  0  0  0  0  0  0  0  0
   -2.2870   -0.8898    0.7102 N   0  0  0  0  0  0  0  0  0  0  0  0
   -3.0820   -0.4218    0.2992 H   0  0  0  0  0  0  0  0  0  0  0  0
   -1.0240   -0.1468    0.7262 C   0  0  1  0  0  0  0  0  0  0  0  0
   -1.1822    0.7949    1.2538 H   0  0  0  0  0  0  0  0  0  0  0  0
    0.0261   -0.9724    1.4946 C   0  0  0  0  0  0  0  0  0  0  0  0
    0.0550   -1.9782    1.0705 H   0  0  0  0  0  0  0  0  0  0  0  0
    1.0088   -0.5182    1.3610 H   0  0  0  0  0  0  0  0  0  0  0  0
   -0.2759   -1.0938    2.9965 C   0  0  0  0  0  0  0  0  0  0  0  0
   -0.3231   -0.0997    3.4418 H   0  0  0  0  0  0  0  0  0  0  0  0
   -1.2382   -1.5914    3.1300 H   0  0  0  0  0  0  0  0  0  0  0  0
    0.8132   -1.9027    3.7101 C   0  0  0  0  0  0  0  0  0  0  0  0
    0.8779   -2.8983    3.2700 H   0  0  0  0  0  0  0  0  0  0  0  0
    1.7729   -1.3969    3.5997 H   0  0  0  0  0  0  0  0  0  0  0  0
    0.4762   -2.0290    5.1946 C   0  0  0  0  0  0  0  0  0  0  0  0
    0.4293   -1.0368    5.6403 H   0  0  0  0  0  0  0  0  0  0  0  0
   -0.4901   -2.5180    5.3062 H   0  0  0  0  0  0  0  0  0  0  0  0
    1.4883   -2.8194    5.9047 N   0  0  0  0  0  0  0  0  0  0  0  0
    1.2419   -2.8705    6.8823 H   0  0  0  0  0  0  0  0  0  0  0  0
    1.5136   -3.7514    5.5160 H   0  0  0  0  0  0  0  0  0  0  0  0
   -0.5779    0.1714   -0.7104 C   0  0  0  0  0  0  0  0  0  0  0  0
   -0.1784    1.2981   -0.9966 O   0  0  0  0  0  0  0  0  0  0  0  0
   -0.6568   -0.8176   -1.6082 N   0  0  0  0  0  0  0  0  0  0  0  0
   -0.9805   -1.7170   -1.2921 H   0  0  0  0  0  0  0  0  0  0  0  0
   -0.2872   -0.6737   -3.0155 C   0  0  0  0  0  0  0  0  0  0  0  0
    0.7378   -0.3042   -3.0919 H   0  0  0  0  0  0  0  0  0  0  0  0
   -0.3629   -1.6338   -3.5280 H   0  0  0  0  0  0  0  0  0  0  0  0
   -0.9513    0.0467   -3.4976 H   0  0  0  0  0  0  0  0  0  0  0  0
  5  6  2  0  0  0  0
  5  7  1  0  0  0  0
  2  3  1  0  0  0  0
  2  4  1  0  0  0  0
  2  5  1  0  0  0  0
  1  2  1  0  0  0  0
 26 27  2  0  0  0  0
 26 28  1  0  0  0  0
 23 24  1  0  0  0  0
 23 25  1  0  0  0  0
 20 21  1  0  0  0  0
 20 22  1  0  0  0  0
 20 23  1  0  0  0  0
 17 18  1  0  0  0  0
 17 19  1  0  0  0  0
 17 20  1  0  0  0  0
 14 15  1  0  0  0  0
 14 16  1  0  0  0  0
 14 17  1  0  0  0  0
 11 12  1  0  0  0  0
 11 13  1  0  0  0  0
 11 14  1  0  0  0  0
  9 10  1  0  0  0  0
  9 11  1  0  0  0  0
  9 26  1  0  0  0  0
  7  8  1  0  0  0  0
  7  9  1  0  0  0  0
 30 31  1  0  0  0  0
 30 32  1  0  0  0  0
 30 33  1  0  0  0  0
 28 29  1  0  0  0  0
 28 30  1  0  0  0  0
M  END
$$$$
default_name
  -OEChem-01062215323D

 33 32  0     1  0  0  0  0  0999 V2000
   -3.8420   -3.6918    1.5562 H   0  0  0  0  0  0  0  0  0  0  0  0
   -3.8430   -2.7008    1.1032 C   0  0  0  0  0  0  0  0  0  0  0  0
   -4.5510   -2.0608    1.6242 H   0  0  0  0  0  0  0  0  0  0  0  0
   -4.1140   -2.7798    0.0522 H   0  0  0  0  0  0  0  0  0  0  0  0
   -2.4570   -2.1098    1.2172 C   0  0  0  0  0  0  0  0  0  0  0  0
   -1.5600   -2.7438    1.7572 O   0  0  0  0  0  0  0  0  0  0  0  0
   -2.2870   -0.8898    0.7102 N   0  0  0  0  0  0  0  0  0  0  0  0
   -3.0820   -0.4218    0.2992 H   0  0  0  0  0  0  0  0  0  0  0  0
   -1.0240   -0.1468    0.7262 C   0  0  1  0  0  0  0  0  0  0  0  0
   -1.1822    0.7949    1.2538 H   0  0  0  0  0  0  0  0  0  0  0  0
    0.0261   -0.9724    1.4946 C   0  0  0  0  0  0  0  0  0  0  0  0
    0.0550   -1.9782    1.0705 H   0  0  0  0  0  0  0  0  0  0  0  0
    1.0088   -0.5182    1.3610 H   0  0  0  0  0  0  0  0  0  0  0  0
   -0.2759   -1.0938    2.9965 C   0  0  0  0  0  0  0  0  0  0  0  0
   -0.3231   -0.0997    3.4418 H   0  0  0  0  0  0  0  0  0  0  0  0
   -1.2382   -1.5914    3.1300 H   0  0  0  0  0  0  0  0  0  0  0  0
    0.8132   -1.9027    3.7101 C   0  0  0  0  0  0  0  0  0  0  0  0
    0.8779   -2.8983    3.2700 H   0  0  0  0  0  0  0  0  0  0  0  0
    1.7729   -1.3969    3.5997 H   0  0  0  0  0  0  0  0  0  0  0  0
    0.4762   -2.0290    5.1946 C   0  0  0  0  0  0  0  0  0  0  0  0
    0.4293   -1.0368    5.6403 H   0  0  0  0  0  0  0  0  0  0  0  0
   -0.4901   -2.5180    5.3062 H   0  0  0  0  0  0  0  0  0  0  0  0
    1.4883   -2.8194    5.9047 N   0  0  0  0  0  0  0  0  0  0  0  0
    1.2419   -2.8705    6.8823 H   0  0  0  0  0  0  0  0  0  0  0  0
    1.5136   -3.7514    5.5160 H   0  0  0  0  0  0  0  0  0  0  0  0
   -0.5779    0.1714   -0.7104 C   0  0  0  0  0  0  0  0  0  0  0  0
    0.0712    1.1889   -0.9433 O   0  0  0  0  0  0  0  0  0  0  0  0
   -0.9353   -0.6931   -1.6671 N   0  0  0  0  0  0  0  0  0  0  0  0
   -1.4542   -1.5114   -1.3937 H   0  0  0  0  0  0  0  0  0  0  0  0
   -0.6045   -0.5275   -3.0817 C   0  0  0  0  0  0  0  0  0  0  0  0
    0.4752   -0.4096   -3.1968 H   0  0  0  0  0  0  0  0  0  0  0  0
   -0.9347   -1.3963   -3.6530 H   0  0  0  0  0  0  0  0  0  0  0  0
   -1.0936    0.3680   -3.4706 H   0  0  0  0  0  0  0  0  0  0  0  0
  5  6  2  0  0  0  0
  5  7  1  0  0  0  0
  2  3  1  0  0  0  0
  2  4  1  0  0  0  0
  2  5  1  0  0  0  0
  1  2  1  0  0  0  0
 26 27  2  0  0  0  0
 26 28  1  0  0  0  0
 23 24  1  0  0  0  0
 23 25  1  0  0  0  0
 20 21  1  0  0  0  0
 20 22  1  0  0  0  0
 20 23  1  0  0  0  0
 17 18  1  0  0  0  0
 17 19  1  0  0  0  0
 17 20  1  0  0  0  0
 14 15  1  0  0  0  0
 14 16  1  0  0  0  0
 14 17  1  0  0  0  0
 11 12  1  0  0  0  0
 11 13  1  0  0  0  0
 11 14  1  0  0  0  0
  9 10  1  0  0  0  0
  9 11  1  0  0  0  0
  9 26  1  0  0  0  0
  7  8  1  0  0  0  0
  7  9  1  0  0  0  0
 30 31  1  0  0  0  0
 30 32  1  0  0  0  0
 30 33  1  0  0  0  0
 28 29  1  0  0  0  0
 28 30  1  0  0  0  0
M  END
$$$$
default_name
  -OEChem-01062215323D

 33 32  0     1  0  0  0  0  0999 V2000
   -3.8420   -3.6918    1.5562 H   0  0  0  0  0  0  0  0  0  0  0  0
   -3.8430   -2.7008    1.1032 C   0  0  0  0  0  0  0  0  0  0  0  0
   -4.5510   -2.0608    1.6242 H   0  0  0  0  0  0  0  0  0  0  0  0
   -4.1140   -2.7798    0.0522 H   0  0  0  0  0  0  0  0  0  0  0  0
   -2.4570   -2.1098    1.2172 C   0  0  0  0  0  0  0  0  0  0  0  0
   -1.5600   -2.7438    1.7572 O   0  0  0  0  0  0  0  0  0  0  0  0
   -2.2870   -0.8898    0.7102 N   0  0  0  0  0  0  0  0  0  0  0  0
   -3.0820   -0.4218    0.2992 H   0  0  0  0  0  0  0  0  0  0  0  0
   -1.0240   -0.1468    0.7262 C   0  0  1  0  0  0  0  0  0  0  0  0
   -1.1822    0.7949    1.2538 H   0  0  0  0  0  0  0  0  0  0  0  0
    0.0261   -0.9724    1.4946 C   0  0  0  0  0  0  0  0  0  0  0  0
    0.0550   -1.9782    1.0705 H   0  0  0  0  0  0  0  0  0  0  0  0
    1.0088   -0.5182    1.3610 H   0  0  0  0  0  0  0  0  0  0  0  0
   -0.2759   -1.0938    2.9965 C   0  0  0  0  0  0  0  0  0  0  0  0
   -0.3231   -0.0997    3.4418 H   0  0  0  0  0  0  0  0  0  0  0  0
   -1.2382   -1.5914    3.1300 H   0  0  0  0  0  0  0  0  0  0  0  0
    0.8132   -1.9027    3.7101 C   0  0  0  0  0  0  0  0  0  0  0  0
    0.8779   -2.8983    3.2700 H   0  0  0  0  0  0  0  0  0  0  0  0
    1.7729   -1.3969    3.5997 H   0  0  0  0  0  0  0  0  0  0  0  0
    0.4762   -2.0290    5.1946 C   0  0  0  0  0  0  0  0  0  0  0  0
    0.4293   -1.0368    5.6403 H   0  0  0  0  0  0  0  0  0  0  0  0
   -0.4901   -2.5180    5.3062 H   0  0  0  0  0  0  0  0  0  0  0  0
    1.4883   -2.8194    5.9047 N   0  0  0  0  0  0  0  0  0  0  0  0
    1.2419   -2.8705    6.8823 H   0  0  0  0  0  0  0  0  0  0  0  0
    1.5136   -3.7514    5.5160 H   0  0  0  0  0  0  0  0  0  0  0  0
   -0.5779    0.1714   -0.7104 C   0  0  0  0  0  0  0  0  0  0  0  0
    0.2888    1.0191   -0.9133 O   0  0  0  0  0  0  0  0  0  0  0  0
   -1.1773   -0.5011   -1.6998 N   0  0  0  0  0  0  0  0  0  0  0  0
   -1.8675   -1.1905   -1.4510 H   0  0  0  0  0  0  0  0  0  0  0  0
   -0.8792   -0.3046   -3.1176 C   0  0  0  0  0  0  0  0  0  0  0  0
    0.1905   -0.4400   -3.2919 H   0  0  0  0  0  0  0  0  0  0  0  0
   -1.4363   -1.0192   -3.7252 H   0  0  0  0  0  0  0  0  0  0  0  0
   -1.1519    0.7107   -3.4128 H   0  0  0  0  0  0  0  0  0  0  0  0
  5  6  2  0  0  0  0
  5  7  1  0  0  0  0
  2  3  1  0  0  0  0
  2  4  1  0  0  0  0
  2  5  1  0  0  0  0
  1  2  1  0  0  0  0
 26 27  2  0  0  0  0
 26 28  1  0  0  0  0
 23 24  1  0  0  0  0
 23 25  1  0  0  0  0
 20 21  1  0  0  0  0
 20 22  1  0  0  0  0
 20 23  1  0  0  0  0
 17 18  1  0  0  0  0
 17 19  1  0  0  0  0
 17 20  1  0  0  0  0
 14 15  1  0  0  0  0
 14 16  1  0  0  0  0
 14 17  1  0  0  0  0
 11 12  1  0  0  0  0
 11 13  1  0  0  0  0
 11 14  1  0  0  0  0
  9 10  1  0  0  0  0
  9 11  1  0  0  0  0
  9 26  1  0  0  0  0
  7  8  1  0  0  0  0
  7  9  1  0  0  0  0
 30 31  1  0  0  0  0
 30 32  1  0  0  0  0
 30 33  1  0  0  0  0
 28 29  1  0  0  0  0
 28 30  1  0  0  0  0
M  END
$$$$
default_name
  -OEChem-01062215323D

 33 32  0     1  0  0  0  0  0999 V2000
   -3.8420   -3.6918    1.5562 H   0  0  0  0  0  0  0  0  0  0  0  0
   -3.8430   -2.7008    1.1032 C   0  0  0  0  0  0  0  0  0  0  0  0
   -4.5510   -2.0608    1.6242 H   0  0  0  0  0  0  0  0  0  0  0  0
   -4.1140   -2.7798    0.0522 H   0  0  0  0  0  0  0  0  0  0  0  0
   -2.4570   -2.1098    1.2172 C   0  0  0  0  0  0  0  0  0  0  0  0
   -1.5600   -2.7438    1.7572 O   0  0  0  0  0  0  0  0  0  0  0  0
   -2.2870   -0.8898    0.7102 N   0  0  0  0  0  0  0  0  0  0  0  0
   -3.0820   -0.4218    0.2992 H   0  0  0  0  0  0  0  0  0  0  0  0
   -1.0240   -0.1468    0.7262 C   0  0  1  0  0  0  0  0  0  0  0  0
   -1.1822    0.7949    1.2538 H   0  0  0  0  0  0  0  0  0  0  0  0
    0.0261   -0.9724    1.4946 C   0  0  0  0  0  0  0  0  0  0  0  0
    0.0550   -1.9782    1.0705 H   0  0  0  0  0  0  0  0  0  0  0  0
    1.0088   -0.5182    1.3610 H   0  0  0  0  0  0  0  0  0  0  0  0
   -0.2759   -1.0938    2.9965 C   0  0  0  0  0  0  0  0  0  0  0  0
   -0.3231   -0.0997    3.4418 H   0  0  0  0  0  0  0  0  0  0  0  0
   -1.2382   -1.5914    3.1300 H   0  0  0  0  0  0  0  0  0  0  0  0
    0.8132   -1.9027    3.7101 C   0  0  0  0  0  0  0  0  0  0  0  0
    0.8779   -2.8983    3.2700 H   0  0  0  0  0  0  0  0  0  0  0  0
    1.7729   -1.3969    3.5997 H   0  0  0  0  0  0  0  0  0  0  0  0
    0.4762   -2.0290    5.1946 C   0  0  0  0  0  0  0  0  0  0  0  0
    0.4293   -1.0368    5.6403 H   0  0  0  0  0  0  0  0  0  0  0  0
   -0.4901   -2.5180    5.3062 H   0  0  0  0  0  0  0  0  0  0  0  0
    1.4883   -2.8194    5.9047 N   0  0  0  0  0  0  0  0  0  0  0  0
    1.2419   -2.8705    6.8823 H   0  0  0  0  0  0  0  0  0  0  0  0
    1.5136   -3.7514    5.5160 H   0  0  0  0  0  0  0  0  0  0  0  0
   -0.5779    0.1714   -0.7104 C   0  0  0  0  0  0  0  0  0  0  0  0
    0.4595    0.8002   -0.9088 O   0  0  0  0  0  0  0  0  0  0  0  0
   -1.3665   -0.2546   -1.7039 N   0  0  0  0  0  0  0  0  0  0  0  0
   -2.1922   -0.7764   -1.4601 H   0  0  0  0  0  0  0  0  0  0  0  0
   -1.0925   -0.0202   -3.1209 C   0  0  0  0  0  0  0  0  0  0  0  0
   -0.0970   -0.3934   -3.3709 H   0  0  0  0  0  0  0  0  0  0  0  0
   -1.8334   -0.5283   -3.7399 H   0  0  0  0  0  0  0  0  0  0  0  0
   -1.1222    1.0515   -3.3281 H   0  0  0  0  0  0  0  0  0  0  0  0
  5  6  2  0  0  0  0
  5  7  1  0  0  0  0
  2  3  1  0  0  0  0
  2  4  1  0  0  0  0
  2  5  1  0  0  0  0
  1  2  1  0  0  0  0
 26 27  2  0  0  0  0
 26 28  1  0  0  0  0
 23 24  1  0  0  0  0
 23 25  1  0  0  0  0
 20 21  1  0  0  0  0
 20 22  1  0  0  0  0
 20 23  1  0  0  0  0
 17 18  1  0  0  0  0
 17 19  1  0  0  0  0
 17 20  1  0  0  0  0
 14 15  1  0  0  0  0
 14 16  1  0  0  0  0
 14 17  1  0  0  0  0
 11 12  1  0  0  0  0
 11 13  1  0  0  0  0
 11 14  1  0  0  0  0
  9 10  1  0  0  0  0
  9 11  1  0  0  0  0
  9 26  1  0  0  0  0
  7  8  1  0  0  0  0
  7  9  1  0  0  0  0
 30 31  1  0  0  0  0
 30 32  1  0  0  0  0
 30 33  1  0  0  0  0
 28 29  1  0  0  0  0
 28 30  1  0  0  0  0
M  END
$$$$
default_name
  -OEChem-01062215323D

 33 32  0     1  0  0  0  0  0999 V2000
   -3.8420   -3.6918    1.5562 H   0  0  0  0  0  0  0  0  0  0  0  0
   -3.8430   -2.7008    1.1032 C   0  0  0  0  0  0  0  0  0  0  0  0
   -4.5510   -2.0608    1.6242 H   0  0  0  0  0  0  0  0  0  0  0  0
   -4.1140   -2.7798    0.0522 H   0  0  0  0  0  0  0  0  0  0  0  0
   -2.4570   -2.1098    1.2172 C   0  0  0  0  0  0  0  0  0  0  0  0
   -1.5600   -2.7438    1.7572 O   0  0  0  0  0  0  0  0  0  0  0  0
   -2.2870   -0.8898    0.7102 N   0  0  0  0  0  0  0  0  0  0  0  0
   -3.0820   -0.4218    0.2992 H   0  0  0  0  0  0  0  0  0  0  0  0
   -1.0240   -0.1468    0.7262 C   0  0  1  0  0  0  0  0  0  0  0  0
   -1.1822    0.7949    1.2538 H   0  0  0  0  0  0  0  0  0  0  0  0
    0.0261   -0.9724    1.4946 C   0  0  0  0  0  0  0  0  0  0  0  0
    0.0550   -1.9782    1.0705 H   0  0  0  0  0  0  0  0  0  0  0  0
    1.0088   -0.5182    1.3610 H   0  0  0  0  0  0  0  0  0  0  0  0
   -0.2759   -1.0938    2.9965 C   0  0  0  0  0  0  0  0  0  0  0  0
   -0.3231   -0.0997    3.4418 H   0  0  0  0  0  0  0  0  0  0  0  0
   -1.2382   -1.5914    3.1300 H   0  0  0  0  0  0  0  0  0  0  0  0
    0.8132   -1.9027    3.7101 C   0  0  0  0  0  0  0  0  0  0  0  0
    0.8779   -2.8983    3.2700 H   0  0  0  0  0  0  0  0  0  0  0  0
    1.7729   -1.3969    3.5997 H   0  0  0  0  0  0  0  0  0  0  0  0
    0.4762   -2.0290    5.1946 C   0  0  0  0  0  0  0  0  0  0  0  0
    0.4293   -1.0368    5.6403 H   0  0  0  0  0  0  0  0  0  0  0  0
   -0.4901   -2.5180    5.3062 H   0  0  0  0  0  0  0  0  0  0  0  0
    1.4883   -2.8194    5.9047 N   0  0  0  0  0  0  0  0  0  0  0  0
    1.2419   -2.8705    6.8823 H   0  0  0  0  0  0  0  0  0  0  0  0
    1.5136   -3.7514    5.5160 H   0  0  0  0  0  0  0  0  0  0  0  0
   -0.5779    0.1714   -0.7104 C   0  0  0  0  0  0  0  0  0  0  0  0
    0.5717    0.5472   -0.9299 O   0  0  0  0  0  0  0  0  0  0  0  0
   -1.4898    0.0296   -1.6793 N   0  0  0  0  0  0  0  0  0  0  0  0
   -2.4062   -0.2971   -1.4204 H   0  0  0  0  0  0  0  0  0  0  0  0
   -1.2300    0.3063   -3.0913 C   0  0  0  0  0  0  0  0  0  0  0  0
   -0.3676   -0.2730   -3.4283 H   0  0  0  0  0  0  0  0  0  0  0  0
   -2.0991    0.0431   -3.6958 H   0  0  0  0  0  0  0  0  0  0  0  0
   -1.0066    1.3671   -3.2223 H   0  0  0  0  0  0  0  0  0  0  0  0
  5  6  2  0  0  0  0
  5  7  1  0  0  0  0
  2  3  1  0  0  0  0
  2  4  1  0  0  0  0
  2  5  1  0  0  0  0
  1  2  1  0  0  0  0
 26 27  2  0  0  0  0
 26 28  1  0  0  0  0
 23 24  1  0  0  0  0
 23 25  1  0  0  0  0
 20 21  1  0  0  0  0
 20 22  1  0  0  0  0
 20 23  1  0  0  0  0
 17 18  1  0  0  0  0
 17 19  1  0  0  0  0
 17 20  1  0  0  0  0
 14 15  1  0  0  0  0
 14 16  1  0  0  0  0
 14 17  1  0  0  0  0
 11 12  1  0  0  0  0
 11 13  1  0  0  0  0
 11 14  1  0  0  0  0
  9 10  1  0  0  0  0
  9 11  1  0  0  0  0
  9 26  1  0  0  0  0
  7  8  1  0  0  0  0
  7  9  1  0  0  0  0
 30 31  1  0  0  0  0
 30 32  1  0  0  0  0
 30 33  1  0  0  0  0
 28 29  1  0  0  0  0
 28 30  1  0  0  0  0
M  END
$$$$
default_name
  -OEChem-01062215323D

 33 32  0     1  0  0  0  0  0999 V2000
   -3.8420   -3.6918    1.5562 H   0  0  0  0  0  0  0  0  0  0  0  0
   -3.8430   -2.7008    1.1032 C   0  0  0  0  0  0  0  0  0  0  0  0
   -4.5510   -2.0608    1.6242 H   0  0  0  0  0  0  0  0  0  0  0  0
   -4.1140   -2.7798    0.0522 H   0  0  0  0  0  0  0  0  0  0  0  0
   -2.4570   -2.1098    1.2172 C   0  0  0  0  0  0  0  0  0  0  0  0
   -1.5600   -2.7438    1.7572 O   0  0  0  0  0  0  0  0  0  0  0  0
   -2.2870   -0.8898    0.7102 N   0  0  0  0  0  0  0  0  0  0  0  0
   -3.0820   -0.4218    0.2992 H   0  0  0  0  0  0  0  0  0  0  0  0
   -1.0240   -0.1468    0.7262 C   0  0  1  0  0  0  0  0  0  0  0  0
   -1.1822    0.7949    1.2538 H   0  0  0  0  0  0  0  0  0  0  0  0
    0.0261   -0.9724    1.4946 C   0  0  0  0  0  0  0  0  0  0  0  0
    0.0550   -1.9782    1.0705 H   0  0  0  0  0  0  0  0  0  0  0  0
    1.0088   -0.5182    1.3610 H   0  0  0  0  0  0  0  0  0  0  0  0
   -0.2759   -1.0938    2.9965 C   0  0  0  0  0  0  0  0  0  0  0  0
   -0.3231   -0.0997    3.4418 H   0  0  0  0  0  0  0  0  0  0  0  0
   -1.2382   -1.5914    3.1300 H   0  0  0  0  0  0  0  0  0  0  0  0
    0.8132   -1.9027    3.7101 C   0  0  0  0  0  0  0  0  0  0  0  0
    0.8779   -2.8983    3.2700 H   0  0  0  0  0  0  0  0  0  0  0  0
    1.7729   -1.3969    3.5997 H   0  0  0  0  0  0  0  0  0  0  0  0
    0.4762   -2.0290    5.1946 C   0  0  0  0  0  0  0  0  0  0  0  0
    0.4293   -1.0368    5.6403 H   0  0  0  0  0  0  0  0  0  0  0  0
   -0.4901   -2.5180    5.3062 H   0  0  0  0  0  0  0  0  0  0  0  0
    1.4883   -2.8194    5.9047 N   0  0  0  0  0  0  0  0  0  0  0  0
    1.2419   -2.8705    6.8823 H   0  0  0  0  0  0  0  0  0  0  0  0
    1.5136   -3.7514    5.5160 H   0  0  0  0  0  0  0  0  0  0  0  0
   -0.5779    0.1714   -0.7104 C   0  0  0  0  0  0  0  0  0  0  0  0
    0.6177    0.2772   -0.9754 O   0  0  0  0  0  0  0  0  0  0  0  0
   -1.5388    0.3320   -1.6275 N   0  0  0  0  0  0  0  0  0  0  0  0
   -2.4949    0.2145   -1.3346 H   0  0  0  0  0  0  0  0  0  0  0  0
   -1.2823    0.6528   -3.0308 C   0  0  0  0  0  0  0  0  0  0  0  0
   -0.6030   -0.0869   -3.4602 H   0  0  0  0  0  0  0  0  0  0  0  0
   -2.2152    0.6559   -3.5962 H   0  0  0  0  0  0  0  0  0  0  0  0
   -0.8129    1.6361   -3.1026 H   0  0  0  0  0  0  0  0  0  0  0  0
  5  6  2  0  0  0  0
  5  7  1  0  0  0  0
  2  3  1  0  0  0  0
  2  4  1  0  0  0  0
  2  5  1  0  0  0  0
  1  2  1  0  0  0  0
 26 27  2  0  0  0  0
 26 28  1  0  0  0  0
 23 24  1  0  0  0  0
 23 25  1  0  0  0  0
 20 21  1  0  0  0  0
 20 22  1  0  0  0  0
 20 23  1  0  0  0  0
 17 18  1  0  0  0  0
 17 19  1  0  0  0  0
 17 20  1  0  0  0  0
 14 15  1  0  0  0  0
 14 16  1  0  0  0  0
 14 17  1  0  0  0  0
 11 12  1  0  0  0  0
 11 13  1  0  0  0  0
 11 14  1  0  0  0  0
  9 10  1  0  0  0  0
  9 11  1  0  0  0  0
  9 26  1  0  0  0  0
  7  8  1  0  0  0  0
  7  9  1  0  0  0  0
 30 31  1  0  0  0  0
 30 32  1  0  0  0  0
 30 33  1  0  0  0  0
 28 29  1  0  0  0  0
 28 30  1  0  0  0  0
M  END
$$$$
default_name
  -OEChem-01062215323D

 33 32  0     1  0  0  0  0  0999 V2000
   -3.8420   -3.6918    1.5562 H   0  0  0  0  0  0  0  0  0  0  0  0
   -3.8430   -2.7008    1.1032 C   0  0  0  0  0  0  0  0  0  0  0  0
   -4.5510   -2.0608    1.6242 H   0  0  0  0  0  0  0  0  0  0  0  0
   -4.1140   -2.7798    0.0522 H   0  0  0  0  0  0  0  0  0  0  0  0
   -2.4570   -2.1098    1.2172 C   0  0  0  0  0  0  0  0  0  0  0  0
   -1.5600   -2.7438    1.7572 O   0  0  0  0  0  0  0  0  0  0  0  0
   -2.2870   -0.8898    0.7102 N   0  0  0  0  0  0  0  0  0  0  0  0
   -3.0820   -0.4218    0.2992 H   0  0  0  0  0  0  0  0  0  0  0  0
   -1.0240   -0.1468    0.7262 C   0  0  1  0  0  0  0  0  0  0  0  0
   -1.1822    0.7949    1.2538 H   0  0  0  0  0  0  0  0  0  0  0  0
    0.0261   -0.9724    1.4946 C   0  0  0  0  0  0  0  0  0  0  0  0
    0.0550   -1.9782    1.0705 H   0  0  0  0  0  0  0  0  0  0  0  0
    1.0088   -0.5182    1.3610 H   0  0  0  0  0  0  0  0  0  0  0  0
   -0.2759   -1.0938    2.9965 C   0  0  0  0  0  0  0  0  0  0  0  0
   -0.3231   -0.0997    3.4418 H   0  0  0  0  0  0  0  0  0  0  0  0
   -1.2382   -1.5914    3.1300 H   0  0  0  0  0  0  0  0  0  0  0  0
    0.8132   -1.9027    3.7101 C   0  0  0  0  0  0  0  0  0  0  0  0
    0.8779   -2.8983    3.2700 H   0  0  0  0  0  0  0  0  0  0  0  0
    1.7729   -1.3969    3.5997 H   0  0  0  0  0  0  0  0  0  0  0  0
    0.4762   -2.0290    5.1946 C   0  0  0  0  0  0  0  0  0  0  0  0
    0.4293   -1.0368    5.6403 H   0  0  0  0  0  0  0  0  0  0  0  0
   -0.4901   -2.5180    5.3062 H   0  0  0  0  0  0  0  0  0  0  0  0
    1.4883   -2.8194    5.9047 N   0  0  0  0  0  0  0  0  0  0  0  0
    1.2419   -2.8705    6.8823 H   0  0  0  0  0  0  0  0  0  0  0  0
    1.5136   -3.7514    5.5160 H   0  0  0  0  0  0  0  0  0  0  0  0
   -0.5779    0.1714   -0.7104 C   0  0  0  0  0  0  0  0  0  0  0  0
    0.5945    0.0088   -1.0421 O   0  0  0  0  0  0  0  0  0  0  0  0
   -1.5103    0.6321   -1.5522 N   0  0  0  0  0  0  0  0  0  0  0  0
   -2.4522    0.7238   -1.2086 H   0  0  0  0  0  0  0  0  0  0  0  0
   -1.2457    0.9955   -2.9435 C   0  0  0  0  0  0  0  0  0  0  0  0
   -0.7871    0.1522   -3.4644 H   0  0  0  0  0  0  0  0  0  0  0  0
   -2.1739    1.2685   -3.4477 H   0  0  0  0  0  0  0  0  0  0  0  0
   -0.5544    1.8401   -2.9771 H   0  0  0  0  0  0  0  0  0  0  0  0
  5  6  2  0  0  0  0
  5  7  1  0  0  0  0
  2  3  1  0  0  0  0
  2  4  1  0  0  0  0
  2  5  1  0  0  0  0
  1  2  1  0  0  0  0
 26 27  2  0  0  0  0
 26 28  1  0  0  0  0
 23 24  1  0  0  0  0
 23 25  1  0  0  0  0
 20 21  1  0  0  0  0
 20 22  1  0  0  0  0
 20 23  1  0  0  0  0
 17 18  1  0  0  0  0
 17 19  1  0  0  0  0
 17 20  1  0  0  0  0
 14 15  1  0  0  0  0
 14 16  1  0  0  0  0
 14 17  1  0  0  0  0
 11 12  1  0  0  0  0
 11 13  1  0  0  0  0
 11 14  1  0  0  0  0
  9 10  1  0  0  0  0
  9 11  1  0  0  0  0
  9 26  1  0  0  0  0
  7  8  1  0  0  0  0
  7  9  1  0  0  0  0
 30 31  1  0  0  0  0
 30 32  1  0  0  0  0
 30 33  1  0  0  0  0
 28 29  1  0  0  0  0
 28 30  1  0  0  0  0
M  END
$$$$
default_name
  -OEChem-01062215323D

 33 32  0     1  0  0  0  0  0999 V2000
   -3.8420   -3.6918    1.5562 H   0  0  0  0  0  0  0  0  0  0  0  0
   -3.8430   -2.7008    1.1032 C   0  0  0  0  0  0  0  0  0  0  0  0
   -4.5510   -2.0608    1.6242 H   0  0  0  0  0  0  0  0  0  0  0  0
   -4.1140   -2.7798    0.0522 H   0  0  0  0  0  0  0  0  0  0  0  0
   -2.4570   -2.1098    1.2172 C   0  0  0  0  0  0  0  0  0  0  0  0
   -1.5600   -2.7438    1.7572 O   0  0  0  0  0  0  0  0  0  0  0  0
   -2.2870   -0.8898    0.7102 N   0  0  0  0  0  0  0  0  0  0  0  0
   -3.0820   -0.4218    0.2992 H   0  0  0  0  0  0  0  0  0  0  0  0
   -1.0240   -0.1468    0.7262 C   0  0  1  0  0  0  0  0  0  0  0  0
   -1.1822    0.7949    1.2538 H   0  0  0  0  0  0  0  0  0  0  0  0
    0.0261   -0.9724    1.4946 C   0  0  0  0  0  0  0  0  0  0  0  0
    0.0550   -1.9782    1.0705 H   0  0  0  0  0  0  0  0  0  0  0  0
    1.0088   -0.5182    1.3610 H   0  0  0  0  0  0  0  0  0  0  0  0
   -0.2759   -1.0938    2.9965 C   0  0  0  0  0  0  0  0  0  0  0  0
   -0.3231   -0.0997    3.4418 H   0  0  0  0  0  0  0  0  0  0  0  0
   -1.2382   -1.5914    3.1300 H   0  0  0  0  0  0  0  0  0  0  0  0
    0.8132   -1.9027    3.7101 C   0  0  0  0  0  0  0  0  0  0  0  0
    0.8779   -2.8983    3.2700 H   0  0  0  0  0  0  0  0  0  0  0  0
    1.7729   -1.3969    3.5997 H   0  0  0  0  0  0  0  0  0  0  0  0
    0.4762   -2.0290    5.1946 C   0  0  0  0  0  0  0  0  0  0  0  0
    0.4293   -1.0368    5.6403 H   0  0  0  0  0  0  0  0  0  0  0  0
   -0.4901   -2.5180    5.3062 H   0  0  0  0  0  0  0  0  0  0  0  0
    1.4883   -2.8194    5.9047 N   0  0  0  0  0  0  0  0  0  0  0  0
    1.2419   -2.8705    6.8823 H   0  0  0  0  0  0  0  0  0  0  0  0
    1.5136   -3.7514    5.5160 H   0  0  0  0  0  0  0  0  0  0  0  0
   -0.5779    0.1714   -0.7104 C   0  0  0  0  0  0  0  0  0  0  0  0
    0.5035   -0.2400   -1.1254 O   0  0  0  0  0  0  0  0  0  0  0  0
   -1.4062    0.9094   -1.4585 N   0  0  0  0  0  0  0  0  0  0  0  0
   -2.2811    1.1959   -1.0509 H   0  0  0  0  0  0  0  0  0  0  0  0
   -1.1228    1.3112   -2.8354 C   0  0  0  0  0  0  0  0  0  0  0  0
   -0.9073    0.4279   -3.4406 H   0  0  0  0  0  0  0  0  0  0  0  0
   -1.9778    1.8390   -3.2605 H   0  0  0  0  0  0  0  0  0  0  0  0
   -0.2486    1.9652   -2.8545 H   0  0  0  0  0  0  0  0  0  0  0  0
  5  6  2  0  0  0  0
  5  7  1  0  0  0  0
  2  3  1  0  0  0  0
  2  4  1  0  0  0  0
  2  5  1  0  0  0  0
  1  2  1  0  0  0  0
 26 27  2  0  0  0  0
 26 28  1  0  0  0  0
 23 24  1  0  0  0  0
 23 25  1  0  0  0  0
 20 21  1  0  0  0  0
 20 22  1  0  0  0  0
 20 23  1  0  0  0  0
 17 18  1  0  0  0  0
 17 19  1  0  0  0  0
 17 20  1  0  0  0  0
 14 15  1  0  0  0  0
 14 16  1  0  0  0  0
 14 17  1  0  0  0  0
 11 12  1  0  0  0  0
 11 13  1  0  0  0  0
 11 14  1  0  0  0  0
  9 10  1  0  0  0  0
  9 11  1  0  0  0  0
  9 26  1  0  0  0  0
  7  8  1  0  0  0  0
  7  9  1  0  0  0  0
 30 31  1  0  0  0  0
 30 32  1  0  0  0  0
 30 33  1  0  0  0  0
 28 29  1  0  0  0  0
 28 30  1  0  0  0  0
M  END
$$$$
default_name
  -OEChem-01062215323D

 33 32  0     1  0  0  0  0  0999 V2000
   -3.8420   -3.6918    1.5562 H   0  0  0  0  0  0  0  0  0  0  0  0
   -3.8430   -2.7008    1.1032 C   0  0  0  0  0  0  0  0  0  0  0  0
   -4.5510   -2.0608    1.6242 H   0  0  0  0  0  0  0  0  0  0  0  0
   -4.1140   -2.7798    0.0522 H   0  0  0  0  0  0  0  0  0  0  0  0
   -2.4570   -2.1098    1.2172 C   0  0  0  0  0  0  0  0  0  0  0  0
   -1.5600   -2.7438    1.7572 O   0  0  0  0  0  0  0  0  0  0  0  0
   -2.2870   -0.8898    0.7102 N   0  0  0  0  0  0  0  0  0  0  0  0
   -3.0820   -0.4218    0.2992 H   0  0  0  0  0  0  0  0  0  0  0  0
   -1.0240   -0.1468    0.7262 C   0  0  1  0  0  0  0  0  0  0  0  0
   -1.1822    0.7949    1.2538 H   0  0  0  0  0  0  0  0  0  0  0  0
    0.0261   -0.9724    1.4946 C   0  0  0  0  0  0  0  0  0  0  0  0
    0.0550   -1.9782    1.0705 H   0  0  0  0  0  0  0  0  0  0  0  0
    1.0088   -0.5182    1.3610 H   0  0  0  0  0  0  0  0  0  0  0  0
   -0.2759   -1.0938    2.9965 C   0  0  0  0  0  0  0  0  0  0  0  0
   -0.3231   -0.0997    3.4418 H   0  0  0  0  0  0  0  0  0  0  0  0
   -1.2382   -1.5914    3.1300 H   0  0  0  0  0  0  0  0  0  0  0  0
    0.8132   -1.9027    3.7101 C   0  0  0  0  0  0  0  0  0  0  0  0
    0.8779   -2.8983    3.2700 H   0  0  0  0  0  0  0  0  0  0  0  0
    1.7729   -1.3969    3.5997 H   0  0  0  0  0  0  0  0  0  0  0  0
    0.4762   -2.0290    5.1946 C   0  0  0  0  0  0  0  0  0  0  0  0
    0.4293   -1.0368    5.6403 H   0  0  0  0  0  0  0  0  0  0  0  0
   -0.4901   -2.5180    5.3062 H   0  0  0  0  0  0  0  0  0  0  0  0
    1.4883   -2.8194    5.9047 N   0  0  0  0  0  0  0  0  0  0  0  0
    1.2419   -2.8705    6.8823 H   0  0  0  0  0  0  0  0  0  0  0  0
    1.5136   -3.7514    5.5160 H   0  0  0  0  0  0  0  0  0  0  0  0
   -0.5779    0.1714   -0.7104 C   0  0  0  0  0  0  0  0  0  0  0  0
    0.3511   -0.4519   -1.2197 O   0  0  0  0  0  0  0  0  0  0  0  0
   -1.2335    1.1451   -1.3527 N   0  0  0  0  0  0  0  0  0  0  0  0
   -1.9932    1.5987   -0.8723 H   0  0  0  0  0  0  0  0  0  0  0  0
   -0.9220    1.5783   -2.7139 C   0  0  0  0  0  0  0  0  0  0  0  0
   -0.9554    0.7216   -3.3906 H   0  0  0  0  0  0  0  0  0  0  0  0
   -1.6404    2.3286   -3.0473 H   0  0  0  0  0  0  0  0  0  0  0  0
    0.0836    2.0029   -2.7430 H   0  0  0  0  0  0  0  0  0  0  0  0
  5  6  2  0  0  0  0
  5  7  1  0  0  0  0
  2  3  1  0  0  0  0
  2  4  1  0  0  0  0
  2  5  1  0  0  0  0
  1  2  1  0  0  0  0
 26 27  2  0  0  0  0
 26 28  1  0  0  0  0
 23 24  1  0  0  0  0
 23 25  1  0  0  0  0
 20 21  1  0  0  0  0
 20 22  1  0  0  0  0
 20 23  1  0  0  0  0
 17 18  1  0  0  0  0
 17 19  1  0  0  0  0
 17 20  1  0  0  0  0
 14 15  1  0  0  0  0
 14 16  1  0  0  0  0
 14 17  1  0  0  0  0
 11 12  1  0  0  0  0
 11 13  1  0  0  0  0
 11 14  1  0  0  0  0
  9 10  1  0  0  0  0
  9 11  1  0  0  0  0
  9 26  1  0  0  0  0
  7  8  1  0  0  0  0
  7  9  1  0  0  0  0
 30 31  1  0  0  0  0
 30 32  1  0  0  0  0
 30 33  1  0  0  0  0
 28 29  1  0  0  0  0
 28 30  1  0  0  0  0
M  END
$$$$
default_name
  -OEChem-01062215323D

 33 32  0     1  0  0  0  0  0999 V2000
   -3.8420   -3.6918    1.5562 H   0  0  0  0  0  0  0  0  0  0  0  0
   -3.8430   -2.7008    1.1032 C   0  0  0  0  0  0  0  0  0  0  0  0
   -4.5510   -2.0608    1.6242 H   0  0  0  0  0  0  0  0  0  0  0  0
   -4.1140   -2.7798    0.0522 H   0  0  0  0  0  0  0  0  0  0  0  0
   -2.4570   -2.1098    1.2172 C   0  0  0  0  0  0  0  0  0  0  0  0
   -1.5600   -2.7438    1.7572 O   0  0  0  0  0  0  0  0  0  0  0  0
   -2.2870   -0.8898    0.7102 N   0  0  0  0  0  0  0  0  0  0  0  0
   -3.0820   -0.4218    0.2992 H   0  0  0  0  0  0  0  0  0  0  0  0
   -1.0240   -0.1468    0.7262 C   0  0  1  0  0  0  0  0  0  0  0  0
   -1.1822    0.7949    1.2538 H   0  0  0  0  0  0  0  0  0  0  0  0
    0.0261   -0.9724    1.4946 C   0  0  0  0  0  0  0  0  0  0  0  0
    0.0550   -1.9782    1.0705 H   0  0  0  0  0  0  0  0  0  0  0  0
    1.0088   -0.5182    1.3610 H   0  0  0  0  0  0  0  0  0  0  0  0
   -0.2759   -1.0938    2.9965 C   0  0  0  0  0  0  0  0  0  0  0  0
   -0.3231   -0.0997    3.4418 H   0  0  0  0  0  0  0  0  0  0  0  0
   -1.2382   -1.5914    3.1300 H   0  0  0  0  0  0  0  0  0  0  0  0
    0.8132   -1.9027    3.7101 C   0  0  0  0  0  0  0  0  0  0  0  0
    0.8779   -2.8983    3.2700 H   0  0  0  0  0  0  0  0  0  0  0  0
    1.7729   -1.3969    3.5997 H   0  0  0  0  0  0  0  0  0  0  0  0
    0.4762   -2.0290    5.1946 C   0  0  0  0  0  0  0  0  0  0  0  0
    0.4293   -1.0368    5.6403 H   0  0  0  0  0  0  0  0  0  0  0  0
   -0.4901   -2.5180    5.3062 H   0  0  0  0  0  0  0  0  0  0  0  0
    1.4883   -2.8194    5.9047 N   0  0  0  0  0  0  0  0  0  0  0  0
    1.2419   -2.8705    6.8823 H   0  0  0  0  0  0  0  0  0  0  0  0
    1.5136   -3.7514    5.5160 H   0  0  0  0  0  0  0  0  0  0  0  0
   -0.5779    0.1714   -0.7104 C   0  0  0  0  0  0  0  0  0  0  0  0
    0.1475   -0.6127   -1.3185 O   0  0  0  0  0  0  0  0  0  0  0  0
   -1.0040    1.3230   -1.2420 N   0  0  0  0  0  0  0  0  0  0  0  0
   -1.6081    1.9047   -0.6849 H   0  0  0  0  0  0  0  0  0  0  0  0
   -0.6570    1.7786   -2.5873 C   0  0  0  0  0  0  0  0  0  0  0  0
   -0.9282    1.0131   -3.3176 H   0  0  0  0  0  0  0  0  0  0  0  0
   -1.1848    2.7039   -2.8227 H   0  0  0  0  0  0  0  0  0  0  0  0
    0.4195    1.9506   -2.6502 H   0  0  0  0  0  0  0  0  0  0  0  0
  5  6  2  0  0  0  0
  5  7  1  0  0  0  0
  2  3  1  0  0  0  0
  2  4  1  0  0  0  0
  2  5  1  0  0  0  0
  1  2  1  0  0  0  0
 26 27  2  0  0  0  0
 26 28  1  0  0  0  0
 23 24  1  0  0  0  0
 23 25  1  0  0  0  0
 20 21  1  0  0  0  0
 20 22  1  0  0  0  0
 20 23  1  0  0  0  0
 17 18  1  0  0  0  0
 17 19  1  0  0  0  0
 17 20  1  0  0  0  0
 14 15  1  0  0  0  0
 14 16  1  0  0  0  0
 14 17  1  0  0  0  0
 11 12  1  0  0  0  0
 11 13  1  0  0  0  0
 11 14  1  0  0  0  0
  9 10  1  0  0  0  0
  9 11  1  0  0  0  0
  9 26  1  0  0  0  0
  7  8  1  0  0  0  0
  7  9  1  0  0  0  0
 30 31  1  0  0  0  0
 30 32  1  0  0  0  0
 30 33  1  0  0  0  0
 28 29  1  0  0  0  0
 28 30  1  0  0  0  0
M  END
$$$$
default_name
  -OEChem-01062215323D

 33 32  0     1  0  0  0  0  0999 V2000
   -3.8420   -3.6918    1.5562 H   0  0  0  0  0  0  0  0  0  0  0  0
   -3.8430   -2.7008    1.1032 C   0  0  0  0  0  0  0  0  0  0  0  0
   -4.5510   -2.0608    1.6242 H   0  0  0  0  0  0  0  0  0  0  0  0
   -4.1140   -2.7798    0.0522 H   0  0  0  0  0  0  0  0  0  0  0  0
   -2.4570   -2.1098    1.2172 C   0  0  0  0  0  0  0  0  0  0  0  0
   -1.5600   -2.7438    1.7572 O   0  0  0  0  0  0  0  0  0  0  0  0
   -2.2870   -0.8898    0.7102 N   0  0  0  0  0  0  0  0  0  0  0  0
   -3.0820   -0.4218    0.2992 H   0  0  0  0  0  0  0  0  0  0  0  0
   -1.0240   -0.1468    0.7262 C   0  0  1  0  0  0  0  0  0  0  0  0
   -1.1822    0.7949    1.2538 H   0  0  0  0  0  0  0  0  0  0  0  0
    0.0261   -0.9724    1.4946 C   0  0  0  0  0  0  0  0  0  0  0  0
    0.0550   -1.9782    1.0705 H   0  0  0  0  0  0  0  0  0  0  0  0
    1.0088   -0.5182    1.3610 H   0  0  0  0  0  0  0  0  0  0  0  0
   -0.2759   -1.0938    2.9965 C   0  0  0  0  0  0  0  0  0  0  0  0
   -0.3231   -0.0997    3.4418 H   0  0  0  0  0  0  0  0  0  0  0  0
   -1.2382   -1.5914    3.1300 H   0  0  0  0  0  0  0  0  0  0  0  0
    0.8132   -1.9027    3.7101 C   0  0  0  0  0  0  0  0  0  0  0  0
    0.8779   -2.8983    3.2700 H   0  0  0  0  0  0  0  0  0  0  0  0
    1.7729   -1.3969    3.5997 H   0  0  0  0  0  0  0  0  0  0  0  0
    0.4762   -2.0290    5.1946 C   0  0  0  0  0  0  0  0  0  0  0  0
    0.4293   -1.0368    5.6403 H   0  0  0  0  0  0  0  0  0  0  0  0
   -0.4901   -2.5180    5.3062 H   0  0  0  0  0  0  0  0  0  0  0  0
    1.4883   -2.8194    5.9047 N   0  0  0  0  0  0  0  0  0  0  0  0
    1.2419   -2.8705    6.8823 H   0  0  0  0  0  0  0  0  0  0  0  0
    1.5136   -3.7514    5.5160 H   0  0  0  0  0  0  0  0  0  0  0  0
   -0.5779    0.1714   -0.7104 C   0  0  0  0  0  0  0  0  0  0  0  0
   -0.0933   -0.7114   -1.4152 O   0  0  0  0  0  0  0  0  0  0  0  0
   -0.7334    1.4310   -1.1340 N   0  0  0  0  0  0  0  0  0  0  0  0
   -1.1521    2.0931   -0.5016 H   0  0  0  0  0  0  0  0  0  0  0  0
   -0.3457    1.8985   -2.4641 C   0  0  0  0  0  0  0  0  0  0  0  0
   -0.8275    1.2826   -3.2266 H   0  0  0  0  0  0  0  0  0  0  0  0
   -0.6418    2.9394   -2.6019 H   0  0  0  0  0  0  0  0  0  0  0  0
    0.7364    1.8119   -2.5826 H   0  0  0  0  0  0  0  0  0  0  0  0
  5  6  2  0  0  0  0
  5  7  1  0  0  0  0
  2  3  1  0  0  0  0
  2  4  1  0  0  0  0
  2  5  1  0  0  0  0
  1  2  1  0  0  0  0
 26 27  2  0  0  0  0
 26 28  1  0  0  0  0
 23 24  1  0  0  0  0
 23 25  1  0  0  0  0
 20 21  1  0  0  0  0
 20 22  1  0  0  0  0
 20 23  1  0  0  0  0
 17 18  1  0  0  0  0
 17 19  1  0  0  0  0
 17 20  1  0  0  0  0
 14 15  1  0  0  0  0
 14 16  1  0  0  0  0
 14 17  1  0  0  0  0
 11 12  1  0  0  0  0
 11 13  1  0  0  0  0
 11 14  1  0  0  0  0
  9 10  1  0  0  0  0
  9 11  1  0  0  0  0
  9 26  1  0  0  0  0
  7  8  1  0  0  0  0
  7  9  1  0  0  0  0
 30 31  1  0  0  0  0
 30 32  1  0  0  0  0
 30 33  1  0  0  0  0
 28 29  1  0  0  0  0
 28 30  1  0  0  0  0
M  END
$$$$
default_name
  -OEChem-01062215323D

 33 32  0     1  0  0  0  0  0999 V2000
   -3.8420   -3.6918    1.5562 H   0  0  0  0  0  0  0  0  0  0  0  0
   -3.8430   -2.7008    1.1032 C   0  0  0  0  0  0  0  0  0  0  0  0
   -4.5510   -2.0608    1.6242 H   0  0  0  0  0  0  0  0  0  0  0  0
   -4.1140   -2.7798    0.0522 H   0  0  0  0  0  0  0  0  0  0  0  0
   -2.4570   -2.1098    1.2172 C   0  0  0  0  0  0  0  0  0  0  0  0
   -1.5600   -2.7438    1.7572 O   0  0  0  0  0  0  0  0  0  0  0  0
   -2.2870   -0.8898    0.7102 N   0  0  0  0  0  0  0  0  0  0  0  0
   -3.0820   -0.4218    0.2992 H   0  0  0  0  0  0  0  0  0  0  0  0
   -1.0240   -0.1468    0.7262 C   0  0  1  0  0  0  0  0  0  0  0  0
   -1.1822    0.7949    1.2538 H   0  0  0  0  0  0  0  0  0  0  0  0
    0.0261   -0.9724    1.4946 C   0  0  0  0  0  0  0  0  0  0  0  0
    0.0550   -1.9782    1.0705 H   0  0  0  0  0  0  0  0  0  0  0  0
    1.0088   -0.5182    1.3610 H   0  0  0  0  0  0  0  0  0  0  0  0
   -0.2759   -1.0938    2.9965 C   0  0  0  0  0  0  0  0  0  0  0  0
   -0.3231   -0.0997    3.4418 H   0  0  0  0  0  0  0  0  0  0  0  0
   -1.2382   -1.5914    3.1300 H   0  0  0  0  0  0  0  0  0  0  0  0
    0.8132   -1.9027    3.7101 C   0  0  0  0  0  0  0  0  0  0  0  0
    0.8779   -2.8983    3.2700 H   0  0  0  0  0  0  0  0  0  0  0  0
    1.7729   -1.3969    3.5997 H   0  0  0  0  0  0  0  0  0  0  0  0
    0.4762   -2.0290    5.1946 C   0  0  0  0  0  0  0  0  0  0  0  0
    0.4293   -1.0368    5.6403 H   0  0  0  0  0  0  0  0  0  0  0  0
   -0.4901   -2.5180    5.3062 H   0  0  0  0  0  0  0  0  0  0  0  0
    1.4883   -2.8194    5.9047 N   0  0  0  0  0  0  0  0  0  0  0  0
    1.2419   -2.8705    6.8823 H   0  0  0  0  0  0  0  0  0  0  0  0
    1.5136   -3.7514    5.5160 H   0  0  0  0  0  0  0  0  0  0  0  0
   -0.5779    0.1714   -0.7104 C   0  0  0  0  0  0  0  0  0  0  0  0
   -0.3549   -0.7413   -1.5030 O   0  0  0  0  0  0  0  0  0  0  0  0
   -0.4402    1.4619   -1.0361 N   0  0  0  0  0  0  0  0  0  0  0  0
   -0.6563    2.1511   -0.3348 H   0  0  0  0  0  0  0  0  0  0  0  0
   -0.0095    1.9297   -2.3527 C   0  0  0  0  0  0  0  0  0  0  0  0
   -0.6603    1.5118   -3.1239 H   0  0  0  0  0  0  0  0  0  0  0  0
   -0.0486    3.0189   -2.4001 H   0  0  0  0  0  0  0  0  0  0  0  0
    1.0124    1.5962   -2.5446 H   0  0  0  0  0  0  0  0  0  0  0  0
  5  6  2  0  0  0  0
  5  7  1  0  0  0  0
  2  3  1  0  0  0  0
  2  4  1  0  0  0  0
  2  5  1  0  0  0  0
  1  2  1  0  0  0  0
 26 27  2  0  0  0  0
 26 28  1  0  0  0  0
 23 24  1  0  0  0  0
 23 25  1  0  0  0  0
 20 21  1  0  0  0  0
 20 22  1  0  0  0  0
 20 23  1  0  0  0  0
 17 18  1  0  0  0  0
 17 19  1  0  0  0  0
 17 20  1  0  0  0  0
 14 15  1  0  0  0  0
 14 16  1  0  0  0  0
 14 17  1  0  0  0  0
 11 12  1  0  0  0  0
 11 13  1  0  0  0  0
 11 14  1  0  0  0  0
  9 10  1  0  0  0  0
  9 11  1  0  0  0  0
  9 26  1  0  0  0  0
  7  8  1  0  0  0  0
  7  9  1  0  0  0  0
 30 31  1  0  0  0  0
 30 32  1  0  0  0  0
 30 33  1  0  0  0  0
 28 29  1  0  0  0  0
 28 30  1  0  0  0  0
M  END
$$$$
default_name
  -OEChem-01062215323D

 33 32  0     1  0  0  0  0  0999 V2000
   -3.8420   -3.6918    1.5562 H   0  0  0  0  0  0  0  0  0  0  0  0
   -3.8430   -2.7008    1.1032 C   0  0  0  0  0  0  0  0  0  0  0  0
   -4.5510   -2.0608    1.6242 H   0  0  0  0  0  0  0  0  0  0  0  0
   -4.1140   -2.7798    0.0522 H   0  0  0  0  0  0  0  0  0  0  0  0
   -2.4570   -2.1098    1.2172 C   0  0  0  0  0  0  0  0  0  0  0  0
   -1.5600   -2.7438    1.7572 O   0  0  0  0  0  0  0  0  0  0  0  0
   -2.2870   -0.8898    0.7102 N   0  0  0  0  0  0  0  0  0  0  0  0
   -3.0820   -0.4218    0.2992 H   0  0  0  0  0  0  0  0  0  0  0  0
   -1.0240   -0.1468    0.7262 C   0  0  1  0  0  0  0  0  0  0  0  0
   -1.1822    0.7949    1.2538 H   0  0  0  0  0  0  0  0  0  0  0  0
    0.0261   -0.9724    1.4946 C   0  0  0  0  0  0  0  0  0  0  0  0
    0.0550   -1.9782    1.0705 H   0  0  0  0  0  0  0  0  0  0  0  0
    1.0088   -0.5182    1.3610 H   0  0  0  0  0  0  0  0  0  0  0  0
   -0.2759   -1.0938    2.9965 C   0  0  0  0  0  0  0  0  0  0  0  0
   -0.3231   -0.0997    3.4418 H   0  0  0  0  0  0  0  0  0  0  0  0
   -1.2382   -1.5914    3.1300 H   0  0  0  0  0  0  0  0  0  0  0  0
    0.8132   -1.9027    3.7101 C   0  0  0  0  0  0  0  0  0  0  0  0
    0.8779   -2.8983    3.2700 H   0  0  0  0  0  0  0  0  0  0  0  0
    1.7729   -1.3969    3.5997 H   0  0  0  0  0  0  0  0  0  0  0  0
    0.4762   -2.0290    5.1946 C   0  0  0  0  0  0  0  0  0  0  0  0
    0.4293   -1.0368    5.6403 H   0  0  0  0  0  0  0  0  0  0  0  0
   -0.4901   -2.5180    5.3062 H   0  0  0  0  0  0  0  0  0  0  0  0
    1.4883   -2.8194    5.9047 N   0  0  0  0  0  0  0  0  0  0  0  0
    1.2419   -2.8705    6.8823 H   0  0  0  0  0  0  0  0  0  0  0  0
    1.5136   -3.7514    5.5160 H   0  0  0  0  0  0  0  0  0  0  0  0
   -0.5779    0.1714   -0.7104 C   0  0  0  0  0  0  0  0  0  0  0  0
   -0.6196   -0.7002   -1.5761 O   0  0  0  0  0  0  0  0  0  0  0  0
   -0.1442    1.4134   -0.9550 N   0  0  0  0  0  0  0  0  0  0  0  0
   -0.1544    2.0746   -0.1959 H   0  0  0  0  0  0  0  0  0  0  0  0
    0.3288    1.8702   -2.2608 C   0  0  0  0  0  0  0  0  0  0  0  0
   -0.4378    1.6850   -3.0165 H   0  0  0  0  0  0  0  0  0  0  0  0
    0.5544    2.9372   -2.2309 H   0  0  0  0  0  0  0  0  0  0  0  0
    1.2290    1.3182   -2.5389 H   0  0  0  0  0  0  0  0  0  0  0  0
  5  6  2  0  0  0  0
  5  7  1  0  0  0  0
  2  3  1  0  0  0  0
  2  4  1  0  0  0  0
  2  5  1  0  0  0  0
  1  2  1  0  0  0  0
 26 27  2  0  0  0  0
 26 28  1  0  0  0  0
 23 24  1  0  0  0  0
 23 25  1  0  0  0  0
 20 21  1  0  0  0  0
 20 22  1  0  0  0  0
 20 23  1  0  0  0  0
 17 18  1  0  0  0  0
 17 19  1  0  0  0  0
 17 20  1  0  0  0  0
 14 15  1  0  0  0  0
 14 16  1  0  0  0  0
 14 17  1  0  0  0  0
 11 12  1  0  0  0  0
 11 13  1  0  0  0  0
 11 14  1  0  0  0  0
  9 10  1  0  0  0  0
  9 11  1  0  0  0  0
  9 26  1  0  0  0  0
  7  8  1  0  0  0  0
  7  9  1  0  0  0  0
 30 31  1  0  0  0  0
 30 32  1  0  0  0  0
 30 33  1  0  0  0  0
 28 29  1  0  0  0  0
 28 30  1  0  0  0  0
M  END
$$$$
default_name
  -OEChem-01062215323D

 33 32  0     1  0  0  0  0  0999 V2000
   -3.8420   -3.6918    1.5562 H   0  0  0  0  0  0  0  0  0  0  0  0
   -3.8430   -2.7008    1.1032 C   0  0  0  0  0  0  0  0  0  0  0  0
   -4.5510   -2.0608    1.6242 H   0  0  0  0  0  0  0  0  0  0  0  0
   -4.1140   -2.7798    0.0522 H   0  0  0  0  0  0  0  0  0  0  0  0
   -2.4570   -2.1098    1.2172 C   0  0  0  0  0  0  0  0  0  0  0  0
   -1.5600   -2.7438    1.7572 O   0  0  0  0  0  0  0  0  0  0  0  0
   -2.2870   -0.8898    0.7102 N   0  0  0  0  0  0  0  0  0  0  0  0
   -3.0820   -0.4218    0.2992 H   0  0  0  0  0  0  0  0  0  0  0  0
   -1.0240   -0.1468    0.7262 C   0  0  1  0  0  0  0  0  0  0  0  0
   -1.1822    0.7949    1.2538 H   0  0  0  0  0  0  0  0  0  0  0  0
    0.0261   -0.9724    1.4946 C   0  0  0  0  0  0  0  0  0  0  0  0
    0.0550   -1.9782    1.0705 H   0  0  0  0  0  0  0  0  0  0  0  0
    1.0088   -0.5182    1.3610 H   0  0  0  0  0  0  0  0  0  0  0  0
   -0.2759   -1.0938    2.9965 C   0  0  0  0  0  0  0  0  0  0  0  0
   -0.3231   -0.0997    3.4418 H   0  0  0  0  0  0  0  0  0  0  0  0
   -1.2382   -1.5914    3.1300 H   0  0  0  0  0  0  0  0  0  0  0  0
    0.8132   -1.9027    3.7101 C   0  0  0  0  0  0  0  0  0  0  0  0
    0.8779   -2.8983    3.2700 H   0  0  0  0  0  0  0  0  0  0  0  0
    1.7729   -1.3969    3.5997 H   0  0  0  0  0  0  0  0  0  0  0  0
    0.4762   -2.0290    5.1946 C   0  0  0  0  0  0  0  0  0  0  0  0
    0.4293   -1.0368    5.6403 H   0  0  0  0  0  0  0  0  0  0  0  0
   -0.4901   -2.5180    5.3062 H   0  0  0  0  0  0  0  0  0  0  0  0
    1.4883   -2.8194    5.9047 N   0  0  0  0  0  0  0  0  0  0  0  0
    1.2419   -2.8705    6.8823 H   0  0  0  0  0  0  0  0  0  0  0  0
    1.5136   -3.7514    5.5160 H   0  0  0  0  0  0  0  0  0  0  0  0
   -0.5779    0.1714   -0.7104 C   0  0  0  0  0  0  0  0  0  0  0  0
   -0.8692   -0.5911   -1.6295 O   0  0  0  0  0  0  0  0  0  0  0  0
    0.1343    1.2888   -0.8960 N   0  0  0  0  0  0  0  0  0  0  0  0
    0.3194    1.8690   -0.0943 H   0  0  0  0  0  0  0  0  0  0  0  0
    0.6461    1.7241   -2.1947 C   0  0  0  0  0  0  0  0  0  0  0  0
   -0.1752    1.7904   -2.9116 H   0  0  0  0  0  0  0  0  0  0  0  0
    1.1262    2.6997   -2.1059 H   0  0  0  0  0  0  0  0  0  0  0  0
    1.3713    0.9969   -2.5659 H   0  0  0  0  0  0  0  0  0  0  0  0
  5  6  2  0  0  0  0
  5  7  1  0  0  0  0
  2  3  1  0  0  0  0
  2  4  1  0  0  0  0
  2  5  1  0  0  0  0
  1  2  1  0  0  0  0
 26 27  2  0  0  0  0
 26 28  1  0  0  0  0
 23 24  1  0  0  0  0
 23 25  1  0  0  0  0
 20 21  1  0  0  0  0
 20 22  1  0  0  0  0
 20 23  1  0  0  0  0
 17 18  1  0  0  0  0
 17 19  1  0  0  0  0
 17 20  1  0  0  0  0
 14 15  1  0  0  0  0
 14 16  1  0  0  0  0
 14 17  1  0  0  0  0
 11 12  1  0  0  0  0
 11 13  1  0  0  0  0
 11 14  1  0  0  0  0
  9 10  1  0  0  0  0
  9 11  1  0  0  0  0
  9 26  1  0  0  0  0
  7  8  1  0  0  0  0
  7  9  1  0  0  0  0
 30 31  1  0  0  0  0
 30 32  1  0  0  0  0
 30 33  1  0  0  0  0
 28 29  1  0  0  0  0
 28 30  1  0  0  0  0
M  END
$$$$
default_name
  -OEChem-01062215323D

 33 32  0     1  0  0  0  0  0999 V2000
   -3.8420   -3.6918    1.5562 H   0  0  0  0  0  0  0  0  0  0  0  0
   -3.8430   -2.7008    1.1032 C   0  0  0  0  0  0  0  0  0  0  0  0
   -4.5510   -2.0608    1.6242 H   0  0  0  0  0  0  0  0  0  0  0  0
   -4.1140   -2.7798    0.0522 H   0  0  0  0  0  0  0  0  0  0  0  0
   -2.4570   -2.1098    1.2172 C   0  0  0  0  0  0  0  0  0  0  0  0
   -1.5600   -2.7438    1.7572 O   0  0  0  0  0  0  0  0  0  0  0  0
   -2.2870   -0.8898    0.7102 N   0  0  0  0  0  0  0  0  0  0  0  0
   -3.0820   -0.4218    0.2992 H   0  0  0  0  0  0  0  0  0  0  0  0
   -1.0240   -0.1468    0.7262 C   0  0  1  0  0  0  0  0  0  0  0  0
   -1.1822    0.7949    1.2538 H   0  0  0  0  0  0  0  0  0  0  0  0
    0.0261   -0.9724    1.4946 C   0  0  0  0  0  0  0  0  0  0  0  0
    0.0550   -1.9782    1.0705 H   0  0  0  0  0  0  0  0  0  0  0  0
    1.0088   -0.5182    1.3610 H   0  0  0  0  0  0  0  0  0  0  0  0
   -0.2759   -1.0938    2.9965 C   0  0  0  0  0  0  0  0  0  0  0  0
   -0.3231   -0.0997    3.4418 H   0  0  0  0  0  0  0  0  0  0  0  0
   -1.2382   -1.5914    3.1300 H   0  0  0  0  0  0  0  0  0  0  0  0
    0.8132   -1.9027    3.7101 C   0  0  0  0  0  0  0  0  0  0  0  0
    0.8779   -2.8983    3.2700 H   0  0  0  0  0  0  0  0  0  0  0  0
    1.7729   -1.3969    3.5997 H   0  0  0  0  0  0  0  0  0  0  0  0
    0.4762   -2.0290    5.1946 C   0  0  0  0  0  0  0  0  0  0  0  0
    0.4293   -1.0368    5.6403 H   0  0  0  0  0  0  0  0  0  0  0  0
   -0.4901   -2.5180    5.3062 H   0  0  0  0  0  0  0  0  0  0  0  0
    1.4883   -2.8194    5.9047 N   0  0  0  0  0  0  0  0  0  0  0  0
    1.2419   -2.8705    6.8823 H   0  0  0  0  0  0  0  0  0  0  0  0
    1.5136   -3.7514    5.5160 H   0  0  0  0  0  0  0  0  0  0  0  0
   -0.5779    0.1714   -0.7104 C   0  0  0  0  0  0  0  0  0  0  0  0
   -1.0868   -0.4213   -1.6594 O   0  0  0  0  0  0  0  0  0  0  0  0
    0.3764    1.0968   -0.8634 N   0  0  0  0  0  0  0  0  0  0  0  0
    0.7327    1.5482   -0.0370 H   0  0  0  0  0  0  0  0  0  0  0  0
    0.9208    1.5012   -2.1587 C   0  0  0  0  0  0  0  0  0  0  0  0
    0.1095    1.8208   -2.8164 H   0  0  0  0  0  0  0  0  0  0  0  0
    1.6278    2.3226   -2.0337 H   0  0  0  0  0  0  0  0  0  0  0  0
    1.4296    0.6542   -2.6237 H   0  0  0  0  0  0  0  0  0  0  0  0
  5  6  2  0  0  0  0
  5  7  1  0  0  0  0
  2  3  1  0  0  0  0
  2  4  1  0  0  0  0
  2  5  1  0  0  0  0
  1  2  1  0  0  0  0
 26 27  2  0  0  0  0
 26 28  1  0  0  0  0
 23 24  1  0  0  0  0
 23 25  1  0  0  0  0
 20 21  1  0  0  0  0
 20 22  1  0  0  0  0
 20 23  1  0  0  0  0
 17 18  1  0  0  0  0
 17 19  1  0  0  0  0
 17 20  1  0  0  0  0
 14 15  1  0  0  0  0
 14 16  1  0  0  0  0
 14 17  1  0  0  0  0
 11 12  1  0  0  0  0
 11 13  1  0  0  0  0
 11 14  1  0  0  0  0
  9 10  1  0  0  0  0
  9 11  1  0  0  0  0
  9 26  1  0  0  0  0
  7  8  1  0  0  0  0
  7  9  1  0  0  0  0
 30 31  1  0  0  0  0
 30 32  1  0  0  0  0
 30 33  1  0  0  0  0
 28 29  1  0  0  0  0
 28 30  1  0  0  0  0
M  END
$$$$
default_name
  -OEChem-01062215323D

 33 32  0     1  0  0  0  0  0999 V2000
   -3.8420   -3.6918    1.5562 H   0  0  0  0  0  0  0  0  0  0  0  0
   -3.8430   -2.7008    1.1032 C   0  0  0  0  0  0  0  0  0  0  0  0
   -4.5510   -2.0608    1.6242 H   0  0  0  0  0  0  0  0  0  0  0  0
   -4.1140   -2.7798    0.0522 H   0  0  0  0  0  0  0  0  0  0  0  0
   -2.4570   -2.1098    1.2172 C   0  0  0  0  0  0  0  0  0  0  0  0
   -1.5600   -2.7438    1.7572 O   0  0  0  0  0  0  0  0  0  0  0  0
   -2.2870   -0.8898    0.7102 N   0  0  0  0  0  0  0  0  0  0  0  0
   -3.0820   -0.4218    0.2992 H   0  0  0  0  0  0  0  0  0  0  0  0
   -1.0240   -0.1468    0.7262 C   0  0  1  0  0  0  0  0  0  0  0  0
   -1.1000    0.6506    1.4668 H   0  0  0  0  0  0  0  0  0  0  0  0
    0.1080   -1.1042    1.1467 C   0  0  0  0  0  0  0  0  0  0  0  0
    0.0687   -1.9894    0.5087 H   0  0  0  0  0  0  0  0  0  0  0  0
    1.0701   -0.6142    0.9904 H   0  0  0  0  0  0  0  0  0  0  0  0
    0.0048   -1.5625    2.6097 C   0  0  0  0  0  0  0  0  0  0  0  0
    0.0285   -0.6937    3.2681 H   0  0  0  0  0  0  0  0  0  0  0  0
   -0.9375   -2.0944    2.7537 H   0  0  0  0  0  0  0  0  0  0  0  0
    1.1684   -2.4907    2.9759 C   0  0  0  0  0  0  0  0  0  0  0  0
    1.1627   -3.3619    2.3201 H   0  0  0  0  0  0  0  0  0  0  0  0
    2.1113   -1.9562    2.8566 H   0  0  0  0  0  0  0  0  0  0  0  0
    1.0282   -2.9507    4.4257 C   0  0  0  0  0  0  0  0  0  0  0  0
    1.0523   -2.0837    5.0840 H   0  0  0  0  0  0  0  0  0  0  0  0
    0.0791   -3.4693    4.5508 H   0  0  0  0  0  0  0  0  0  0  0  0
    2.1153   -3.8614    4.8027 N   0  0  0  0  0  0  0  0  0  0  0  0
    1.9990   -4.1334    5.7679 H   0  0  0  0  0  0  0  0  0  0  0  0
    2.0780   -4.6827    4.2159 H   0  0  0  0  0  0  0  0  0  0  0  0
   -0.7669    0.4914   -0.6488 C   0  0  0  0  0  0  0  0  0  0  0  0
   -1.5705    0.3276   -1.5644 O   0  0  0  0  0  0  0  0  0  0  0  0
    0.3550    1.2066   -0.7907 N   0  0  0  0  0  0  0  0  0  0  0  0
    0.9554    1.3065    0.0113 H   0  0  0  0  0  0  0  0  0  0  0  0
    0.7526    1.8628   -2.0354 C   0  0  0  0  0  0  0  0  0  0  0  0
   -0.0479    2.5228   -2.3766 H   0  0  0  0  0  0  0  0  0  0  0  0
    1.6609    2.4475   -1.8829 H   0  0  0  0  0  0  0  0  0  0  0  0
    0.9324    1.1102   -2.8059 H   0  0  0  0  0  0  0  0  0  0  0  0
  5  6  2  0  0  0  0
  5  7  1  0  0  0  0
  2  3  1  0  0  0  0
  2  4  1  0  0  0  0
  2  5  1  0  0  0  0
  1  2  1  0  0  0  0
 26 27  2  0  0  0  0
 26 28  1  0  0  0  0
 23 24  1  0  0  0  0
 23 25  1  0  0  0  0
 20 21  1  0  0  0  0
 20 22  1  0  0  0  0
 20 23  1  0  0  0  0
 17 18  1  0  0  0  0
 17 19  1  0  0  0  0
 17 20  1  0  0  0  0
 14 15  1  0  0  0  0
 14 16  1  0  0  0  0
 14 17  1  0  0  0  0
 11 12  1  0  0  0  0
 11 13  1  0  0  0  0
 11 14  1  0  0  0  0
  9 10  1  0  0  0  0
  9 11  1  0  0  0  0
  9 26  1  0  0  0  0
  7  8  1  0  0  0  0
  7  9  1  0  0  0  0
 30 31  1  0  0  0  0
 30 32  1  0  0  0  0
 30 33  1  0  0  0  0
 28 29  1  0  0  0  0
 28 30  1  0  0  0  0
M  END
$$$$
default_name
  -OEChem-01062215323D

 33 32  0     1  0  0  0  0  0999 V2000
   -3.8420   -3.6918    1.5562 H   0  0  0  0  0  0  0  0  0  0  0  0
   -3.8430   -2.7008    1.1032 C   0  0  0  0  0  0  0  0  0  0  0  0
   -4.5510   -2.0608    1.6242 H   0  0  0  0  0  0  0  0  0  0  0  0
   -4.1140   -2.7798    0.0522 H   0  0  0  0  0  0  0  0  0  0  0  0
   -2.4570   -2.1098    1.2172 C   0  0  0  0  0  0  0  0  0  0  0  0
   -1.5600   -2.7438    1.7572 O   0  0  0  0  0  0  0  0  0  0  0  0
   -2.2870   -0.8898    0.7102 N   0  0  0  0  0  0  0  0  0  0  0  0
   -3.0820   -0.4218    0.2992 H   0  0  0  0  0  0  0  0  0  0  0  0
   -1.0240   -0.1468    0.7262 C   0  0  1  0  0  0  0  0  0  0  0  0
   -1.1000    0.6506    1.4668 H   0  0  0  0  0  0  0  0  0  0  0  0
    0.1080   -1.1042    1.1467 C   0  0  0  0  0  0  0  0  0  0  0  0
    0.0687   -1.9894    0.5087 H   0  0  0  0  0  0  0  0  0  0  0  0
    1.0701   -0.6142    0.9904 H   0  0  0  0  0  0  0  0  0  0  0  0
    0.0048   -1.5625    2.6097 C   0  0  0  0  0  0  0  0  0  0  0  0
    0.0285   -0.6937    3.2681 H   0  0  0  0  0  0  0  0  0  0  0  0
   -0.9375   -2.0944    2.7537 H   0  0  0  0  0  0  0  0  0  0  0  0
    1.1684   -2.4907    2.9759 C   0  0  0  0  0  0  0  0  0  0  0  0
    1.1627   -3.3619    2.3201 H   0  0  0  0  0  0  0  0  0  0  0  0
    2.1113   -1.9562    2.8566 H   0  0  0  0  0  0  0  0  0  0  0  0
    1.0282   -2.9507    4.4257 C   0  0  0  0  0  0  0  0  0  0  0  0
    1.0523   -2.0837    5.0840 H   0  0  0  0  0  0  0  0  0  0  0  0
    0.0791   -3.4693    4.5508 H   0  0  0  0  0  0  0  0  0  0  0  0
    2.1153   -3.8614    4.8027 N   0  0  0  0  0  0  0  0  0  0  0  0
    1.9990   -4.1334    5.7679 H   0  0  0  0  0  0  0  0  0  0  0  0
    2.0780   -4.6827    4.2159 H   0  0  0  0  0  0  0  0  0  0  0  0
   -0.7669    0.4914   -0.6488 C   0  0  0  0  0  0  0  0  0  0  0  0
   -1.6759    0.5675   -1.4728 O   0  0  0  0  0  0  0  0  0  0  0  0
    0.4706    0.9373   -0.8941 N   0  0  0  0  0  0  0  0  0  0  0  0
    1.1565    0.8520   -0.1620 H   0  0  0  0  0  0  0  0  0  0  0  0
    0.8811    1.5535   -2.1549 C   0  0  0  0  0  0  0  0  0  0  0  0
    0.2265    2.3974   -2.3835 H   0  0  0  0  0  0  0  0  0  0  0  0
    1.9116    1.9051   -2.0878 H   0  0  0  0  0  0  0  0  0  0  0  0
    0.8000    0.8241   -2.9634 H   0  0  0  0  0  0  0  0  0  0  0  0
  5  6  2  0  0  0  0
  5  7  1  0  0  0  0
  2  3  1  0  0  0  0
  2  4  1  0  0  0  0
  2  5  1  0  0  0  0
  1  2  1  0  0  0  0
 26 27  2  0  0  0  0
 26 28  1  0  0  0  0
 23 24  1  0  0  0  0
 23 25  1  0  0  0  0
 20 21  1  0  0  0  0
 20 22  1  0  0  0  0
 20 23  1  0  0  0  0
 17 18  1  0  0  0  0
 17 19  1  0  0  0  0
 17 20  1  0  0  0  0
 14 15  1  0  0  0  0
 14 16  1  0  0  0  0
 14 17  1  0  0  0  0
 11 12  1  0  0  0  0
 11 13  1  0  0  0  0
 11 14  1  0  0  0  0
  9 10  1  0  0  0  0
  9 11  1  0  0  0  0
  9 26  1  0  0  0  0
  7  8  1  0  0  0  0
  7  9  1  0  0  0  0
 30 31  1  0  0  0  0
 30 32  1  0  0  0  0
 30 33  1  0  0  0  0
 28 29  1  0  0  0  0
 28 30  1  0  0  0  0
M  END
$$$$
default_name
  -OEChem-01062215323D

 33 32  0     1  0  0  0  0  0999 V2000
   -3.8420   -3.6918    1.5562 H   0  0  0  0  0  0  0  0  0  0  0  0
   -3.8430   -2.7008    1.1032 C   0  0  0  0  0  0  0  0  0  0  0  0
   -4.5510   -2.0608    1.6242 H   0  0  0  0  0  0  0  0  0  0  0  0
   -4.1140   -2.7798    0.0522 H   0  0  0  0  0  0  0  0  0  0  0  0
   -2.4570   -2.1098    1.2172 C   0  0  0  0  0  0  0  0  0  0  0  0
   -1.5600   -2.7438    1.7572 O   0  0  0  0  0  0  0  0  0  0  0  0
   -2.2870   -0.8898    0.7102 N   0  0  0  0  0  0  0  0  0  0  0  0
   -3.0820   -0.4218    0.2992 H   0  0  0  0  0  0  0  0  0  0  0  0
   -1.0240   -0.1468    0.7262 C   0  0  1  0  0  0  0  0  0  0  0  0
   -1.1000    0.6506    1.4668 H   0  0  0  0  0  0  0  0  0  0  0  0
    0.1080   -1.1042    1.1467 C   0  0  0  0  0  0  0  0  0  0  0  0
    0.0687   -1.9894    0.5087 H   0  0  0  0  0  0  0  0  0  0  0  0
    1.0701   -0.6142    0.9904 H   0  0  0  0  0  0  0  0  0  0  0  0
    0.0048   -1.5625    2.6097 C   0  0  0  0  0  0  0  0  0  0  0  0
    0.0285   -0.6937    3.2681 H   0  0  0  0  0  0  0  0  0  0  0  0
   -0.9375   -2.0944    2.7537 H   0  0  0  0  0  0  0  0  0  0  0  0
    1.1684   -2.4907    2.9759 C   0  0  0  0  0  0  0  0  0  0  0  0
    1.1627   -3.3619    2.3201 H   0  0  0  0  0  0  0  0  0  0  0  0
    2.1113   -1.9562    2.8566 H   0  0  0  0  0  0  0  0  0  0  0  0
    1.0282   -2.9507    4.4257 C   0  0  0  0  0  0  0  0  0  0  0  0
    1.0523   -2.0837    5.0840 H   0  0  0  0  0  0  0  0  0  0  0  0
    0.0791   -3.4693    4.5508 H   0  0  0  0  0  0  0  0  0  0  0  0
    2.1153   -3.8614    4.8027 N   0  0  0  0  0  0  0  0  0  0  0  0
    1.9990   -4.1334    5.7679 H   0  0  0  0  0  0  0  0  0  0  0  0
    2.0780   -4.6827    4.2159 H   0  0  0  0  0  0  0  0  0  0  0  0
   -0.7669    0.4914   -0.6488 C   0  0  0  0  0  0  0  0  0  0  0  0
   -1.7123    0.8197   -1.3625 O   0  0  0  0  0  0  0  0  0  0  0  0
    0.5088    0.6549   -1.0180 N   0  0  0  0  0  0  0  0  0  0  0  0
    1.2269    0.3740   -0.3707 H   0  0  0  0  0  0  0  0  0  0  0  0
    0.9207    1.2302   -2.2975 C   0  0  0  0  0  0  0  0  0  0  0  0
    0.4617    2.2131   -2.4251 H   0  0  0  0  0  0  0  0  0  0  0  0
    2.0062    1.3320   -2.3361 H   0  0  0  0  0  0  0  0  0  0  0  0
    0.5891    0.5851   -3.1138 H   0  0  0  0  0  0  0  0  0  0  0  0
  5  6  2  0  0  0  0
  5  7  1  0  0  0  0
  2  3  1  0  0  0  0
  2  4  1  0  0  0  0
  2  5  1  0  0  0  0
  1  2  1  0  0  0  0
 26 27  2  0  0  0  0
 26 28  1  0  0  0  0
 23 24  1  0  0  0  0
 23 25  1  0  0  0  0
 20 21  1  0  0  0  0
 20 22  1  0  0  0  0
 20 23  1  0  0  0  0
 17 18  1  0  0  0  0
 17 19  1  0  0  0  0
 17 20  1  0  0  0  0
 14 15  1  0  0  0  0
 14 16  1  0  0  0  0
 14 17  1  0  0  0  0
 11 12  1  0  0  0  0
 11 13  1  0  0  0  0
 11 14  1  0  0  0  0
  9 10  1  0  0  0  0
  9 11  1  0  0  0  0
  9 26  1  0  0  0  0
  7  8  1  0  0  0  0
  7  9  1  0  0  0  0
 30 31  1  0  0  0  0
 30 32  1  0  0  0  0
 30 33  1  0  0  0  0
 28 29  1  0  0  0  0
 28 30  1  0  0  0  0
M  END
$$$$
default_name
  -OEChem-01062215323D

 33 32  0     1  0  0  0  0  0999 V2000
   -3.8420   -3.6918    1.5562 H   0  0  0  0  0  0  0  0  0  0  0  0
   -3.8430   -2.7008    1.1032 C   0  0  0  0  0  0  0  0  0  0  0  0
   -4.5510   -2.0608    1.6242 H   0  0  0  0  0  0  0  0  0  0  0  0
   -4.1140   -2.7798    0.0522 H   0  0  0  0  0  0  0  0  0  0  0  0
   -2.4570   -2.1098    1.2172 C   0  0  0  0  0  0  0  0  0  0  0  0
   -1.5600   -2.7438    1.7572 O   0  0  0  0  0  0  0  0  0  0  0  0
   -2.2870   -0.8898    0.7102 N   0  0  0  0  0  0  0  0  0  0  0  0
   -3.0820   -0.4218    0.2992 H   0  0  0  0  0  0  0  0  0  0  0  0
   -1.0240   -0.1468    0.7262 C   0  0  1  0  0  0  0  0  0  0  0  0
   -1.1000    0.6506    1.4668 H   0  0  0  0  0  0  0  0  0  0  0  0
    0.1080   -1.1042    1.1467 C   0  0  0  0  0  0  0  0  0  0  0  0
    0.0687   -1.9894    0.5087 H   0  0  0  0  0  0  0  0  0  0  0  0
    1.0701   -0.6142    0.9904 H   0  0  0  0  0  0  0  0  0  0  0  0
    0.0048   -1.5625    2.6097 C   0  0  0  0  0  0  0  0  0  0  0  0
    0.0285   -0.6937    3.2681 H   0  0  0  0  0  0  0  0  0  0  0  0
   -0.9375   -2.0944    2.7537 H   0  0  0  0  0  0  0  0  0  0  0  0
    1.1684   -2.4907    2.9759 C   0  0  0  0  0  0  0  0  0  0  0  0
    1.1627   -3.3619    2.3201 H   0  0  0  0  0  0  0  0  0  0  0  0
    2.1113   -1.9562    2.8566 H   0  0  0  0  0  0  0  0  0  0  0  0
    1.0282   -2.9507    4.4257 C   0  0  0  0  0  0  0  0  0  0  0  0
    1.0523   -2.0837    5.0840 H   0  0  0  0  0  0  0  0  0  0  0  0
    0.0791   -3.4693    4.5508 H   0  0  0  0  0  0  0  0  0  0  0  0
    2.1153   -3.8614    4.8027 N   0  0  0  0  0  0  0  0  0  0  0  0
    1.9990   -4.1334    5.7679 H   0  0  0  0  0  0  0  0  0  0  0  0
    2.0780   -4.6827    4.2159 H   0  0  0  0  0  0  0  0  0  0  0  0
   -0.7669    0.4914   -0.6488 C   0  0  0  0  0  0  0  0  0  0  0  0
   -1.6772    1.0669   -1.2412 O   0  0  0  0  0  0  0  0  0  0  0  0
    0.4670    0.3787   -1.1540 N   0  0  0  0  0  0  0  0  0  0  0  0
    1.1619   -0.0950   -0.6006 H   0  0  0  0  0  0  0  0  0  0  0  0
    0.8689    0.9149   -2.4535 C   0  0  0  0  0  0  0  0  0  0  0  0
    0.6418    1.9824   -2.4985 H   0  0  0  0  0  0  0  0  0  0  0  0
    1.9383    0.7674   -2.6108 H   0  0  0  0  0  0  0  0  0  0  0  0
    0.3138    0.4097   -3.2466 H   0  0  0  0  0  0  0  0  0  0  0  0
  5  6  2  0  0  0  0
  5  7  1  0  0  0  0
  2  3  1  0  0  0  0
  2  4  1  0  0  0  0
  2  5  1  0  0  0  0
  1  2  1  0  0  0  0
 26 27  2  0  0  0  0
 26 28  1  0  0  0  0
 23 24  1  0  0  0  0
 23 25  1  0  0  0  0
 20 21  1  0  0  0  0
 20 22  1  0  0  0  0
 20 23  1  0  0  0  0
 17 18  1  0  0  0  0
 17 19  1  0  0  0  0
 17 20  1  0  0  0  0
 14 15  1  0  0  0  0
 14 16  1  0  0  0  0
 14 17  1  0  0  0  0
 11 12  1  0  0  0  0
 11 13  1  0  0  0  0
 11 14  1  0  0  0  0
  9 10  1  0  0  0  0
  9 11  1  0  0  0  0
  9 26  1  0  0  0  0
  7  8  1  0  0  0  0
  7  9  1  0  0  0  0
 30 31  1  0  0  0  0
 30 32  1  0  0  0  0
 30 33  1  0  0  0  0
 28 29  1  0  0  0  0
 28 30  1  0  0  0  0
M  END
$$$$
default_name
  -OEChem-01062215323D

 33 32  0     1  0  0  0  0  0999 V2000
   -3.8420   -3.6918    1.5562 H   0  0  0  0  0  0  0  0  0  0  0  0
   -3.8430   -2.7008    1.1032 C   0  0  0  0  0  0  0  0  0  0  0  0
   -4.5510   -2.0608    1.6242 H   0  0  0  0  0  0  0  0  0  0  0  0
   -4.1140   -2.7798    0.0522 H   0  0  0  0  0  0  0  0  0  0  0  0
   -2.4570   -2.1098    1.2172 C   0  0  0  0  0  0  0  0  0  0  0  0
   -1.5600   -2.7438    1.7572 O   0  0  0  0  0  0  0  0  0  0  0  0
   -2.2870   -0.8898    0.7102 N   0  0  0  0  0  0  0  0  0  0  0  0
   -3.0820   -0.4218    0.2992 H   0  0  0  0  0  0  0  0  0  0  0  0
   -1.0240   -0.1468    0.7262 C   0  0  1  0  0  0  0  0  0  0  0  0
   -1.1000    0.6506    1.4668 H   0  0  0  0  0  0  0  0  0  0  0  0
    0.1080   -1.1042    1.1467 C   0  0  0  0  0  0  0  0  0  0  0  0
    0.0687   -1.9894    0.5087 H   0  0  0  0  0  0  0  0  0  0  0  0
    1.0701   -0.6142    0.9904 H   0  0  0  0  0  0  0  0  0  0  0  0
    0.0048   -1.5625    2.6097 C   0  0  0  0  0  0  0  0  0  0  0  0
    0.0285   -0.6937    3.2681 H   0  0  0  0  0  0  0  0  0  0  0  0
   -0.9375   -2.0944    2.7537 H   0  0  0  0  0  0  0  0  0  0  0  0
    1.1684   -2.4907    2.9759 C   0  0  0  0  0  0  0  0  0  0  0  0
    1.1627   -3.3619    2.3201 H   0  0  0  0  0  0  0  0  0  0  0  0
    2.1113   -1.9562    2.8566 H   0  0  0  0  0  0  0  0  0  0  0  0
    1.0282   -2.9507    4.4257 C   0  0  0  0  0  0  0  0  0  0  0  0
    1.0523   -2.0837    5.0840 H   0  0  0  0  0  0  0  0  0  0  0  0
    0.0791   -3.4693    4.5508 H   0  0  0  0  0  0  0  0  0  0  0  0
    2.1153   -3.8614    4.8027 N   0  0  0  0  0  0  0  0  0  0  0  0
    1.9990   -4.1334    5.7679 H   0  0  0  0  0  0  0  0  0  0  0  0
    2.0780   -4.6827    4.2159 H   0  0  0  0  0  0  0  0  0  0  0  0
   -0.7669    0.4914   -0.6488 C   0  0  0  0  0  0  0  0  0  0  0  0
   -1.5731    1.2924   -1.1171 O   0  0  0  0  0  0  0  0  0  0  0  0
    0.3481    0.1275   -1.2928 N   0  0  0  0  0  0  0  0  0  0  0  0
    0.9658   -0.5231   -0.8359 H   0  0  0  0  0  0  0  0  0  0  0  0
    0.7290    0.6292   -2.6123 C   0  0  0  0  0  0  0  0  0  0  0  0
    0.7545    1.7210   -2.5987 H   0  0  0  0  0  0  0  0  0  0  0  0
    1.7124    0.2496   -2.8934 H   0  0  0  0  0  0  0  0  0  0  0  0
   -0.0069    0.3097   -3.3530 H   0  0  0  0  0  0  0  0  0  0  0  0
  5  6  2  0  0  0  0
  5  7  1  0  0  0  0
  2  3  1  0  0  0  0
  2  4  1  0  0  0  0
  2  5  1  0  0  0  0
  1  2  1  0  0  0  0
 26 27  2  0  0  0  0
 26 28  1  0  0  0  0
 23 24  1  0  0  0  0
 23 25  1  0  0  0  0
 20 21  1  0  0  0  0
 20 22  1  0  0  0  0
 20 23  1  0  0  0  0
 17 18  1  0  0  0  0
 17 19  1  0  0  0  0
 17 20  1  0  0  0  0
 14 15  1  0  0  0  0
 14 16  1  0  0  0  0
 14 17  1  0  0  0  0
 11 12  1  0  0  0  0
 11 13  1  0  0  0  0
 11 14  1  0  0  0  0
  9 10  1  0  0  0  0
  9 11  1  0  0  0  0
  9 26  1  0  0  0  0
  7  8  1  0  0  0  0
  7  9  1  0  0  0  0
 30 31  1  0  0  0  0
 30 32  1  0  0  0  0
 30 33  1  0  0  0  0
 28 29  1  0  0  0  0
 28 30  1  0  0  0  0
M  END
$$$$
default_name
  -OEChem-01062215323D

 33 32  0     1  0  0  0  0  0999 V2000
   -3.8420   -3.6918    1.5562 H   0  0  0  0  0  0  0  0  0  0  0  0
   -3.8430   -2.7008    1.1032 C   0  0  0  0  0  0  0  0  0  0  0  0
   -4.5510   -2.0608    1.6242 H   0  0  0  0  0  0  0  0  0  0  0  0
   -4.1140   -2.7798    0.0522 H   0  0  0  0  0  0  0  0  0  0  0  0
   -2.4570   -2.1098    1.2172 C   0  0  0  0  0  0  0  0  0  0  0  0
   -1.5600   -2.7438    1.7572 O   0  0  0  0  0  0  0  0  0  0  0  0
   -2.2870   -0.8898    0.7102 N   0  0  0  0  0  0  0  0  0  0  0  0
   -3.0820   -0.4218    0.2992 H   0  0  0  0  0  0  0  0  0  0  0  0
   -1.0240   -0.1468    0.7262 C   0  0  1  0  0  0  0  0  0  0  0  0
   -1.1000    0.6506    1.4668 H   0  0  0  0  0  0  0  0  0  0  0  0
    0.1080   -1.1042    1.1467 C   0  0  0  0  0  0  0  0  0  0  0  0
    0.0687   -1.9894    0.5087 H   0  0  0  0  0  0  0  0  0  0  0  0
    1.0701   -0.6142    0.9904 H   0  0  0  0  0  0  0  0  0  0  0  0
    0.0048   -1.5625    2.6097 C   0  0  0  0  0  0  0  0  0  0  0  0
    0.0285   -0.6937    3.2681 H   0  0  0  0  0  0  0  0  0  0  0  0
   -0.9375   -2.0944    2.7537 H   0  0  0  0  0  0  0  0  0  0  0  0
    1.1684   -2.4907    2.9759 C   0  0  0  0  0  0  0  0  0  0  0  0
    1.1627   -3.3619    2.3201 H   0  0  0  0  0  0  0  0  0  0  0  0
    2.1113   -1.9562    2.8566 H   0  0  0  0  0  0  0  0  0  0  0  0
    1.0282   -2.9507    4.4257 C   0  0  0  0  0  0  0  0  0  0  0  0
    1.0523   -2.0837    5.0840 H   0  0  0  0  0  0  0  0  0  0  0  0
    0.0791   -3.4693    4.5508 H   0  0  0  0  0  0  0  0  0  0  0  0
    2.1153   -3.8614    4.8027 N   0  0  0  0  0  0  0  0  0  0  0  0
    1.9990   -4.1334    5.7679 H   0  0  0  0  0  0  0  0  0  0  0  0
    2.0780   -4.6827    4.2159 H   0  0  0  0  0  0  0  0  0  0  0  0
   -0.7669    0.4914   -0.6488 C   0  0  0  0  0  0  0  0  0  0  0  0
   -1.4071    1.4807   -0.9987 O   0  0  0  0  0  0  0  0  0  0  0  0
    0.1601   -0.0817   -1.4251 N   0  0  0  0  0  0  0  0  0  0  0  0
    0.6521   -0.8809   -1.0606 H   0  0  0  0  0  0  0  0  0  0  0  0
    0.5108    0.3924   -2.7630 C   0  0  0  0  0  0  0  0  0  0  0  0
    0.7921    1.4468   -2.7189 H   0  0  0  0  0  0  0  0  0  0  0  0
    1.3441   -0.1861   -3.1644 H   0  0  0  0  0  0  0  0  0  0  0  0
   -0.3513    0.2919   -3.4257 H   0  0  0  0  0  0  0  0  0  0  0  0
  5  6  2  0  0  0  0
  5  7  1  0  0  0  0
  2  3  1  0  0  0  0
  2  4  1  0  0  0  0
  2  5  1  0  0  0  0
  1  2  1  0  0  0  0
 26 27  2  0  0  0  0
 26 28  1  0  0  0  0
 23 24  1  0  0  0  0
 23 25  1  0  0  0  0
 20 21  1  0  0  0  0
 20 22  1  0  0  0  0
 20 23  1  0  0  0  0
 17 18  1  0  0  0  0
 17 19  1  0  0  0  0
 17 20  1  0  0  0  0
 14 15  1  0  0  0  0
 14 16  1  0  0  0  0
 14 17  1  0  0  0  0
 11 12  1  0  0  0  0
 11 13  1  0  0  0  0
 11 14  1  0  0  0  0
  9 10  1  0  0  0  0
  9 11  1  0  0  0  0
  9 26  1  0  0  0  0
  7  8  1  0  0  0  0
  7  9  1  0  0  0  0
 30 31  1  0  0  0  0
 30 32  1  0  0  0  0
 30 33  1  0  0  0  0
 28 29  1  0  0  0  0
 28 30  1  0  0  0  0
M  END
$$$$
default_name
  -OEChem-01062215323D

 33 32  0     1  0  0  0  0  0999 V2000
   -3.8420   -3.6918    1.5562 H   0  0  0  0  0  0  0  0  0  0  0  0
   -3.8430   -2.7008    1.1032 C   0  0  0  0  0  0  0  0  0  0  0  0
   -4.5510   -2.0608    1.6242 H   0  0  0  0  0  0  0  0  0  0  0  0
   -4.1140   -2.7798    0.0522 H   0  0  0  0  0  0  0  0  0  0  0  0
   -2.4570   -2.1098    1.2172 C   0  0  0  0  0  0  0  0  0  0  0  0
   -1.5600   -2.7438    1.7572 O   0  0  0  0  0  0  0  0  0  0  0  0
   -2.2870   -0.8898    0.7102 N   0  0  0  0  0  0  0  0  0  0  0  0
   -3.0820   -0.4218    0.2992 H   0  0  0  0  0  0  0  0  0  0  0  0
   -1.0240   -0.1468    0.7262 C   0  0  1  0  0  0  0  0  0  0  0  0
   -1.1000    0.6506    1.4668 H   0  0  0  0  0  0  0  0  0  0  0  0
    0.1080   -1.1042    1.1467 C   0  0  0  0  0  0  0  0  0  0  0  0
    0.0687   -1.9894    0.5087 H   0  0  0  0  0  0  0  0  0  0  0  0
    1.0701   -0.6142    0.9904 H   0  0  0  0  0  0  0  0  0  0  0  0
    0.0048   -1.5625    2.6097 C   0  0  0  0  0  0  0  0  0  0  0  0
    0.0285   -0.6937    3.2681 H   0  0  0  0  0  0  0  0  0  0  0  0
   -0.9375   -2.0944    2.7537 H   0  0  0  0  0  0  0  0  0  0  0  0
    1.1684   -2.4907    2.9759 C   0  0  0  0  0  0  0  0  0  0  0  0
    1.1627   -3.3619    2.3201 H   0  0  0  0  0  0  0  0  0  0  0  0
    2.1113   -1.9562    2.8566 H   0  0  0  0  0  0  0  0  0  0  0  0
    1.0282   -2.9507    4.4257 C   0  0  0  0  0  0  0  0  0  0  0  0
    1.0523   -2.0837    5.0840 H   0  0  0  0  0  0  0  0  0  0  0  0
    0.0791   -3.4693    4.5508 H   0  0  0  0  0  0  0  0  0  0  0  0
    2.1153   -3.8614    4.8027 N   0  0  0  0  0  0  0  0  0  0  0  0
    1.9990   -4.1334    5.7679 H   0  0  0  0  0  0  0  0  0  0  0  0
    2.0780   -4.6827    4.2159 H   0  0  0  0  0  0  0  0  0  0  0  0
   -0.7669    0.4914   -0.6488 C   0  0  0  0  0  0  0  0  0  0  0  0
   -1.1903    1.6190   -0.8940 O   0  0  0  0  0  0  0  0  0  0  0  0
   -0.0840   -0.2345   -1.5416 N   0  0  0  0  0  0  0  0  0  0  0  0
    0.2420   -1.1443   -1.2595 H   0  0  0  0  0  0  0  0  0  0  0  0
    0.2290    0.2207   -2.8954 C   0  0  0  0  0  0  0  0  0  0  0  0
    0.7520    1.1785   -2.8509 H   0  0  0  0  0  0  0  0  0  0  0  0
    0.8583   -0.5099   -3.4056 H   0  0  0  0  0  0  0  0  0  0  0  0
   -0.6959    0.3576   -3.4596 H   0  0  0  0  0  0  0  0  0  0  0  0
  5  6  2  0  0  0  0
  5  7  1  0  0  0  0
  2  3  1  0  0  0  0
  2  4  1  0  0  0  0
  2  5  1  0  0  0  0
  1  2  1  0  0  0  0
 26 27  2  0  0  0  0
 26 28  1  0  0  0  0
 23 24  1  0  0  0  0
 23 25  1  0  0  0  0
 20 21  1  0  0  0  0
 20 22  1  0  0  0  0
 20 23  1  0  0  0  0
 17 18  1  0  0  0  0
 17 19  1  0  0  0  0
 17 20  1  0  0  0  0
 14 15  1  0  0  0  0
 14 16  1  0  0  0  0
 14 17  1  0  0  0  0
 11 12  1  0  0  0  0
 11 13  1  0  0  0  0
 11 14  1  0  0  0  0
  9 10  1  0  0  0  0
  9 11  1  0  0  0  0
  9 26  1  0  0  0  0
  7  8  1  0  0  0  0
  7  9  1  0  0  0  0
 30 31  1  0  0  0  0
 30 32  1  0  0  0  0
 30 33  1  0  0  0  0
 28 29  1  0  0  0  0
 28 30  1  0  0  0  0
M  END
$$$$
default_name
  -OEChem-01062215323D

 33 32  0     1  0  0  0  0  0999 V2000
   -3.8420   -3.6918    1.5562 H   0  0  0  0  0  0  0  0  0  0  0  0
   -3.8430   -2.7008    1.1032 C   0  0  0  0  0  0  0  0  0  0  0  0
   -4.5510   -2.0608    1.6242 H   0  0  0  0  0  0  0  0  0  0  0  0
   -4.1140   -2.7798    0.0522 H   0  0  0  0  0  0  0  0  0  0  0  0
   -2.4570   -2.1098    1.2172 C   0  0  0  0  0  0  0  0  0  0  0  0
   -1.5600   -2.7438    1.7572 O   0  0  0  0  0  0  0  0  0  0  0  0
   -2.2870   -0.8898    0.7102 N   0  0  0  0  0  0  0  0  0  0  0  0
   -3.0820   -0.4218    0.2992 H   0  0  0  0  0  0  0  0  0  0  0  0
   -1.0240   -0.1468    0.7262 C   0  0  1  0  0  0  0  0  0  0  0  0
   -1.1000    0.6506    1.4668 H   0  0  0  0  0  0  0  0  0  0  0  0
    0.1080   -1.1042    1.1467 C   0  0  0  0  0  0  0  0  0  0  0  0
    0.0687   -1.9894    0.5087 H   0  0  0  0  0  0  0  0  0  0  0  0
    1.0701   -0.6142    0.9904 H   0  0  0  0  0  0  0  0  0  0  0  0
    0.0048   -1.5625    2.6097 C   0  0  0  0  0  0  0  0  0  0  0  0
    0.0285   -0.6937    3.2681 H   0  0  0  0  0  0  0  0  0  0  0  0
   -0.9375   -2.0944    2.7537 H   0  0  0  0  0  0  0  0  0  0  0  0
    1.1684   -2.4907    2.9759 C   0  0  0  0  0  0  0  0  0  0  0  0
    1.1627   -3.3619    2.3201 H   0  0  0  0  0  0  0  0  0  0  0  0
    2.1113   -1.9562    2.8566 H   0  0  0  0  0  0  0  0  0  0  0  0
    1.0282   -2.9507    4.4257 C   0  0  0  0  0  0  0  0  0  0  0  0
    1.0523   -2.0837    5.0840 H   0  0  0  0  0  0  0  0  0  0  0  0
    0.0791   -3.4693    4.5508 H   0  0  0  0  0  0  0  0  0  0  0  0
    2.1153   -3.8614    4.8027 N   0  0  0  0  0  0  0  0  0  0  0  0
    1.9990   -4.1334    5.7679 H   0  0  0  0  0  0  0  0  0  0  0  0
    2.0780   -4.6827    4.2159 H   0  0  0  0  0  0  0  0  0  0  0  0
   -0.7669    0.4914   -0.6488 C   0  0  0  0  0  0  0  0  0  0  0  0
   -0.9377    1.6979   -0.8101 O   0  0  0  0  0  0  0  0  0  0  0  0
   -0.3677   -0.3205   -1.6346 N   0  0  0  0  0  0  0  0  0  0  0  0
   -0.2363   -1.2952   -1.4190 H   0  0  0  0  0  0  0  0  0  0  0  0
   -0.0972    0.1258   -3.0004 C   0  0  0  0  0  0  0  0  0  0  0  0
    0.6370    0.9343   -2.9858 H   0  0  0  0  0  0  0  0  0  0  0  0
    0.2882   -0.6998   -3.6003 H   0  0  0  0  0  0  0  0  0  0  0  0
   -1.0171    0.5023   -3.4525 H   0  0  0  0  0  0  0  0  0  0  0  0
  5  6  2  0  0  0  0
  5  7  1  0  0  0  0
  2  3  1  0  0  0  0
  2  4  1  0  0  0  0
  2  5  1  0  0  0  0
  1  2  1  0  0  0  0
 26 27  2  0  0  0  0
 26 28  1  0  0  0  0
 23 24  1  0  0  0  0
 23 25  1  0  0  0  0
 20 21  1  0  0  0  0
 20 22  1  0  0  0  0
 20 23  1  0  0  0  0
 17 18  1  0  0  0  0
 17 19  1  0  0  0  0
 17 20  1  0  0  0  0
 14 15  1  0  0  0  0
 14 16  1  0  0  0  0
 14 17  1  0  0  0  0
 11 12  1  0  0  0  0
 11 13  1  0  0  0  0
 11 14  1  0  0  0  0
  9 10  1  0  0  0  0
  9 11  1  0  0  0  0
  9 26  1  0  0  0  0
  7  8  1  0  0  0  0
  7  9  1  0  0  0  0
 30 31  1  0  0  0  0
 30 32  1  0  0  0  0
 30 33  1  0  0  0  0
 28 29  1  0  0  0  0
 28 30  1  0  0  0  0
M  END
$$$$
default_name
  -OEChem-01062215323D

 33 32  0     1  0  0  0  0  0999 V2000
   -3.8420   -3.6918    1.5562 H   0  0  0  0  0  0  0  0  0  0  0  0
   -3.8430   -2.7008    1.1032 C   0  0  0  0  0  0  0  0  0  0  0  0
   -4.5510   -2.0608    1.6242 H   0  0  0  0  0  0  0  0  0  0  0  0
   -4.1140   -2.7798    0.0522 H   0  0  0  0  0  0  0  0  0  0  0  0
   -2.4570   -2.1098    1.2172 C   0  0  0  0  0  0  0  0  0  0  0  0
   -1.5600   -2.7438    1.7572 O   0  0  0  0  0  0  0  0  0  0  0  0
   -2.2870   -0.8898    0.7102 N   0  0  0  0  0  0  0  0  0  0  0  0
   -3.0820   -0.4218    0.2992 H   0  0  0  0  0  0  0  0  0  0  0  0
   -1.0240   -0.1468    0.7262 C   0  0  1  0  0  0  0  0  0  0  0  0
   -1.1000    0.6506    1.4668 H   0  0  0  0  0  0  0  0  0  0  0  0
    0.1080   -1.1042    1.1467 C   0  0  0  0  0  0  0  0  0  0  0  0
    0.0687   -1.9894    0.5087 H   0  0  0  0  0  0  0  0  0  0  0  0
    1.0701   -0.6142    0.9904 H   0  0  0  0  0  0  0  0  0  0  0  0
    0.0048   -1.5625    2.6097 C   0  0  0  0  0  0  0  0  0  0  0  0
    0.0285   -0.6937    3.2681 H   0  0  0  0  0  0  0  0  0  0  0  0
   -0.9375   -2.0944    2.7537 H   0  0  0  0  0  0  0  0  0  0  0  0
    1.1684   -2.4907    2.9759 C   0  0  0  0  0  0  0  0  0  0  0  0
    1.1627   -3.3619    2.3201 H   0  0  0  0  0  0  0  0  0  0  0  0
    2.1113   -1.9562    2.8566 H   0  0  0  0  0  0  0  0  0  0  0  0
    1.0282   -2.9507    4.4257 C   0  0  0  0  0  0  0  0  0  0  0  0
    1.0523   -2.0837    5.0840 H   0  0  0  0  0  0  0  0  0  0  0  0
    0.0791   -3.4693    4.5508 H   0  0  0  0  0  0  0  0  0  0  0  0
    2.1153   -3.8614    4.8027 N   0  0  0  0  0  0  0  0  0  0  0  0
    1.9990   -4.1334    5.7679 H   0  0  0  0  0  0  0  0  0  0  0  0
    2.0780   -4.6827    4.2159 H   0  0  0  0  0  0  0  0  0  0  0  0
   -0.7669    0.4914   -0.6488 C   0  0  0  0  0  0  0  0  0  0  0  0
   -0.6665    1.7121   -0.7528 O   0  0  0  0  0  0  0  0  0  0  0  0
   -0.6717   -0.3340   -1.6977 N   0  0  0  0  0  0  0  0  0  0  0  0
   -0.7505   -1.3233   -1.5282 H   0  0  0  0  0  0  0  0  0  0  0  0
   -0.4455    0.1142   -3.0709 C   0  0  0  0  0  0  0  0  0  0  0  0
    0.4549    0.7308   -3.1143 H   0  0  0  0  0  0  0  0  0  0  0  0
   -0.3273   -0.7429   -3.7354 H   0  0  0  0  0  0  0  0  0  0  0  0
   -1.2932    0.7161   -3.4049 H   0  0  0  0  0  0  0  0  0  0  0  0
  5  6  2  0  0  0  0
  5  7  1  0  0  0  0
  2  3  1  0  0  0  0
  2  4  1  0  0  0  0
  2  5  1  0  0  0  0
  1  2  1  0  0  0  0
 26 27  2  0  0  0  0
 26 28  1  0  0  0  0
 23 24  1  0  0  0  0
 23 25  1  0  0  0  0
 20 21  1  0  0  0  0
 20 22  1  0  0  0  0
 20 23  1  0  0  0  0
 17 18  1  0  0  0  0
 17 19  1  0  0  0  0
 17 20  1  0  0  0  0
 14 15  1  0  0  0  0
 14 16  1  0  0  0  0
 14 17  1  0  0  0  0
 11 12  1  0  0  0  0
 11 13  1  0  0  0  0
 11 14  1  0  0  0  0
  9 10  1  0  0  0  0
  9 11  1  0  0  0  0
  9 26  1  0  0  0  0
  7  8  1  0  0  0  0
  7  9  1  0  0  0  0
 30 31  1  0  0  0  0
 30 32  1  0  0  0  0
 30 33  1  0  0  0  0
 28 29  1  0  0  0  0
 28 30  1  0  0  0  0
M  END
$$$$
default_name
  -OEChem-01062215323D

 33 32  0     1  0  0  0  0  0999 V2000
   -3.8420   -3.6918    1.5562 H   0  0  0  0  0  0  0  0  0  0  0  0
   -3.8430   -2.7008    1.1032 C   0  0  0  0  0  0  0  0  0  0  0  0
   -4.5510   -2.0608    1.6242 H   0  0  0  0  0  0  0  0  0  0  0  0
   -4.1140   -2.7798    0.0522 H   0  0  0  0  0  0  0  0  0  0  0  0
   -2.4570   -2.1098    1.2172 C   0  0  0  0  0  0  0  0  0  0  0  0
   -1.5600   -2.7438    1.7572 O   0  0  0  0  0  0  0  0  0  0  0  0
   -2.2870   -0.8898    0.7102 N   0  0  0  0  0  0  0  0  0  0  0  0
   -3.0820   -0.4218    0.2992 H   0  0  0  0  0  0  0  0  0  0  0  0
   -1.0240   -0.1468    0.7262 C   0  0  1  0  0  0  0  0  0  0  0  0
   -1.1000    0.6506    1.4668 H   0  0  0  0  0  0  0  0  0  0  0  0
    0.1080   -1.1042    1.1467 C   0  0  0  0  0  0  0  0  0  0  0  0
    0.0687   -1.9894    0.5087 H   0  0  0  0  0  0  0  0  0  0  0  0
    1.0701   -0.6142    0.9904 H   0  0  0  0  0  0  0  0  0  0  0  0
    0.0048   -1.5625    2.6097 C   0  0  0  0  0  0  0  0  0  0  0  0
    0.0285   -0.6937    3.2681 H   0  0  0  0  0  0  0  0  0  0  0  0
   -0.9375   -2.0944    2.7537 H   0  0  0  0  0  0  0  0  0  0  0  0
    1.1684   -2.4907    2.9759 C   0  0  0  0  0  0  0  0  0  0  0  0
    1.1627   -3.3619    2.3201 H   0  0  0  0  0  0  0  0  0  0  0  0
    2.1113   -1.9562    2.8566 H   0  0  0  0  0  0  0  0  0  0  0  0
    1.0282   -2.9507    4.4257 C   0  0  0  0  0  0  0  0  0  0  0  0
    1.0523   -2.0837    5.0840 H   0  0  0  0  0  0  0  0  0  0  0  0
    0.0791   -3.4693    4.5508 H   0  0  0  0  0  0  0  0  0  0  0  0
    2.1153   -3.8614    4.8027 N   0  0  0  0  0  0  0  0  0  0  0  0
    1.9990   -4.1334    5.7679 H   0  0  0  0  0  0  0  0  0  0  0  0
    2.0780   -4.6827    4.2159 H   0  0  0  0  0  0  0  0  0  0  0  0
   -0.7669    0.4914   -0.6488 C   0  0  0  0  0  0  0  0  0  0  0  0
   -0.3950    1.6604   -0.7260 O   0  0  0  0  0  0  0  0  0  0  0  0
   -0.9752   -0.2739   -1.7265 N   0  0  0  0  0  0  0  0  0  0  0  0
   -1.2653   -1.2267   -1.5796 H   0  0  0  0  0  0  0  0  0  0  0  0
   -0.7922    0.1867   -3.1021 C   0  0  0  0  0  0  0  0  0  0  0  0
    0.2182    0.5820   -3.2276 H   0  0  0  0  0  0  0  0  0  0  0  0
   -0.9463   -0.6362   -3.8016 H   0  0  0  0  0  0  0  0  0  0  0  0
   -1.5053    0.9845   -3.3200 H   0  0  0  0  0  0  0  0  0  0  0  0
  5  6  2  0  0  0  0
  5  7  1  0  0  0  0
  2  3  1  0  0  0  0
  2  4  1  0  0  0  0
  2  5  1  0  0  0  0
  1  2  1  0  0  0  0
 26 27  2  0  0  0  0
 26 28  1  0  0  0  0
 23 24  1  0  0  0  0
 23 25  1  0  0  0  0
 20 21  1  0  0  0  0
 20 22  1  0  0  0  0
 20 23  1  0  0  0  0
 17 18  1  0  0  0  0
 17 19  1  0  0  0  0
 17 20  1  0  0  0  0
 14 15  1  0  0  0  0
 14 16  1  0  0  0  0
 14 17  1  0  0  0  0
 11 12  1  0  0  0  0
 11 13  1  0  0  0  0
 11 14  1  0  0  0  0
  9 10  1  0  0  0  0
  9 11  1  0  0  0  0
  9 26  1  0  0  0  0
  7  8  1  0  0  0  0
  7  9  1  0  0  0  0
 30 31  1  0  0  0  0
 30 32  1  0  0  0  0
 30 33  1  0  0  0  0
 28 29  1  0  0  0  0
 28 30  1  0  0  0  0
M  END
$$$$
default_name
  -OEChem-01062215323D

 33 32  0     1  0  0  0  0  0999 V2000
   -3.8420   -3.6918    1.5562 H   0  0  0  0  0  0  0  0  0  0  0  0
   -3.8430   -2.7008    1.1032 C   0  0  0  0  0  0  0  0  0  0  0  0
   -4.5510   -2.0608    1.6242 H   0  0  0  0  0  0  0  0  0  0  0  0
   -4.1140   -2.7798    0.0522 H   0  0  0  0  0  0  0  0  0  0  0  0
   -2.4570   -2.1098    1.2172 C   0  0  0  0  0  0  0  0  0  0  0  0
   -1.5600   -2.7438    1.7572 O   0  0  0  0  0  0  0  0  0  0  0  0
   -2.2870   -0.8898    0.7102 N   0  0  0  0  0  0  0  0  0  0  0  0
   -3.0820   -0.4218    0.2992 H   0  0  0  0  0  0  0  0  0  0  0  0
   -1.0240   -0.1468    0.7262 C   0  0  1  0  0  0  0  0  0  0  0  0
   -1.1000    0.6506    1.4668 H   0  0  0  0  0  0  0  0  0  0  0  0
    0.1080   -1.1042    1.1467 C   0  0  0  0  0  0  0  0  0  0  0  0
    0.0687   -1.9894    0.5087 H   0  0  0  0  0  0  0  0  0  0  0  0
    1.0701   -0.6142    0.9904 H   0  0  0  0  0  0  0  0  0  0  0  0
    0.0048   -1.5625    2.6097 C   0  0  0  0  0  0  0  0  0  0  0  0
    0.0285   -0.6937    3.2681 H   0  0  0  0  0  0  0  0  0  0  0  0
   -0.9375   -2.0944    2.7537 H   0  0  0  0  0  0  0  0  0  0  0  0
    1.1684   -2.4907    2.9759 C   0  0  0  0  0  0  0  0  0  0  0  0
    1.1627   -3.3619    2.3201 H   0  0  0  0  0  0  0  0  0  0  0  0
    2.1113   -1.9562    2.8566 H   0  0  0  0  0  0  0  0  0  0  0  0
    1.0282   -2.9507    4.4257 C   0  0  0  0  0  0  0  0  0  0  0  0
    1.0523   -2.0837    5.0840 H   0  0  0  0  0  0  0  0  0  0  0  0
    0.0791   -3.4693    4.5508 H   0  0  0  0  0  0  0  0  0  0  0  0
    2.1153   -3.8614    4.8027 N   0  0  0  0  0  0  0  0  0  0  0  0
    1.9990   -4.1334    5.7679 H   0  0  0  0  0  0  0  0  0  0  0  0
    2.0780   -4.6827    4.2159 H   0  0  0  0  0  0  0  0  0  0  0  0
   -0.7669    0.4914   -0.6488 C   0  0  0  0  0  0  0  0  0  0  0  0
   -0.1419    1.5466   -0.7316 O   0  0  0  0  0  0  0  0  0  0  0  0
   -1.2575   -0.1443   -1.7192 N   0  0  0  0  0  0  0  0  0  0  0  0
   -1.7458   -1.0120   -1.5698 H   0  0  0  0  0  0  0  0  0  0  0  0
   -1.1137    0.3382   -3.0918 C   0  0  0  0  0  0  0  0  0  0  0  0
   -0.0572    0.4980   -3.3181 H   0  0  0  0  0  0  0  0  0  0  0  0
   -1.5266   -0.3870   -3.7944 H   0  0  0  0  0  0  0  0  0  0  0  0
   -1.6389    1.2891   -3.2036 H   0  0  0  0  0  0  0  0  0  0  0  0
  5  6  2  0  0  0  0
  5  7  1  0  0  0  0
  2  3  1  0  0  0  0
  2  4  1  0  0  0  0
  2  5  1  0  0  0  0
  1  2  1  0  0  0  0
 26 27  2  0  0  0  0
 26 28  1  0  0  0  0
 23 24  1  0  0  0  0
 23 25  1  0  0  0  0
 20 21  1  0  0  0  0
 20 22  1  0  0  0  0
 20 23  1  0  0  0  0
 17 18  1  0  0  0  0
 17 19  1  0  0  0  0
 17 20  1  0  0  0  0
 14 15  1  0  0  0  0
 14 16  1  0  0  0  0
 14 17  1  0  0  0  0
 11 12  1  0  0  0  0
 11 13  1  0  0  0  0
 11 14  1  0  0  0  0
  9 10  1  0  0  0  0
  9 11  1  0  0  0  0
  9 26  1  0  0  0  0
  7  8  1  0  0  0  0
  7  9  1  0  0  0  0
 30 31  1  0  0  0  0
 30 32  1  0  0  0  0
 30 33  1  0  0  0  0
 28 29  1  0  0  0  0
 28 30  1  0  0  0  0
M  END
$$$$
default_name
  -OEChem-01062215323D

 33 32  0     1  0  0  0  0  0999 V2000
   -3.8420   -3.6918    1.5562 H   0  0  0  0  0  0  0  0  0  0  0  0
   -3.8430   -2.7008    1.1032 C   0  0  0  0  0  0  0  0  0  0  0  0
   -4.5510   -2.0608    1.6242 H   0  0  0  0  0  0  0  0  0  0  0  0
   -4.1140   -2.7798    0.0522 H   0  0  0  0  0  0  0  0  0  0  0  0
   -2.4570   -2.1098    1.2172 C   0  0  0  0  0  0  0  0  0  0  0  0
   -1.5600   -2.7438    1.7572 O   0  0  0  0  0  0  0  0  0  0  0  0
   -2.2870   -0.8898    0.7102 N   0  0  0  0  0  0  0  0  0  0  0  0
   -3.0820   -0.4218    0.2992 H   0  0  0  0  0  0  0  0  0  0  0  0
   -1.0240   -0.1468    0.7262 C   0  0  1  0  0  0  0  0  0  0  0  0
   -1.1000    0.6506    1.4668 H   0  0  0  0  0  0  0  0  0  0  0  0
    0.1080   -1.1042    1.1467 C   0  0  0  0  0  0  0  0  0  0  0  0
    0.0687   -1.9894    0.5087 H   0  0  0  0  0  0  0  0  0  0  0  0
    1.0701   -0.6142    0.9904 H   0  0  0  0  0  0  0  0  0  0  0  0
    0.0048   -1.5625    2.6097 C   0  0  0  0  0  0  0  0  0  0  0  0
    0.0285   -0.6937    3.2681 H   0  0  0  0  0  0  0  0  0  0  0  0
   -0.9375   -2.0944    2.7537 H   0  0  0  0  0  0  0  0  0  0  0  0
    1.1684   -2.4907    2.9759 C   0  0  0  0  0  0  0  0  0  0  0  0
    1.1627   -3.3619    2.3201 H   0  0  0  0  0  0  0  0  0  0  0  0
    2.1113   -1.9562    2.8566 H   0  0  0  0  0  0  0  0  0  0  0  0
    1.0282   -2.9507    4.4257 C   0  0  0  0  0  0  0  0  0  0  0  0
    1.0523   -2.0837    5.0840 H   0  0  0  0  0  0  0  0  0  0  0  0
    0.0791   -3.4693    4.5508 H   0  0  0  0  0  0  0  0  0  0  0  0
    2.1153   -3.8614    4.8027 N   0  0  0  0  0  0  0  0  0  0  0  0
    1.9990   -4.1334    5.7679 H   0  0  0  0  0  0  0  0  0  0  0  0
    2.0780   -4.6827    4.2159 H   0  0  0  0  0  0  0  0  0  0  0  0
   -0.7669    0.4914   -0.6488 C   0  0  0  0  0  0  0  0  0  0  0  0
    0.0757    1.3783   -0.7690 O   0  0  0  0  0  0  0  0  0  0  0  0
   -1.4994    0.0459   -1.6761 N   0  0  0  0  0  0  0  0  0  0  0  0
   -2.1591   -0.6938   -1.4994 H   0  0  0  0  0  0  0  0  0  0  0  0
   -1.3880    0.5586   -3.0408 C   0  0  0  0  0  0  0  0  0  0  0  0
   -0.3523    0.4845   -3.3795 H   0  0  0  0  0  0  0  0  0  0  0  0
   -2.0288   -0.0123   -3.7144 H   0  0  0  0  0  0  0  0  0  0  0  0
   -1.6849    1.6092   -3.0636 H   0  0  0  0  0  0  0  0  0  0  0  0
  5  6  2  0  0  0  0
  5  7  1  0  0  0  0
  2  3  1  0  0  0  0
  2  4  1  0  0  0  0
  2  5  1  0  0  0  0
  1  2  1  0  0  0  0
 26 27  2  0  0  0  0
 26 28  1  0  0  0  0
 23 24  1  0  0  0  0
 23 25  1  0  0  0  0
 20 21  1  0  0  0  0
 20 22  1  0  0  0  0
 20 23  1  0  0  0  0
 17 18  1  0  0  0  0
 17 19  1  0  0  0  0
 17 20  1  0  0  0  0
 14 15  1  0  0  0  0
 14 16  1  0  0  0  0
 14 17  1  0  0  0  0
 11 12  1  0  0  0  0
 11 13  1  0  0  0  0
 11 14  1  0  0  0  0
  9 10  1  0  0  0  0
  9 11  1  0  0  0  0
  9 26  1  0  0  0  0
  7  8  1  0  0  0  0
  7  9  1  0  0  0  0
 30 31  1  0  0  0  0
 30 32  1  0  0  0  0
 30 33  1  0  0  0  0
 28 29  1  0  0  0  0
 28 30  1  0  0  0  0
M  END
$$$$
default_name
  -OEChem-01062215323D

 33 32  0     1  0  0  0  0  0999 V2000
   -3.8420   -3.6918    1.5562 H   0  0  0  0  0  0  0  0  0  0  0  0
   -3.8430   -2.7008    1.1032 C   0  0  0  0  0  0  0  0  0  0  0  0
   -4.5510   -2.0608    1.6242 H   0  0  0  0  0  0  0  0  0  0  0  0
   -4.1140   -2.7798    0.0522 H   0  0  0  0  0  0  0  0  0  0  0  0
   -2.4570   -2.1098    1.2172 C   0  0  0  0  0  0  0  0  0  0  0  0
   -1.5600   -2.7438    1.7572 O   0  0  0  0  0  0  0  0  0  0  0  0
   -2.2870   -0.8898    0.7102 N   0  0  0  0  0  0  0  0  0  0  0  0
   -3.0820   -0.4218    0.2992 H   0  0  0  0  0  0  0  0  0  0  0  0
   -1.0240   -0.1468    0.7262 C   0  0  1  0  0  0  0  0  0  0  0  0
   -1.1000    0.6506    1.4668 H   0  0  0  0  0  0  0  0  0  0  0  0
    0.1080   -1.1042    1.1467 C   0  0  0  0  0  0  0  0  0  0  0  0
    0.0687   -1.9894    0.5087 H   0  0  0  0  0  0  0  0  0  0  0  0
    1.0701   -0.6142    0.9904 H   0  0  0  0  0  0  0  0  0  0  0  0
    0.0048   -1.5625    2.6097 C   0  0  0  0  0  0  0  0  0  0  0  0
    0.0285   -0.6937    3.2681 H   0  0  0  0  0  0  0  0  0  0  0  0
   -0.9375   -2.0944    2.7537 H   0  0  0  0  0  0  0  0  0  0  0  0
    1.1684   -2.4907    2.9759 C   0  0  0  0  0  0  0  0  0  0  0  0
    1.1627   -3.3619    2.3201 H   0  0  0  0  0  0  0  0  0  0  0  0
    2.1113   -1.9562    2.8566 H   0  0  0  0  0  0  0  0  0  0  0  0
    1.0282   -2.9507    4.4257 C   0  0  0  0  0  0  0  0  0  0  0  0
    1.0523   -2.0837    5.0840 H   0  0  0  0  0  0  0  0  0  0  0  0
    0.0791   -3.4693    4.5508 H   0  0  0  0  0  0  0  0  0  0  0  0
    2.1153   -3.8614    4.8027 N   0  0  0  0  0  0  0  0  0  0  0  0
    1.9990   -4.1334    5.7679 H   0  0  0  0  0  0  0  0  0  0  0  0
    2.0780   -4.6827    4.2159 H   0  0  0  0  0  0  0  0  0  0  0  0
   -0.7669    0.4914   -0.6488 C   0  0  0  0  0  0  0  0  0  0  0  0
    0.2428    1.1669   -0.8358 O   0  0  0  0  0  0  0  0  0  0  0  0
   -1.6844    0.2837   -1.6003 N   0  0  0  0  0  0  0  0  0  0  0  0
   -2.4772   -0.2939   -1.3732 H   0  0  0  0  0  0  0  0  0  0  0  0
   -1.5965    0.8328   -2.9526 C   0  0  0  0  0  0  0  0  0  0  0  0
   -0.6471    0.5424   -3.4077 H   0  0  0  0  0  0  0  0  0  0  0  0
   -2.4184    0.4625   -3.5669 H   0  0  0  0  0  0  0  0  0  0  0  0
   -1.6402    1.9230   -2.9096 H   0  0  0  0  0  0  0  0  0  0  0  0
  5  6  2  0  0  0  0
  5  7  1  0  0  0  0
  2  3  1  0  0  0  0
  2  4  1  0  0  0  0
  2  5  1  0  0  0  0
  1  2  1  0  0  0  0
 26 27  2  0  0  0  0
 26 28  1  0  0  0  0
 23 24  1  0  0  0  0
 23 25  1  0  0  0  0
 20 21  1  0  0  0  0
 20 22  1  0  0  0  0
 20 23  1  0  0  0  0
 17 18  1  0  0  0  0
 17 19  1  0  0  0  0
 17 20  1  0  0  0  0
 14 15  1  0  0  0  0
 14 16  1  0  0  0  0
 14 17  1  0  0  0  0
 11 12  1  0  0  0  0
 11 13  1  0  0  0  0
 11 14  1  0  0  0  0
  9 10  1  0  0  0  0
  9 11  1  0  0  0  0
  9 26  1  0  0  0  0
  7  8  1  0  0  0  0
  7  9  1  0  0  0  0
 30 31  1  0  0  0  0
 30 32  1  0  0  0  0
 30 33  1  0  0  0  0
 28 29  1  0  0  0  0
 28 30  1  0  0  0  0
M  END
$$$$
default_name
  -OEChem-01062215323D

 33 32  0     1  0  0  0  0  0999 V2000
   -3.8420   -3.6918    1.5562 H   0  0  0  0  0  0  0  0  0  0  0  0
   -3.8430   -2.7008    1.1032 C   0  0  0  0  0  0  0  0  0  0  0  0
   -4.5510   -2.0608    1.6242 H   0  0  0  0  0  0  0  0  0  0  0  0
   -4.1140   -2.7798    0.0522 H   0  0  0  0  0  0  0  0  0  0  0  0
   -2.4570   -2.1098    1.2172 C   0  0  0  0  0  0  0  0  0  0  0  0
   -1.5600   -2.7438    1.7572 O   0  0  0  0  0  0  0  0  0  0  0  0
   -2.2870   -0.8898    0.7102 N   0  0  0  0  0  0  0  0  0  0  0  0
   -3.0820   -0.4218    0.2992 H   0  0  0  0  0  0  0  0  0  0  0  0
   -1.0240   -0.1468    0.7262 C   0  0  1  0  0  0  0  0  0  0  0  0
   -1.1000    0.6506    1.4668 H   0  0  0  0  0  0  0  0  0  0  0  0
    0.1080   -1.1042    1.1467 C   0  0  0  0  0  0  0  0  0  0  0  0
    0.0687   -1.9894    0.5087 H   0  0  0  0  0  0  0  0  0  0  0  0
    1.0701   -0.6142    0.9904 H   0  0  0  0  0  0  0  0  0  0  0  0
    0.0048   -1.5625    2.6097 C   0  0  0  0  0  0  0  0  0  0  0  0
    0.0285   -0.6937    3.2681 H   0  0  0  0  0  0  0  0  0  0  0  0
   -0.9375   -2.0944    2.7537 H   0  0  0  0  0  0  0  0  0  0  0  0
    1.1684   -2.4907    2.9759 C   0  0  0  0  0  0  0  0  0  0  0  0
    1.1627   -3.3619    2.3201 H   0  0  0  0  0  0  0  0  0  0  0  0
    2.1113   -1.9562    2.8566 H   0  0  0  0  0  0  0  0  0  0  0  0
    1.0282   -2.9507    4.4257 C   0  0  0  0  0  0  0  0  0  0  0  0
    1.0523   -2.0837    5.0840 H   0  0  0  0  0  0  0  0  0  0  0  0
    0.0791   -3.4693    4.5508 H   0  0  0  0  0  0  0  0  0  0  0  0
    2.1153   -3.8614    4.8027 N   0  0  0  0  0  0  0  0  0  0  0  0
    1.9990   -4.1334    5.7679 H   0  0  0  0  0  0  0  0  0  0  0  0
    2.0780   -4.6827    4.2159 H   0  0  0  0  0  0  0  0  0  0  0  0
   -0.7669    0.4914   -0.6488 C   0  0  0  0  0  0  0  0  0  0  0  0
    0.3482    0.9270   -0.9275 O   0  0  0  0  0  0  0  0  0  0  0  0
   -1.8000    0.5530   -1.4970 N   0  0  0  0  0  0  0  0  0  0  0  0
   -2.6783    0.1606   -1.1999 H   0  0  0  0  0  0  0  0  0  0  0  0
   -1.7249    1.1421   -2.8331 C   0  0  0  0  0  0  0  0  0  0  0  0
   -0.9214    0.6678   -3.4008 H   0  0  0  0  0  0  0  0  0  0  0  0
   -2.6691    1.0048   -3.3621 H   0  0  0  0  0  0  0  0  0  0  0  0
   -1.5079    2.2092   -2.7521 H   0  0  0  0  0  0  0  0  0  0  0  0
  5  6  2  0  0  0  0
  5  7  1  0  0  0  0
  2  3  1  0  0  0  0
  2  4  1  0  0  0  0
  2  5  1  0  0  0  0
  1  2  1  0  0  0  0
 26 27  2  0  0  0  0
 26 28  1  0  0  0  0
 23 24  1  0  0  0  0
 23 25  1  0  0  0  0
 20 21  1  0  0  0  0
 20 22  1  0  0  0  0
 20 23  1  0  0  0  0
 17 18  1  0  0  0  0
 17 19  1  0  0  0  0
 17 20  1  0  0  0  0
 14 15  1  0  0  0  0
 14 16  1  0  0  0  0
 14 17  1  0  0  0  0
 11 12  1  0  0  0  0
 11 13  1  0  0  0  0
 11 14  1  0  0  0  0
  9 10  1  0  0  0  0
  9 11  1  0  0  0  0
  9 26  1  0  0  0  0
  7  8  1  0  0  0  0
  7  9  1  0  0  0  0
 30 31  1  0  0  0  0
 30 32  1  0  0  0  0
 30 33  1  0  0  0  0
 28 29  1  0  0  0  0
 28 30  1  0  0  0  0
M  END
$$$$
default_name
  -OEChem-01062215323D

 33 32  0     1  0  0  0  0  0999 V2000
   -3.8420   -3.6918    1.5562 H   0  0  0  0  0  0  0  0  0  0  0  0
   -3.8430   -2.7008    1.1032 C   0  0  0  0  0  0  0  0  0  0  0  0
   -4.5510   -2.0608    1.6242 H   0  0  0  0  0  0  0  0  0  0  0  0
   -4.1140   -2.7798    0.0522 H   0  0  0  0  0  0  0  0  0  0  0  0
   -2.4570   -2.1098    1.2172 C   0  0  0  0  0  0  0  0  0  0  0  0
   -1.5600   -2.7438    1.7572 O   0  0  0  0  0  0  0  0  0  0  0  0
   -2.2870   -0.8898    0.7102 N   0  0  0  0  0  0  0  0  0  0  0  0
   -3.0820   -0.4218    0.2992 H   0  0  0  0  0  0  0  0  0  0  0  0
   -1.0240   -0.1468    0.7262 C   0  0  1  0  0  0  0  0  0  0  0  0
   -1.1000    0.6506    1.4668 H   0  0  0  0  0  0  0  0  0  0  0  0
    0.1080   -1.1042    1.1467 C   0  0  0  0  0  0  0  0  0  0  0  0
    0.0687   -1.9894    0.5087 H   0  0  0  0  0  0  0  0  0  0  0  0
    1.0701   -0.6142    0.9904 H   0  0  0  0  0  0  0  0  0  0  0  0
    0.0048   -1.5625    2.6097 C   0  0  0  0  0  0  0  0  0  0  0  0
    0.0285   -0.6937    3.2681 H   0  0  0  0  0  0  0  0  0  0  0  0
   -0.9375   -2.0944    2.7537 H   0  0  0  0  0  0  0  0  0  0  0  0
    1.1684   -2.4907    2.9759 C   0  0  0  0  0  0  0  0  0  0  0  0
    1.1627   -3.3619    2.3201 H   0  0  0  0  0  0  0  0  0  0  0  0
    2.1113   -1.9562    2.8566 H   0  0  0  0  0  0  0  0  0  0  0  0
    1.0282   -2.9507    4.4257 C   0  0  0  0  0  0  0  0  0  0  0  0
    1.0523   -2.0837    5.0840 H   0  0  0  0  0  0  0  0  0  0  0  0
    0.0791   -3.4693    4.5508 H   0  0  0  0  0  0  0  0  0  0  0  0
    2.1153   -3.8614    4.8027 N   0  0  0  0  0  0  0  0  0  0  0  0
    1.9990   -4.1334    5.7679 H   0  0  0  0  0  0  0  0  0  0  0  0
    2.0780   -4.6827    4.2159 H   0  0  0  0  0  0  0  0  0  0  0  0
   -0.7669    0.4914   -0.6488 C   0  0  0  0  0  0  0  0  0  0  0  0
    0.3846    0.6748   -1.0377 O   0  0  0  0  0  0  0  0  0  0  0  0
   -1.8382    0.8353   -1.3731 N   0  0  0  0  0  0  0  0  0  0  0  0
   -2.7487    0.6387   -0.9912 H   0  0  0  0  0  0  0  0  0  0  0  0
   -1.7646    1.4653   -2.6904 C   0  0  0  0  0  0  0  0  0  0  0  0
   -1.1567    0.8521   -3.3593 H   0  0  0  0  0  0  0  0  0  0  0  0
   -2.7637    1.5779   -3.1138 H   0  0  0  0  0  0  0  0  0  0  0  0
   -1.2969    2.4481   -2.6017 H   0  0  0  0  0  0  0  0  0  0  0  0
  5  6  2  0  0  0  0
  5  7  1  0  0  0  0
  2  3  1  0  0  0  0
  2  4  1  0  0  0  0
  2  5  1  0  0  0  0
  1  2  1  0  0  0  0
 26 27  2  0  0  0  0
 26 28  1  0  0  0  0
 23 24  1  0  0  0  0
 23 25  1  0  0  0  0
 20 21  1  0  0  0  0
 20 22  1  0  0  0  0
 20 23  1  0  0  0  0
 17 18  1  0  0  0  0
 17 19  1  0  0  0  0
 17 20  1  0  0  0  0
 14 15  1  0  0  0  0
 14 16  1  0  0  0  0
 14 17  1  0  0  0  0
 11 12  1  0  0  0  0
 11 13  1  0  0  0  0
 11 14  1  0  0  0  0
  9 10  1  0  0  0  0
  9 11  1  0  0  0  0
  9 26  1  0  0  0  0
  7  8  1  0  0  0  0
  7  9  1  0  0  0  0
 30 31  1  0  0  0  0
 30 32  1  0  0  0  0
 30 33  1  0  0  0  0
 28 29  1  0  0  0  0
 28 30  1  0  0  0  0
M  END
$$$$
default_name
  -OEChem-01062215323D

 33 32  0     1  0  0  0  0  0999 V2000
   -3.8420   -3.6918    1.5562 H   0  0  0  0  0  0  0  0  0  0  0  0
   -3.8430   -2.7008    1.1032 C   0  0  0  0  0  0  0  0  0  0  0  0
   -4.5510   -2.0608    1.6242 H   0  0  0  0  0  0  0  0  0  0  0  0
   -4.1140   -2.7798    0.0522 H   0  0  0  0  0  0  0  0  0  0  0  0
   -2.4570   -2.1098    1.2172 C   0  0  0  0  0  0  0  0  0  0  0  0
   -1.5600   -2.7438    1.7572 O   0  0  0  0  0  0  0  0  0  0  0  0
   -2.2870   -0.8898    0.7102 N   0  0  0  0  0  0  0  0  0  0  0  0
   -3.0820   -0.4218    0.2992 H   0  0  0  0  0  0  0  0  0  0  0  0
   -1.0240   -0.1468    0.7262 C   0  0  1  0  0  0  0  0  0  0  0  0
   -1.1000    0.6506    1.4668 H   0  0  0  0  0  0  0  0  0  0  0  0
    0.1080   -1.1042    1.1467 C   0  0  0  0  0  0  0  0  0  0  0  0
    0.0687   -1.9894    0.5087 H   0  0  0  0  0  0  0  0  0  0  0  0
    1.0701   -0.6142    0.9904 H   0  0  0  0  0  0  0  0  0  0  0  0
    0.0048   -1.5625    2.6097 C   0  0  0  0  0  0  0  0  0  0  0  0
    0.0285   -0.6937    3.2681 H   0  0  0  0  0  0  0  0  0  0  0  0
   -0.9375   -2.0944    2.7537 H   0  0  0  0  0  0  0  0  0  0  0  0
    1.1684   -2.4907    2.9759 C   0  0  0  0  0  0  0  0  0  0  0  0
    1.1627   -3.3619    2.3201 H   0  0  0  0  0  0  0  0  0  0  0  0
    2.1113   -1.9562    2.8566 H   0  0  0  0  0  0  0  0  0  0  0  0
    1.0282   -2.9507    4.4257 C   0  0  0  0  0  0  0  0  0  0  0  0
    1.0523   -2.0837    5.0840 H   0  0  0  0  0  0  0  0  0  0  0  0
    0.0791   -3.4693    4.5508 H   0  0  0  0  0  0  0  0  0  0  0  0
    2.1153   -3.8614    4.8027 N   0  0  0  0  0  0  0  0  0  0  0  0
    1.9990   -4.1334    5.7679 H   0  0  0  0  0  0  0  0  0  0  0  0
    2.0780   -4.6827    4.2159 H   0  0  0  0  0  0  0  0  0  0  0  0
   -0.7669    0.4914   -0.6488 C   0  0  0  0  0  0  0  0  0  0  0  0
    0.3496    0.4276   -1.1590 O   0  0  0  0  0  0  0  0  0  0  0  0
   -1.7964    1.1116   -1.2371 N   0  0  0  0  0  0  0  0  0  0  0  0
   -2.6837    1.1077   -0.7614 H   0  0  0  0  0  0  0  0  0  0  0  0
   -1.7127    1.7806   -2.5344 C   0  0  0  0  0  0  0  0  0  0  0  0
   -1.3368    1.0828   -3.2859 H   0  0  0  0  0  0  0  0  0  0  0  0
   -2.6958    2.1425   -2.8390 H   0  0  0  0  0  0  0  0  0  0  0  0
   -1.0217    2.6235   -2.4689 H   0  0  0  0  0  0  0  0  0  0  0  0
  5  6  2  0  0  0  0
  5  7  1  0  0  0  0
  2  3  1  0  0  0  0
  2  4  1  0  0  0  0
  2  5  1  0  0  0  0
  1  2  1  0  0  0  0
 26 27  2  0  0  0  0
 26 28  1  0  0  0  0
 23 24  1  0  0  0  0
 23 25  1  0  0  0  0
 20 21  1  0  0  0  0
 20 22  1  0  0  0  0
 20 23  1  0  0  0  0
 17 18  1  0  0  0  0
 17 19  1  0  0  0  0
 17 20  1  0  0  0  0
 14 15  1  0  0  0  0
 14 16  1  0  0  0  0
 14 17  1  0  0  0  0
 11 12  1  0  0  0  0
 11 13  1  0  0  0  0
 11 14  1  0  0  0  0
  9 10  1  0  0  0  0
  9 11  1  0  0  0  0
  9 26  1  0  0  0  0
  7  8  1  0  0  0  0
  7  9  1  0  0  0  0
 30 31  1  0  0  0  0
 30 32  1  0  0  0  0
 30 33  1  0  0  0  0
 28 29  1  0  0  0  0
 28 30  1  0  0  0  0
M  END
$$$$
default_name
  -OEChem-01062215323D

 33 32  0     1  0  0  0  0  0999 V2000
   -3.8420   -3.6918    1.5562 H   0  0  0  0  0  0  0  0  0  0  0  0
   -3.8430   -2.7008    1.1032 C   0  0  0  0  0  0  0  0  0  0  0  0
   -4.5510   -2.0608    1.6242 H   0  0  0  0  0  0  0  0  0  0  0  0
   -4.1140   -2.7798    0.0522 H   0  0  0  0  0  0  0  0  0  0  0  0
   -2.4570   -2.1098    1.2172 C   0  0  0  0  0  0  0  0  0  0  0  0
   -1.5600   -2.7438    1.7572 O   0  0  0  0  0  0  0  0  0  0  0  0
   -2.2870   -0.8898    0.7102 N   0  0  0  0  0  0  0  0  0  0  0  0
   -3.0820   -0.4218    0.2992 H   0  0  0  0  0  0  0  0  0  0  0  0
   -1.0240   -0.1468    0.7262 C   0  0  1  0  0  0  0  0  0  0  0  0
   -1.1000    0.6506    1.4668 H   0  0  0  0  0  0  0  0  0  0  0  0
    0.1080   -1.1042    1.1467 C   0  0  0  0  0  0  0  0  0  0  0  0
    0.0687   -1.9894    0.5087 H   0  0  0  0  0  0  0  0  0  0  0  0
    1.0701   -0.6142    0.9904 H   0  0  0  0  0  0  0  0  0  0  0  0
    0.0048   -1.5625    2.6097 C   0  0  0  0  0  0  0  0  0  0  0  0
    0.0285   -0.6937    3.2681 H   0  0  0  0  0  0  0  0  0  0  0  0
   -0.9375   -2.0944    2.7537 H   0  0  0  0  0  0  0  0  0  0  0  0
    1.1684   -2.4907    2.9759 C   0  0  0  0  0  0  0  0  0  0  0  0
    1.1627   -3.3619    2.3201 H   0  0  0  0  0  0  0  0  0  0  0  0
    2.1113   -1.9562    2.8566 H   0  0  0  0  0  0  0  0  0  0  0  0
    1.0282   -2.9507    4.4257 C   0  0  0  0  0  0  0  0  0  0  0  0
    1.0523   -2.0837    5.0840 H   0  0  0  0  0  0  0  0  0  0  0  0
    0.0791   -3.4693    4.5508 H   0  0  0  0  0  0  0  0  0  0  0  0
    2.1153   -3.8614    4.8027 N   0  0  0  0  0  0  0  0  0  0  0  0
    1.9990   -4.1334    5.7679 H   0  0  0  0  0  0  0  0  0  0  0  0
    2.0780   -4.6827    4.2159 H   0  0  0  0  0  0  0  0  0  0  0  0
   -0.7669    0.4914   -0.6488 C   0  0  0  0  0  0  0  0  0  0  0  0
    0.2455    0.2022   -1.2831 O   0  0  0  0  0  0  0  0  0  0  0  0
   -1.6775    1.3628   -1.0982 N   0  0  0  0  0  0  0  0  0  0  0  0
   -2.4876    1.5357   -0.5260 H   0  0  0  0  0  0  0  0  0  0  0  0
   -1.5729    2.0664   -2.3757 C   0  0  0  0  0  0  0  0  0  0  0  0
   -1.4495    1.3442   -3.1857 H   0  0  0  0  0  0  0  0  0  0  0  0
   -2.4699    2.6603   -2.5565 H   0  0  0  0  0  0  0  0  0  0  0  0
   -0.7009    2.7236   -2.3625 H   0  0  0  0  0  0  0  0  0  0  0  0
  5  6  2  0  0  0  0
  5  7  1  0  0  0  0
  2  3  1  0  0  0  0
  2  4  1  0  0  0  0
  2  5  1  0  0  0  0
  1  2  1  0  0  0  0
 26 27  2  0  0  0  0
 26 28  1  0  0  0  0
 23 24  1  0  0  0  0
 23 25  1  0  0  0  0
 20 21  1  0  0  0  0
 20 22  1  0  0  0  0
 20 23  1  0  0  0  0
 17 18  1  0  0  0  0
 17 19  1  0  0  0  0
 17 20  1  0  0  0  0
 14 15  1  0  0  0  0
 14 16  1  0  0  0  0
 14 17  1  0  0  0  0
 11 12  1  0  0  0  0
 11 13  1  0  0  0  0
 11 14  1  0  0  0  0
  9 10  1  0  0  0  0
  9 11  1  0  0  0  0
  9 26  1  0  0  0  0
  7  8  1  0  0  0  0
  7  9  1  0  0  0  0
 30 31  1  0  0  0  0
 30 32  1  0  0  0  0
 30 33  1  0  0  0  0
 28 29  1  0  0  0  0
 28 30  1  0  0  0  0
M  END
$$$$
default_name
  -OEChem-01062215323D

 33 32  0     1  0  0  0  0  0999 V2000
   -3.8420   -3.6918    1.5562 H   0  0  0  0  0  0  0  0  0  0  0  0
   -3.8430   -2.7008    1.1032 C   0  0  0  0  0  0  0  0  0  0  0  0
   -4.5510   -2.0608    1.6242 H   0  0  0  0  0  0  0  0  0  0  0  0
   -4.1140   -2.7798    0.0522 H   0  0  0  0  0  0  0  0  0  0  0  0
   -2.4570   -2.1098    1.2172 C   0  0  0  0  0  0  0  0  0  0  0  0
   -1.5600   -2.7438    1.7572 O   0  0  0  0  0  0  0  0  0  0  0  0
   -2.2870   -0.8898    0.7102 N   0  0  0  0  0  0  0  0  0  0  0  0
   -3.0820   -0.4218    0.2992 H   0  0  0  0  0  0  0  0  0  0  0  0
   -1.0240   -0.1468    0.7262 C   0  0  1  0  0  0  0  0  0  0  0  0
   -1.1000    0.6506    1.4668 H   0  0  0  0  0  0  0  0  0  0  0  0
    0.1080   -1.1042    1.1467 C   0  0  0  0  0  0  0  0  0  0  0  0
    0.0687   -1.9894    0.5087 H   0  0  0  0  0  0  0  0  0  0  0  0
    1.0701   -0.6142    0.9904 H   0  0  0  0  0  0  0  0  0  0  0  0
    0.0048   -1.5625    2.6097 C   0  0  0  0  0  0  0  0  0  0  0  0
    0.0285   -0.6937    3.2681 H   0  0  0  0  0  0  0  0  0  0  0  0
   -0.9375   -2.0944    2.7537 H   0  0  0  0  0  0  0  0  0  0  0  0
    1.1684   -2.4907    2.9759 C   0  0  0  0  0  0  0  0  0  0  0  0
    1.1627   -3.3619    2.3201 H   0  0  0  0  0  0  0  0  0  0  0  0
    2.1113   -1.9562    2.8566 H   0  0  0  0  0  0  0  0  0  0  0  0
    1.0282   -2.9507    4.4257 C   0  0  0  0  0  0  0  0  0  0  0  0
    1.0523   -2.0837    5.0840 H   0  0  0  0  0  0  0  0  0  0  0  0
    0.0791   -3.4693    4.5508 H   0  0  0  0  0  0  0  0  0  0  0  0
    2.1153   -3.8614    4.8027 N   0  0  0  0  0  0  0  0  0  0  0  0
    1.9990   -4.1334    5.7679 H   0  0  0  0  0  0  0  0  0  0  0  0
    2.0780   -4.6827    4.2159 H   0  0  0  0  0  0  0  0  0  0  0  0
   -0.7669    0.4914   -0.6488 C   0  0  0  0  0  0  0  0  0  0  0  0
    0.0794    0.0139   -1.4015 O   0  0  0  0  0  0  0  0  0  0  0  0
   -1.4895    1.5720   -0.9660 N   0  0  0  0  0  0  0  0  0  0  0  0
   -2.1739    1.8936   -0.3013 H   0  0  0  0  0  0  0  0  0  0  0  0
   -1.3546    2.3032   -2.2249 C   0  0  0  0  0  0  0  0  0  0  0  0
   -1.4871    1.6183   -3.0654 H   0  0  0  0  0  0  0  0  0  0  0  0
   -2.1016    3.0960   -2.2854 H   0  0  0  0  0  0  0  0  0  0  0  0
   -0.3565    2.7413   -2.2898 H   0  0  0  0  0  0  0  0  0  0  0  0
  5  6  2  0  0  0  0
  5  7  1  0  0  0  0
  2  3  1  0  0  0  0
  2  4  1  0  0  0  0
  2  5  1  0  0  0  0
  1  2  1  0  0  0  0
 26 27  2  0  0  0  0
 26 28  1  0  0  0  0
 23 24  1  0  0  0  0
 23 25  1  0  0  0  0
 20 21  1  0  0  0  0
 20 22  1  0  0  0  0
 20 23  1  0  0  0  0
 17 18  1  0  0  0  0
 17 19  1  0  0  0  0
 17 20  1  0  0  0  0
 14 15  1  0  0  0  0
 14 16  1  0  0  0  0
 14 17  1  0  0  0  0
 11 12  1  0  0  0  0
 11 13  1  0  0  0  0
 11 14  1  0  0  0  0
  9 10  1  0  0  0  0
  9 11  1  0  0  0  0
  9 26  1  0  0  0  0
  7  8  1  0  0  0  0
  7  9  1  0  0  0  0
 30 31  1  0  0  0  0
 30 32  1  0  0  0  0
 30 33  1  0  0  0  0
 28 29  1  0  0  0  0
 28 30  1  0  0  0  0
M  END
$$$$
default_name
  -OEChem-01062215323D

 33 32  0     1  0  0  0  0  0999 V2000
   -3.8420   -3.6918    1.5562 H   0  0  0  0  0  0  0  0  0  0  0  0
   -3.8430   -2.7008    1.1032 C   0  0  0  0  0  0  0  0  0  0  0  0
   -4.5510   -2.0608    1.6242 H   0  0  0  0  0  0  0  0  0  0  0  0
   -4.1140   -2.7798    0.0522 H   0  0  0  0  0  0  0  0  0  0  0  0
   -2.4570   -2.1098    1.2172 C   0  0  0  0  0  0  0  0  0  0  0  0
   -1.5600   -2.7438    1.7572 O   0  0  0  0  0  0  0  0  0  0  0  0
   -2.2870   -0.8898    0.7102 N   0  0  0  0  0  0  0  0  0  0  0  0
   -3.0820   -0.4218    0.2992 H   0  0  0  0  0  0  0  0  0  0  0  0
   -1.0240   -0.1468    0.7262 C   0  0  1  0  0  0  0  0  0  0  0  0
   -1.1000    0.6506    1.4668 H   0  0  0  0  0  0  0  0  0  0  0  0
    0.1080   -1.1042    1.1467 C   0  0  0  0  0  0  0  0  0  0  0  0
    0.0687   -1.9894    0.5087 H   0  0  0  0  0  0  0  0  0  0  0  0
    1.0701   -0.6142    0.9904 H   0  0  0  0  0  0  0  0  0  0  0  0
    0.0048   -1.5625    2.6097 C   0  0  0  0  0  0  0  0  0  0  0  0
    0.0285   -0.6937    3.2681 H   0  0  0  0  0  0  0  0  0  0  0  0
   -0.9375   -2.0944    2.7537 H   0  0  0  0  0  0  0  0  0  0  0  0
    1.1684   -2.4907    2.9759 C   0  0  0  0  0  0  0  0  0  0  0  0
    1.1627   -3.3619    2.3201 H   0  0  0  0  0  0  0  0  0  0  0  0
    2.1113   -1.9562    2.8566 H   0  0  0  0  0  0  0  0  0  0  0  0
    1.0282   -2.9507    4.4257 C   0  0  0  0  0  0  0  0  0  0  0  0
    1.0523   -2.0837    5.0840 H   0  0  0  0  0  0  0  0  0  0  0  0
    0.0791   -3.4693    4.5508 H   0  0  0  0  0  0  0  0  0  0  0  0
    2.1153   -3.8614    4.8027 N   0  0  0  0  0  0  0  0  0  0  0  0
    1.9990   -4.1334    5.7679 H   0  0  0  0  0  0  0  0  0  0  0  0
    2.0780   -4.6827    4.2159 H   0  0  0  0  0  0  0  0  0  0  0  0
   -0.7669    0.4914   -0.6488 C   0  0  0  0  0  0  0  0  0  0  0  0
   -0.1373   -0.1245   -1.5063 O   0  0  0  0  0  0  0  0  0  0  0  0
   -1.2454    1.7248   -0.8494 N   0  0  0  0  0  0  0  0  0  0  0  0
   -1.7638    2.1570   -0.1024 H   0  0  0  0  0  0  0  0  0  0  0  0
   -1.0728    2.4749   -2.0926 C   0  0  0  0  0  0  0  0  0  0  0  0
   -1.4470    1.8867   -2.9334 H   0  0  0  0  0  0  0  0  0  0  0  0
   -1.6158    3.4198   -2.0443 H   0  0  0  0  0  0  0  0  0  0  0  0
   -0.0120    2.6756   -2.2559 H   0  0  0  0  0  0  0  0  0  0  0  0
  5  6  2  0  0  0  0
  5  7  1  0  0  0  0
  2  3  1  0  0  0  0
  2  4  1  0  0  0  0
  2  5  1  0  0  0  0
  1  2  1  0  0  0  0
 26 27  2  0  0  0  0
 26 28  1  0  0  0  0
 23 24  1  0  0  0  0
 23 25  1  0  0  0  0
 20 21  1  0  0  0  0
 20 22  1  0  0  0  0
 20 23  1  0  0  0  0
 17 18  1  0  0  0  0
 17 19  1  0  0  0  0
 17 20  1  0  0  0  0
 14 15  1  0  0  0  0
 14 16  1  0  0  0  0
 14 17  1  0  0  0  0
 11 12  1  0  0  0  0
 11 13  1  0  0  0  0
 11 14  1  0  0  0  0
  9 10  1  0  0  0  0
  9 11  1  0  0  0  0
  9 26  1  0  0  0  0
  7  8  1  0  0  0  0
  7  9  1  0  0  0  0
 30 31  1  0  0  0  0
 30 32  1  0  0  0  0
 30 33  1  0  0  0  0
 28 29  1  0  0  0  0
 28 30  1  0  0  0  0
M  END
$$$$
default_name
  -OEChem-01062215323D

 33 32  0     1  0  0  0  0  0999 V2000
   -3.8420   -3.6918    1.5562 H   0  0  0  0  0  0  0  0  0  0  0  0
   -3.8430   -2.7008    1.1032 C   0  0  0  0  0  0  0  0  0  0  0  0
   -4.5510   -2.0608    1.6242 H   0  0  0  0  0  0  0  0  0  0  0  0
   -4.1140   -2.7798    0.0522 H   0  0  0  0  0  0  0  0  0  0  0  0
   -2.4570   -2.1098    1.2172 C   0  0  0  0  0  0  0  0  0  0  0  0
   -1.5600   -2.7438    1.7572 O   0  0  0  0  0  0  0  0  0  0  0  0
   -2.2870   -0.8898    0.7102 N   0  0  0  0  0  0  0  0  0  0  0  0
   -3.0820   -0.4218    0.2992 H   0  0  0  0  0  0  0  0  0  0  0  0
   -1.0240   -0.1468    0.7262 C   0  0  1  0  0  0  0  0  0  0  0  0
   -1.1000    0.6506    1.4668 H   0  0  0  0  0  0  0  0  0  0  0  0
    0.1080   -1.1042    1.1467 C   0  0  0  0  0  0  0  0  0  0  0  0
    0.0687   -1.9894    0.5087 H   0  0  0  0  0  0  0  0  0  0  0  0
    1.0701   -0.6142    0.9904 H   0  0  0  0  0  0  0  0  0  0  0  0
    0.0048   -1.5625    2.6097 C   0  0  0  0  0  0  0  0  0  0  0  0
    0.0285   -0.6937    3.2681 H   0  0  0  0  0  0  0  0  0  0  0  0
   -0.9375   -2.0944    2.7537 H   0  0  0  0  0  0  0  0  0  0  0  0
    1.1684   -2.4907    2.9759 C   0  0  0  0  0  0  0  0  0  0  0  0
    1.1627   -3.3619    2.3201 H   0  0  0  0  0  0  0  0  0  0  0  0
    2.1113   -1.9562    2.8566 H   0  0  0  0  0  0  0  0  0  0  0  0
    1.0282   -2.9507    4.4257 C   0  0  0  0  0  0  0  0  0  0  0  0
    1.0523   -2.0837    5.0840 H   0  0  0  0  0  0  0  0  0  0  0  0
    0.0791   -3.4693    4.5508 H   0  0  0  0  0  0  0  0  0  0  0  0
    2.1153   -3.8614    4.8027 N   0  0  0  0  0  0  0  0  0  0  0  0
    1.9990   -4.1334    5.7679 H   0  0  0  0  0  0  0  0  0  0  0  0
    2.0780   -4.6827    4.2159 H   0  0  0  0  0  0  0  0  0  0  0  0
   -0.7669    0.4914   -0.6488 C   0  0  0  0  0  0  0  0  0  0  0  0
   -0.3899   -0.2034   -1.5901 O   0  0  0  0  0  0  0  0  0  0  0  0
   -0.9617    1.8108   -0.7565 N   0  0  0  0  0  0  0  0  0  0  0  0
   -1.2855    2.3078    0.0571 H   0  0  0  0  0  0  0  0  0  0  0  0
   -0.7467    2.5697   -1.9876 C   0  0  0  0  0  0  0  0  0  0  0  0
   -1.3320    2.1309   -2.7986 H   0  0  0  0  0  0  0  0  0  0  0  0
   -1.0458    3.6098   -1.8496 H   0  0  0  0  0  0  0  0  0  0  0  0
    0.3093    2.5309   -2.2630 H   0  0  0  0  0  0  0  0  0  0  0  0
  5  6  2  0  0  0  0
  5  7  1  0  0  0  0
  2  3  1  0  0  0  0
  2  4  1  0  0  0  0
  2  5  1  0  0  0  0
  1  2  1  0  0  0  0
 26 27  2  0  0  0  0
 26 28  1  0  0  0  0
 23 24  1  0  0  0  0
 23 25  1  0  0  0  0
 20 21  1  0  0  0  0
 20 22  1  0  0  0  0
 20 23  1  0  0  0  0
 17 18  1  0  0  0  0
 17 19  1  0  0  0  0
 17 20  1  0  0  0  0
 14 15  1  0  0  0  0
 14 16  1  0  0  0  0
 14 17  1  0  0  0  0
 11 12  1  0  0  0  0
 11 13  1  0  0  0  0
 11 14  1  0  0  0  0
  9 10  1  0  0  0  0
  9 11  1  0  0  0  0
  9 26  1  0  0  0  0
  7  8  1  0  0  0  0
  7  9  1  0  0  0  0
 30 31  1  0  0  0  0
 30 32  1  0  0  0  0
 30 33  1  0  0  0  0
 28 29  1  0  0  0  0
 28 30  1  0  0  0  0
M  END
$$$$
default_name
  -OEChem-01062215323D

 33 32  0     1  0  0  0  0  0999 V2000
   -3.8420   -3.6918    1.5562 H   0  0  0  0  0  0  0  0  0  0  0  0
   -3.8430   -2.7008    1.1032 C   0  0  0  0  0  0  0  0  0  0  0  0
   -4.5510   -2.0608    1.6242 H   0  0  0  0  0  0  0  0  0  0  0  0
   -4.1140   -2.7798    0.0522 H   0  0  0  0  0  0  0  0  0  0  0  0
   -2.4570   -2.1098    1.2172 C   0  0  0  0  0  0  0  0  0  0  0  0
   -1.5600   -2.7438    1.7572 O   0  0  0  0  0  0  0  0  0  0  0  0
   -2.2870   -0.8898    0.7102 N   0  0  0  0  0  0  0  0  0  0  0  0
   -3.0820   -0.4218    0.2992 H   0  0  0  0  0  0  0  0  0  0  0  0
   -1.0240   -0.1468    0.7262 C   0  0  1  0  0  0  0  0  0  0  0  0
   -1.1000    0.6506    1.4668 H   0  0  0  0  0  0  0  0  0  0  0  0
    0.1080   -1.1042    1.1467 C   0  0  0  0  0  0  0  0  0  0  0  0
    0.0687   -1.9894    0.5087 H   0  0  0  0  0  0  0  0  0  0  0  0
    1.0701   -0.6142    0.9904 H   0  0  0  0  0  0  0  0  0  0  0  0
    0.0048   -1.5625    2.6097 C   0  0  0  0  0  0  0  0  0  0  0  0
    0.0285   -0.6937    3.2681 H   0  0  0  0  0  0  0  0  0  0  0  0
   -0.9375   -2.0944    2.7537 H   0  0  0  0  0  0  0  0  0  0  0  0
    1.1684   -2.4907    2.9759 C   0  0  0  0  0  0  0  0  0  0  0  0
    1.1627   -3.3619    2.3201 H   0  0  0  0  0  0  0  0  0  0  0  0
    2.1113   -1.9562    2.8566 H   0  0  0  0  0  0  0  0  0  0  0  0
    1.0282   -2.9507    4.4257 C   0  0  0  0  0  0  0  0  0  0  0  0
    1.0523   -2.0837    5.0840 H   0  0  0  0  0  0  0  0  0  0  0  0
    0.0791   -3.4693    4.5508 H   0  0  0  0  0  0  0  0  0  0  0  0
    2.1153   -3.8614    4.8027 N   0  0  0  0  0  0  0  0  0  0  0  0
    1.9990   -4.1334    5.7679 H   0  0  0  0  0  0  0  0  0  0  0  0
    2.0780   -4.6827    4.2159 H   0  0  0  0  0  0  0  0  0  0  0  0
   -0.7669    0.4914   -0.6488 C   0  0  0  0  0  0  0  0  0  0  0  0
   -0.6612   -0.2175   -1.6474 O   0  0  0  0  0  0  0  0  0  0  0  0
   -0.6577    1.8243   -0.6934 N   0  0  0  0  0  0  0  0  0  0  0  0
   -0.7713    2.3359    0.1662 H   0  0  0  0  0  0  0  0  0  0  0  0
   -0.3983    2.5813   -1.9170 C   0  0  0  0  0  0  0  0  0  0  0  0
   -1.1499    2.3343   -2.6701 H   0  0  0  0  0  0  0  0  0  0  0  0
   -0.4302    3.6528   -1.7145 H   0  0  0  0  0  0  0  0  0  0  0  0
    0.5854    2.3171   -2.3106 H   0  0  0  0  0  0  0  0  0  0  0  0
  5  6  2  0  0  0  0
  5  7  1  0  0  0  0
  2  3  1  0  0  0  0
  2  4  1  0  0  0  0
  2  5  1  0  0  0  0
  1  2  1  0  0  0  0
 26 27  2  0  0  0  0
 26 28  1  0  0  0  0
 23 24  1  0  0  0  0
 23 25  1  0  0  0  0
 20 21  1  0  0  0  0
 20 22  1  0  0  0  0
 20 23  1  0  0  0  0
 17 18  1  0  0  0  0
 17 19  1  0  0  0  0
 17 20  1  0  0  0  0
 14 15  1  0  0  0  0
 14 16  1  0  0  0  0
 14 17  1  0  0  0  0
 11 12  1  0  0  0  0
 11 13  1  0  0  0  0
 11 14  1  0  0  0  0
  9 10  1  0  0  0  0
  9 11  1  0  0  0  0
  9 26  1  0  0  0  0
  7  8  1  0  0  0  0
  7  9  1  0  0  0  0
 30 31  1  0  0  0  0
 30 32  1  0  0  0  0
 30 33  1  0  0  0  0
 28 29  1  0  0  0  0
 28 30  1  0  0  0  0
M  END
$$$$
default_name
  -OEChem-01062215323D

 33 32  0     1  0  0  0  0  0999 V2000
   -3.8420   -3.6918    1.5562 H   0  0  0  0  0  0  0  0  0  0  0  0
   -3.8430   -2.7008    1.1032 C   0  0  0  0  0  0  0  0  0  0  0  0
   -4.5510   -2.0608    1.6242 H   0  0  0  0  0  0  0  0  0  0  0  0
   -4.1140   -2.7798    0.0522 H   0  0  0  0  0  0  0  0  0  0  0  0
   -2.4570   -2.1098    1.2172 C   0  0  0  0  0  0  0  0  0  0  0  0
   -1.5600   -2.7438    1.7572 O   0  0  0  0  0  0  0  0  0  0  0  0
   -2.2870   -0.8898    0.7102 N   0  0  0  0  0  0  0  0  0  0  0  0
   -3.0820   -0.4218    0.2992 H   0  0  0  0  0  0  0  0  0  0  0  0
   -1.0240   -0.1468    0.7262 C   0  0  1  0  0  0  0  0  0  0  0  0
   -1.1000    0.6506    1.4668 H   0  0  0  0  0  0  0  0  0  0  0  0
    0.1080   -1.1042    1.1467 C   0  0  0  0  0  0  0  0  0  0  0  0
    0.0687   -1.9894    0.5087 H   0  0  0  0  0  0  0  0  0  0  0  0
    1.0701   -0.6142    0.9904 H   0  0  0  0  0  0  0  0  0  0  0  0
    0.0048   -1.5625    2.6097 C   0  0  0  0  0  0  0  0  0  0  0  0
    0.0285   -0.6937    3.2681 H   0  0  0  0  0  0  0  0  0  0  0  0
   -0.9375   -2.0944    2.7537 H   0  0  0  0  0  0  0  0  0  0  0  0
    1.1684   -2.4907    2.9759 C   0  0  0  0  0  0  0  0  0  0  0  0
    1.1627   -3.3619    2.3201 H   0  0  0  0  0  0  0  0  0  0  0  0
    2.1113   -1.9562    2.8566 H   0  0  0  0  0  0  0  0  0  0  0  0
    1.0282   -2.9507    4.4257 C   0  0  0  0  0  0  0  0  0  0  0  0
    1.0523   -2.0837    5.0840 H   0  0  0  0  0  0  0  0  0  0  0  0
    0.0791   -3.4693    4.5508 H   0  0  0  0  0  0  0  0  0  0  0  0
    2.1153   -3.8614    4.8027 N   0  0  0  0  0  0  0  0  0  0  0  0
    1.9990   -4.1334    5.7679 H   0  0  0  0  0  0  0  0  0  0  0  0
    2.0780   -4.6827    4.2159 H   0  0  0  0  0  0  0  0  0  0  0  0
   -0.7669    0.4914   -0.6488 C   0  0  0  0  0  0  0  0  0  0  0  0
   -0.9327   -0.1659   -1.6742 O   0  0  0  0  0  0  0  0  0  0  0  0
   -0.3542    1.7641   -0.6646 N   0  0  0  0  0  0  0  0  0  0  0  0
   -0.2565    2.2393    0.2176 H   0  0  0  0  0  0  0  0  0  0  0  0
   -0.0516    2.5089   -1.8859 C   0  0  0  0  0  0  0  0  0  0  0  0
   -0.9131    2.4831   -2.5568 H   0  0  0  0  0  0  0  0  0  0  0  0
    0.1888    3.5461   -1.6483 H   0  0  0  0  0  0  0  0  0  0  0  0
    0.7974    2.0488   -2.3955 H   0  0  0  0  0  0  0  0  0  0  0  0
  5  6  2  0  0  0  0
  5  7  1  0  0  0  0
  2  3  1  0  0  0  0
  2  4  1  0  0  0  0
  2  5  1  0  0  0  0
  1  2  1  0  0  0  0
 26 27  2  0  0  0  0
 26 28  1  0  0  0  0
 23 24  1  0  0  0  0
 23 25  1  0  0  0  0
 20 21  1  0  0  0  0
 20 22  1  0  0  0  0
 20 23  1  0  0  0  0
 17 18  1  0  0  0  0
 17 19  1  0  0  0  0
 17 20  1  0  0  0  0
 14 15  1  0  0  0  0
 14 16  1  0  0  0  0
 14 17  1  0  0  0  0
 11 12  1  0  0  0  0
 11 13  1  0  0  0  0
 11 14  1  0  0  0  0
  9 10  1  0  0  0  0
  9 11  1  0  0  0  0
  9 26  1  0  0  0  0
  7  8  1  0  0  0  0
  7  9  1  0  0  0  0
 30 31  1  0  0  0  0
 30 32  1  0  0  0  0
 30 33  1  0  0  0  0
 28 29  1  0  0  0  0
 28 30  1  0  0  0  0
M  END
$$$$
default_name
  -OEChem-01062215323D

 33 32  0     1  0  0  0  0  0999 V2000
   -3.8420   -3.6918    1.5562 H   0  0  0  0  0  0  0  0  0  0  0  0
   -3.8430   -2.7008    1.1032 C   0  0  0  0  0  0  0  0  0  0  0  0
   -4.5510   -2.0608    1.6242 H   0  0  0  0  0  0  0  0  0  0  0  0
   -4.1140   -2.7798    0.0522 H   0  0  0  0  0  0  0  0  0  0  0  0
   -2.4570   -2.1098    1.2172 C   0  0  0  0  0  0  0  0  0  0  0  0
   -1.5600   -2.7438    1.7572 O   0  0  0  0  0  0  0  0  0  0  0  0
   -2.2870   -0.8898    0.7102 N   0  0  0  0  0  0  0  0  0  0  0  0
   -3.0820   -0.4218    0.2992 H   0  0  0  0  0  0  0  0  0  0  0  0
   -1.0240   -0.1468    0.7262 C   0  0  1  0  0  0  0  0  0  0  0  0
   -1.1000    0.6506    1.4668 H   0  0  0  0  0  0  0  0  0  0  0  0
    0.1080   -1.1042    1.1467 C   0  0  0  0  0  0  0  0  0  0  0  0
    0.0687   -1.9894    0.5087 H   0  0  0  0  0  0  0  0  0  0  0  0
    1.0701   -0.6142    0.9904 H   0  0  0  0  0  0  0  0  0  0  0  0
    0.0048   -1.5625    2.6097 C   0  0  0  0  0  0  0  0  0  0  0  0
    0.0285   -0.6937    3.2681 H   0  0  0  0  0  0  0  0  0  0  0  0
   -0.9375   -2.0944    2.7537 H   0  0  0  0  0  0  0  0  0  0  0  0
    1.1684   -2.4907    2.9759 C   0  0  0  0  0  0  0  0  0  0  0  0
    1.1627   -3.3619    2.3201 H   0  0  0  0  0  0  0  0  0  0  0  0
    2.1113   -1.9562    2.8566 H   0  0  0  0  0  0  0  0  0  0  0  0
    1.0282   -2.9507    4.4257 C   0  0  0  0  0  0  0  0  0  0  0  0
    1.0523   -2.0837    5.0840 H   0  0  0  0  0  0  0  0  0  0  0  0
    0.0791   -3.4693    4.5508 H   0  0  0  0  0  0  0  0  0  0  0  0
    2.1153   -3.8614    4.8027 N   0  0  0  0  0  0  0  0  0  0  0  0
    1.9990   -4.1334    5.7679 H   0  0  0  0  0  0  0  0  0  0  0  0
    2.0780   -4.6827    4.2159 H   0  0  0  0  0  0  0  0  0  0  0  0
   -0.7669    0.4914   -0.6488 C   0  0  0  0  0  0  0  0  0  0  0  0
   -1.1858   -0.0520   -1.6687 O   0  0  0  0  0  0  0  0  0  0  0  0
   -0.0719    1.6346   -0.6719 N   0  0  0  0  0  0  0  0  0  0  0  0
    0.2240    2.0246    0.2078 H   0  0  0  0  0  0  0  0  0  0  0  0
    0.2698    2.3573   -1.8961 C   0  0  0  0  0  0  0  0  0  0  0  0
   -0.6378    2.5672   -2.4663 H   0  0  0  0  0  0  0  0  0  0  0  0
    0.7691    3.2969   -1.6554 H   0  0  0  0  0  0  0  0  0  0  0  0
    0.9310    1.7441   -2.5119 H   0  0  0  0  0  0  0  0  0  0  0  0
  5  6  2  0  0  0  0
  5  7  1  0  0  0  0
  2  3  1  0  0  0  0
  2  4  1  0  0  0  0
  2  5  1  0  0  0  0
  1  2  1  0  0  0  0
 26 27  2  0  0  0  0
 26 28  1  0  0  0  0
 23 24  1  0  0  0  0
 23 25  1  0  0  0  0
 20 21  1  0  0  0  0
 20 22  1  0  0  0  0
 20 23  1  0  0  0  0
 17 18  1  0  0  0  0
 17 19  1  0  0  0  0
 17 20  1  0  0  0  0
 14 15  1  0  0  0  0
 14 16  1  0  0  0  0
 14 17  1  0  0  0  0
 11 12  1  0  0  0  0
 11 13  1  0  0  0  0
 11 14  1  0  0  0  0
  9 10  1  0  0  0  0
  9 11  1  0  0  0  0
  9 26  1  0  0  0  0
  7  8  1  0  0  0  0
  7  9  1  0  0  0  0
 30 31  1  0  0  0  0
 30 32  1  0  0  0  0
 30 33  1  0  0  0  0
 28 29  1  0  0  0  0
 28 30  1  0  0  0  0
M  END
$$$$
default_name
  -OEChem-01062215323D

 33 32  0     1  0  0  0  0  0999 V2000
   -3.8420   -3.6918    1.5562 H   0  0  0  0  0  0  0  0  0  0  0  0
   -3.8430   -2.7008    1.1032 C   0  0  0  0  0  0  0  0  0  0  0  0
   -4.5510   -2.0608    1.6242 H   0  0  0  0  0  0  0  0  0  0  0  0
   -4.1140   -2.7798    0.0522 H   0  0  0  0  0  0  0  0  0  0  0  0
   -2.4570   -2.1098    1.2172 C   0  0  0  0  0  0  0  0  0  0  0  0
   -1.5600   -2.7438    1.7572 O   0  0  0  0  0  0  0  0  0  0  0  0
   -2.2870   -0.8898    0.7102 N   0  0  0  0  0  0  0  0  0  0  0  0
   -3.0820   -0.4218    0.2992 H   0  0  0  0  0  0  0  0  0  0  0  0
   -1.0240   -0.1468    0.7262 C   0  0  1  0  0  0  0  0  0  0  0  0
   -1.1000    0.6506    1.4668 H   0  0  0  0  0  0  0  0  0  0  0  0
    0.1080   -1.1042    1.1467 C   0  0  0  0  0  0  0  0  0  0  0  0
    0.0687   -1.9894    0.5087 H   0  0  0  0  0  0  0  0  0  0  0  0
    1.0701   -0.6142    0.9904 H   0  0  0  0  0  0  0  0  0  0  0  0
    0.0048   -1.5625    2.6097 C   0  0  0  0  0  0  0  0  0  0  0  0
    0.0285   -0.6937    3.2681 H   0  0  0  0  0  0  0  0  0  0  0  0
   -0.9375   -2.0944    2.7537 H   0  0  0  0  0  0  0  0  0  0  0  0
    1.1684   -2.4907    2.9759 C   0  0  0  0  0  0  0  0  0  0  0  0
    1.1627   -3.3619    2.3201 H   0  0  0  0  0  0  0  0  0  0  0  0
    2.1113   -1.9562    2.8566 H   0  0  0  0  0  0  0  0  0  0  0  0
    1.0282   -2.9507    4.4257 C   0  0  0  0  0  0  0  0  0  0  0  0
    1.0523   -2.0837    5.0840 H   0  0  0  0  0  0  0  0  0  0  0  0
    0.0791   -3.4693    4.5508 H   0  0  0  0  0  0  0  0  0  0  0  0
    2.1153   -3.8614    4.8027 N   0  0  0  0  0  0  0  0  0  0  0  0
    1.9990   -4.1334    5.7679 H   0  0  0  0  0  0  0  0  0  0  0  0
    2.0780   -4.6827    4.2159 H   0  0  0  0  0  0  0  0  0  0  0  0
   -0.7669    0.4914   -0.6488 C   0  0  0  0  0  0  0  0  0  0  0  0
   -1.4033    0.1163   -1.6312 O   0  0  0  0  0  0  0  0  0  0  0  0
    0.1700    1.4444   -0.7149 N   0  0  0  0  0  0  0  0  0  0  0  0
    0.6373    1.7065    0.1375 H   0  0  0  0  0  0  0  0  0  0  0  0
    0.5441    2.1369   -1.9471 C   0  0  0  0  0  0  0  0  0  0  0  0
   -0.3427    2.5807   -2.4048 H   0  0  0  0  0  0  0  0  0  0  0  0
    1.2713    2.9222   -1.7355 H   0  0  0  0  0  0  0  0  0  0  0  0
    0.9771    1.4240   -2.6519 H   0  0  0  0  0  0  0  0  0  0  0  0
  5  6  2  0  0  0  0
  5  7  1  0  0  0  0
  2  3  1  0  0  0  0
  2  4  1  0  0  0  0
  2  5  1  0  0  0  0
  1  2  1  0  0  0  0
 26 27  2  0  0  0  0
 26 28  1  0  0  0  0
 23 24  1  0  0  0  0
 23 25  1  0  0  0  0
 20 21  1  0  0  0  0
 20 22  1  0  0  0  0
 20 23  1  0  0  0  0
 17 18  1  0  0  0  0
 17 19  1  0  0  0  0
 17 20  1  0  0  0  0
 14 15  1  0  0  0  0
 14 16  1  0  0  0  0
 14 17  1  0  0  0  0
 11 12  1  0  0  0  0
 11 13  1  0  0  0  0
 11 14  1  0  0  0  0
  9 10  1  0  0  0  0
  9 11  1  0  0  0  0
  9 26  1  0  0  0  0
  7  8  1  0  0  0  0
  7  9  1  0  0  0  0
 30 31  1  0  0  0  0
 30 32  1  0  0  0  0
 30 33  1  0  0  0  0
 28 29  1  0  0  0  0
 28 30  1  0  0  0  0
M  END
$$$$
default_name
  -OEChem-01062215323D

 33 32  0     1  0  0  0  0  0999 V2000
   -3.8420   -3.6918    1.5562 H   0  0  0  0  0  0  0  0  0  0  0  0
   -3.8430   -2.7008    1.1032 C   0  0  0  0  0  0  0  0  0  0  0  0
   -4.5510   -2.0608    1.6242 H   0  0  0  0  0  0  0  0  0  0  0  0
   -4.1140   -2.7798    0.0522 H   0  0  0  0  0  0  0  0  0  0  0  0
   -2.4570   -2.1098    1.2172 C   0  0  0  0  0  0  0  0  0  0  0  0
   -1.5600   -2.7438    1.7572 O   0  0  0  0  0  0  0  0  0  0  0  0
   -2.2870   -0.8898    0.7102 N   0  0  0  0  0  0  0  0  0  0  0  0
   -3.0820   -0.4218    0.2992 H   0  0  0  0  0  0  0  0  0  0  0  0
   -1.0240   -0.1468    0.7262 C   0  0  1  0  0  0  0  0  0  0  0  0
   -0.9923    0.4640    1.6295 H   0  0  0  0  0  0  0  0  0  0  0  0
    0.1418   -1.1536    0.7704 C   0  0  0  0  0  0  0  0  0  0  0  0
    0.0083   -1.8750   -0.0384 H   0  0  0  0  0  0  0  0  0  0  0  0
    1.0808   -0.6242    0.6029 H   0  0  0  0  0  0  0  0  0  0  0  0
    0.2265   -1.9283    2.0948 C   0  0  0  0  0  0  0  0  0  0  0  0
    0.3471   -1.2277    2.9216 H   0  0  0  0  0  0  0  0  0  0  0  0
   -0.6951   -2.4954    2.2385 H   0  0  0  0  0  0  0  0  0  0  0  0
    1.4169   -2.8940    2.0890 C   0  0  0  0  0  0  0  0  0  0  0  0
    1.3144   -3.5970    1.2617 H   0  0  0  0  0  0  0  0  0  0  0  0
    2.3422   -2.3297    1.9696 H   0  0  0  0  0  0  0  0  0  0  0  0
    1.4630   -3.6679    3.4050 C   0  0  0  0  0  0  0  0  0  0  0  0
    1.5840   -2.9692    4.2313 H   0  0  0  0  0  0  0  0  0  0  0  0
    0.5324   -4.2180    3.5344 H   0  0  0  0  0  0  0  0  0  0  0  0
    2.5792   -4.6204    3.4236 N   0  0  0  0  0  0  0  0  0  0  0  0
    2.5876   -5.1026    4.3103 H   0  0  0  0  0  0  0  0  0  0  0  0
    2.4551   -5.2907    2.6782 H   0  0  0  0  0  0  0  0  0  0  0  0
   -0.9424    0.7863   -0.4931 C   0  0  0  0  0  0  0  0  0  0  0  0
   -1.8613    0.8165   -1.3089 O   0  0  0  0  0  0  0  0  0  0  0  0
    0.1597    1.5349   -0.6174 N   0  0  0  0  0  0  0  0  0  0  0  0
    0.8615    1.4641    0.1010 H   0  0  0  0  0  0  0  0  0  0  0  0
    0.3980    2.4589   -1.7252 C   0  0  0  0  0  0  0  0  0  0  0  0
   -0.4324    3.1640   -1.8027 H   0  0  0  0  0  0  0  0  0  0  0  0
    1.3255    3.0109   -1.5663 H   0  0  0  0  0  0  0  0  0  0  0  0
    0.4658    1.9002   -2.6610 H   0  0  0  0  0  0  0  0  0  0  0  0
  5  6  2  0  0  0  0
  5  7  1  0  0  0  0
  2  3  1  0  0  0  0
  2  4  1  0  0  0  0
  2  5  1  0  0  0  0
  1  2  1  0  0  0  0
 26 27  2  0  0  0  0
 26 28  1  0  0  0  0
 23 24  1  0  0  0  0
 23 25  1  0  0  0  0
 20 21  1  0  0  0  0
 20 22  1  0  0  0  0
 20 23  1  0  0  0  0
 17 18  1  0  0  0  0
 17 19  1  0  0  0  0
 17 20  1  0  0  0  0
 14 15  1  0  0  0  0
 14 16  1  0  0  0  0
 14 17  1  0  0  0  0
 11 12  1  0  0  0  0
 11 13  1  0  0  0  0
 11 14  1  0  0  0  0
  9 10  1  0  0  0  0
  9 11  1  0  0  0  0
  9 26  1  0  0  0  0
  7  8  1  0  0  0  0
  7  9  1  0  0  0  0
 30 31  1  0  0  0  0
 30 32  1  0  0  0  0
 30 33  1  0  0  0  0
 28 29  1  0  0  0  0
 28 30  1  0  0  0  0
M  END
$$$$
default_name
  -OEChem-01062215323D

 33 32  0     1  0  0  0  0  0999 V2000
   -3.8420   -3.6918    1.5562 H   0  0  0  0  0  0  0  0  0  0  0  0
   -3.8430   -2.7008    1.1032 C   0  0  0  0  0  0  0  0  0  0  0  0
   -4.5510   -2.0608    1.6242 H   0  0  0  0  0  0  0  0  0  0  0  0
   -4.1140   -2.7798    0.0522 H   0  0  0  0  0  0  0  0  0  0  0  0
   -2.4570   -2.1098    1.2172 C   0  0  0  0  0  0  0  0  0  0  0  0
   -1.5600   -2.7438    1.7572 O   0  0  0  0  0  0  0  0  0  0  0  0
   -2.2870   -0.8898    0.7102 N   0  0  0  0  0  0  0  0  0  0  0  0
   -3.0820   -0.4218    0.2992 H   0  0  0  0  0  0  0  0  0  0  0  0
   -1.0240   -0.1468    0.7262 C   0  0  1  0  0  0  0  0  0  0  0  0
   -0.9923    0.4640    1.6295 H   0  0  0  0  0  0  0  0  0  0  0  0
    0.1418   -1.1536    0.7704 C   0  0  0  0  0  0  0  0  0  0  0  0
    0.0083   -1.8750   -0.0384 H   0  0  0  0  0  0  0  0  0  0  0  0
    1.0808   -0.6242    0.6029 H   0  0  0  0  0  0  0  0  0  0  0  0
    0.2265   -1.9283    2.0948 C   0  0  0  0  0  0  0  0  0  0  0  0
    0.3471   -1.2277    2.9216 H   0  0  0  0  0  0  0  0  0  0  0  0
   -0.6951   -2.4954    2.2385 H   0  0  0  0  0  0  0  0  0  0  0  0
    1.4169   -2.8940    2.0890 C   0  0  0  0  0  0  0  0  0  0  0  0
    1.3144   -3.5970    1.2617 H   0  0  0  0  0  0  0  0  0  0  0  0
    2.3422   -2.3297    1.9696 H   0  0  0  0  0  0  0  0  0  0  0  0
    1.4630   -3.6679    3.4050 C   0  0  0  0  0  0  0  0  0  0  0  0
    1.5840   -2.9692    4.2313 H   0  0  0  0  0  0  0  0  0  0  0  0
    0.5324   -4.2180    3.5344 H   0  0  0  0  0  0  0  0  0  0  0  0
    2.5792   -4.6204    3.4236 N   0  0  0  0  0  0  0  0  0  0  0  0
    2.5876   -5.1026    4.3103 H   0  0  0  0  0  0  0  0  0  0  0  0
    2.4551   -5.2907    2.6782 H   0  0  0  0  0  0  0  0  0  0  0  0
   -0.9424    0.7863   -0.4931 C   0  0  0  0  0  0  0  0  0  0  0  0
   -1.9508    1.0280   -1.1530 O   0  0  0  0  0  0  0  0  0  0  0  0
    0.2574    1.2975   -0.7925 N   0  0  0  0  0  0  0  0  0  0  0  0
    1.0326    1.0634   -0.1942 H   0  0  0  0  0  0  0  0  0  0  0  0
    0.5059    2.1863   -1.9265 C   0  0  0  0  0  0  0  0  0  0  0  0
   -0.1629    3.0482   -1.8732 H   0  0  0  0  0  0  0  0  0  0  0  0
    1.5405    2.5323   -1.9181 H   0  0  0  0  0  0  0  0  0  0  0  0
    0.3104    1.6541   -2.8598 H   0  0  0  0  0  0  0  0  0  0  0  0
  5  6  2  0  0  0  0
  5  7  1  0  0  0  0
  2  3  1  0  0  0  0
  2  4  1  0  0  0  0
  2  5  1  0  0  0  0
  1  2  1  0  0  0  0
 26 27  2  0  0  0  0
 26 28  1  0  0  0  0
 23 24  1  0  0  0  0
 23 25  1  0  0  0  0
 20 21  1  0  0  0  0
 20 22  1  0  0  0  0
 20 23  1  0  0  0  0
 17 18  1  0  0  0  0
 17 19  1  0  0  0  0
 17 20  1  0  0  0  0
 14 15  1  0  0  0  0
 14 16  1  0  0  0  0
 14 17  1  0  0  0  0
 11 12  1  0  0  0  0
 11 13  1  0  0  0  0
 11 14  1  0  0  0  0
  9 10  1  0  0  0  0
  9 11  1  0  0  0  0
  9 26  1  0  0  0  0
  7  8  1  0  0  0  0
  7  9  1  0  0  0  0
 30 31  1  0  0  0  0
 30 32  1  0  0  0  0
 30 33  1  0  0  0  0
 28 29  1  0  0  0  0
 28 30  1  0  0  0  0
M  END
$$$$
default_name
  -OEChem-01062215323D

 33 32  0     1  0  0  0  0  0999 V2000
   -3.8420   -3.6918    1.5562 H   0  0  0  0  0  0  0  0  0  0  0  0
   -3.8430   -2.7008    1.1032 C   0  0  0  0  0  0  0  0  0  0  0  0
   -4.5510   -2.0608    1.6242 H   0  0  0  0  0  0  0  0  0  0  0  0
   -4.1140   -2.7798    0.0522 H   0  0  0  0  0  0  0  0  0  0  0  0
   -2.4570   -2.1098    1.2172 C   0  0  0  0  0  0  0  0  0  0  0  0
   -1.5600   -2.7438    1.7572 O   0  0  0  0  0  0  0  0  0  0  0  0
   -2.2870   -0.8898    0.7102 N   0  0  0  0  0  0  0  0  0  0  0  0
   -3.0820   -0.4218    0.2992 H   0  0  0  0  0  0  0  0  0  0  0  0
   -1.0240   -0.1468    0.7262 C   0  0  1  0  0  0  0  0  0  0  0  0
   -0.9923    0.4640    1.6295 H   0  0  0  0  0  0  0  0  0  0  0  0
    0.1418   -1.1536    0.7704 C   0  0  0  0  0  0  0  0  0  0  0  0
    0.0083   -1.8750   -0.0384 H   0  0  0  0  0  0  0  0  0  0  0  0
    1.0808   -0.6242    0.6029 H   0  0  0  0  0  0  0  0  0  0  0  0
    0.2265   -1.9283    2.0948 C   0  0  0  0  0  0  0  0  0  0  0  0
    0.3471   -1.2277    2.9216 H   0  0  0  0  0  0  0  0  0  0  0  0
   -0.6951   -2.4954    2.2385 H   0  0  0  0  0  0  0  0  0  0  0  0
    1.4169   -2.8940    2.0890 C   0  0  0  0  0  0  0  0  0  0  0  0
    1.3144   -3.5970    1.2617 H   0  0  0  0  0  0  0  0  0  0  0  0
    2.3422   -2.3297    1.9696 H   0  0  0  0  0  0  0  0  0  0  0  0
    1.4630   -3.6679    3.4050 C   0  0  0  0  0  0  0  0  0  0  0  0
    1.5840   -2.9692    4.2313 H   0  0  0  0  0  0  0  0  0  0  0  0
    0.5324   -4.2180    3.5344 H   0  0  0  0  0  0  0  0  0  0  0  0
    2.5792   -4.6204    3.4236 N   0  0  0  0  0  0  0  0  0  0  0  0
    2.5876   -5.1026    4.3103 H   0  0  0  0  0  0  0  0  0  0  0  0
    2.4551   -5.2907    2.6782 H   0  0  0  0  0  0  0  0  0  0  0  0
   -0.9424    0.7863   -0.4931 C   0  0  0  0  0  0  0  0  0  0  0  0
   -1.9694    1.2486   -0.9855 O   0  0  0  0  0  0  0  0  0  0  0  0
    0.2756    1.0506   -0.9802 N   0  0  0  0  0  0  0  0  0  0  0  0
    1.0692    0.6452   -0.5117 H   0  0  0  0  0  0  0  0  0  0  0  0
    0.5225    1.9037   -2.1416 C   0  0  0  0  0  0  0  0  0  0  0  0
    0.0626    2.8820   -1.9853 H   0  0  0  0  0  0  0  0  0  0  0  0
    1.5947    2.0308   -2.2982 H   0  0  0  0  0  0  0  0  0  0  0  0
    0.0786    1.4510   -3.0307 H   0  0  0  0  0  0  0  0  0  0  0  0
  5  6  2  0  0  0  0
  5  7  1  0  0  0  0
  2  3  1  0  0  0  0
  2  4  1  0  0  0  0
  2  5  1  0  0  0  0
  1  2  1  0  0  0  0
 26 27  2  0  0  0  0
 26 28  1  0  0  0  0
 23 24  1  0  0  0  0
 23 25  1  0  0  0  0
 20 21  1  0  0  0  0
 20 22  1  0  0  0  0
 20 23  1  0  0  0  0
 17 18  1  0  0  0  0
 17 19  1  0  0  0  0
 17 20  1  0  0  0  0
 14 15  1  0  0  0  0
 14 16  1  0  0  0  0
 14 17  1  0  0  0  0
 11 12  1  0  0  0  0
 11 13  1  0  0  0  0
 11 14  1  0  0  0  0
  9 10  1  0  0  0  0
  9 11  1  0  0  0  0
  9 26  1  0  0  0  0
  7  8  1  0  0  0  0
  7  9  1  0  0  0  0
 30 31  1  0  0  0  0
 30 32  1  0  0  0  0
 30 33  1  0  0  0  0
 28 29  1  0  0  0  0
 28 30  1  0  0  0  0
M  END
$$$$
default_name
  -OEChem-01062215323D

 33 32  0     1  0  0  0  0  0999 V2000
   -3.8420   -3.6918    1.5562 H   0  0  0  0  0  0  0  0  0  0  0  0
   -3.8430   -2.7008    1.1032 C   0  0  0  0  0  0  0  0  0  0  0  0
   -4.5510   -2.0608    1.6242 H   0  0  0  0  0  0  0  0  0  0  0  0
   -4.1140   -2.7798    0.0522 H   0  0  0  0  0  0  0  0  0  0  0  0
   -2.4570   -2.1098    1.2172 C   0  0  0  0  0  0  0  0  0  0  0  0
   -1.5600   -2.7438    1.7572 O   0  0  0  0  0  0  0  0  0  0  0  0
   -2.2870   -0.8898    0.7102 N   0  0  0  0  0  0  0  0  0  0  0  0
   -3.0820   -0.4218    0.2992 H   0  0  0  0  0  0  0  0  0  0  0  0
   -1.0240   -0.1468    0.7262 C   0  0  1  0  0  0  0  0  0  0  0  0
   -0.9923    0.4640    1.6295 H   0  0  0  0  0  0  0  0  0  0  0  0
    0.1418   -1.1536    0.7704 C   0  0  0  0  0  0  0  0  0  0  0  0
    0.0083   -1.8750   -0.0384 H   0  0  0  0  0  0  0  0  0  0  0  0
    1.0808   -0.6242    0.6029 H   0  0  0  0  0  0  0  0  0  0  0  0
    0.2265   -1.9283    2.0948 C   0  0  0  0  0  0  0  0  0  0  0  0
    0.3471   -1.2277    2.9216 H   0  0  0  0  0  0  0  0  0  0  0  0
   -0.6951   -2.4954    2.2385 H   0  0  0  0  0  0  0  0  0  0  0  0
    1.4169   -2.8940    2.0890 C   0  0  0  0  0  0  0  0  0  0  0  0
    1.3144   -3.5970    1.2617 H   0  0  0  0  0  0  0  0  0  0  0  0
    2.3422   -2.3297    1.9696 H   0  0  0  0  0  0  0  0  0  0  0  0
    1.4630   -3.6679    3.4050 C   0  0  0  0  0  0  0  0  0  0  0  0
    1.5840   -2.9692    4.2313 H   0  0  0  0  0  0  0  0  0  0  0  0
    0.5324   -4.2180    3.5344 H   0  0  0  0  0  0  0  0  0  0  0  0
    2.5792   -4.6204    3.4236 N   0  0  0  0  0  0  0  0  0  0  0  0
    2.5876   -5.1026    4.3103 H   0  0  0  0  0  0  0  0  0  0  0  0
    2.4551   -5.2907    2.6782 H   0  0  0  0  0  0  0  0  0  0  0  0
   -0.9424    0.7863   -0.4931 C   0  0  0  0  0  0  0  0  0  0  0  0
   -1.9157    1.4631   -0.8177 O   0  0  0  0  0  0  0  0  0  0  0  0
    0.2129    0.8109   -1.1678 N   0  0  0  0  0  0  0  0  0  0  0  0
    0.9688    0.2381   -0.8300 H   0  0  0  0  0  0  0  0  0  0  0  0
    0.4468    1.6303   -2.3559 C   0  0  0  0  0  0  0  0  0  0  0  0
    0.2287    2.6767   -2.1313 H   0  0  0  0  0  0  0  0  0  0  0  0
    1.4844    1.5405   -2.6808 H   0  0  0  0  0  0  0  0  0  0  0  0
   -0.2138    1.3048   -3.1622 H   0  0  0  0  0  0  0  0  0  0  0  0
  5  6  2  0  0  0  0
  5  7  1  0  0  0  0
  2  3  1  0  0  0  0
  2  4  1  0  0  0  0
  2  5  1  0  0  0  0
  1  2  1  0  0  0  0
 26 27  2  0  0  0  0
 26 28  1  0  0  0  0
 23 24  1  0  0  0  0
 23 25  1  0  0  0  0
 20 21  1  0  0  0  0
 20 22  1  0  0  0  0
 20 23  1  0  0  0  0
 17 18  1  0  0  0  0
 17 19  1  0  0  0  0
 17 20  1  0  0  0  0
 14 15  1  0  0  0  0
 14 16  1  0  0  0  0
 14 17  1  0  0  0  0
 11 12  1  0  0  0  0
 11 13  1  0  0  0  0
 11 14  1  0  0  0  0
  9 10  1  0  0  0  0
  9 11  1  0  0  0  0
  9 26  1  0  0  0  0
  7  8  1  0  0  0  0
  7  9  1  0  0  0  0
 30 31  1  0  0  0  0
 30 32  1  0  0  0  0
 30 33  1  0  0  0  0
 28 29  1  0  0  0  0
 28 30  1  0  0  0  0
M  END
$$$$
default_name
  -OEChem-01062215323D

 33 32  0     1  0  0  0  0  0999 V2000
   -3.8420   -3.6918    1.5562 H   0  0  0  0  0  0  0  0  0  0  0  0
   -3.8430   -2.7008    1.1032 C   0  0  0  0  0  0  0  0  0  0  0  0
   -4.5510   -2.0608    1.6242 H   0  0  0  0  0  0  0  0  0  0  0  0
   -4.1140   -2.7798    0.0522 H   0  0  0  0  0  0  0  0  0  0  0  0
   -2.4570   -2.1098    1.2172 C   0  0  0  0  0  0  0  0  0  0  0  0
   -1.5600   -2.7438    1.7572 O   0  0  0  0  0  0  0  0  0  0  0  0
   -2.2870   -0.8898    0.7102 N   0  0  0  0  0  0  0  0  0  0  0  0
   -3.0820   -0.4218    0.2992 H   0  0  0  0  0  0  0  0  0  0  0  0
   -1.0240   -0.1468    0.7262 C   0  0  1  0  0  0  0  0  0  0  0  0
   -0.9923    0.4640    1.6295 H   0  0  0  0  0  0  0  0  0  0  0  0
    0.1418   -1.1536    0.7704 C   0  0  0  0  0  0  0  0  0  0  0  0
    0.0083   -1.8750   -0.0384 H   0  0  0  0  0  0  0  0  0  0  0  0
    1.0808   -0.6242    0.6029 H   0  0  0  0  0  0  0  0  0  0  0  0
    0.2265   -1.9283    2.0948 C   0  0  0  0  0  0  0  0  0  0  0  0
    0.3471   -1.2277    2.9216 H   0  0  0  0  0  0  0  0  0  0  0  0
   -0.6951   -2.4954    2.2385 H   0  0  0  0  0  0  0  0  0  0  0  0
    1.4169   -2.8940    2.0890 C   0  0  0  0  0  0  0  0  0  0  0  0
    1.3144   -3.5970    1.2617 H   0  0  0  0  0  0  0  0  0  0  0  0
    2.3422   -2.3297    1.9696 H   0  0  0  0  0  0  0  0  0  0  0  0
    1.4630   -3.6679    3.4050 C   0  0  0  0  0  0  0  0  0  0  0  0
    1.5840   -2.9692    4.2313 H   0  0  0  0  0  0  0  0  0  0  0  0
    0.5324   -4.2180    3.5344 H   0  0  0  0  0  0  0  0  0  0  0  0
    2.5792   -4.6204    3.4236 N   0  0  0  0  0  0  0  0  0  0  0  0
    2.5876   -5.1026    4.3103 H   0  0  0  0  0  0  0  0  0  0  0  0
    2.4551   -5.2907    2.6782 H   0  0  0  0  0  0  0  0  0  0  0  0
   -0.9424    0.7863   -0.4931 C   0  0  0  0  0  0  0  0  0  0  0  0
   -1.7935    1.6571   -0.6611 O   0  0  0  0  0  0  0  0  0  0  0  0
    0.0737    0.5948   -1.3424 N   0  0  0  0  0  0  0  0  0  0  0  0
    0.7384   -0.1301   -1.1271 H   0  0  0  0  0  0  0  0  0  0  0  0
    0.2839    1.3847   -2.5548 C   0  0  0  0  0  0  0  0  0  0  0  0
    0.3241    2.4463   -2.3012 H   0  0  0  0  0  0  0  0  0  0  0  0
    1.2171    1.0947   -3.0398 H   0  0  0  0  0  0  0  0  0  0  0  0
   -0.5469    1.2253   -3.2453 H   0  0  0  0  0  0  0  0  0  0  0  0
  5  6  2  0  0  0  0
  5  7  1  0  0  0  0
  2  3  1  0  0  0  0
  2  4  1  0  0  0  0
  2  5  1  0  0  0  0
  1  2  1  0  0  0  0
 26 27  2  0  0  0  0
 26 28  1  0  0  0  0
 23 24  1  0  0  0  0
 23 25  1  0  0  0  0
 20 21  1  0  0  0  0
 20 22  1  0  0  0  0
 20 23  1  0  0  0  0
 17 18  1  0  0  0  0
 17 19  1  0  0  0  0
 17 20  1  0  0  0  0
 14 15  1  0  0  0  0
 14 16  1  0  0  0  0
 14 17  1  0  0  0  0
 11 12  1  0  0  0  0
 11 13  1  0  0  0  0
 11 14  1  0  0  0  0
  9 10  1  0  0  0  0
  9 11  1  0  0  0  0
  9 26  1  0  0  0  0
  7  8  1  0  0  0  0
  7  9  1  0  0  0  0
 30 31  1  0  0  0  0
 30 32  1  0  0  0  0
 30 33  1  0  0  0  0
 28 29  1  0  0  0  0
 28 30  1  0  0  0  0
M  END
$$$$
default_name
  -OEChem-01062215323D

 33 32  0     1  0  0  0  0  0999 V2000
   -3.8420   -3.6918    1.5562 H   0  0  0  0  0  0  0  0  0  0  0  0
   -3.8430   -2.7008    1.1032 C   0  0  0  0  0  0  0  0  0  0  0  0
   -4.5510   -2.0608    1.6242 H   0  0  0  0  0  0  0  0  0  0  0  0
   -4.1140   -2.7798    0.0522 H   0  0  0  0  0  0  0  0  0  0  0  0
   -2.4570   -2.1098    1.2172 C   0  0  0  0  0  0  0  0  0  0  0  0
   -1.5600   -2.7438    1.7572 O   0  0  0  0  0  0  0  0  0  0  0  0
   -2.2870   -0.8898    0.7102 N   0  0  0  0  0  0  0  0  0  0  0  0
   -3.0820   -0.4218    0.2992 H   0  0  0  0  0  0  0  0  0  0  0  0
   -1.0240   -0.1468    0.7262 C   0  0  1  0  0  0  0  0  0  0  0  0
   -0.9923    0.4640    1.6295 H   0  0  0  0  0  0  0  0  0  0  0  0
    0.1418   -1.1536    0.7704 C   0  0  0  0  0  0  0  0  0  0  0  0
    0.0083   -1.8750   -0.0384 H   0  0  0  0  0  0  0  0  0  0  0  0
    1.0808   -0.6242    0.6029 H   0  0  0  0  0  0  0  0  0  0  0  0
    0.2265   -1.9283    2.0948 C   0  0  0  0  0  0  0  0  0  0  0  0
    0.3471   -1.2277    2.9216 H   0  0  0  0  0  0  0  0  0  0  0  0
   -0.6951   -2.4954    2.2385 H   0  0  0  0  0  0  0  0  0  0  0  0
    1.4169   -2.8940    2.0890 C   0  0  0  0  0  0  0  0  0  0  0  0
    1.3144   -3.5970    1.2617 H   0  0  0  0  0  0  0  0  0  0  0  0
    2.3422   -2.3297    1.9696 H   0  0  0  0  0  0  0  0  0  0  0  0
    1.4630   -3.6679    3.4050 C   0  0  0  0  0  0  0  0  0  0  0  0
    1.5840   -2.9692    4.2313 H   0  0  0  0  0  0  0  0  0  0  0  0
    0.5324   -4.2180    3.5344 H   0  0  0  0  0  0  0  0  0  0  0  0
    2.5792   -4.6204    3.4236 N   0  0  0  0  0  0  0  0  0  0  0  0
    2.5876   -5.1026    4.3103 H   0  0  0  0  0  0  0  0  0  0  0  0
    2.4551   -5.2907    2.6782 H   0  0  0  0  0  0  0  0  0  0  0  0
   -0.9424    0.7863   -0.4931 C   0  0  0  0  0  0  0  0  0  0  0  0
   -1.6110    1.8172   -0.5264 O   0  0  0  0  0  0  0  0  0  0  0  0
   -0.1325    0.4171   -1.4922 N   0  0  0  0  0  0  0  0  0  0  0  0
    0.3935   -0.4344   -1.3831 H   0  0  0  0  0  0  0  0  0  0  0  0
    0.0448    1.1836   -2.7247 C   0  0  0  0  0  0  0  0  0  0  0  0
    0.3422    2.2065   -2.4835 H   0  0  0  0  0  0  0  0  0  0  0  0
    0.8110    0.7240   -3.3507 H   0  0  0  0  0  0  0  0  0  0  0  0
   -0.8981    1.2181   -3.2743 H   0  0  0  0  0  0  0  0  0  0  0  0
  5  6  2  0  0  0  0
  5  7  1  0  0  0  0
  2  3  1  0  0  0  0
  2  4  1  0  0  0  0
  2  5  1  0  0  0  0
  1  2  1  0  0  0  0
 26 27  2  0  0  0  0
 26 28  1  0  0  0  0
 23 24  1  0  0  0  0
 23 25  1  0  0  0  0
 20 21  1  0  0  0  0
 20 22  1  0  0  0  0
 20 23  1  0  0  0  0
 17 18  1  0  0  0  0
 17 19  1  0  0  0  0
 17 20  1  0  0  0  0
 14 15  1  0  0  0  0
 14 16  1  0  0  0  0
 14 17  1  0  0  0  0
 11 12  1  0  0  0  0
 11 13  1  0  0  0  0
 11 14  1  0  0  0  0
  9 10  1  0  0  0  0
  9 11  1  0  0  0  0
  9 26  1  0  0  0  0
  7  8  1  0  0  0  0
  7  9  1  0  0  0  0
 30 31  1  0  0  0  0
 30 32  1  0  0  0  0
 30 33  1  0  0  0  0
 28 29  1  0  0  0  0
 28 30  1  0  0  0  0
M  END
$$$$
default_name
  -OEChem-01062215323D

 33 32  0     1  0  0  0  0  0999 V2000
   -3.8420   -3.6918    1.5562 H   0  0  0  0  0  0  0  0  0  0  0  0
   -3.8430   -2.7008    1.1032 C   0  0  0  0  0  0  0  0  0  0  0  0
   -4.5510   -2.0608    1.6242 H   0  0  0  0  0  0  0  0  0  0  0  0
   -4.1140   -2.7798    0.0522 H   0  0  0  0  0  0  0  0  0  0  0  0
   -2.4570   -2.1098    1.2172 C   0  0  0  0  0  0  0  0  0  0  0  0
   -1.5600   -2.7438    1.7572 O   0  0  0  0  0  0  0  0  0  0  0  0
   -2.2870   -0.8898    0.7102 N   0  0  0  0  0  0  0  0  0  0  0  0
   -3.0820   -0.4218    0.2992 H   0  0  0  0  0  0  0  0  0  0  0  0
   -1.0240   -0.1468    0.7262 C   0  0  1  0  0  0  0  0  0  0  0  0
   -0.9923    0.4640    1.6295 H   0  0  0  0  0  0  0  0  0  0  0  0
    0.1418   -1.1536    0.7704 C   0  0  0  0  0  0  0  0  0  0  0  0
    0.0083   -1.8750   -0.0384 H   0  0  0  0  0  0  0  0  0  0  0  0
    1.0808   -0.6242    0.6029 H   0  0  0  0  0  0  0  0  0  0  0  0
    0.2265   -1.9283    2.0948 C   0  0  0  0  0  0  0  0  0  0  0  0
    0.3471   -1.2277    2.9216 H   0  0  0  0  0  0  0  0  0  0  0  0
   -0.6951   -2.4954    2.2385 H   0  0  0  0  0  0  0  0  0  0  0  0
    1.4169   -2.8940    2.0890 C   0  0  0  0  0  0  0  0  0  0  0  0
    1.3144   -3.5970    1.2617 H   0  0  0  0  0  0  0  0  0  0  0  0
    2.3422   -2.3297    1.9696 H   0  0  0  0  0  0  0  0  0  0  0  0
    1.4630   -3.6679    3.4050 C   0  0  0  0  0  0  0  0  0  0  0  0
    1.5840   -2.9692    4.2313 H   0  0  0  0  0  0  0  0  0  0  0  0
    0.5324   -4.2180    3.5344 H   0  0  0  0  0  0  0  0  0  0  0  0
    2.5792   -4.6204    3.4236 N   0  0  0  0  0  0  0  0  0  0  0  0
    2.5876   -5.1026    4.3103 H   0  0  0  0  0  0  0  0  0  0  0  0
    2.4551   -5.2907    2.6782 H   0  0  0  0  0  0  0  0  0  0  0  0
   -0.9424    0.7863   -0.4931 C   0  0  0  0  0  0  0  0  0  0  0  0
   -1.3807    1.9325   -0.4228 O   0  0  0  0  0  0  0  0  0  0  0  0
   -0.3916    0.2898   -1.6070 N   0  0  0  0  0  0  0  0  0  0  0  0
   -0.0423   -0.6540   -1.5803 H   0  0  0  0  0  0  0  0  0  0  0  0
   -0.2540    1.0408   -2.8540 C   0  0  0  0  0  0  0  0  0  0  0  0
    0.2819    1.9737   -2.6657 H   0  0  0  0  0  0  0  0  0  0  0  0
    0.2939    0.4535   -3.5923 H   0  0  0  0  0  0  0  0  0  0  0  0
   -1.2433    1.2836   -3.2473 H   0  0  0  0  0  0  0  0  0  0  0  0
  5  6  2  0  0  0  0
  5  7  1  0  0  0  0
  2  3  1  0  0  0  0
  2  4  1  0  0  0  0
  2  5  1  0  0  0  0
  1  2  1  0  0  0  0
 26 27  2  0  0  0  0
 26 28  1  0  0  0  0
 23 24  1  0  0  0  0
 23 25  1  0  0  0  0
 20 21  1  0  0  0  0
 20 22  1  0  0  0  0
 20 23  1  0  0  0  0
 17 18  1  0  0  0  0
 17 19  1  0  0  0  0
 17 20  1  0  0  0  0
 14 15  1  0  0  0  0
 14 16  1  0  0  0  0
 14 17  1  0  0  0  0
 11 12  1  0  0  0  0
 11 13  1  0  0  0  0
 11 14  1  0  0  0  0
  9 10  1  0  0  0  0
  9 11  1  0  0  0  0
  9 26  1  0  0  0  0
  7  8  1  0  0  0  0
  7  9  1  0  0  0  0
 30 31  1  0  0  0  0
 30 32  1  0  0  0  0
 30 33  1  0  0  0  0
 28 29  1  0  0  0  0
 28 30  1  0  0  0  0
M  END
$$$$
default_name
  -OEChem-01062215323D

 33 32  0     1  0  0  0  0  0999 V2000
   -3.8420   -3.6918    1.5562 H   0  0  0  0  0  0  0  0  0  0  0  0
   -3.8430   -2.7008    1.1032 C   0  0  0  0  0  0  0  0  0  0  0  0
   -4.5510   -2.0608    1.6242 H   0  0  0  0  0  0  0  0  0  0  0  0
   -4.1140   -2.7798    0.0522 H   0  0  0  0  0  0  0  0  0  0  0  0
   -2.4570   -2.1098    1.2172 C   0  0  0  0  0  0  0  0  0  0  0  0
   -1.5600   -2.7438    1.7572 O   0  0  0  0  0  0  0  0  0  0  0  0
   -2.2870   -0.8898    0.7102 N   0  0  0  0  0  0  0  0  0  0  0  0
   -3.0820   -0.4218    0.2992 H   0  0  0  0  0  0  0  0  0  0  0  0
   -1.0240   -0.1468    0.7262 C   0  0  1  0  0  0  0  0  0  0  0  0
   -0.9923    0.4640    1.6295 H   0  0  0  0  0  0  0  0  0  0  0  0
    0.1418   -1.1536    0.7704 C   0  0  0  0  0  0  0  0  0  0  0  0
    0.0083   -1.8750   -0.0384 H   0  0  0  0  0  0  0  0  0  0  0  0
    1.0808   -0.6242    0.6029 H   0  0  0  0  0  0  0  0  0  0  0  0
    0.2265   -1.9283    2.0948 C   0  0  0  0  0  0  0  0  0  0  0  0
    0.3471   -1.2277    2.9216 H   0  0  0  0  0  0  0  0  0  0  0  0
   -0.6951   -2.4954    2.2385 H   0  0  0  0  0  0  0  0  0  0  0  0
    1.4169   -2.8940    2.0890 C   0  0  0  0  0  0  0  0  0  0  0  0
    1.3144   -3.5970    1.2617 H   0  0  0  0  0  0  0  0  0  0  0  0
    2.3422   -2.3297    1.9696 H   0  0  0  0  0  0  0  0  0  0  0  0
    1.4630   -3.6679    3.4050 C   0  0  0  0  0  0  0  0  0  0  0  0
    1.5840   -2.9692    4.2313 H   0  0  0  0  0  0  0  0  0  0  0  0
    0.5324   -4.2180    3.5344 H   0  0  0  0  0  0  0  0  0  0  0  0
    2.5792   -4.6204    3.4236 N   0  0  0  0  0  0  0  0  0  0  0  0
    2.5876   -5.1026    4.3103 H   0  0  0  0  0  0  0  0  0  0  0  0
    2.4551   -5.2907    2.6782 H   0  0  0  0  0  0  0  0  0  0  0  0
   -0.9424    0.7863   -0.4931 C   0  0  0  0  0  0  0  0  0  0  0  0
   -1.1183    1.9952   -0.3572 O   0  0  0  0  0  0  0  0  0  0  0  0
   -0.6861    0.2217   -1.6789 N   0  0  0  0  0  0  0  0  0  0  0  0
   -0.5393   -0.7740   -1.7054 H   0  0  0  0  0  0  0  0  0  0  0  0
   -0.5923    0.9659   -2.9339 C   0  0  0  0  0  0  0  0  0  0  0  0
    0.1472    1.7636   -2.8354 H   0  0  0  0  0  0  0  0  0  0  0  0
   -0.2991    0.3017   -3.7481 H   0  0  0  0  0  0  0  0  0  0  0  0
   -1.5591    1.4173   -3.1661 H   0  0  0  0  0  0  0  0  0  0  0  0
  5  6  2  0  0  0  0
  5  7  1  0  0  0  0
  2  3  1  0  0  0  0
  2  4  1  0  0  0  0
  2  5  1  0  0  0  0
  1  2  1  0  0  0  0
 26 27  2  0  0  0  0
 26 28  1  0  0  0  0
 23 24  1  0  0  0  0
 23 25  1  0  0  0  0
 20 21  1  0  0  0  0
 20 22  1  0  0  0  0
 20 23  1  0  0  0  0
 17 18  1  0  0  0  0
 17 19  1  0  0  0  0
 17 20  1  0  0  0  0
 14 15  1  0  0  0  0
 14 16  1  0  0  0  0
 14 17  1  0  0  0  0
 11 12  1  0  0  0  0
 11 13  1  0  0  0  0
 11 14  1  0  0  0  0
  9 10  1  0  0  0  0
  9 11  1  0  0  0  0
  9 26  1  0  0  0  0
  7  8  1  0  0  0  0
  7  9  1  0  0  0  0
 30 31  1  0  0  0  0
 30 32  1  0  0  0  0
 30 33  1  0  0  0  0
 28 29  1  0  0  0  0
 28 30  1  0  0  0  0
M  END
$$$$
default_name
  -OEChem-01062215323D

 33 32  0     1  0  0  0  0  0999 V2000
   -3.8420   -3.6918    1.5562 H   0  0  0  0  0  0  0  0  0  0  0  0
   -3.8430   -2.7008    1.1032 C   0  0  0  0  0  0  0  0  0  0  0  0
   -4.5510   -2.0608    1.6242 H   0  0  0  0  0  0  0  0  0  0  0  0
   -4.1140   -2.7798    0.0522 H   0  0  0  0  0  0  0  0  0  0  0  0
   -2.4570   -2.1098    1.2172 C   0  0  0  0  0  0  0  0  0  0  0  0
   -1.5600   -2.7438    1.7572 O   0  0  0  0  0  0  0  0  0  0  0  0
   -2.2870   -0.8898    0.7102 N   0  0  0  0  0  0  0  0  0  0  0  0
   -3.0820   -0.4218    0.2992 H   0  0  0  0  0  0  0  0  0  0  0  0
   -1.0240   -0.1468    0.7262 C   0  0  1  0  0  0  0  0  0  0  0  0
   -0.9923    0.4640    1.6295 H   0  0  0  0  0  0  0  0  0  0  0  0
    0.1418   -1.1536    0.7704 C   0  0  0  0  0  0  0  0  0  0  0  0
    0.0083   -1.8750   -0.0384 H   0  0  0  0  0  0  0  0  0  0  0  0
    1.0808   -0.6242    0.6029 H   0  0  0  0  0  0  0  0  0  0  0  0
    0.2265   -1.9283    2.0948 C   0  0  0  0  0  0  0  0  0  0  0  0
    0.3471   -1.2277    2.9216 H   0  0  0  0  0  0  0  0  0  0  0  0
   -0.6951   -2.4954    2.2385 H   0  0  0  0  0  0  0  0  0  0  0  0
    1.4169   -2.8940    2.0890 C   0  0  0  0  0  0  0  0  0  0  0  0
    1.3144   -3.5970    1.2617 H   0  0  0  0  0  0  0  0  0  0  0  0
    2.3422   -2.3297    1.9696 H   0  0  0  0  0  0  0  0  0  0  0  0
    1.4630   -3.6679    3.4050 C   0  0  0  0  0  0  0  0  0  0  0  0
    1.5840   -2.9692    4.2313 H   0  0  0  0  0  0  0  0  0  0  0  0
    0.5324   -4.2180    3.5344 H   0  0  0  0  0  0  0  0  0  0  0  0
    2.5792   -4.6204    3.4236 N   0  0  0  0  0  0  0  0  0  0  0  0
    2.5876   -5.1026    4.3103 H   0  0  0  0  0  0  0  0  0  0  0  0
    2.4551   -5.2907    2.6782 H   0  0  0  0  0  0  0  0  0  0  0  0
   -0.9424    0.7863   -0.4931 C   0  0  0  0  0  0  0  0  0  0  0  0
   -0.8417    2.0010   -0.3343 O   0  0  0  0  0  0  0  0  0  0  0  0
   -0.9959    0.2172   -1.7030 N   0  0  0  0  0  0  0  0  0  0  0  0
   -1.0636   -0.7862   -1.7498 H   0  0  0  0  0  0  0  0  0  0  0  0
   -0.9469    0.9641   -2.9590 C   0  0  0  0  0  0  0  0  0  0  0  0
   -0.0526    1.5908   -2.9811 H   0  0  0  0  0  0  0  0  0  0  0  0
   -0.9275    0.2789   -3.8077 H   0  0  0  0  0  0  0  0  0  0  0  0
   -1.8239    1.6102   -3.0363 H   0  0  0  0  0  0  0  0  0  0  0  0
  5  6  2  0  0  0  0
  5  7  1  0  0  0  0
  2  3  1  0  0  0  0
  2  4  1  0  0  0  0
  2  5  1  0  0  0  0
  1  2  1  0  0  0  0
 26 27  2  0  0  0  0
 26 28  1  0  0  0  0
 23 24  1  0  0  0  0
 23 25  1  0  0  0  0
 20 21  1  0  0  0  0
 20 22  1  0  0  0  0
 20 23  1  0  0  0  0
 17 18  1  0  0  0  0
 17 19  1  0  0  0  0
 17 20  1  0  0  0  0
 14 15  1  0  0  0  0
 14 16  1  0  0  0  0
 14 17  1  0  0  0  0
 11 12  1  0  0  0  0
 11 13  1  0  0  0  0
 11 14  1  0  0  0  0
  9 10  1  0  0  0  0
  9 11  1  0  0  0  0
  9 26  1  0  0  0  0
  7  8  1  0  0  0  0
  7  9  1  0  0  0  0
 30 31  1  0  0  0  0
 30 32  1  0  0  0  0
 30 33  1  0  0  0  0
 28 29  1  0  0  0  0
 28 30  1  0  0  0  0
M  END
$$$$
default_name
  -OEChem-01062215323D

 33 32  0     1  0  0  0  0  0999 V2000
   -3.8420   -3.6918    1.5562 H   0  0  0  0  0  0  0  0  0  0  0  0
   -3.8430   -2.7008    1.1032 C   0  0  0  0  0  0  0  0  0  0  0  0
   -4.5510   -2.0608    1.6242 H   0  0  0  0  0  0  0  0  0  0  0  0
   -4.1140   -2.7798    0.0522 H   0  0  0  0  0  0  0  0  0  0  0  0
   -2.4570   -2.1098    1.2172 C   0  0  0  0  0  0  0  0  0  0  0  0
   -1.5600   -2.7438    1.7572 O   0  0  0  0  0  0  0  0  0  0  0  0
   -2.2870   -0.8898    0.7102 N   0  0  0  0  0  0  0  0  0  0  0  0
   -3.0820   -0.4218    0.2992 H   0  0  0  0  0  0  0  0  0  0  0  0
   -1.0240   -0.1468    0.7262 C   0  0  1  0  0  0  0  0  0  0  0  0
   -0.9923    0.4640    1.6295 H   0  0  0  0  0  0  0  0  0  0  0  0
    0.1418   -1.1536    0.7704 C   0  0  0  0  0  0  0  0  0  0  0  0
    0.0083   -1.8750   -0.0384 H   0  0  0  0  0  0  0  0  0  0  0  0
    1.0808   -0.6242    0.6029 H   0  0  0  0  0  0  0  0  0  0  0  0
    0.2265   -1.9283    2.0948 C   0  0  0  0  0  0  0  0  0  0  0  0
    0.3471   -1.2277    2.9216 H   0  0  0  0  0  0  0  0  0  0  0  0
   -0.6951   -2.4954    2.2385 H   0  0  0  0  0  0  0  0  0  0  0  0
    1.4169   -2.8940    2.0890 C   0  0  0  0  0  0  0  0  0  0  0  0
    1.3144   -3.5970    1.2617 H   0  0  0  0  0  0  0  0  0  0  0  0
    2.3422   -2.3297    1.9696 H   0  0  0  0  0  0  0  0  0  0  0  0
    1.4630   -3.6679    3.4050 C   0  0  0  0  0  0  0  0  0  0  0  0
    1.5840   -2.9692    4.2313 H   0  0  0  0  0  0  0  0  0  0  0  0
    0.5324   -4.2180    3.5344 H   0  0  0  0  0  0  0  0  0  0  0  0
    2.5792   -4.6204    3.4236 N   0  0  0  0  0  0  0  0  0  0  0  0
    2.5876   -5.1026    4.3103 H   0  0  0  0  0  0  0  0  0  0  0  0
    2.4551   -5.2907    2.6782 H   0  0  0  0  0  0  0  0  0  0  0  0
   -0.9424    0.7863   -0.4931 C   0  0  0  0  0  0  0  0  0  0  0  0
   -0.5698    1.9495   -0.3554 O   0  0  0  0  0  0  0  0  0  0  0  0
   -1.2998    0.2769   -1.6777 N   0  0  0  0  0  0  0  0  0  0  0  0
   -1.5796   -0.6897   -1.7105 H   0  0  0  0  0  0  0  0  0  0  0  0
   -1.2938    1.0356   -2.9276 C   0  0  0  0  0  0  0  0  0  0  0  0
   -0.3040    1.4668   -3.0928 H   0  0  0  0  0  0  0  0  0  0  0  0
   -1.5485    0.3867   -3.7668 H   0  0  0  0  0  0  0  0  0  0  0  0
   -2.0197    1.8491   -2.8666 H   0  0  0  0  0  0  0  0  0  0  0  0
  5  6  2  0  0  0  0
  5  7  1  0  0  0  0
  2  3  1  0  0  0  0
  2  4  1  0  0  0  0
  2  5  1  0  0  0  0
  1  2  1  0  0  0  0
 26 27  2  0  0  0  0
 26 28  1  0  0  0  0
 23 24  1  0  0  0  0
 23 25  1  0  0  0  0
 20 21  1  0  0  0  0
 20 22  1  0  0  0  0
 20 23  1  0  0  0  0
 17 18  1  0  0  0  0
 17 19  1  0  0  0  0
 17 20  1  0  0  0  0
 14 15  1  0  0  0  0
 14 16  1  0  0  0  0
 14 17  1  0  0  0  0
 11 12  1  0  0  0  0
 11 13  1  0  0  0  0
 11 14  1  0  0  0  0
  9 10  1  0  0  0  0
  9 11  1  0  0  0  0
  9 26  1  0  0  0  0
  7  8  1  0  0  0  0
  7  9  1  0  0  0  0
 30 31  1  0  0  0  0
 30 32  1  0  0  0  0
 30 33  1  0  0  0  0
 28 29  1  0  0  0  0
 28 30  1  0  0  0  0
M  END
$$$$
default_name
  -OEChem-01062215323D

 33 32  0     1  0  0  0  0  0999 V2000
   -3.8420   -3.6918    1.5562 H   0  0  0  0  0  0  0  0  0  0  0  0
   -3.8430   -2.7008    1.1032 C   0  0  0  0  0  0  0  0  0  0  0  0
   -4.5510   -2.0608    1.6242 H   0  0  0  0  0  0  0  0  0  0  0  0
   -4.1140   -2.7798    0.0522 H   0  0  0  0  0  0  0  0  0  0  0  0
   -2.4570   -2.1098    1.2172 C   0  0  0  0  0  0  0  0  0  0  0  0
   -1.5600   -2.7438    1.7572 O   0  0  0  0  0  0  0  0  0  0  0  0
   -2.2870   -0.8898    0.7102 N   0  0  0  0  0  0  0  0  0  0  0  0
   -3.0820   -0.4218    0.2992 H   0  0  0  0  0  0  0  0  0  0  0  0
   -1.0240   -0.1468    0.7262 C   0  0  1  0  0  0  0  0  0  0  0  0
   -0.9923    0.4640    1.6295 H   0  0  0  0  0  0  0  0  0  0  0  0
    0.1418   -1.1536    0.7704 C   0  0  0  0  0  0  0  0  0  0  0  0
    0.0083   -1.8750   -0.0384 H   0  0  0  0  0  0  0  0  0  0  0  0
    1.0808   -0.6242    0.6029 H   0  0  0  0  0  0  0  0  0  0  0  0
    0.2265   -1.9283    2.0948 C   0  0  0  0  0  0  0  0  0  0  0  0
    0.3471   -1.2277    2.9216 H   0  0  0  0  0  0  0  0  0  0  0  0
   -0.6951   -2.4954    2.2385 H   0  0  0  0  0  0  0  0  0  0  0  0
    1.4169   -2.8940    2.0890 C   0  0  0  0  0  0  0  0  0  0  0  0
    1.3144   -3.5970    1.2617 H   0  0  0  0  0  0  0  0  0  0  0  0
    2.3422   -2.3297    1.9696 H   0  0  0  0  0  0  0  0  0  0  0  0
    1.4630   -3.6679    3.4050 C   0  0  0  0  0  0  0  0  0  0  0  0
    1.5840   -2.9692    4.2313 H   0  0  0  0  0  0  0  0  0  0  0  0
    0.5324   -4.2180    3.5344 H   0  0  0  0  0  0  0  0  0  0  0  0
    2.5792   -4.6204    3.4236 N   0  0  0  0  0  0  0  0  0  0  0  0
    2.5876   -5.1026    4.3103 H   0  0  0  0  0  0  0  0  0  0  0  0
    2.4551   -5.2907    2.6782 H   0  0  0  0  0  0  0  0  0  0  0  0
   -0.9424    0.7863   -0.4931 C   0  0  0  0  0  0  0  0  0  0  0  0
   -0.3210    1.8443   -0.4193 O   0  0  0  0  0  0  0  0  0  0  0  0
   -1.5771    0.3965   -1.6047 N   0  0  0  0  0  0  0  0  0  0  0  0
   -2.0519   -0.4911   -1.5902 H   0  0  0  0  0  0  0  0  0  0  0  0
   -1.6093    1.1753   -2.8417 C   0  0  0  0  0  0  0  0  0  0  0  0
   -0.5899    1.4002   -3.1629 H   0  0  0  0  0  0  0  0  0  0  0  0
   -2.1198    0.6177   -3.6282 H   0  0  0  0  0  0  0  0  0  0  0  0
   -2.1331    2.1177   -2.6687 H   0  0  0  0  0  0  0  0  0  0  0  0
  5  6  2  0  0  0  0
  5  7  1  0  0  0  0
  2  3  1  0  0  0  0
  2  4  1  0  0  0  0
  2  5  1  0  0  0  0
  1  2  1  0  0  0  0
 26 27  2  0  0  0  0
 26 28  1  0  0  0  0
 23 24  1  0  0  0  0
 23 25  1  0  0  0  0
 20 21  1  0  0  0  0
 20 22  1  0  0  0  0
 20 23  1  0  0  0  0
 17 18  1  0  0  0  0
 17 19  1  0  0  0  0
 17 20  1  0  0  0  0
 14 15  1  0  0  0  0
 14 16  1  0  0  0  0
 14 17  1  0  0  0  0
 11 12  1  0  0  0  0
 11 13  1  0  0  0  0
 11 14  1  0  0  0  0
  9 10  1  0  0  0  0
  9 11  1  0  0  0  0
  9 26  1  0  0  0  0
  7  8  1  0  0  0  0
  7  9  1  0  0  0  0
 30 31  1  0  0  0  0
 30 32  1  0  0  0  0
 30 33  1  0  0  0  0
 28 29  1  0  0  0  0
 28 30  1  0  0  0  0
M  END
$$$$
default_name
  -OEChem-01062215323D

 33 32  0     1  0  0  0  0  0999 V2000
   -3.8420   -3.6918    1.5562 H   0  0  0  0  0  0  0  0  0  0  0  0
   -3.8430   -2.7008    1.1032 C   0  0  0  0  0  0  0  0  0  0  0  0
   -4.5510   -2.0608    1.6242 H   0  0  0  0  0  0  0  0  0  0  0  0
   -4.1140   -2.7798    0.0522 H   0  0  0  0  0  0  0  0  0  0  0  0
   -2.4570   -2.1098    1.2172 C   0  0  0  0  0  0  0  0  0  0  0  0
   -1.5600   -2.7438    1.7572 O   0  0  0  0  0  0  0  0  0  0  0  0
   -2.2870   -0.8898    0.7102 N   0  0  0  0  0  0  0  0  0  0  0  0
   -3.0820   -0.4218    0.2992 H   0  0  0  0  0  0  0  0  0  0  0  0
   -1.0240   -0.1468    0.7262 C   0  0  1  0  0  0  0  0  0  0  0  0
   -0.9923    0.4640    1.6295 H   0  0  0  0  0  0  0  0  0  0  0  0
    0.1418   -1.1536    0.7704 C   0  0  0  0  0  0  0  0  0  0  0  0
    0.0083   -1.8750   -0.0384 H   0  0  0  0  0  0  0  0  0  0  0  0
    1.0808   -0.6242    0.6029 H   0  0  0  0  0  0  0  0  0  0  0  0
    0.2265   -1.9283    2.0948 C   0  0  0  0  0  0  0  0  0  0  0  0
    0.3471   -1.2277    2.9216 H   0  0  0  0  0  0  0  0  0  0  0  0
   -0.6951   -2.4954    2.2385 H   0  0  0  0  0  0  0  0  0  0  0  0
    1.4169   -2.8940    2.0890 C   0  0  0  0  0  0  0  0  0  0  0  0
    1.3144   -3.5970    1.2617 H   0  0  0  0  0  0  0  0  0  0  0  0
    2.3422   -2.3297    1.9696 H   0  0  0  0  0  0  0  0  0  0  0  0
    1.4630   -3.6679    3.4050 C   0  0  0  0  0  0  0  0  0  0  0  0
    1.5840   -2.9692    4.2313 H   0  0  0  0  0  0  0  0  0  0  0  0
    0.5324   -4.2180    3.5344 H   0  0  0  0  0  0  0  0  0  0  0  0
    2.5792   -4.6204    3.4236 N   0  0  0  0  0  0  0  0  0  0  0  0
    2.5876   -5.1026    4.3103 H   0  0  0  0  0  0  0  0  0  0  0  0
    2.4551   -5.2907    2.6782 H   0  0  0  0  0  0  0  0  0  0  0  0
   -0.9424    0.7863   -0.4931 C   0  0  0  0  0  0  0  0  0  0  0  0
   -0.1123    1.6924   -0.5215 O   0  0  0  0  0  0  0  0  0  0  0  0
   -1.8089    0.5680   -1.4890 N   0  0  0  0  0  0  0  0  0  0  0  0
   -2.4486   -0.2040   -1.3971 H   0  0  0  0  0  0  0  0  0  0  0  0
   -1.8718    1.3739   -2.7074 C   0  0  0  0  0  0  0  0  0  0  0  0
   -0.8906    1.3955   -3.1866 H   0  0  0  0  0  0  0  0  0  0  0  0
   -2.6025    0.9562   -3.4015 H   0  0  0  0  0  0  0  0  0  0  0  0
   -2.1565    2.3977   -2.4560 H   0  0  0  0  0  0  0  0  0  0  0  0
  5  6  2  0  0  0  0
  5  7  1  0  0  0  0
  2  3  1  0  0  0  0
  2  4  1  0  0  0  0
  2  5  1  0  0  0  0
  1  2  1  0  0  0  0
 26 27  2  0  0  0  0
 26 28  1  0  0  0  0
 23 24  1  0  0  0  0
 23 25  1  0  0  0  0
 20 21  1  0  0  0  0
 20 22  1  0  0  0  0
 20 23  1  0  0  0  0
 17 18  1  0  0  0  0
 17 19  1  0  0  0  0
 17 20  1  0  0  0  0
 14 15  1  0  0  0  0
 14 16  1  0  0  0  0
 14 17  1  0  0  0  0
 11 12  1  0  0  0  0
 11 13  1  0  0  0  0
 11 14  1  0  0  0  0
  9 10  1  0  0  0  0
  9 11  1  0  0  0  0
  9 26  1  0  0  0  0
  7  8  1  0  0  0  0
  7  9  1  0  0  0  0
 30 31  1  0  0  0  0
 30 32  1  0  0  0  0
 30 33  1  0  0  0  0
 28 29  1  0  0  0  0
 28 30  1  0  0  0  0
M  END
$$$$
default_name
  -OEChem-01062215323D

 33 32  0     1  0  0  0  0  0999 V2000
   -3.8420   -3.6918    1.5562 H   0  0  0  0  0  0  0  0  0  0  0  0
   -3.8430   -2.7008    1.1032 C   0  0  0  0  0  0  0  0  0  0  0  0
   -4.5510   -2.0608    1.6242 H   0  0  0  0  0  0  0  0  0  0  0  0
   -4.1140   -2.7798    0.0522 H   0  0  0  0  0  0  0  0  0  0  0  0
   -2.4570   -2.1098    1.2172 C   0  0  0  0  0  0  0  0  0  0  0  0
   -1.5600   -2.7438    1.7572 O   0  0  0  0  0  0  0  0  0  0  0  0
   -2.2870   -0.8898    0.7102 N   0  0  0  0  0  0  0  0  0  0  0  0
   -3.0820   -0.4218    0.2992 H   0  0  0  0  0  0  0  0  0  0  0  0
   -1.0240   -0.1468    0.7262 C   0  0  1  0  0  0  0  0  0  0  0  0
   -0.9923    0.4640    1.6295 H   0  0  0  0  0  0  0  0  0  0  0  0
    0.1418   -1.1536    0.7704 C   0  0  0  0  0  0  0  0  0  0  0  0
    0.0083   -1.8750   -0.0384 H   0  0  0  0  0  0  0  0  0  0  0  0
    1.0808   -0.6242    0.6029 H   0  0  0  0  0  0  0  0  0  0  0  0
    0.2265   -1.9283    2.0948 C   0  0  0  0  0  0  0  0  0  0  0  0
    0.3471   -1.2277    2.9216 H   0  0  0  0  0  0  0  0  0  0  0  0
   -0.6951   -2.4954    2.2385 H   0  0  0  0  0  0  0  0  0  0  0  0
    1.4169   -2.8940    2.0890 C   0  0  0  0  0  0  0  0  0  0  0  0
    1.3144   -3.5970    1.2617 H   0  0  0  0  0  0  0  0  0  0  0  0
    2.3422   -2.3297    1.9696 H   0  0  0  0  0  0  0  0  0  0  0  0
    1.4630   -3.6679    3.4050 C   0  0  0  0  0  0  0  0  0  0  0  0
    1.5840   -2.9692    4.2313 H   0  0  0  0  0  0  0  0  0  0  0  0
    0.5324   -4.2180    3.5344 H   0  0  0  0  0  0  0  0  0  0  0  0
    2.5792   -4.6204    3.4236 N   0  0  0  0  0  0  0  0  0  0  0  0
    2.5876   -5.1026    4.3103 H   0  0  0  0  0  0  0  0  0  0  0  0
    2.4551   -5.2907    2.6782 H   0  0  0  0  0  0  0  0  0  0  0  0
   -0.9424    0.7863   -0.4931 C   0  0  0  0  0  0  0  0  0  0  0  0
    0.0421    1.5043   -0.6552 O   0  0  0  0  0  0  0  0  0  0  0  0
   -1.9795    0.7796   -1.3385 N   0  0  0  0  0  0  0  0  0  0  0  0
   -2.7424    0.1520   -1.1443 H   0  0  0  0  0  0  0  0  0  0  0  0
   -2.0636    1.6178   -2.5336 C   0  0  0  0  0  0  0  0  0  0  0  0
   -1.1859    1.4530   -3.1624 H   0  0  0  0  0  0  0  0  0  0  0  0
   -2.9636    1.3792   -3.1021 H   0  0  0  0  0  0  0  0  0  0  0  0
   -2.0881    2.6701   -2.2430 H   0  0  0  0  0  0  0  0  0  0  0  0
  5  6  2  0  0  0  0
  5  7  1  0  0  0  0
  2  3  1  0  0  0  0
  2  4  1  0  0  0  0
  2  5  1  0  0  0  0
  1  2  1  0  0  0  0
 26 27  2  0  0  0  0
 26 28  1  0  0  0  0
 23 24  1  0  0  0  0
 23 25  1  0  0  0  0
 20 21  1  0  0  0  0
 20 22  1  0  0  0  0
 20 23  1  0  0  0  0
 17 18  1  0  0  0  0
 17 19  1  0  0  0  0
 17 20  1  0  0  0  0
 14 15  1  0  0  0  0
 14 16  1  0  0  0  0
 14 17  1  0  0  0  0
 11 12  1  0  0  0  0
 11 13  1  0  0  0  0
 11 14  1  0  0  0  0
  9 10  1  0  0  0  0
  9 11  1  0  0  0  0
  9 26  1  0  0  0  0
  7  8  1  0  0  0  0
  7  9  1  0  0  0  0
 30 31  1  0  0  0  0
 30 32  1  0  0  0  0
 30 33  1  0  0  0  0
 28 29  1  0  0  0  0
 28 30  1  0  0  0  0
M  END
$$$$
default_name
  -OEChem-01062215323D

 33 32  0     1  0  0  0  0  0999 V2000
   -3.8420   -3.6918    1.5562 H   0  0  0  0  0  0  0  0  0  0  0  0
   -3.8430   -2.7008    1.1032 C   0  0  0  0  0  0  0  0  0  0  0  0
   -4.5510   -2.0608    1.6242 H   0  0  0  0  0  0  0  0  0  0  0  0
   -4.1140   -2.7798    0.0522 H   0  0  0  0  0  0  0  0  0  0  0  0
   -2.4570   -2.1098    1.2172 C   0  0  0  0  0  0  0  0  0  0  0  0
   -1.5600   -2.7438    1.7572 O   0  0  0  0  0  0  0  0  0  0  0  0
   -2.2870   -0.8898    0.7102 N   0  0  0  0  0  0  0  0  0  0  0  0
   -3.0820   -0.4218    0.2992 H   0  0  0  0  0  0  0  0  0  0  0  0
   -1.0240   -0.1468    0.7262 C   0  0  1  0  0  0  0  0  0  0  0  0
   -0.9923    0.4640    1.6295 H   0  0  0  0  0  0  0  0  0  0  0  0
    0.1418   -1.1536    0.7704 C   0  0  0  0  0  0  0  0  0  0  0  0
    0.0083   -1.8750   -0.0384 H   0  0  0  0  0  0  0  0  0  0  0  0
    1.0808   -0.6242    0.6029 H   0  0  0  0  0  0  0  0  0  0  0  0
    0.2265   -1.9283    2.0948 C   0  0  0  0  0  0  0  0  0  0  0  0
    0.3471   -1.2277    2.9216 H   0  0  0  0  0  0  0  0  0  0  0  0
   -0.6951   -2.4954    2.2385 H   0  0  0  0  0  0  0  0  0  0  0  0
    1.4169   -2.8940    2.0890 C   0  0  0  0  0  0  0  0  0  0  0  0
    1.3144   -3.5970    1.2617 H   0  0  0  0  0  0  0  0  0  0  0  0
    2.3422   -2.3297    1.9696 H   0  0  0  0  0  0  0  0  0  0  0  0
    1.4630   -3.6679    3.4050 C   0  0  0  0  0  0  0  0  0  0  0  0
    1.5840   -2.9692    4.2313 H   0  0  0  0  0  0  0  0  0  0  0  0
    0.5324   -4.2180    3.5344 H   0  0  0  0  0  0  0  0  0  0  0  0
    2.5792   -4.6204    3.4236 N   0  0  0  0  0  0  0  0  0  0  0  0
    2.5876   -5.1026    4.3103 H   0  0  0  0  0  0  0  0  0  0  0  0
    2.4551   -5.2907    2.6782 H   0  0  0  0  0  0  0  0  0  0  0  0
   -0.9424    0.7863   -0.4931 C   0  0  0  0  0  0  0  0  0  0  0  0
    0.1316    1.2927   -0.8110 O   0  0  0  0  0  0  0  0  0  0  0  0
   -2.0772    1.0170   -1.1634 N   0  0  0  0  0  0  0  0  0  0  0  0
   -2.9135    0.5528   -0.8491 H   0  0  0  0  0  0  0  0  0  0  0  0
   -2.1715    1.8903   -2.3323 C   0  0  0  0  0  0  0  0  0  0  0  0
   -1.4554    1.5688   -3.0918 H   0  0  0  0  0  0  0  0  0  0  0  0
   -3.1786    1.8577   -2.7503 H   0  0  0  0  0  0  0  0  0  0  0  0
   -1.9328    2.9162   -2.0443 H   0  0  0  0  0  0  0  0  0  0  0  0
  5  6  2  0  0  0  0
  5  7  1  0  0  0  0
  2  3  1  0  0  0  0
  2  4  1  0  0  0  0
  2  5  1  0  0  0  0
  1  2  1  0  0  0  0
 26 27  2  0  0  0  0
 26 28  1  0  0  0  0
 23 24  1  0  0  0  0
 23 25  1  0  0  0  0
 20 21  1  0  0  0  0
 20 22  1  0  0  0  0
 20 23  1  0  0  0  0
 17 18  1  0  0  0  0
 17 19  1  0  0  0  0
 17 20  1  0  0  0  0
 14 15  1  0  0  0  0
 14 16  1  0  0  0  0
 14 17  1  0  0  0  0
 11 12  1  0  0  0  0
 11 13  1  0  0  0  0
 11 14  1  0  0  0  0
  9 10  1  0  0  0  0
  9 11  1  0  0  0  0
  9 26  1  0  0  0  0
  7  8  1  0  0  0  0
  7  9  1  0  0  0  0
 30 31  1  0  0  0  0
 30 32  1  0  0  0  0
 30 33  1  0  0  0  0
 28 29  1  0  0  0  0
 28 30  1  0  0  0  0
M  END
$$$$
default_name
  -OEChem-01062215323D

 33 32  0     1  0  0  0  0  0999 V2000
   -3.8420   -3.6918    1.5562 H   0  0  0  0  0  0  0  0  0  0  0  0
   -3.8430   -2.7008    1.1032 C   0  0  0  0  0  0  0  0  0  0  0  0
   -4.5510   -2.0608    1.6242 H   0  0  0  0  0  0  0  0  0  0  0  0
   -4.1140   -2.7798    0.0522 H   0  0  0  0  0  0  0  0  0  0  0  0
   -2.4570   -2.1098    1.2172 C   0  0  0  0  0  0  0  0  0  0  0  0
   -1.5600   -2.7438    1.7572 O   0  0  0  0  0  0  0  0  0  0  0  0
   -2.2870   -0.8898    0.7102 N   0  0  0  0  0  0  0  0  0  0  0  0
   -3.0820   -0.4218    0.2992 H   0  0  0  0  0  0  0  0  0  0  0  0
   -1.0240   -0.1468    0.7262 C   0  0  1  0  0  0  0  0  0  0  0  0
   -0.9923    0.4640    1.6295 H   0  0  0  0  0  0  0  0  0  0  0  0
    0.1418   -1.1536    0.7704 C   0  0  0  0  0  0  0  0  0  0  0  0
    0.0083   -1.8750   -0.0384 H   0  0  0  0  0  0  0  0  0  0  0  0
    1.0808   -0.6242    0.6029 H   0  0  0  0  0  0  0  0  0  0  0  0
    0.2265   -1.9283    2.0948 C   0  0  0  0  0  0  0  0  0  0  0  0
    0.3471   -1.2277    2.9216 H   0  0  0  0  0  0  0  0  0  0  0  0
   -0.6951   -2.4954    2.2385 H   0  0  0  0  0  0  0  0  0  0  0  0
    1.4169   -2.8940    2.0890 C   0  0  0  0  0  0  0  0  0  0  0  0
    1.3144   -3.5970    1.2617 H   0  0  0  0  0  0  0  0  0  0  0  0
    2.3422   -2.3297    1.9696 H   0  0  0  0  0  0  0  0  0  0  0  0
    1.4630   -3.6679    3.4050 C   0  0  0  0  0  0  0  0  0  0  0  0
    1.5840   -2.9692    4.2313 H   0  0  0  0  0  0  0  0  0  0  0  0
    0.5324   -4.2180    3.5344 H   0  0  0  0  0  0  0  0  0  0  0  0
    2.5792   -4.6204    3.4236 N   0  0  0  0  0  0  0  0  0  0  0  0
    2.5876   -5.1026    4.3103 H   0  0  0  0  0  0  0  0  0  0  0  0
    2.4551   -5.2907    2.6782 H   0  0  0  0  0  0  0  0  0  0  0  0
   -0.9424    0.7863   -0.4931 C   0  0  0  0  0  0  0  0  0  0  0  0
    0.1501    1.0721   -0.9786 O   0  0  0  0  0  0  0  0  0  0  0  0
   -2.0953    1.2639   -0.9757 N   0  0  0  0  0  0  0  0  0  0  0  0
   -2.9501    0.9710   -0.5316 H   0  0  0  0  0  0  0  0  0  0  0  0
   -2.1881    2.1729   -2.1172 C   0  0  0  0  0  0  0  0  0  0  0  0
   -1.6809    1.7350   -2.9797 H   0  0  0  0  0  0  0  0  0  0  0  0
   -3.2328    2.3592   -2.3702 H   0  0  0  0  0  0  0  0  0  0  0  0
   -1.7010    3.1193   -1.8733 H   0  0  0  0  0  0  0  0  0  0  0  0
  5  6  2  0  0  0  0
  5  7  1  0  0  0  0
  2  3  1  0  0  0  0
  2  4  1  0  0  0  0
  2  5  1  0  0  0  0
  1  2  1  0  0  0  0
 26 27  2  0  0  0  0
 26 28  1  0  0  0  0
 23 24  1  0  0  0  0
 23 25  1  0  0  0  0
 20 21  1  0  0  0  0
 20 22  1  0  0  0  0
 20 23  1  0  0  0  0
 17 18  1  0  0  0  0
 17 19  1  0  0  0  0
 17 20  1  0  0  0  0
 14 15  1  0  0  0  0
 14 16  1  0  0  0  0
 14 17  1  0  0  0  0
 11 12  1  0  0  0  0
 11 13  1  0  0  0  0
 11 14  1  0  0  0  0
  9 10  1  0  0  0  0
  9 11  1  0  0  0  0
  9 26  1  0  0  0  0
  7  8  1  0  0  0  0
  7  9  1  0  0  0  0
 30 31  1  0  0  0  0
 30 32  1  0  0  0  0
 30 33  1  0  0  0  0
 28 29  1  0  0  0  0
 28 30  1  0  0  0  0
M  END
$$$$
default_name
  -OEChem-01062215323D

 33 32  0     1  0  0  0  0  0999 V2000
   -3.8420   -3.6918    1.5562 H   0  0  0  0  0  0  0  0  0  0  0  0
   -3.8430   -2.7008    1.1032 C   0  0  0  0  0  0  0  0  0  0  0  0
   -4.5510   -2.0608    1.6242 H   0  0  0  0  0  0  0  0  0  0  0  0
   -4.1140   -2.7798    0.0522 H   0  0  0  0  0  0  0  0  0  0  0  0
   -2.4570   -2.1098    1.2172 C   0  0  0  0  0  0  0  0  0  0  0  0
   -1.5600   -2.7438    1.7572 O   0  0  0  0  0  0  0  0  0  0  0  0
   -2.2870   -0.8898    0.7102 N   0  0  0  0  0  0  0  0  0  0  0  0
   -3.0820   -0.4218    0.2992 H   0  0  0  0  0  0  0  0  0  0  0  0
   -1.0240   -0.1468    0.7262 C   0  0  1  0  0  0  0  0  0  0  0  0
   -0.9923    0.4640    1.6295 H   0  0  0  0  0  0  0  0  0  0  0  0
    0.1418   -1.1536    0.7704 C   0  0  0  0  0  0  0  0  0  0  0  0
    0.0083   -1.8750   -0.0384 H   0  0  0  0  0  0  0  0  0  0  0  0
    1.0808   -0.6242    0.6029 H   0  0  0  0  0  0  0  0  0  0  0  0
    0.2265   -1.9283    2.0948 C   0  0  0  0  0  0  0  0  0  0  0  0
    0.3471   -1.2277    2.9216 H   0  0  0  0  0  0  0  0  0  0  0  0
   -0.6951   -2.4954    2.2385 H   0  0  0  0  0  0  0  0  0  0  0  0
    1.4169   -2.8940    2.0890 C   0  0  0  0  0  0  0  0  0  0  0  0
    1.3144   -3.5970    1.2617 H   0  0  0  0  0  0  0  0  0  0  0  0
    2.3422   -2.3297    1.9696 H   0  0  0  0  0  0  0  0  0  0  0  0
    1.4630   -3.6679    3.4050 C   0  0  0  0  0  0  0  0  0  0  0  0
    1.5840   -2.9692    4.2313 H   0  0  0  0  0  0  0  0  0  0  0  0
    0.5324   -4.2180    3.5344 H   0  0  0  0  0  0  0  0  0  0  0  0
    2.5792   -4.6204    3.4236 N   0  0  0  0  0  0  0  0  0  0  0  0
    2.5876   -5.1026    4.3103 H   0  0  0  0  0  0  0  0  0  0  0  0
    2.4551   -5.2907    2.6782 H   0  0  0  0  0  0  0  0  0  0  0  0
   -0.9424    0.7863   -0.4931 C   0  0  0  0  0  0  0  0  0  0  0  0
    0.0965    0.8576   -1.1464 O   0  0  0  0  0  0  0  0  0  0  0  0
   -2.0327    1.5036   -0.7881 N   0  0  0  0  0  0  0  0  0  0  0  0
   -2.8497    1.3781   -0.2134 H   0  0  0  0  0  0  0  0  0  0  0  0
   -2.1124    2.4463   -1.9029 C   0  0  0  0  0  0  0  0  0  0  0  0
   -1.8470    1.9403   -2.8337 H   0  0  0  0  0  0  0  0  0  0  0  0
   -3.1225    2.8496   -1.9876 H   0  0  0  0  0  0  0  0  0  0  0  0
   -1.4086    3.2656   -1.7418 H   0  0  0  0  0  0  0  0  0  0  0  0
  5  6  2  0  0  0  0
  5  7  1  0  0  0  0
  2  3  1  0  0  0  0
  2  4  1  0  0  0  0
  2  5  1  0  0  0  0
  1  2  1  0  0  0  0
 26 27  2  0  0  0  0
 26 28  1  0  0  0  0
 23 24  1  0  0  0  0
 23 25  1  0  0  0  0
 20 21  1  0  0  0  0
 20 22  1  0  0  0  0
 20 23  1  0  0  0  0
 17 18  1  0  0  0  0
 17 19  1  0  0  0  0
 17 20  1  0  0  0  0
 14 15  1  0  0  0  0
 14 16  1  0  0  0  0
 14 17  1  0  0  0  0
 11 12  1  0  0  0  0
 11 13  1  0  0  0  0
 11 14  1  0  0  0  0
  9 10  1  0  0  0  0
  9 11  1  0  0  0  0
  9 26  1  0  0  0  0
  7  8  1  0  0  0  0
  7  9  1  0  0  0  0
 30 31  1  0  0  0  0
 30 32  1  0  0  0  0
 30 33  1  0  0  0  0
 28 29  1  0  0  0  0
 28 30  1  0  0  0  0
M  END
$$$$
default_name
  -OEChem-01062215323D

 33 32  0     1  0  0  0  0  0999 V2000
   -3.8420   -3.6918    1.5562 H   0  0  0  0  0  0  0  0  0  0  0  0
   -3.8430   -2.7008    1.1032 C   0  0  0  0  0  0  0  0  0  0  0  0
   -4.5510   -2.0608    1.6242 H   0  0  0  0  0  0  0  0  0  0  0  0
   -4.1140   -2.7798    0.0522 H   0  0  0  0  0  0  0  0  0  0  0  0
   -2.4570   -2.1098    1.2172 C   0  0  0  0  0  0  0  0  0  0  0  0
   -1.5600   -2.7438    1.7572 O   0  0  0  0  0  0  0  0  0  0  0  0
   -2.2870   -0.8898    0.7102 N   0  0  0  0  0  0  0  0  0  0  0  0
   -3.0820   -0.4218    0.2992 H   0  0  0  0  0  0  0  0  0  0  0  0
   -1.0240   -0.1468    0.7262 C   0  0  1  0  0  0  0  0  0  0  0  0
   -0.9923    0.4640    1.6295 H   0  0  0  0  0  0  0  0  0  0  0  0
    0.1418   -1.1536    0.7704 C   0  0  0  0  0  0  0  0  0  0  0  0
    0.0083   -1.8750   -0.0384 H   0  0  0  0  0  0  0  0  0  0  0  0
    1.0808   -0.6242    0.6029 H   0  0  0  0  0  0  0  0  0  0  0  0
    0.2265   -1.9283    2.0948 C   0  0  0  0  0  0  0  0  0  0  0  0
    0.3471   -1.2277    2.9216 H   0  0  0  0  0  0  0  0  0  0  0  0
   -0.6951   -2.4954    2.2385 H   0  0  0  0  0  0  0  0  0  0  0  0
    1.4169   -2.8940    2.0890 C   0  0  0  0  0  0  0  0  0  0  0  0
    1.3144   -3.5970    1.2617 H   0  0  0  0  0  0  0  0  0  0  0  0
    2.3422   -2.3297    1.9696 H   0  0  0  0  0  0  0  0  0  0  0  0
    1.4630   -3.6679    3.4050 C   0  0  0  0  0  0  0  0  0  0  0  0
    1.5840   -2.9692    4.2313 H   0  0  0  0  0  0  0  0  0  0  0  0
    0.5324   -4.2180    3.5344 H   0  0  0  0  0  0  0  0  0  0  0  0
    2.5792   -4.6204    3.4236 N   0  0  0  0  0  0  0  0  0  0  0  0
    2.5876   -5.1026    4.3103 H   0  0  0  0  0  0  0  0  0  0  0  0
    2.4551   -5.2907    2.6782 H   0  0  0  0  0  0  0  0  0  0  0  0
   -0.9424    0.7863   -0.4931 C   0  0  0  0  0  0  0  0  0  0  0  0
   -0.0258    0.6636   -1.3029 O   0  0  0  0  0  0  0  0  0  0  0  0
   -1.8935    1.7197   -0.6135 N   0  0  0  0  0  0  0  0  0  0  0  0
   -2.6192    1.7463    0.0838 H   0  0  0  0  0  0  0  0  0  0  0  0
   -1.9494    2.6920   -1.7040 C   0  0  0  0  0  0  0  0  0  0  0  0
   -1.9424    2.1707   -2.6638 H   0  0  0  0  0  0  0  0  0  0  0  0
   -2.8552    3.2953   -1.6286 H   0  0  0  0  0  0  0  0  0  0  0  0
   -1.0754    3.3450   -1.6587 H   0  0  0  0  0  0  0  0  0  0  0  0
  5  6  2  0  0  0  0
  5  7  1  0  0  0  0
  2  3  1  0  0  0  0
  2  4  1  0  0  0  0
  2  5  1  0  0  0  0
  1  2  1  0  0  0  0
 26 27  2  0  0  0  0
 26 28  1  0  0  0  0
 23 24  1  0  0  0  0
 23 25  1  0  0  0  0
 20 21  1  0  0  0  0
 20 22  1  0  0  0  0
 20 23  1  0  0  0  0
 17 18  1  0  0  0  0
 17 19  1  0  0  0  0
 17 20  1  0  0  0  0
 14 15  1  0  0  0  0
 14 16  1  0  0  0  0
 14 17  1  0  0  0  0
 11 12  1  0  0  0  0
 11 13  1  0  0  0  0
 11 14  1  0  0  0  0
  9 10  1  0  0  0  0
  9 11  1  0  0  0  0
  9 26  1  0  0  0  0
  7  8  1  0  0  0  0
  7  9  1  0  0  0  0
 30 31  1  0  0  0  0
 30 32  1  0  0  0  0
 30 33  1  0  0  0  0
 28 29  1  0  0  0  0
 28 30  1  0  0  0  0
M  END
$$$$
default_name
  -OEChem-01062215323D

 33 32  0     1  0  0  0  0  0999 V2000
   -3.8420   -3.6918    1.5562 H   0  0  0  0  0  0  0  0  0  0  0  0
   -3.8430   -2.7008    1.1032 C   0  0  0  0  0  0  0  0  0  0  0  0
   -4.5510   -2.0608    1.6242 H   0  0  0  0  0  0  0  0  0  0  0  0
   -4.1140   -2.7798    0.0522 H   0  0  0  0  0  0  0  0  0  0  0  0
   -2.4570   -2.1098    1.2172 C   0  0  0  0  0  0  0  0  0  0  0  0
   -1.5600   -2.7438    1.7572 O   0  0  0  0  0  0  0  0  0  0  0  0
   -2.2870   -0.8898    0.7102 N   0  0  0  0  0  0  0  0  0  0  0  0
   -3.0820   -0.4218    0.2992 H   0  0  0  0  0  0  0  0  0  0  0  0
   -1.0240   -0.1468    0.7262 C   0  0  1  0  0  0  0  0  0  0  0  0
   -0.9923    0.4640    1.6295 H   0  0  0  0  0  0  0  0  0  0  0  0
    0.1418   -1.1536    0.7704 C   0  0  0  0  0  0  0  0  0  0  0  0
    0.0083   -1.8750   -0.0384 H   0  0  0  0  0  0  0  0  0  0  0  0
    1.0808   -0.6242    0.6029 H   0  0  0  0  0  0  0  0  0  0  0  0
    0.2265   -1.9283    2.0948 C   0  0  0  0  0  0  0  0  0  0  0  0
    0.3471   -1.2277    2.9216 H   0  0  0  0  0  0  0  0  0  0  0  0
   -0.6951   -2.4954    2.2385 H   0  0  0  0  0  0  0  0  0  0  0  0
    1.4169   -2.8940    2.0890 C   0  0  0  0  0  0  0  0  0  0  0  0
    1.3144   -3.5970    1.2617 H   0  0  0  0  0  0  0  0  0  0  0  0
    2.3422   -2.3297    1.9696 H   0  0  0  0  0  0  0  0  0  0  0  0
    1.4630   -3.6679    3.4050 C   0  0  0  0  0  0  0  0  0  0  0  0
    1.5840   -2.9692    4.2313 H   0  0  0  0  0  0  0  0  0  0  0  0
    0.5324   -4.2180    3.5344 H   0  0  0  0  0  0  0  0  0  0  0  0
    2.5792   -4.6204    3.4236 N   0  0  0  0  0  0  0  0  0  0  0  0
    2.5876   -5.1026    4.3103 H   0  0  0  0  0  0  0  0  0  0  0  0
    2.4551   -5.2907    2.6782 H   0  0  0  0  0  0  0  0  0  0  0  0
   -0.9424    0.7863   -0.4931 C   0  0  0  0  0  0  0  0  0  0  0  0
   -0.2082    0.5036   -1.4376 O   0  0  0  0  0  0  0  0  0  0  0  0
   -1.6873    1.8974   -0.4637 N   0  0  0  0  0  0  0  0  0  0  0  0
   -2.2744    2.0506    0.3398 H   0  0  0  0  0  0  0  0  0  0  0  0
   -1.7104    2.8930   -1.5342 C   0  0  0  0  0  0  0  0  0  0  0  0
   -1.9605    2.4105   -2.4816 H   0  0  0  0  0  0  0  0  0  0  0  0
   -2.4492    3.6661   -1.3178 H   0  0  0  0  0  0  0  0  0  0  0  0
   -0.7243    3.3522   -1.6297 H   0  0  0  0  0  0  0  0  0  0  0  0
  5  6  2  0  0  0  0
  5  7  1  0  0  0  0
  2  3  1  0  0  0  0
  2  4  1  0  0  0  0
  2  5  1  0  0  0  0
  1  2  1  0  0  0  0
 26 27  2  0  0  0  0
 26 28  1  0  0  0  0
 23 24  1  0  0  0  0
 23 25  1  0  0  0  0
 20 21  1  0  0  0  0
 20 22  1  0  0  0  0
 20 23  1  0  0  0  0
 17 18  1  0  0  0  0
 17 19  1  0  0  0  0
 17 20  1  0  0  0  0
 14 15  1  0  0  0  0
 14 16  1  0  0  0  0
 14 17  1  0  0  0  0
 11 12  1  0  0  0  0
 11 13  1  0  0  0  0
 11 14  1  0  0  0  0
  9 10  1  0  0  0  0
  9 11  1  0  0  0  0
  9 26  1  0  0  0  0
  7  8  1  0  0  0  0
  7  9  1  0  0  0  0
 30 31  1  0  0  0  0
 30 32  1  0  0  0  0
 30 33  1  0  0  0  0
 28 29  1  0  0  0  0
 28 30  1  0  0  0  0
M  END
$$$$
default_name
  -OEChem-01062215323D

 33 32  0     1  0  0  0  0  0999 V2000
   -3.8420   -3.6918    1.5562 H   0  0  0  0  0  0  0  0  0  0  0  0
   -3.8430   -2.7008    1.1032 C   0  0  0  0  0  0  0  0  0  0  0  0
   -4.5510   -2.0608    1.6242 H   0  0  0  0  0  0  0  0  0  0  0  0
   -4.1140   -2.7798    0.0522 H   0  0  0  0  0  0  0  0  0  0  0  0
   -2.4570   -2.1098    1.2172 C   0  0  0  0  0  0  0  0  0  0  0  0
   -1.5600   -2.7438    1.7572 O   0  0  0  0  0  0  0  0  0  0  0  0
   -2.2870   -0.8898    0.7102 N   0  0  0  0  0  0  0  0  0  0  0  0
   -3.0820   -0.4218    0.2992 H   0  0  0  0  0  0  0  0  0  0  0  0
   -1.0240   -0.1468    0.7262 C   0  0  1  0  0  0  0  0  0  0  0  0
   -0.9923    0.4640    1.6295 H   0  0  0  0  0  0  0  0  0  0  0  0
    0.1418   -1.1536    0.7704 C   0  0  0  0  0  0  0  0  0  0  0  0
    0.0083   -1.8750   -0.0384 H   0  0  0  0  0  0  0  0  0  0  0  0
    1.0808   -0.6242    0.6029 H   0  0  0  0  0  0  0  0  0  0  0  0
    0.2265   -1.9283    2.0948 C   0  0  0  0  0  0  0  0  0  0  0  0
    0.3471   -1.2277    2.9216 H   0  0  0  0  0  0  0  0  0  0  0  0
   -0.6951   -2.4954    2.2385 H   0  0  0  0  0  0  0  0  0  0  0  0
    1.4169   -2.8940    2.0890 C   0  0  0  0  0  0  0  0  0  0  0  0
    1.3144   -3.5970    1.2617 H   0  0  0  0  0  0  0  0  0  0  0  0
    2.3422   -2.3297    1.9696 H   0  0  0  0  0  0  0  0  0  0  0  0
    1.4630   -3.6679    3.4050 C   0  0  0  0  0  0  0  0  0  0  0  0
    1.5840   -2.9692    4.2313 H   0  0  0  0  0  0  0  0  0  0  0  0
    0.5324   -4.2180    3.5344 H   0  0  0  0  0  0  0  0  0  0  0  0
    2.5792   -4.6204    3.4236 N   0  0  0  0  0  0  0  0  0  0  0  0
    2.5876   -5.1026    4.3103 H   0  0  0  0  0  0  0  0  0  0  0  0
    2.4551   -5.2907    2.6782 H   0  0  0  0  0  0  0  0  0  0  0  0
   -0.9424    0.7863   -0.4931 C   0  0  0  0  0  0  0  0  0  0  0  0
   -0.4385    0.3882   -1.5413 O   0  0  0  0  0  0  0  0  0  0  0  0
   -1.4281    2.0247   -0.3489 N   0  0  0  0  0  0  0  0  0  0  0  0
   -1.8386    2.2702    0.5370 H   0  0  0  0  0  0  0  0  0  0  0  0
   -1.4116    3.0359   -1.4049 C   0  0  0  0  0  0  0  0  0  0  0  0
   -1.9002    2.6434   -2.2994 H   0  0  0  0  0  0  0  0  0  0  0  0
   -1.9321    3.9366   -1.0762 H   0  0  0  0  0  0  0  0  0  0  0  0
   -0.3791    3.2867   -1.6567 H   0  0  0  0  0  0  0  0  0  0  0  0
  5  6  2  0  0  0  0
  5  7  1  0  0  0  0
  2  3  1  0  0  0  0
  2  4  1  0  0  0  0
  2  5  1  0  0  0  0
  1  2  1  0  0  0  0
 26 27  2  0  0  0  0
 26 28  1  0  0  0  0
 23 24  1  0  0  0  0
 23 25  1  0  0  0  0
 20 21  1  0  0  0  0
 20 22  1  0  0  0  0
 20 23  1  0  0  0  0
 17 18  1  0  0  0  0
 17 19  1  0  0  0  0
 17 20  1  0  0  0  0
 14 15  1  0  0  0  0
 14 16  1  0  0  0  0
 14 17  1  0  0  0  0
 11 12  1  0  0  0  0
 11 13  1  0  0  0  0
 11 14  1  0  0  0  0
  9 10  1  0  0  0  0
  9 11  1  0  0  0  0
  9 26  1  0  0  0  0
  7  8  1  0  0  0  0
  7  9  1  0  0  0  0
 30 31  1  0  0  0  0
 30 32  1  0  0  0  0
 30 33  1  0  0  0  0
 28 29  1  0  0  0  0
 28 30  1  0  0  0  0
M  END
$$$$
default_name
  -OEChem-01062215323D

 33 32  0     1  0  0  0  0  0999 V2000
   -3.8420   -3.6918    1.5562 H   0  0  0  0  0  0  0  0  0  0  0  0
   -3.8430   -2.7008    1.1032 C   0  0  0  0  0  0  0  0  0  0  0  0
   -4.5510   -2.0608    1.6242 H   0  0  0  0  0  0  0  0  0  0  0  0
   -4.1140   -2.7798    0.0522 H   0  0  0  0  0  0  0  0  0  0  0  0
   -2.4570   -2.1098    1.2172 C   0  0  0  0  0  0  0  0  0  0  0  0
   -1.5600   -2.7438    1.7572 O   0  0  0  0  0  0  0  0  0  0  0  0
   -2.2870   -0.8898    0.7102 N   0  0  0  0  0  0  0  0  0  0  0  0
   -3.0820   -0.4218    0.2992 H   0  0  0  0  0  0  0  0  0  0  0  0
   -1.0240   -0.1468    0.7262 C   0  0  1  0  0  0  0  0  0  0  0  0
   -0.9923    0.4640    1.6295 H   0  0  0  0  0  0  0  0  0  0  0  0
    0.1418   -1.1536    0.7704 C   0  0  0  0  0  0  0  0  0  0  0  0
    0.0083   -1.8750   -0.0384 H   0  0  0  0  0  0  0  0  0  0  0  0
    1.0808   -0.6242    0.6029 H   0  0  0  0  0  0  0  0  0  0  0  0
    0.2265   -1.9283    2.0948 C   0  0  0  0  0  0  0  0  0  0  0  0
    0.3471   -1.2277    2.9216 H   0  0  0  0  0  0  0  0  0  0  0  0
   -0.6951   -2.4954    2.2385 H   0  0  0  0  0  0  0  0  0  0  0  0
    1.4169   -2.8940    2.0890 C   0  0  0  0  0  0  0  0  0  0  0  0
    1.3144   -3.5970    1.2617 H   0  0  0  0  0  0  0  0  0  0  0  0
    2.3422   -2.3297    1.9696 H   0  0  0  0  0  0  0  0  0  0  0  0
    1.4630   -3.6679    3.4050 C   0  0  0  0  0  0  0  0  0  0  0  0
    1.5840   -2.9692    4.2313 H   0  0  0  0  0  0  0  0  0  0  0  0
    0.5324   -4.2180    3.5344 H   0  0  0  0  0  0  0  0  0  0  0  0
    2.5792   -4.6204    3.4236 N   0  0  0  0  0  0  0  0  0  0  0  0
    2.5876   -5.1026    4.3103 H   0  0  0  0  0  0  0  0  0  0  0  0
    2.4551   -5.2907    2.6782 H   0  0  0  0  0  0  0  0  0  0  0  0
   -0.9424    0.7863   -0.4931 C   0  0  0  0  0  0  0  0  0  0  0  0
   -0.7009    0.3255   -1.6068 O   0  0  0  0  0  0  0  0  0  0  0  0
   -1.1336    2.0928   -0.2771 N   0  0  0  0  0  0  0  0  0  0  0  0
   -1.3416    2.3902    0.6621 H   0  0  0  0  0  0  0  0  0  0  0  0
   -1.0733    3.1107   -1.3249 C   0  0  0  0  0  0  0  0  0  0  0  0
   -1.7655    2.8534   -2.1296 H   0  0  0  0  0  0  0  0  0  0  0  0
   -1.3391    4.0884   -0.9203 H   0  0  0  0  0  0  0  0  0  0  0  0
   -0.0633    3.1530   -1.7379 H   0  0  0  0  0  0  0  0  0  0  0  0
  5  6  2  0  0  0  0
  5  7  1  0  0  0  0
  2  3  1  0  0  0  0
  2  4  1  0  0  0  0
  2  5  1  0  0  0  0
  1  2  1  0  0  0  0
 26 27  2  0  0  0  0
 26 28  1  0  0  0  0
 23 24  1  0  0  0  0
 23 25  1  0  0  0  0
 20 21  1  0  0  0  0
 20 22  1  0  0  0  0
 20 23  1  0  0  0  0
 17 18  1  0  0  0  0
 17 19  1  0  0  0  0
 17 20  1  0  0  0  0
 14 15  1  0  0  0  0
 14 16  1  0  0  0  0
 14 17  1  0  0  0  0
 11 12  1  0  0  0  0
 11 13  1  0  0  0  0
 11 14  1  0  0  0  0
  9 10  1  0  0  0  0
  9 11  1  0  0  0  0
  9 26  1  0  0  0  0
  7  8  1  0  0  0  0
  7  9  1  0  0  0  0
 30 31  1  0  0  0  0
 30 32  1  0  0  0  0
 30 33  1  0  0  0  0
 28 29  1  0  0  0  0
 28 30  1  0  0  0  0
M  END
$$$$
default_name
  -OEChem-01062215323D

 33 32  0     1  0  0  0  0  0999 V2000
   -3.8420   -3.6918    1.5562 H   0  0  0  0  0  0  0  0  0  0  0  0
   -3.8430   -2.7008    1.1032 C   0  0  0  0  0  0  0  0  0  0  0  0
   -4.5510   -2.0608    1.6242 H   0  0  0  0  0  0  0  0  0  0  0  0
   -4.1140   -2.7798    0.0522 H   0  0  0  0  0  0  0  0  0  0  0  0
   -2.4570   -2.1098    1.2172 C   0  0  0  0  0  0  0  0  0  0  0  0
   -1.5600   -2.7438    1.7572 O   0  0  0  0  0  0  0  0  0  0  0  0
   -2.2870   -0.8898    0.7102 N   0  0  0  0  0  0  0  0  0  0  0  0
   -3.0820   -0.4218    0.2992 H   0  0  0  0  0  0  0  0  0  0  0  0
   -1.0240   -0.1468    0.7262 C   0  0  1  0  0  0  0  0  0  0  0  0
   -0.9923    0.4640    1.6295 H   0  0  0  0  0  0  0  0  0  0  0  0
    0.1418   -1.1536    0.7704 C   0  0  0  0  0  0  0  0  0  0  0  0
    0.0083   -1.8750   -0.0384 H   0  0  0  0  0  0  0  0  0  0  0  0
    1.0808   -0.6242    0.6029 H   0  0  0  0  0  0  0  0  0  0  0  0
    0.2265   -1.9283    2.0948 C   0  0  0  0  0  0  0  0  0  0  0  0
    0.3471   -1.2277    2.9216 H   0  0  0  0  0  0  0  0  0  0  0  0
   -0.6951   -2.4954    2.2385 H   0  0  0  0  0  0  0  0  0  0  0  0
    1.4169   -2.8940    2.0890 C   0  0  0  0  0  0  0  0  0  0  0  0
    1.3144   -3.5970    1.2617 H   0  0  0  0  0  0  0  0  0  0  0  0
    2.3422   -2.3297    1.9696 H   0  0  0  0  0  0  0  0  0  0  0  0
    1.4630   -3.6679    3.4050 C   0  0  0  0  0  0  0  0  0  0  0  0
    1.5840   -2.9692    4.2313 H   0  0  0  0  0  0  0  0  0  0  0  0
    0.5324   -4.2180    3.5344 H   0  0  0  0  0  0  0  0  0  0  0  0
    2.5792   -4.6204    3.4236 N   0  0  0  0  0  0  0  0  0  0  0  0
    2.5876   -5.1026    4.3103 H   0  0  0  0  0  0  0  0  0  0  0  0
    2.4551   -5.2907    2.6782 H   0  0  0  0  0  0  0  0  0  0  0  0
   -0.9424    0.7863   -0.4931 C   0  0  0  0  0  0  0  0  0  0  0  0
   -0.9775    0.3197   -1.6298 O   0  0  0  0  0  0  0  0  0  0  0  0
   -0.8239    2.0973   -0.2529 N   0  0  0  0  0  0  0  0  0  0  0  0
   -0.8173    2.4024    0.7065 H   0  0  0  0  0  0  0  0  0  0  0  0
   -0.7186    3.1125   -1.2998 C   0  0  0  0  0  0  0  0  0  0  0  0
   -1.5657    3.0263   -1.9840 H   0  0  0  0  0  0  0  0  0  0  0  0
   -0.7107    4.1112   -0.8608 H   0  0  0  0  0  0  0  0  0  0  0  0
    0.2015    2.9601   -1.8677 H   0  0  0  0  0  0  0  0  0  0  0  0
  5  6  2  0  0  0  0
  5  7  1  0  0  0  0
  2  3  1  0  0  0  0
  2  4  1  0  0  0  0
  2  5  1  0  0  0  0
  1  2  1  0  0  0  0
 26 27  2  0  0  0  0
 26 28  1  0  0  0  0
 23 24  1  0  0  0  0
 23 25  1  0  0  0  0
 20 21  1  0  0  0  0
 20 22  1  0  0  0  0
 20 23  1  0  0  0  0
 17 18  1  0  0  0  0
 17 19  1  0  0  0  0
 17 20  1  0  0  0  0
 14 15  1  0  0  0  0
 14 16  1  0  0  0  0
 14 17  1  0  0  0  0
 11 12  1  0  0  0  0
 11 13  1  0  0  0  0
 11 14  1  0  0  0  0
  9 10  1  0  0  0  0
  9 11  1  0  0  0  0
  9 26  1  0  0  0  0
  7  8  1  0  0  0  0
  7  9  1  0  0  0  0
 30 31  1  0  0  0  0
 30 32  1  0  0  0  0
 30 33  1  0  0  0  0
 28 29  1  0  0  0  0
 28 30  1  0  0  0  0
M  END
$$$$
default_name
  -OEChem-01062215323D

 33 32  0     1  0  0  0  0  0999 V2000
   -3.8420   -3.6918    1.5562 H   0  0  0  0  0  0  0  0  0  0  0  0
   -3.8430   -2.7008    1.1032 C   0  0  0  0  0  0  0  0  0  0  0  0
   -4.5510   -2.0608    1.6242 H   0  0  0  0  0  0  0  0  0  0  0  0
   -4.1140   -2.7798    0.0522 H   0  0  0  0  0  0  0  0  0  0  0  0
   -2.4570   -2.1098    1.2172 C   0  0  0  0  0  0  0  0  0  0  0  0
   -1.5600   -2.7438    1.7572 O   0  0  0  0  0  0  0  0  0  0  0  0
   -2.2870   -0.8898    0.7102 N   0  0  0  0  0  0  0  0  0  0  0  0
   -3.0820   -0.4218    0.2992 H   0  0  0  0  0  0  0  0  0  0  0  0
   -1.0240   -0.1468    0.7262 C   0  0  1  0  0  0  0  0  0  0  0  0
   -0.9923    0.4640    1.6295 H   0  0  0  0  0  0  0  0  0  0  0  0
    0.1418   -1.1536    0.7704 C   0  0  0  0  0  0  0  0  0  0  0  0
    0.0083   -1.8750   -0.0384 H   0  0  0  0  0  0  0  0  0  0  0  0
    1.0808   -0.6242    0.6029 H   0  0  0  0  0  0  0  0  0  0  0  0
    0.2265   -1.9283    2.0948 C   0  0  0  0  0  0  0  0  0  0  0  0
    0.3471   -1.2277    2.9216 H   0  0  0  0  0  0  0  0  0  0  0  0
   -0.6951   -2.4954    2.2385 H   0  0  0  0  0  0  0  0  0  0  0  0
    1.4169   -2.8940    2.0890 C   0  0  0  0  0  0  0  0  0  0  0  0
    1.3144   -3.5970    1.2617 H   0  0  0  0  0  0  0  0  0  0  0  0
    2.3422   -2.3297    1.9696 H   0  0  0  0  0  0  0  0  0  0  0  0
    1.4630   -3.6679    3.4050 C   0  0  0  0  0  0  0  0  0  0  0  0
    1.5840   -2.9692    4.2313 H   0  0  0  0  0  0  0  0  0  0  0  0
    0.5324   -4.2180    3.5344 H   0  0  0  0  0  0  0  0  0  0  0  0
    2.5792   -4.6204    3.4236 N   0  0  0  0  0  0  0  0  0  0  0  0
    2.5876   -5.1026    4.3103 H   0  0  0  0  0  0  0  0  0  0  0  0
    2.4551   -5.2907    2.6782 H   0  0  0  0  0  0  0  0  0  0  0  0
   -0.9424    0.7863   -0.4931 C   0  0  0  0  0  0  0  0  0  0  0  0
   -1.2495    0.3712   -1.6086 O   0  0  0  0  0  0  0  0  0  0  0  0
   -0.5200    2.0376   -0.2782 N   0  0  0  0  0  0  0  0  0  0  0  0
   -0.3013    2.3059    0.6672 H   0  0  0  0  0  0  0  0  0  0  0  0
   -0.3717    3.0411   -1.3313 C   0  0  0  0  0  0  0  0  0  0  0  0
   -1.3142    3.1502   -1.8723 H   0  0  0  0  0  0  0  0  0  0  0  0
   -0.0896    4.0034   -0.9017 H   0  0  0  0  0  0  0  0  0  0  0  0
    0.3973    2.7212   -2.0374 H   0  0  0  0  0  0  0  0  0  0  0  0
  5  6  2  0  0  0  0
  5  7  1  0  0  0  0
  2  3  1  0  0  0  0
  2  4  1  0  0  0  0
  2  5  1  0  0  0  0
  1  2  1  0  0  0  0
 26 27  2  0  0  0  0
 26 28  1  0  0  0  0
 23 24  1  0  0  0  0
 23 25  1  0  0  0  0
 20 21  1  0  0  0  0
 20 22  1  0  0  0  0
 20 23  1  0  0  0  0
 17 18  1  0  0  0  0
 17 19  1  0  0  0  0
 17 20  1  0  0  0  0
 14 15  1  0  0  0  0
 14 16  1  0  0  0  0
 14 17  1  0  0  0  0
 11 12  1  0  0  0  0
 11 13  1  0  0  0  0
 11 14  1  0  0  0  0
  9 10  1  0  0  0  0
  9 11  1  0  0  0  0
  9 26  1  0  0  0  0
  7  8  1  0  0  0  0
  7  9  1  0  0  0  0
 30 31  1  0  0  0  0
 30 32  1  0  0  0  0
 30 33  1  0  0  0  0
 28 29  1  0  0  0  0
 28 30  1  0  0  0  0
M  END
$$$$
default_name
  -OEChem-01062215323D

 33 32  0     1  0  0  0  0  0999 V2000
   -3.8420   -3.6918    1.5562 H   0  0  0  0  0  0  0  0  0  0  0  0
   -3.8430   -2.7008    1.1032 C   0  0  0  0  0  0  0  0  0  0  0  0
   -4.5510   -2.0608    1.6242 H   0  0  0  0  0  0  0  0  0  0  0  0
   -4.1140   -2.7798    0.0522 H   0  0  0  0  0  0  0  0  0  0  0  0
   -2.4570   -2.1098    1.2172 C   0  0  0  0  0  0  0  0  0  0  0  0
   -1.5600   -2.7438    1.7572 O   0  0  0  0  0  0  0  0  0  0  0  0
   -2.2870   -0.8898    0.7102 N   0  0  0  0  0  0  0  0  0  0  0  0
   -3.0820   -0.4218    0.2992 H   0  0  0  0  0  0  0  0  0  0  0  0
   -1.0240   -0.1468    0.7262 C   0  0  1  0  0  0  0  0  0  0  0  0
   -0.9923    0.4640    1.6295 H   0  0  0  0  0  0  0  0  0  0  0  0
    0.1418   -1.1536    0.7704 C   0  0  0  0  0  0  0  0  0  0  0  0
    0.0083   -1.8750   -0.0384 H   0  0  0  0  0  0  0  0  0  0  0  0
    1.0808   -0.6242    0.6029 H   0  0  0  0  0  0  0  0  0  0  0  0
    0.2265   -1.9283    2.0948 C   0  0  0  0  0  0  0  0  0  0  0  0
    0.3471   -1.2277    2.9216 H   0  0  0  0  0  0  0  0  0  0  0  0
   -0.6951   -2.4954    2.2385 H   0  0  0  0  0  0  0  0  0  0  0  0
    1.4169   -2.8940    2.0890 C   0  0  0  0  0  0  0  0  0  0  0  0
    1.3144   -3.5970    1.2617 H   0  0  0  0  0  0  0  0  0  0  0  0
    2.3422   -2.3297    1.9696 H   0  0  0  0  0  0  0  0  0  0  0  0
    1.4630   -3.6679    3.4050 C   0  0  0  0  0  0  0  0  0  0  0  0
    1.5840   -2.9692    4.2313 H   0  0  0  0  0  0  0  0  0  0  0  0
    0.5324   -4.2180    3.5344 H   0  0  0  0  0  0  0  0  0  0  0  0
    2.5792   -4.6204    3.4236 N   0  0  0  0  0  0  0  0  0  0  0  0
    2.5876   -5.1026    4.3103 H   0  0  0  0  0  0  0  0  0  0  0  0
    2.4551   -5.2907    2.6782 H   0  0  0  0  0  0  0  0  0  0  0  0
   -0.9424    0.7863   -0.4931 C   0  0  0  0  0  0  0  0  0  0  0  0
   -1.4983    0.4765   -1.5448 O   0  0  0  0  0  0  0  0  0  0  0  0
   -0.2427    1.9180   -0.3512 N   0  0  0  0  0  0  0  0  0  0  0  0
    0.1710    2.1073    0.5469 H   0  0  0  0  0  0  0  0  0  0  0  0
   -0.0563    2.9013   -1.4171 C   0  0  0  0  0  0  0  0  0  0  0  0
   -1.0284    3.2168   -1.8022 H   0  0  0  0  0  0  0  0  0  0  0  0
    0.4817    3.7723   -1.0402 H   0  0  0  0  0  0  0  0  0  0  0  0
    0.5107    2.4526   -2.2354 H   0  0  0  0  0  0  0  0  0  0  0  0
  5  6  2  0  0  0  0
  5  7  1  0  0  0  0
  2  3  1  0  0  0  0
  2  4  1  0  0  0  0
  2  5  1  0  0  0  0
  1  2  1  0  0  0  0
 26 27  2  0  0  0  0
 26 28  1  0  0  0  0
 23 24  1  0  0  0  0
 23 25  1  0  0  0  0
 20 21  1  0  0  0  0
 20 22  1  0  0  0  0
 20 23  1  0  0  0  0
 17 18  1  0  0  0  0
 17 19  1  0  0  0  0
 17 20  1  0  0  0  0
 14 15  1  0  0  0  0
 14 16  1  0  0  0  0
 14 17  1  0  0  0  0
 11 12  1  0  0  0  0
 11 13  1  0  0  0  0
 11 14  1  0  0  0  0
  9 10  1  0  0  0  0
  9 11  1  0  0  0  0
  9 26  1  0  0  0  0
  7  8  1  0  0  0  0
  7  9  1  0  0  0  0
 30 31  1  0  0  0  0
 30 32  1  0  0  0  0
 30 33  1  0  0  0  0
 28 29  1  0  0  0  0
 28 30  1  0  0  0  0
M  END
$$$$
default_name
  -OEChem-01062215323D

 33 32  0     1  0  0  0  0  0999 V2000
   -3.8420   -3.6918    1.5562 H   0  0  0  0  0  0  0  0  0  0  0  0
   -3.8430   -2.7008    1.1032 C   0  0  0  0  0  0  0  0  0  0  0  0
   -4.5510   -2.0608    1.6242 H   0  0  0  0  0  0  0  0  0  0  0  0
   -4.1140   -2.7798    0.0522 H   0  0  0  0  0  0  0  0  0  0  0  0
   -2.4570   -2.1098    1.2172 C   0  0  0  0  0  0  0  0  0  0  0  0
   -1.5600   -2.7438    1.7572 O   0  0  0  0  0  0  0  0  0  0  0  0
   -2.2870   -0.8898    0.7102 N   0  0  0  0  0  0  0  0  0  0  0  0
   -3.0820   -0.4218    0.2992 H   0  0  0  0  0  0  0  0  0  0  0  0
   -1.0240   -0.1468    0.7262 C   0  0  1  0  0  0  0  0  0  0  0  0
   -0.9923    0.4640    1.6295 H   0  0  0  0  0  0  0  0  0  0  0  0
    0.1418   -1.1536    0.7704 C   0  0  0  0  0  0  0  0  0  0  0  0
    0.0083   -1.8750   -0.0384 H   0  0  0  0  0  0  0  0  0  0  0  0
    1.0808   -0.6242    0.6029 H   0  0  0  0  0  0  0  0  0  0  0  0
    0.2265   -1.9283    2.0948 C   0  0  0  0  0  0  0  0  0  0  0  0
    0.3471   -1.2277    2.9216 H   0  0  0  0  0  0  0  0  0  0  0  0
   -0.6951   -2.4954    2.2385 H   0  0  0  0  0  0  0  0  0  0  0  0
    1.4169   -2.8940    2.0890 C   0  0  0  0  0  0  0  0  0  0  0  0
    1.3144   -3.5970    1.2617 H   0  0  0  0  0  0  0  0  0  0  0  0
    2.3422   -2.3297    1.9696 H   0  0  0  0  0  0  0  0  0  0  0  0
    1.4630   -3.6679    3.4050 C   0  0  0  0  0  0  0  0  0  0  0  0
    1.5840   -2.9692    4.2313 H   0  0  0  0  0  0  0  0  0  0  0  0
    0.5324   -4.2180    3.5344 H   0  0  0  0  0  0  0  0  0  0  0  0
    2.5792   -4.6204    3.4236 N   0  0  0  0  0  0  0  0  0  0  0  0
    2.5876   -5.1026    4.3103 H   0  0  0  0  0  0  0  0  0  0  0  0
    2.4551   -5.2907    2.6782 H   0  0  0  0  0  0  0  0  0  0  0  0
   -0.9424    0.7863   -0.4931 C   0  0  0  0  0  0  0  0  0  0  0  0
   -1.7070    0.6283   -1.4425 O   0  0  0  0  0  0  0  0  0  0  0  0
   -0.0108    1.7465   -0.4669 N   0  0  0  0  0  0  0  0  0  0  0  0
    0.5677    1.8202    0.3538 H   0  0  0  0  0  0  0  0  0  0  0  0
    0.2063    2.7027   -1.5514 C   0  0  0  0  0  0  0  0  0  0  0  0
   -0.7276    3.2216   -1.7784 H   0  0  0  0  0  0  0  0  0  0  0  0
    0.9643    3.4338   -1.2669 H   0  0  0  0  0  0  0  0  0  0  0  0
    0.5341    2.1726   -2.4481 H   0  0  0  0  0  0  0  0  0  0  0  0
  5  6  2  0  0  0  0
  5  7  1  0  0  0  0
  2  3  1  0  0  0  0
  2  4  1  0  0  0  0
  2  5  1  0  0  0  0
  1  2  1  0  0  0  0
 26 27  2  0  0  0  0
 26 28  1  0  0  0  0
 23 24  1  0  0  0  0
 23 25  1  0  0  0  0
 20 21  1  0  0  0  0
 20 22  1  0  0  0  0
 20 23  1  0  0  0  0
 17 18  1  0  0  0  0
 17 19  1  0  0  0  0
 17 20  1  0  0  0  0
 14 15  1  0  0  0  0
 14 16  1  0  0  0  0
 14 17  1  0  0  0  0
 11 12  1  0  0  0  0
 11 13  1  0  0  0  0
 11 14  1  0  0  0  0
  9 10  1  0  0  0  0
  9 11  1  0  0  0  0
  9 26  1  0  0  0  0
  7  8  1  0  0  0  0
  7  9  1  0  0  0  0
 30 31  1  0  0  0  0
 30 32  1  0  0  0  0
 30 33  1  0  0  0  0
 28 29  1  0  0  0  0
 28 30  1  0  0  0  0
M  END
$$$$
default_name
  -OEChem-01062215323D

 33 32  0     1  0  0  0  0  0999 V2000
   -3.8420   -3.6918    1.5562 H   0  0  0  0  0  0  0  0  0  0  0  0
   -3.8430   -2.7008    1.1032 C   0  0  0  0  0  0  0  0  0  0  0  0
   -4.5510   -2.0608    1.6242 H   0  0  0  0  0  0  0  0  0  0  0  0
   -4.1140   -2.7798    0.0522 H   0  0  0  0  0  0  0  0  0  0  0  0
   -2.4570   -2.1098    1.2172 C   0  0  0  0  0  0  0  0  0  0  0  0
   -1.5600   -2.7438    1.7572 O   0  0  0  0  0  0  0  0  0  0  0  0
   -2.2870   -0.8898    0.7102 N   0  0  0  0  0  0  0  0  0  0  0  0
   -3.0820   -0.4218    0.2992 H   0  0  0  0  0  0  0  0  0  0  0  0
   -1.0240   -0.1468    0.7262 C   0  0  1  0  0  0  0  0  0  0  0  0
   -0.8664    0.2478    1.7310 H   0  0  0  0  0  0  0  0  0  0  0  0
    0.1253   -1.1173    0.3915 C   0  0  0  0  0  0  0  0  0  0  0  0
   -0.1222   -1.6425   -0.5333 H   0  0  0  0  0  0  0  0  0  0  0  0
    1.0404   -0.5473    0.2250 H   0  0  0  0  0  0  0  0  0  0  0  0
    0.3740   -2.1661    1.4868 C   0  0  0  0  0  0  0  0  0  0  0  0
    0.6108   -1.6654    2.4260 H   0  0  0  0  0  0  0  0  0  0  0  0
   -0.5274   -2.7672    1.6195 H   0  0  0  0  0  0  0  0  0  0  0  0
    1.5416   -3.0849    1.1097 C   0  0  0  0  0  0  0  0  0  0  0  0
    1.3228   -3.5876    0.1671 H   0  0  0  0  0  0  0  0  0  0  0  0
    2.4500   -2.4919    0.9993 H   0  0  0  0  0  0  0  0  0  0  0  0
    1.7512   -4.1318    2.2021 C   0  0  0  0  0  0  0  0  0  0  0  0
    1.9881   -3.6327    3.1403 H   0  0  0  0  0  0  0  0  0  0  0  0
    0.8391   -4.7133    2.3260 H   0  0  0  0  0  0  0  0  0  0  0  0
    2.8485   -5.0445    1.8612 N   0  0  0  0  0  0  0  0  0  0  0  0
    2.9677   -5.7120    2.6090 H   0  0  0  0  0  0  0  0  0  0  0  0
    2.6194   -5.5339    1.0079 H   0  0  0  0  0  0  0  0  0  0  0  0
   -1.0922    1.0359   -0.2540 C   0  0  0  0  0  0  0  0  0  0  0  0
   -2.1101    1.2308   -0.9149 O   0  0  0  0  0  0  0  0  0  0  0  0
   -0.0071    1.8127   -0.3512 N   0  0  0  0  0  0  0  0  0  0  0  0
    0.7822    1.5961    0.2351 H   0  0  0  0  0  0  0  0  0  0  0  0
    0.0945    2.9645   -1.2461 C   0  0  0  0  0  0  0  0  0  0  0  0
   -0.7303    3.6543   -1.0548 H   0  0  0  0  0  0  0  0  0  0  0  0
    1.0414    3.4835   -1.0908 H   0  0  0  0  0  0  0  0  0  0  0  0
    0.0318    2.6298   -2.2836 H   0  0  0  0  0  0  0  0  0  0  0  0
  5  6  2  0  0  0  0
  5  7  1  0  0  0  0
  2  3  1  0  0  0  0
  2  4  1  0  0  0  0
  2  5  1  0  0  0  0
  1  2  1  0  0  0  0
 26 27  2  0  0  0  0
 26 28  1  0  0  0  0
 23 24  1  0  0  0  0
 23 25  1  0  0  0  0
 20 21  1  0  0  0  0
 20 22  1  0  0  0  0
 20 23  1  0  0  0  0
 17 18  1  0  0  0  0
 17 19  1  0  0  0  0
 17 20  1  0  0  0  0
 14 15  1  0  0  0  0
 14 16  1  0  0  0  0
 14 17  1  0  0  0  0
 11 12  1  0  0  0  0
 11 13  1  0  0  0  0
 11 14  1  0  0  0  0
  9 10  1  0  0  0  0
  9 11  1  0  0  0  0
  9 26  1  0  0  0  0
  7  8  1  0  0  0  0
  7  9  1  0  0  0  0
 30 31  1  0  0  0  0
 30 32  1  0  0  0  0
 30 33  1  0  0  0  0
 28 29  1  0  0  0  0
 28 30  1  0  0  0  0
M  END
$$$$
default_name
  -OEChem-01062215323D

 33 32  0     1  0  0  0  0  0999 V2000
   -3.8420   -3.6918    1.5562 H   0  0  0  0  0  0  0  0  0  0  0  0
   -3.8430   -2.7008    1.1032 C   0  0  0  0  0  0  0  0  0  0  0  0
   -4.5510   -2.0608    1.6242 H   0  0  0  0  0  0  0  0  0  0  0  0
   -4.1140   -2.7798    0.0522 H   0  0  0  0  0  0  0  0  0  0  0  0
   -2.4570   -2.1098    1.2172 C   0  0  0  0  0  0  0  0  0  0  0  0
   -1.5600   -2.7438    1.7572 O   0  0  0  0  0  0  0  0  0  0  0  0
   -2.2870   -0.8898    0.7102 N   0  0  0  0  0  0  0  0  0  0  0  0
   -3.0820   -0.4218    0.2992 H   0  0  0  0  0  0  0  0  0  0  0  0
   -1.0240   -0.1468    0.7262 C   0  0  1  0  0  0  0  0  0  0  0  0
   -0.8664    0.2478    1.7310 H   0  0  0  0  0  0  0  0  0  0  0  0
    0.1253   -1.1173    0.3915 C   0  0  0  0  0  0  0  0  0  0  0  0
   -0.1222   -1.6425   -0.5333 H   0  0  0  0  0  0  0  0  0  0  0  0
    1.0404   -0.5473    0.2250 H   0  0  0  0  0  0  0  0  0  0  0  0
    0.3740   -2.1661    1.4868 C   0  0  0  0  0  0  0  0  0  0  0  0
    0.6108   -1.6654    2.4260 H   0  0  0  0  0  0  0  0  0  0  0  0
   -0.5274   -2.7672    1.6195 H   0  0  0  0  0  0  0  0  0  0  0  0
    1.5416   -3.0849    1.1097 C   0  0  0  0  0  0  0  0  0  0  0  0
    1.3228   -3.5876    0.1671 H   0  0  0  0  0  0  0  0  0  0  0  0
    2.4500   -2.4919    0.9993 H   0  0  0  0  0  0  0  0  0  0  0  0
    1.7512   -4.1318    2.2021 C   0  0  0  0  0  0  0  0  0  0  0  0
    1.9881   -3.6327    3.1403 H   0  0  0  0  0  0  0  0  0  0  0  0
    0.8391   -4.7133    2.3260 H   0  0  0  0  0  0  0  0  0  0  0  0
    2.8485   -5.0445    1.8612 N   0  0  0  0  0  0  0  0  0  0  0  0
    2.9677   -5.7120    2.6090 H   0  0  0  0  0  0  0  0  0  0  0  0
    2.6194   -5.5339    1.0079 H   0  0  0  0  0  0  0  0  0  0  0  0
   -1.0922    1.0359   -0.2540 C   0  0  0  0  0  0  0  0  0  0  0  0
   -2.1757    1.4007   -0.7054 O   0  0  0  0  0  0  0  0  0  0  0  0
    0.0638    1.6221   -0.5861 N   0  0  0  0  0  0  0  0  0  0  0  0
    0.9081    1.2743   -0.1619 H   0  0  0  0  0  0  0  0  0  0  0  0
    0.1717    2.7456   -1.5155 C   0  0  0  0  0  0  0  0  0  0  0  0
   -0.4738    3.5620   -1.1841 H   0  0  0  0  0  0  0  0  0  0  0  0
    1.2025    3.0993   -1.5656 H   0  0  0  0  0  0  0  0  0  0  0  0
   -0.1513    2.4314   -2.5102 H   0  0  0  0  0  0  0  0  0  0  0  0
  5  6  2  0  0  0  0
  5  7  1  0  0  0  0
  2  3  1  0  0  0  0
  2  4  1  0  0  0  0
  2  5  1  0  0  0  0
  1  2  1  0  0  0  0
 26 27  2  0  0  0  0
 26 28  1  0  0  0  0
 23 24  1  0  0  0  0
 23 25  1  0  0  0  0
 20 21  1  0  0  0  0
 20 22  1  0  0  0  0
 20 23  1  0  0  0  0
 17 18  1  0  0  0  0
 17 19  1  0  0  0  0
 17 20  1  0  0  0  0
 14 15  1  0  0  0  0
 14 16  1  0  0  0  0
 14 17  1  0  0  0  0
 11 12  1  0  0  0  0
 11 13  1  0  0  0  0
 11 14  1  0  0  0  0
  9 10  1  0  0  0  0
  9 11  1  0  0  0  0
  9 26  1  0  0  0  0
  7  8  1  0  0  0  0
  7  9  1  0  0  0  0
 30 31  1  0  0  0  0
 30 32  1  0  0  0  0
 30 33  1  0  0  0  0
 28 29  1  0  0  0  0
 28 30  1  0  0  0  0
M  END
$$$$
default_name
  -OEChem-01062215323D

 33 32  0     1  0  0  0  0  0999 V2000
   -3.8420   -3.6918    1.5562 H   0  0  0  0  0  0  0  0  0  0  0  0
   -3.8430   -2.7008    1.1032 C   0  0  0  0  0  0  0  0  0  0  0  0
   -4.5510   -2.0608    1.6242 H   0  0  0  0  0  0  0  0  0  0  0  0
   -4.1140   -2.7798    0.0522 H   0  0  0  0  0  0  0  0  0  0  0  0
   -2.4570   -2.1098    1.2172 C   0  0  0  0  0  0  0  0  0  0  0  0
   -1.5600   -2.7438    1.7572 O   0  0  0  0  0  0  0  0  0  0  0  0
   -2.2870   -0.8898    0.7102 N   0  0  0  0  0  0  0  0  0  0  0  0
   -3.0820   -0.4218    0.2992 H   0  0  0  0  0  0  0  0  0  0  0  0
   -1.0240   -0.1468    0.7262 C   0  0  1  0  0  0  0  0  0  0  0  0
   -0.8664    0.2478    1.7310 H   0  0  0  0  0  0  0  0  0  0  0  0
    0.1253   -1.1173    0.3915 C   0  0  0  0  0  0  0  0  0  0  0  0
   -0.1222   -1.6425   -0.5333 H   0  0  0  0  0  0  0  0  0  0  0  0
    1.0404   -0.5473    0.2250 H   0  0  0  0  0  0  0  0  0  0  0  0
    0.3740   -2.1661    1.4868 C   0  0  0  0  0  0  0  0  0  0  0  0
    0.6108   -1.6654    2.4260 H   0  0  0  0  0  0  0  0  0  0  0  0
   -0.5274   -2.7672    1.6195 H   0  0  0  0  0  0  0  0  0  0  0  0
    1.5416   -3.0849    1.1097 C   0  0  0  0  0  0  0  0  0  0  0  0
    1.3228   -3.5876    0.1671 H   0  0  0  0  0  0  0  0  0  0  0  0
    2.4500   -2.4919    0.9993 H   0  0  0  0  0  0  0  0  0  0  0  0
    1.7512   -4.1318    2.2021 C   0  0  0  0  0  0  0  0  0  0  0  0
    1.9881   -3.6327    3.1403 H   0  0  0  0  0  0  0  0  0  0  0  0
    0.8391   -4.7133    2.3260 H   0  0  0  0  0  0  0  0  0  0  0  0
    2.8485   -5.0445    1.8612 N   0  0  0  0  0  0  0  0  0  0  0  0
    2.9677   -5.7120    2.6090 H   0  0  0  0  0  0  0  0  0  0  0  0
    2.6194   -5.5339    1.0079 H   0  0  0  0  0  0  0  0  0  0  0  0
   -1.0922    1.0359   -0.2540 C   0  0  0  0  0  0  0  0  0  0  0  0
   -2.1694    1.5780   -0.4919 O   0  0  0  0  0  0  0  0  0  0  0  0
    0.0541    1.4236   -0.8249 N   0  0  0  0  0  0  0  0  0  0  0  0
    0.8975    0.9381   -0.5668 H   0  0  0  0  0  0  0  0  0  0  0  0
    0.1564    2.5184   -1.7886 C   0  0  0  0  0  0  0  0  0  0  0  0
   -0.2671    3.4289   -1.3590 H   0  0  0  0  0  0  0  0  0  0  0  0
    1.2001    2.6962   -2.0518 H   0  0  0  0  0  0  0  0  0  0  0  0
   -0.4060    2.2674   -2.6903 H   0  0  0  0  0  0  0  0  0  0  0  0
  5  6  2  0  0  0  0
  5  7  1  0  0  0  0
  2  3  1  0  0  0  0
  2  4  1  0  0  0  0
  2  5  1  0  0  0  0
  1  2  1  0  0  0  0
 26 27  2  0  0  0  0
 26 28  1  0  0  0  0
 23 24  1  0  0  0  0
 23 25  1  0  0  0  0
 20 21  1  0  0  0  0
 20 22  1  0  0  0  0
 20 23  1  0  0  0  0
 17 18  1  0  0  0  0
 17 19  1  0  0  0  0
 17 20  1  0  0  0  0
 14 15  1  0  0  0  0
 14 16  1  0  0  0  0
 14 17  1  0  0  0  0
 11 12  1  0  0  0  0
 11 13  1  0  0  0  0
 11 14  1  0  0  0  0
  9 10  1  0  0  0  0
  9 11  1  0  0  0  0
  9 26  1  0  0  0  0
  7  8  1  0  0  0  0
  7  9  1  0  0  0  0
 30 31  1  0  0  0  0
 30 32  1  0  0  0  0
 30 33  1  0  0  0  0
 28 29  1  0  0  0  0
 28 30  1  0  0  0  0
M  END
$$$$
default_name
  -OEChem-01062215323D

 33 32  0     1  0  0  0  0  0999 V2000
   -3.8420   -3.6918    1.5562 H   0  0  0  0  0  0  0  0  0  0  0  0
   -3.8430   -2.7008    1.1032 C   0  0  0  0  0  0  0  0  0  0  0  0
   -4.5510   -2.0608    1.6242 H   0  0  0  0  0  0  0  0  0  0  0  0
   -4.1140   -2.7798    0.0522 H   0  0  0  0  0  0  0  0  0  0  0  0
   -2.4570   -2.1098    1.2172 C   0  0  0  0  0  0  0  0  0  0  0  0
   -1.5600   -2.7438    1.7572 O   0  0  0  0  0  0  0  0  0  0  0  0
   -2.2870   -0.8898    0.7102 N   0  0  0  0  0  0  0  0  0  0  0  0
   -3.0820   -0.4218    0.2992 H   0  0  0  0  0  0  0  0  0  0  0  0
   -1.0240   -0.1468    0.7262 C   0  0  1  0  0  0  0  0  0  0  0  0
   -0.8664    0.2478    1.7310 H   0  0  0  0  0  0  0  0  0  0  0  0
    0.1253   -1.1173    0.3915 C   0  0  0  0  0  0  0  0  0  0  0  0
   -0.1222   -1.6425   -0.5333 H   0  0  0  0  0  0  0  0  0  0  0  0
    1.0404   -0.5473    0.2250 H   0  0  0  0  0  0  0  0  0  0  0  0
    0.3740   -2.1661    1.4868 C   0  0  0  0  0  0  0  0  0  0  0  0
    0.6108   -1.6654    2.4260 H   0  0  0  0  0  0  0  0  0  0  0  0
   -0.5274   -2.7672    1.6195 H   0  0  0  0  0  0  0  0  0  0  0  0
    1.5416   -3.0849    1.1097 C   0  0  0  0  0  0  0  0  0  0  0  0
    1.3228   -3.5876    0.1671 H   0  0  0  0  0  0  0  0  0  0  0  0
    2.4500   -2.4919    0.9993 H   0  0  0  0  0  0  0  0  0  0  0  0
    1.7512   -4.1318    2.2021 C   0  0  0  0  0  0  0  0  0  0  0  0
    1.9881   -3.6327    3.1403 H   0  0  0  0  0  0  0  0  0  0  0  0
    0.8391   -4.7133    2.3260 H   0  0  0  0  0  0  0  0  0  0  0  0
    2.8485   -5.0445    1.8612 N   0  0  0  0  0  0  0  0  0  0  0  0
    2.9677   -5.7120    2.6090 H   0  0  0  0  0  0  0  0  0  0  0  0
    2.6194   -5.5339    1.0079 H   0  0  0  0  0  0  0  0  0  0  0  0
   -1.0922    1.0359   -0.2540 C   0  0  0  0  0  0  0  0  0  0  0  0
   -2.0916    1.7507   -0.2890 O   0  0  0  0  0  0  0  0  0  0  0  0
   -0.0355    1.2307   -1.0514 N   0  0  0  0  0  0  0  0  0  0  0  0
    0.7513    0.6105   -0.9519 H   0  0  0  0  0  0  0  0  0  0  0  0
    0.0499    2.2983   -2.0467 C   0  0  0  0  0  0  0  0  0  0  0  0
   -0.1241    3.2643   -1.5676 H   0  0  0  0  0  0  0  0  0  0  0  0
    1.0345    2.3016   -2.5164 H   0  0  0  0  0  0  0  0  0  0  0  0
   -0.7149    2.1490   -2.8117 H   0  0  0  0  0  0  0  0  0  0  0  0
  5  6  2  0  0  0  0
  5  7  1  0  0  0  0
  2  3  1  0  0  0  0
  2  4  1  0  0  0  0
  2  5  1  0  0  0  0
  1  2  1  0  0  0  0
 26 27  2  0  0  0  0
 26 28  1  0  0  0  0
 23 24  1  0  0  0  0
 23 25  1  0  0  0  0
 20 21  1  0  0  0  0
 20 22  1  0  0  0  0
 20 23  1  0  0  0  0
 17 18  1  0  0  0  0
 17 19  1  0  0  0  0
 17 20  1  0  0  0  0
 14 15  1  0  0  0  0
 14 16  1  0  0  0  0
 14 17  1  0  0  0  0
 11 12  1  0  0  0  0
 11 13  1  0  0  0  0
 11 14  1  0  0  0  0
  9 10  1  0  0  0  0
  9 11  1  0  0  0  0
  9 26  1  0  0  0  0
  7  8  1  0  0  0  0
  7  9  1  0  0  0  0
 30 31  1  0  0  0  0
 30 32  1  0  0  0  0
 30 33  1  0  0  0  0
 28 29  1  0  0  0  0
 28 30  1  0  0  0  0
M  END
$$$$
default_name
  -OEChem-01062215323D

 33 32  0     1  0  0  0  0  0999 V2000
   -3.8420   -3.6918    1.5562 H   0  0  0  0  0  0  0  0  0  0  0  0
   -3.8430   -2.7008    1.1032 C   0  0  0  0  0  0  0  0  0  0  0  0
   -4.5510   -2.0608    1.6242 H   0  0  0  0  0  0  0  0  0  0  0  0
   -4.1140   -2.7798    0.0522 H   0  0  0  0  0  0  0  0  0  0  0  0
   -2.4570   -2.1098    1.2172 C   0  0  0  0  0  0  0  0  0  0  0  0
   -1.5600   -2.7438    1.7572 O   0  0  0  0  0  0  0  0  0  0  0  0
   -2.2870   -0.8898    0.7102 N   0  0  0  0  0  0  0  0  0  0  0  0
   -3.0820   -0.4218    0.2992 H   0  0  0  0  0  0  0  0  0  0  0  0
   -1.0240   -0.1468    0.7262 C   0  0  1  0  0  0  0  0  0  0  0  0
   -0.8664    0.2478    1.7310 H   0  0  0  0  0  0  0  0  0  0  0  0
    0.1253   -1.1173    0.3915 C   0  0  0  0  0  0  0  0  0  0  0  0
   -0.1222   -1.6425   -0.5333 H   0  0  0  0  0  0  0  0  0  0  0  0
    1.0404   -0.5473    0.2250 H   0  0  0  0  0  0  0  0  0  0  0  0
    0.3740   -2.1661    1.4868 C   0  0  0  0  0  0  0  0  0  0  0  0
    0.6108   -1.6654    2.4260 H   0  0  0  0  0  0  0  0  0  0  0  0
   -0.5274   -2.7672    1.6195 H   0  0  0  0  0  0  0  0  0  0  0  0
    1.5416   -3.0849    1.1097 C   0  0  0  0  0  0  0  0  0  0  0  0
    1.3228   -3.5876    0.1671 H   0  0  0  0  0  0  0  0  0  0  0  0
    2.4500   -2.4919    0.9993 H   0  0  0  0  0  0  0  0  0  0  0  0
    1.7512   -4.1318    2.2021 C   0  0  0  0  0  0  0  0  0  0  0  0
    1.9881   -3.6327    3.1403 H   0  0  0  0  0  0  0  0  0  0  0  0
    0.8391   -4.7133    2.3260 H   0  0  0  0  0  0  0  0  0  0  0  0
    2.8485   -5.0445    1.8612 N   0  0  0  0  0  0  0  0  0  0  0  0
    2.9677   -5.7120    2.6090 H   0  0  0  0  0  0  0  0  0  0  0  0
    2.6194   -5.5339    1.0079 H   0  0  0  0  0  0  0  0  0  0  0  0
   -1.0922    1.0359   -0.2540 C   0  0  0  0  0  0  0  0  0  0  0  0
   -1.9475    1.9070   -0.1104 O   0  0  0  0  0  0  0  0  0  0  0  0
   -0.1991    1.0566   -1.2501 N   0  0  0  0  0  0  0  0  0  0  0  0
    0.4793    0.3137   -1.2910 H   0  0  0  0  0  0  0  0  0  0  0  0
   -0.1407    2.1003   -2.2723 C   0  0  0  0  0  0  0  0  0  0  0  0
   -0.0547    3.0793   -1.7956 H   0  0  0  0  0  0  0  0  0  0  0  0
    0.7170    1.9424   -2.9277 H   0  0  0  0  0  0  0  0  0  0  0  0
   -1.0570    2.0842   -2.8661 H   0  0  0  0  0  0  0  0  0  0  0  0
  5  6  2  0  0  0  0
  5  7  1  0  0  0  0
  2  3  1  0  0  0  0
  2  4  1  0  0  0  0
  2  5  1  0  0  0  0
  1  2  1  0  0  0  0
 26 27  2  0  0  0  0
 26 28  1  0  0  0  0
 23 24  1  0  0  0  0
 23 25  1  0  0  0  0
 20 21  1  0  0  0  0
 20 22  1  0  0  0  0
 20 23  1  0  0  0  0
 17 18  1  0  0  0  0
 17 19  1  0  0  0  0
 17 20  1  0  0  0  0
 14 15  1  0  0  0  0
 14 16  1  0  0  0  0
 14 17  1  0  0  0  0
 11 12  1  0  0  0  0
 11 13  1  0  0  0  0
 11 14  1  0  0  0  0
  9 10  1  0  0  0  0
  9 11  1  0  0  0  0
  9 26  1  0  0  0  0
  7  8  1  0  0  0  0
  7  9  1  0  0  0  0
 30 31  1  0  0  0  0
 30 32  1  0  0  0  0
 30 33  1  0  0  0  0
 28 29  1  0  0  0  0
 28 30  1  0  0  0  0
M  END
$$$$
default_name
  -OEChem-01062215323D

 33 32  0     1  0  0  0  0  0999 V2000
   -3.8420   -3.6918    1.5562 H   0  0  0  0  0  0  0  0  0  0  0  0
   -3.8430   -2.7008    1.1032 C   0  0  0  0  0  0  0  0  0  0  0  0
   -4.5510   -2.0608    1.6242 H   0  0  0  0  0  0  0  0  0  0  0  0
   -4.1140   -2.7798    0.0522 H   0  0  0  0  0  0  0  0  0  0  0  0
   -2.4570   -2.1098    1.2172 C   0  0  0  0  0  0  0  0  0  0  0  0
   -1.5600   -2.7438    1.7572 O   0  0  0  0  0  0  0  0  0  0  0  0
   -2.2870   -0.8898    0.7102 N   0  0  0  0  0  0  0  0  0  0  0  0
   -3.0820   -0.4218    0.2992 H   0  0  0  0  0  0  0  0  0  0  0  0
   -1.0240   -0.1468    0.7262 C   0  0  1  0  0  0  0  0  0  0  0  0
   -0.8664    0.2478    1.7310 H   0  0  0  0  0  0  0  0  0  0  0  0
    0.1253   -1.1173    0.3915 C   0  0  0  0  0  0  0  0  0  0  0  0
   -0.1222   -1.6425   -0.5333 H   0  0  0  0  0  0  0  0  0  0  0  0
    1.0404   -0.5473    0.2250 H   0  0  0  0  0  0  0  0  0  0  0  0
    0.3740   -2.1661    1.4868 C   0  0  0  0  0  0  0  0  0  0  0  0
    0.6108   -1.6654    2.4260 H   0  0  0  0  0  0  0  0  0  0  0  0
   -0.5274   -2.7672    1.6195 H   0  0  0  0  0  0  0  0  0  0  0  0
    1.5416   -3.0849    1.1097 C   0  0  0  0  0  0  0  0  0  0  0  0
    1.3228   -3.5876    0.1671 H   0  0  0  0  0  0  0  0  0  0  0  0
    2.4500   -2.4919    0.9993 H   0  0  0  0  0  0  0  0  0  0  0  0
    1.7512   -4.1318    2.2021 C   0  0  0  0  0  0  0  0  0  0  0  0
    1.9881   -3.6327    3.1403 H   0  0  0  0  0  0  0  0  0  0  0  0
    0.8391   -4.7133    2.3260 H   0  0  0  0  0  0  0  0  0  0  0  0
    2.8485   -5.0445    1.8612 N   0  0  0  0  0  0  0  0  0  0  0  0
    2.9677   -5.7120    2.6090 H   0  0  0  0  0  0  0  0  0  0  0  0
    2.6194   -5.5339    1.0079 H   0  0  0  0  0  0  0  0  0  0  0  0
   -1.0922    1.0359   -0.2540 C   0  0  0  0  0  0  0  0  0  0  0  0
   -1.7469    2.0362    0.0315 O   0  0  0  0  0  0  0  0  0  0  0  0
   -0.4253    0.9131   -1.4075 N   0  0  0  0  0  0  0  0  0  0  0  0
    0.1001    0.0681   -1.5610 H   0  0  0  0  0  0  0  0  0  0  0  0
   -0.4024    1.9380   -2.4500 C   0  0  0  0  0  0  0  0  0  0  0  0
   -0.0636    2.8865   -2.0276 H   0  0  0  0  0  0  0  0  0  0  0  0
    0.2692    1.6431   -3.2576 H   0  0  0  0  0  0  0  0  0  0  0  0
   -1.4090    2.0774   -2.8498 H   0  0  0  0  0  0  0  0  0  0  0  0
  5  6  2  0  0  0  0
  5  7  1  0  0  0  0
  2  3  1  0  0  0  0
  2  4  1  0  0  0  0
  2  5  1  0  0  0  0
  1  2  1  0  0  0  0
 26 27  2  0  0  0  0
 26 28  1  0  0  0  0
 23 24  1  0  0  0  0
 23 25  1  0  0  0  0
 20 21  1  0  0  0  0
 20 22  1  0  0  0  0
 20 23  1  0  0  0  0
 17 18  1  0  0  0  0
 17 19  1  0  0  0  0
 17 20  1  0  0  0  0
 14 15  1  0  0  0  0
 14 16  1  0  0  0  0
 14 17  1  0  0  0  0
 11 12  1  0  0  0  0
 11 13  1  0  0  0  0
 11 14  1  0  0  0  0
  9 10  1  0  0  0  0
  9 11  1  0  0  0  0
  9 26  1  0  0  0  0
  7  8  1  0  0  0  0
  7  9  1  0  0  0  0
 30 31  1  0  0  0  0
 30 32  1  0  0  0  0
 30 33  1  0  0  0  0
 28 29  1  0  0  0  0
 28 30  1  0  0  0  0
M  END
$$$$
default_name
  -OEChem-01062215323D

 33 32  0     1  0  0  0  0  0999 V2000
   -3.8420   -3.6918    1.5562 H   0  0  0  0  0  0  0  0  0  0  0  0
   -3.8430   -2.7008    1.1032 C   0  0  0  0  0  0  0  0  0  0  0  0
   -4.5510   -2.0608    1.6242 H   0  0  0  0  0  0  0  0  0  0  0  0
   -4.1140   -2.7798    0.0522 H   0  0  0  0  0  0  0  0  0  0  0  0
   -2.4570   -2.1098    1.2172 C   0  0  0  0  0  0  0  0  0  0  0  0
   -1.5600   -2.7438    1.7572 O   0  0  0  0  0  0  0  0  0  0  0  0
   -2.2870   -0.8898    0.7102 N   0  0  0  0  0  0  0  0  0  0  0  0
   -3.0820   -0.4218    0.2992 H   0  0  0  0  0  0  0  0  0  0  0  0
   -1.0240   -0.1468    0.7262 C   0  0  1  0  0  0  0  0  0  0  0  0
   -0.8664    0.2478    1.7310 H   0  0  0  0  0  0  0  0  0  0  0  0
    0.1253   -1.1173    0.3915 C   0  0  0  0  0  0  0  0  0  0  0  0
   -0.1222   -1.6425   -0.5333 H   0  0  0  0  0  0  0  0  0  0  0  0
    1.0404   -0.5473    0.2250 H   0  0  0  0  0  0  0  0  0  0  0  0
    0.3740   -2.1661    1.4868 C   0  0  0  0  0  0  0  0  0  0  0  0
    0.6108   -1.6654    2.4260 H   0  0  0  0  0  0  0  0  0  0  0  0
   -0.5274   -2.7672    1.6195 H   0  0  0  0  0  0  0  0  0  0  0  0
    1.5416   -3.0849    1.1097 C   0  0  0  0  0  0  0  0  0  0  0  0
    1.3228   -3.5876    0.1671 H   0  0  0  0  0  0  0  0  0  0  0  0
    2.4500   -2.4919    0.9993 H   0  0  0  0  0  0  0  0  0  0  0  0
    1.7512   -4.1318    2.2021 C   0  0  0  0  0  0  0  0  0  0  0  0
    1.9881   -3.6327    3.1403 H   0  0  0  0  0  0  0  0  0  0  0  0
    0.8391   -4.7133    2.3260 H   0  0  0  0  0  0  0  0  0  0  0  0
    2.8485   -5.0445    1.8612 N   0  0  0  0  0  0  0  0  0  0  0  0
    2.9677   -5.7120    2.6090 H   0  0  0  0  0  0  0  0  0  0  0  0
    2.6194   -5.5339    1.0079 H   0  0  0  0  0  0  0  0  0  0  0  0
   -1.0922    1.0359   -0.2540 C   0  0  0  0  0  0  0  0  0  0  0  0
   -1.5037    2.1296    0.1273 O   0  0  0  0  0  0  0  0  0  0  0  0
   -0.6988    0.8100   -1.5128 N   0  0  0  0  0  0  0  0  0  0  0  0
   -0.3604   -0.1097   -1.7435 H   0  0  0  0  0  0  0  0  0  0  0  0
   -0.7174    1.8223   -2.5677 C   0  0  0  0  0  0  0  0  0  0  0  0
   -0.1502    2.6991   -2.2477 H   0  0  0  0  0  0  0  0  0  0  0  0
   -0.2785    1.4242   -3.4837 H   0  0  0  0  0  0  0  0  0  0  0  0
   -1.7468    2.1291   -2.7639 H   0  0  0  0  0  0  0  0  0  0  0  0
  5  6  2  0  0  0  0
  5  7  1  0  0  0  0
  2  3  1  0  0  0  0
  2  4  1  0  0  0  0
  2  5  1  0  0  0  0
  1  2  1  0  0  0  0
 26 27  2  0  0  0  0
 26 28  1  0  0  0  0
 23 24  1  0  0  0  0
 23 25  1  0  0  0  0
 20 21  1  0  0  0  0
 20 22  1  0  0  0  0
 20 23  1  0  0  0  0
 17 18  1  0  0  0  0
 17 19  1  0  0  0  0
 17 20  1  0  0  0  0
 14 15  1  0  0  0  0
 14 16  1  0  0  0  0
 14 17  1  0  0  0  0
 11 12  1  0  0  0  0
 11 13  1  0  0  0  0
 11 14  1  0  0  0  0
  9 10  1  0  0  0  0
  9 11  1  0  0  0  0
  9 26  1  0  0  0  0
  7  8  1  0  0  0  0
  7  9  1  0  0  0  0
 30 31  1  0  0  0  0
 30 32  1  0  0  0  0
 30 33  1  0  0  0  0
 28 29  1  0  0  0  0
 28 30  1  0  0  0  0
M  END
$$$$
default_name
  -OEChem-01062215323D

 33 32  0     1  0  0  0  0  0999 V2000
   -3.8420   -3.6918    1.5562 H   0  0  0  0  0  0  0  0  0  0  0  0
   -3.8430   -2.7008    1.1032 C   0  0  0  0  0  0  0  0  0  0  0  0
   -4.5510   -2.0608    1.6242 H   0  0  0  0  0  0  0  0  0  0  0  0
   -4.1140   -2.7798    0.0522 H   0  0  0  0  0  0  0  0  0  0  0  0
   -2.4570   -2.1098    1.2172 C   0  0  0  0  0  0  0  0  0  0  0  0
   -1.5600   -2.7438    1.7572 O   0  0  0  0  0  0  0  0  0  0  0  0
   -2.2870   -0.8898    0.7102 N   0  0  0  0  0  0  0  0  0  0  0  0
   -3.0820   -0.4218    0.2992 H   0  0  0  0  0  0  0  0  0  0  0  0
   -1.0240   -0.1468    0.7262 C   0  0  1  0  0  0  0  0  0  0  0  0
   -0.8664    0.2478    1.7310 H   0  0  0  0  0  0  0  0  0  0  0  0
    0.1253   -1.1173    0.3915 C   0  0  0  0  0  0  0  0  0  0  0  0
   -0.1222   -1.6425   -0.5333 H   0  0  0  0  0  0  0  0  0  0  0  0
    1.0404   -0.5473    0.2250 H   0  0  0  0  0  0  0  0  0  0  0  0
    0.3740   -2.1661    1.4868 C   0  0  0  0  0  0  0  0  0  0  0  0
    0.6108   -1.6654    2.4260 H   0  0  0  0  0  0  0  0  0  0  0  0
   -0.5274   -2.7672    1.6195 H   0  0  0  0  0  0  0  0  0  0  0  0
    1.5416   -3.0849    1.1097 C   0  0  0  0  0  0  0  0  0  0  0  0
    1.3228   -3.5876    0.1671 H   0  0  0  0  0  0  0  0  0  0  0  0
    2.4500   -2.4919    0.9993 H   0  0  0  0  0  0  0  0  0  0  0  0
    1.7512   -4.1318    2.2021 C   0  0  0  0  0  0  0  0  0  0  0  0
    1.9881   -3.6327    3.1403 H   0  0  0  0  0  0  0  0  0  0  0  0
    0.8391   -4.7133    2.3260 H   0  0  0  0  0  0  0  0  0  0  0  0
    2.8485   -5.0445    1.8612 N   0  0  0  0  0  0  0  0  0  0  0  0
    2.9677   -5.7120    2.6090 H   0  0  0  0  0  0  0  0  0  0  0  0
    2.6194   -5.5339    1.0079 H   0  0  0  0  0  0  0  0  0  0  0  0
   -1.0922    1.0359   -0.2540 C   0  0  0  0  0  0  0  0  0  0  0  0
   -1.2342    2.1808    0.1702 O   0  0  0  0  0  0  0  0  0  0  0  0
   -1.0010    0.7544   -1.5589 N   0  0  0  0  0  0  0  0  0  0  0  0
   -0.8710   -0.2076   -1.8260 H   0  0  0  0  0  0  0  0  0  0  0  0
   -1.0641    1.7611   -2.6173 C   0  0  0  0  0  0  0  0  0  0  0  0
   -0.3085    2.5298   -2.4409 H   0  0  0  0  0  0  0  0  0  0  0  0
   -0.8886    1.3004   -3.5905 H   0  0  0  0  0  0  0  0  0  0  0  0
   -2.0475    2.2358   -2.6143 H   0  0  0  0  0  0  0  0  0  0  0  0
  5  6  2  0  0  0  0
  5  7  1  0  0  0  0
  2  3  1  0  0  0  0
  2  4  1  0  0  0  0
  2  5  1  0  0  0  0
  1  2  1  0  0  0  0
 26 27  2  0  0  0  0
 26 28  1  0  0  0  0
 23 24  1  0  0  0  0
 23 25  1  0  0  0  0
 20 21  1  0  0  0  0
 20 22  1  0  0  0  0
 20 23  1  0  0  0  0
 17 18  1  0  0  0  0
 17 19  1  0  0  0  0
 17 20  1  0  0  0  0
 14 15  1  0  0  0  0
 14 16  1  0  0  0  0
 14 17  1  0  0  0  0
 11 12  1  0  0  0  0
 11 13  1  0  0  0  0
 11 14  1  0  0  0  0
  9 10  1  0  0  0  0
  9 11  1  0  0  0  0
  9 26  1  0  0  0  0
  7  8  1  0  0  0  0
  7  9  1  0  0  0  0
 30 31  1  0  0  0  0
 30 32  1  0  0  0  0
 30 33  1  0  0  0  0
 28 29  1  0  0  0  0
 28 30  1  0  0  0  0
M  END
$$$$
default_name
  -OEChem-01062215323D

 33 32  0     1  0  0  0  0  0999 V2000
   -3.8420   -3.6918    1.5562 H   0  0  0  0  0  0  0  0  0  0  0  0
   -3.8430   -2.7008    1.1032 C   0  0  0  0  0  0  0  0  0  0  0  0
   -4.5510   -2.0608    1.6242 H   0  0  0  0  0  0  0  0  0  0  0  0
   -4.1140   -2.7798    0.0522 H   0  0  0  0  0  0  0  0  0  0  0  0
   -2.4570   -2.1098    1.2172 C   0  0  0  0  0  0  0  0  0  0  0  0
   -1.5600   -2.7438    1.7572 O   0  0  0  0  0  0  0  0  0  0  0  0
   -2.2870   -0.8898    0.7102 N   0  0  0  0  0  0  0  0  0  0  0  0
   -3.0820   -0.4218    0.2992 H   0  0  0  0  0  0  0  0  0  0  0  0
   -1.0240   -0.1468    0.7262 C   0  0  1  0  0  0  0  0  0  0  0  0
   -0.8664    0.2478    1.7310 H   0  0  0  0  0  0  0  0  0  0  0  0
    0.1253   -1.1173    0.3915 C   0  0  0  0  0  0  0  0  0  0  0  0
   -0.1222   -1.6425   -0.5333 H   0  0  0  0  0  0  0  0  0  0  0  0
    1.0404   -0.5473    0.2250 H   0  0  0  0  0  0  0  0  0  0  0  0
    0.3740   -2.1661    1.4868 C   0  0  0  0  0  0  0  0  0  0  0  0
    0.6108   -1.6654    2.4260 H   0  0  0  0  0  0  0  0  0  0  0  0
   -0.5274   -2.7672    1.6195 H   0  0  0  0  0  0  0  0  0  0  0  0
    1.5416   -3.0849    1.1097 C   0  0  0  0  0  0  0  0  0  0  0  0
    1.3228   -3.5876    0.1671 H   0  0  0  0  0  0  0  0  0  0  0  0
    2.4500   -2.4919    0.9993 H   0  0  0  0  0  0  0  0  0  0  0  0
    1.7512   -4.1318    2.2021 C   0  0  0  0  0  0  0  0  0  0  0  0
    1.9881   -3.6327    3.1403 H   0  0  0  0  0  0  0  0  0  0  0  0
    0.8391   -4.7133    2.3260 H   0  0  0  0  0  0  0  0  0  0  0  0
    2.8485   -5.0445    1.8612 N   0  0  0  0  0  0  0  0  0  0  0  0
    2.9677   -5.7120    2.6090 H   0  0  0  0  0  0  0  0  0  0  0  0
    2.6194   -5.5339    1.0079 H   0  0  0  0  0  0  0  0  0  0  0  0
   -1.0922    1.0359   -0.2540 C   0  0  0  0  0  0  0  0  0  0  0  0
   -0.9569    2.1862    0.1575 O   0  0  0  0  0  0  0  0  0  0  0  0
   -1.3113    0.7499   -1.5427 N   0  0  0  0  0  0  0  0  0  0  0  0
   -1.3967   -0.2188   -1.8030 H   0  0  0  0  0  0  0  0  0  0  0  0
   -1.4190    1.7587   -2.5955 C   0  0  0  0  0  0  0  0  0  0  0  0
   -0.5279    2.3903   -2.5940 H   0  0  0  0  0  0  0  0  0  0  0  0
   -1.5196    1.2803   -3.5708 H   0  0  0  0  0  0  0  0  0  0  0  0
   -2.2906    2.3901   -2.4111 H   0  0  0  0  0  0  0  0  0  0  0  0
  5  6  2  0  0  0  0
  5  7  1  0  0  0  0
  2  3  1  0  0  0  0
  2  4  1  0  0  0  0
  2  5  1  0  0  0  0
  1  2  1  0  0  0  0
 26 27  2  0  0  0  0
 26 28  1  0  0  0  0
 23 24  1  0  0  0  0
 23 25  1  0  0  0  0
 20 21  1  0  0  0  0
 20 22  1  0  0  0  0
 20 23  1  0  0  0  0
 17 18  1  0  0  0  0
 17 19  1  0  0  0  0
 17 20  1  0  0  0  0
 14 15  1  0  0  0  0
 14 16  1  0  0  0  0
 14 17  1  0  0  0  0
 11 12  1  0  0  0  0
 11 13  1  0  0  0  0
 11 14  1  0  0  0  0
  9 10  1  0  0  0  0
  9 11  1  0  0  0  0
  9 26  1  0  0  0  0
  7  8  1  0  0  0  0
  7  9  1  0  0  0  0
 30 31  1  0  0  0  0
 30 32  1  0  0  0  0
 30 33  1  0  0  0  0
 28 29  1  0  0  0  0
 28 30  1  0  0  0  0
M  END
$$$$
default_name
  -OEChem-01062215323D

 33 32  0     1  0  0  0  0  0999 V2000
   -3.8420   -3.6918    1.5562 H   0  0  0  0  0  0  0  0  0  0  0  0
   -3.8430   -2.7008    1.1032 C   0  0  0  0  0  0  0  0  0  0  0  0
   -4.5510   -2.0608    1.6242 H   0  0  0  0  0  0  0  0  0  0  0  0
   -4.1140   -2.7798    0.0522 H   0  0  0  0  0  0  0  0  0  0  0  0
   -2.4570   -2.1098    1.2172 C   0  0  0  0  0  0  0  0  0  0  0  0
   -1.5600   -2.7438    1.7572 O   0  0  0  0  0  0  0  0  0  0  0  0
   -2.2870   -0.8898    0.7102 N   0  0  0  0  0  0  0  0  0  0  0  0
   -3.0820   -0.4218    0.2992 H   0  0  0  0  0  0  0  0  0  0  0  0
   -1.0240   -0.1468    0.7262 C   0  0  1  0  0  0  0  0  0  0  0  0
   -0.8664    0.2478    1.7310 H   0  0  0  0  0  0  0  0  0  0  0  0
    0.1253   -1.1173    0.3915 C   0  0  0  0  0  0  0  0  0  0  0  0
   -0.1222   -1.6425   -0.5333 H   0  0  0  0  0  0  0  0  0  0  0  0
    1.0404   -0.5473    0.2250 H   0  0  0  0  0  0  0  0  0  0  0  0
    0.3740   -2.1661    1.4868 C   0  0  0  0  0  0  0  0  0  0  0  0
    0.6108   -1.6654    2.4260 H   0  0  0  0  0  0  0  0  0  0  0  0
   -0.5274   -2.7672    1.6195 H   0  0  0  0  0  0  0  0  0  0  0  0
    1.5416   -3.0849    1.1097 C   0  0  0  0  0  0  0  0  0  0  0  0
    1.3228   -3.5876    0.1671 H   0  0  0  0  0  0  0  0  0  0  0  0
    2.4500   -2.4919    0.9993 H   0  0  0  0  0  0  0  0  0  0  0  0
    1.7512   -4.1318    2.2021 C   0  0  0  0  0  0  0  0  0  0  0  0
    1.9881   -3.6327    3.1403 H   0  0  0  0  0  0  0  0  0  0  0  0
    0.8391   -4.7133    2.3260 H   0  0  0  0  0  0  0  0  0  0  0  0
    2.8485   -5.0445    1.8612 N   0  0  0  0  0  0  0  0  0  0  0  0
    2.9677   -5.7120    2.6090 H   0  0  0  0  0  0  0  0  0  0  0  0
    2.6194   -5.5339    1.0079 H   0  0  0  0  0  0  0  0  0  0  0  0
   -1.0922    1.0359   -0.2540 C   0  0  0  0  0  0  0  0  0  0  0  0
   -0.6908    2.1456    0.0900 O   0  0  0  0  0  0  0  0  0  0  0  0
   -1.6085    0.7971   -1.4651 N   0  0  0  0  0  0  0  0  0  0  0  0
   -1.9018   -0.1427   -1.6760 H   0  0  0  0  0  0  0  0  0  0  0  0
   -1.7578    1.8152   -2.5038 C   0  0  0  0  0  0  0  0  0  0  0  0
   -0.7933    2.2899   -2.6967 H   0  0  0  0  0  0  0  0  0  0  0  0
   -2.1285    1.3653   -3.4259 H   0  0  0  0  0  0  0  0  0  0  0  0
   -2.4595    2.5817   -2.1683 H   0  0  0  0  0  0  0  0  0  0  0  0
  5  6  2  0  0  0  0
  5  7  1  0  0  0  0
  2  3  1  0  0  0  0
  2  4  1  0  0  0  0
  2  5  1  0  0  0  0
  1  2  1  0  0  0  0
 26 27  2  0  0  0  0
 26 28  1  0  0  0  0
 23 24  1  0  0  0  0
 23 25  1  0  0  0  0
 20 21  1  0  0  0  0
 20 22  1  0  0  0  0
 20 23  1  0  0  0  0
 17 18  1  0  0  0  0
 17 19  1  0  0  0  0
 17 20  1  0  0  0  0
 14 15  1  0  0  0  0
 14 16  1  0  0  0  0
 14 17  1  0  0  0  0
 11 12  1  0  0  0  0
 11 13  1  0  0  0  0
 11 14  1  0  0  0  0
  9 10  1  0  0  0  0
  9 11  1  0  0  0  0
  9 26  1  0  0  0  0
  7  8  1  0  0  0  0
  7  9  1  0  0  0  0
 30 31  1  0  0  0  0
 30 32  1  0  0  0  0
 30 33  1  0  0  0  0
 28 29  1  0  0  0  0
 28 30  1  0  0  0  0
M  END
$$$$
default_name
  -OEChem-01062215323D

 33 32  0     1  0  0  0  0  0999 V2000
   -3.8420   -3.6918    1.5562 H   0  0  0  0  0  0  0  0  0  0  0  0
   -3.8430   -2.7008    1.1032 C   0  0  0  0  0  0  0  0  0  0  0  0
   -4.5510   -2.0608    1.6242 H   0  0  0  0  0  0  0  0  0  0  0  0
   -4.1140   -2.7798    0.0522 H   0  0  0  0  0  0  0  0  0  0  0  0
   -2.4570   -2.1098    1.2172 C   0  0  0  0  0  0  0  0  0  0  0  0
   -1.5600   -2.7438    1.7572 O   0  0  0  0  0  0  0  0  0  0  0  0
   -2.2870   -0.8898    0.7102 N   0  0  0  0  0  0  0  0  0  0  0  0
   -3.0820   -0.4218    0.2992 H   0  0  0  0  0  0  0  0  0  0  0  0
   -1.0240   -0.1468    0.7262 C   0  0  1  0  0  0  0  0  0  0  0  0
   -0.8664    0.2478    1.7310 H   0  0  0  0  0  0  0  0  0  0  0  0
    0.1253   -1.1173    0.3915 C   0  0  0  0  0  0  0  0  0  0  0  0
   -0.1222   -1.6425   -0.5333 H   0  0  0  0  0  0  0  0  0  0  0  0
    1.0404   -0.5473    0.2250 H   0  0  0  0  0  0  0  0  0  0  0  0
    0.3740   -2.1661    1.4868 C   0  0  0  0  0  0  0  0  0  0  0  0
    0.6108   -1.6654    2.4260 H   0  0  0  0  0  0  0  0  0  0  0  0
   -0.5274   -2.7672    1.6195 H   0  0  0  0  0  0  0  0  0  0  0  0
    1.5416   -3.0849    1.1097 C   0  0  0  0  0  0  0  0  0  0  0  0
    1.3228   -3.5876    0.1671 H   0  0  0  0  0  0  0  0  0  0  0  0
    2.4500   -2.4919    0.9993 H   0  0  0  0  0  0  0  0  0  0  0  0
    1.7512   -4.1318    2.2021 C   0  0  0  0  0  0  0  0  0  0  0  0
    1.9881   -3.6327    3.1403 H   0  0  0  0  0  0  0  0  0  0  0  0
    0.8391   -4.7133    2.3260 H   0  0  0  0  0  0  0  0  0  0  0  0
    2.8485   -5.0445    1.8612 N   0  0  0  0  0  0  0  0  0  0  0  0
    2.9677   -5.7120    2.6090 H   0  0  0  0  0  0  0  0  0  0  0  0
    2.6194   -5.5339    1.0079 H   0  0  0  0  0  0  0  0  0  0  0  0
   -1.0922    1.0359   -0.2540 C   0  0  0  0  0  0  0  0  0  0  0  0
   -0.4538    2.0616   -0.0278 O   0  0  0  0  0  0  0  0  0  0  0  0
   -1.8723    0.8925   -1.3316 N   0  0  0  0  0  0  0  0  0  0  0  0
   -2.3518    0.0157   -1.4536 H   0  0  0  0  0  0  0  0  0  0  0  0
   -2.0576    1.9267   -2.3484 C   0  0  0  0  0  0  0  0  0  0  0  0
   -1.0866    2.2355   -2.7419 H   0  0  0  0  0  0  0  0  0  0  0  0
   -2.6738    1.5495   -3.1658 H   0  0  0  0  0  0  0  0  0  0  0  0
   -2.5426    2.7974   -1.9022 H   0  0  0  0  0  0  0  0  0  0  0  0
  5  6  2  0  0  0  0
  5  7  1  0  0  0  0
  2  3  1  0  0  0  0
  2  4  1  0  0  0  0
  2  5  1  0  0  0  0
  1  2  1  0  0  0  0
 26 27  2  0  0  0  0
 26 28  1  0  0  0  0
 23 24  1  0  0  0  0
 23 25  1  0  0  0  0
 20 21  1  0  0  0  0
 20 22  1  0  0  0  0
 20 23  1  0  0  0  0
 17 18  1  0  0  0  0
 17 19  1  0  0  0  0
 17 20  1  0  0  0  0
 14 15  1  0  0  0  0
 14 16  1  0  0  0  0
 14 17  1  0  0  0  0
 11 12  1  0  0  0  0
 11 13  1  0  0  0  0
 11 14  1  0  0  0  0
  9 10  1  0  0  0  0
  9 11  1  0  0  0  0
  9 26  1  0  0  0  0
  7  8  1  0  0  0  0
  7  9  1  0  0  0  0
 30 31  1  0  0  0  0
 30 32  1  0  0  0  0
 30 33  1  0  0  0  0
 28 29  1  0  0  0  0
 28 30  1  0  0  0  0
M  END
$$$$
default_name
  -OEChem-01062215323D

 33 32  0     1  0  0  0  0  0999 V2000
   -3.8420   -3.6918    1.5562 H   0  0  0  0  0  0  0  0  0  0  0  0
   -3.8430   -2.7008    1.1032 C   0  0  0  0  0  0  0  0  0  0  0  0
   -4.5510   -2.0608    1.6242 H   0  0  0  0  0  0  0  0  0  0  0  0
   -4.1140   -2.7798    0.0522 H   0  0  0  0  0  0  0  0  0  0  0  0
   -2.4570   -2.1098    1.2172 C   0  0  0  0  0  0  0  0  0  0  0  0
   -1.5600   -2.7438    1.7572 O   0  0  0  0  0  0  0  0  0  0  0  0
   -2.2870   -0.8898    0.7102 N   0  0  0  0  0  0  0  0  0  0  0  0
   -3.0820   -0.4218    0.2992 H   0  0  0  0  0  0  0  0  0  0  0  0
   -1.0240   -0.1468    0.7262 C   0  0  1  0  0  0  0  0  0  0  0  0
   -0.8664    0.2478    1.7310 H   0  0  0  0  0  0  0  0  0  0  0  0
    0.1253   -1.1173    0.3915 C   0  0  0  0  0  0  0  0  0  0  0  0
   -0.1222   -1.6425   -0.5333 H   0  0  0  0  0  0  0  0  0  0  0  0
    1.0404   -0.5473    0.2250 H   0  0  0  0  0  0  0  0  0  0  0  0
    0.3740   -2.1661    1.4868 C   0  0  0  0  0  0  0  0  0  0  0  0
    0.6108   -1.6654    2.4260 H   0  0  0  0  0  0  0  0  0  0  0  0
   -0.5274   -2.7672    1.6195 H   0  0  0  0  0  0  0  0  0  0  0  0
    1.5416   -3.0849    1.1097 C   0  0  0  0  0  0  0  0  0  0  0  0
    1.3228   -3.5876    0.1671 H   0  0  0  0  0  0  0  0  0  0  0  0
    2.4500   -2.4919    0.9993 H   0  0  0  0  0  0  0  0  0  0  0  0
    1.7512   -4.1318    2.2021 C   0  0  0  0  0  0  0  0  0  0  0  0
    1.9881   -3.6327    3.1403 H   0  0  0  0  0  0  0  0  0  0  0  0
    0.8391   -4.7133    2.3260 H   0  0  0  0  0  0  0  0  0  0  0  0
    2.8485   -5.0445    1.8612 N   0  0  0  0  0  0  0  0  0  0  0  0
    2.9677   -5.7120    2.6090 H   0  0  0  0  0  0  0  0  0  0  0  0
    2.6194   -5.5339    1.0079 H   0  0  0  0  0  0  0  0  0  0  0  0
   -1.0922    1.0359   -0.2540 C   0  0  0  0  0  0  0  0  0  0  0  0
   -0.2622    1.9401   -0.1878 O   0  0  0  0  0  0  0  0  0  0  0  0
   -2.0848    1.0297   -1.1512 N   0  0  0  0  0  0  0  0  0  0  0  0
   -2.7161    0.2454   -1.1511 H   0  0  0  0  0  0  0  0  0  0  0  0
   -2.2977    2.0857   -2.1399 C   0  0  0  0  0  0  0  0  0  0  0  0
   -1.3879    2.2309   -2.7265 H   0  0  0  0  0  0  0  0  0  0  0  0
   -3.1183    1.8203   -2.8080 H   0  0  0  0  0  0  0  0  0  0  0  0
   -2.5344    3.0225   -1.6312 H   0  0  0  0  0  0  0  0  0  0  0  0
  5  6  2  0  0  0  0
  5  7  1  0  0  0  0
  2  3  1  0  0  0  0
  2  4  1  0  0  0  0
  2  5  1  0  0  0  0
  1  2  1  0  0  0  0
 26 27  2  0  0  0  0
 26 28  1  0  0  0  0
 23 24  1  0  0  0  0
 23 25  1  0  0  0  0
 20 21  1  0  0  0  0
 20 22  1  0  0  0  0
 20 23  1  0  0  0  0
 17 18  1  0  0  0  0
 17 19  1  0  0  0  0
 17 20  1  0  0  0  0
 14 15  1  0  0  0  0
 14 16  1  0  0  0  0
 14 17  1  0  0  0  0
 11 12  1  0  0  0  0
 11 13  1  0  0  0  0
 11 14  1  0  0  0  0
  9 10  1  0  0  0  0
  9 11  1  0  0  0  0
  9 26  1  0  0  0  0
  7  8  1  0  0  0  0
  7  9  1  0  0  0  0
 30 31  1  0  0  0  0
 30 32  1  0  0  0  0
 30 33  1  0  0  0  0
 28 29  1  0  0  0  0
 28 30  1  0  0  0  0
M  END
$$$$
default_name
  -OEChem-01062215323D

 33 32  0     1  0  0  0  0  0999 V2000
   -3.8420   -3.6918    1.5562 H   0  0  0  0  0  0  0  0  0  0  0  0
   -3.8430   -2.7008    1.1032 C   0  0  0  0  0  0  0  0  0  0  0  0
   -4.5510   -2.0608    1.6242 H   0  0  0  0  0  0  0  0  0  0  0  0
   -4.1140   -2.7798    0.0522 H   0  0  0  0  0  0  0  0  0  0  0  0
   -2.4570   -2.1098    1.2172 C   0  0  0  0  0  0  0  0  0  0  0  0
   -1.5600   -2.7438    1.7572 O   0  0  0  0  0  0  0  0  0  0  0  0
   -2.2870   -0.8898    0.7102 N   0  0  0  0  0  0  0  0  0  0  0  0
   -3.0820   -0.4218    0.2992 H   0  0  0  0  0  0  0  0  0  0  0  0
   -1.0240   -0.1468    0.7262 C   0  0  1  0  0  0  0  0  0  0  0  0
   -0.8664    0.2478    1.7310 H   0  0  0  0  0  0  0  0  0  0  0  0
    0.1253   -1.1173    0.3915 C   0  0  0  0  0  0  0  0  0  0  0  0
   -0.1222   -1.6425   -0.5333 H   0  0  0  0  0  0  0  0  0  0  0  0
    1.0404   -0.5473    0.2250 H   0  0  0  0  0  0  0  0  0  0  0  0
    0.3740   -2.1661    1.4868 C   0  0  0  0  0  0  0  0  0  0  0  0
    0.6108   -1.6654    2.4260 H   0  0  0  0  0  0  0  0  0  0  0  0
   -0.5274   -2.7672    1.6195 H   0  0  0  0  0  0  0  0  0  0  0  0
    1.5416   -3.0849    1.1097 C   0  0  0  0  0  0  0  0  0  0  0  0
    1.3228   -3.5876    0.1671 H   0  0  0  0  0  0  0  0  0  0  0  0
    2.4500   -2.4919    0.9993 H   0  0  0  0  0  0  0  0  0  0  0  0
    1.7512   -4.1318    2.2021 C   0  0  0  0  0  0  0  0  0  0  0  0
    1.9881   -3.6327    3.1403 H   0  0  0  0  0  0  0  0  0  0  0  0
    0.8391   -4.7133    2.3260 H   0  0  0  0  0  0  0  0  0  0  0  0
    2.8485   -5.0445    1.8612 N   0  0  0  0  0  0  0  0  0  0  0  0
    2.9677   -5.7120    2.6090 H   0  0  0  0  0  0  0  0  0  0  0  0
    2.6194   -5.5339    1.0079 H   0  0  0  0  0  0  0  0  0  0  0  0
   -1.0922    1.0359   -0.2540 C   0  0  0  0  0  0  0  0  0  0  0  0
   -0.1290    1.7892   -0.3790 O   0  0  0  0  0  0  0  0  0  0  0  0
   -2.2316    1.1995   -0.9363 N   0  0  0  0  0  0  0  0  0  0  0  0
   -2.9698    0.5309   -0.7889 H   0  0  0  0  0  0  0  0  0  0  0  0
   -2.4620    2.2812   -1.8925 C   0  0  0  0  0  0  0  0  0  0  0  0
   -1.6767    2.2763   -2.6516 H   0  0  0  0  0  0  0  0  0  0  0  0
   -3.4318    2.1594   -2.3771 H   0  0  0  0  0  0  0  0  0  0  0  0
   -2.4354    3.2417   -1.3736 H   0  0  0  0  0  0  0  0  0  0  0  0
  5  6  2  0  0  0  0
  5  7  1  0  0  0  0
  2  3  1  0  0  0  0
  2  4  1  0  0  0  0
  2  5  1  0  0  0  0
  1  2  1  0  0  0  0
 26 27  2  0  0  0  0
 26 28  1  0  0  0  0
 23 24  1  0  0  0  0
 23 25  1  0  0  0  0
 20 21  1  0  0  0  0
 20 22  1  0  0  0  0
 20 23  1  0  0  0  0
 17 18  1  0  0  0  0
 17 19  1  0  0  0  0
 17 20  1  0  0  0  0
 14 15  1  0  0  0  0
 14 16  1  0  0  0  0
 14 17  1  0  0  0  0
 11 12  1  0  0  0  0
 11 13  1  0  0  0  0
 11 14  1  0  0  0  0
  9 10  1  0  0  0  0
  9 11  1  0  0  0  0
  9 26  1  0  0  0  0
  7  8  1  0  0  0  0
  7  9  1  0  0  0  0
 30 31  1  0  0  0  0
 30 32  1  0  0  0  0
 30 33  1  0  0  0  0
 28 29  1  0  0  0  0
 28 30  1  0  0  0  0
M  END
$$$$
default_name
  -OEChem-01062215323D

 33 32  0     1  0  0  0  0  0999 V2000
   -3.8420   -3.6918    1.5562 H   0  0  0  0  0  0  0  0  0  0  0  0
   -3.8430   -2.7008    1.1032 C   0  0  0  0  0  0  0  0  0  0  0  0
   -4.5510   -2.0608    1.6242 H   0  0  0  0  0  0  0  0  0  0  0  0
   -4.1140   -2.7798    0.0522 H   0  0  0  0  0  0  0  0  0  0  0  0
   -2.4570   -2.1098    1.2172 C   0  0  0  0  0  0  0  0  0  0  0  0
   -1.5600   -2.7438    1.7572 O   0  0  0  0  0  0  0  0  0  0  0  0
   -2.2870   -0.8898    0.7102 N   0  0  0  0  0  0  0  0  0  0  0  0
   -3.0820   -0.4218    0.2992 H   0  0  0  0  0  0  0  0  0  0  0  0
   -1.0240   -0.1468    0.7262 C   0  0  1  0  0  0  0  0  0  0  0  0
   -0.8664    0.2478    1.7310 H   0  0  0  0  0  0  0  0  0  0  0  0
    0.1253   -1.1173    0.3915 C   0  0  0  0  0  0  0  0  0  0  0  0
   -0.1222   -1.6425   -0.5333 H   0  0  0  0  0  0  0  0  0  0  0  0
    1.0404   -0.5473    0.2250 H   0  0  0  0  0  0  0  0  0  0  0  0
    0.3740   -2.1661    1.4868 C   0  0  0  0  0  0  0  0  0  0  0  0
    0.6108   -1.6654    2.4260 H   0  0  0  0  0  0  0  0  0  0  0  0
   -0.5274   -2.7672    1.6195 H   0  0  0  0  0  0  0  0  0  0  0  0
    1.5416   -3.0849    1.1097 C   0  0  0  0  0  0  0  0  0  0  0  0
    1.3228   -3.5876    0.1671 H   0  0  0  0  0  0  0  0  0  0  0  0
    2.4500   -2.4919    0.9993 H   0  0  0  0  0  0  0  0  0  0  0  0
    1.7512   -4.1318    2.2021 C   0  0  0  0  0  0  0  0  0  0  0  0
    1.9881   -3.6327    3.1403 H   0  0  0  0  0  0  0  0  0  0  0  0
    0.8391   -4.7133    2.3260 H   0  0  0  0  0  0  0  0  0  0  0  0
    2.8485   -5.0445    1.8612 N   0  0  0  0  0  0  0  0  0  0  0  0
    2.9677   -5.7120    2.6090 H   0  0  0  0  0  0  0  0  0  0  0  0
    2.6194   -5.5339    1.0079 H   0  0  0  0  0  0  0  0  0  0  0  0
   -1.0922    1.0359   -0.2540 C   0  0  0  0  0  0  0  0  0  0  0  0
   -0.0634    1.6194   -0.5886 O   0  0  0  0  0  0  0  0  0  0  0  0
   -2.3025    1.3901   -0.7014 N   0  0  0  0  0  0  0  0  0  0  0  0
   -3.0957    0.8527   -0.3919 H   0  0  0  0  0  0  0  0  0  0  0  0
   -2.5392    2.5001   -1.6231 C   0  0  0  0  0  0  0  0  0  0  0  0
   -1.9332    2.3687   -2.5223 H   0  0  0  0  0  0  0  0  0  0  0  0
   -3.5929    2.5436   -1.9023 H   0  0  0  0  0  0  0  0  0  0  0  0
   -2.2523    3.4400   -1.1471 H   0  0  0  0  0  0  0  0  0  0  0  0
  5  6  2  0  0  0  0
  5  7  1  0  0  0  0
  2  3  1  0  0  0  0
  2  4  1  0  0  0  0
  2  5  1  0  0  0  0
  1  2  1  0  0  0  0
 26 27  2  0  0  0  0
 26 28  1  0  0  0  0
 23 24  1  0  0  0  0
 23 25  1  0  0  0  0
 20 21  1  0  0  0  0
 20 22  1  0  0  0  0
 20 23  1  0  0  0  0
 17 18  1  0  0  0  0
 17 19  1  0  0  0  0
 17 20  1  0  0  0  0
 14 15  1  0  0  0  0
 14 16  1  0  0  0  0
 14 17  1  0  0  0  0
 11 12  1  0  0  0  0
 11 13  1  0  0  0  0
 11 14  1  0  0  0  0
  9 10  1  0  0  0  0
  9 11  1  0  0  0  0
  9 26  1  0  0  0  0
  7  8  1  0  0  0  0
  7  9  1  0  0  0  0
 30 31  1  0  0  0  0
 30 32  1  0  0  0  0
 30 33  1  0  0  0  0
 28 29  1  0  0  0  0
 28 30  1  0  0  0  0
M  END
$$$$
default_name
  -OEChem-01062215323D

 33 32  0     1  0  0  0  0  0999 V2000
   -3.8420   -3.6918    1.5562 H   0  0  0  0  0  0  0  0  0  0  0  0
   -3.8430   -2.7008    1.1032 C   0  0  0  0  0  0  0  0  0  0  0  0
   -4.5510   -2.0608    1.6242 H   0  0  0  0  0  0  0  0  0  0  0  0
   -4.1140   -2.7798    0.0522 H   0  0  0  0  0  0  0  0  0  0  0  0
   -2.4570   -2.1098    1.2172 C   0  0  0  0  0  0  0  0  0  0  0  0
   -1.5600   -2.7438    1.7572 O   0  0  0  0  0  0  0  0  0  0  0  0
   -2.2870   -0.8898    0.7102 N   0  0  0  0  0  0  0  0  0  0  0  0
   -3.0820   -0.4218    0.2992 H   0  0  0  0  0  0  0  0  0  0  0  0
   -1.0240   -0.1468    0.7262 C   0  0  1  0  0  0  0  0  0  0  0  0
   -0.8664    0.2478    1.7310 H   0  0  0  0  0  0  0  0  0  0  0  0
    0.1253   -1.1173    0.3915 C   0  0  0  0  0  0  0  0  0  0  0  0
   -0.1222   -1.6425   -0.5333 H   0  0  0  0  0  0  0  0  0  0  0  0
    1.0404   -0.5473    0.2250 H   0  0  0  0  0  0  0  0  0  0  0  0
    0.3740   -2.1661    1.4868 C   0  0  0  0  0  0  0  0  0  0  0  0
    0.6108   -1.6654    2.4260 H   0  0  0  0  0  0  0  0  0  0  0  0
   -0.5274   -2.7672    1.6195 H   0  0  0  0  0  0  0  0  0  0  0  0
    1.5416   -3.0849    1.1097 C   0  0  0  0  0  0  0  0  0  0  0  0
    1.3228   -3.5876    0.1671 H   0  0  0  0  0  0  0  0  0  0  0  0
    2.4500   -2.4919    0.9993 H   0  0  0  0  0  0  0  0  0  0  0  0
    1.7512   -4.1318    2.2021 C   0  0  0  0  0  0  0  0  0  0  0  0
    1.9881   -3.6327    3.1403 H   0  0  0  0  0  0  0  0  0  0  0  0
    0.8391   -4.7133    2.3260 H   0  0  0  0  0  0  0  0  0  0  0  0
    2.8485   -5.0445    1.8612 N   0  0  0  0  0  0  0  0  0  0  0  0
    2.9677   -5.7120    2.6090 H   0  0  0  0  0  0  0  0  0  0  0  0
    2.6194   -5.5339    1.0079 H   0  0  0  0  0  0  0  0  0  0  0  0
   -1.0922    1.0359   -0.2540 C   0  0  0  0  0  0  0  0  0  0  0  0
   -0.0697    1.4420   -0.8021 O   0  0  0  0  0  0  0  0  0  0  0  0
   -2.2928    1.5886   -0.4625 N   0  0  0  0  0  0  0  0  0  0  0  0
   -3.0852    1.1889    0.0130 H   0  0  0  0  0  0  0  0  0  0  0  0
   -2.5239    2.7273   -1.3500 C   0  0  0  0  0  0  0  0  0  0  0  0
   -2.1399    2.5017   -2.3473 H   0  0  0  0  0  0  0  0  0  0  0  0
   -3.5905    2.9468   -1.4161 H   0  0  0  0  0  0  0  0  0  0  0  0
   -1.9976    3.6040   -0.9670 H   0  0  0  0  0  0  0  0  0  0  0  0
  5  6  2  0  0  0  0
  5  7  1  0  0  0  0
  2  3  1  0  0  0  0
  2  4  1  0  0  0  0
  2  5  1  0  0  0  0
  1  2  1  0  0  0  0
 26 27  2  0  0  0  0
 26 28  1  0  0  0  0
 23 24  1  0  0  0  0
 23 25  1  0  0  0  0
 20 21  1  0  0  0  0
 20 22  1  0  0  0  0
 20 23  1  0  0  0  0
 17 18  1  0  0  0  0
 17 19  1  0  0  0  0
 17 20  1  0  0  0  0
 14 15  1  0  0  0  0
 14 16  1  0  0  0  0
 14 17  1  0  0  0  0
 11 12  1  0  0  0  0
 11 13  1  0  0  0  0
 11 14  1  0  0  0  0
  9 10  1  0  0  0  0
  9 11  1  0  0  0  0
  9 26  1  0  0  0  0
  7  8  1  0  0  0  0
  7  9  1  0  0  0  0
 30 31  1  0  0  0  0
 30 32  1  0  0  0  0
 30 33  1  0  0  0  0
 28 29  1  0  0  0  0
 28 30  1  0  0  0  0
M  END
$$$$
default_name
  -OEChem-01062215323D

 33 32  0     1  0  0  0  0  0999 V2000
   -3.8420   -3.6918    1.5562 H   0  0  0  0  0  0  0  0  0  0  0  0
   -3.8430   -2.7008    1.1032 C   0  0  0  0  0  0  0  0  0  0  0  0
   -4.5510   -2.0608    1.6242 H   0  0  0  0  0  0  0  0  0  0  0  0
   -4.1140   -2.7798    0.0522 H   0  0  0  0  0  0  0  0  0  0  0  0
   -2.4570   -2.1098    1.2172 C   0  0  0  0  0  0  0  0  0  0  0  0
   -1.5600   -2.7438    1.7572 O   0  0  0  0  0  0  0  0  0  0  0  0
   -2.2870   -0.8898    0.7102 N   0  0  0  0  0  0  0  0  0  0  0  0
   -3.0820   -0.4218    0.2992 H   0  0  0  0  0  0  0  0  0  0  0  0
   -1.0240   -0.1468    0.7262 C   0  0  1  0  0  0  0  0  0  0  0  0
   -0.8664    0.2478    1.7310 H   0  0  0  0  0  0  0  0  0  0  0  0
    0.1253   -1.1173    0.3915 C   0  0  0  0  0  0  0  0  0  0  0  0
   -0.1222   -1.6425   -0.5333 H   0  0  0  0  0  0  0  0  0  0  0  0
    1.0404   -0.5473    0.2250 H   0  0  0  0  0  0  0  0  0  0  0  0
    0.3740   -2.1661    1.4868 C   0  0  0  0  0  0  0  0  0  0  0  0
    0.6108   -1.6654    2.4260 H   0  0  0  0  0  0  0  0  0  0  0  0
   -0.5274   -2.7672    1.6195 H   0  0  0  0  0  0  0  0  0  0  0  0
    1.5416   -3.0849    1.1097 C   0  0  0  0  0  0  0  0  0  0  0  0
    1.3228   -3.5876    0.1671 H   0  0  0  0  0  0  0  0  0  0  0  0
    2.4500   -2.4919    0.9993 H   0  0  0  0  0  0  0  0  0  0  0  0
    1.7512   -4.1318    2.2021 C   0  0  0  0  0  0  0  0  0  0  0  0
    1.9881   -3.6327    3.1403 H   0  0  0  0  0  0  0  0  0  0  0  0
    0.8391   -4.7133    2.3260 H   0  0  0  0  0  0  0  0  0  0  0  0
    2.8485   -5.0445    1.8612 N   0  0  0  0  0  0  0  0  0  0  0  0
    2.9677   -5.7120    2.6090 H   0  0  0  0  0  0  0  0  0  0  0  0
    2.6194   -5.5339    1.0079 H   0  0  0  0  0  0  0  0  0  0  0  0
   -1.0922    1.0359   -0.2540 C   0  0  0  0  0  0  0  0  0  0  0  0
   -0.1476    1.2694   -1.0050 O   0  0  0  0  0  0  0  0  0  0  0  0
   -2.2031    1.7815   -0.2360 N   0  0  0  0  0  0  0  0  0  0  0  0
   -2.9389    1.5165    0.3981 H   0  0  0  0  0  0  0  0  0  0  0  0
   -2.4174    2.9474   -1.0919 C   0  0  0  0  0  0  0  0  0  0  0  0
   -2.2829    2.6664   -2.1388 H   0  0  0  0  0  0  0  0  0  0  0  0
   -3.4250    3.3414   -0.9515 H   0  0  0  0  0  0  0  0  0  0  0  0
   -1.6887    3.7224   -0.8456 H   0  0  0  0  0  0  0  0  0  0  0  0
  5  6  2  0  0  0  0
  5  7  1  0  0  0  0
  2  3  1  0  0  0  0
  2  4  1  0  0  0  0
  2  5  1  0  0  0  0
  1  2  1  0  0  0  0
 26 27  2  0  0  0  0
 26 28  1  0  0  0  0
 23 24  1  0  0  0  0
 23 25  1  0  0  0  0
 20 21  1  0  0  0  0
 20 22  1  0  0  0  0
 20 23  1  0  0  0  0
 17 18  1  0  0  0  0
 17 19  1  0  0  0  0
 17 20  1  0  0  0  0
 14 15  1  0  0  0  0
 14 16  1  0  0  0  0
 14 17  1  0  0  0  0
 11 12  1  0  0  0  0
 11 13  1  0  0  0  0
 11 14  1  0  0  0  0
  9 10  1  0  0  0  0
  9 11  1  0  0  0  0
  9 26  1  0  0  0  0
  7  8  1  0  0  0  0
  7  9  1  0  0  0  0
 30 31  1  0  0  0  0
 30 32  1  0  0  0  0
 30 33  1  0  0  0  0
 28 29  1  0  0  0  0
 28 30  1  0  0  0  0
M  END
$$$$
default_name
  -OEChem-01062215323D

 33 32  0     1  0  0  0  0  0999 V2000
   -3.8420   -3.6918    1.5562 H   0  0  0  0  0  0  0  0  0  0  0  0
   -3.8430   -2.7008    1.1032 C   0  0  0  0  0  0  0  0  0  0  0  0
   -4.5510   -2.0608    1.6242 H   0  0  0  0  0  0  0  0  0  0  0  0
   -4.1140   -2.7798    0.0522 H   0  0  0  0  0  0  0  0  0  0  0  0
   -2.4570   -2.1098    1.2172 C   0  0  0  0  0  0  0  0  0  0  0  0
   -1.5600   -2.7438    1.7572 O   0  0  0  0  0  0  0  0  0  0  0  0
   -2.2870   -0.8898    0.7102 N   0  0  0  0  0  0  0  0  0  0  0  0
   -3.0820   -0.4218    0.2992 H   0  0  0  0  0  0  0  0  0  0  0  0
   -1.0240   -0.1468    0.7262 C   0  0  1  0  0  0  0  0  0  0  0  0
   -0.8664    0.2478    1.7310 H   0  0  0  0  0  0  0  0  0  0  0  0
    0.1253   -1.1173    0.3915 C   0  0  0  0  0  0  0  0  0  0  0  0
   -0.1222   -1.6425   -0.5333 H   0  0  0  0  0  0  0  0  0  0  0  0
    1.0404   -0.5473    0.2250 H   0  0  0  0  0  0  0  0  0  0  0  0
    0.3740   -2.1661    1.4868 C   0  0  0  0  0  0  0  0  0  0  0  0
    0.6108   -1.6654    2.4260 H   0  0  0  0  0  0  0  0  0  0  0  0
   -0.5274   -2.7672    1.6195 H   0  0  0  0  0  0  0  0  0  0  0  0
    1.5416   -3.0849    1.1097 C   0  0  0  0  0  0  0  0  0  0  0  0
    1.3228   -3.5876    0.1671 H   0  0  0  0  0  0  0  0  0  0  0  0
    2.4500   -2.4919    0.9993 H   0  0  0  0  0  0  0  0  0  0  0  0
    1.7512   -4.1318    2.2021 C   0  0  0  0  0  0  0  0  0  0  0  0
    1.9881   -3.6327    3.1403 H   0  0  0  0  0  0  0  0  0  0  0  0
    0.8391   -4.7133    2.3260 H   0  0  0  0  0  0  0  0  0  0  0  0
    2.8485   -5.0445    1.8612 N   0  0  0  0  0  0  0  0  0  0  0  0
    2.9677   -5.7120    2.6090 H   0  0  0  0  0  0  0  0  0  0  0  0
    2.6194   -5.5339    1.0079 H   0  0  0  0  0  0  0  0  0  0  0  0
   -1.0922    1.0359   -0.2540 C   0  0  0  0  0  0  0  0  0  0  0  0
   -0.2917    1.1131   -1.1835 O   0  0  0  0  0  0  0  0  0  0  0  0
   -2.0396    1.9556   -0.0373 N   0  0  0  0  0  0  0  0  0  0  0  0
   -2.6669    1.8133    0.7372 H   0  0  0  0  0  0  0  0  0  0  0  0
   -2.2268    3.1453   -0.8663 C   0  0  0  0  0  0  0  0  0  0  0  0
   -2.3523    2.8514   -1.9107 H   0  0  0  0  0  0  0  0  0  0  0  0
   -3.1074    3.7006   -0.5402 H   0  0  0  0  0  0  0  0  0  0  0  0
   -1.3466    3.7873   -0.7912 H   0  0  0  0  0  0  0  0  0  0  0  0
  5  6  2  0  0  0  0
  5  7  1  0  0  0  0
  2  3  1  0  0  0  0
  2  4  1  0  0  0  0
  2  5  1  0  0  0  0
  1  2  1  0  0  0  0
 26 27  2  0  0  0  0
 26 28  1  0  0  0  0
 23 24  1  0  0  0  0
 23 25  1  0  0  0  0
 20 21  1  0  0  0  0
 20 22  1  0  0  0  0
 20 23  1  0  0  0  0
 17 18  1  0  0  0  0
 17 19  1  0  0  0  0
 17 20  1  0  0  0  0
 14 15  1  0  0  0  0
 14 16  1  0  0  0  0
 14 17  1  0  0  0  0
 11 12  1  0  0  0  0
 11 13  1  0  0  0  0
 11 14  1  0  0  0  0
  9 10  1  0  0  0  0
  9 11  1  0  0  0  0
  9 26  1  0  0  0  0
  7  8  1  0  0  0  0
  7  9  1  0  0  0  0
 30 31  1  0  0  0  0
 30 32  1  0  0  0  0
 30 33  1  0  0  0  0
 28 29  1  0  0  0  0
 28 30  1  0  0  0  0
M  END
$$$$
default_name
  -OEChem-01062215323D

 33 32  0     1  0  0  0  0  0999 V2000
   -3.8420   -3.6918    1.5562 H   0  0  0  0  0  0  0  0  0  0  0  0
   -3.8430   -2.7008    1.1032 C   0  0  0  0  0  0  0  0  0  0  0  0
   -4.5510   -2.0608    1.6242 H   0  0  0  0  0  0  0  0  0  0  0  0
   -4.1140   -2.7798    0.0522 H   0  0  0  0  0  0  0  0  0  0  0  0
   -2.4570   -2.1098    1.2172 C   0  0  0  0  0  0  0  0  0  0  0  0
   -1.5600   -2.7438    1.7572 O   0  0  0  0  0  0  0  0  0  0  0  0
   -2.2870   -0.8898    0.7102 N   0  0  0  0  0  0  0  0  0  0  0  0
   -3.0820   -0.4218    0.2992 H   0  0  0  0  0  0  0  0  0  0  0  0
   -1.0240   -0.1468    0.7262 C   0  0  1  0  0  0  0  0  0  0  0  0
   -0.8664    0.2478    1.7310 H   0  0  0  0  0  0  0  0  0  0  0  0
    0.1253   -1.1173    0.3915 C   0  0  0  0  0  0  0  0  0  0  0  0
   -0.1222   -1.6425   -0.5333 H   0  0  0  0  0  0  0  0  0  0  0  0
    1.0404   -0.5473    0.2250 H   0  0  0  0  0  0  0  0  0  0  0  0
    0.3740   -2.1661    1.4868 C   0  0  0  0  0  0  0  0  0  0  0  0
    0.6108   -1.6654    2.4260 H   0  0  0  0  0  0  0  0  0  0  0  0
   -0.5274   -2.7672    1.6195 H   0  0  0  0  0  0  0  0  0  0  0  0
    1.5416   -3.0849    1.1097 C   0  0  0  0  0  0  0  0  0  0  0  0
    1.3228   -3.5876    0.1671 H   0  0  0  0  0  0  0  0  0  0  0  0
    2.4500   -2.4919    0.9993 H   0  0  0  0  0  0  0  0  0  0  0  0
    1.7512   -4.1318    2.2021 C   0  0  0  0  0  0  0  0  0  0  0  0
    1.9881   -3.6327    3.1403 H   0  0  0  0  0  0  0  0  0  0  0  0
    0.8391   -4.7133    2.3260 H   0  0  0  0  0  0  0  0  0  0  0  0
    2.8485   -5.0445    1.8612 N   0  0  0  0  0  0  0  0  0  0  0  0
    2.9677   -5.7120    2.6090 H   0  0  0  0  0  0  0  0  0  0  0  0
    2.6194   -5.5339    1.0079 H   0  0  0  0  0  0  0  0  0  0  0  0
   -1.0922    1.0359   -0.2540 C   0  0  0  0  0  0  0  0  0  0  0  0
   -0.4922    0.9838   -1.3255 O   0  0  0  0  0  0  0  0  0  0  0  0
   -1.8134    2.0991    0.1200 N   0  0  0  0  0  0  0  0  0  0  0  0
   -2.2877    2.0590    1.0072 H   0  0  0  0  0  0  0  0  0  0  0  0
   -1.9651    3.3077   -0.6886 C   0  0  0  0  0  0  0  0  0  0  0  0
   -2.3434    3.0441   -1.6787 H   0  0  0  0  0  0  0  0  0  0  0  0
   -2.6596    3.9998   -0.2103 H   0  0  0  0  0  0  0  0  0  0  0  0
   -0.9946    3.7941   -0.8075 H   0  0  0  0  0  0  0  0  0  0  0  0
  5  6  2  0  0  0  0
  5  7  1  0  0  0  0
  2  3  1  0  0  0  0
  2  4  1  0  0  0  0
  2  5  1  0  0  0  0
  1  2  1  0  0  0  0
 26 27  2  0  0  0  0
 26 28  1  0  0  0  0
 23 24  1  0  0  0  0
 23 25  1  0  0  0  0
 20 21  1  0  0  0  0
 20 22  1  0  0  0  0
 20 23  1  0  0  0  0
 17 18  1  0  0  0  0
 17 19  1  0  0  0  0
 17 20  1  0  0  0  0
 14 15  1  0  0  0  0
 14 16  1  0  0  0  0
 14 17  1  0  0  0  0
 11 12  1  0  0  0  0
 11 13  1  0  0  0  0
 11 14  1  0  0  0  0
  9 10  1  0  0  0  0
  9 11  1  0  0  0  0
  9 26  1  0  0  0  0
  7  8  1  0  0  0  0
  7  9  1  0  0  0  0
 30 31  1  0  0  0  0
 30 32  1  0  0  0  0
 30 33  1  0  0  0  0
 28 29  1  0  0  0  0
 28 30  1  0  0  0  0
M  END
$$$$
default_name
  -OEChem-01062215323D

 33 32  0     1  0  0  0  0  0999 V2000
   -3.8420   -3.6918    1.5562 H   0  0  0  0  0  0  0  0  0  0  0  0
   -3.8430   -2.7008    1.1032 C   0  0  0  0  0  0  0  0  0  0  0  0
   -4.5510   -2.0608    1.6242 H   0  0  0  0  0  0  0  0  0  0  0  0
   -4.1140   -2.7798    0.0522 H   0  0  0  0  0  0  0  0  0  0  0  0
   -2.4570   -2.1098    1.2172 C   0  0  0  0  0  0  0  0  0  0  0  0
   -1.5600   -2.7438    1.7572 O   0  0  0  0  0  0  0  0  0  0  0  0
   -2.2870   -0.8898    0.7102 N   0  0  0  0  0  0  0  0  0  0  0  0
   -3.0820   -0.4218    0.2992 H   0  0  0  0  0  0  0  0  0  0  0  0
   -1.0240   -0.1468    0.7262 C   0  0  1  0  0  0  0  0  0  0  0  0
   -0.8664    0.2478    1.7310 H   0  0  0  0  0  0  0  0  0  0  0  0
    0.1253   -1.1173    0.3915 C   0  0  0  0  0  0  0  0  0  0  0  0
   -0.1222   -1.6425   -0.5333 H   0  0  0  0  0  0  0  0  0  0  0  0
    1.0404   -0.5473    0.2250 H   0  0  0  0  0  0  0  0  0  0  0  0
    0.3740   -2.1661    1.4868 C   0  0  0  0  0  0  0  0  0  0  0  0
    0.6108   -1.6654    2.4260 H   0  0  0  0  0  0  0  0  0  0  0  0
   -0.5274   -2.7672    1.6195 H   0  0  0  0  0  0  0  0  0  0  0  0
    1.5416   -3.0849    1.1097 C   0  0  0  0  0  0  0  0  0  0  0  0
    1.3228   -3.5876    0.1671 H   0  0  0  0  0  0  0  0  0  0  0  0
    2.4500   -2.4919    0.9993 H   0  0  0  0  0  0  0  0  0  0  0  0
    1.7512   -4.1318    2.2021 C   0  0  0  0  0  0  0  0  0  0  0  0
    1.9881   -3.6327    3.1403 H   0  0  0  0  0  0  0  0  0  0  0  0
    0.8391   -4.7133    2.3260 H   0  0  0  0  0  0  0  0  0  0  0  0
    2.8485   -5.0445    1.8612 N   0  0  0  0  0  0  0  0  0  0  0  0
    2.9677   -5.7120    2.6090 H   0  0  0  0  0  0  0  0  0  0  0  0
    2.6194   -5.5339    1.0079 H   0  0  0  0  0  0  0  0  0  0  0  0
   -1.0922    1.0359   -0.2540 C   0  0  0  0  0  0  0  0  0  0  0  0
   -0.7355    0.8905   -1.4212 O   0  0  0  0  0  0  0  0  0  0  0  0
   -1.5398    2.2022    0.2254 N   0  0  0  0  0  0  0  0  0  0  0  0
   -1.8272    2.2368    1.1897 H   0  0  0  0  0  0  0  0  0  0  0  0
   -1.6501    3.4234   -0.5710 C   0  0  0  0  0  0  0  0  0  0  0  0
   -2.2568    3.2316   -1.4587 H   0  0  0  0  0  0  0  0  0  0  0  0
   -2.1119    4.2188    0.0157 H   0  0  0  0  0  0  0  0  0  0  0  0
   -0.6568    3.7424   -0.8934 H   0  0  0  0  0  0  0  0  0  0  0  0
  5  6  2  0  0  0  0
  5  7  1  0  0  0  0
  2  3  1  0  0  0  0
  2  4  1  0  0  0  0
  2  5  1  0  0  0  0
  1  2  1  0  0  0  0
 26 27  2  0  0  0  0
 26 28  1  0  0  0  0
 23 24  1  0  0  0  0
 23 25  1  0  0  0  0
 20 21  1  0  0  0  0
 20 22  1  0  0  0  0
 20 23  1  0  0  0  0
 17 18  1  0  0  0  0
 17 19  1  0  0  0  0
 17 20  1  0  0  0  0
 14 15  1  0  0  0  0
 14 16  1  0  0  0  0
 14 17  1  0  0  0  0
 11 12  1  0  0  0  0
 11 13  1  0  0  0  0
 11 14  1  0  0  0  0
  9 10  1  0  0  0  0
  9 11  1  0  0  0  0
  9 26  1  0  0  0  0
  7  8  1  0  0  0  0
  7  9  1  0  0  0  0
 30 31  1  0  0  0  0
 30 32  1  0  0  0  0
 30 33  1  0  0  0  0
 28 29  1  0  0  0  0
 28 30  1  0  0  0  0
M  END
$$$$
default_name
  -OEChem-01062215323D

 33 32  0     1  0  0  0  0  0999 V2000
   -3.8420   -3.6918    1.5562 H   0  0  0  0  0  0  0  0  0  0  0  0
   -3.8430   -2.7008    1.1032 C   0  0  0  0  0  0  0  0  0  0  0  0
   -4.5510   -2.0608    1.6242 H   0  0  0  0  0  0  0  0  0  0  0  0
   -4.1140   -2.7798    0.0522 H   0  0  0  0  0  0  0  0  0  0  0  0
   -2.4570   -2.1098    1.2172 C   0  0  0  0  0  0  0  0  0  0  0  0
   -1.5600   -2.7438    1.7572 O   0  0  0  0  0  0  0  0  0  0  0  0
   -2.2870   -0.8898    0.7102 N   0  0  0  0  0  0  0  0  0  0  0  0
   -3.0820   -0.4218    0.2992 H   0  0  0  0  0  0  0  0  0  0  0  0
   -1.0240   -0.1468    0.7262 C   0  0  1  0  0  0  0  0  0  0  0  0
   -0.8664    0.2478    1.7310 H   0  0  0  0  0  0  0  0  0  0  0  0
    0.1253   -1.1173    0.3915 C   0  0  0  0  0  0  0  0  0  0  0  0
   -0.1222   -1.6425   -0.5333 H   0  0  0  0  0  0  0  0  0  0  0  0
    1.0404   -0.5473    0.2250 H   0  0  0  0  0  0  0  0  0  0  0  0
    0.3740   -2.1661    1.4868 C   0  0  0  0  0  0  0  0  0  0  0  0
    0.6108   -1.6654    2.4260 H   0  0  0  0  0  0  0  0  0  0  0  0
   -0.5274   -2.7672    1.6195 H   0  0  0  0  0  0  0  0  0  0  0  0
    1.5416   -3.0849    1.1097 C   0  0  0  0  0  0  0  0  0  0  0  0
    1.3228   -3.5876    0.1671 H   0  0  0  0  0  0  0  0  0  0  0  0
    2.4500   -2.4919    0.9993 H   0  0  0  0  0  0  0  0  0  0  0  0
    1.7512   -4.1318    2.2021 C   0  0  0  0  0  0  0  0  0  0  0  0
    1.9881   -3.6327    3.1403 H   0  0  0  0  0  0  0  0  0  0  0  0
    0.8391   -4.7133    2.3260 H   0  0  0  0  0  0  0  0  0  0  0  0
    2.8485   -5.0445    1.8612 N   0  0  0  0  0  0  0  0  0  0  0  0
    2.9677   -5.7120    2.6090 H   0  0  0  0  0  0  0  0  0  0  0  0
    2.6194   -5.5339    1.0079 H   0  0  0  0  0  0  0  0  0  0  0  0
   -1.0922    1.0359   -0.2540 C   0  0  0  0  0  0  0  0  0  0  0  0
   -1.0049    0.8393   -1.4642 O   0  0  0  0  0  0  0  0  0  0  0  0
   -1.2376    2.2578    0.2715 N   0  0  0  0  0  0  0  0  0  0  0  0
   -1.3166    2.3346    1.2722 H   0  0  0  0  0  0  0  0  0  0  0  0
   -1.3034    3.4845   -0.5213 C   0  0  0  0  0  0  0  0  0  0  0  0
   -2.0985    3.4008   -1.2655 H   0  0  0  0  0  0  0  0  0  0  0  0
   -1.5018    4.3425    0.1226 H   0  0  0  0  0  0  0  0  0  0  0  0
   -0.3561    3.6357   -1.0430 H   0  0  0  0  0  0  0  0  0  0  0  0
  5  6  2  0  0  0  0
  5  7  1  0  0  0  0
  2  3  1  0  0  0  0
  2  4  1  0  0  0  0
  2  5  1  0  0  0  0
  1  2  1  0  0  0  0
 26 27  2  0  0  0  0
 26 28  1  0  0  0  0
 23 24  1  0  0  0  0
 23 25  1  0  0  0  0
 20 21  1  0  0  0  0
 20 22  1  0  0  0  0
 20 23  1  0  0  0  0
 17 18  1  0  0  0  0
 17 19  1  0  0  0  0
 17 20  1  0  0  0  0
 14 15  1  0  0  0  0
 14 16  1  0  0  0  0
 14 17  1  0  0  0  0
 11 12  1  0  0  0  0
 11 13  1  0  0  0  0
 11 14  1  0  0  0  0
  9 10  1  0  0  0  0
  9 11  1  0  0  0  0
  9 26  1  0  0  0  0
  7  8  1  0  0  0  0
  7  9  1  0  0  0  0
 30 31  1  0  0  0  0
 30 32  1  0  0  0  0
 30 33  1  0  0  0  0
 28 29  1  0  0  0  0
 28 30  1  0  0  0  0
M  END
$$$$
default_name
  -OEChem-01062215323D

 33 32  0     1  0  0  0  0  0999 V2000
   -3.8420   -3.6918    1.5562 H   0  0  0  0  0  0  0  0  0  0  0  0
   -3.8430   -2.7008    1.1032 C   0  0  0  0  0  0  0  0  0  0  0  0
   -4.5510   -2.0608    1.6242 H   0  0  0  0  0  0  0  0  0  0  0  0
   -4.1140   -2.7798    0.0522 H   0  0  0  0  0  0  0  0  0  0  0  0
   -2.4570   -2.1098    1.2172 C   0  0  0  0  0  0  0  0  0  0  0  0
   -1.5600   -2.7438    1.7572 O   0  0  0  0  0  0  0  0  0  0  0  0
   -2.2870   -0.8898    0.7102 N   0  0  0  0  0  0  0  0  0  0  0  0
   -3.0820   -0.4218    0.2992 H   0  0  0  0  0  0  0  0  0  0  0  0
   -1.0240   -0.1468    0.7262 C   0  0  1  0  0  0  0  0  0  0  0  0
   -0.8664    0.2478    1.7310 H   0  0  0  0  0  0  0  0  0  0  0  0
    0.1253   -1.1173    0.3915 C   0  0  0  0  0  0  0  0  0  0  0  0
   -0.1222   -1.6425   -0.5333 H   0  0  0  0  0  0  0  0  0  0  0  0
    1.0404   -0.5473    0.2250 H   0  0  0  0  0  0  0  0  0  0  0  0
    0.3740   -2.1661    1.4868 C   0  0  0  0  0  0  0  0  0  0  0  0
    0.6108   -1.6654    2.4260 H   0  0  0  0  0  0  0  0  0  0  0  0
   -0.5274   -2.7672    1.6195 H   0  0  0  0  0  0  0  0  0  0  0  0
    1.5416   -3.0849    1.1097 C   0  0  0  0  0  0  0  0  0  0  0  0
    1.3228   -3.5876    0.1671 H   0  0  0  0  0  0  0  0  0  0  0  0
    2.4500   -2.4919    0.9993 H   0  0  0  0  0  0  0  0  0  0  0  0
    1.7512   -4.1318    2.2021 C   0  0  0  0  0  0  0  0  0  0  0  0
    1.9881   -3.6327    3.1403 H   0  0  0  0  0  0  0  0  0  0  0  0
    0.8391   -4.7133    2.3260 H   0  0  0  0  0  0  0  0  0  0  0  0
    2.8485   -5.0445    1.8612 N   0  0  0  0  0  0  0  0  0  0  0  0
    2.9677   -5.7120    2.6090 H   0  0  0  0  0  0  0  0  0  0  0  0
    2.6194   -5.5339    1.0079 H   0  0  0  0  0  0  0  0  0  0  0  0
   -1.0922    1.0359   -0.2540 C   0  0  0  0  0  0  0  0  0  0  0  0
   -1.2822    0.8339   -1.4515 O   0  0  0  0  0  0  0  0  0  0  0  0
   -0.9274    2.2622    0.2552 N   0  0  0  0  0  0  0  0  0  0  0  0
   -0.7909    2.3459    1.2492 H   0  0  0  0  0  0  0  0  0  0  0  0
   -0.9485    3.4870   -0.5431 C   0  0  0  0  0  0  0  0  0  0  0  0
   -1.8791    3.5404   -1.1123 H   0  0  0  0  0  0  0  0  0  0  0  0
   -0.8708    4.3626    0.1029 H   0  0  0  0  0  0  0  0  0  0  0  0
   -0.1130    3.4813   -1.2462 H   0  0  0  0  0  0  0  0  0  0  0  0
  5  6  2  0  0  0  0
  5  7  1  0  0  0  0
  2  3  1  0  0  0  0
  2  4  1  0  0  0  0
  2  5  1  0  0  0  0
  1  2  1  0  0  0  0
 26 27  2  0  0  0  0
 26 28  1  0  0  0  0
 23 24  1  0  0  0  0
 23 25  1  0  0  0  0
 20 21  1  0  0  0  0
 20 22  1  0  0  0  0
 20 23  1  0  0  0  0
 17 18  1  0  0  0  0
 17 19  1  0  0  0  0
 17 20  1  0  0  0  0
 14 15  1  0  0  0  0
 14 16  1  0  0  0  0
 14 17  1  0  0  0  0
 11 12  1  0  0  0  0
 11 13  1  0  0  0  0
 11 14  1  0  0  0  0
  9 10  1  0  0  0  0
  9 11  1  0  0  0  0
  9 26  1  0  0  0  0
  7  8  1  0  0  0  0
  7  9  1  0  0  0  0
 30 31  1  0  0  0  0
 30 32  1  0  0  0  0
 30 33  1  0  0  0  0
 28 29  1  0  0  0  0
 28 30  1  0  0  0  0
M  END
$$$$
default_name
  -OEChem-01062215323D

 33 32  0     1  0  0  0  0  0999 V2000
   -3.8420   -3.6918    1.5562 H   0  0  0  0  0  0  0  0  0  0  0  0
   -3.8430   -2.7008    1.1032 C   0  0  0  0  0  0  0  0  0  0  0  0
   -4.5510   -2.0608    1.6242 H   0  0  0  0  0  0  0  0  0  0  0  0
   -4.1140   -2.7798    0.0522 H   0  0  0  0  0  0  0  0  0  0  0  0
   -2.4570   -2.1098    1.2172 C   0  0  0  0  0  0  0  0  0  0  0  0
   -1.5600   -2.7438    1.7572 O   0  0  0  0  0  0  0  0  0  0  0  0
   -2.2870   -0.8898    0.7102 N   0  0  0  0  0  0  0  0  0  0  0  0
   -3.0820   -0.4218    0.2992 H   0  0  0  0  0  0  0  0  0  0  0  0
   -1.0240   -0.1468    0.7262 C   0  0  1  0  0  0  0  0  0  0  0  0
   -0.8664    0.2478    1.7310 H   0  0  0  0  0  0  0  0  0  0  0  0
    0.1253   -1.1173    0.3915 C   0  0  0  0  0  0  0  0  0  0  0  0
   -0.1222   -1.6425   -0.5333 H   0  0  0  0  0  0  0  0  0  0  0  0
    1.0404   -0.5473    0.2250 H   0  0  0  0  0  0  0  0  0  0  0  0
    0.3740   -2.1661    1.4868 C   0  0  0  0  0  0  0  0  0  0  0  0
    0.6108   -1.6654    2.4260 H   0  0  0  0  0  0  0  0  0  0  0  0
   -0.5274   -2.7672    1.6195 H   0  0  0  0  0  0  0  0  0  0  0  0
    1.5416   -3.0849    1.1097 C   0  0  0  0  0  0  0  0  0  0  0  0
    1.3228   -3.5876    0.1671 H   0  0  0  0  0  0  0  0  0  0  0  0
    2.4500   -2.4919    0.9993 H   0  0  0  0  0  0  0  0  0  0  0  0
    1.7512   -4.1318    2.2021 C   0  0  0  0  0  0  0  0  0  0  0  0
    1.9881   -3.6327    3.1403 H   0  0  0  0  0  0  0  0  0  0  0  0
    0.8391   -4.7133    2.3260 H   0  0  0  0  0  0  0  0  0  0  0  0
    2.8485   -5.0445    1.8612 N   0  0  0  0  0  0  0  0  0  0  0  0
    2.9677   -5.7120    2.6090 H   0  0  0  0  0  0  0  0  0  0  0  0
    2.6194   -5.5339    1.0079 H   0  0  0  0  0  0  0  0  0  0  0  0
   -1.0922    1.0359   -0.2540 C   0  0  0  0  0  0  0  0  0  0  0  0
   -1.5484    0.8745   -1.3839 O   0  0  0  0  0  0  0  0  0  0  0  0
   -0.6302    2.2151    0.1777 N   0  0  0  0  0  0  0  0  0  0  0  0
   -0.2858    2.2697    1.1222 H   0  0  0  0  0  0  0  0  0  0  0  0
   -0.6097    3.4305   -0.6348 C   0  0  0  0  0  0  0  0  0  0  0  0
   -1.6138    3.6408   -1.0097 H   0  0  0  0  0  0  0  0  0  0  0  0
   -0.2619    4.2777   -0.0420 H   0  0  0  0  0  0  0  0  0  0  0  0
    0.0559    3.2897   -1.4890 H   0  0  0  0  0  0  0  0  0  0  0  0
  5  6  2  0  0  0  0
  5  7  1  0  0  0  0
  2  3  1  0  0  0  0
  2  4  1  0  0  0  0
  2  5  1  0  0  0  0
  1  2  1  0  0  0  0
 26 27  2  0  0  0  0
 26 28  1  0  0  0  0
 23 24  1  0  0  0  0
 23 25  1  0  0  0  0
 20 21  1  0  0  0  0
 20 22  1  0  0  0  0
 20 23  1  0  0  0  0
 17 18  1  0  0  0  0
 17 19  1  0  0  0  0
 17 20  1  0  0  0  0
 14 15  1  0  0  0  0
 14 16  1  0  0  0  0
 14 17  1  0  0  0  0
 11 12  1  0  0  0  0
 11 13  1  0  0  0  0
 11 14  1  0  0  0  0
  9 10  1  0  0  0  0
  9 11  1  0  0  0  0
  9 26  1  0  0  0  0
  7  8  1  0  0  0  0
  7  9  1  0  0  0  0
 30 31  1  0  0  0  0
 30 32  1  0  0  0  0
 30 33  1  0  0  0  0
 28 29  1  0  0  0  0
 28 30  1  0  0  0  0
M  END
$$$$
default_name
  -OEChem-01062215323D

 33 32  0     1  0  0  0  0  0999 V2000
   -3.8420   -3.6918    1.5562 H   0  0  0  0  0  0  0  0  0  0  0  0
   -3.8430   -2.7008    1.1032 C   0  0  0  0  0  0  0  0  0  0  0  0
   -4.5510   -2.0608    1.6242 H   0  0  0  0  0  0  0  0  0  0  0  0
   -4.1140   -2.7798    0.0522 H   0  0  0  0  0  0  0  0  0  0  0  0
   -2.4570   -2.1098    1.2172 C   0  0  0  0  0  0  0  0  0  0  0  0
   -1.5600   -2.7438    1.7572 O   0  0  0  0  0  0  0  0  0  0  0  0
   -2.2870   -0.8898    0.7102 N   0  0  0  0  0  0  0  0  0  0  0  0
   -3.0820   -0.4218    0.2992 H   0  0  0  0  0  0  0  0  0  0  0  0
   -1.0240   -0.1468    0.7262 C   0  0  1  0  0  0  0  0  0  0  0  0
   -0.8664    0.2478    1.7310 H   0  0  0  0  0  0  0  0  0  0  0  0
    0.1253   -1.1173    0.3915 C   0  0  0  0  0  0  0  0  0  0  0  0
   -0.1222   -1.6425   -0.5333 H   0  0  0  0  0  0  0  0  0  0  0  0
    1.0404   -0.5473    0.2250 H   0  0  0  0  0  0  0  0  0  0  0  0
    0.3740   -2.1661    1.4868 C   0  0  0  0  0  0  0  0  0  0  0  0
    0.6108   -1.6654    2.4260 H   0  0  0  0  0  0  0  0  0  0  0  0
   -0.5274   -2.7672    1.6195 H   0  0  0  0  0  0  0  0  0  0  0  0
    1.5416   -3.0849    1.1097 C   0  0  0  0  0  0  0  0  0  0  0  0
    1.3228   -3.5876    0.1671 H   0  0  0  0  0  0  0  0  0  0  0  0
    2.4500   -2.4919    0.9993 H   0  0  0  0  0  0  0  0  0  0  0  0
    1.7512   -4.1318    2.2021 C   0  0  0  0  0  0  0  0  0  0  0  0
    1.9881   -3.6327    3.1403 H   0  0  0  0  0  0  0  0  0  0  0  0
    0.8391   -4.7133    2.3260 H   0  0  0  0  0  0  0  0  0  0  0  0
    2.8485   -5.0445    1.8612 N   0  0  0  0  0  0  0  0  0  0  0  0
    2.9677   -5.7120    2.6090 H   0  0  0  0  0  0  0  0  0  0  0  0
    2.6194   -5.5339    1.0079 H   0  0  0  0  0  0  0  0  0  0  0  0
   -1.0922    1.0359   -0.2540 C   0  0  0  0  0  0  0  0  0  0  0  0
   -1.7853    0.9584   -1.2662 O   0  0  0  0  0  0  0  0  0  0  0  0
   -0.3664    2.1197    0.0442 N   0  0  0  0  0  0  0  0  0  0  0  0
    0.1642    2.1114    0.8998 H   0  0  0  0  0  0  0  0  0  0  0  0
   -0.3099    3.3190   -0.7902 C   0  0  0  0  0  0  0  0  0  0  0  0
   -1.3204    3.6951   -0.9645 H   0  0  0  0  0  0  0  0  0  0  0  0
    0.2834    4.0935   -0.3021 H   0  0  0  0  0  0  0  0  0  0  0  0
    0.1391    3.0741   -1.7550 H   0  0  0  0  0  0  0  0  0  0  0  0
  5  6  2  0  0  0  0
  5  7  1  0  0  0  0
  2  3  1  0  0  0  0
  2  4  1  0  0  0  0
  2  5  1  0  0  0  0
  1  2  1  0  0  0  0
 26 27  2  0  0  0  0
 26 28  1  0  0  0  0
 23 24  1  0  0  0  0
 23 25  1  0  0  0  0
 20 21  1  0  0  0  0
 20 22  1  0  0  0  0
 20 23  1  0  0  0  0
 17 18  1  0  0  0  0
 17 19  1  0  0  0  0
 17 20  1  0  0  0  0
 14 15  1  0  0  0  0
 14 16  1  0  0  0  0
 14 17  1  0  0  0  0
 11 12  1  0  0  0  0
 11 13  1  0  0  0  0
 11 14  1  0  0  0  0
  9 10  1  0  0  0  0
  9 11  1  0  0  0  0
  9 26  1  0  0  0  0
  7  8  1  0  0  0  0
  7  9  1  0  0  0  0
 30 31  1  0  0  0  0
 30 32  1  0  0  0  0
 30 33  1  0  0  0  0
 28 29  1  0  0  0  0
 28 30  1  0  0  0  0
M  END
$$$$
default_name
  -OEChem-01062215323D

 33 32  0     1  0  0  0  0  0999 V2000
   -3.8420   -3.6918    1.5562 H   0  0  0  0  0  0  0  0  0  0  0  0
   -3.8430   -2.7008    1.1032 C   0  0  0  0  0  0  0  0  0  0  0  0
   -4.5510   -2.0608    1.6242 H   0  0  0  0  0  0  0  0  0  0  0  0
   -4.1140   -2.7798    0.0522 H   0  0  0  0  0  0  0  0  0  0  0  0
   -2.4570   -2.1098    1.2172 C   0  0  0  0  0  0  0  0  0  0  0  0
   -1.5600   -2.7438    1.7572 O   0  0  0  0  0  0  0  0  0  0  0  0
   -2.2870   -0.8898    0.7102 N   0  0  0  0  0  0  0  0  0  0  0  0
   -3.0820   -0.4218    0.2992 H   0  0  0  0  0  0  0  0  0  0  0  0
   -1.0240   -0.1468    0.7262 C   0  0  1  0  0  0  0  0  0  0  0  0
   -0.8664    0.2478    1.7310 H   0  0  0  0  0  0  0  0  0  0  0  0
    0.1253   -1.1173    0.3915 C   0  0  0  0  0  0  0  0  0  0  0  0
   -0.1222   -1.6425   -0.5333 H   0  0  0  0  0  0  0  0  0  0  0  0
    1.0404   -0.5473    0.2250 H   0  0  0  0  0  0  0  0  0  0  0  0
    0.3740   -2.1661    1.4868 C   0  0  0  0  0  0  0  0  0  0  0  0
    0.6108   -1.6654    2.4260 H   0  0  0  0  0  0  0  0  0  0  0  0
   -0.5274   -2.7672    1.6195 H   0  0  0  0  0  0  0  0  0  0  0  0
    1.5416   -3.0849    1.1097 C   0  0  0  0  0  0  0  0  0  0  0  0
    1.3228   -3.5876    0.1671 H   0  0  0  0  0  0  0  0  0  0  0  0
    2.4500   -2.4919    0.9993 H   0  0  0  0  0  0  0  0  0  0  0  0
    1.7512   -4.1318    2.2021 C   0  0  0  0  0  0  0  0  0  0  0  0
    1.9881   -3.6327    3.1403 H   0  0  0  0  0  0  0  0  0  0  0  0
    0.8391   -4.7133    2.3260 H   0  0  0  0  0  0  0  0  0  0  0  0
    2.8485   -5.0445    1.8612 N   0  0  0  0  0  0  0  0  0  0  0  0
    2.9677   -5.7120    2.6090 H   0  0  0  0  0  0  0  0  0  0  0  0
    2.6194   -5.5339    1.0079 H   0  0  0  0  0  0  0  0  0  0  0  0
   -1.0922    1.0359   -0.2540 C   0  0  0  0  0  0  0  0  0  0  0  0
   -1.9769    1.0800   -1.1062 O   0  0  0  0  0  0  0  0  0  0  0  0
   -0.1538    1.9824   -0.1362 N   0  0  0  0  0  0  0  0  0  0  0  0
    0.5285    1.8816    0.5973 H   0  0  0  0  0  0  0  0  0  0  0  0
   -0.0697    3.1600   -0.9987 C   0  0  0  0  0  0  0  0  0  0  0  0
   -1.0191    3.6998   -0.9799 H   0  0  0  0  0  0  0  0  0  0  0  0
    0.7279    3.8226   -0.6599 H   0  0  0  0  0  0  0  0  0  0  0  0
    0.1308    2.8490   -2.0261 H   0  0  0  0  0  0  0  0  0  0  0  0
  5  6  2  0  0  0  0
  5  7  1  0  0  0  0
  2  3  1  0  0  0  0
  2  4  1  0  0  0  0
  2  5  1  0  0  0  0
  1  2  1  0  0  0  0
 26 27  2  0  0  0  0
 26 28  1  0  0  0  0
 23 24  1  0  0  0  0
 23 25  1  0  0  0  0
 20 21  1  0  0  0  0
 20 22  1  0  0  0  0
 20 23  1  0  0  0  0
 17 18  1  0  0  0  0
 17 19  1  0  0  0  0
 17 20  1  0  0  0  0
 14 15  1  0  0  0  0
 14 16  1  0  0  0  0
 14 17  1  0  0  0  0
 11 12  1  0  0  0  0
 11 13  1  0  0  0  0
 11 14  1  0  0  0  0
  9 10  1  0  0  0  0
  9 11  1  0  0  0  0
  9 26  1  0  0  0  0
  7  8  1  0  0  0  0
  7  9  1  0  0  0  0
 30 31  1  0  0  0  0
 30 32  1  0  0  0  0
 30 33  1  0  0  0  0
 28 29  1  0  0  0  0
 28 30  1  0  0  0  0
M  END
$$$$
