
  -OEChem-01062216083D

 33 32  0     1  0  0  0  0  0999 V2000
   -3.8862   -2.2696    1.1116 H   0  0  0  0  0  0  0  0  0  0  0  0
   -3.7762   -1.2906    0.6369 C   0  0  0  0  0  0  0  0  0  0  0  0
   -4.6170   -0.6576    0.9311 H   0  0  0  0  0  0  0  0  0  0  0  0
   -3.7910   -1.4227   -0.4476 H   0  0  0  0  0  0  0  0  0  0  0  0
   -2.4711   -0.6459    1.0638 C   0  0  0  0  0  0  0  0  0  0  0  0
   -1.8534   -1.1032    2.0120 O   0  0  0  0  0  0  0  0  0  0  0  0
   -2.0752    0.5348    0.4735 N   0  0  0  0  0  0  0  0  0  0  0  0
   -2.7148    0.9245   -0.2202 H   0  0  0  0  0  0  0  0  0  0  0  0
   -0.7462    1.1752    0.5122 C   0  0  1  0  0  0  0  0  0  0  0  0
   -0.4746    1.4027    1.5478 H   0  0  0  0  0  0  0  0  0  0  0  0
    0.3828    0.3440   -0.1706 C   0  0  0  0  0  0  0  0  0  0  0  0
    0.0666    0.1190   -1.1952 H   0  0  0  0  0  0  0  0  0  0  0  0
    1.2858    0.9586   -0.2356 H   0  0  0  0  0  0  0  0  0  0  0  0
    0.7982   -0.9691    0.5068 C   0  0  0  0  0  0  0  0  0  0  0  0
    1.1054   -0.7777    1.5404 H   0  0  0  0  0  0  0  0  0  0  0  0
   -0.0376   -1.6690    0.5155 H   0  0  0  0  0  0  0  0  0  0  0  0
    1.9326   -1.6387   -0.2778 C   0  0  0  0  0  0  0  0  0  0  0  0
    1.6080   -1.8261   -1.3064 H   0  0  0  0  0  0  0  0  0  0  0  0
    2.8017   -0.9736   -0.3132 H   0  0  0  0  0  0  0  0  0  0  0  0
    2.3346   -2.9575    0.3763 C   0  0  0  0  0  0  0  0  0  0  0  0
    2.6865   -2.7768    1.3981 H   0  0  0  0  0  0  0  0  0  0  0  0
    1.4715   -3.6303    0.4292 H   0  0  0  0  0  0  0  0  0  0  0  0
    3.4022   -3.5684   -0.4220 N   0  0  0  0  0  0  0  0  0  0  0  0
    3.7167   -4.4451   -0.0060 H   0  0  0  0  0  0  0  0  0  0  0  0
    3.1011   -3.7119   -1.3858 H   0  0  0  0  0  0  0  0  0  0  0  0
   -0.8263    2.4945   -0.3037 C   0  0  0  0  0  0  0  0  0  0  0  0
   -1.8647    2.8031   -0.8820 O   0  0  0  0  0  0  0  0  0  0  0  0
    0.2753    3.3213   -0.4458 N   0  0  0  0  0  0  0  0  0  0  0  0
    1.1275    3.0575    0.0400 H   0  0  0  0  0  0  0  0  0  0  0  0
    0.2604    4.5571   -1.2193 C   0  0  0  0  0  0  0  0  0  0  0  0
   -0.4548    5.2674   -0.7917 H   0  0  0  0  0  0  0  0  0  0  0  0
    1.2523    5.0189   -1.2137 H   0  0  0  0  0  0  0  0  0  0  0  0
   -0.0202    4.3553   -2.2584 H   0  0  0  0  0  0  0  0  0  0  0  0
  1  2  1  0  0  0  0
  2  3  1  0  0  0  0
  2  4  1  0  0  0  0
  2  5  1  0  0  0  0
  5  6  2  0  0  0  0
  5  7  1  0  0  0  0
  7  8  1  0  0  0  0
  7  9  1  0  0  0  0
  9 10  1  0  0  0  0
  9 11  1  0  0  0  0
  9 26  1  0  0  0  0
 11 12  1  0  0  0  0
 11 13  1  0  0  0  0
 11 14  1  0  0  0  0
 14 15  1  0  0  0  0
 14 16  1  0  0  0  0
 14 17  1  0  0  0  0
 17 18  1  0  0  0  0
 17 19  1  0  0  0  0
 17 20  1  0  0  0  0
 20 21  1  0  0  0  0
 20 22  1  0  0  0  0
 20 23  1  0  0  0  0
 23 24  1  0  0  0  0
 23 25  1  0  0  0  0
 26 27  2  0  0  0  0
 26 28  1  0  0  0  0
 28 29  1  0  0  0  0
 28 30  1  0  0  0  0
 30 31  1  0  0  0  0
 30 32  1  0  0  0  0
 30 33  1  0  0  0  0
M  END
$$$$

  -OEChem-01062216083D

 33 32  0     1  0  0  0  0  0999 V2000
   -3.9727   -2.1892    1.1582 H   0  0  0  0  0  0  0  0  0  0  0  0
   -3.8085   -1.2405    0.6393 C   0  0  0  0  0  0  0  0  0  0  0  0
   -4.6122   -0.5489    0.9042 H   0  0  0  0  0  0  0  0  0  0  0  0
   -3.8317   -1.4203   -0.4382 H   0  0  0  0  0  0  0  0  0  0  0  0
   -2.4687   -0.6508    1.0374 C   0  0  0  0  0  0  0  0  0  0  0  0
   -1.8460   -1.1451    1.9630 O   0  0  0  0  0  0  0  0  0  0  0  0
   -2.0557    0.5316    0.4615 N   0  0  0  0  0  0  0  0  0  0  0  0
   -2.7207    0.9755   -0.1731 H   0  0  0  0  0  0  0  0  0  0  0  0
   -0.7233    1.1668    0.5026 C   0  0  1  0  0  0  0  0  0  0  0  0
   -0.4515    1.3930    1.5386 H   0  0  0  0  0  0  0  0  0  0  0  0
    0.4070    0.3286   -0.1743 C   0  0  0  0  0  0  0  0  0  0  0  0
    0.0981    0.1067   -1.2017 H   0  0  0  0  0  0  0  0  0  0  0  0
    1.3158    0.9345   -0.2267 H   0  0  0  0  0  0  0  0  0  0  0  0
    0.8181   -0.9845    0.5040 C   0  0  0  0  0  0  0  0  0  0  0  0
    1.1194   -0.7958    1.5397 H   0  0  0  0  0  0  0  0  0  0  0  0
   -0.0173   -1.6842    0.5051 H   0  0  0  0  0  0  0  0  0  0  0  0
    1.9534   -1.6549   -0.2778 C   0  0  0  0  0  0  0  0  0  0  0  0
    1.6308   -1.8428   -1.3070 H   0  0  0  0  0  0  0  0  0  0  0  0
    2.8235   -0.9910   -0.3106 H   0  0  0  0  0  0  0  0  0  0  0  0
    2.3519   -2.9740    0.3770 C   0  0  0  0  0  0  0  0  0  0  0  0
    2.7013   -2.7938    1.3998 H   0  0  0  0  0  0  0  0  0  0  0  0
    1.4881   -3.6466    0.4270 H   0  0  0  0  0  0  0  0  0  0  0  0
    3.4210   -3.5842   -0.4199 N   0  0  0  0  0  0  0  0  0  0  0  0
    3.7391   -4.4584   -0.0011 H   0  0  0  0  0  0  0  0  0  0  0  0
    3.1201   -3.7313   -1.3831 H   0  0  0  0  0  0  0  0  0  0  0  0
   -0.8176    2.4942   -0.3075 C   0  0  0  0  0  0  0  0  0  0  0  0
   -1.9142    2.9187   -0.6616 O   0  0  0  0  0  0  0  0  0  0  0  0
    0.3051    3.1898   -0.7270 N   0  0  0  0  0  0  0  0  0  0  0  0
    1.2121    2.8391   -0.4339 H   0  0  0  0  0  0  0  0  0  0  0  0
    0.2487    4.4103   -1.5233 C   0  0  0  0  0  0  0  0  0  0  0  0
   -0.2999    5.1923   -0.9878 H   0  0  0  0  0  0  0  0  0  0  0  0
    1.2598    4.7759   -1.7275 H   0  0  0  0  0  0  0  0  0  0  0  0
   -0.2498    4.2213   -2.4799 H   0  0  0  0  0  0  0  0  0  0  0  0
  1  2  1  0  0  0  0
  2  3  1  0  0  0  0
  2  4  1  0  0  0  0
  2  5  1  0  0  0  0
  5  6  2  0  0  0  0
  5  7  1  0  0  0  0
  7  8  1  0  0  0  0
  7  9  1  0  0  0  0
  9 10  1  0  0  0  0
  9 11  1  0  0  0  0
  9 26  1  0  0  0  0
 11 12  1  0  0  0  0
 11 13  1  0  0  0  0
 11 14  1  0  0  0  0
 14 15  1  0  0  0  0
 14 16  1  0  0  0  0
 14 17  1  0  0  0  0
 17 18  1  0  0  0  0
 17 19  1  0  0  0  0
 17 20  1  0  0  0  0
 20 21  1  0  0  0  0
 20 22  1  0  0  0  0
 20 23  1  0  0  0  0
 23 24  1  0  0  0  0
 23 25  1  0  0  0  0
 26 27  2  0  0  0  0
 26 28  1  0  0  0  0
 28 29  1  0  0  0  0
 28 30  1  0  0  0  0
 30 31  1  0  0  0  0
 30 32  1  0  0  0  0
 30 33  1  0  0  0  0
M  END
$$$$

  -OEChem-01062216083D

 33 32  0     1  0  0  0  0  0999 V2000
   -4.0032   -2.1559    1.1295 H   0  0  0  0  0  0  0  0  0  0  0  0
   -3.8342   -1.1946    0.6366 C   0  0  0  0  0  0  0  0  0  0  0  0
   -4.6148   -0.4959    0.9472 H   0  0  0  0  0  0  0  0  0  0  0  0
   -3.8925   -1.3390   -0.4448 H   0  0  0  0  0  0  0  0  0  0  0  0
   -2.4713   -0.6456    1.0137 C   0  0  0  0  0  0  0  0  0  0  0  0
   -1.8450   -1.1697    1.9199 O   0  0  0  0  0  0  0  0  0  0  0  0
   -2.0430    0.5355    0.4459 N   0  0  0  0  0  0  0  0  0  0  0  0
   -2.7258    1.0227   -0.1349 H   0  0  0  0  0  0  0  0  0  0  0  0
   -0.7040    1.1582    0.4852 C   0  0  1  0  0  0  0  0  0  0  0  0
   -0.4326    1.3874    1.5208 H   0  0  0  0  0  0  0  0  0  0  0  0
    0.4277    0.3122   -0.1805 C   0  0  0  0  0  0  0  0  0  0  0  0
    0.1278    0.0887   -1.2100 H   0  0  0  0  0  0  0  0  0  0  0  0
    1.3384    0.9163   -0.2201 H   0  0  0  0  0  0  0  0  0  0  0  0
    0.8355   -0.9994    0.5027 C   0  0  0  0  0  0  0  0  0  0  0  0
    1.1324   -0.8094    1.5394 H   0  0  0  0  0  0  0  0  0  0  0  0
    0.0002   -1.6992    0.5004 H   0  0  0  0  0  0  0  0  0  0  0  0
    1.9734   -1.6723   -0.2740 C   0  0  0  0  0  0  0  0  0  0  0  0
    1.6541   -1.8624   -1.3039 H   0  0  0  0  0  0  0  0  0  0  0  0
    2.8439   -1.0090   -0.3056 H   0  0  0  0  0  0  0  0  0  0  0  0
    2.3692   -2.9902    0.3850 C   0  0  0  0  0  0  0  0  0  0  0  0
    2.7154   -2.8074    1.4084 H   0  0  0  0  0  0  0  0  0  0  0  0
    1.5044   -3.6615    0.4339 H   0  0  0  0  0  0  0  0  0  0  0  0
    3.4407   -3.6040   -0.4061 N   0  0  0  0  0  0  0  0  0  0  0  0
    3.7544   -4.4784    0.0157 H   0  0  0  0  0  0  0  0  0  0  0  0
    3.1439   -3.7522   -1.3703 H   0  0  0  0  0  0  0  0  0  0  0  0
   -0.8090    2.4896   -0.3211 C   0  0  0  0  0  0  0  0  0  0  0  0
   -1.9012    3.0379   -0.4366 O   0  0  0  0  0  0  0  0  0  0  0  0
    0.2543    3.0461   -1.0153 N   0  0  0  0  0  0  0  0  0  0  0  0
    1.1574    2.5885   -0.9381 H   0  0  0  0  0  0  0  0  0  0  0  0
    0.1507    4.2607   -1.8165 C   0  0  0  0  0  0  0  0  0  0  0  0
   -0.1622    5.1050   -1.1932 H   0  0  0  0  0  0  0  0  0  0  0  0
    1.1197    4.5025   -2.2639 H   0  0  0  0  0  0  0  0  0  0  0  0
   -0.5785    4.1276   -2.6226 H   0  0  0  0  0  0  0  0  0  0  0  0
  1  2  1  0  0  0  0
  2  3  1  0  0  0  0
  2  4  1  0  0  0  0
  2  5  1  0  0  0  0
  5  6  2  0  0  0  0
  5  7  1  0  0  0  0
  7  8  1  0  0  0  0
  7  9  1  0  0  0  0
  9 10  1  0  0  0  0
  9 11  1  0  0  0  0
  9 26  1  0  0  0  0
 11 12  1  0  0  0  0
 11 13  1  0  0  0  0
 11 14  1  0  0  0  0
 14 15  1  0  0  0  0
 14 16  1  0  0  0  0
 14 17  1  0  0  0  0
 17 18  1  0  0  0  0
 17 19  1  0  0  0  0
 17 20  1  0  0  0  0
 20 21  1  0  0  0  0
 20 22  1  0  0  0  0
 20 23  1  0  0  0  0
 23 24  1  0  0  0  0
 23 25  1  0  0  0  0
 26 27  2  0  0  0  0
 26 28  1  0  0  0  0
 28 29  1  0  0  0  0
 28 30  1  0  0  0  0
 30 31  1  0  0  0  0
 30 32  1  0  0  0  0
 30 33  1  0  0  0  0
M  END
$$$$

  -OEChem-01062216083D

 33 32  0     1  0  0  0  0  0999 V2000
   -4.0396   -2.1221    1.1274 H   0  0  0  0  0  0  0  0  0  0  0  0
   -3.8603   -1.1589    0.6415 C   0  0  0  0  0  0  0  0  0  0  0  0
   -4.6200   -0.4482    0.9757 H   0  0  0  0  0  0  0  0  0  0  0  0
   -3.9440   -1.2897   -0.4400 H   0  0  0  0  0  0  0  0  0  0  0  0
   -2.4784   -0.6426    0.9959 C   0  0  0  0  0  0  0  0  0  0  0  0
   -1.8451   -1.1916    1.8819 O   0  0  0  0  0  0  0  0  0  0  0  0
   -2.0412    0.5377    0.4324 N   0  0  0  0  0  0  0  0  0  0  0  0
   -2.7367    1.0530   -0.1062 H   0  0  0  0  0  0  0  0  0  0  0  0
   -0.6958    1.1474    0.4638 C   0  0  1  0  0  0  0  0  0  0  0  0
   -0.4219    1.3769    1.4986 H   0  0  0  0  0  0  0  0  0  0  0  0
    0.4393    0.3007   -0.1945 C   0  0  0  0  0  0  0  0  0  0  0  0
    0.1434    0.0686   -1.2233 H   0  0  0  0  0  0  0  0  0  0  0  0
    1.3461    0.9123   -0.2322 H   0  0  0  0  0  0  0  0  0  0  0  0
    0.8487   -1.0069    0.4946 C   0  0  0  0  0  0  0  0  0  0  0  0
    1.1424   -0.8113    1.5314 H   0  0  0  0  0  0  0  0  0  0  0  0
    0.0153   -1.7088    0.4923 H   0  0  0  0  0  0  0  0  0  0  0  0
    1.9901   -1.6808   -0.2762 C   0  0  0  0  0  0  0  0  0  0  0  0
    1.6742   -1.8762   -1.3061 H   0  0  0  0  0  0  0  0  0  0  0  0
    2.8599   -1.0164   -0.3086 H   0  0  0  0  0  0  0  0  0  0  0  0
    2.3855   -2.9946    0.3911 C   0  0  0  0  0  0  0  0  0  0  0  0
    2.7288   -2.8059    1.4144 H   0  0  0  0  0  0  0  0  0  0  0  0
    1.5212   -3.6662    0.4413 H   0  0  0  0  0  0  0  0  0  0  0  0
    3.4603   -3.6116   -0.3927 N   0  0  0  0  0  0  0  0  0  0  0  0
    3.7728   -4.4834    0.0351 H   0  0  0  0  0  0  0  0  0  0  0  0
    3.1673   -3.7656   -1.3572 H   0  0  0  0  0  0  0  0  0  0  0  0
   -0.8047    2.4814   -0.3345 C   0  0  0  0  0  0  0  0  0  0  0  0
   -1.8243    3.1537   -0.2257 O   0  0  0  0  0  0  0  0  0  0  0  0
    0.1279    2.8937   -1.2743 N   0  0  0  0  0  0  0  0  0  0  0  0
    0.9548    2.3176   -1.3992 H   0  0  0  0  0  0  0  0  0  0  0  0
   -0.0096    4.1054   -2.0747 C   0  0  0  0  0  0  0  0  0  0  0  0
   -0.0732    4.9870   -1.4280 H   0  0  0  0  0  0  0  0  0  0  0  0
    0.8558    4.2229   -2.7340 H   0  0  0  0  0  0  0  0  0  0  0  0
   -0.9110    4.0564   -2.6946 H   0  0  0  0  0  0  0  0  0  0  0  0
  1  2  1  0  0  0  0
  2  3  1  0  0  0  0
  2  4  1  0  0  0  0
  2  5  1  0  0  0  0
  5  6  2  0  0  0  0
  5  7  1  0  0  0  0
  7  8  1  0  0  0  0
  7  9  1  0  0  0  0
  9 10  1  0  0  0  0
  9 11  1  0  0  0  0
  9 26  1  0  0  0  0
 11 12  1  0  0  0  0
 11 13  1  0  0  0  0
 11 14  1  0  0  0  0
 14 15  1  0  0  0  0
 14 16  1  0  0  0  0
 14 17  1  0  0  0  0
 17 18  1  0  0  0  0
 17 19  1  0  0  0  0
 17 20  1  0  0  0  0
 20 21  1  0  0  0  0
 20 22  1  0  0  0  0
 20 23  1  0  0  0  0
 23 24  1  0  0  0  0
 23 25  1  0  0  0  0
 26 27  2  0  0  0  0
 26 28  1  0  0  0  0
 28 29  1  0  0  0  0
 28 30  1  0  0  0  0
 30 31  1  0  0  0  0
 30 32  1  0  0  0  0
 30 33  1  0  0  0  0
M  END
$$$$

  -OEChem-01062216083D

 33 32  0     1  0  0  0  0  0999 V2000
   -4.0495   -2.1100    1.1437 H   0  0  0  0  0  0  0  0  0  0  0  0
   -3.8719   -1.1480    0.6546 C   0  0  0  0  0  0  0  0  0  0  0  0
   -4.6250   -0.4336    0.9966 H   0  0  0  0  0  0  0  0  0  0  0  0
   -3.9683   -1.2800   -0.4258 H   0  0  0  0  0  0  0  0  0  0  0  0
   -2.4841   -0.6371    0.9929 C   0  0  0  0  0  0  0  0  0  0  0  0
   -1.8433   -1.1902    1.8703 O   0  0  0  0  0  0  0  0  0  0  0  0
   -2.0492    0.5417    0.4241 N   0  0  0  0  0  0  0  0  0  0  0  0
   -2.7504    1.0561   -0.1061 H   0  0  0  0  0  0  0  0  0  0  0  0
   -0.7005    1.1436    0.4464 C   0  0  1  0  0  0  0  0  0  0  0  0
   -0.4235    1.3748    1.4801 H   0  0  0  0  0  0  0  0  0  0  0  0
    0.4360    0.2959   -0.2071 C   0  0  0  0  0  0  0  0  0  0  0  0
    0.1356    0.0487   -1.2310 H   0  0  0  0  0  0  0  0  0  0  0  0
    1.3366    0.9172   -0.2578 H   0  0  0  0  0  0  0  0  0  0  0  0
    0.8501   -1.0071    0.4873 C   0  0  0  0  0  0  0  0  0  0  0  0
    1.1453   -0.8053    1.5223 H   0  0  0  0  0  0  0  0  0  0  0  0
    0.0193   -1.7120    0.4898 H   0  0  0  0  0  0  0  0  0  0  0  0
    1.9926   -1.6806   -0.2818 C   0  0  0  0  0  0  0  0  0  0  0  0
    1.6766   -1.8808   -1.3106 H   0  0  0  0  0  0  0  0  0  0  0  0
    2.8598   -1.0131   -0.3171 H   0  0  0  0  0  0  0  0  0  0  0  0
    2.3933   -2.9904    0.3904 C   0  0  0  0  0  0  0  0  0  0  0  0
    2.7379   -2.7966    1.4124 H   0  0  0  0  0  0  0  0  0  0  0  0
    1.5318   -3.6653    0.4452 H   0  0  0  0  0  0  0  0  0  0  0  0
    3.4689   -3.6067   -0.3927 N   0  0  0  0  0  0  0  0  0  0  0  0
    3.7857   -4.4748    0.0392 H   0  0  0  0  0  0  0  0  0  0  0  0
    3.1740   -3.7672   -1.3554 H   0  0  0  0  0  0  0  0  0  0  0  0
   -0.8032    2.4759   -0.3492 C   0  0  0  0  0  0  0  0  0  0  0  0
   -1.6882    3.2687   -0.0521 O   0  0  0  0  0  0  0  0  0  0  0  0
   -0.0604    2.7467   -1.4883 N   0  0  0  0  0  0  0  0  0  0  0  0
    0.6419    2.0662   -1.7625 H   0  0  0  0  0  0  0  0  0  0  0  0
   -0.2169    3.9558   -2.2885 C   0  0  0  0  0  0  0  0  0  0  0  0
   -0.0147    4.8453   -1.6827 H   0  0  0  0  0  0  0  0  0  0  0  0
    0.4823    3.9450   -3.1301 H   0  0  0  0  0  0  0  0  0  0  0  0
   -1.2348    4.0240   -2.6862 H   0  0  0  0  0  0  0  0  0  0  0  0
  1  2  1  0  0  0  0
  2  3  1  0  0  0  0
  2  4  1  0  0  0  0
  2  5  1  0  0  0  0
  5  6  2  0  0  0  0
  5  7  1  0  0  0  0
  7  8  1  0  0  0  0
  7  9  1  0  0  0  0
  9 10  1  0  0  0  0
  9 11  1  0  0  0  0
  9 26  1  0  0  0  0
 11 12  1  0  0  0  0
 11 13  1  0  0  0  0
 11 14  1  0  0  0  0
 14 15  1  0  0  0  0
 14 16  1  0  0  0  0
 14 17  1  0  0  0  0
 17 18  1  0  0  0  0
 17 19  1  0  0  0  0
 17 20  1  0  0  0  0
 20 21  1  0  0  0  0
 20 22  1  0  0  0  0
 20 23  1  0  0  0  0
 23 24  1  0  0  0  0
 23 25  1  0  0  0  0
 26 27  2  0  0  0  0
 26 28  1  0  0  0  0
 28 29  1  0  0  0  0
 28 30  1  0  0  0  0
 30 31  1  0  0  0  0
 30 32  1  0  0  0  0
 30 33  1  0  0  0  0
M  END
$$$$

  -OEChem-01062216083D

 33 32  0     1  0  0  0  0  0999 V2000
   -4.0487   -2.1143    1.1792 H   0  0  0  0  0  0  0  0  0  0  0  0
   -3.8765   -1.1591    0.6751 C   0  0  0  0  0  0  0  0  0  0  0  0
   -4.6326   -0.4435    1.0078 H   0  0  0  0  0  0  0  0  0  0  0  0
   -3.9748   -1.3085   -0.4028 H   0  0  0  0  0  0  0  0  0  0  0  0
   -2.4903   -0.6365    1.0034 C   0  0  0  0  0  0  0  0  0  0  0  0
   -1.8413   -1.1815    1.8795 O   0  0  0  0  0  0  0  0  0  0  0  0
   -2.0644    0.5405    0.4231 N   0  0  0  0  0  0  0  0  0  0  0  0
   -2.7651    1.0297   -0.1295 H   0  0  0  0  0  0  0  0  0  0  0  0
   -0.7142    1.1410    0.4287 C   0  0  1  0  0  0  0  0  0  0  0  0
   -0.4303    1.3759    1.4602 H   0  0  0  0  0  0  0  0  0  0  0  0
    0.4215    0.2941   -0.2252 C   0  0  0  0  0  0  0  0  0  0  0  0
    0.1121    0.0279   -1.2411 H   0  0  0  0  0  0  0  0  0  0  0  0
    1.3147    0.9247   -0.2979 H   0  0  0  0  0  0  0  0  0  0  0  0
    0.8451   -1.0011    0.4778 C   0  0  0  0  0  0  0  0  0  0  0  0
    1.1462   -0.7890    1.5092 H   0  0  0  0  0  0  0  0  0  0  0  0
    0.0165   -1.7084    0.4921 H   0  0  0  0  0  0  0  0  0  0  0  0
    1.9858   -1.6770   -0.2917 C   0  0  0  0  0  0  0  0  0  0  0  0
    1.6644   -1.8888   -1.3166 H   0  0  0  0  0  0  0  0  0  0  0  0
    2.8502   -1.0065   -0.3390 H   0  0  0  0  0  0  0  0  0  0  0  0
    2.3957   -2.9793    0.3896 C   0  0  0  0  0  0  0  0  0  0  0  0
    2.7452   -2.7753    1.4079 H   0  0  0  0  0  0  0  0  0  0  0  0
    1.5373   -3.6571    0.4551 H   0  0  0  0  0  0  0  0  0  0  0  0
    3.4692   -3.5973   -0.3949 N   0  0  0  0  0  0  0  0  0  0  0  0
    3.7937   -4.4599    0.0426 H   0  0  0  0  0  0  0  0  0  0  0  0
    3.1695   -3.7673   -1.3545 H   0  0  0  0  0  0  0  0  0  0  0  0
   -0.8091    2.4697   -0.3673 C   0  0  0  0  0  0  0  0  0  0  0  0
   -1.4883    3.3792    0.0887 O   0  0  0  0  0  0  0  0  0  0  0  0
   -0.3135    2.6189   -1.6536 N   0  0  0  0  0  0  0  0  0  0  0  0
    0.2272    1.8504   -2.0391 H   0  0  0  0  0  0  0  0  0  0  0  0
   -0.4635    3.8380   -2.4400 C   0  0  0  0  0  0  0  0  0  0  0  0
   -0.0017    4.6863   -1.9237 H   0  0  0  0  0  0  0  0  0  0  0  0
    0.0207    3.7215   -3.4144 H   0  0  0  0  0  0  0  0  0  0  0  0
   -1.5231    4.0599   -2.6050 H   0  0  0  0  0  0  0  0  0  0  0  0
  1  2  1  0  0  0  0
  2  3  1  0  0  0  0
  2  4  1  0  0  0  0
  2  5  1  0  0  0  0
  5  6  2  0  0  0  0
  5  7  1  0  0  0  0
  7  8  1  0  0  0  0
  7  9  1  0  0  0  0
  9 10  1  0  0  0  0
  9 11  1  0  0  0  0
  9 26  1  0  0  0  0
 11 12  1  0  0  0  0
 11 13  1  0  0  0  0
 11 14  1  0  0  0  0
 14 15  1  0  0  0  0
 14 16  1  0  0  0  0
 14 17  1  0  0  0  0
 17 18  1  0  0  0  0
 17 19  1  0  0  0  0
 17 20  1  0  0  0  0
 20 21  1  0  0  0  0
 20 22  1  0  0  0  0
 20 23  1  0  0  0  0
 23 24  1  0  0  0  0
 23 25  1  0  0  0  0
 26 27  2  0  0  0  0
 26 28  1  0  0  0  0
 28 29  1  0  0  0  0
 28 30  1  0  0  0  0
 30 31  1  0  0  0  0
 30 32  1  0  0  0  0
 30 33  1  0  0  0  0
M  END
$$$$

  -OEChem-01062216083D

 33 32  0     1  0  0  0  0  0999 V2000
   -4.0213   -2.1428    1.2088 H   0  0  0  0  0  0  0  0  0  0  0  0
   -3.8667   -1.1889    0.6968 C   0  0  0  0  0  0  0  0  0  0  0  0
   -4.6391   -0.4865    1.0199 H   0  0  0  0  0  0  0  0  0  0  0  0
   -3.9567   -1.3499   -0.3800 H   0  0  0  0  0  0  0  0  0  0  0  0
   -2.4934   -0.6349    1.0265 C   0  0  0  0  0  0  0  0  0  0  0  0
   -1.8385   -1.1551    1.9130 O   0  0  0  0  0  0  0  0  0  0  0  0
   -2.0843    0.5409    0.4310 N   0  0  0  0  0  0  0  0  0  0  0  0
   -2.7812    0.9938   -0.1549 H   0  0  0  0  0  0  0  0  0  0  0  0
   -0.7349    1.1436    0.4237 C   0  0  1  0  0  0  0  0  0  0  0  0
   -0.4450    1.3810    1.4533 H   0  0  0  0  0  0  0  0  0  0  0  0
    0.3995    0.3004   -0.2359 C   0  0  0  0  0  0  0  0  0  0  0  0
    0.0862    0.0259   -1.2479 H   0  0  0  0  0  0  0  0  0  0  0  0
    1.2872    0.9374   -0.3204 H   0  0  0  0  0  0  0  0  0  0  0  0
    0.8309   -0.9907    0.4708 C   0  0  0  0  0  0  0  0  0  0  0  0
    1.1379   -0.7718    1.4990 H   0  0  0  0  0  0  0  0  0  0  0  0
    0.0033   -1.6994    0.4954 H   0  0  0  0  0  0  0  0  0  0  0  0
    1.9692   -1.6668   -0.3024 C   0  0  0  0  0  0  0  0  0  0  0  0
    1.6432   -1.8834   -1.3246 H   0  0  0  0  0  0  0  0  0  0  0  0
    2.8310   -0.9936   -0.3568 H   0  0  0  0  0  0  0  0  0  0  0  0
    2.3876   -2.9648    0.3813 C   0  0  0  0  0  0  0  0  0  0  0  0
    2.7430   -2.7556    1.3965 H   0  0  0  0  0  0  0  0  0  0  0  0
    1.5320   -3.6454    0.4552 H   0  0  0  0  0  0  0  0  0  0  0  0
    3.4585   -3.5821   -0.4078 N   0  0  0  0  0  0  0  0  0  0  0  0
    3.7907   -4.4407    0.0316 H   0  0  0  0  0  0  0  0  0  0  0  0
    3.1535   -3.7581   -1.3647 H   0  0  0  0  0  0  0  0  0  0  0  0
   -0.8222    2.4665   -0.3771 C   0  0  0  0  0  0  0  0  0  0  0  0
   -1.2266    3.4749    0.1833 O   0  0  0  0  0  0  0  0  0  0  0  0
   -0.6103    2.5210   -1.7456 N   0  0  0  0  0  0  0  0  0  0  0  0
   -0.2758    1.6775   -2.2013 H   0  0  0  0  0  0  0  0  0  0  0  0
   -0.7355    3.7438   -2.5305 C   0  0  0  0  0  0  0  0  0  0  0  0
   -0.0424    4.5079   -2.1628 H   0  0  0  0  0  0  0  0  0  0  0  0
   -0.5044    3.5446   -3.5814 H   0  0  0  0  0  0  0  0  0  0  0  0
   -1.7564    4.1357   -2.4697 H   0  0  0  0  0  0  0  0  0  0  0  0
  1  2  1  0  0  0  0
  2  3  1  0  0  0  0
  2  4  1  0  0  0  0
  2  5  1  0  0  0  0
  5  6  2  0  0  0  0
  5  7  1  0  0  0  0
  7  8  1  0  0  0  0
  7  9  1  0  0  0  0
  9 10  1  0  0  0  0
  9 11  1  0  0  0  0
  9 26  1  0  0  0  0
 11 12  1  0  0  0  0
 11 13  1  0  0  0  0
 11 14  1  0  0  0  0
 14 15  1  0  0  0  0
 14 16  1  0  0  0  0
 14 17  1  0  0  0  0
 17 18  1  0  0  0  0
 17 19  1  0  0  0  0
 17 20  1  0  0  0  0
 20 21  1  0  0  0  0
 20 22  1  0  0  0  0
 20 23  1  0  0  0  0
 23 24  1  0  0  0  0
 23 25  1  0  0  0  0
 26 27  2  0  0  0  0
 26 28  1  0  0  0  0
 28 29  1  0  0  0  0
 28 30  1  0  0  0  0
 30 31  1  0  0  0  0
 30 32  1  0  0  0  0
 30 33  1  0  0  0  0
M  END
$$$$

  -OEChem-01062216083D

 33 32  0     1  0  0  0  0  0999 V2000
   -3.9895   -2.1770    1.2331 H   0  0  0  0  0  0  0  0  0  0  0  0
   -3.8527   -1.2226    0.7168 C   0  0  0  0  0  0  0  0  0  0  0  0
   -4.6416   -0.5353    1.0321 H   0  0  0  0  0  0  0  0  0  0  0  0
   -3.9324   -1.3915   -0.3597 H   0  0  0  0  0  0  0  0  0  0  0  0
   -2.4938   -0.6378    1.0518 C   0  0  0  0  0  0  0  0  0  0  0  0
   -1.8315   -1.1412    1.9423 O   0  0  0  0  0  0  0  0  0  0  0  0
   -2.1013    0.5387    0.4462 N   0  0  0  0  0  0  0  0  0  0  0  0
   -2.7956    0.9638   -0.1627 H   0  0  0  0  0  0  0  0  0  0  0  0
   -0.7546    1.1479    0.4337 C   0  0  1  0  0  0  0  0  0  0  0  0
   -0.4597    1.3842    1.4623 H   0  0  0  0  0  0  0  0  0  0  0  0
    0.3791    0.3179   -0.2405 C   0  0  0  0  0  0  0  0  0  0  0  0
    0.0657    0.0520   -1.2546 H   0  0  0  0  0  0  0  0  0  0  0  0
    1.2630    0.9604   -0.3247 H   0  0  0  0  0  0  0  0  0  0  0  0
    0.8160   -0.9751    0.4591 C   0  0  0  0  0  0  0  0  0  0  0  0
    1.1266   -0.7583    1.4868 H   0  0  0  0  0  0  0  0  0  0  0  0
   -0.0112   -1.6845    0.4855 H   0  0  0  0  0  0  0  0  0  0  0  0
    1.9533   -1.6492   -0.3169 C   0  0  0  0  0  0  0  0  0  0  0  0
    1.6266   -1.8645   -1.3392 H   0  0  0  0  0  0  0  0  0  0  0  0
    2.8146   -0.9755   -0.3707 H   0  0  0  0  0  0  0  0  0  0  0  0
    2.3711   -2.9481    0.3666 C   0  0  0  0  0  0  0  0  0  0  0  0
    2.7255   -2.7378    1.3820 H   0  0  0  0  0  0  0  0  0  0  0  0
    1.5145   -3.6277    0.4404 H   0  0  0  0  0  0  0  0  0  0  0  0
    3.4415   -3.5704   -0.4193 N   0  0  0  0  0  0  0  0  0  0  0  0
    3.7759   -4.4249    0.0265 H   0  0  0  0  0  0  0  0  0  0  0  0
    3.1358   -3.7542   -1.3744 H   0  0  0  0  0  0  0  0  0  0  0  0
   -0.8420    2.4650   -0.3708 C   0  0  0  0  0  0  0  0  0  0  0  0
   -0.9336    3.5312    0.2192 O   0  0  0  0  0  0  0  0  0  0  0  0
   -0.9332    2.4610   -1.7532 N   0  0  0  0  0  0  0  0  0  0  0  0
   -0.8194    1.5693   -2.2255 H   0  0  0  0  0  0  0  0  0  0  0  0
   -1.0270    3.6765   -2.5533 C   0  0  0  0  0  0  0  0  0  0  0  0
   -0.1570    4.3183   -2.3789 H   0  0  0  0  0  0  0  0  0  0  0  0
   -1.0645    3.4266   -3.6179 H   0  0  0  0  0  0  0  0  0  0  0  0
   -1.9336    4.2347   -2.2975 H   0  0  0  0  0  0  0  0  0  0  0  0
  1  2  1  0  0  0  0
  2  3  1  0  0  0  0
  2  4  1  0  0  0  0
  2  5  1  0  0  0  0
  5  6  2  0  0  0  0
  5  7  1  0  0  0  0
  7  8  1  0  0  0  0
  7  9  1  0  0  0  0
  9 10  1  0  0  0  0
  9 11  1  0  0  0  0
  9 26  1  0  0  0  0
 11 12  1  0  0  0  0
 11 13  1  0  0  0  0
 11 14  1  0  0  0  0
 14 15  1  0  0  0  0
 14 16  1  0  0  0  0
 14 17  1  0  0  0  0
 17 18  1  0  0  0  0
 17 19  1  0  0  0  0
 17 20  1  0  0  0  0
 20 21  1  0  0  0  0
 20 22  1  0  0  0  0
 20 23  1  0  0  0  0
 23 24  1  0  0  0  0
 23 25  1  0  0  0  0
 26 27  2  0  0  0  0
 26 28  1  0  0  0  0
 28 29  1  0  0  0  0
 28 30  1  0  0  0  0
 30 31  1  0  0  0  0
 30 32  1  0  0  0  0
 30 33  1  0  0  0  0
M  END
$$$$

  -OEChem-01062216083D

 33 32  0     1  0  0  0  0  0999 V2000
   -4.0155   -2.1812    1.2967 H   0  0  0  0  0  0  0  0  0  0  0  0
   -3.8773   -1.2385    0.7598 C   0  0  0  0  0  0  0  0  0  0  0  0
   -4.6638   -0.5427    1.0623 H   0  0  0  0  0  0  0  0  0  0  0  0
   -3.9611   -1.4304   -0.3124 H   0  0  0  0  0  0  0  0  0  0  0  0
   -2.5155   -0.6503    1.0788 C   0  0  0  0  0  0  0  0  0  0  0  0
   -1.8449   -1.1466    1.9669 O   0  0  0  0  0  0  0  0  0  0  0  0
   -2.1297    0.5241    0.4642 N   0  0  0  0  0  0  0  0  0  0  0  0
   -2.8262    0.9435   -0.1460 H   0  0  0  0  0  0  0  0  0  0  0  0
   -0.7871    1.1444    0.4615 C   0  0  1  0  0  0  0  0  0  0  0  0
   -0.4965    1.3826    1.4909 H   0  0  0  0  0  0  0  0  0  0  0  0
    0.3510    0.3292   -0.2192 C   0  0  0  0  0  0  0  0  0  0  0  0
    0.0428    0.0794   -1.2392 H   0  0  0  0  0  0  0  0  0  0  0  0
    1.2316    0.9778   -0.2917 H   0  0  0  0  0  0  0  0  0  0  0  0
    0.7955   -0.9693    0.4657 C   0  0  0  0  0  0  0  0  0  0  0  0
    1.1058   -0.7630    1.4955 H   0  0  0  0  0  0  0  0  0  0  0  0
   -0.0274   -1.6843    0.4849 H   0  0  0  0  0  0  0  0  0  0  0  0
    1.9373   -1.6220   -0.3221 C   0  0  0  0  0  0  0  0  0  0  0  0
    1.6098   -1.8234   -1.3471 H   0  0  0  0  0  0  0  0  0  0  0  0
    2.7923   -0.9394   -0.3677 H   0  0  0  0  0  0  0  0  0  0  0  0
    2.3711   -2.9279    0.3373 C   0  0  0  0  0  0  0  0  0  0  0  0
    2.7272   -2.7328    1.3552 H   0  0  0  0  0  0  0  0  0  0  0  0
    1.5224   -3.6177    0.4011 H   0  0  0  0  0  0  0  0  0  0  0  0
    3.4450   -3.5220   -0.4656 N   0  0  0  0  0  0  0  0  0  0  0  0
    3.7820   -4.3887   -0.0465 H   0  0  0  0  0  0  0  0  0  0  0  0
    3.1414   -3.6765   -1.4265 H   0  0  0  0  0  0  0  0  0  0  0  0
   -0.8660    2.4525   -0.3549 C   0  0  0  0  0  0  0  0  0  0  0  0
   -0.6548    3.5280    0.1852 O   0  0  0  0  0  0  0  0  0  0  0  0
   -1.2424    2.4303   -1.6879 N   0  0  0  0  0  0  0  0  0  0  0  0
   -1.3111    1.5206   -2.1336 H   0  0  0  0  0  0  0  0  0  0  0  0
   -1.2847    3.6255   -2.5219 C   0  0  0  0  0  0  0  0  0  0  0  0
   -0.2971    4.0964   -2.5667 H   0  0  0  0  0  0  0  0  0  0  0  0
   -1.5914    3.3665   -3.5400 H   0  0  0  0  0  0  0  0  0  0  0  0
   -2.0017    4.3487   -2.1194 H   0  0  0  0  0  0  0  0  0  0  0  0
  1  2  1  0  0  0  0
  2  3  1  0  0  0  0
  2  4  1  0  0  0  0
  2  5  1  0  0  0  0
  5  6  2  0  0  0  0
  5  7  1  0  0  0  0
  7  8  1  0  0  0  0
  7  9  1  0  0  0  0
  9 10  1  0  0  0  0
  9 11  1  0  0  0  0
  9 26  1  0  0  0  0
 11 12  1  0  0  0  0
 11 13  1  0  0  0  0
 11 14  1  0  0  0  0
 14 15  1  0  0  0  0
 14 16  1  0  0  0  0
 14 17  1  0  0  0  0
 17 18  1  0  0  0  0
 17 19  1  0  0  0  0
 17 20  1  0  0  0  0
 20 21  1  0  0  0  0
 20 22  1  0  0  0  0
 20 23  1  0  0  0  0
 23 24  1  0  0  0  0
 23 25  1  0  0  0  0
 26 27  2  0  0  0  0
 26 28  1  0  0  0  0
 28 29  1  0  0  0  0
 28 30  1  0  0  0  0
 30 31  1  0  0  0  0
 30 32  1  0  0  0  0
 30 33  1  0  0  0  0
M  END
$$$$

  -OEChem-01062216083D

 33 32  0     1  0  0  0  0  0999 V2000
   -3.9920   -2.2187    1.3213 H   0  0  0  0  0  0  0  0  0  0  0  0
   -3.8676   -1.2747    0.7831 C   0  0  0  0  0  0  0  0  0  0  0  0
   -4.6632   -0.5897    1.0859 H   0  0  0  0  0  0  0  0  0  0  0  0
   -3.9497   -1.4693   -0.2887 H   0  0  0  0  0  0  0  0  0  0  0  0
   -2.5134   -0.6682    1.1000 C   0  0  0  0  0  0  0  0  0  0  0  0
   -1.8367   -1.1537    1.9893 O   0  0  0  0  0  0  0  0  0  0  0  0
   -2.1400    0.5083    0.4805 N   0  0  0  0  0  0  0  0  0  0  0  0
   -2.8490    0.9330   -0.1105 H   0  0  0  0  0  0  0  0  0  0  0  0
   -0.8039    1.1451    0.4813 C   0  0  1  0  0  0  0  0  0  0  0  0
   -0.5133    1.3826    1.5108 H   0  0  0  0  0  0  0  0  0  0  0  0
    0.3331    0.3403   -0.2121 C   0  0  0  0  0  0  0  0  0  0  0  0
    0.0200    0.1016   -1.2336 H   0  0  0  0  0  0  0  0  0  0  0  0
    1.2124    0.9910   -0.2830 H   0  0  0  0  0  0  0  0  0  0  0  0
    0.7845   -0.9608    0.4625 C   0  0  0  0  0  0  0  0  0  0  0  0
    1.0982   -0.7587    1.4921 H   0  0  0  0  0  0  0  0  0  0  0  0
   -0.0368   -1.6775    0.4811 H   0  0  0  0  0  0  0  0  0  0  0  0
    1.9245   -1.6099   -0.3305 C   0  0  0  0  0  0  0  0  0  0  0  0
    1.5938   -1.8099   -1.3548 H   0  0  0  0  0  0  0  0  0  0  0  0
    2.7796   -0.9273   -0.3767 H   0  0  0  0  0  0  0  0  0  0  0  0
    2.3571   -2.9169    0.3273 C   0  0  0  0  0  0  0  0  0  0  0  0
    2.7150   -2.7221    1.3446 H   0  0  0  0  0  0  0  0  0  0  0  0
    1.5069   -3.6051    0.3924 H   0  0  0  0  0  0  0  0  0  0  0  0
    3.4295   -3.5132   -0.4755 N   0  0  0  0  0  0  0  0  0  0  0  0
    3.7638   -4.3810   -0.0566 H   0  0  0  0  0  0  0  0  0  0  0  0
    3.1260   -3.6662   -1.4366 H   0  0  0  0  0  0  0  0  0  0  0  0
   -0.8753    2.4510   -0.3387 C   0  0  0  0  0  0  0  0  0  0  0  0
   -0.3955    3.4838    0.1046 O   0  0  0  0  0  0  0  0  0  0  0  0
   -1.5218    2.4759   -1.5640 N   0  0  0  0  0  0  0  0  0  0  0  0
   -1.7600    1.5784   -1.9740 H   0  0  0  0  0  0  0  0  0  0  0  0
   -1.5641    3.6633   -2.4097 C   0  0  0  0  0  0  0  0  0  0  0  0
   -0.5510    3.9739   -2.6863 H   0  0  0  0  0  0  0  0  0  0  0  0
   -2.1258    3.4561   -3.3255 H   0  0  0  0  0  0  0  0  0  0  0  0
   -2.0542    4.4900   -1.8849 H   0  0  0  0  0  0  0  0  0  0  0  0
  1  2  1  0  0  0  0
  2  3  1  0  0  0  0
  2  4  1  0  0  0  0
  2  5  1  0  0  0  0
  5  6  2  0  0  0  0
  5  7  1  0  0  0  0
  7  8  1  0  0  0  0
  7  9  1  0  0  0  0
  9 10  1  0  0  0  0
  9 11  1  0  0  0  0
  9 26  1  0  0  0  0
 11 12  1  0  0  0  0
 11 13  1  0  0  0  0
 11 14  1  0  0  0  0
 14 15  1  0  0  0  0
 14 16  1  0  0  0  0
 14 17  1  0  0  0  0
 17 18  1  0  0  0  0
 17 19  1  0  0  0  0
 17 20  1  0  0  0  0
 20 21  1  0  0  0  0
 20 22  1  0  0  0  0
 20 23  1  0  0  0  0
 23 24  1  0  0  0  0
 23 25  1  0  0  0  0
 26 27  2  0  0  0  0
 26 28  1  0  0  0  0
 28 29  1  0  0  0  0
 28 30  1  0  0  0  0
 30 31  1  0  0  0  0
 30 32  1  0  0  0  0
 30 33  1  0  0  0  0
M  END
$$$$

  -OEChem-01062216083D

 33 32  0     1  0  0  0  0  0999 V2000
   -3.9955   -2.2399    1.3678 H   0  0  0  0  0  0  0  0  0  0  0  0
   -3.8710   -1.3069    0.8106 C   0  0  0  0  0  0  0  0  0  0  0  0
   -4.6677   -0.6166    1.0986 H   0  0  0  0  0  0  0  0  0  0  0  0
   -3.9518   -1.5231   -0.2573 H   0  0  0  0  0  0  0  0  0  0  0  0
   -2.5170   -0.6939    1.1161 C   0  0  0  0  0  0  0  0  0  0  0  0
   -1.8349   -1.1692    2.0067 O   0  0  0  0  0  0  0  0  0  0  0  0
   -2.1548    0.4834    0.4916 N   0  0  0  0  0  0  0  0  0  0  0  0
   -2.8806    0.9185   -0.0694 H   0  0  0  0  0  0  0  0  0  0  0  0
   -0.8250    1.1366    0.4972 C   0  0  1  0  0  0  0  0  0  0  0  0
   -0.5366    1.3744    1.5272 H   0  0  0  0  0  0  0  0  0  0  0  0
    0.3147    0.3374   -0.1999 C   0  0  0  0  0  0  0  0  0  0  0  0
   -0.0009    0.1032   -1.2220 H   0  0  0  0  0  0  0  0  0  0  0  0
    1.1931    0.9897   -0.2701 H   0  0  0  0  0  0  0  0  0  0  0  0
    0.7756   -0.9639    0.4686 C   0  0  0  0  0  0  0  0  0  0  0  0
    1.0909   -0.7644    1.4983 H   0  0  0  0  0  0  0  0  0  0  0  0
   -0.0415   -1.6856    0.4860 H   0  0  0  0  0  0  0  0  0  0  0  0
    1.9171   -1.6028   -0.3310 C   0  0  0  0  0  0  0  0  0  0  0  0
    1.5856   -1.7984   -1.3556 H   0  0  0  0  0  0  0  0  0  0  0  0
    2.7678   -0.9146   -0.3758 H   0  0  0  0  0  0  0  0  0  0  0  0
    2.3605   -2.9102    0.3191 C   0  0  0  0  0  0  0  0  0  0  0  0
    2.7196   -2.7190    1.3366 H   0  0  0  0  0  0  0  0  0  0  0  0
    1.5150   -3.6042    0.3826 H   0  0  0  0  0  0  0  0  0  0  0  0
    3.4341   -3.4971   -0.4892 N   0  0  0  0  0  0  0  0  0  0  0  0
    3.7769   -4.3629   -0.0729 H   0  0  0  0  0  0  0  0  0  0  0  0
    3.1278   -3.6507   -1.4494 H   0  0  0  0  0  0  0  0  0  0  0  0
   -0.8840    2.4426   -0.3274 C   0  0  0  0  0  0  0  0  0  0  0  0
   -0.1942    3.3997   -0.0070 O   0  0  0  0  0  0  0  0  0  0  0  0
   -1.7551    2.5691   -1.3985 N   0  0  0  0  0  0  0  0  0  0  0  0
   -2.1484    1.7100   -1.7678 H   0  0  0  0  0  0  0  0  0  0  0  0
   -1.8015    3.7645   -2.2334 C   0  0  0  0  0  0  0  0  0  0  0  0
   -0.8400    3.9207   -2.7339 H   0  0  0  0  0  0  0  0  0  0  0  0
   -2.5785    3.6636   -2.9972 H   0  0  0  0  0  0  0  0  0  0  0  0
   -2.0296    4.6476   -1.6267 H   0  0  0  0  0  0  0  0  0  0  0  0
  1  2  1  0  0  0  0
  2  3  1  0  0  0  0
  2  4  1  0  0  0  0
  2  5  1  0  0  0  0
  5  6  2  0  0  0  0
  5  7  1  0  0  0  0
  7  8  1  0  0  0  0
  7  9  1  0  0  0  0
  9 10  1  0  0  0  0
  9 11  1  0  0  0  0
  9 26  1  0  0  0  0
 11 12  1  0  0  0  0
 11 13  1  0  0  0  0
 11 14  1  0  0  0  0
 14 15  1  0  0  0  0
 14 16  1  0  0  0  0
 14 17  1  0  0  0  0
 17 18  1  0  0  0  0
 17 19  1  0  0  0  0
 17 20  1  0  0  0  0
 20 21  1  0  0  0  0
 20 22  1  0  0  0  0
 20 23  1  0  0  0  0
 23 24  1  0  0  0  0
 23 25  1  0  0  0  0
 26 27  2  0  0  0  0
 26 28  1  0  0  0  0
 28 29  1  0  0  0  0
 28 30  1  0  0  0  0
 30 31  1  0  0  0  0
 30 32  1  0  0  0  0
 30 33  1  0  0  0  0
M  END
$$$$

  -OEChem-01062216083D

 33 32  0     1  0  0  0  0  0999 V2000
   -3.7679   -2.3939    1.3493 H   0  0  0  0  0  0  0  0  0  0  0  0
   -3.7188   -1.4536    0.7926 C   0  0  0  0  0  0  0  0  0  0  0  0
   -4.6053   -0.8593    1.0269 H   0  0  0  0  0  0  0  0  0  0  0  0
   -3.7097   -1.6801   -0.2761 H   0  0  0  0  0  0  0  0  0  0  0  0
   -2.4659   -0.6877    1.1738 C   0  0  0  0  0  0  0  0  0  0  0  0
   -1.8131   -1.0472    2.1383 O   0  0  0  0  0  0  0  0  0  0  0  0
   -2.1651    0.4904    0.5190 N   0  0  0  0  0  0  0  0  0  0  0  0
   -2.8207    0.7373   -0.2113 H   0  0  0  0  0  0  0  0  0  0  0  0
   -0.8433    1.1628    0.4922 C   0  0  1  0  0  0  0  0  0  0  0  0
   -0.5390    1.4077    1.5156 H   0  0  0  0  0  0  0  0  0  0  0  0
    0.2750    0.3323   -0.2088 C   0  0  0  0  0  0  0  0  0  0  0  0
   -0.0661    0.0763   -1.2172 H   0  0  0  0  0  0  0  0  0  0  0  0
    1.1600    0.9693   -0.3181 H   0  0  0  0  0  0  0  0  0  0  0  0
    0.7442   -0.9541    0.4849 C   0  0  0  0  0  0  0  0  0  0  0  0
    1.0900   -0.7267    1.4989 H   0  0  0  0  0  0  0  0  0  0  0  0
   -0.0748   -1.6707    0.5488 H   0  0  0  0  0  0  0  0  0  0  0  0
    1.8605   -1.6218   -0.3266 C   0  0  0  0  0  0  0  0  0  0  0  0
    1.5000   -1.8435   -1.3362 H   0  0  0  0  0  0  0  0  0  0  0  0
    2.7132   -0.9402   -0.4136 H   0  0  0  0  0  0  0  0  0  0  0  0
    2.3147   -2.9142    0.3453 C   0  0  0  0  0  0  0  0  0  0  0  0
    2.7028   -2.6984    1.3472 H   0  0  0  0  0  0  0  0  0  0  0  0
    1.4683   -3.6019    0.4501 H   0  0  0  0  0  0  0  0  0  0  0  0
    3.3626   -3.5258   -0.4782 N   0  0  0  0  0  0  0  0  0  0  0  0
    3.7135   -4.3831   -0.0516 H   0  0  0  0  0  0  0  0  0  0  0  0
    3.0294   -3.7001   -1.4259 H   0  0  0  0  0  0  0  0  0  0  0  0
   -0.8887    2.4730   -0.3368 C   0  0  0  0  0  0  0  0  0  0  0  0
    0.0007    3.3025   -0.2064 O   0  0  0  0  0  0  0  0  0  0  0  0
   -1.9327    2.7691   -1.2010 N   0  0  0  0  0  0  0  0  0  0  0  0
   -2.6272    2.0544   -1.3730 H   0  0  0  0  0  0  0  0  0  0  0  0
   -1.9900    3.9972   -1.9868 C   0  0  0  0  0  0  0  0  0  0  0  0
   -1.1224    4.0689   -2.6512 H   0  0  0  0  0  0  0  0  0  0  0  0
   -2.8966    4.0128   -2.5993 H   0  0  0  0  0  0  0  0  0  0  0  0
   -2.0030    4.8726   -1.3287 H   0  0  0  0  0  0  0  0  0  0  0  0
  1  2  1  0  0  0  0
  2  3  1  0  0  0  0
  2  4  1  0  0  0  0
  2  5  1  0  0  0  0
  5  6  2  0  0  0  0
  5  7  1  0  0  0  0
  7  8  1  0  0  0  0
  7  9  1  0  0  0  0
  9 10  1  0  0  0  0
  9 11  1  0  0  0  0
  9 26  1  0  0  0  0
 11 12  1  0  0  0  0
 11 13  1  0  0  0  0
 11 14  1  0  0  0  0
 14 15  1  0  0  0  0
 14 16  1  0  0  0  0
 14 17  1  0  0  0  0
 17 18  1  0  0  0  0
 17 19  1  0  0  0  0
 17 20  1  0  0  0  0
 20 21  1  0  0  0  0
 20 22  1  0  0  0  0
 20 23  1  0  0  0  0
 23 24  1  0  0  0  0
 23 25  1  0  0  0  0
 26 27  2  0  0  0  0
 26 28  1  0  0  0  0
 28 29  1  0  0  0  0
 28 30  1  0  0  0  0
 30 31  1  0  0  0  0
 30 32  1  0  0  0  0
 30 33  1  0  0  0  0
M  END
$$$$

  -OEChem-01062216083D

 33 32  0     1  0  0  0  0  0999 V2000
   -3.6461   -2.3998    1.3206 H   0  0  0  0  0  0  0  0  0  0  0  0
   -3.5728   -1.5027    0.6993 C   0  0  0  0  0  0  0  0  0  0  0  0
   -4.5098   -0.9458    0.7741 H   0  0  0  0  0  0  0  0  0  0  0  0
   -3.4181   -1.8074   -0.3384 H   0  0  0  0  0  0  0  0  0  0  0  0
   -2.4160   -0.6394    1.1660 C   0  0  0  0  0  0  0  0  0  0  0  0
   -1.8141   -0.9317    2.1852 O   0  0  0  0  0  0  0  0  0  0  0  0
   -2.1385    0.5419    0.5091 N   0  0  0  0  0  0  0  0  0  0  0  0
   -2.6887    0.6512   -0.3367 H   0  0  0  0  0  0  0  0  0  0  0  0
   -0.8065    1.1931    0.4677 C   0  0  1  0  0  0  0  0  0  0  0  0
   -0.4885    1.4413    1.4861 H   0  0  0  0  0  0  0  0  0  0  0  0
    0.2947    0.3329   -0.2291 C   0  0  0  0  0  0  0  0  0  0  0  0
   -0.0551    0.0721   -1.2332 H   0  0  0  0  0  0  0  0  0  0  0  0
    1.1943    0.9467   -0.3482 H   0  0  0  0  0  0  0  0  0  0  0  0
    0.7409   -0.9522    0.4851 C   0  0  0  0  0  0  0  0  0  0  0  0
    1.0960   -0.7123    1.4932 H   0  0  0  0  0  0  0  0  0  0  0  0
   -0.0910   -1.6517    0.5676 H   0  0  0  0  0  0  0  0  0  0  0  0
    1.8413   -1.6571   -0.3164 C   0  0  0  0  0  0  0  0  0  0  0  0
    1.4747   -1.8878   -1.3218 H   0  0  0  0  0  0  0  0  0  0  0  0
    2.7082   -0.9952   -0.4154 H   0  0  0  0  0  0  0  0  0  0  0  0
    2.2700   -2.9471    0.3774 C   0  0  0  0  0  0  0  0  0  0  0  0
    2.6639   -2.7231    1.3752 H   0  0  0  0  0  0  0  0  0  0  0  0
    1.4096   -3.6152    0.4945 H   0  0  0  0  0  0  0  0  0  0  0  0
    3.3033   -3.5952   -0.4365 N   0  0  0  0  0  0  0  0  0  0  0  0
    3.6315   -4.4564    0.0004 H   0  0  0  0  0  0  0  0  0  0  0  0
    2.9682   -3.7710   -1.3833 H   0  0  0  0  0  0  0  0  0  0  0  0
   -0.8897    2.5089   -0.3548 C   0  0  0  0  0  0  0  0  0  0  0  0
    0.1060    3.1903   -0.5595 O   0  0  0  0  0  0  0  0  0  0  0  0
   -2.0878    2.9188   -0.9208 N   0  0  0  0  0  0  0  0  0  0  0  0
   -2.9279    2.5076   -0.5284 H   0  0  0  0  0  0  0  0  0  0  0  0
   -2.2214    4.1698   -1.6598 C   0  0  0  0  0  0  0  0  0  0  0  0
   -1.5276    4.1913   -2.5070 H   0  0  0  0  0  0  0  0  0  0  0  0
   -3.2390    4.2727   -2.0487 H   0  0  0  0  0  0  0  0  0  0  0  0
   -2.0092    5.0249   -1.0094 H   0  0  0  0  0  0  0  0  0  0  0  0
  1  2  1  0  0  0  0
  2  3  1  0  0  0  0
  2  4  1  0  0  0  0
  2  5  1  0  0  0  0
  5  6  2  0  0  0  0
  5  7  1  0  0  0  0
  7  8  1  0  0  0  0
  7  9  1  0  0  0  0
  9 10  1  0  0  0  0
  9 11  1  0  0  0  0
  9 26  1  0  0  0  0
 11 12  1  0  0  0  0
 11 13  1  0  0  0  0
 11 14  1  0  0  0  0
 14 15  1  0  0  0  0
 14 16  1  0  0  0  0
 14 17  1  0  0  0  0
 17 18  1  0  0  0  0
 17 19  1  0  0  0  0
 17 20  1  0  0  0  0
 20 21  1  0  0  0  0
 20 22  1  0  0  0  0
 20 23  1  0  0  0  0
 23 24  1  0  0  0  0
 23 25  1  0  0  0  0
 26 27  2  0  0  0  0
 26 28  1  0  0  0  0
 28 29  1  0  0  0  0
 28 30  1  0  0  0  0
 30 31  1  0  0  0  0
 30 32  1  0  0  0  0
 30 33  1  0  0  0  0
M  END
$$$$

  -OEChem-01062216083D

 33 32  0     1  0  0  0  0  0999 V2000
   -3.6608   -2.3838    1.2955 H   0  0  0  0  0  0  0  0  0  0  0  0
   -3.5773   -1.4851    0.6774 C   0  0  0  0  0  0  0  0  0  0  0  0
   -4.5080   -0.9179    0.7538 H   0  0  0  0  0  0  0  0  0  0  0  0
   -3.4244   -1.7875   -0.3613 H   0  0  0  0  0  0  0  0  0  0  0  0
   -2.4117   -0.6356    1.1474 C   0  0  0  0  0  0  0  0  0  0  0  0
   -1.8159   -0.9358    2.1681 O   0  0  0  0  0  0  0  0  0  0  0  0
   -2.1232    0.5491    0.5012 N   0  0  0  0  0  0  0  0  0  0  0  0
   -2.6819    0.6866   -0.3365 H   0  0  0  0  0  0  0  0  0  0  0  0
   -0.7879    1.1932    0.4614 C   0  0  1  0  0  0  0  0  0  0  0  0
   -0.4707    1.4407    1.4799 H   0  0  0  0  0  0  0  0  0  0  0  0
    0.3124    0.3255   -0.2300 C   0  0  0  0  0  0  0  0  0  0  0  0
   -0.0330    0.0664   -1.2363 H   0  0  0  0  0  0  0  0  0  0  0  0
    1.2164    0.9336   -0.3430 H   0  0  0  0  0  0  0  0  0  0  0  0
    0.7520   -0.9604    0.4873 C   0  0  0  0  0  0  0  0  0  0  0  0
    1.1049   -0.7218    1.4962 H   0  0  0  0  0  0  0  0  0  0  0  0
   -0.0827   -1.6569    0.5673 H   0  0  0  0  0  0  0  0  0  0  0  0
    1.8519   -1.6698   -0.3118 C   0  0  0  0  0  0  0  0  0  0  0  0
    1.4860   -1.9010   -1.3174 H   0  0  0  0  0  0  0  0  0  0  0  0
    2.7208   -1.0107   -0.4110 H   0  0  0  0  0  0  0  0  0  0  0  0
    2.2755   -2.9604    0.3835 C   0  0  0  0  0  0  0  0  0  0  0  0
    2.6685   -2.7362    1.3814 H   0  0  0  0  0  0  0  0  0  0  0  0
    1.4124   -3.6251    0.5000 H   0  0  0  0  0  0  0  0  0  0  0  0
    3.3085   -3.6139   -0.4266 N   0  0  0  0  0  0  0  0  0  0  0  0
    3.6291   -4.4773    0.0113 H   0  0  0  0  0  0  0  0  0  0  0  0
    2.9768   -3.7874   -1.3750 H   0  0  0  0  0  0  0  0  0  0  0  0
   -0.8923    2.5134   -0.3555 C   0  0  0  0  0  0  0  0  0  0  0  0
    0.0950    3.0872   -0.7959 O   0  0  0  0  0  0  0  0  0  0  0  0
   -2.1357    3.0606   -0.6319 N   0  0  0  0  0  0  0  0  0  0  0  0
   -2.9073    2.7122   -0.0710 H   0  0  0  0  0  0  0  0  0  0  0  0
   -2.3062    4.3329   -1.3257 C   0  0  0  0  0  0  0  0  0  0  0  0
   -1.8385    4.2960   -2.3153 H   0  0  0  0  0  0  0  0  0  0  0  0
   -3.3700    4.5519   -1.4576 H   0  0  0  0  0  0  0  0  0  0  0  0
   -1.8519    5.1474   -0.7519 H   0  0  0  0  0  0  0  0  0  0  0  0
  1  2  1  0  0  0  0
  2  3  1  0  0  0  0
  2  4  1  0  0  0  0
  2  5  1  0  0  0  0
  5  6  2  0  0  0  0
  5  7  1  0  0  0  0
  7  8  1  0  0  0  0
  7  9  1  0  0  0  0
  9 10  1  0  0  0  0
  9 11  1  0  0  0  0
  9 26  1  0  0  0  0
 11 12  1  0  0  0  0
 11 13  1  0  0  0  0
 11 14  1  0  0  0  0
 14 15  1  0  0  0  0
 14 16  1  0  0  0  0
 14 17  1  0  0  0  0
 17 18  1  0  0  0  0
 17 19  1  0  0  0  0
 17 20  1  0  0  0  0
 20 21  1  0  0  0  0
 20 22  1  0  0  0  0
 20 23  1  0  0  0  0
 23 24  1  0  0  0  0
 23 25  1  0  0  0  0
 26 27  2  0  0  0  0
 26 28  1  0  0  0  0
 28 29  1  0  0  0  0
 28 30  1  0  0  0  0
 30 31  1  0  0  0  0
 30 32  1  0  0  0  0
 30 33  1  0  0  0  0
M  END
$$$$

  -OEChem-01062216083D

 33 32  0     1  0  0  0  0  0999 V2000
   -3.6874   -2.3622    1.2511 H   0  0  0  0  0  0  0  0  0  0  0  0
   -3.5995   -1.4501    0.6539 C   0  0  0  0  0  0  0  0  0  0  0  0
   -4.5203   -0.8712    0.7575 H   0  0  0  0  0  0  0  0  0  0  0  0
   -3.4674   -1.7294   -0.3942 H   0  0  0  0  0  0  0  0  0  0  0  0
   -2.4140   -0.6301    1.1268 C   0  0  0  0  0  0  0  0  0  0  0  0
   -1.8196   -0.9521    2.1417 O   0  0  0  0  0  0  0  0  0  0  0  0
   -2.1086    0.5583    0.4963 N   0  0  0  0  0  0  0  0  0  0  0  0
   -2.6865    0.7391   -0.3208 H   0  0  0  0  0  0  0  0  0  0  0  0
   -0.7678    1.1888    0.4565 C   0  0  1  0  0  0  0  0  0  0  0  0
   -0.4490    1.4305    1.4757 H   0  0  0  0  0  0  0  0  0  0  0  0
    0.3329    0.3192   -0.2305 C   0  0  0  0  0  0  0  0  0  0  0  0
   -0.0094    0.0620   -1.2384 H   0  0  0  0  0  0  0  0  0  0  0  0
    1.2378    0.9272   -0.3378 H   0  0  0  0  0  0  0  0  0  0  0  0
    0.7656   -0.9675    0.4888 C   0  0  0  0  0  0  0  0  0  0  0  0
    1.1146   -0.7294    1.4991 H   0  0  0  0  0  0  0  0  0  0  0  0
   -0.0716   -1.6613    0.5647 H   0  0  0  0  0  0  0  0  0  0  0  0
    1.8670   -1.6796   -0.3052 C   0  0  0  0  0  0  0  0  0  0  0  0
    1.5047   -1.9088   -1.3124 H   0  0  0  0  0  0  0  0  0  0  0  0
    2.7378   -1.0224   -0.4005 H   0  0  0  0  0  0  0  0  0  0  0  0
    2.2854   -2.9718    0.3907 C   0  0  0  0  0  0  0  0  0  0  0  0
    2.6755   -2.7493    1.3901 H   0  0  0  0  0  0  0  0  0  0  0  0
    1.4209   -3.6355    0.5037 H   0  0  0  0  0  0  0  0  0  0  0  0
    3.3201   -3.6248   -0.4177 N   0  0  0  0  0  0  0  0  0  0  0  0
    3.6413   -4.4880    0.0203 H   0  0  0  0  0  0  0  0  0  0  0  0
    2.9892   -3.7981   -1.3664 H   0  0  0  0  0  0  0  0  0  0  0  0
   -0.8906    2.5149   -0.3481 C   0  0  0  0  0  0  0  0  0  0  0  0
    0.0146    2.9631   -1.0397 O   0  0  0  0  0  0  0  0  0  0  0  0
   -2.0911    3.2064   -0.3283 N   0  0  0  0  0  0  0  0  0  0  0  0
   -2.7705    2.9079    0.3663 H   0  0  0  0  0  0  0  0  0  0  0  0
   -2.2902    4.4872   -0.9977 C   0  0  0  0  0  0  0  0  0  0  0  0
   -2.0967    4.3936   -2.0716 H   0  0  0  0  0  0  0  0  0  0  0  0
   -3.3213    4.8278   -0.8636 H   0  0  0  0  0  0  0  0  0  0  0  0
   -1.6171    5.2451   -0.5835 H   0  0  0  0  0  0  0  0  0  0  0  0
  1  2  1  0  0  0  0
  2  3  1  0  0  0  0
  2  4  1  0  0  0  0
  2  5  1  0  0  0  0
  5  6  2  0  0  0  0
  5  7  1  0  0  0  0
  7  8  1  0  0  0  0
  7  9  1  0  0  0  0
  9 10  1  0  0  0  0
  9 11  1  0  0  0  0
  9 26  1  0  0  0  0
 11 12  1  0  0  0  0
 11 13  1  0  0  0  0
 11 14  1  0  0  0  0
 14 15  1  0  0  0  0
 14 16  1  0  0  0  0
 14 17  1  0  0  0  0
 17 18  1  0  0  0  0
 17 19  1  0  0  0  0
 17 20  1  0  0  0  0
 20 21  1  0  0  0  0
 20 22  1  0  0  0  0
 20 23  1  0  0  0  0
 23 24  1  0  0  0  0
 23 25  1  0  0  0  0
 26 27  2  0  0  0  0
 26 28  1  0  0  0  0
 28 29  1  0  0  0  0
 28 30  1  0  0  0  0
 30 31  1  0  0  0  0
 30 32  1  0  0  0  0
 30 33  1  0  0  0  0
M  END
$$$$

  -OEChem-01062216083D

 33 32  0     1  0  0  0  0  0999 V2000
   -3.7100   -2.3478    1.2184 H   0  0  0  0  0  0  0  0  0  0  0  0
   -3.6206   -1.4230    0.6411 C   0  0  0  0  0  0  0  0  0  0  0  0
   -4.5335   -0.8368    0.7706 H   0  0  0  0  0  0  0  0  0  0  0  0
   -3.5055   -1.6791   -0.4150 H   0  0  0  0  0  0  0  0  0  0  0  0
   -2.4203   -0.6260    1.1155 C   0  0  0  0  0  0  0  0  0  0  0  0
   -1.8270   -0.9656    2.1255 O   0  0  0  0  0  0  0  0  0  0  0  0
   -2.1017    0.5651    0.4972 N   0  0  0  0  0  0  0  0  0  0  0  0
   -2.6860    0.7722   -0.3092 H   0  0  0  0  0  0  0  0  0  0  0  0
   -0.7570    1.1841    0.4660 C   0  0  1  0  0  0  0  0  0  0  0  0
   -0.4398    1.4186    1.4874 H   0  0  0  0  0  0  0  0  0  0  0  0
    0.3466    0.3183   -0.2187 C   0  0  0  0  0  0  0  0  0  0  0  0
    0.0100    0.0654   -1.2297 H   0  0  0  0  0  0  0  0  0  0  0  0
    1.2495    0.9311   -0.3177 H   0  0  0  0  0  0  0  0  0  0  0  0
    0.7728   -0.9734    0.4937 C   0  0  0  0  0  0  0  0  0  0  0  0
    1.1159   -0.7440    1.5081 H   0  0  0  0  0  0  0  0  0  0  0  0
   -0.0665   -1.6662    0.5589 H   0  0  0  0  0  0  0  0  0  0  0  0
    1.8787   -1.6789   -0.2998 C   0  0  0  0  0  0  0  0  0  0  0  0
    1.5227   -1.8996   -1.3112 H   0  0  0  0  0  0  0  0  0  0  0  0
    2.7505   -1.0214   -0.3840 H   0  0  0  0  0  0  0  0  0  0  0  0
    2.2912   -2.9766    0.3888 C   0  0  0  0  0  0  0  0  0  0  0  0
    2.6736   -2.7631    1.3932 H   0  0  0  0  0  0  0  0  0  0  0  0
    1.4248   -3.6397    0.4897 H   0  0  0  0  0  0  0  0  0  0  0  0
    3.3306   -3.6257   -0.4165 N   0  0  0  0  0  0  0  0  0  0  0  0
    3.6366   -4.4994    0.0113 H   0  0  0  0  0  0  0  0  0  0  0  0
    3.0105   -3.7802   -1.3722 H   0  0  0  0  0  0  0  0  0  0  0  0
   -0.8822    2.5139   -0.3282 C   0  0  0  0  0  0  0  0  0  0  0  0
   -0.1245    2.8322   -1.2360 O   0  0  0  0  0  0  0  0  0  0  0  0
   -1.9498    3.3502   -0.0522 N   0  0  0  0  0  0  0  0  0  0  0  0
   -2.5301    3.1037    0.7452 H   0  0  0  0  0  0  0  0  0  0  0  0
   -2.1644    4.6310   -0.7158 C   0  0  0  0  0  0  0  0  0  0  0  0
   -2.2747    4.4894   -1.7962 H   0  0  0  0  0  0  0  0  0  0  0  0
   -3.0739    5.1064   -0.3363 H   0  0  0  0  0  0  0  0  0  0  0  0
   -1.3196    5.3037   -0.5336 H   0  0  0  0  0  0  0  0  0  0  0  0
  1  2  1  0  0  0  0
  2  3  1  0  0  0  0
  2  4  1  0  0  0  0
  2  5  1  0  0  0  0
  5  6  2  0  0  0  0
  5  7  1  0  0  0  0
  7  8  1  0  0  0  0
  7  9  1  0  0  0  0
  9 10  1  0  0  0  0
  9 11  1  0  0  0  0
  9 26  1  0  0  0  0
 11 12  1  0  0  0  0
 11 13  1  0  0  0  0
 11 14  1  0  0  0  0
 14 15  1  0  0  0  0
 14 16  1  0  0  0  0
 14 17  1  0  0  0  0
 17 18  1  0  0  0  0
 17 19  1  0  0  0  0
 17 20  1  0  0  0  0
 20 21  1  0  0  0  0
 20 22  1  0  0  0  0
 20 23  1  0  0  0  0
 23 24  1  0  0  0  0
 23 25  1  0  0  0  0
 26 27  2  0  0  0  0
 26 28  1  0  0  0  0
 28 29  1  0  0  0  0
 28 30  1  0  0  0  0
 30 31  1  0  0  0  0
 30 32  1  0  0  0  0
 30 33  1  0  0  0  0
M  END
$$$$

  -OEChem-01062216083D

 33 32  0     1  0  0  0  0  0999 V2000
   -3.7512   -2.3186    1.2171 H   0  0  0  0  0  0  0  0  0  0  0  0
   -3.6348   -1.4058    0.6258 C   0  0  0  0  0  0  0  0  0  0  0  0
   -4.5390   -0.8013    0.7298 H   0  0  0  0  0  0  0  0  0  0  0  0
   -3.5066   -1.6814   -0.4239 H   0  0  0  0  0  0  0  0  0  0  0  0
   -2.4280   -0.6229    1.1070 C   0  0  0  0  0  0  0  0  0  0  0  0
   -1.8352   -0.9773    2.1125 O   0  0  0  0  0  0  0  0  0  0  0  0
   -2.0996    0.5705    0.4992 N   0  0  0  0  0  0  0  0  0  0  0  0
   -2.6842    0.7941   -0.3027 H   0  0  0  0  0  0  0  0  0  0  0  0
   -0.7524    1.1791    0.4741 C   0  0  1  0  0  0  0  0  0  0  0  0
   -0.4361    1.4039    1.4979 H   0  0  0  0  0  0  0  0  0  0  0  0
    0.3544    0.3189   -0.2100 C   0  0  0  0  0  0  0  0  0  0  0  0
    0.0199    0.0655   -1.2218 H   0  0  0  0  0  0  0  0  0  0  0  0
    1.2532    0.9380   -0.3082 H   0  0  0  0  0  0  0  0  0  0  0  0
    0.7759   -0.9769    0.4975 C   0  0  0  0  0  0  0  0  0  0  0  0
    1.1129   -0.7530    1.5151 H   0  0  0  0  0  0  0  0  0  0  0  0
   -0.0647   -1.6692    0.5542 H   0  0  0  0  0  0  0  0  0  0  0  0
    1.8863   -1.6783   -0.2933 C   0  0  0  0  0  0  0  0  0  0  0  0
    1.5362   -1.8922   -1.3083 H   0  0  0  0  0  0  0  0  0  0  0  0
    2.7583   -1.0203   -0.3681 H   0  0  0  0  0  0  0  0  0  0  0  0
    2.2955   -2.9804    0.3890 C   0  0  0  0  0  0  0  0  0  0  0  0
    2.6729   -2.7739    1.3968 H   0  0  0  0  0  0  0  0  0  0  0  0
    1.4288   -3.6445    0.4806 H   0  0  0  0  0  0  0  0  0  0  0  0
    3.3394   -3.6222   -0.4161 N   0  0  0  0  0  0  0  0  0  0  0  0
    3.6392   -4.5028    0.0021 H   0  0  0  0  0  0  0  0  0  0  0  0
    3.0266   -3.7624   -1.3765 H   0  0  0  0  0  0  0  0  0  0  0  0
   -0.8712    2.5129   -0.3085 C   0  0  0  0  0  0  0  0  0  0  0  0
   -0.3243    2.7106   -1.3864 O   0  0  0  0  0  0  0  0  0  0  0  0
   -1.7282    3.4841    0.1765 N   0  0  0  0  0  0  0  0  0  0  0  0
   -2.1844    3.2965    1.0654 H   0  0  0  0  0  0  0  0  0  0  0  0
   -1.9520    4.7665   -0.4808 C   0  0  0  0  0  0  0  0  0  0  0  0
   -2.3848    4.6170   -1.4755 H   0  0  0  0  0  0  0  0  0  0  0  0
   -2.6423    5.3779    0.1081 H   0  0  0  0  0  0  0  0  0  0  0  0
   -1.0089    5.3135   -0.5850 H   0  0  0  0  0  0  0  0  0  0  0  0
  1  2  1  0  0  0  0
  2  3  1  0  0  0  0
  2  4  1  0  0  0  0
  2  5  1  0  0  0  0
  5  6  2  0  0  0  0
  5  7  1  0  0  0  0
  7  8  1  0  0  0  0
  7  9  1  0  0  0  0
  9 10  1  0  0  0  0
  9 11  1  0  0  0  0
  9 26  1  0  0  0  0
 11 12  1  0  0  0  0
 11 13  1  0  0  0  0
 11 14  1  0  0  0  0
 14 15  1  0  0  0  0
 14 16  1  0  0  0  0
 14 17  1  0  0  0  0
 17 18  1  0  0  0  0
 17 19  1  0  0  0  0
 17 20  1  0  0  0  0
 20 21  1  0  0  0  0
 20 22  1  0  0  0  0
 20 23  1  0  0  0  0
 23 24  1  0  0  0  0
 23 25  1  0  0  0  0
 26 27  2  0  0  0  0
 26 28  1  0  0  0  0
 28 29  1  0  0  0  0
 28 30  1  0  0  0  0
 30 31  1  0  0  0  0
 30 32  1  0  0  0  0
 30 33  1  0  0  0  0
M  END
$$$$

  -OEChem-01062216083D

 33 32  0     1  0  0  0  0  0999 V2000
   -3.7573   -2.3235    1.1791 H   0  0  0  0  0  0  0  0  0  0  0  0
   -3.6516   -1.3915    0.6168 C   0  0  0  0  0  0  0  0  0  0  0  0
   -4.5515   -0.7887    0.7605 H   0  0  0  0  0  0  0  0  0  0  0  0
   -3.5465   -1.6318   -0.4439 H   0  0  0  0  0  0  0  0  0  0  0  0
   -2.4333   -0.6265    1.0977 C   0  0  0  0  0  0  0  0  0  0  0  0
   -1.8382   -0.9969    2.0963 O   0  0  0  0  0  0  0  0  0  0  0  0
   -2.0972    0.5687    0.4983 N   0  0  0  0  0  0  0  0  0  0  0  0
   -2.6787    0.8024   -0.3034 H   0  0  0  0  0  0  0  0  0  0  0  0
   -0.7501    1.1734    0.4815 C   0  0  1  0  0  0  0  0  0  0  0  0
   -0.4374    1.3870    1.5087 H   0  0  0  0  0  0  0  0  0  0  0  0
    0.3611    0.3236   -0.2057 C   0  0  0  0  0  0  0  0  0  0  0  0
    0.0286    0.0712   -1.2185 H   0  0  0  0  0  0  0  0  0  0  0  0
    1.2557    0.9490   -0.3021 H   0  0  0  0  0  0  0  0  0  0  0  0
    0.7793   -0.9766    0.4954 C   0  0  0  0  0  0  0  0  0  0  0  0
    1.1083   -0.7599    1.5173 H   0  0  0  0  0  0  0  0  0  0  0  0
   -0.0616   -1.6691    0.5407 H   0  0  0  0  0  0  0  0  0  0  0  0
    1.8952   -1.6740   -0.2905 C   0  0  0  0  0  0  0  0  0  0  0  0
    1.5523   -1.8850   -1.3085 H   0  0  0  0  0  0  0  0  0  0  0  0
    2.7682   -1.0165   -0.3567 H   0  0  0  0  0  0  0  0  0  0  0  0
    2.2961   -2.9793    0.3908 C   0  0  0  0  0  0  0  0  0  0  0  0
    2.6639   -2.7765    1.4028 H   0  0  0  0  0  0  0  0  0  0  0  0
    1.4274   -3.6425    0.4724 H   0  0  0  0  0  0  0  0  0  0  0  0
    3.3462   -3.6213   -0.4064 N   0  0  0  0  0  0  0  0  0  0  0  0
    3.6362   -4.5062    0.0095 H   0  0  0  0  0  0  0  0  0  0  0  0
    3.0435   -3.7540   -1.3711 H   0  0  0  0  0  0  0  0  0  0  0  0
   -0.8580    2.5100   -0.2928 C   0  0  0  0  0  0  0  0  0  0  0  0
   -0.5692    2.6099   -1.4791 O   0  0  0  0  0  0  0  0  0  0  0  0
   -1.4490    3.5917    0.3340 N   0  0  0  0  0  0  0  0  0  0  0  0
   -1.7429    3.4669    1.2989 H   0  0  0  0  0  0  0  0  0  0  0  0
   -1.6716    4.8791   -0.3130 C   0  0  0  0  0  0  0  0  0  0  0  0
   -2.3589    4.7701   -1.1583 H   0  0  0  0  0  0  0  0  0  0  0  0
   -2.1059    5.5887    0.3977 H   0  0  0  0  0  0  0  0  0  0  0  0
   -0.7257    5.2927   -0.6785 H   0  0  0  0  0  0  0  0  0  0  0  0
  1  2  1  0  0  0  0
  2  3  1  0  0  0  0
  2  4  1  0  0  0  0
  2  5  1  0  0  0  0
  5  6  2  0  0  0  0
  5  7  1  0  0  0  0
  7  8  1  0  0  0  0
  7  9  1  0  0  0  0
  9 10  1  0  0  0  0
  9 11  1  0  0  0  0
  9 26  1  0  0  0  0
 11 12  1  0  0  0  0
 11 13  1  0  0  0  0
 11 14  1  0  0  0  0
 14 15  1  0  0  0  0
 14 16  1  0  0  0  0
 14 17  1  0  0  0  0
 17 18  1  0  0  0  0
 17 19  1  0  0  0  0
 17 20  1  0  0  0  0
 20 21  1  0  0  0  0
 20 22  1  0  0  0  0
 20 23  1  0  0  0  0
 23 24  1  0  0  0  0
 23 25  1  0  0  0  0
 26 27  2  0  0  0  0
 26 28  1  0  0  0  0
 28 29  1  0  0  0  0
 28 30  1  0  0  0  0
 30 31  1  0  0  0  0
 30 32  1  0  0  0  0
 30 33  1  0  0  0  0
M  END
$$$$

  -OEChem-01062216083D

 33 32  0     1  0  0  0  0  0999 V2000
   -3.7776   -2.3117    1.1671 H   0  0  0  0  0  0  0  0  0  0  0  0
   -3.6666   -1.3771    0.6103 C   0  0  0  0  0  0  0  0  0  0  0  0
   -4.5631   -0.7702    0.7575 H   0  0  0  0  0  0  0  0  0  0  0  0
   -3.5630   -1.6118   -0.4519 H   0  0  0  0  0  0  0  0  0  0  0  0
   -2.4443   -0.6217    1.0963 C   0  0  0  0  0  0  0  0  0  0  0  0
   -1.8522   -1.0016    2.0934 O   0  0  0  0  0  0  0  0  0  0  0  0
   -2.0954    0.5715    0.5004 N   0  0  0  0  0  0  0  0  0  0  0  0
   -2.6657    0.8138   -0.3074 H   0  0  0  0  0  0  0  0  0  0  0  0
   -0.7471    1.1702    0.5023 C   0  0  1  0  0  0  0  0  0  0  0  0
   -0.4449    1.3762    1.5342 H   0  0  0  0  0  0  0  0  0  0  0  0
    0.3684    0.3288   -0.1850 C   0  0  0  0  0  0  0  0  0  0  0  0
    0.0451    0.0879   -1.2036 H   0  0  0  0  0  0  0  0  0  0  0  0
    1.2638    0.9549   -0.2667 H   0  0  0  0  0  0  0  0  0  0  0  0
    0.7772   -0.9809    0.5033 C   0  0  0  0  0  0  0  0  0  0  0  0
    1.0976   -0.7788    1.5307 H   0  0  0  0  0  0  0  0  0  0  0  0
   -0.0668   -1.6712    0.5327 H   0  0  0  0  0  0  0  0  0  0  0  0
    1.8997   -1.6683   -0.2826 C   0  0  0  0  0  0  0  0  0  0  0  0
    1.5660   -1.8631   -1.3071 H   0  0  0  0  0  0  0  0  0  0  0  0
    2.7736   -1.0103   -0.3304 H   0  0  0  0  0  0  0  0  0  0  0  0
    2.2955   -2.9838    0.3817 C   0  0  0  0  0  0  0  0  0  0  0  0
    2.6562   -2.7968    1.3994 H   0  0  0  0  0  0  0  0  0  0  0  0
    1.4265   -3.6482    0.4456 H   0  0  0  0  0  0  0  0  0  0  0  0
    3.3520   -3.6131   -0.4169 N   0  0  0  0  0  0  0  0  0  0  0  0
    3.6482   -4.4979   -0.0051 H   0  0  0  0  0  0  0  0  0  0  0  0
    3.0524   -3.7428   -1.3830 H   0  0  0  0  0  0  0  0  0  0  0  0
   -0.8346    2.5045   -0.2734 C   0  0  0  0  0  0  0  0  0  0  0  0
   -0.8194    2.5343   -1.4982 O   0  0  0  0  0  0  0  0  0  0  0  0
   -1.1296    3.6674    0.4139 N   0  0  0  0  0  0  0  0  0  0  0  0
   -1.2388    3.5995    1.4221 H   0  0  0  0  0  0  0  0  0  0  0  0
   -1.3512    4.9536   -0.2363 C   0  0  0  0  0  0  0  0  0  0  0  0
   -2.2352    4.9106   -0.8808 H   0  0  0  0  0  0  0  0  0  0  0  0
   -1.5068    5.7344    0.5143 H   0  0  0  0  0  0  0  0  0  0  0  0
   -0.4841    5.2298   -0.8455 H   0  0  0  0  0  0  0  0  0  0  0  0
  1  2  1  0  0  0  0
  2  3  1  0  0  0  0
  2  4  1  0  0  0  0
  2  5  1  0  0  0  0
  5  6  2  0  0  0  0
  5  7  1  0  0  0  0
  7  8  1  0  0  0  0
  7  9  1  0  0  0  0
  9 10  1  0  0  0  0
  9 11  1  0  0  0  0
  9 26  1  0  0  0  0
 11 12  1  0  0  0  0
 11 13  1  0  0  0  0
 11 14  1  0  0  0  0
 14 15  1  0  0  0  0
 14 16  1  0  0  0  0
 14 17  1  0  0  0  0
 17 18  1  0  0  0  0
 17 19  1  0  0  0  0
 17 20  1  0  0  0  0
 20 21  1  0  0  0  0
 20 22  1  0  0  0  0
 20 23  1  0  0  0  0
 23 24  1  0  0  0  0
 23 25  1  0  0  0  0
 26 27  2  0  0  0  0
 26 28  1  0  0  0  0
 28 29  1  0  0  0  0
 28 30  1  0  0  0  0
 30 31  1  0  0  0  0
 30 32  1  0  0  0  0
 30 33  1  0  0  0  0
M  END
$$$$

  -OEChem-01062216083D

 33 32  0     1  0  0  0  0  0999 V2000
   -3.7801   -2.3193    1.1275 H   0  0  0  0  0  0  0  0  0  0  0  0
   -3.6869   -1.3608    0.6092 C   0  0  0  0  0  0  0  0  0  0  0  0
   -4.5812   -0.7641    0.8048 H   0  0  0  0  0  0  0  0  0  0  0  0
   -3.6104   -1.5486   -0.4646 H   0  0  0  0  0  0  0  0  0  0  0  0
   -2.4550   -0.6216    1.0960 C   0  0  0  0  0  0  0  0  0  0  0  0
   -1.8617   -1.0152    2.0874 O   0  0  0  0  0  0  0  0  0  0  0  0
   -2.0934    0.5672    0.5000 N   0  0  0  0  0  0  0  0  0  0  0  0
   -2.6601    0.8221   -0.3074 H   0  0  0  0  0  0  0  0  0  0  0  0
   -0.7463    1.1655    0.5142 C   0  0  1  0  0  0  0  0  0  0  0  0
   -0.4529    1.3696    1.5487 H   0  0  0  0  0  0  0  0  0  0  0  0
    0.3729    0.3321   -0.1726 C   0  0  0  0  0  0  0  0  0  0  0  0
    0.0555    0.1001   -1.1953 H   0  0  0  0  0  0  0  0  0  0  0  0
    1.2688    0.9585   -0.2437 H   0  0  0  0  0  0  0  0  0  0  0  0
    0.7766   -0.9822    0.5097 C   0  0  0  0  0  0  0  0  0  0  0  0
    1.0912   -0.7867    1.5402 H   0  0  0  0  0  0  0  0  0  0  0  0
   -0.0680   -1.6725    0.5293 H   0  0  0  0  0  0  0  0  0  0  0  0
    1.9041   -1.6628   -0.2742 C   0  0  0  0  0  0  0  0  0  0  0  0
    1.5759   -1.8501   -1.3016 H   0  0  0  0  0  0  0  0  0  0  0  0
    2.7775   -1.0037   -0.3126 H   0  0  0  0  0  0  0  0  0  0  0  0
    2.2979   -2.9830    0.3808 C   0  0  0  0  0  0  0  0  0  0  0  0
    2.6539   -2.8042    1.4016 H   0  0  0  0  0  0  0  0  0  0  0  0
    1.4299   -3.6495    0.4355 H   0  0  0  0  0  0  0  0  0  0  0  0
    3.3595   -3.6015   -0.4194 N   0  0  0  0  0  0  0  0  0  0  0  0
    3.6493   -4.4940   -0.0200 H   0  0  0  0  0  0  0  0  0  0  0  0
    3.0670   -3.7151   -1.3898 H   0  0  0  0  0  0  0  0  0  0  0  0
   -0.8223    2.4938   -0.2689 C   0  0  0  0  0  0  0  0  0  0  0  0
   -1.0665    2.4947   -1.4700 O   0  0  0  0  0  0  0  0  0  0  0  0
   -0.8116    3.6969    0.4124 N   0  0  0  0  0  0  0  0  0  0  0  0
   -0.7054    3.6643    1.4225 H   0  0  0  0  0  0  0  0  0  0  0  0
   -1.0027    4.9883   -0.2367 C   0  0  0  0  0  0  0  0  0  0  0  0
   -1.9962    5.0444   -0.6935 H   0  0  0  0  0  0  0  0  0  0  0  0
   -0.9116    5.7969    0.4948 H   0  0  0  0  0  0  0  0  0  0  0  0
   -0.2475    5.1409   -1.0149 H   0  0  0  0  0  0  0  0  0  0  0  0
  1  2  1  0  0  0  0
  2  3  1  0  0  0  0
  2  4  1  0  0  0  0
  2  5  1  0  0  0  0
  5  6  2  0  0  0  0
  5  7  1  0  0  0  0
  7  8  1  0  0  0  0
  7  9  1  0  0  0  0
  9 10  1  0  0  0  0
  9 11  1  0  0  0  0
  9 26  1  0  0  0  0
 11 12  1  0  0  0  0
 11 13  1  0  0  0  0
 11 14  1  0  0  0  0
 14 15  1  0  0  0  0
 14 16  1  0  0  0  0
 14 17  1  0  0  0  0
 17 18  1  0  0  0  0
 17 19  1  0  0  0  0
 17 20  1  0  0  0  0
 20 21  1  0  0  0  0
 20 22  1  0  0  0  0
 20 23  1  0  0  0  0
 23 24  1  0  0  0  0
 23 25  1  0  0  0  0
 26 27  2  0  0  0  0
 26 28  1  0  0  0  0
 28 29  1  0  0  0  0
 28 30  1  0  0  0  0
 30 31  1  0  0  0  0
 30 32  1  0  0  0  0
 30 33  1  0  0  0  0
M  END
$$$$

  -OEChem-01062216083D

 33 32  0     1  0  0  0  0  0999 V2000
   -3.7958   -2.3180    1.1213 H   0  0  0  0  0  0  0  0  0  0  0  0
   -3.7073   -1.3513    0.6179 C   0  0  0  0  0  0  0  0  0  0  0  0
   -4.5937   -0.7532    0.8421 H   0  0  0  0  0  0  0  0  0  0  0  0
   -3.6536   -1.5207   -0.4603 H   0  0  0  0  0  0  0  0  0  0  0  0
   -2.4614   -0.6280    1.0928 C   0  0  0  0  0  0  0  0  0  0  0  0
   -1.8605   -1.0331    2.0752 O   0  0  0  0  0  0  0  0  0  0  0  0
   -2.0927    0.5581    0.4956 N   0  0  0  0  0  0  0  0  0  0  0  0
   -2.6640    0.8300   -0.3037 H   0  0  0  0  0  0  0  0  0  0  0  0
   -0.7484    1.1621    0.5175 C   0  0  1  0  0  0  0  0  0  0  0  0
   -0.4614    1.3669    1.5536 H   0  0  0  0  0  0  0  0  0  0  0  0
    0.3750    0.3402   -0.1730 C   0  0  0  0  0  0  0  0  0  0  0  0
    0.0617    0.1174   -1.1991 H   0  0  0  0  0  0  0  0  0  0  0  0
    1.2699    0.9688   -0.2354 H   0  0  0  0  0  0  0  0  0  0  0  0
    0.7783   -0.9765    0.5035 C   0  0  0  0  0  0  0  0  0  0  0  0
    1.0860   -0.7866    1.5370 H   0  0  0  0  0  0  0  0  0  0  0  0
   -0.0660   -1.6673    0.5141 H   0  0  0  0  0  0  0  0  0  0  0  0
    1.9106   -1.6532   -0.2761 C   0  0  0  0  0  0  0  0  0  0  0  0
    1.5892   -1.8374   -1.3064 H   0  0  0  0  0  0  0  0  0  0  0  0
    2.7845   -0.9942   -0.3063 H   0  0  0  0  0  0  0  0  0  0  0  0
    2.2978   -2.9750    0.3801 C   0  0  0  0  0  0  0  0  0  0  0  0
    2.6454   -2.7981    1.4041 H   0  0  0  0  0  0  0  0  0  0  0  0
    1.4284   -3.6402    0.4265 H   0  0  0  0  0  0  0  0  0  0  0  0
    3.3644   -3.5941   -0.4123 N   0  0  0  0  0  0  0  0  0  0  0  0
    3.6570   -4.4827   -0.0061 H   0  0  0  0  0  0  0  0  0  0  0  0
    3.0749   -3.7150   -1.3825 H   0  0  0  0  0  0  0  0  0  0  0  0
   -0.8189    2.4857   -0.2728 C   0  0  0  0  0  0  0  0  0  0  0  0
   -1.2808    2.4987   -1.4087 O   0  0  0  0  0  0  0  0  0  0  0  0
   -0.5101    3.6839    0.3441 N   0  0  0  0  0  0  0  0  0  0  0  0
   -0.2030    3.6505    1.3121 H   0  0  0  0  0  0  0  0  0  0  0  0
   -0.6511    4.9802   -0.3079 C   0  0  0  0  0  0  0  0  0  0  0  0
   -1.6970    5.1622   -0.5766 H   0  0  0  0  0  0  0  0  0  0  0  0
   -0.3219    5.7795    0.3629 H   0  0  0  0  0  0  0  0  0  0  0  0
   -0.0413    5.0196   -1.2167 H   0  0  0  0  0  0  0  0  0  0  0  0
  1  2  1  0  0  0  0
  2  3  1  0  0  0  0
  2  4  1  0  0  0  0
  2  5  1  0  0  0  0
  5  6  2  0  0  0  0
  5  7  1  0  0  0  0
  7  8  1  0  0  0  0
  7  9  1  0  0  0  0
  9 10  1  0  0  0  0
  9 11  1  0  0  0  0
  9 26  1  0  0  0  0
 11 12  1  0  0  0  0
 11 13  1  0  0  0  0
 11 14  1  0  0  0  0
 14 15  1  0  0  0  0
 14 16  1  0  0  0  0
 14 17  1  0  0  0  0
 17 18  1  0  0  0  0
 17 19  1  0  0  0  0
 17 20  1  0  0  0  0
 20 21  1  0  0  0  0
 20 22  1  0  0  0  0
 20 23  1  0  0  0  0
 23 24  1  0  0  0  0
 23 25  1  0  0  0  0
 26 27  2  0  0  0  0
 26 28  1  0  0  0  0
 28 29  1  0  0  0  0
 28 30  1  0  0  0  0
 30 31  1  0  0  0  0
 30 32  1  0  0  0  0
 30 33  1  0  0  0  0
M  END
$$$$

  -OEChem-01062216083D

 33 32  0     1  0  0  0  0  0999 V2000
   -3.8235   -2.3129    1.1215 H   0  0  0  0  0  0  0  0  0  0  0  0
   -3.7311   -1.3429    0.6247 C   0  0  0  0  0  0  0  0  0  0  0  0
   -4.6106   -0.7390    0.8607 H   0  0  0  0  0  0  0  0  0  0  0  0
   -3.6876   -1.5044   -0.4551 H   0  0  0  0  0  0  0  0  0  0  0  0
   -2.4759   -0.6320    1.0939 C   0  0  0  0  0  0  0  0  0  0  0  0
   -1.8713   -1.0473    2.0697 O   0  0  0  0  0  0  0  0  0  0  0  0
   -2.0984    0.5498    0.4938 N   0  0  0  0  0  0  0  0  0  0  0  0
   -2.6767    0.8417   -0.2940 H   0  0  0  0  0  0  0  0  0  0  0  0
   -0.7582    1.1623    0.5241 C   0  0  1  0  0  0  0  0  0  0  0  0
   -0.4810    1.3740    1.5615 H   0  0  0  0  0  0  0  0  0  0  0  0
    0.3691    0.3449   -0.1639 C   0  0  0  0  0  0  0  0  0  0  0  0
    0.0576    0.1252   -1.1912 H   0  0  0  0  0  0  0  0  0  0  0  0
    1.2631    0.9755   -0.2228 H   0  0  0  0  0  0  0  0  0  0  0  0
    0.7759   -0.9727    0.5096 C   0  0  0  0  0  0  0  0  0  0  0  0
    1.0810   -0.7850    1.5445 H   0  0  0  0  0  0  0  0  0  0  0  0
   -0.0661   -1.6664    0.5168 H   0  0  0  0  0  0  0  0  0  0  0  0
    1.9128   -1.6419   -0.2710 C   0  0  0  0  0  0  0  0  0  0  0  0
    1.5935   -1.8231   -1.3023 H   0  0  0  0  0  0  0  0  0  0  0  0
    2.7835   -0.9785   -0.2973 H   0  0  0  0  0  0  0  0  0  0  0  0
    2.3085   -2.9656    0.3769 C   0  0  0  0  0  0  0  0  0  0  0  0
    2.6545   -2.7930    1.4023 H   0  0  0  0  0  0  0  0  0  0  0  0
    1.4436   -3.6369    0.4191 H   0  0  0  0  0  0  0  0  0  0  0  0
    3.3792   -3.5725   -0.4203 N   0  0  0  0  0  0  0  0  0  0  0  0
    3.6768   -4.4627   -0.0210 H   0  0  0  0  0  0  0  0  0  0  0  0
    3.0907   -3.6882   -1.3916 H   0  0  0  0  0  0  0  0  0  0  0  0
   -0.8222    2.4798   -0.2783 C   0  0  0  0  0  0  0  0  0  0  0  0
   -1.4665    2.5317   -1.3211 O   0  0  0  0  0  0  0  0  0  0  0  0
   -0.2405    3.6323    0.2169 N   0  0  0  0  0  0  0  0  0  0  0  0
    0.2468    3.5711    1.1063 H   0  0  0  0  0  0  0  0  0  0  0  0
   -0.3128    4.9207   -0.4614 C   0  0  0  0  0  0  0  0  0  0  0  0
   -1.3525    5.2560   -0.5366 H   0  0  0  0  0  0  0  0  0  0  0  0
    0.2544    5.6736    0.0945 H   0  0  0  0  0  0  0  0  0  0  0  0
    0.1078    4.8472   -1.4700 H   0  0  0  0  0  0  0  0  0  0  0  0
  1  2  1  0  0  0  0
  2  3  1  0  0  0  0
  2  4  1  0  0  0  0
  2  5  1  0  0  0  0
  5  6  2  0  0  0  0
  5  7  1  0  0  0  0
  7  8  1  0  0  0  0
  7  9  1  0  0  0  0
  9 10  1  0  0  0  0
  9 11  1  0  0  0  0
  9 26  1  0  0  0  0
 11 12  1  0  0  0  0
 11 13  1  0  0  0  0
 11 14  1  0  0  0  0
 14 15  1  0  0  0  0
 14 16  1  0  0  0  0
 14 17  1  0  0  0  0
 17 18  1  0  0  0  0
 17 19  1  0  0  0  0
 17 20  1  0  0  0  0
 20 21  1  0  0  0  0
 20 22  1  0  0  0  0
 20 23  1  0  0  0  0
 23 24  1  0  0  0  0
 23 25  1  0  0  0  0
 26 27  2  0  0  0  0
 26 28  1  0  0  0  0
 28 29  1  0  0  0  0
 28 30  1  0  0  0  0
 30 31  1  0  0  0  0
 30 32  1  0  0  0  0
 30 33  1  0  0  0  0
M  END
$$$$

  -OEChem-01062216083D

 33 32  0     1  0  0  0  0  0999 V2000
   -3.8446   -2.3044    1.1280 H   0  0  0  0  0  0  0  0  0  0  0  0
   -3.7503   -1.3327    0.6356 C   0  0  0  0  0  0  0  0  0  0  0  0
   -4.6185   -0.7203    0.8907 H   0  0  0  0  0  0  0  0  0  0  0  0
   -3.7275   -1.4877   -0.4459 H   0  0  0  0  0  0  0  0  0  0  0  0
   -2.4790   -0.6393    1.0869 C   0  0  0  0  0  0  0  0  0  0  0  0
   -1.8658   -1.0642    2.0531 O   0  0  0  0  0  0  0  0  0  0  0  0
   -2.0992    0.5409    0.4857 N   0  0  0  0  0  0  0  0  0  0  0  0
   -2.6960    0.8575   -0.2790 H   0  0  0  0  0  0  0  0  0  0  0  0
   -0.7640    1.1645    0.5158 C   0  0  1  0  0  0  0  0  0  0  0  0
   -0.4893    1.3819    1.5528 H   0  0  0  0  0  0  0  0  0  0  0  0
    0.3659    0.3494   -0.1722 C   0  0  0  0  0  0  0  0  0  0  0  0
    0.0522    0.1261   -1.1982 H   0  0  0  0  0  0  0  0  0  0  0  0
    1.2590    0.9807   -0.2350 H   0  0  0  0  0  0  0  0  0  0  0  0
    0.7795   -0.9645    0.5030 C   0  0  0  0  0  0  0  0  0  0  0  0
    1.0846   -0.7736    1.5371 H   0  0  0  0  0  0  0  0  0  0  0  0
   -0.0586   -1.6627    0.5113 H   0  0  0  0  0  0  0  0  0  0  0  0
    1.9177   -1.6310   -0.2774 C   0  0  0  0  0  0  0  0  0  0  0  0
    1.5978   -1.8177   -1.3078 H   0  0  0  0  0  0  0  0  0  0  0  0
    2.7868   -0.9656   -0.3077 H   0  0  0  0  0  0  0  0  0  0  0  0
    2.3157   -2.9504    0.3773 C   0  0  0  0  0  0  0  0  0  0  0  0
    2.6616   -2.7709    1.4015 H   0  0  0  0  0  0  0  0  0  0  0  0
    1.4517   -3.6229    0.4238 H   0  0  0  0  0  0  0  0  0  0  0  0
    3.3879   -3.5605   -0.4152 N   0  0  0  0  0  0  0  0  0  0  0  0
    3.6941   -4.4421   -0.0034 H   0  0  0  0  0  0  0  0  0  0  0  0
    3.0963   -3.6934   -1.3833 H   0  0  0  0  0  0  0  0  0  0  0  0
   -0.8277    2.4800   -0.2923 C   0  0  0  0  0  0  0  0  0  0  0  0
   -1.6323    2.6030   -1.2110 O   0  0  0  0  0  0  0  0  0  0  0  0
   -0.0065    3.5429    0.0368 N   0  0  0  0  0  0  0  0  0  0  0  0
    0.6337    3.4210    0.8163 H   0  0  0  0  0  0  0  0  0  0  0  0
   -0.0318    4.8213   -0.6628 C   0  0  0  0  0  0  0  0  0  0  0  0
   -1.0129    5.2961   -0.5569 H   0  0  0  0  0  0  0  0  0  0  0  0
    0.7249    5.4941   -0.2482 H   0  0  0  0  0  0  0  0  0  0  0  0
    0.1790    4.6795   -1.7280 H   0  0  0  0  0  0  0  0  0  0  0  0
  1  2  1  0  0  0  0
  2  3  1  0  0  0  0
  2  4  1  0  0  0  0
  2  5  1  0  0  0  0
  5  6  2  0  0  0  0
  5  7  1  0  0  0  0
  7  8  1  0  0  0  0
  7  9  1  0  0  0  0
  9 10  1  0  0  0  0
  9 11  1  0  0  0  0
  9 26  1  0  0  0  0
 11 12  1  0  0  0  0
 11 13  1  0  0  0  0
 11 14  1  0  0  0  0
 14 15  1  0  0  0  0
 14 16  1  0  0  0  0
 14 17  1  0  0  0  0
 17 18  1  0  0  0  0
 17 19  1  0  0  0  0
 17 20  1  0  0  0  0
 20 21  1  0  0  0  0
 20 22  1  0  0  0  0
 20 23  1  0  0  0  0
 23 24  1  0  0  0  0
 23 25  1  0  0  0  0
 26 27  2  0  0  0  0
 26 28  1  0  0  0  0
 28 29  1  0  0  0  0
 28 30  1  0  0  0  0
 30 31  1  0  0  0  0
 30 32  1  0  0  0  0
 30 33  1  0  0  0  0
M  END
$$$$

  -OEChem-01062216083D

 33 32  0     1  0  0  0  0  0999 V2000
   -3.9093   -2.2560    1.1893 H   0  0  0  0  0  0  0  0  0  0  0  0
   -3.7724   -1.3163    0.6471 C   0  0  0  0  0  0  0  0  0  0  0  0
   -4.6196   -0.6594    0.8591 H   0  0  0  0  0  0  0  0  0  0  0  0
   -3.7437   -1.5292   -0.4242 H   0  0  0  0  0  0  0  0  0  0  0  0
   -2.4805   -0.6477    1.0770 C   0  0  0  0  0  0  0  0  0  0  0  0
   -1.8617   -1.0868    2.0332 O   0  0  0  0  0  0  0  0  0  0  0  0
   -2.0951    0.5327    0.4790 N   0  0  0  0  0  0  0  0  0  0  0  0
   -2.7113    0.8814   -0.2562 H   0  0  0  0  0  0  0  0  0  0  0  0
   -0.7647    1.1686    0.5172 C   0  0  1  0  0  0  0  0  0  0  0  0
   -0.4948    1.3918    1.5544 H   0  0  0  0  0  0  0  0  0  0  0  0
    0.3675    0.3505   -0.1686 C   0  0  0  0  0  0  0  0  0  0  0  0
    0.0541    0.1278   -1.1945 H   0  0  0  0  0  0  0  0  0  0  0  0
    1.2633    0.9772   -0.2315 H   0  0  0  0  0  0  0  0  0  0  0  0
    0.7847   -0.9637    0.5047 C   0  0  0  0  0  0  0  0  0  0  0  0
    1.0891   -0.7748    1.5395 H   0  0  0  0  0  0  0  0  0  0  0  0
   -0.0505   -1.6651    0.5101 H   0  0  0  0  0  0  0  0  0  0  0  0
    1.9239   -1.6258   -0.2787 C   0  0  0  0  0  0  0  0  0  0  0  0
    1.6033   -1.8106   -1.3091 H   0  0  0  0  0  0  0  0  0  0  0  0
    2.7906   -0.9573   -0.3083 H   0  0  0  0  0  0  0  0  0  0  0  0
    2.3283   -2.9457    0.3707 C   0  0  0  0  0  0  0  0  0  0  0  0
    2.6759   -2.7685    1.3945 H   0  0  0  0  0  0  0  0  0  0  0  0
    1.4675   -3.6220    0.4172 H   0  0  0  0  0  0  0  0  0  0  0  0
    3.4007   -3.5474   -0.4281 N   0  0  0  0  0  0  0  0  0  0  0  0
    3.7108   -4.4303   -0.0222 H   0  0  0  0  0  0  0  0  0  0  0  0
    3.1071   -3.6760   -1.3962 H   0  0  0  0  0  0  0  0  0  0  0  0
   -0.8307    2.4845   -0.2967 C   0  0  0  0  0  0  0  0  0  0  0  0
   -1.7625    2.6912   -1.0689 O   0  0  0  0  0  0  0  0  0  0  0  0
    0.1673    3.4359   -0.1798 N   0  0  0  0  0  0  0  0  0  0  0  0
    0.9245    3.2470    0.4708 H   0  0  0  0  0  0  0  0  0  0  0  0
    0.1740    4.6890   -0.9252 C   0  0  0  0  0  0  0  0  0  0  0  0
   -0.7061    5.2898   -0.6728 H   0  0  0  0  0  0  0  0  0  0  0  0
    1.0698    5.2686   -0.6821 H   0  0  0  0  0  0  0  0  0  0  0  0
    0.1708    4.4944   -2.0029 H   0  0  0  0  0  0  0  0  0  0  0  0
  1  2  1  0  0  0  0
  2  3  1  0  0  0  0
  2  4  1  0  0  0  0
  2  5  1  0  0  0  0
  5  6  2  0  0  0  0
  5  7  1  0  0  0  0
  7  8  1  0  0  0  0
  7  9  1  0  0  0  0
  9 10  1  0  0  0  0
  9 11  1  0  0  0  0
  9 26  1  0  0  0  0
 11 12  1  0  0  0  0
 11 13  1  0  0  0  0
 11 14  1  0  0  0  0
 14 15  1  0  0  0  0
 14 16  1  0  0  0  0
 14 17  1  0  0  0  0
 17 18  1  0  0  0  0
 17 19  1  0  0  0  0
 17 20  1  0  0  0  0
 20 21  1  0  0  0  0
 20 22  1  0  0  0  0
 20 23  1  0  0  0  0
 23 24  1  0  0  0  0
 23 25  1  0  0  0  0
 26 27  2  0  0  0  0
 26 28  1  0  0  0  0
 28 29  1  0  0  0  0
 28 30  1  0  0  0  0
 30 31  1  0  0  0  0
 30 32  1  0  0  0  0
 30 33  1  0  0  0  0
M  END
$$$$

  -OEChem-01062216083D

 33 32  0     1  0  0  0  0  0999 V2000
   -3.8007   -2.3050    1.2173 H   0  0  0  0  0  0  0  0  0  0  0  0
   -3.7251   -1.3246    0.7388 C   0  0  0  0  0  0  0  0  0  0  0  0
   -4.4928   -0.6679    1.1548 H   0  0  0  0  0  0  0  0  0  0  0  0
   -3.8982   -1.4423   -0.3336 H   0  0  0  0  0  0  0  0  0  0  0  0
   -2.3510   -0.7288    0.9798 C   0  0  0  0  0  0  0  0  0  0  0  0
   -1.5808   -1.2769    1.7527 O   0  0  0  0  0  0  0  0  0  0  0  0
   -2.0214    0.4766    0.3965 N   0  0  0  0  0  0  0  0  0  0  0  0
   -2.7549    0.9548   -0.1268 H   0  0  0  0  0  0  0  0  0  0  0  0
   -0.7112    1.1503    0.4300 C   0  0  1  0  0  0  0  0  0  0  0  0
   -0.3070    1.1306    1.4474 H   0  0  0  0  0  0  0  0  0  0  0  0
    0.3019    0.5133   -0.5606 C   0  0  0  0  0  0  0  0  0  0  0  0
   -0.1473    0.5039   -1.5598 H   0  0  0  0  0  0  0  0  0  0  0  0
    1.1971    1.1404   -0.6111 H   0  0  0  0  0  0  0  0  0  0  0  0
    0.7641   -0.9073   -0.2119 C   0  0  0  0  0  0  0  0  0  0  0  0
    1.2038   -0.9212    0.7910 H   0  0  0  0  0  0  0  0  0  0  0  0
   -0.0878   -1.5901   -0.2242 H   0  0  0  0  0  0  0  0  0  0  0  0
    1.7774   -1.4109   -1.2448 C   0  0  0  0  0  0  0  0  0  0  0  0
    1.3256   -1.3928   -2.2419 H   0  0  0  0  0  0  0  0  0  0  0  0
    2.6525   -0.7532   -1.2569 H   0  0  0  0  0  0  0  0  0  0  0  0
    2.2200   -2.8330   -0.9133 C   0  0  0  0  0  0  0  0  0  0  0  0
    2.6966   -2.8567    0.0732 H   0  0  0  0  0  0  0  0  0  0  0  0
    1.3516   -3.5009   -0.8868 H   0  0  0  0  0  0  0  0  0  0  0  0
    3.1679   -3.2786   -1.9394 N   0  0  0  0  0  0  0  0  0  0  0  0
    3.5018   -4.2231   -1.7466 H   0  0  0  0  0  0  0  0  0  0  0  0
    2.7528   -3.2227   -2.8693 H   0  0  0  0  0  0  0  0  0  0  0  0
   -0.8909    2.6269   -0.0088 C   0  0  0  0  0  0  0  0  0  0  0  0
   -1.9930    3.0394   -0.3585 O   0  0  0  0  0  0  0  0  0  0  0  0
    0.1877    3.4929   -0.0651 N   0  0  0  0  0  0  0  0  0  0  0  0
    1.0921    3.1381    0.2320 H   0  0  0  0  0  0  0  0  0  0  0  0
    0.0811    4.8846   -0.4877 C   0  0  0  0  0  0  0  0  0  0  0  0
   -0.5776    5.4408    0.1876 H   0  0  0  0  0  0  0  0  0  0  0  0
    1.0669    5.3593   -0.4780 H   0  0  0  0  0  0  0  0  0  0  0  0
   -0.3213    4.9474   -1.5043 H   0  0  0  0  0  0  0  0  0  0  0  0
  1  2  1  0  0  0  0
  2  3  1  0  0  0  0
  2  4  1  0  0  0  0
  2  5  1  0  0  0  0
  5  6  2  0  0  0  0
  5  7  1  0  0  0  0
  7  8  1  0  0  0  0
  7  9  1  0  0  0  0
  9 10  1  0  0  0  0
  9 11  1  0  0  0  0
  9 26  1  0  0  0  0
 11 12  1  0  0  0  0
 11 13  1  0  0  0  0
 11 14  1  0  0  0  0
 14 15  1  0  0  0  0
 14 16  1  0  0  0  0
 14 17  1  0  0  0  0
 17 18  1  0  0  0  0
 17 19  1  0  0  0  0
 17 20  1  0  0  0  0
 20 21  1  0  0  0  0
 20 22  1  0  0  0  0
 20 23  1  0  0  0  0
 23 24  1  0  0  0  0
 23 25  1  0  0  0  0
 26 27  2  0  0  0  0
 26 28  1  0  0  0  0
 28 29  1  0  0  0  0
 28 30  1  0  0  0  0
 30 31  1  0  0  0  0
 30 32  1  0  0  0  0
 30 33  1  0  0  0  0
M  END
$$$$

  -OEChem-01062216083D

 33 32  0     1  0  0  0  0  0999 V2000
   -3.8246   -2.2727    1.2205 H   0  0  0  0  0  0  0  0  0  0  0  0
   -3.7385   -1.2919    0.7447 C   0  0  0  0  0  0  0  0  0  0  0  0
   -4.4864   -0.6227    1.1767 H   0  0  0  0  0  0  0  0  0  0  0  0
   -3.9324   -1.4018   -0.3249 H   0  0  0  0  0  0  0  0  0  0  0  0
   -2.3488   -0.7247    0.9639 C   0  0  0  0  0  0  0  0  0  0  0  0
   -1.5769   -1.2927    1.7204 O   0  0  0  0  0  0  0  0  0  0  0  0
   -2.0107    0.4813    0.3866 N   0  0  0  0  0  0  0  0  0  0  0  0
   -2.7593    0.9965   -0.0767 H   0  0  0  0  0  0  0  0  0  0  0  0
   -0.6975    1.1499    0.4248 C   0  0  1  0  0  0  0  0  0  0  0  0
   -0.2963    1.1323    1.4433 H   0  0  0  0  0  0  0  0  0  0  0  0
    0.3176    0.5001   -0.5600 C   0  0  0  0  0  0  0  0  0  0  0  0
   -0.1269    0.4932   -1.5612 H   0  0  0  0  0  0  0  0  0  0  0  0
    1.2207    1.1152   -0.6045 H   0  0  0  0  0  0  0  0  0  0  0  0
    0.7761   -0.9218   -0.2116 C   0  0  0  0  0  0  0  0  0  0  0  0
    1.2140   -0.9379    0.7921 H   0  0  0  0  0  0  0  0  0  0  0  0
   -0.0764   -1.6037   -0.2280 H   0  0  0  0  0  0  0  0  0  0  0  0
    1.7900   -1.4253   -1.2447 C   0  0  0  0  0  0  0  0  0  0  0  0
    1.3399   -1.4046   -2.2424 H   0  0  0  0  0  0  0  0  0  0  0  0
    2.6665   -0.7692   -1.2549 H   0  0  0  0  0  0  0  0  0  0  0  0
    2.2307   -2.8483   -0.9162 C   0  0  0  0  0  0  0  0  0  0  0  0
    2.7058   -2.8759    0.0710 H   0  0  0  0  0  0  0  0  0  0  0  0
    1.3616   -3.5151   -0.8930 H   0  0  0  0  0  0  0  0  0  0  0  0
    3.1785   -3.2893   -1.9444 N   0  0  0  0  0  0  0  0  0  0  0  0
    3.5088   -4.2364   -1.7583 H   0  0  0  0  0  0  0  0  0  0  0  0
    2.7647   -3.2248   -2.8744 H   0  0  0  0  0  0  0  0  0  0  0  0
   -0.8873    2.6298   -0.0116 C   0  0  0  0  0  0  0  0  0  0  0  0
   -2.0174    3.0965   -0.1209 O   0  0  0  0  0  0  0  0  0  0  0  0
    0.1833    3.4334   -0.3673 N   0  0  0  0  0  0  0  0  0  0  0  0
    1.1161    3.0420   -0.2754 H   0  0  0  0  0  0  0  0  0  0  0  0
    0.0409    4.8103   -0.8259 C   0  0  0  0  0  0  0  0  0  0  0  0
   -0.4045    5.4312   -0.0415 H   0  0  0  0  0  0  0  0  0  0  0  0
    1.0197    5.2267   -1.0831 H   0  0  0  0  0  0  0  0  0  0  0  0
   -0.5968    4.8539   -1.7151 H   0  0  0  0  0  0  0  0  0  0  0  0
  1  2  1  0  0  0  0
  2  3  1  0  0  0  0
  2  4  1  0  0  0  0
  2  5  1  0  0  0  0
  5  6  2  0  0  0  0
  5  7  1  0  0  0  0
  7  8  1  0  0  0  0
  7  9  1  0  0  0  0
  9 10  1  0  0  0  0
  9 11  1  0  0  0  0
  9 26  1  0  0  0  0
 11 12  1  0  0  0  0
 11 13  1  0  0  0  0
 11 14  1  0  0  0  0
 14 15  1  0  0  0  0
 14 16  1  0  0  0  0
 14 17  1  0  0  0  0
 17 18  1  0  0  0  0
 17 19  1  0  0  0  0
 17 20  1  0  0  0  0
 20 21  1  0  0  0  0
 20 22  1  0  0  0  0
 20 23  1  0  0  0  0
 23 24  1  0  0  0  0
 23 25  1  0  0  0  0
 26 27  2  0  0  0  0
 26 28  1  0  0  0  0
 28 29  1  0  0  0  0
 28 30  1  0  0  0  0
 30 31  1  0  0  0  0
 30 32  1  0  0  0  0
 30 33  1  0  0  0  0
M  END
$$$$

  -OEChem-01062216083D

 33 32  0     1  0  0  0  0  0999 V2000
   -3.8474   -2.2370    1.2342 H   0  0  0  0  0  0  0  0  0  0  0  0
   -3.7505   -1.2588    0.7548 C   0  0  0  0  0  0  0  0  0  0  0  0
   -4.4756   -0.5737    1.2006 H   0  0  0  0  0  0  0  0  0  0  0  0
   -3.9673   -1.3658   -0.3107 H   0  0  0  0  0  0  0  0  0  0  0  0
   -2.3456   -0.7200    0.9456 C   0  0  0  0  0  0  0  0  0  0  0  0
   -1.5706   -1.3089    1.6822 O   0  0  0  0  0  0  0  0  0  0  0  0
   -2.0015    0.4871    0.3731 N   0  0  0  0  0  0  0  0  0  0  0  0
   -2.7612    1.0298   -0.0369 H   0  0  0  0  0  0  0  0  0  0  0  0
   -0.6827    1.1464    0.4074 C   0  0  1  0  0  0  0  0  0  0  0  0
   -0.2796    1.1286    1.4254 H   0  0  0  0  0  0  0  0  0  0  0  0
    0.3341    0.4899   -0.5724 C   0  0  0  0  0  0  0  0  0  0  0  0
   -0.1023    0.4849   -1.5770 H   0  0  0  0  0  0  0  0  0  0  0  0
    1.2417    1.0991   -0.6054 H   0  0  0  0  0  0  0  0  0  0  0  0
    0.7881   -0.9322   -0.2205 C   0  0  0  0  0  0  0  0  0  0  0  0
    1.2202   -0.9499    0.7858 H   0  0  0  0  0  0  0  0  0  0  0  0
   -0.0660   -1.6116   -0.2427 H   0  0  0  0  0  0  0  0  0  0  0  0
    1.8039   -1.4401   -1.2496 C   0  0  0  0  0  0  0  0  0  0  0  0
    1.3570   -1.4202   -2.2488 H   0  0  0  0  0  0  0  0  0  0  0  0
    2.6822   -0.7865   -1.2578 H   0  0  0  0  0  0  0  0  0  0  0  0
    2.2393   -2.8637   -0.9163 C   0  0  0  0  0  0  0  0  0  0  0  0
    2.7116   -2.8887    0.0722 H   0  0  0  0  0  0  0  0  0  0  0  0
    1.3683   -3.5282   -0.8932 H   0  0  0  0  0  0  0  0  0  0  0  0
    3.1897   -3.3126   -1.9390 N   0  0  0  0  0  0  0  0  0  0  0  0
    3.5268   -4.2546   -1.7396 H   0  0  0  0  0  0  0  0  0  0  0  0
    2.7745   -3.2653   -2.8692 H   0  0  0  0  0  0  0  0  0  0  0  0
   -0.8828    2.6295   -0.0219 C   0  0  0  0  0  0  0  0  0  0  0  0
   -1.9813    3.1564    0.1239 O   0  0  0  0  0  0  0  0  0  0  0  0
    0.0979    3.3645   -0.6690 N   0  0  0  0  0  0  0  0  0  0  0  0
    1.0024    2.9237   -0.8055 H   0  0  0  0  0  0  0  0  0  0  0  0
   -0.0916    4.7346   -1.1318 C   0  0  0  0  0  0  0  0  0  0  0  0
   -0.3097    5.3973   -0.2877 H   0  0  0  0  0  0  0  0  0  0  0  0
    0.8144    5.0946   -1.6287 H   0  0  0  0  0  0  0  0  0  0  0  0
   -0.9202    4.7876   -1.8458 H   0  0  0  0  0  0  0  0  0  0  0  0
  1  2  1  0  0  0  0
  2  3  1  0  0  0  0
  2  4  1  0  0  0  0
  2  5  1  0  0  0  0
  5  6  2  0  0  0  0
  5  7  1  0  0  0  0
  7  8  1  0  0  0  0
  7  9  1  0  0  0  0
  9 10  1  0  0  0  0
  9 11  1  0  0  0  0
  9 26  1  0  0  0  0
 11 12  1  0  0  0  0
 11 13  1  0  0  0  0
 11 14  1  0  0  0  0
 14 15  1  0  0  0  0
 14 16  1  0  0  0  0
 14 17  1  0  0  0  0
 17 18  1  0  0  0  0
 17 19  1  0  0  0  0
 17 20  1  0  0  0  0
 20 21  1  0  0  0  0
 20 22  1  0  0  0  0
 20 23  1  0  0  0  0
 23 24  1  0  0  0  0
 23 25  1  0  0  0  0
 26 27  2  0  0  0  0
 26 28  1  0  0  0  0
 28 29  1  0  0  0  0
 28 30  1  0  0  0  0
 30 31  1  0  0  0  0
 30 32  1  0  0  0  0
 30 33  1  0  0  0  0
M  END
$$$$

  -OEChem-01062216083D

 33 32  0     1  0  0  0  0  0999 V2000
   -3.8857   -2.1944    1.2674 H   0  0  0  0  0  0  0  0  0  0  0  0
   -3.7758   -1.2240    0.7753 C   0  0  0  0  0  0  0  0  0  0  0  0
   -4.4770   -0.5181    1.2273 H   0  0  0  0  0  0  0  0  0  0  0  0
   -4.0154   -1.3377   -0.2846 H   0  0  0  0  0  0  0  0  0  0  0  0
   -2.3554   -0.7150    0.9331 C   0  0  0  0  0  0  0  0  0  0  0  0
   -1.5751   -1.3244    1.6467 O   0  0  0  0  0  0  0  0  0  0  0  0
   -2.0055    0.4913    0.3618 N   0  0  0  0  0  0  0  0  0  0  0  0
   -2.7710    1.0527   -0.0082 H   0  0  0  0  0  0  0  0  0  0  0  0
   -0.6807    1.1390    0.3896 C   0  0  1  0  0  0  0  0  0  0  0  0
   -0.2788    1.1231    1.4082 H   0  0  0  0  0  0  0  0  0  0  0  0
    0.3421    0.4797   -0.5824 C   0  0  0  0  0  0  0  0  0  0  0  0
   -0.0885    0.4704   -1.5895 H   0  0  0  0  0  0  0  0  0  0  0  0
    1.2476    1.0939   -0.6073 H   0  0  0  0  0  0  0  0  0  0  0  0
    0.7981   -0.9412   -0.2292 C   0  0  0  0  0  0  0  0  0  0  0  0
    1.2269   -0.9570    0.7785 H   0  0  0  0  0  0  0  0  0  0  0  0
   -0.0543   -1.6228   -0.2550 H   0  0  0  0  0  0  0  0  0  0  0  0
    1.8198   -1.4465   -1.2540 C   0  0  0  0  0  0  0  0  0  0  0  0
    1.3773   -1.4281   -2.2551 H   0  0  0  0  0  0  0  0  0  0  0  0
    2.6966   -0.7907   -1.2586 H   0  0  0  0  0  0  0  0  0  0  0  0
    2.2570   -2.8690   -0.9189 C   0  0  0  0  0  0  0  0  0  0  0  0
    2.7249   -2.8933    0.0717 H   0  0  0  0  0  0  0  0  0  0  0  0
    1.3876   -3.5355   -0.8995 H   0  0  0  0  0  0  0  0  0  0  0  0
    3.2129   -3.3158   -1.9372 N   0  0  0  0  0  0  0  0  0  0  0  0
    3.5540   -4.2554   -1.7336 H   0  0  0  0  0  0  0  0  0  0  0  0
    2.8011   -3.2732   -2.8690 H   0  0  0  0  0  0  0  0  0  0  0  0
   -0.8823    2.6220   -0.0346 C   0  0  0  0  0  0  0  0  0  0  0  0
   -1.8847    3.2169    0.3451 O   0  0  0  0  0  0  0  0  0  0  0  0
   -0.0574    3.2734   -0.9383 N   0  0  0  0  0  0  0  0  0  0  0  0
    0.7524    2.7675   -1.2842 H   0  0  0  0  0  0  0  0  0  0  0  0
   -0.2844    4.6369   -1.4033 C   0  0  0  0  0  0  0  0  0  0  0  0
   -0.2645    5.3369   -0.5614 H   0  0  0  0  0  0  0  0  0  0  0  0
    0.4950    4.9284   -2.1139 H   0  0  0  0  0  0  0  0  0  0  0  0
   -1.2551    4.7151   -1.9042 H   0  0  0  0  0  0  0  0  0  0  0  0
  1  2  1  0  0  0  0
  2  3  1  0  0  0  0
  2  4  1  0  0  0  0
  2  5  1  0  0  0  0
  5  6  2  0  0  0  0
  5  7  1  0  0  0  0
  7  8  1  0  0  0  0
  7  9  1  0  0  0  0
  9 10  1  0  0  0  0
  9 11  1  0  0  0  0
  9 26  1  0  0  0  0
 11 12  1  0  0  0  0
 11 13  1  0  0  0  0
 11 14  1  0  0  0  0
 14 15  1  0  0  0  0
 14 16  1  0  0  0  0
 14 17  1  0  0  0  0
 17 18  1  0  0  0  0
 17 19  1  0  0  0  0
 17 20  1  0  0  0  0
 20 21  1  0  0  0  0
 20 22  1  0  0  0  0
 20 23  1  0  0  0  0
 23 24  1  0  0  0  0
 23 25  1  0  0  0  0
 26 27  2  0  0  0  0
 26 28  1  0  0  0  0
 28 29  1  0  0  0  0
 28 30  1  0  0  0  0
 30 31  1  0  0  0  0
 30 32  1  0  0  0  0
 30 33  1  0  0  0  0
M  END
$$$$

  -OEChem-01062216083D

 33 32  0     1  0  0  0  0  0999 V2000
   -3.8796   -2.1950    1.2845 H   0  0  0  0  0  0  0  0  0  0  0  0
   -3.7765   -1.2261    0.7880 C   0  0  0  0  0  0  0  0  0  0  0  0
   -4.4772   -0.5213    1.2422 H   0  0  0  0  0  0  0  0  0  0  0  0
   -4.0229   -1.3451   -0.2697 H   0  0  0  0  0  0  0  0  0  0  0  0
   -2.3571   -0.7112    0.9357 C   0  0  0  0  0  0  0  0  0  0  0  0
   -1.5710   -1.3173    1.6455 O   0  0  0  0  0  0  0  0  0  0  0  0
   -2.0144    0.4948    0.3584 N   0  0  0  0  0  0  0  0  0  0  0  0
   -2.7838    1.0461   -0.0161 H   0  0  0  0  0  0  0  0  0  0  0  0
   -0.6877    1.1397    0.3731 C   0  0  1  0  0  0  0  0  0  0  0  0
   -0.2813    1.1265    1.3902 H   0  0  0  0  0  0  0  0  0  0  0  0
    0.3352    0.4786   -0.5961 C   0  0  0  0  0  0  0  0  0  0  0  0
   -0.0992    0.4545   -1.6013 H   0  0  0  0  0  0  0  0  0  0  0  0
    1.2343    1.1031   -0.6293 H   0  0  0  0  0  0  0  0  0  0  0  0
    0.7961   -0.9382   -0.2347 C   0  0  0  0  0  0  0  0  0  0  0  0
    1.2259   -0.9462    0.7727 H   0  0  0  0  0  0  0  0  0  0  0  0
   -0.0540   -1.6225   -0.2552 H   0  0  0  0  0  0  0  0  0  0  0  0
    1.8177   -1.4456   -1.2584 C   0  0  0  0  0  0  0  0  0  0  0  0
    1.3738   -1.4342   -2.2592 H   0  0  0  0  0  0  0  0  0  0  0  0
    2.6921   -0.7864   -1.2677 H   0  0  0  0  0  0  0  0  0  0  0  0
    2.2605   -2.8647   -0.9158 C   0  0  0  0  0  0  0  0  0  0  0  0
    2.7306   -2.8812    0.0739 H   0  0  0  0  0  0  0  0  0  0  0  0
    1.3935   -3.5347   -0.8912 H   0  0  0  0  0  0  0  0  0  0  0  0
    3.2161   -3.3130   -1.9337 N   0  0  0  0  0  0  0  0  0  0  0  0
    3.5626   -4.2497   -1.7253 H   0  0  0  0  0  0  0  0  0  0  0  0
    2.8023   -3.2778   -2.8649 H   0  0  0  0  0  0  0  0  0  0  0  0
   -0.8850    2.6211   -0.0493 C   0  0  0  0  0  0  0  0  0  0  0  0
   -1.7308    3.2907    0.5299 O   0  0  0  0  0  0  0  0  0  0  0  0
   -0.2744    3.1803   -1.1610 N   0  0  0  0  0  0  0  0  0  0  0  0
    0.3980    2.6086   -1.6632 H   0  0  0  0  0  0  0  0  0  0  0  0
   -0.5191    4.5434   -1.6186 C   0  0  0  0  0  0  0  0  0  0  0  0
   -0.2424    5.2637   -0.8416 H   0  0  0  0  0  0  0  0  0  0  0  0
    0.0754    4.7542   -2.5128 H   0  0  0  0  0  0  0  0  0  0  0  0
   -1.5767    4.6810   -1.8671 H   0  0  0  0  0  0  0  0  0  0  0  0
  1  2  1  0  0  0  0
  2  3  1  0  0  0  0
  2  4  1  0  0  0  0
  2  5  1  0  0  0  0
  5  6  2  0  0  0  0
  5  7  1  0  0  0  0
  7  8  1  0  0  0  0
  7  9  1  0  0  0  0
  9 10  1  0  0  0  0
  9 11  1  0  0  0  0
  9 26  1  0  0  0  0
 11 12  1  0  0  0  0
 11 13  1  0  0  0  0
 11 14  1  0  0  0  0
 14 15  1  0  0  0  0
 14 16  1  0  0  0  0
 14 17  1  0  0  0  0
 17 18  1  0  0  0  0
 17 19  1  0  0  0  0
 17 20  1  0  0  0  0
 20 21  1  0  0  0  0
 20 22  1  0  0  0  0
 20 23  1  0  0  0  0
 23 24  1  0  0  0  0
 23 25  1  0  0  0  0
 26 27  2  0  0  0  0
 26 28  1  0  0  0  0
 28 29  1  0  0  0  0
 28 30  1  0  0  0  0
 30 31  1  0  0  0  0
 30 32  1  0  0  0  0
 30 33  1  0  0  0  0
M  END
$$$$

  -OEChem-01062216083D

 33 32  0     1  0  0  0  0  0999 V2000
   -3.8625   -2.2126    1.3070 H   0  0  0  0  0  0  0  0  0  0  0  0
   -3.7703   -1.2470    0.8018 C   0  0  0  0  0  0  0  0  0  0  0  0
   -4.4812   -0.5471    1.2477 H   0  0  0  0  0  0  0  0  0  0  0  0
   -4.0119   -1.3787   -0.2555 H   0  0  0  0  0  0  0  0  0  0  0  0
   -2.3581   -0.7125    0.9493 C   0  0  0  0  0  0  0  0  0  0  0  0
   -1.5656   -1.3048    1.6630 O   0  0  0  0  0  0  0  0  0  0  0  0
   -2.0288    0.4928    0.3621 N   0  0  0  0  0  0  0  0  0  0  0  0
   -2.7993    1.0157   -0.0470 H   0  0  0  0  0  0  0  0  0  0  0  0
   -0.7039    1.1419    0.3607 C   0  0  1  0  0  0  0  0  0  0  0  0
   -0.2904    1.1326    1.3752 H   0  0  0  0  0  0  0  0  0  0  0  0
    0.3172    0.4816   -0.6096 C   0  0  0  0  0  0  0  0  0  0  0  0
   -0.1249    0.4392   -1.6105 H   0  0  0  0  0  0  0  0  0  0  0  0
    1.2067    1.1195   -0.6593 H   0  0  0  0  0  0  0  0  0  0  0  0
    0.7883   -0.9294   -0.2396 C   0  0  0  0  0  0  0  0  0  0  0  0
    1.2250   -0.9259    0.7648 H   0  0  0  0  0  0  0  0  0  0  0  0
   -0.0577   -1.6192   -0.2481 H   0  0  0  0  0  0  0  0  0  0  0  0
    1.8071   -1.4386   -1.2648 C   0  0  0  0  0  0  0  0  0  0  0  0
    1.3578   -1.4377   -2.2631 H   0  0  0  0  0  0  0  0  0  0  0  0
    2.6773   -0.7741   -1.2836 H   0  0  0  0  0  0  0  0  0  0  0  0
    2.2601   -2.8524   -0.9134 C   0  0  0  0  0  0  0  0  0  0  0  0
    2.7359   -2.8580    0.0738 H   0  0  0  0  0  0  0  0  0  0  0  0
    1.3973   -3.5270   -0.8782 H   0  0  0  0  0  0  0  0  0  0  0  0
    3.2129   -3.3043   -1.9324 N   0  0  0  0  0  0  0  0  0  0  0  0
    3.5641   -4.2380   -1.7188 H   0  0  0  0  0  0  0  0  0  0  0  0
    2.7950   -3.2774   -2.8621 H   0  0  0  0  0  0  0  0  0  0  0  0
   -0.8951    2.6205   -0.0636 C   0  0  0  0  0  0  0  0  0  0  0  0
   -1.5182    3.3706    0.6749 O   0  0  0  0  0  0  0  0  0  0  0  0
   -0.5478    3.0906   -1.3203 N   0  0  0  0  0  0  0  0  0  0  0  0
   -0.0471    2.4563   -1.9354 H   0  0  0  0  0  0  0  0  0  0  0  0
   -0.7867    4.4592   -1.7642 C   0  0  0  0  0  0  0  0  0  0  0  0
   -0.2657    5.1696   -1.1135 H   0  0  0  0  0  0  0  0  0  0  0  0
   -0.4209    4.5946   -2.7866 H   0  0  0  0  0  0  0  0  0  0  0  0
   -1.8579    4.6865   -1.7481 H   0  0  0  0  0  0  0  0  0  0  0  0
  1  2  1  0  0  0  0
  2  3  1  0  0  0  0
  2  4  1  0  0  0  0
  2  5  1  0  0  0  0
  5  6  2  0  0  0  0
  5  7  1  0  0  0  0
  7  8  1  0  0  0  0
  7  9  1  0  0  0  0
  9 10  1  0  0  0  0
  9 11  1  0  0  0  0
  9 26  1  0  0  0  0
 11 12  1  0  0  0  0
 11 13  1  0  0  0  0
 11 14  1  0  0  0  0
 14 15  1  0  0  0  0
 14 16  1  0  0  0  0
 14 17  1  0  0  0  0
 17 18  1  0  0  0  0
 17 19  1  0  0  0  0
 17 20  1  0  0  0  0
 20 21  1  0  0  0  0
 20 22  1  0  0  0  0
 20 23  1  0  0  0  0
 23 24  1  0  0  0  0
 23 25  1  0  0  0  0
 26 27  2  0  0  0  0
 26 28  1  0  0  0  0
 28 29  1  0  0  0  0
 28 30  1  0  0  0  0
 30 31  1  0  0  0  0
 30 32  1  0  0  0  0
 30 33  1  0  0  0  0
M  END
$$$$

  -OEChem-01062216083D

 33 32  0     1  0  0  0  0  0999 V2000
   -3.8376   -2.2428    1.3220 H   0  0  0  0  0  0  0  0  0  0  0  0
   -3.7596   -1.2781    0.8127 C   0  0  0  0  0  0  0  0  0  0  0  0
   -4.4889   -0.5906    1.2480 H   0  0  0  0  0  0  0  0  0  0  0  0
   -3.9883   -1.4204   -0.2460 H   0  0  0  0  0  0  0  0  0  0  0  0
   -2.3597   -0.7152    0.9715 C   0  0  0  0  0  0  0  0  0  0  0  0
   -1.5617   -1.2883    1.6944 O   0  0  0  0  0  0  0  0  0  0  0  0
   -2.0447    0.4897    0.3747 N   0  0  0  0  0  0  0  0  0  0  0  0
   -2.8117    0.9771   -0.0808 H   0  0  0  0  0  0  0  0  0  0  0  0
   -0.7223    1.1446    0.3597 C   0  0  1  0  0  0  0  0  0  0  0  0
   -0.3015    1.1378    1.3716 H   0  0  0  0  0  0  0  0  0  0  0  0
    0.2956    0.4897   -0.6156 C   0  0  0  0  0  0  0  0  0  0  0  0
   -0.1519    0.4371   -1.6131 H   0  0  0  0  0  0  0  0  0  0  0  0
    1.1775    1.1371   -0.6766 H   0  0  0  0  0  0  0  0  0  0  0  0
    0.7763   -0.9172   -0.2417 C   0  0  0  0  0  0  0  0  0  0  0  0
    1.2200   -0.9060    0.7595 H   0  0  0  0  0  0  0  0  0  0  0  0
   -0.0667   -1.6108   -0.2393 H   0  0  0  0  0  0  0  0  0  0  0  0
    1.7919   -1.4267   -1.2704 C   0  0  0  0  0  0  0  0  0  0  0  0
    1.3371   -1.4330   -2.2661 H   0  0  0  0  0  0  0  0  0  0  0  0
    2.6585   -0.7579   -1.2978 H   0  0  0  0  0  0  0  0  0  0  0  0
    2.2541   -2.8365   -0.9146 C   0  0  0  0  0  0  0  0  0  0  0  0
    2.7349   -2.8347    0.0700 H   0  0  0  0  0  0  0  0  0  0  0  0
    1.3948   -3.5150   -0.8712 H   0  0  0  0  0  0  0  0  0  0  0  0
    3.2033   -3.2891   -1.9367 N   0  0  0  0  0  0  0  0  0  0  0  0
    3.5603   -4.2200   -1.7207 H   0  0  0  0  0  0  0  0  0  0  0  0
    2.7805   -3.2681   -2.8643 H   0  0  0  0  0  0  0  0  0  0  0  0
   -0.9090    2.6199   -0.0679 C   0  0  0  0  0  0  0  0  0  0  0  0
   -1.2471    3.4468    0.7665 O   0  0  0  0  0  0  0  0  0  0  0  0
   -0.8573    3.0118   -1.3959 N   0  0  0  0  0  0  0  0  0  0  0  0
   -0.5692    2.3166   -2.0776 H   0  0  0  0  0  0  0  0  0  0  0  0
   -1.0770    4.3839   -1.8383 C   0  0  0  0  0  0  0  0  0  0  0  0
   -0.3477    5.0569   -1.3753 H   0  0  0  0  0  0  0  0  0  0  0  0
   -0.9701    4.4530   -2.9250 H   0  0  0  0  0  0  0  0  0  0  0  0
   -2.0847    4.7169   -1.5688 H   0  0  0  0  0  0  0  0  0  0  0  0
  1  2  1  0  0  0  0
  2  3  1  0  0  0  0
  2  4  1  0  0  0  0
  2  5  1  0  0  0  0
  5  6  2  0  0  0  0
  5  7  1  0  0  0  0
  7  8  1  0  0  0  0
  7  9  1  0  0  0  0
  9 10  1  0  0  0  0
  9 11  1  0  0  0  0
  9 26  1  0  0  0  0
 11 12  1  0  0  0  0
 11 13  1  0  0  0  0
 11 14  1  0  0  0  0
 14 15  1  0  0  0  0
 14 16  1  0  0  0  0
 14 17  1  0  0  0  0
 17 18  1  0  0  0  0
 17 19  1  0  0  0  0
 17 20  1  0  0  0  0
 20 21  1  0  0  0  0
 20 22  1  0  0  0  0
 20 23  1  0  0  0  0
 23 24  1  0  0  0  0
 23 25  1  0  0  0  0
 26 27  2  0  0  0  0
 26 28  1  0  0  0  0
 28 29  1  0  0  0  0
 28 30  1  0  0  0  0
 30 31  1  0  0  0  0
 30 32  1  0  0  0  0
 30 33  1  0  0  0  0
M  END
$$$$

  -OEChem-01062216083D

 33 32  0     1  0  0  0  0  0999 V2000
   -3.8243   -2.2686    1.3459 H   0  0  0  0  0  0  0  0  0  0  0  0
   -3.7568   -1.3065    0.8301 C   0  0  0  0  0  0  0  0  0  0  0  0
   -4.4975   -0.6260    1.2573 H   0  0  0  0  0  0  0  0  0  0  0  0
   -3.9785   -1.4600   -0.2286 H   0  0  0  0  0  0  0  0  0  0  0  0
   -2.3651   -0.7241    0.9914 C   0  0  0  0  0  0  0  0  0  0  0  0
   -1.5617   -1.2848    1.7177 O   0  0  0  0  0  0  0  0  0  0  0  0
   -2.0614    0.4807    0.3882 N   0  0  0  0  0  0  0  0  0  0  0  0
   -2.8263    0.9455   -0.0933 H   0  0  0  0  0  0  0  0  0  0  0  0
   -0.7418    1.1423    0.3700 C   0  0  1  0  0  0  0  0  0  0  0  0
   -0.3170    1.1354    1.3804 H   0  0  0  0  0  0  0  0  0  0  0  0
    0.2759    0.5009   -0.6127 C   0  0  0  0  0  0  0  0  0  0  0  0
   -0.1713    0.4538   -1.6104 H   0  0  0  0  0  0  0  0  0  0  0  0
    1.1534    1.1546   -0.6723 H   0  0  0  0  0  0  0  0  0  0  0  0
    0.7633   -0.9055   -0.2440 C   0  0  0  0  0  0  0  0  0  0  0  0
    1.2095   -0.8945    0.7562 H   0  0  0  0  0  0  0  0  0  0  0  0
   -0.0775   -1.6020   -0.2398 H   0  0  0  0  0  0  0  0  0  0  0  0
    1.7789   -1.4094   -1.2751 C   0  0  0  0  0  0  0  0  0  0  0  0
    1.3223   -1.4158   -2.2700 H   0  0  0  0  0  0  0  0  0  0  0  0
    2.6431   -0.7376   -1.3026 H   0  0  0  0  0  0  0  0  0  0  0  0
    2.2464   -2.8181   -0.9224 C   0  0  0  0  0  0  0  0  0  0  0  0
    2.7286   -2.8165    0.0616 H   0  0  0  0  0  0  0  0  0  0  0  0
    1.3898   -3.4999   -0.8784 H   0  0  0  0  0  0  0  0  0  0  0  0
    3.1957   -3.2656   -1.9468 N   0  0  0  0  0  0  0  0  0  0  0  0
    3.5580   -4.1947   -1.7317 H   0  0  0  0  0  0  0  0  0  0  0  0
    2.7714   -3.2462   -2.8736 H   0  0  0  0  0  0  0  0  0  0  0  0
   -0.9271    2.6139   -0.0619 C   0  0  0  0  0  0  0  0  0  0  0  0
   -0.9517    3.4978    0.7816 O   0  0  0  0  0  0  0  0  0  0  0  0
   -1.1784    2.9472   -1.3826 N   0  0  0  0  0  0  0  0  0  0  0  0
   -1.1103    2.2050   -2.0722 H   0  0  0  0  0  0  0  0  0  0  0  0
   -1.3726    4.3187   -1.8387 C   0  0  0  0  0  0  0  0  0  0  0  0
   -0.4909    4.9271   -1.6109 H   0  0  0  0  0  0  0  0  0  0  0  0
   -1.5365    4.3386   -2.9205 H   0  0  0  0  0  0  0  0  0  0  0  0
   -2.2443    4.7655   -1.3490 H   0  0  0  0  0  0  0  0  0  0  0  0
  1  2  1  0  0  0  0
  2  3  1  0  0  0  0
  2  4  1  0  0  0  0
  2  5  1  0  0  0  0
  5  6  2  0  0  0  0
  5  7  1  0  0  0  0
  7  8  1  0  0  0  0
  7  9  1  0  0  0  0
  9 10  1  0  0  0  0
  9 11  1  0  0  0  0
  9 26  1  0  0  0  0
 11 12  1  0  0  0  0
 11 13  1  0  0  0  0
 11 14  1  0  0  0  0
 14 15  1  0  0  0  0
 14 16  1  0  0  0  0
 14 17  1  0  0  0  0
 17 18  1  0  0  0  0
 17 19  1  0  0  0  0
 17 20  1  0  0  0  0
 20 21  1  0  0  0  0
 20 22  1  0  0  0  0
 20 23  1  0  0  0  0
 23 24  1  0  0  0  0
 23 25  1  0  0  0  0
 26 27  2  0  0  0  0
 26 28  1  0  0  0  0
 28 29  1  0  0  0  0
 28 30  1  0  0  0  0
 30 31  1  0  0  0  0
 30 32  1  0  0  0  0
 30 33  1  0  0  0  0
M  END
$$$$

  -OEChem-01062216083D

 33 32  0     1  0  0  0  0  0999 V2000
   -3.8247   -2.2911    1.3734 H   0  0  0  0  0  0  0  0  0  0  0  0
   -3.7623   -1.3311    0.8531 C   0  0  0  0  0  0  0  0  0  0  0  0
   -4.5088   -0.6538    1.2751 H   0  0  0  0  0  0  0  0  0  0  0  0
   -3.9802   -1.4907   -0.2054 H   0  0  0  0  0  0  0  0  0  0  0  0
   -2.3749   -0.7386    1.0151 C   0  0  0  0  0  0  0  0  0  0  0  0
   -1.5678   -1.2916    1.7427 O   0  0  0  0  0  0  0  0  0  0  0  0
   -2.0780    0.4653    0.4063 N   0  0  0  0  0  0  0  0  0  0  0  0
   -2.8449    0.9235   -0.0777 H   0  0  0  0  0  0  0  0  0  0  0  0
   -0.7621    1.1359    0.3961 C   0  0  1  0  0  0  0  0  0  0  0  0
   -0.3384    1.1288    1.4071 H   0  0  0  0  0  0  0  0  0  0  0  0
    0.2561    0.5107   -0.5935 C   0  0  0  0  0  0  0  0  0  0  0  0
   -0.1896    0.4776   -1.5925 H   0  0  0  0  0  0  0  0  0  0  0  0
    1.1315    1.1679   -0.6439 H   0  0  0  0  0  0  0  0  0  0  0  0
    0.7487   -0.8975   -0.2384 C   0  0  0  0  0  0  0  0  0  0  0  0
    1.1976   -0.8928    0.7607 H   0  0  0  0  0  0  0  0  0  0  0  0
   -0.0899   -1.5970   -0.2373 H   0  0  0  0  0  0  0  0  0  0  0  0
    1.7654   -1.3871   -1.2756 C   0  0  0  0  0  0  0  0  0  0  0  0
    1.3078   -1.3843   -2.2699 H   0  0  0  0  0  0  0  0  0  0  0  0
    2.6264   -0.7111   -1.2971 H   0  0  0  0  0  0  0  0  0  0  0  0
    2.2400   -2.7977   -0.9394 C   0  0  0  0  0  0  0  0  0  0  0  0
    2.7241   -2.8049    0.0435 H   0  0  0  0  0  0  0  0  0  0  0  0
    1.3866   -3.4838   -0.9019 H   0  0  0  0  0  0  0  0  0  0  0  0
    3.1896   -3.2293   -1.9700 N   0  0  0  0  0  0  0  0  0  0  0  0
    3.5553   -4.1597   -1.7673 H   0  0  0  0  0  0  0  0  0  0  0  0
    2.7645   -3.1990   -2.8962 H   0  0  0  0  0  0  0  0  0  0  0  0
   -0.9451    2.6030   -0.0447 C   0  0  0  0  0  0  0  0  0  0  0  0
   -0.6745    3.5155    0.7215 O   0  0  0  0  0  0  0  0  0  0  0  0
   -1.4815    2.9018   -1.2864 N   0  0  0  0  0  0  0  0  0  0  0  0
   -1.5995    2.1318   -1.9377 H   0  0  0  0  0  0  0  0  0  0  0  0
   -1.6497    4.2664   -1.7723 C   0  0  0  0  0  0  0  0  0  0  0  0
   -0.6843    4.7822   -1.8087 H   0  0  0  0  0  0  0  0  0  0  0  0
   -2.0771    4.2599   -2.7796 H   0  0  0  0  0  0  0  0  0  0  0  0
   -2.3237    4.8264   -1.1154 H   0  0  0  0  0  0  0  0  0  0  0  0
  1  2  1  0  0  0  0
  2  3  1  0  0  0  0
  2  4  1  0  0  0  0
  2  5  1  0  0  0  0
  5  6  2  0  0  0  0
  5  7  1  0  0  0  0
  7  8  1  0  0  0  0
  7  9  1  0  0  0  0
  9 10  1  0  0  0  0
  9 11  1  0  0  0  0
  9 26  1  0  0  0  0
 11 12  1  0  0  0  0
 11 13  1  0  0  0  0
 11 14  1  0  0  0  0
 14 15  1  0  0  0  0
 14 16  1  0  0  0  0
 14 17  1  0  0  0  0
 17 18  1  0  0  0  0
 17 19  1  0  0  0  0
 17 20  1  0  0  0  0
 20 21  1  0  0  0  0
 20 22  1  0  0  0  0
 20 23  1  0  0  0  0
 23 24  1  0  0  0  0
 23 25  1  0  0  0  0
 26 27  2  0  0  0  0
 26 28  1  0  0  0  0
 28 29  1  0  0  0  0
 28 30  1  0  0  0  0
 30 31  1  0  0  0  0
 30 32  1  0  0  0  0
 30 33  1  0  0  0  0
M  END
$$$$

  -OEChem-01062216083D

 33 32  0     1  0  0  0  0  0999 V2000
   -3.8252   -2.3197    1.4100 H   0  0  0  0  0  0  0  0  0  0  0  0
   -3.7689   -1.3637    0.8817 C   0  0  0  0  0  0  0  0  0  0  0  0
   -4.5165   -0.6859    1.3009 H   0  0  0  0  0  0  0  0  0  0  0  0
   -3.9897   -1.5329   -0.1747 H   0  0  0  0  0  0  0  0  0  0  0  0
   -2.3833   -0.7650    1.0335 C   0  0  0  0  0  0  0  0  0  0  0  0
   -1.5691   -1.3144    1.7558 O   0  0  0  0  0  0  0  0  0  0  0  0
   -2.0964    0.4403    0.4222 N   0  0  0  0  0  0  0  0  0  0  0  0
   -2.8762    0.9106   -0.0279 H   0  0  0  0  0  0  0  0  0  0  0  0
   -0.7865    1.1249    0.4264 C   0  0  1  0  0  0  0  0  0  0  0  0
   -0.3666    1.1162    1.4389 H   0  0  0  0  0  0  0  0  0  0  0  0
    0.2342    0.5165   -0.5700 C   0  0  0  0  0  0  0  0  0  0  0  0
   -0.2119    0.4978   -1.5697 H   0  0  0  0  0  0  0  0  0  0  0  0
    1.1074    1.1776   -0.6122 H   0  0  0  0  0  0  0  0  0  0  0  0
    0.7342   -0.8934   -0.2315 C   0  0  0  0  0  0  0  0  0  0  0  0
    1.1823   -0.8991    0.7681 H   0  0  0  0  0  0  0  0  0  0  0  0
   -0.1010   -1.5969   -0.2392 H   0  0  0  0  0  0  0  0  0  0  0  0
    1.7531   -1.3653   -1.2746 C   0  0  0  0  0  0  0  0  0  0  0  0
    1.2955   -1.3518   -2.2689 H   0  0  0  0  0  0  0  0  0  0  0  0
    2.6107   -0.6845   -1.2869 H   0  0  0  0  0  0  0  0  0  0  0  0
    2.2358   -2.7773   -0.9564 C   0  0  0  0  0  0  0  0  0  0  0  0
    2.7201   -2.7947    0.0265 H   0  0  0  0  0  0  0  0  0  0  0  0
    1.3859   -3.4681   -0.9281 H   0  0  0  0  0  0  0  0  0  0  0  0
    3.1873   -3.1902   -1.9932 N   0  0  0  0  0  0  0  0  0  0  0  0
    3.5559   -4.1225   -1.8052 H   0  0  0  0  0  0  0  0  0  0  0  0
    2.7625   -3.1463   -2.9189 H   0  0  0  0  0  0  0  0  0  0  0  0
   -0.9622    2.5909   -0.0206 C   0  0  0  0  0  0  0  0  0  0  0  0
   -0.4356    3.4963    0.6090 O   0  0  0  0  0  0  0  0  0  0  0  0
   -1.7495    2.8971   -1.1190 N   0  0  0  0  0  0  0  0  0  0  0  0
   -2.0294    2.1215   -1.7111 H   0  0  0  0  0  0  0  0  0  0  0  0
   -1.8876    4.2535   -1.6364 C   0  0  0  0  0  0  0  0  0  0  0  0
   -0.9119    4.6514   -1.9351 H   0  0  0  0  0  0  0  0  0  0  0  0
   -2.5467    4.2603   -2.5098 H   0  0  0  0  0  0  0  0  0  0  0  0
   -2.3183    4.9123   -0.8749 H   0  0  0  0  0  0  0  0  0  0  0  0
  1  2  1  0  0  0  0
  2  3  1  0  0  0  0
  2  4  1  0  0  0  0
  2  5  1  0  0  0  0
  5  6  2  0  0  0  0
  5  7  1  0  0  0  0
  7  8  1  0  0  0  0
  7  9  1  0  0  0  0
  9 10  1  0  0  0  0
  9 11  1  0  0  0  0
  9 26  1  0  0  0  0
 11 12  1  0  0  0  0
 11 13  1  0  0  0  0
 11 14  1  0  0  0  0
 14 15  1  0  0  0  0
 14 16  1  0  0  0  0
 14 17  1  0  0  0  0
 17 18  1  0  0  0  0
 17 19  1  0  0  0  0
 17 20  1  0  0  0  0
 20 21  1  0  0  0  0
 20 22  1  0  0  0  0
 20 23  1  0  0  0  0
 23 24  1  0  0  0  0
 23 25  1  0  0  0  0
 26 27  2  0  0  0  0
 26 28  1  0  0  0  0
 28 29  1  0  0  0  0
 28 30  1  0  0  0  0
 30 31  1  0  0  0  0
 30 32  1  0  0  0  0
 30 33  1  0  0  0  0
M  END
$$$$

  -OEChem-01062216083D

 33 32  0     1  0  0  0  0  0999 V2000
   -3.7975   -2.3643    1.4199 H   0  0  0  0  0  0  0  0  0  0  0  0
   -3.7513   -1.4117    0.8845 C   0  0  0  0  0  0  0  0  0  0  0  0
   -4.5143   -0.7431    1.2903 H   0  0  0  0  0  0  0  0  0  0  0  0
   -3.9582   -1.5937   -0.1726 H   0  0  0  0  0  0  0  0  0  0  0  0
   -2.3769   -0.7891    1.0451 C   0  0  0  0  0  0  0  0  0  0  0  0
   -1.5617   -1.3190    1.7806 O   0  0  0  0  0  0  0  0  0  0  0  0
   -2.1041    0.4182    0.4302 N   0  0  0  0  0  0  0  0  0  0  0  0
   -2.8893    0.8740   -0.0226 H   0  0  0  0  0  0  0  0  0  0  0  0
   -0.8010    1.1190    0.4371 C   0  0  1  0  0  0  0  0  0  0  0  0
   -0.3802    1.1112    1.4491 H   0  0  0  0  0  0  0  0  0  0  0  0
    0.2176    0.5132   -0.5633 C   0  0  0  0  0  0  0  0  0  0  0  0
   -0.2352    0.4929   -1.5600 H   0  0  0  0  0  0  0  0  0  0  0  0
    1.0892    1.1761   -0.6121 H   0  0  0  0  0  0  0  0  0  0  0  0
    0.7261   -0.8935   -0.2251 C   0  0  0  0  0  0  0  0  0  0  0  0
    1.1793   -0.8951    0.7720 H   0  0  0  0  0  0  0  0  0  0  0  0
   -0.1057   -1.6010   -0.2279 H   0  0  0  0  0  0  0  0  0  0  0  0
    1.7417   -1.3622   -1.2722 C   0  0  0  0  0  0  0  0  0  0  0  0
    1.2782   -1.3528   -2.2639 H   0  0  0  0  0  0  0  0  0  0  0  0
    2.5960   -0.6776   -1.2906 H   0  0  0  0  0  0  0  0  0  0  0  0
    2.2319   -2.7712   -0.9530 C   0  0  0  0  0  0  0  0  0  0  0  0
    2.7208   -2.7847    0.0277 H   0  0  0  0  0  0  0  0  0  0  0  0
    1.3846   -3.4652   -0.9193 H   0  0  0  0  0  0  0  0  0  0  0  0
    3.1806   -3.1838   -1.9925 N   0  0  0  0  0  0  0  0  0  0  0  0
    3.5520   -4.1149   -1.8042 H   0  0  0  0  0  0  0  0  0  0  0  0
    2.7530   -3.1421   -2.9171 H   0  0  0  0  0  0  0  0  0  0  0  0
   -0.9652    2.5875   -0.0123 C   0  0  0  0  0  0  0  0  0  0  0  0
   -0.2343    3.4525    0.4475 O   0  0  0  0  0  0  0  0  0  0  0  0
   -1.9610    2.9524   -0.9049 N   0  0  0  0  0  0  0  0  0  0  0  0
   -2.4022    2.2032   -1.4266 H   0  0  0  0  0  0  0  0  0  0  0  0
   -2.1099    4.3172   -1.3978 C   0  0  0  0  0  0  0  0  0  0  0  0
   -1.2177    4.6239   -1.9538 H   0  0  0  0  0  0  0  0  0  0  0  0
   -2.9759    4.3868   -2.0630 H   0  0  0  0  0  0  0  0  0  0  0  0
   -2.2610    5.0118   -0.5644 H   0  0  0  0  0  0  0  0  0  0  0  0
  1  2  1  0  0  0  0
  2  3  1  0  0  0  0
  2  4  1  0  0  0  0
  2  5  1  0  0  0  0
  5  6  2  0  0  0  0
  5  7  1  0  0  0  0
  7  8  1  0  0  0  0
  7  9  1  0  0  0  0
  9 10  1  0  0  0  0
  9 11  1  0  0  0  0
  9 26  1  0  0  0  0
 11 12  1  0  0  0  0
 11 13  1  0  0  0  0
 11 14  1  0  0  0  0
 14 15  1  0  0  0  0
 14 16  1  0  0  0  0
 14 17  1  0  0  0  0
 17 18  1  0  0  0  0
 17 19  1  0  0  0  0
 17 20  1  0  0  0  0
 20 21  1  0  0  0  0
 20 22  1  0  0  0  0
 20 23  1  0  0  0  0
 23 24  1  0  0  0  0
 23 25  1  0  0  0  0
 26 27  2  0  0  0  0
 26 28  1  0  0  0  0
 28 29  1  0  0  0  0
 28 30  1  0  0  0  0
 30 31  1  0  0  0  0
 30 32  1  0  0  0  0
 30 33  1  0  0  0  0
M  END
$$$$

  -OEChem-01062216083D

 33 32  0     1  0  0  0  0  0999 V2000
   -3.4975   -2.5205    1.2813 H   0  0  0  0  0  0  0  0  0  0  0  0
   -3.5324   -1.5662    0.7478 C   0  0  0  0  0  0  0  0  0  0  0  0
   -4.4405   -1.0332    1.0396 H   0  0  0  0  0  0  0  0  0  0  0  0
   -3.5623   -1.7663   -0.3258 H   0  0  0  0  0  0  0  0  0  0  0  0
   -2.3111   -0.7338    1.0896 C   0  0  0  0  0  0  0  0  0  0  0  0
   -1.5508   -1.1091    1.9660 O   0  0  0  0  0  0  0  0  0  0  0  0
   -2.1053    0.4715    0.4463 N   0  0  0  0  0  0  0  0  0  0  0  0
   -2.7238    0.6254   -0.3424 H   0  0  0  0  0  0  0  0  0  0  0  0
   -0.8024    1.1745    0.4096 C   0  0  1  0  0  0  0  0  0  0  0  0
   -0.3597    1.1794    1.4120 H   0  0  0  0  0  0  0  0  0  0  0  0
    0.1871    0.5194   -0.5921 C   0  0  0  0  0  0  0  0  0  0  0  0
   -0.2892    0.4697   -1.5767 H   0  0  0  0  0  0  0  0  0  0  0  0
    1.0668    1.1660   -0.6880 H   0  0  0  0  0  0  0  0  0  0  0  0
    0.6900   -0.8798   -0.2079 C   0  0  0  0  0  0  0  0  0  0  0  0
    1.1720   -0.8417    0.7749 H   0  0  0  0  0  0  0  0  0  0  0  0
   -0.1451   -1.5809   -0.1532 H   0  0  0  0  0  0  0  0  0  0  0  0
    1.6754   -1.4020   -1.2591 C   0  0  0  0  0  0  0  0  0  0  0  0
    1.1893   -1.4276   -2.2394 H   0  0  0  0  0  0  0  0  0  0  0  0
    2.5359   -0.7279   -1.3256 H   0  0  0  0  0  0  0  0  0  0  0  0
    2.1602   -2.8022   -0.8956 C   0  0  0  0  0  0  0  0  0  0  0  0
    2.6736   -2.7812    0.0725 H   0  0  0  0  0  0  0  0  0  0  0  0
    1.3078   -3.4858   -0.8132 H   0  0  0  0  0  0  0  0  0  0  0  0
    3.0788   -3.2652   -1.9407 N   0  0  0  0  0  0  0  0  0  0  0  0
    3.4411   -4.1948   -1.7288 H   0  0  0  0  0  0  0  0  0  0  0  0
    2.6317   -3.2477   -2.8569 H   0  0  0  0  0  0  0  0  0  0  0  0
   -0.9570    2.6486   -0.0392 C   0  0  0  0  0  0  0  0  0  0  0  0
   -0.0162    3.4230    0.0689 O   0  0  0  0  0  0  0  0  0  0  0  0
   -2.1197    3.1040   -0.6408 N   0  0  0  0  0  0  0  0  0  0  0  0
   -2.9389    2.5145   -0.5570 H   0  0  0  0  0  0  0  0  0  0  0  0
   -2.3065    4.4926   -1.0471 C   0  0  0  0  0  0  0  0  0  0  0  0
   -1.5301    4.7920   -1.7594 H   0  0  0  0  0  0  0  0  0  0  0  0
   -3.2807    4.6179   -1.5293 H   0  0  0  0  0  0  0  0  0  0  0  0
   -2.2609    5.1560   -0.1770 H   0  0  0  0  0  0  0  0  0  0  0  0
  1  2  1  0  0  0  0
  2  3  1  0  0  0  0
  2  4  1  0  0  0  0
  2  5  1  0  0  0  0
  5  6  2  0  0  0  0
  5  7  1  0  0  0  0
  7  8  1  0  0  0  0
  7  9  1  0  0  0  0
  9 10  1  0  0  0  0
  9 11  1  0  0  0  0
  9 26  1  0  0  0  0
 11 12  1  0  0  0  0
 11 13  1  0  0  0  0
 11 14  1  0  0  0  0
 14 15  1  0  0  0  0
 14 16  1  0  0  0  0
 14 17  1  0  0  0  0
 17 18  1  0  0  0  0
 17 19  1  0  0  0  0
 17 20  1  0  0  0  0
 20 21  1  0  0  0  0
 20 22  1  0  0  0  0
 20 23  1  0  0  0  0
 23 24  1  0  0  0  0
 23 25  1  0  0  0  0
 26 27  2  0  0  0  0
 26 28  1  0  0  0  0
 28 29  1  0  0  0  0
 28 30  1  0  0  0  0
 30 31  1  0  0  0  0
 30 32  1  0  0  0  0
 30 33  1  0  0  0  0
M  END
$$$$

  -OEChem-01062216083D

 33 32  0     1  0  0  0  0  0999 V2000
   -3.4757   -2.5236    1.2293 H   0  0  0  0  0  0  0  0  0  0  0  0
   -3.5126   -1.5613    0.7105 C   0  0  0  0  0  0  0  0  0  0  0  0
   -4.4272   -1.0388    1.0013 H   0  0  0  0  0  0  0  0  0  0  0  0
   -3.5304   -1.7450   -0.3665 H   0  0  0  0  0  0  0  0  0  0  0  0
   -2.3007   -0.7256    1.0767 C   0  0  0  0  0  0  0  0  0  0  0  0
   -1.5510   -1.1011    1.9622 O   0  0  0  0  0  0  0  0  0  0  0  0
   -2.0894    0.4841    0.4441 N   0  0  0  0  0  0  0  0  0  0  0  0
   -2.7050    0.6492   -0.3466 H   0  0  0  0  0  0  0  0  0  0  0  0
   -0.7839    1.1825    0.4054 C   0  0  1  0  0  0  0  0  0  0  0  0
   -0.3385    1.1863    1.4066 H   0  0  0  0  0  0  0  0  0  0  0  0
    0.2015    0.5165   -0.5961 C   0  0  0  0  0  0  0  0  0  0  0  0
   -0.2772    0.4660   -1.5793 H   0  0  0  0  0  0  0  0  0  0  0  0
    1.0868    1.1538   -0.6980 H   0  0  0  0  0  0  0  0  0  0  0  0
    0.6976   -0.8842   -0.2069 C   0  0  0  0  0  0  0  0  0  0  0  0
    1.1813   -0.8445    0.7751 H   0  0  0  0  0  0  0  0  0  0  0  0
   -0.1404   -1.5815   -0.1490 H   0  0  0  0  0  0  0  0  0  0  0  0
    1.6788   -1.4163   -1.2576 C   0  0  0  0  0  0  0  0  0  0  0  0
    1.1898   -1.4439   -2.2367 H   0  0  0  0  0  0  0  0  0  0  0  0
    2.5425   -0.7468   -1.3289 H   0  0  0  0  0  0  0  0  0  0  0  0
    2.1571   -2.8179   -0.8896 C   0  0  0  0  0  0  0  0  0  0  0  0
    2.6722   -2.7959    0.0775 H   0  0  0  0  0  0  0  0  0  0  0  0
    1.3014   -3.4967   -0.8032 H   0  0  0  0  0  0  0  0  0  0  0  0
    3.0714   -3.2895   -1.9347 N   0  0  0  0  0  0  0  0  0  0  0  0
    3.4223   -4.2239   -1.7247 H   0  0  0  0  0  0  0  0  0  0  0  0
    2.6255   -3.2644   -2.8513 H   0  0  0  0  0  0  0  0  0  0  0  0
   -0.9599    2.6597   -0.0324 C   0  0  0  0  0  0  0  0  0  0  0  0
    0.0100    3.3907   -0.1806 O   0  0  0  0  0  0  0  0  0  0  0  0
   -2.2157    3.1669   -0.3258 N   0  0  0  0  0  0  0  0  0  0  0  0
   -3.0048    2.6272    0.0136 H   0  0  0  0  0  0  0  0  0  0  0  0
   -2.4383    4.5616   -0.6917 C   0  0  0  0  0  0  0  0  0  0  0  0
   -1.8499    4.8247   -1.5773 H   0  0  0  0  0  0  0  0  0  0  0  0
   -3.4951    4.7285   -0.9210 H   0  0  0  0  0  0  0  0  0  0  0  0
   -2.1512    5.2250    0.1309 H   0  0  0  0  0  0  0  0  0  0  0  0
  1  2  1  0  0  0  0
  2  3  1  0  0  0  0
  2  4  1  0  0  0  0
  2  5  1  0  0  0  0
  5  6  2  0  0  0  0
  5  7  1  0  0  0  0
  7  8  1  0  0  0  0
  7  9  1  0  0  0  0
  9 10  1  0  0  0  0
  9 11  1  0  0  0  0
  9 26  1  0  0  0  0
 11 12  1  0  0  0  0
 11 13  1  0  0  0  0
 11 14  1  0  0  0  0
 14 15  1  0  0  0  0
 14 16  1  0  0  0  0
 14 17  1  0  0  0  0
 17 18  1  0  0  0  0
 17 19  1  0  0  0  0
 17 20  1  0  0  0  0
 20 21  1  0  0  0  0
 20 22  1  0  0  0  0
 20 23  1  0  0  0  0
 23 24  1  0  0  0  0
 23 25  1  0  0  0  0
 26 27  2  0  0  0  0
 26 28  1  0  0  0  0
 28 29  1  0  0  0  0
 28 30  1  0  0  0  0
 30 31  1  0  0  0  0
 30 32  1  0  0  0  0
 30 33  1  0  0  0  0
M  END
$$$$

  -OEChem-01062216083D

 33 32  0     1  0  0  0  0  0999 V2000
   -3.4965   -2.4993    1.2090 H   0  0  0  0  0  0  0  0  0  0  0  0
   -3.5207   -1.5346    0.6940 C   0  0  0  0  0  0  0  0  0  0  0  0
   -4.4259   -0.9994    0.9907 H   0  0  0  0  0  0  0  0  0  0  0  0
   -3.5463   -1.7137   -0.3835 H   0  0  0  0  0  0  0  0  0  0  0  0
   -2.2943   -0.7189    1.0573 C   0  0  0  0  0  0  0  0  0  0  0  0
   -1.5480   -1.1069    1.9403 O   0  0  0  0  0  0  0  0  0  0  0  0
   -2.0710    0.4943    0.4362 N   0  0  0  0  0  0  0  0  0  0  0  0
   -2.6987    0.6911   -0.3386 H   0  0  0  0  0  0  0  0  0  0  0  0
   -0.7619    1.1858    0.4007 C   0  0  1  0  0  0  0  0  0  0  0  0
   -0.3166    1.1875    1.4016 H   0  0  0  0  0  0  0  0  0  0  0  0
    0.2229    0.5154   -0.6002 C   0  0  0  0  0  0  0  0  0  0  0  0
   -0.2520    0.4708   -1.5855 H   0  0  0  0  0  0  0  0  0  0  0  0
    1.1143    1.1450   -0.6958 H   0  0  0  0  0  0  0  0  0  0  0  0
    0.7104   -0.8882   -0.2116 C   0  0  0  0  0  0  0  0  0  0  0  0
    1.1903   -0.8528    0.7724 H   0  0  0  0  0  0  0  0  0  0  0  0
   -0.1321   -1.5803   -0.1583 H   0  0  0  0  0  0  0  0  0  0  0  0
    1.6913   -1.4262   -1.2592 C   0  0  0  0  0  0  0  0  0  0  0  0
    1.2054   -1.4506   -2.2398 H   0  0  0  0  0  0  0  0  0  0  0  0
    2.5594   -0.7624   -1.3274 H   0  0  0  0  0  0  0  0  0  0  0  0
    2.1583   -2.8306   -0.8880 C   0  0  0  0  0  0  0  0  0  0  0  0
    2.6692   -2.8118    0.0813 H   0  0  0  0  0  0  0  0  0  0  0  0
    1.2973   -3.5030   -0.8049 H   0  0  0  0  0  0  0  0  0  0  0  0
    3.0731   -3.3107   -1.9284 N   0  0  0  0  0  0  0  0  0  0  0  0
    3.4133   -4.2486   -1.7171 H   0  0  0  0  0  0  0  0  0  0  0  0
    2.6321   -3.2805   -2.8472 H   0  0  0  0  0  0  0  0  0  0  0  0
   -0.9590    2.6650   -0.0275 C   0  0  0  0  0  0  0  0  0  0  0  0
   -0.0267    3.3531   -0.4211 O   0  0  0  0  0  0  0  0  0  0  0  0
   -2.2238    3.2298   -0.0054 N   0  0  0  0  0  0  0  0  0  0  0  0
   -2.9368    2.7090    0.4964 H   0  0  0  0  0  0  0  0  0  0  0  0
   -2.4761    4.6312   -0.3224 C   0  0  0  0  0  0  0  0  0  0  0  0
   -2.1233    4.8657   -1.3324 H   0  0  0  0  0  0  0  0  0  0  0  0
   -3.5487    4.8423   -0.2766 H   0  0  0  0  0  0  0  0  0  0  0  0
   -1.9617    5.2844    0.3903 H   0  0  0  0  0  0  0  0  0  0  0  0
  1  2  1  0  0  0  0
  2  3  1  0  0  0  0
  2  4  1  0  0  0  0
  2  5  1  0  0  0  0
  5  6  2  0  0  0  0
  5  7  1  0  0  0  0
  7  8  1  0  0  0  0
  7  9  1  0  0  0  0
  9 10  1  0  0  0  0
  9 11  1  0  0  0  0
  9 26  1  0  0  0  0
 11 12  1  0  0  0  0
 11 13  1  0  0  0  0
 11 14  1  0  0  0  0
 14 15  1  0  0  0  0
 14 16  1  0  0  0  0
 14 17  1  0  0  0  0
 17 18  1  0  0  0  0
 17 19  1  0  0  0  0
 17 20  1  0  0  0  0
 20 21  1  0  0  0  0
 20 22  1  0  0  0  0
 20 23  1  0  0  0  0
 23 24  1  0  0  0  0
 23 25  1  0  0  0  0
 26 27  2  0  0  0  0
 26 28  1  0  0  0  0
 28 29  1  0  0  0  0
 28 30  1  0  0  0  0
 30 31  1  0  0  0  0
 30 32  1  0  0  0  0
 30 33  1  0  0  0  0
M  END
$$$$

  -OEChem-01062216083D

 33 32  0     1  0  0  0  0  0999 V2000
   -3.5442   -2.4545    1.2208 H   0  0  0  0  0  0  0  0  0  0  0  0
   -3.5362   -1.5038    0.6800 C   0  0  0  0  0  0  0  0  0  0  0  0
   -4.4330   -0.9396    0.9467 H   0  0  0  0  0  0  0  0  0  0  0  0
   -3.5483   -1.7109   -0.3928 H   0  0  0  0  0  0  0  0  0  0  0  0
   -2.2959   -0.7088    1.0418 C   0  0  0  0  0  0  0  0  0  0  0  0
   -1.5520   -1.1111    1.9205 O   0  0  0  0  0  0  0  0  0  0  0  0
   -2.0595    0.5075    0.4329 N   0  0  0  0  0  0  0  0  0  0  0  0
   -2.7005    0.7362   -0.3225 H   0  0  0  0  0  0  0  0  0  0  0  0
   -0.7451    1.1866    0.3959 C   0  0  1  0  0  0  0  0  0  0  0  0
   -0.2993    1.1824    1.3964 H   0  0  0  0  0  0  0  0  0  0  0  0
    0.2403    0.5124   -0.6020 C   0  0  0  0  0  0  0  0  0  0  0  0
   -0.2309    0.4720   -1.5894 H   0  0  0  0  0  0  0  0  0  0  0  0
    1.1346    1.1390   -0.6915 H   0  0  0  0  0  0  0  0  0  0  0  0
    0.7206   -0.8937   -0.2132 C   0  0  0  0  0  0  0  0  0  0  0  0
    1.1968   -0.8625    0.7724 H   0  0  0  0  0  0  0  0  0  0  0  0
   -0.1252   -1.5819   -0.1638 H   0  0  0  0  0  0  0  0  0  0  0  0
    1.7026   -1.4337   -1.2589 C   0  0  0  0  0  0  0  0  0  0  0  0
    1.2198   -1.4547   -2.2412 H   0  0  0  0  0  0  0  0  0  0  0  0
    2.5736   -0.7729   -1.3243 H   0  0  0  0  0  0  0  0  0  0  0  0
    2.1634   -2.8404   -0.8890 C   0  0  0  0  0  0  0  0  0  0  0  0
    2.6715   -2.8252    0.0818 H   0  0  0  0  0  0  0  0  0  0  0  0
    1.2998   -3.5098   -0.8094 H   0  0  0  0  0  0  0  0  0  0  0  0
    3.0795   -3.3215   -1.9279 N   0  0  0  0  0  0  0  0  0  0  0  0
    3.4187   -4.2597   -1.7158 H   0  0  0  0  0  0  0  0  0  0  0  0
    2.6399   -3.2911   -2.8475 H   0  0  0  0  0  0  0  0  0  0  0  0
   -0.9545    2.6682   -0.0186 C   0  0  0  0  0  0  0  0  0  0  0  0
   -0.1292    3.2961   -0.6689 O   0  0  0  0  0  0  0  0  0  0  0  0
   -2.1398    3.3009    0.3153 N   0  0  0  0  0  0  0  0  0  0  0  0
   -2.7500    2.8049    0.9589 H   0  0  0  0  0  0  0  0  0  0  0  0
   -2.4105    4.7046    0.0274 C   0  0  0  0  0  0  0  0  0  0  0  0
   -2.3395    4.8963   -1.0485 H   0  0  0  0  0  0  0  0  0  0  0  0
   -3.4190    4.9708    0.3581 H   0  0  0  0  0  0  0  0  0  0  0  0
   -1.6929    5.3477    0.5477 H   0  0  0  0  0  0  0  0  0  0  0  0
  1  2  1  0  0  0  0
  2  3  1  0  0  0  0
  2  4  1  0  0  0  0
  2  5  1  0  0  0  0
  5  6  2  0  0  0  0
  5  7  1  0  0  0  0
  7  8  1  0  0  0  0
  7  9  1  0  0  0  0
  9 10  1  0  0  0  0
  9 11  1  0  0  0  0
  9 26  1  0  0  0  0
 11 12  1  0  0  0  0
 11 13  1  0  0  0  0
 11 14  1  0  0  0  0
 14 15  1  0  0  0  0
 14 16  1  0  0  0  0
 14 17  1  0  0  0  0
 17 18  1  0  0  0  0
 17 19  1  0  0  0  0
 17 20  1  0  0  0  0
 20 21  1  0  0  0  0
 20 22  1  0  0  0  0
 20 23  1  0  0  0  0
 23 24  1  0  0  0  0
 23 25  1  0  0  0  0
 26 27  2  0  0  0  0
 26 28  1  0  0  0  0
 28 29  1  0  0  0  0
 28 30  1  0  0  0  0
 30 31  1  0  0  0  0
 30 32  1  0  0  0  0
 30 33  1  0  0  0  0
M  END
$$$$

  -OEChem-01062216083D

 33 32  0     1  0  0  0  0  0999 V2000
   -3.5736   -2.4319    1.2000 H   0  0  0  0  0  0  0  0  0  0  0  0
   -3.5552   -1.4744    0.6716 C   0  0  0  0  0  0  0  0  0  0  0  0
   -4.4416   -0.9003    0.9515 H   0  0  0  0  0  0  0  0  0  0  0  0
   -3.5774   -1.6668   -0.4038 H   0  0  0  0  0  0  0  0  0  0  0  0
   -2.3008   -0.7024    1.0342 C   0  0  0  0  0  0  0  0  0  0  0  0
   -1.5576   -1.1237    1.9049 O   0  0  0  0  0  0  0  0  0  0  0  0
   -2.0505    0.5157    0.4353 N   0  0  0  0  0  0  0  0  0  0  0  0
   -2.7020    0.7722   -0.3022 H   0  0  0  0  0  0  0  0  0  0  0  0
   -0.7320    1.1830    0.3994 C   0  0  1  0  0  0  0  0  0  0  0  0
   -0.2855    1.1726    1.3993 H   0  0  0  0  0  0  0  0  0  0  0  0
    0.2545    0.5090   -0.5961 C   0  0  0  0  0  0  0  0  0  0  0  0
   -0.2134    0.4714   -1.5856 H   0  0  0  0  0  0  0  0  0  0  0  0
    1.1485    1.1368   -0.6798 H   0  0  0  0  0  0  0  0  0  0  0  0
    0.7282   -0.8995   -0.2098 C   0  0  0  0  0  0  0  0  0  0  0  0
    1.2005   -0.8738    0.7779 H   0  0  0  0  0  0  0  0  0  0  0  0
   -0.1204   -1.5848   -0.1668 H   0  0  0  0  0  0  0  0  0  0  0  0
    1.7123   -1.4370   -1.2546 C   0  0  0  0  0  0  0  0  0  0  0  0
    1.2324   -1.4519   -2.2387 H   0  0  0  0  0  0  0  0  0  0  0  0
    2.5847   -0.7777   -1.3141 H   0  0  0  0  0  0  0  0  0  0  0  0
    2.1691   -2.8466   -0.8905 C   0  0  0  0  0  0  0  0  0  0  0  0
    2.6742   -2.8375    0.0819 H   0  0  0  0  0  0  0  0  0  0  0  0
    1.3038   -3.5146   -0.8170 H   0  0  0  0  0  0  0  0  0  0  0  0
    3.0874   -3.3235   -1.9295 N   0  0  0  0  0  0  0  0  0  0  0  0
    3.4126   -4.2692   -1.7296 H   0  0  0  0  0  0  0  0  0  0  0  0
    2.6553   -3.2734   -2.8517 H   0  0  0  0  0  0  0  0  0  0  0  0
   -0.9456    2.6657   -0.0044 C   0  0  0  0  0  0  0  0  0  0  0  0
   -0.2909    3.2202   -0.8778 O   0  0  0  0  0  0  0  0  0  0  0  0
   -1.9676    3.3781    0.5982 N   0  0  0  0  0  0  0  0  0  0  0  0
   -2.4621    2.9161    1.3565 H   0  0  0  0  0  0  0  0  0  0  0  0
   -2.2478    4.7818    0.3199 C   0  0  0  0  0  0  0  0  0  0  0  0
   -2.4758    4.9246   -0.7416 H   0  0  0  0  0  0  0  0  0  0  0  0
   -3.1085    5.1190    0.9052 H   0  0  0  0  0  0  0  0  0  0  0  0
   -1.3852    5.4033    0.5819 H   0  0  0  0  0  0  0  0  0  0  0  0
  1  2  1  0  0  0  0
  2  3  1  0  0  0  0
  2  4  1  0  0  0  0
  2  5  1  0  0  0  0
  5  6  2  0  0  0  0
  5  7  1  0  0  0  0
  7  8  1  0  0  0  0
  7  9  1  0  0  0  0
  9 10  1  0  0  0  0
  9 11  1  0  0  0  0
  9 26  1  0  0  0  0
 11 12  1  0  0  0  0
 11 13  1  0  0  0  0
 11 14  1  0  0  0  0
 14 15  1  0  0  0  0
 14 16  1  0  0  0  0
 14 17  1  0  0  0  0
 17 18  1  0  0  0  0
 17 19  1  0  0  0  0
 17 20  1  0  0  0  0
 20 21  1  0  0  0  0
 20 22  1  0  0  0  0
 20 23  1  0  0  0  0
 23 24  1  0  0  0  0
 23 25  1  0  0  0  0
 26 27  2  0  0  0  0
 26 28  1  0  0  0  0
 28 29  1  0  0  0  0
 28 30  1  0  0  0  0
 30 31  1  0  0  0  0
 30 32  1  0  0  0  0
 30 33  1  0  0  0  0
M  END
$$$$

  -OEChem-01062216083D

 33 32  0     1  0  0  0  0  0999 V2000
   -3.6059   -2.4050    1.2055 H   0  0  0  0  0  0  0  0  0  0  0  0
   -3.5701   -1.4548    0.6653 C   0  0  0  0  0  0  0  0  0  0  0  0
   -4.4491   -0.8639    0.9335 H   0  0  0  0  0  0  0  0  0  0  0  0
   -3.5900   -1.6603   -0.4077 H   0  0  0  0  0  0  0  0  0  0  0  0
   -2.3058   -0.6977    1.0254 C   0  0  0  0  0  0  0  0  0  0  0  0
   -1.5631   -1.1316    1.8908 O   0  0  0  0  0  0  0  0  0  0  0  0
   -2.0453    0.5225    0.4357 N   0  0  0  0  0  0  0  0  0  0  0  0
   -2.6960    0.7937   -0.2976 H   0  0  0  0  0  0  0  0  0  0  0  0
   -0.7234    1.1798    0.4058 C   0  0  1  0  0  0  0  0  0  0  0  0
   -0.2788    1.1591    1.4063 H   0  0  0  0  0  0  0  0  0  0  0  0
    0.2658    0.5123   -0.5900 C   0  0  0  0  0  0  0  0  0  0  0  0
   -0.2007    0.4781   -1.5804 H   0  0  0  0  0  0  0  0  0  0  0  0
    1.1567    1.1450   -0.6693 H   0  0  0  0  0  0  0  0  0  0  0  0
    0.7334   -0.9005   -0.2116 C   0  0  0  0  0  0  0  0  0  0  0  0
    1.2016   -0.8832    0.7783 H   0  0  0  0  0  0  0  0  0  0  0  0
   -0.1182   -1.5829   -0.1770 H   0  0  0  0  0  0  0  0  0  0  0  0
    1.7215   -1.4362   -1.2532 C   0  0  0  0  0  0  0  0  0  0  0  0
    1.2468   -1.4448   -2.2395 H   0  0  0  0  0  0  0  0  0  0  0  0
    2.5970   -0.7806   -1.3047 H   0  0  0  0  0  0  0  0  0  0  0  0
    2.1688   -2.8495   -0.8922 C   0  0  0  0  0  0  0  0  0  0  0  0
    2.6678   -2.8475    0.0835 H   0  0  0  0  0  0  0  0  0  0  0  0
    1.2993   -3.5131   -0.8277 H   0  0  0  0  0  0  0  0  0  0  0  0
    3.0915   -3.3263   -1.9271 N   0  0  0  0  0  0  0  0  0  0  0  0
    3.4054   -4.2771   -1.7331 H   0  0  0  0  0  0  0  0  0  0  0  0
    2.6679   -3.2635   -2.8526 H   0  0  0  0  0  0  0  0  0  0  0  0
   -0.9298    2.6635    0.0128 C   0  0  0  0  0  0  0  0  0  0  0  0
   -0.4970    3.1419   -1.0281 O   0  0  0  0  0  0  0  0  0  0  0  0
   -1.7201    3.4570    0.8242 N   0  0  0  0  0  0  0  0  0  0  0  0
   -2.0808    3.0338    1.6752 H   0  0  0  0  0  0  0  0  0  0  0  0
   -2.0075    4.8599    0.5507 C   0  0  0  0  0  0  0  0  0  0  0  0
   -2.5347    4.9638   -0.4033 H   0  0  0  0  0  0  0  0  0  0  0  0
   -2.6376    5.2780    1.3413 H   0  0  0  0  0  0  0  0  0  0  0  0
   -1.0790    5.4389    0.5060 H   0  0  0  0  0  0  0  0  0  0  0  0
  1  2  1  0  0  0  0
  2  3  1  0  0  0  0
  2  4  1  0  0  0  0
  2  5  1  0  0  0  0
  5  6  2  0  0  0  0
  5  7  1  0  0  0  0
  7  8  1  0  0  0  0
  7  9  1  0  0  0  0
  9 10  1  0  0  0  0
  9 11  1  0  0  0  0
  9 26  1  0  0  0  0
 11 12  1  0  0  0  0
 11 13  1  0  0  0  0
 11 14  1  0  0  0  0
 14 15  1  0  0  0  0
 14 16  1  0  0  0  0
 14 17  1  0  0  0  0
 17 18  1  0  0  0  0
 17 19  1  0  0  0  0
 17 20  1  0  0  0  0
 20 21  1  0  0  0  0
 20 22  1  0  0  0  0
 20 23  1  0  0  0  0
 23 24  1  0  0  0  0
 23 25  1  0  0  0  0
 26 27  2  0  0  0  0
 26 28  1  0  0  0  0
 28 29  1  0  0  0  0
 28 30  1  0  0  0  0
 30 31  1  0  0  0  0
 30 32  1  0  0  0  0
 30 33  1  0  0  0  0
M  END
$$$$

  -OEChem-01062216083D

 33 32  0     1  0  0  0  0  0999 V2000
   -3.6323   -2.3899    1.2010 H   0  0  0  0  0  0  0  0  0  0  0  0
   -3.5874   -1.4378    0.6648 C   0  0  0  0  0  0  0  0  0  0  0  0
   -4.4564   -0.8361    0.9416 H   0  0  0  0  0  0  0  0  0  0  0  0
   -3.6171   -1.6378   -0.4090 H   0  0  0  0  0  0  0  0  0  0  0  0
   -2.3114   -0.6986    1.0202 C   0  0  0  0  0  0  0  0  0  0  0  0
   -1.5679   -1.1465    1.8783 O   0  0  0  0  0  0  0  0  0  0  0  0
   -2.0415    0.5223    0.4365 N   0  0  0  0  0  0  0  0  0  0  0  0
   -2.6916    0.8079   -0.2921 H   0  0  0  0  0  0  0  0  0  0  0  0
   -0.7180    1.1728    0.4159 C   0  0  1  0  0  0  0  0  0  0  0  0
   -0.2765    1.1416    1.4176 H   0  0  0  0  0  0  0  0  0  0  0  0
    0.2746    0.5144   -0.5809 C   0  0  0  0  0  0  0  0  0  0  0  0
   -0.1878    0.4858   -1.5735 H   0  0  0  0  0  0  0  0  0  0  0  0
    1.1638    1.1502   -0.6524 H   0  0  0  0  0  0  0  0  0  0  0  0
    0.7361   -0.9023   -0.2118 C   0  0  0  0  0  0  0  0  0  0  0  0
    1.1967   -0.8947    0.7817 H   0  0  0  0  0  0  0  0  0  0  0  0
   -0.1183   -1.5816   -0.1890 H   0  0  0  0  0  0  0  0  0  0  0  0
    1.7294   -1.4325   -1.2512 C   0  0  0  0  0  0  0  0  0  0  0  0
    1.2619   -1.4316   -2.2412 H   0  0  0  0  0  0  0  0  0  0  0  0
    2.6073   -0.7793   -1.2910 H   0  0  0  0  0  0  0  0  0  0  0  0
    2.1695   -2.8501   -0.8974 C   0  0  0  0  0  0  0  0  0  0  0  0
    2.6610   -2.8568    0.0819 H   0  0  0  0  0  0  0  0  0  0  0  0
    1.2972   -3.5113   -0.8436 H   0  0  0  0  0  0  0  0  0  0  0  0
    3.0979   -3.3238   -1.9285 N   0  0  0  0  0  0  0  0  0  0  0  0
    3.4088   -4.2759   -1.7360 H   0  0  0  0  0  0  0  0  0  0  0  0
    2.6794   -3.2575   -2.8560 H   0  0  0  0  0  0  0  0  0  0  0  0
   -0.9126    2.6572    0.0276 C   0  0  0  0  0  0  0  0  0  0  0  0
   -0.7353    3.0625   -1.1146 O   0  0  0  0  0  0  0  0  0  0  0  0
   -1.4248    3.5309    0.9689 N   0  0  0  0  0  0  0  0  0  0  0  0
   -1.6254    3.1554    1.8917 H   0  0  0  0  0  0  0  0  0  0  0  0
   -1.7088    4.9348    0.6975 C   0  0  0  0  0  0  0  0  0  0  0  0
   -2.4779    5.0277   -0.0764 H   0  0  0  0  0  0  0  0  0  0  0  0
   -2.0684    5.4303    1.6044 H   0  0  0  0  0  0  0  0  0  0  0  0
   -0.8034    5.4495    0.3591 H   0  0  0  0  0  0  0  0  0  0  0  0
  1  2  1  0  0  0  0
  2  3  1  0  0  0  0
  2  4  1  0  0  0  0
  2  5  1  0  0  0  0
  5  6  2  0  0  0  0
  5  7  1  0  0  0  0
  7  8  1  0  0  0  0
  7  9  1  0  0  0  0
  9 10  1  0  0  0  0
  9 11  1  0  0  0  0
  9 26  1  0  0  0  0
 11 12  1  0  0  0  0
 11 13  1  0  0  0  0
 11 14  1  0  0  0  0
 14 15  1  0  0  0  0
 14 16  1  0  0  0  0
 14 17  1  0  0  0  0
 17 18  1  0  0  0  0
 17 19  1  0  0  0  0
 17 20  1  0  0  0  0
 20 21  1  0  0  0  0
 20 22  1  0  0  0  0
 20 23  1  0  0  0  0
 23 24  1  0  0  0  0
 23 25  1  0  0  0  0
 26 27  2  0  0  0  0
 26 28  1  0  0  0  0
 28 29  1  0  0  0  0
 28 30  1  0  0  0  0
 30 31  1  0  0  0  0
 30 32  1  0  0  0  0
 30 33  1  0  0  0  0
M  END
$$$$

  -OEChem-01062216083D

 33 32  0     1  0  0  0  0  0999 V2000
   -3.6611   -2.3771    1.1888 H   0  0  0  0  0  0  0  0  0  0  0  0
   -3.6103   -1.4180    0.6659 C   0  0  0  0  0  0  0  0  0  0  0  0
   -4.4717   -0.8119    0.9568 H   0  0  0  0  0  0  0  0  0  0  0  0
   -3.6493   -1.6023   -0.4103 H   0  0  0  0  0  0  0  0  0  0  0  0
   -2.3242   -0.6970    1.0226 C   0  0  0  0  0  0  0  0  0  0  0  0
   -1.5823   -1.1612    1.8736 O   0  0  0  0  0  0  0  0  0  0  0  0
   -2.0378    0.5206    0.4406 N   0  0  0  0  0  0  0  0  0  0  0  0
   -2.6853    0.8240   -0.2838 H   0  0  0  0  0  0  0  0  0  0  0  0
   -0.7123    1.1635    0.4305 C   0  0  1  0  0  0  0  0  0  0  0  0
   -0.2776    1.1243    1.4348 H   0  0  0  0  0  0  0  0  0  0  0  0
    0.2837    0.5133   -0.5656 C   0  0  0  0  0  0  0  0  0  0  0  0
   -0.1739    0.4923   -1.5606 H   0  0  0  0  0  0  0  0  0  0  0  0
    1.1735    1.1491   -0.6289 H   0  0  0  0  0  0  0  0  0  0  0  0
    0.7383   -0.9077   -0.2057 C   0  0  0  0  0  0  0  0  0  0  0  0
    1.1935   -0.9110    0.7903 H   0  0  0  0  0  0  0  0  0  0  0  0
   -0.1189   -1.5843   -0.1929 H   0  0  0  0  0  0  0  0  0  0  0  0
    1.7363   -1.4296   -1.2447 C   0  0  0  0  0  0  0  0  0  0  0  0
    1.2739   -1.4180   -2.2370 H   0  0  0  0  0  0  0  0  0  0  0  0
    2.6156   -0.7777   -1.2736 H   0  0  0  0  0  0  0  0  0  0  0  0
    2.1726   -2.8512   -0.9045 C   0  0  0  0  0  0  0  0  0  0  0  0
    2.6594   -2.8693    0.0772 H   0  0  0  0  0  0  0  0  0  0  0  0
    1.2993   -3.5116   -0.8630 H   0  0  0  0  0  0  0  0  0  0  0  0
    3.1056   -3.3134   -1.9369 N   0  0  0  0  0  0  0  0  0  0  0  0
    3.4168   -4.2671   -1.7529 H   0  0  0  0  0  0  0  0  0  0  0  0
    2.6904   -3.2381   -2.8653 H   0  0  0  0  0  0  0  0  0  0  0  0
   -0.8911    2.6465    0.0378 C   0  0  0  0  0  0  0  0  0  0  0  0
   -0.9912    2.9862   -1.1349 O   0  0  0  0  0  0  0  0  0  0  0  0
   -1.1007    3.5910    1.0256 N   0  0  0  0  0  0  0  0  0  0  0  0
   -1.1009    3.2680    1.9892 H   0  0  0  0  0  0  0  0  0  0  0  0
   -1.3779    4.9953    0.7492 C   0  0  0  0  0  0  0  0  0  0  0  0
   -2.3174    5.0984    0.1963 H   0  0  0  0  0  0  0  0  0  0  0  0
   -1.4630    5.5557    1.6852 H   0  0  0  0  0  0  0  0  0  0  0  0
   -0.5692    5.4353    0.1561 H   0  0  0  0  0  0  0  0  0  0  0  0
  1  2  1  0  0  0  0
  2  3  1  0  0  0  0
  2  4  1  0  0  0  0
  2  5  1  0  0  0  0
  5  6  2  0  0  0  0
  5  7  1  0  0  0  0
  7  8  1  0  0  0  0
  7  9  1  0  0  0  0
  9 10  1  0  0  0  0
  9 11  1  0  0  0  0
  9 26  1  0  0  0  0
 11 12  1  0  0  0  0
 11 13  1  0  0  0  0
 11 14  1  0  0  0  0
 14 15  1  0  0  0  0
 14 16  1  0  0  0  0
 14 17  1  0  0  0  0
 17 18  1  0  0  0  0
 17 19  1  0  0  0  0
 17 20  1  0  0  0  0
 20 21  1  0  0  0  0
 20 22  1  0  0  0  0
 20 23  1  0  0  0  0
 23 24  1  0  0  0  0
 23 25  1  0  0  0  0
 26 27  2  0  0  0  0
 26 28  1  0  0  0  0
 28 29  1  0  0  0  0
 28 30  1  0  0  0  0
 30 31  1  0  0  0  0
 30 32  1  0  0  0  0
 30 33  1  0  0  0  0
M  END
$$$$

  -OEChem-01062216083D

 33 32  0     1  0  0  0  0  0999 V2000
   -3.6869   -2.3629    1.1797 H   0  0  0  0  0  0  0  0  0  0  0  0
   -3.6338   -1.3943    0.6751 C   0  0  0  0  0  0  0  0  0  0  0  0
   -4.4807   -0.7825    0.9949 H   0  0  0  0  0  0  0  0  0  0  0  0
   -3.6960   -1.5559   -0.4037 H   0  0  0  0  0  0  0  0  0  0  0  0
   -2.3320   -0.6968    1.0208 C   0  0  0  0  0  0  0  0  0  0  0  0
   -1.5879   -1.1765    1.8615 O   0  0  0  0  0  0  0  0  0  0  0  0
   -2.0321    0.5165    0.4375 N   0  0  0  0  0  0  0  0  0  0  0  0
   -2.6830    0.8405   -0.2756 H   0  0  0  0  0  0  0  0  0  0  0  0
   -0.7063    1.1565    0.4362 C   0  0  1  0  0  0  0  0  0  0  0  0
   -0.2784    1.1146    1.4430 H   0  0  0  0  0  0  0  0  0  0  0  0
    0.2926    0.5145   -0.5599 C   0  0  0  0  0  0  0  0  0  0  0  0
   -0.1607    0.5017   -1.5572 H   0  0  0  0  0  0  0  0  0  0  0  0
    1.1837    1.1492   -0.6136 H   0  0  0  0  0  0  0  0  0  0  0  0
    0.7423   -0.9097   -0.2061 C   0  0  0  0  0  0  0  0  0  0  0  0
    1.1916   -0.9196    0.7925 H   0  0  0  0  0  0  0  0  0  0  0  0
   -0.1171   -1.5840   -0.2014 H   0  0  0  0  0  0  0  0  0  0  0  0
    1.7451   -1.4277   -1.2428 C   0  0  0  0  0  0  0  0  0  0  0  0
    1.2887   -1.4093   -2.2378 H   0  0  0  0  0  0  0  0  0  0  0  0
    2.6261   -0.7775   -1.2626 H   0  0  0  0  0  0  0  0  0  0  0  0
    2.1769   -2.8523   -0.9091 C   0  0  0  0  0  0  0  0  0  0  0  0
    2.6587   -2.8767    0.0747 H   0  0  0  0  0  0  0  0  0  0  0  0
    1.3026   -3.5119   -0.8758 H   0  0  0  0  0  0  0  0  0  0  0  0
    3.1146   -3.3106   -1.9389 N   0  0  0  0  0  0  0  0  0  0  0  0
    3.4307   -4.2623   -1.7527 H   0  0  0  0  0  0  0  0  0  0  0  0
    2.7008   -3.2396   -2.8683 H   0  0  0  0  0  0  0  0  0  0  0  0
   -0.8778    2.6362    0.0348 C   0  0  0  0  0  0  0  0  0  0  0  0
   -1.2397    2.9346   -1.0973 O   0  0  0  0  0  0  0  0  0  0  0  0
   -0.7836    3.6273    0.9942 N   0  0  0  0  0  0  0  0  0  0  0  0
   -0.5657    3.3416    1.9447 H   0  0  0  0  0  0  0  0  0  0  0  0
   -1.0417    5.0358    0.7213 C   0  0  0  0  0  0  0  0  0  0  0  0
   -2.0754    5.1788    0.3890 H   0  0  0  0  0  0  0  0  0  0  0  0
   -0.8833    5.6322    1.6251 H   0  0  0  0  0  0  0  0  0  0  0  0
   -0.3663    5.4044   -0.0580 H   0  0  0  0  0  0  0  0  0  0  0  0
  1  2  1  0  0  0  0
  2  3  1  0  0  0  0
  2  4  1  0  0  0  0
  2  5  1  0  0  0  0
  5  6  2  0  0  0  0
  5  7  1  0  0  0  0
  7  8  1  0  0  0  0
  7  9  1  0  0  0  0
  9 10  1  0  0  0  0
  9 11  1  0  0  0  0
  9 26  1  0  0  0  0
 11 12  1  0  0  0  0
 11 13  1  0  0  0  0
 11 14  1  0  0  0  0
 14 15  1  0  0  0  0
 14 16  1  0  0  0  0
 14 17  1  0  0  0  0
 17 18  1  0  0  0  0
 17 19  1  0  0  0  0
 17 20  1  0  0  0  0
 20 21  1  0  0  0  0
 20 22  1  0  0  0  0
 20 23  1  0  0  0  0
 23 24  1  0  0  0  0
 23 25  1  0  0  0  0
 26 27  2  0  0  0  0
 26 28  1  0  0  0  0
 28 29  1  0  0  0  0
 28 30  1  0  0  0  0
 30 31  1  0  0  0  0
 30 32  1  0  0  0  0
 30 33  1  0  0  0  0
M  END
$$$$

  -OEChem-01062216083D

 33 32  0     1  0  0  0  0  0999 V2000
   -3.7227   -2.3505    1.1911 H   0  0  0  0  0  0  0  0  0  0  0  0
   -3.6610   -1.3806    0.6898 C   0  0  0  0  0  0  0  0  0  0  0  0
   -4.4946   -0.7577    1.0228 H   0  0  0  0  0  0  0  0  0  0  0  0
   -3.7396   -1.5369   -0.3887 H   0  0  0  0  0  0  0  0  0  0  0  0
   -2.3443   -0.7036    1.0206 C   0  0  0  0  0  0  0  0  0  0  0  0
   -1.5967   -1.1976    1.8500 O   0  0  0  0  0  0  0  0  0  0  0  0
   -2.0317    0.5050    0.4344 N   0  0  0  0  0  0  0  0  0  0  0  0
   -2.6897    0.8552   -0.2603 H   0  0  0  0  0  0  0  0  0  0  0  0
   -0.7075    1.1474    0.4471 C   0  0  1  0  0  0  0  0  0  0  0  0
   -0.2900    1.1077    1.4585 H   0  0  0  0  0  0  0  0  0  0  0  0
    0.2967    0.5149   -0.5479 C   0  0  0  0  0  0  0  0  0  0  0  0
   -0.1520    0.5112   -1.5473 H   0  0  0  0  0  0  0  0  0  0  0  0
    1.1882    1.1498   -0.5920 H   0  0  0  0  0  0  0  0  0  0  0  0
    0.7448   -0.9112   -0.2030 C   0  0  0  0  0  0  0  0  0  0  0  0
    1.1889   -0.9290    0.7978 H   0  0  0  0  0  0  0  0  0  0  0  0
   -0.1152   -1.5848   -0.2091 H   0  0  0  0  0  0  0  0  0  0  0  0
    1.7535   -1.4201   -1.2381 C   0  0  0  0  0  0  0  0  0  0  0  0
    1.3016   -1.3937   -2.2350 H   0  0  0  0  0  0  0  0  0  0  0  0
    2.6341   -0.7694   -1.2479 H   0  0  0  0  0  0  0  0  0  0  0  0
    2.1843   -2.8473   -0.9140 C   0  0  0  0  0  0  0  0  0  0  0  0
    2.6604   -2.8818    0.0723 H   0  0  0  0  0  0  0  0  0  0  0  0
    1.3102   -3.5075   -0.8920 H   0  0  0  0  0  0  0  0  0  0  0  0
    3.1278   -3.2949   -1.9432 N   0  0  0  0  0  0  0  0  0  0  0  0
    3.4391   -4.2501   -1.7676 H   0  0  0  0  0  0  0  0  0  0  0  0
    2.7210   -3.2102   -2.8746 H   0  0  0  0  0  0  0  0  0  0  0  0
   -0.8747    2.6232    0.0315 C   0  0  0  0  0  0  0  0  0  0  0  0
   -1.4451    2.9036   -1.0169 O   0  0  0  0  0  0  0  0  0  0  0  0
   -0.4986    3.6397    0.8899 N   0  0  0  0  0  0  0  0  0  0  0  0
   -0.0950    3.3763    1.7844 H   0  0  0  0  0  0  0  0  0  0  0  0
   -0.7008    5.0529    0.5943 C   0  0  0  0  0  0  0  0  0  0  0  0
   -1.7686    5.2755    0.4983 H   0  0  0  0  0  0  0  0  0  0  0  0
   -0.2891    5.6700    1.3986 H   0  0  0  0  0  0  0  0  0  0  0  0
   -0.1989    5.3245   -0.3404 H   0  0  0  0  0  0  0  0  0  0  0  0
  1  2  1  0  0  0  0
  2  3  1  0  0  0  0
  2  4  1  0  0  0  0
  2  5  1  0  0  0  0
  5  6  2  0  0  0  0
  5  7  1  0  0  0  0
  7  8  1  0  0  0  0
  7  9  1  0  0  0  0
  9 10  1  0  0  0  0
  9 11  1  0  0  0  0
  9 26  1  0  0  0  0
 11 12  1  0  0  0  0
 11 13  1  0  0  0  0
 11 14  1  0  0  0  0
 14 15  1  0  0  0  0
 14 16  1  0  0  0  0
 14 17  1  0  0  0  0
 17 18  1  0  0  0  0
 17 19  1  0  0  0  0
 17 20  1  0  0  0  0
 20 21  1  0  0  0  0
 20 22  1  0  0  0  0
 20 23  1  0  0  0  0
 23 24  1  0  0  0  0
 23 25  1  0  0  0  0
 26 27  2  0  0  0  0
 26 28  1  0  0  0  0
 28 29  1  0  0  0  0
 28 30  1  0  0  0  0
 30 31  1  0  0  0  0
 30 32  1  0  0  0  0
 30 33  1  0  0  0  0
M  END
$$$$

  -OEChem-01062216083D

 33 32  0     1  0  0  0  0  0999 V2000
   -3.7418   -2.3431    1.1925 H   0  0  0  0  0  0  0  0  0  0  0  0
   -3.6811   -1.3668    0.7037 C   0  0  0  0  0  0  0  0  0  0  0  0
   -4.5004   -0.7397    1.0638 H   0  0  0  0  0  0  0  0  0  0  0  0
   -3.7847   -1.5068   -0.3751 H   0  0  0  0  0  0  0  0  0  0  0  0
   -2.3504   -0.7083    1.0147 C   0  0  0  0  0  0  0  0  0  0  0  0
   -1.5961   -1.2145    1.8307 O   0  0  0  0  0  0  0  0  0  0  0  0
   -2.0324    0.4972    0.4259 N   0  0  0  0  0  0  0  0  0  0  0  0
   -2.7061    0.8746   -0.2395 H   0  0  0  0  0  0  0  0  0  0  0  0
   -0.7117    1.1464    0.4400 C   0  0  1  0  0  0  0  0  0  0  0  0
   -0.2991    1.1120    1.4536 H   0  0  0  0  0  0  0  0  0  0  0  0
    0.2947    0.5177   -0.5540 C   0  0  0  0  0  0  0  0  0  0  0  0
   -0.1552    0.5124   -1.5530 H   0  0  0  0  0  0  0  0  0  0  0  0
    1.1846    1.1549   -0.5993 H   0  0  0  0  0  0  0  0  0  0  0  0
    0.7480   -0.9065   -0.2072 C   0  0  0  0  0  0  0  0  0  0  0  0
    1.1911   -0.9215    0.7942 H   0  0  0  0  0  0  0  0  0  0  0  0
   -0.1097   -1.5828   -0.2127 H   0  0  0  0  0  0  0  0  0  0  0  0
    1.7592   -1.4155   -1.2400 C   0  0  0  0  0  0  0  0  0  0  0  0
    1.3083   -1.3933   -2.2375 H   0  0  0  0  0  0  0  0  0  0  0  0
    2.6383   -0.7628   -1.2509 H   0  0  0  0  0  0  0  0  0  0  0  0
    2.1932   -2.8408   -0.9109 C   0  0  0  0  0  0  0  0  0  0  0  0
    2.6686   -2.8703    0.0759 H   0  0  0  0  0  0  0  0  0  0  0  0
    1.3206   -3.5033   -0.8870 H   0  0  0  0  0  0  0  0  0  0  0  0
    3.1388   -3.2889   -1.9379 N   0  0  0  0  0  0  0  0  0  0  0  0
    3.4606   -4.2391   -1.7532 H   0  0  0  0  0  0  0  0  0  0  0  0
    2.7278   -3.2183   -2.8685 H   0  0  0  0  0  0  0  0  0  0  0  0
   -0.8769    2.6200    0.0154 C   0  0  0  0  0  0  0  0  0  0  0  0
   -1.6367    2.9125   -0.9019 O   0  0  0  0  0  0  0  0  0  0  0  0
   -0.2369    3.6263    0.7149 N   0  0  0  0  0  0  0  0  0  0  0  0
    0.3462    3.3567    1.5021 H   0  0  0  0  0  0  0  0  0  0  0  0
   -0.3997    5.0421    0.4088 C   0  0  0  0  0  0  0  0  0  0  0  0
   -1.4461    5.3418    0.5289 H   0  0  0  0  0  0  0  0  0  0  0  0
    0.2136    5.6479    1.0829 H   0  0  0  0  0  0  0  0  0  0  0  0
   -0.0897    5.2496   -0.6209 H   0  0  0  0  0  0  0  0  0  0  0  0
  1  2  1  0  0  0  0
  2  3  1  0  0  0  0
  2  4  1  0  0  0  0
  2  5  1  0  0  0  0
  5  6  2  0  0  0  0
  5  7  1  0  0  0  0
  7  8  1  0  0  0  0
  7  9  1  0  0  0  0
  9 10  1  0  0  0  0
  9 11  1  0  0  0  0
  9 26  1  0  0  0  0
 11 12  1  0  0  0  0
 11 13  1  0  0  0  0
 11 14  1  0  0  0  0
 14 15  1  0  0  0  0
 14 16  1  0  0  0  0
 14 17  1  0  0  0  0
 17 18  1  0  0  0  0
 17 19  1  0  0  0  0
 17 20  1  0  0  0  0
 20 21  1  0  0  0  0
 20 22  1  0  0  0  0
 20 23  1  0  0  0  0
 23 24  1  0  0  0  0
 23 25  1  0  0  0  0
 26 27  2  0  0  0  0
 26 28  1  0  0  0  0
 28 29  1  0  0  0  0
 28 30  1  0  0  0  0
 30 31  1  0  0  0  0
 30 32  1  0  0  0  0
 30 33  1  0  0  0  0
M  END
$$$$

  -OEChem-01062216083D

 33 32  0     1  0  0  0  0  0999 V2000
   -3.7815   -2.3277    1.2211 H   0  0  0  0  0  0  0  0  0  0  0  0
   -3.7097   -1.3571    0.7222 C   0  0  0  0  0  0  0  0  0  0  0  0
   -4.5122   -0.7118    1.0879 H   0  0  0  0  0  0  0  0  0  0  0  0
   -3.8312   -1.5044   -0.3537 H   0  0  0  0  0  0  0  0  0  0  0  0
   -2.3631   -0.7200    1.0080 C   0  0  0  0  0  0  0  0  0  0  0  0
   -1.6015   -1.2401    1.8083 O   0  0  0  0  0  0  0  0  0  0  0  0
   -2.0406    0.4841    0.4187 N   0  0  0  0  0  0  0  0  0  0  0  0
   -2.7345    0.8947   -0.2058 H   0  0  0  0  0  0  0  0  0  0  0  0
   -0.7243    1.1429    0.4392 C   0  0  1  0  0  0  0  0  0  0  0  0
   -0.3173    1.1142    1.4552 H   0  0  0  0  0  0  0  0  0  0  0  0
    0.2882    0.5188   -0.5526 C   0  0  0  0  0  0  0  0  0  0  0  0
   -0.1606    0.5121   -1.5521 H   0  0  0  0  0  0  0  0  0  0  0  0
    1.1759    1.1587   -0.5967 H   0  0  0  0  0  0  0  0  0  0  0  0
    0.7492   -0.9029   -0.2068 C   0  0  0  0  0  0  0  0  0  0  0  0
    1.1902   -0.9174    0.7956 H   0  0  0  0  0  0  0  0  0  0  0  0
   -0.1046   -1.5842   -0.2161 H   0  0  0  0  0  0  0  0  0  0  0  0
    1.7654   -1.4032   -1.2390 C   0  0  0  0  0  0  0  0  0  0  0  0
    1.3161   -1.3818   -2.2371 H   0  0  0  0  0  0  0  0  0  0  0  0
    2.6402   -0.7449   -1.2472 H   0  0  0  0  0  0  0  0  0  0  0  0
    2.2086   -2.8262   -0.9128 C   0  0  0  0  0  0  0  0  0  0  0  0
    2.6830   -2.8549    0.0747 H   0  0  0  0  0  0  0  0  0  0  0  0
    1.3407   -3.4948   -0.8920 H   0  0  0  0  0  0  0  0  0  0  0  0
    3.1589   -3.2649   -1.9397 N   0  0  0  0  0  0  0  0  0  0  0  0
    3.4902   -4.2116   -1.7544 H   0  0  0  0  0  0  0  0  0  0  0  0
    2.7472   -3.1993   -2.8705 H   0  0  0  0  0  0  0  0  0  0  0  0
   -0.8881    2.6159    0.0068 C   0  0  0  0  0  0  0  0  0  0  0  0
   -1.7955    2.9396   -0.7531 O   0  0  0  0  0  0  0  0  0  0  0  0
   -0.0329    3.5866    0.4952 N   0  0  0  0  0  0  0  0  0  0  0  0
    0.6958    3.2929    1.1395 H   0  0  0  0  0  0  0  0  0  0  0  0
   -0.1382    4.9972    0.1430 C   0  0  0  0  0  0  0  0  0  0  0  0
   -1.0989    5.4040    0.4756 H   0  0  0  0  0  0  0  0  0  0  0  0
    0.6638    5.5671    0.6217 H   0  0  0  0  0  0  0  0  0  0  0  0
   -0.0557    5.1288   -0.9411 H   0  0  0  0  0  0  0  0  0  0  0  0
  1  2  1  0  0  0  0
  2  3  1  0  0  0  0
  2  4  1  0  0  0  0
  2  5  1  0  0  0  0
  5  6  2  0  0  0  0
  5  7  1  0  0  0  0
  7  8  1  0  0  0  0
  7  9  1  0  0  0  0
  9 10  1  0  0  0  0
  9 11  1  0  0  0  0
  9 26  1  0  0  0  0
 11 12  1  0  0  0  0
 11 13  1  0  0  0  0
 11 14  1  0  0  0  0
 14 15  1  0  0  0  0
 14 16  1  0  0  0  0
 14 17  1  0  0  0  0
 17 18  1  0  0  0  0
 17 19  1  0  0  0  0
 17 20  1  0  0  0  0
 20 21  1  0  0  0  0
 20 22  1  0  0  0  0
 20 23  1  0  0  0  0
 23 24  1  0  0  0  0
 23 25  1  0  0  0  0
 26 27  2  0  0  0  0
 26 28  1  0  0  0  0
 28 29  1  0  0  0  0
 28 30  1  0  0  0  0
 30 31  1  0  0  0  0
 30 32  1  0  0  0  0
 30 33  1  0  0  0  0
M  END
$$$$

  -OEChem-01062216083D

 33 32  0     1  0  0  0  0  0999 V2000
   -3.7947   -2.3181    1.2245 H   0  0  0  0  0  0  0  0  0  0  0  0
   -3.7226   -1.3434    0.7340 C   0  0  0  0  0  0  0  0  0  0  0  0
   -4.5083   -0.6923    1.1249 H   0  0  0  0  0  0  0  0  0  0  0  0
   -3.8716   -1.4784   -0.3400 H   0  0  0  0  0  0  0  0  0  0  0  0
   -2.3618   -0.7261    0.9957 C   0  0  0  0  0  0  0  0  0  0  0  0
   -1.5944   -1.2592    1.7819 O   0  0  0  0  0  0  0  0  0  0  0  0
   -2.0360    0.4779    0.4078 N   0  0  0  0  0  0  0  0  0  0  0  0
   -2.7504    0.9232   -0.1683 H   0  0  0  0  0  0  0  0  0  0  0  0
   -0.7235    1.1456    0.4365 C   0  0  1  0  0  0  0  0  0  0  0  0
   -0.3199    1.1234    1.4542 H   0  0  0  0  0  0  0  0  0  0  0  0
    0.2909    0.5183   -0.5540 C   0  0  0  0  0  0  0  0  0  0  0  0
   -0.1580    0.5100   -1.5532 H   0  0  0  0  0  0  0  0  0  0  0  0
    1.1805    1.1551   -0.6001 H   0  0  0  0  0  0  0  0  0  0  0  0
    0.7547   -0.9025   -0.2086 C   0  0  0  0  0  0  0  0  0  0  0  0
    1.1940   -0.9168    0.7944 H   0  0  0  0  0  0  0  0  0  0  0  0
   -0.0970   -1.5864   -0.2211 H   0  0  0  0  0  0  0  0  0  0  0  0
    1.7715   -1.4010   -1.2412 C   0  0  0  0  0  0  0  0  0  0  0  0
    1.3224   -1.3805   -2.2392 H   0  0  0  0  0  0  0  0  0  0  0  0
    2.6455   -0.7413   -1.2496 H   0  0  0  0  0  0  0  0  0  0  0  0
    2.2165   -2.8233   -0.9143 C   0  0  0  0  0  0  0  0  0  0  0  0
    2.6904   -2.8505    0.0734 H   0  0  0  0  0  0  0  0  0  0  0  0
    1.3493   -3.4929   -0.8934 H   0  0  0  0  0  0  0  0  0  0  0  0
    3.1674   -3.2628   -1.9403 N   0  0  0  0  0  0  0  0  0  0  0  0
    3.5031   -4.2072   -1.7507 H   0  0  0  0  0  0  0  0  0  0  0  0
    2.7539   -3.2042   -2.8708 H   0  0  0  0  0  0  0  0  0  0  0  0
   -0.8918    2.6195   -0.0017 C   0  0  0  0  0  0  0  0  0  0  0  0
   -1.9156    2.9846   -0.5717 O   0  0  0  0  0  0  0  0  0  0  0  0
    0.1136    3.5408    0.2307 N   0  0  0  0  0  0  0  0  0  0  0  0
    0.9495    3.2159    0.7080 H   0  0  0  0  0  0  0  0  0  0  0  0
    0.0242    4.9420   -0.1620 C   0  0  0  0  0  0  0  0  0  0  0  0
   -0.8063    5.4326    0.3563 H   0  0  0  0  0  0  0  0  0  0  0  0
    0.9499    5.4664    0.0936 H   0  0  0  0  0  0  0  0  0  0  0  0
   -0.1337    5.0283   -1.2423 H   0  0  0  0  0  0  0  0  0  0  0  0
  1  2  1  0  0  0  0
  2  3  1  0  0  0  0
  2  4  1  0  0  0  0
  2  5  1  0  0  0  0
  5  6  2  0  0  0  0
  5  7  1  0  0  0  0
  7  8  1  0  0  0  0
  7  9  1  0  0  0  0
  9 10  1  0  0  0  0
  9 11  1  0  0  0  0
  9 26  1  0  0  0  0
 11 12  1  0  0  0  0
 11 13  1  0  0  0  0
 11 14  1  0  0  0  0
 14 15  1  0  0  0  0
 14 16  1  0  0  0  0
 14 17  1  0  0  0  0
 17 18  1  0  0  0  0
 17 19  1  0  0  0  0
 17 20  1  0  0  0  0
 20 21  1  0  0  0  0
 20 22  1  0  0  0  0
 20 23  1  0  0  0  0
 23 24  1  0  0  0  0
 23 25  1  0  0  0  0
 26 27  2  0  0  0  0
 26 28  1  0  0  0  0
 28 29  1  0  0  0  0
 28 30  1  0  0  0  0
 30 31  1  0  0  0  0
 30 32  1  0  0  0  0
 30 33  1  0  0  0  0
M  END
$$$$

  -OEChem-01062216083D

 33 32  0     1  0  0  0  0  0999 V2000
   -3.7190   -2.3119    1.2843 H   0  0  0  0  0  0  0  0  0  0  0  0
   -3.6779   -1.3317    0.8012 C   0  0  0  0  0  0  0  0  0  0  0  0
   -4.3620   -0.6543    1.3182 H   0  0  0  0  0  0  0  0  0  0  0  0
   -3.9968   -1.4372   -0.2387 H   0  0  0  0  0  0  0  0  0  0  0  0
   -2.2655   -0.7813    0.8551 C   0  0  0  0  0  0  0  0  0  0  0  0
   -1.3891   -1.4124    1.4254 O   0  0  0  0  0  0  0  0  0  0  0  0
   -1.9947    0.4495    0.2942 N   0  0  0  0  0  0  0  0  0  0  0  0
   -2.7936    1.0069   -0.0080 H   0  0  0  0  0  0  0  0  0  0  0  0
   -0.6987    1.1461    0.3409 C   0  0  1  0  0  0  0  0  0  0  0  0
   -0.1682    0.8951    1.2657 H   0  0  0  0  0  0  0  0  0  0  0  0
    0.1694    0.7661   -0.8830 C   0  0  0  0  0  0  0  0  0  0  0  0
   -0.4032    0.9574   -1.7970 H   0  0  0  0  0  0  0  0  0  0  0  0
    1.0568    1.4059   -0.9113 H   0  0  0  0  0  0  0  0  0  0  0  0
    0.6440   -0.6931   -0.8803 C   0  0  0  0  0  0  0  0  0  0  0  0
    1.2082   -0.8972    0.0360 H   0  0  0  0  0  0  0  0  0  0  0  0
   -0.2182   -1.3648   -0.9058 H   0  0  0  0  0  0  0  0  0  0  0  0
    1.5158   -0.9785   -2.1078 C   0  0  0  0  0  0  0  0  0  0  0  0
    0.9475   -0.7672   -3.0194 H   0  0  0  0  0  0  0  0  0  0  0  0
    2.3957   -0.3267   -2.0982 H   0  0  0  0  0  0  0  0  0  0  0  0
    1.9680   -2.4355   -2.1187 C   0  0  0  0  0  0  0  0  0  0  0  0
    2.5591   -2.6509   -1.2215 H   0  0  0  0  0  0  0  0  0  0  0  0
    1.0962   -3.0996   -2.1187 H   0  0  0  0  0  0  0  0  0  0  0  0
    2.7766   -2.6642   -3.3203 N   0  0  0  0  0  0  0  0  0  0  0  0
    3.1111   -3.6271   -3.3612 H   0  0  0  0  0  0  0  0  0  0  0  0
    2.2547   -2.4248   -4.1631 H   0  0  0  0  0  0  0  0  0  0  0  0
   -0.9270    2.6775    0.3225 C   0  0  0  0  0  0  0  0  0  0  0  0
   -2.0635    3.1327    0.2346 O   0  0  0  0  0  0  0  0  0  0  0  0
    0.1413    3.5564    0.3609 N   0  0  0  0  0  0  0  0  0  0  0  0
    1.0738    3.1610    0.4401 H   0  0  0  0  0  0  0  0  0  0  0  0
   -0.0108    5.0063    0.3308 C   0  0  0  0  0  0  0  0  0  0  0  0
   -0.5874    5.3486    1.1966 H   0  0  0  0  0  0  0  0  0  0  0  0
    0.9701    5.4905    0.3553 H   0  0  0  0  0  0  0  0  0  0  0  0
   -0.5271    5.3187   -0.5830 H   0  0  0  0  0  0  0  0  0  0  0  0
  1  2  1  0  0  0  0
  2  3  1  0  0  0  0
  2  4  1  0  0  0  0
  2  5  1  0  0  0  0
  5  6  2  0  0  0  0
  5  7  1  0  0  0  0
  7  8  1  0  0  0  0
  7  9  1  0  0  0  0
  9 10  1  0  0  0  0
  9 11  1  0  0  0  0
  9 26  1  0  0  0  0
 11 12  1  0  0  0  0
 11 13  1  0  0  0  0
 11 14  1  0  0  0  0
 14 15  1  0  0  0  0
 14 16  1  0  0  0  0
 14 17  1  0  0  0  0
 17 18  1  0  0  0  0
 17 19  1  0  0  0  0
 17 20  1  0  0  0  0
 20 21  1  0  0  0  0
 20 22  1  0  0  0  0
 20 23  1  0  0  0  0
 23 24  1  0  0  0  0
 23 25  1  0  0  0  0
 26 27  2  0  0  0  0
 26 28  1  0  0  0  0
 28 29  1  0  0  0  0
 28 30  1  0  0  0  0
 30 31  1  0  0  0  0
 30 32  1  0  0  0  0
 30 33  1  0  0  0  0
M  END
$$$$

  -OEChem-01062216083D

 33 32  0     1  0  0  0  0  0999 V2000
   -3.7276   -2.2868    1.3010 H   0  0  0  0  0  0  0  0  0  0  0  0
   -3.6817   -1.3085    0.8144 C   0  0  0  0  0  0  0  0  0  0  0  0
   -4.3431   -0.6194    1.3453 H   0  0  0  0  0  0  0  0  0  0  0  0
   -4.0267   -1.4114   -0.2173 H   0  0  0  0  0  0  0  0  0  0  0  0
   -2.2599   -0.7798    0.8347 C   0  0  0  0  0  0  0  0  0  0  0  0
   -1.3809   -1.4266    1.3830 O   0  0  0  0  0  0  0  0  0  0  0  0
   -1.9878    0.4535    0.2791 N   0  0  0  0  0  0  0  0  0  0  0  0
   -2.7927    1.0314    0.0384 H   0  0  0  0  0  0  0  0  0  0  0  0
   -0.6892    1.1466    0.3311 C   0  0  1  0  0  0  0  0  0  0  0  0
   -0.1612    0.8956    1.2571 H   0  0  0  0  0  0  0  0  0  0  0  0
    0.1819    0.7576   -0.8915 C   0  0  0  0  0  0  0  0  0  0  0  0
   -0.3861    0.9524   -1.8077 H   0  0  0  0  0  0  0  0  0  0  0  0
    1.0767    1.3861   -0.9173 H   0  0  0  0  0  0  0  0  0  0  0  0
    0.6521   -0.7029   -0.8883 C   0  0  0  0  0  0  0  0  0  0  0  0
    1.2130   -0.9092    0.0296 H   0  0  0  0  0  0  0  0  0  0  0  0
   -0.2119   -1.3719   -0.9179 H   0  0  0  0  0  0  0  0  0  0  0  0
    1.5254   -0.9911   -2.1141 C   0  0  0  0  0  0  0  0  0  0  0  0
    0.9597   -0.7779   -3.0269 H   0  0  0  0  0  0  0  0  0  0  0  0
    2.4074   -0.3424   -2.1027 H   0  0  0  0  0  0  0  0  0  0  0  0
    1.9724   -2.4497   -2.1229 C   0  0  0  0  0  0  0  0  0  0  0  0
    2.5611   -2.6667   -1.2245 H   0  0  0  0  0  0  0  0  0  0  0  0
    1.0987   -3.1108   -2.1239 H   0  0  0  0  0  0  0  0  0  0  0  0
    2.7825   -2.6820   -3.3227 N   0  0  0  0  0  0  0  0  0  0  0  0
    3.1163   -3.6452   -3.3607 H   0  0  0  0  0  0  0  0  0  0  0  0
    2.2617   -2.4446   -4.1667 H   0  0  0  0  0  0  0  0  0  0  0  0
   -0.9272    2.6796    0.3197 C   0  0  0  0  0  0  0  0  0  0  0  0
   -2.0600    3.1245    0.4776 O   0  0  0  0  0  0  0  0  0  0  0  0
    0.0970    3.5737    0.0578 N   0  0  0  0  0  0  0  0  0  0  0  0
    1.0297    3.1945   -0.0758 H   0  0  0  0  0  0  0  0  0  0  0  0
   -0.0909    5.0187   -0.0009 C   0  0  0  0  0  0  0  0  0  0  0  0
   -0.4489    5.3980    0.9620 H   0  0  0  0  0  0  0  0  0  0  0  0
    0.8557    5.5140   -0.2374 H   0  0  0  0  0  0  0  0  0  0  0  0
   -0.8197    5.2794   -0.7757 H   0  0  0  0  0  0  0  0  0  0  0  0
  1  2  1  0  0  0  0
  2  3  1  0  0  0  0
  2  4  1  0  0  0  0
  2  5  1  0  0  0  0
  5  6  2  0  0  0  0
  5  7  1  0  0  0  0
  7  8  1  0  0  0  0
  7  9  1  0  0  0  0
  9 10  1  0  0  0  0
  9 11  1  0  0  0  0
  9 26  1  0  0  0  0
 11 12  1  0  0  0  0
 11 13  1  0  0  0  0
 11 14  1  0  0  0  0
 14 15  1  0  0  0  0
 14 16  1  0  0  0  0
 14 17  1  0  0  0  0
 17 18  1  0  0  0  0
 17 19  1  0  0  0  0
 17 20  1  0  0  0  0
 20 21  1  0  0  0  0
 20 22  1  0  0  0  0
 20 23  1  0  0  0  0
 23 24  1  0  0  0  0
 23 25  1  0  0  0  0
 26 27  2  0  0  0  0
 26 28  1  0  0  0  0
 28 29  1  0  0  0  0
 28 30  1  0  0  0  0
 30 31  1  0  0  0  0
 30 32  1  0  0  0  0
 30 33  1  0  0  0  0
M  END
$$$$

  -OEChem-01062216083D

 33 32  0     1  0  0  0  0  0999 V2000
   -3.7341   -2.2595    1.3197 H   0  0  0  0  0  0  0  0  0  0  0  0
   -3.6854   -1.2833    0.8292 C   0  0  0  0  0  0  0  0  0  0  0  0
   -4.3267   -0.5845    1.3720 H   0  0  0  0  0  0  0  0  0  0  0  0
   -4.0525   -1.3842   -0.1950 H   0  0  0  0  0  0  0  0  0  0  0  0
   -2.2568   -0.7734    0.8180 C   0  0  0  0  0  0  0  0  0  0  0  0
   -1.3750   -1.4359    1.3422 O   0  0  0  0  0  0  0  0  0  0  0  0
   -1.9844    0.4617    0.2657 N   0  0  0  0  0  0  0  0  0  0  0  0
   -2.7918    1.0540    0.0756 H   0  0  0  0  0  0  0  0  0  0  0  0
   -0.6807    1.1463    0.3154 C   0  0  1  0  0  0  0  0  0  0  0  0
   -0.1535    0.8949    1.2419 H   0  0  0  0  0  0  0  0  0  0  0  0
    0.1946    0.7495   -0.9034 C   0  0  0  0  0  0  0  0  0  0  0  0
   -0.3652    0.9484   -1.8235 H   0  0  0  0  0  0  0  0  0  0  0  0
    1.0961    1.3688   -0.9202 H   0  0  0  0  0  0  0  0  0  0  0  0
    0.6598   -0.7125   -0.8981 C   0  0  0  0  0  0  0  0  0  0  0  0
    1.2147   -0.9218    0.0227 H   0  0  0  0  0  0  0  0  0  0  0  0
   -0.2068   -1.3776   -0.9338 H   0  0  0  0  0  0  0  0  0  0  0  0
    1.5369   -1.0052   -2.1202 C   0  0  0  0  0  0  0  0  0  0  0  0
    0.9762   -0.7906   -3.0357 H   0  0  0  0  0  0  0  0  0  0  0  0
    2.4215   -0.3603   -2.1058 H   0  0  0  0  0  0  0  0  0  0  0  0
    1.9778   -2.4657   -2.1251 C   0  0  0  0  0  0  0  0  0  0  0  0
    2.5617   -2.6836   -1.2237 H   0  0  0  0  0  0  0  0  0  0  0  0
    1.1013   -3.1234   -2.1285 H   0  0  0  0  0  0  0  0  0  0  0  0
    2.7921   -2.7035   -3.3213 N   0  0  0  0  0  0  0  0  0  0  0  0
    3.1256   -3.6671   -3.3536 H   0  0  0  0  0  0  0  0  0  0  0  0
    2.2747   -2.4697   -4.1684 H   0  0  0  0  0  0  0  0  0  0  0  0
   -0.9267    2.6802    0.3129 C   0  0  0  0  0  0  0  0  0  0  0  0
   -1.9982    3.1196    0.7177 O   0  0  0  0  0  0  0  0  0  0  0  0
   -0.0243    3.5783   -0.2331 N   0  0  0  0  0  0  0  0  0  0  0  0
    0.8523    3.2077   -0.5872 H   0  0  0  0  0  0  0  0  0  0  0  0
   -0.2590    5.0160   -0.3027 C   0  0  0  0  0  0  0  0  0  0  0  0
   -0.3783    5.4337    0.7026 H   0  0  0  0  0  0  0  0  0  0  0  0
    0.5868    5.5144   -0.7859 H   0  0  0  0  0  0  0  0  0  0  0  0
   -1.1627    5.2295   -0.8832 H   0  0  0  0  0  0  0  0  0  0  0  0
  1  2  1  0  0  0  0
  2  3  1  0  0  0  0
  2  4  1  0  0  0  0
  2  5  1  0  0  0  0
  5  6  2  0  0  0  0
  5  7  1  0  0  0  0
  7  8  1  0  0  0  0
  7  9  1  0  0  0  0
  9 10  1  0  0  0  0
  9 11  1  0  0  0  0
  9 26  1  0  0  0  0
 11 12  1  0  0  0  0
 11 13  1  0  0  0  0
 11 14  1  0  0  0  0
 14 15  1  0  0  0  0
 14 16  1  0  0  0  0
 14 17  1  0  0  0  0
 17 18  1  0  0  0  0
 17 19  1  0  0  0  0
 17 20  1  0  0  0  0
 20 21  1  0  0  0  0
 20 22  1  0  0  0  0
 20 23  1  0  0  0  0
 23 24  1  0  0  0  0
 23 25  1  0  0  0  0
 26 27  2  0  0  0  0
 26 28  1  0  0  0  0
 28 29  1  0  0  0  0
 28 30  1  0  0  0  0
 30 31  1  0  0  0  0
 30 32  1  0  0  0  0
 30 33  1  0  0  0  0
M  END
$$$$

  -OEChem-01062216083D

 33 32  0     1  0  0  0  0  0999 V2000
   -3.7293   -2.2504    1.3309 H   0  0  0  0  0  0  0  0  0  0  0  0
   -3.6848   -1.2746    0.8394 C   0  0  0  0  0  0  0  0  0  0  0  0
   -4.3190   -0.5744    1.3886 H   0  0  0  0  0  0  0  0  0  0  0  0
   -4.0628   -1.3758   -0.1807 H   0  0  0  0  0  0  0  0  0  0  0  0
   -2.2556   -0.7673    0.8132 C   0  0  0  0  0  0  0  0  0  0  0  0
   -1.3700   -1.4342    1.3250 O   0  0  0  0  0  0  0  0  0  0  0  0
   -1.9880    0.4688    0.2594 N   0  0  0  0  0  0  0  0  0  0  0  0
   -2.7981    1.0614    0.0861 H   0  0  0  0  0  0  0  0  0  0  0  0
   -0.6812    1.1487    0.2996 C   0  0  1  0  0  0  0  0  0  0  0  0
   -0.1529    0.8989    1.2263 H   0  0  0  0  0  0  0  0  0  0  0  0
    0.1964    0.7464   -0.9154 C   0  0  0  0  0  0  0  0  0  0  0  0
   -0.3597    0.9416   -1.8385 H   0  0  0  0  0  0  0  0  0  0  0  0
    1.0977    1.3667   -0.9260 H   0  0  0  0  0  0  0  0  0  0  0  0
    0.6624   -0.7149   -0.9051 C   0  0  0  0  0  0  0  0  0  0  0  0
    1.2152   -0.9218    0.0176 H   0  0  0  0  0  0  0  0  0  0  0  0
   -0.2041   -1.3802   -0.9416 H   0  0  0  0  0  0  0  0  0  0  0  0
    1.5416   -1.0112   -2.1247 C   0  0  0  0  0  0  0  0  0  0  0  0
    0.9822   -0.8008   -3.0420 H   0  0  0  0  0  0  0  0  0  0  0  0
    2.4261   -0.3659   -2.1115 H   0  0  0  0  0  0  0  0  0  0  0  0
    1.9823   -2.4717   -2.1224 C   0  0  0  0  0  0  0  0  0  0  0  0
    2.5646   -2.6851   -1.2189 H   0  0  0  0  0  0  0  0  0  0  0  0
    1.1058   -3.1292   -2.1243 H   0  0  0  0  0  0  0  0  0  0  0  0
    2.7988   -2.7149   -3.3158 N   0  0  0  0  0  0  0  0  0  0  0  0
    3.1399   -3.6760   -3.3382 H   0  0  0  0  0  0  0  0  0  0  0  0
    2.2795   -2.4942   -4.1651 H   0  0  0  0  0  0  0  0  0  0  0  0
   -0.9286    2.6816    0.3021 C   0  0  0  0  0  0  0  0  0  0  0  0
   -1.8772    3.1301    0.9355 O   0  0  0  0  0  0  0  0  0  0  0  0
   -0.2123    3.5603   -0.4945 N   0  0  0  0  0  0  0  0  0  0  0  0
    0.5429    3.1774   -1.0551 H   0  0  0  0  0  0  0  0  0  0  0  0
   -0.4812    4.9923   -0.5606 C   0  0  0  0  0  0  0  0  0  0  0  0
   -0.3545    5.4518    0.4253 H   0  0  0  0  0  0  0  0  0  0  0  0
    0.2098    5.4755   -1.2580 H   0  0  0  0  0  0  0  0  0  0  0  0
   -1.5041    5.1753   -0.9061 H   0  0  0  0  0  0  0  0  0  0  0  0
  1  2  1  0  0  0  0
  2  3  1  0  0  0  0
  2  4  1  0  0  0  0
  2  5  1  0  0  0  0
  5  6  2  0  0  0  0
  5  7  1  0  0  0  0
  7  8  1  0  0  0  0
  7  9  1  0  0  0  0
  9 10  1  0  0  0  0
  9 11  1  0  0  0  0
  9 26  1  0  0  0  0
 11 12  1  0  0  0  0
 11 13  1  0  0  0  0
 11 14  1  0  0  0  0
 14 15  1  0  0  0  0
 14 16  1  0  0  0  0
 14 17  1  0  0  0  0
 17 18  1  0  0  0  0
 17 19  1  0  0  0  0
 17 20  1  0  0  0  0
 20 21  1  0  0  0  0
 20 22  1  0  0  0  0
 20 23  1  0  0  0  0
 23 24  1  0  0  0  0
 23 25  1  0  0  0  0
 26 27  2  0  0  0  0
 26 28  1  0  0  0  0
 28 29  1  0  0  0  0
 28 30  1  0  0  0  0
 30 31  1  0  0  0  0
 30 32  1  0  0  0  0
 30 33  1  0  0  0  0
M  END
$$$$

  -OEChem-01062216083D

 33 32  0     1  0  0  0  0  0999 V2000
   -3.7350   -2.2431    1.3640 H   0  0  0  0  0  0  0  0  0  0  0  0
   -3.6941   -1.2723    0.8619 C   0  0  0  0  0  0  0  0  0  0  0  0
   -4.3194   -0.5653    1.4125 H   0  0  0  0  0  0  0  0  0  0  0  0
   -4.0861   -1.3833   -0.1518 H   0  0  0  0  0  0  0  0  0  0  0  0
   -2.2639   -0.7681    0.8131 C   0  0  0  0  0  0  0  0  0  0  0  0
   -1.3739   -1.4365    1.3145 O   0  0  0  0  0  0  0  0  0  0  0  0
   -2.0013    0.4679    0.2554 N   0  0  0  0  0  0  0  0  0  0  0  0
   -2.8145    1.0525    0.0750 H   0  0  0  0  0  0  0  0  0  0  0  0
   -0.6933    1.1472    0.2859 C   0  0  1  0  0  0  0  0  0  0  0  0
   -0.1626    0.9007    1.2123 H   0  0  0  0  0  0  0  0  0  0  0  0
    0.1891    0.7454   -0.9254 C   0  0  0  0  0  0  0  0  0  0  0  0
   -0.3676    0.9292   -1.8504 H   0  0  0  0  0  0  0  0  0  0  0  0
    1.0836    1.3772   -0.9365 H   0  0  0  0  0  0  0  0  0  0  0  0
    0.6617   -0.7138   -0.9100 C   0  0  0  0  0  0  0  0  0  0  0  0
    1.2137   -0.9152    0.0143 H   0  0  0  0  0  0  0  0  0  0  0  0
   -0.2019   -1.3831   -0.9462 H   0  0  0  0  0  0  0  0  0  0  0  0
    1.5452   -1.0092   -2.1264 C   0  0  0  0  0  0  0  0  0  0  0  0
    0.9874   -0.8029   -3.0452 H   0  0  0  0  0  0  0  0  0  0  0  0
    2.4265   -0.3596   -2.1109 H   0  0  0  0  0  0  0  0  0  0  0  0
    1.9938   -2.4675   -2.1216 C   0  0  0  0  0  0  0  0  0  0  0  0
    2.5754   -2.6777   -1.2170 H   0  0  0  0  0  0  0  0  0  0  0  0
    1.1210   -3.1301   -2.1250 H   0  0  0  0  0  0  0  0  0  0  0  0
    2.8143   -2.7073   -3.3131 N   0  0  0  0  0  0  0  0  0  0  0  0
    3.1547   -3.6687   -3.3374 H   0  0  0  0  0  0  0  0  0  0  0  0
    2.2985   -2.4831   -4.1636 H   0  0  0  0  0  0  0  0  0  0  0  0
   -0.9374    2.6783    0.2888 C   0  0  0  0  0  0  0  0  0  0  0  0
   -1.7080    3.1525    1.1136 O   0  0  0  0  0  0  0  0  0  0  0  0
   -0.4578    3.5159   -0.7054 N   0  0  0  0  0  0  0  0  0  0  0  0
    0.1472    3.1074   -1.4113 H   0  0  0  0  0  0  0  0  0  0  0  0
   -0.7453    4.9445   -0.7657 C   0  0  0  0  0  0  0  0  0  0  0  0
   -0.3703    5.4491    0.1310 H   0  0  0  0  0  0  0  0  0  0  0  0
   -0.2624    5.3906   -1.6405 H   0  0  0  0  0  0  0  0  0  0  0  0
   -1.8242    5.1166   -0.8421 H   0  0  0  0  0  0  0  0  0  0  0  0
  1  2  1  0  0  0  0
  2  3  1  0  0  0  0
  2  4  1  0  0  0  0
  2  5  1  0  0  0  0
  5  6  2  0  0  0  0
  5  7  1  0  0  0  0
  7  8  1  0  0  0  0
  7  9  1  0  0  0  0
  9 10  1  0  0  0  0
  9 11  1  0  0  0  0
  9 26  1  0  0  0  0
 11 12  1  0  0  0  0
 11 13  1  0  0  0  0
 11 14  1  0  0  0  0
 14 15  1  0  0  0  0
 14 16  1  0  0  0  0
 14 17  1  0  0  0  0
 17 18  1  0  0  0  0
 17 19  1  0  0  0  0
 17 20  1  0  0  0  0
 20 21  1  0  0  0  0
 20 22  1  0  0  0  0
 20 23  1  0  0  0  0
 23 24  1  0  0  0  0
 23 25  1  0  0  0  0
 26 27  2  0  0  0  0
 26 28  1  0  0  0  0
 28 29  1  0  0  0  0
 28 30  1  0  0  0  0
 30 31  1  0  0  0  0
 30 32  1  0  0  0  0
 30 33  1  0  0  0  0
M  END
$$$$

  -OEChem-01062216083D

 33 32  0     1  0  0  0  0  0999 V2000
   -3.7299   -2.2580    1.3831 H   0  0  0  0  0  0  0  0  0  0  0  0
   -3.6968   -1.2892    0.8764 C   0  0  0  0  0  0  0  0  0  0  0  0
   -4.3288   -0.5853    1.4233 H   0  0  0  0  0  0  0  0  0  0  0  0
   -4.0867   -1.4075   -0.1372 H   0  0  0  0  0  0  0  0  0  0  0  0
   -2.2707   -0.7739    0.8266 C   0  0  0  0  0  0  0  0  0  0  0  0
   -1.3753   -1.4344    1.3284 O   0  0  0  0  0  0  0  0  0  0  0  0
   -2.0179    0.4612    0.2622 N   0  0  0  0  0  0  0  0  0  0  0  0
   -2.8355    1.0272    0.0492 H   0  0  0  0  0  0  0  0  0  0  0  0
   -0.7132    1.1467    0.2816 C   0  0  1  0  0  0  0  0  0  0  0  0
   -0.1784    0.9038    1.2069 H   0  0  0  0  0  0  0  0  0  0  0  0
    0.1695    0.7468   -0.9287 C   0  0  0  0  0  0  0  0  0  0  0  0
   -0.3916    0.9158   -1.8537 H   0  0  0  0  0  0  0  0  0  0  0  0
    1.0539    1.3930   -0.9462 H   0  0  0  0  0  0  0  0  0  0  0  0
    0.6539   -0.7081   -0.9084 C   0  0  0  0  0  0  0  0  0  0  0  0
    1.2103   -0.9010    0.0151 H   0  0  0  0  0  0  0  0  0  0  0  0
   -0.2036   -1.3855   -0.9388 H   0  0  0  0  0  0  0  0  0  0  0  0
    1.5372   -0.9980   -2.1266 C   0  0  0  0  0  0  0  0  0  0  0  0
    0.9753   -0.7987   -3.0446 H   0  0  0  0  0  0  0  0  0  0  0  0
    2.4120   -0.3396   -2.1149 H   0  0  0  0  0  0  0  0  0  0  0  0
    2.0002   -2.4518   -2.1206 C   0  0  0  0  0  0  0  0  0  0  0  0
    2.5865   -2.6540   -1.2172 H   0  0  0  0  0  0  0  0  0  0  0  0
    1.1342   -3.1231   -2.1202 H   0  0  0  0  0  0  0  0  0  0  0  0
    2.8196   -2.6851   -3.3142 N   0  0  0  0  0  0  0  0  0  0  0  0
    3.1738   -3.6415   -3.3363 H   0  0  0  0  0  0  0  0  0  0  0  0
    2.2981   -2.4710   -4.1637 H   0  0  0  0  0  0  0  0  0  0  0  0
   -0.9510    2.6761    0.2801 C   0  0  0  0  0  0  0  0  0  0  0  0
   -1.4852    3.1960    1.2499 O   0  0  0  0  0  0  0  0  0  0  0  0
   -0.7475    3.4542   -0.8479 N   0  0  0  0  0  0  0  0  0  0  0  0
   -0.3284    3.0048   -1.6565 H   0  0  0  0  0  0  0  0  0  0  0  0
   -1.0282    4.8842   -0.9026 C   0  0  0  0  0  0  0  0  0  0  0  0
   -0.4274    5.4216   -0.1612 H   0  0  0  0  0  0  0  0  0  0  0  0
   -0.7870    5.2788   -1.8943 H   0  0  0  0  0  0  0  0  0  0  0  0
   -2.0879    5.0756   -0.7034 H   0  0  0  0  0  0  0  0  0  0  0  0
  1  2  1  0  0  0  0
  2  3  1  0  0  0  0
  2  4  1  0  0  0  0
  2  5  1  0  0  0  0
  5  6  2  0  0  0  0
  5  7  1  0  0  0  0
  7  8  1  0  0  0  0
  7  9  1  0  0  0  0
  9 10  1  0  0  0  0
  9 11  1  0  0  0  0
  9 26  1  0  0  0  0
 11 12  1  0  0  0  0
 11 13  1  0  0  0  0
 11 14  1  0  0  0  0
 14 15  1  0  0  0  0
 14 16  1  0  0  0  0
 14 17  1  0  0  0  0
 17 18  1  0  0  0  0
 17 19  1  0  0  0  0
 17 20  1  0  0  0  0
 20 21  1  0  0  0  0
 20 22  1  0  0  0  0
 20 23  1  0  0  0  0
 23 24  1  0  0  0  0
 23 25  1  0  0  0  0
 26 27  2  0  0  0  0
 26 28  1  0  0  0  0
 28 29  1  0  0  0  0
 28 30  1  0  0  0  0
 30 31  1  0  0  0  0
 30 32  1  0  0  0  0
 30 33  1  0  0  0  0
M  END
$$$$

  -OEChem-01062216083D

 33 32  0     1  0  0  0  0  0999 V2000
   -3.6986   -2.3042    1.3656 H   0  0  0  0  0  0  0  0  0  0  0  0
   -3.6790   -1.3316    0.8655 C   0  0  0  0  0  0  0  0  0  0  0  0
   -4.3425   -0.6484    1.4014 H   0  0  0  0  0  0  0  0  0  0  0  0
   -4.0413   -1.4548   -0.1578 H   0  0  0  0  0  0  0  0  0  0  0  0
   -2.2661   -0.7787    0.8521 C   0  0  0  0  0  0  0  0  0  0  0  0
   -1.3662   -1.4170    1.3733 O   0  0  0  0  0  0  0  0  0  0  0  0
   -2.0271    0.4564    0.2809 N   0  0  0  0  0  0  0  0  0  0  0  0
   -2.8479    0.9921    0.0117 H   0  0  0  0  0  0  0  0  0  0  0  0
   -0.7277    1.1531    0.2873 C   0  0  1  0  0  0  0  0  0  0  0  0
   -0.1829    0.9147    1.2082 H   0  0  0  0  0  0  0  0  0  0  0  0
    0.1477    0.7586   -0.9285 C   0  0  0  0  0  0  0  0  0  0  0  0
   -0.4215    0.9165   -1.8502 H   0  0  0  0  0  0  0  0  0  0  0  0
    1.0235    1.4162   -0.9568 H   0  0  0  0  0  0  0  0  0  0  0  0
    0.6428   -0.6931   -0.9040 C   0  0  0  0  0  0  0  0  0  0  0  0
    1.2089   -0.8761    0.0157 H   0  0  0  0  0  0  0  0  0  0  0  0
   -0.2103   -1.3764   -0.9217 H   0  0  0  0  0  0  0  0  0  0  0  0
    1.5192   -0.9854   -2.1266 C   0  0  0  0  0  0  0  0  0  0  0  0
    0.9493   -0.7956   -3.0418 H   0  0  0  0  0  0  0  0  0  0  0  0
    2.3899   -0.3215   -2.1250 H   0  0  0  0  0  0  0  0  0  0  0  0
    1.9910   -2.4365   -2.1137 C   0  0  0  0  0  0  0  0  0  0  0  0
    2.5846   -2.6289   -1.2130 H   0  0  0  0  0  0  0  0  0  0  0  0
    1.1286   -3.1124   -2.1025 H   0  0  0  0  0  0  0  0  0  0  0  0
    2.8037   -2.6756   -3.3106 N   0  0  0  0  0  0  0  0  0  0  0  0
    3.1631   -3.6302   -3.3261 H   0  0  0  0  0  0  0  0  0  0  0  0
    2.2757   -2.4723   -4.1587 H   0  0  0  0  0  0  0  0  0  0  0  0
   -0.9634    2.6805    0.2812 C   0  0  0  0  0  0  0  0  0  0  0  0
   -1.2054    3.2573    1.3315 O   0  0  0  0  0  0  0  0  0  0  0  0
   -1.0657    3.3939   -0.9015 N   0  0  0  0  0  0  0  0  0  0  0  0
   -0.8581    2.9002   -1.7643 H   0  0  0  0  0  0  0  0  0  0  0  0
   -1.3318    4.8266   -0.9551 C   0  0  0  0  0  0  0  0  0  0  0  0
   -0.5519    5.3812   -0.4227 H   0  0  0  0  0  0  0  0  0  0  0  0
   -1.3515    5.1690   -1.9941 H   0  0  0  0  0  0  0  0  0  0  0  0
   -2.3005    5.0541   -0.4980 H   0  0  0  0  0  0  0  0  0  0  0  0
  1  2  1  0  0  0  0
  2  3  1  0  0  0  0
  2  4  1  0  0  0  0
  2  5  1  0  0  0  0
  5  6  2  0  0  0  0
  5  7  1  0  0  0  0
  7  8  1  0  0  0  0
  7  9  1  0  0  0  0
  9 10  1  0  0  0  0
  9 11  1  0  0  0  0
  9 26  1  0  0  0  0
 11 12  1  0  0  0  0
 11 13  1  0  0  0  0
 11 14  1  0  0  0  0
 14 15  1  0  0  0  0
 14 16  1  0  0  0  0
 14 17  1  0  0  0  0
 17 18  1  0  0  0  0
 17 19  1  0  0  0  0
 17 20  1  0  0  0  0
 20 21  1  0  0  0  0
 20 22  1  0  0  0  0
 20 23  1  0  0  0  0
 23 24  1  0  0  0  0
 23 25  1  0  0  0  0
 26 27  2  0  0  0  0
 26 28  1  0  0  0  0
 28 29  1  0  0  0  0
 28 30  1  0  0  0  0
 30 31  1  0  0  0  0
 30 32  1  0  0  0  0
 30 33  1  0  0  0  0
M  END
$$$$

  -OEChem-01062216083D

 33 32  0     1  0  0  0  0  0999 V2000
   -3.6920   -2.3316    1.3709 H   0  0  0  0  0  0  0  0  0  0  0  0
   -3.6775   -1.3590    0.8706 C   0  0  0  0  0  0  0  0  0  0  0  0
   -4.3527   -0.6821    1.3999 H   0  0  0  0  0  0  0  0  0  0  0  0
   -4.0288   -1.4866   -0.1560 H   0  0  0  0  0  0  0  0  0  0  0  0
   -2.2702   -0.7919    0.8708 C   0  0  0  0  0  0  0  0  0  0  0  0
   -1.3683   -1.4209    1.3992 O   0  0  0  0  0  0  0  0  0  0  0  0
   -2.0380    0.4433    0.2970 N   0  0  0  0  0  0  0  0  0  0  0  0
   -2.8592    0.9611   -0.0031 H   0  0  0  0  0  0  0  0  0  0  0  0
   -0.7423    1.1479    0.3014 C   0  0  1  0  0  0  0  0  0  0  0  0
   -0.1933    0.9093    1.2199 H   0  0  0  0  0  0  0  0  0  0  0  0
    0.1307    0.7672   -0.9186 C   0  0  0  0  0  0  0  0  0  0  0  0
   -0.4403    0.9276   -1.8385 H   0  0  0  0  0  0  0  0  0  0  0  0
    1.0018    1.4316   -0.9457 H   0  0  0  0  0  0  0  0  0  0  0  0
    0.6328   -0.6821   -0.8993 C   0  0  0  0  0  0  0  0  0  0  0  0
    1.2028   -0.8637    0.0181 H   0  0  0  0  0  0  0  0  0  0  0  0
   -0.2167   -1.3698   -0.9143 H   0  0  0  0  0  0  0  0  0  0  0  0
    1.5075   -0.9672   -2.1246 C   0  0  0  0  0  0  0  0  0  0  0  0
    0.9342   -0.7788   -3.0379 H   0  0  0  0  0  0  0  0  0  0  0  0
    2.3750   -0.2990   -2.1242 H   0  0  0  0  0  0  0  0  0  0  0  0
    1.9859   -2.4160   -2.1160 C   0  0  0  0  0  0  0  0  0  0  0  0
    2.5830   -2.6071   -1.2173 H   0  0  0  0  0  0  0  0  0  0  0  0
    1.1272   -3.0964   -2.1035 H   0  0  0  0  0  0  0  0  0  0  0  0
    2.7968   -2.6493   -3.3152 N   0  0  0  0  0  0  0  0  0  0  0  0
    3.1610   -3.6020   -3.3334 H   0  0  0  0  0  0  0  0  0  0  0  0
    2.2662   -2.4465   -4.1618 H   0  0  0  0  0  0  0  0  0  0  0  0
   -0.9786    2.6730    0.2915 C   0  0  0  0  0  0  0  0  0  0  0  0
   -0.9086    3.3114    1.3313 O   0  0  0  0  0  0  0  0  0  0  0  0
   -1.3842    3.3197   -0.8638 N   0  0  0  0  0  0  0  0  0  0  0  0
   -1.3959    2.7772   -1.7220 H   0  0  0  0  0  0  0  0  0  0  0  0
   -1.6324    4.7550   -0.9327 C   0  0  0  0  0  0  0  0  0  0  0  0
   -0.7316    5.3134   -0.6572 H   0  0  0  0  0  0  0  0  0  0  0  0
   -1.9193    5.0410   -1.9491 H   0  0  0  0  0  0  0  0  0  0  0  0
   -2.4432    5.0367   -0.2529 H   0  0  0  0  0  0  0  0  0  0  0  0
  1  2  1  0  0  0  0
  2  3  1  0  0  0  0
  2  4  1  0  0  0  0
  2  5  1  0  0  0  0
  5  6  2  0  0  0  0
  5  7  1  0  0  0  0
  7  8  1  0  0  0  0
  7  9  1  0  0  0  0
  9 10  1  0  0  0  0
  9 11  1  0  0  0  0
  9 26  1  0  0  0  0
 11 12  1  0  0  0  0
 11 13  1  0  0  0  0
 11 14  1  0  0  0  0
 14 15  1  0  0  0  0
 14 16  1  0  0  0  0
 14 17  1  0  0  0  0
 17 18  1  0  0  0  0
 17 19  1  0  0  0  0
 17 20  1  0  0  0  0
 20 21  1  0  0  0  0
 20 22  1  0  0  0  0
 20 23  1  0  0  0  0
 23 24  1  0  0  0  0
 23 25  1  0  0  0  0
 26 27  2  0  0  0  0
 26 28  1  0  0  0  0
 28 29  1  0  0  0  0
 28 30  1  0  0  0  0
 30 31  1  0  0  0  0
 30 32  1  0  0  0  0
 30 33  1  0  0  0  0
M  END
$$$$

  -OEChem-01062216083D

 33 32  0     1  0  0  0  0  0999 V2000
   -3.6948   -2.3579    1.3983 H   0  0  0  0  0  0  0  0  0  0  0  0
   -3.6875   -1.3878    0.8932 C   0  0  0  0  0  0  0  0  0  0  0  0
   -4.3653   -0.7125    1.4211 H   0  0  0  0  0  0  0  0  0  0  0  0
   -4.0407   -1.5228   -0.1319 H   0  0  0  0  0  0  0  0  0  0  0  0
   -2.2831   -0.8135    0.8868 C   0  0  0  0  0  0  0  0  0  0  0  0
   -1.3771   -1.4364    1.4149 O   0  0  0  0  0  0  0  0  0  0  0  0
   -2.0574    0.4218    0.3097 N   0  0  0  0  0  0  0  0  0  0  0  0
   -2.8819    0.9366    0.0143 H   0  0  0  0  0  0  0  0  0  0  0  0
   -0.7642    1.1332    0.3209 C   0  0  1  0  0  0  0  0  0  0  0  0
   -0.2160    0.8931    1.2399 H   0  0  0  0  0  0  0  0  0  0  0  0
    0.1114    0.7693   -0.9004 C   0  0  0  0  0  0  0  0  0  0  0  0
   -0.4578    0.9398   -1.8196 H   0  0  0  0  0  0  0  0  0  0  0  0
    0.9798    1.4373   -0.9187 H   0  0  0  0  0  0  0  0  0  0  0  0
    0.6202   -0.6779   -0.8924 C   0  0  0  0  0  0  0  0  0  0  0  0
    1.1899   -0.8637    0.0245 H   0  0  0  0  0  0  0  0  0  0  0  0
   -0.2258   -1.3702   -0.9135 H   0  0  0  0  0  0  0  0  0  0  0  0
    1.4980   -0.9464   -2.1192 C   0  0  0  0  0  0  0  0  0  0  0  0
    0.9249   -0.7519   -3.0313 H   0  0  0  0  0  0  0  0  0  0  0  0
    2.3614   -0.2729   -2.1110 H   0  0  0  0  0  0  0  0  0  0  0  0
    1.9855   -2.3919   -2.1258 C   0  0  0  0  0  0  0  0  0  0  0  0
    2.5828   -2.5883   -1.2284 H   0  0  0  0  0  0  0  0  0  0  0  0
    1.1312   -3.0780   -2.1215 H   0  0  0  0  0  0  0  0  0  0  0  0
    2.7990   -2.6059   -3.3272 N   0  0  0  0  0  0  0  0  0  0  0  0
    3.1690   -3.5560   -3.3571 H   0  0  0  0  0  0  0  0  0  0  0  0
    2.2687   -2.3950   -4.1721 H   0  0  0  0  0  0  0  0  0  0  0  0
   -0.9967    2.6573    0.3052 C   0  0  0  0  0  0  0  0  0  0  0  0
   -0.6309    3.3491    1.2438 O   0  0  0  0  0  0  0  0  0  0  0  0
   -1.6795    3.2491   -0.7442 N   0  0  0  0  0  0  0  0  0  0  0  0
   -1.8785    2.6687   -1.5531 H   0  0  0  0  0  0  0  0  0  0  0  0
   -1.8980    4.6879   -0.8390 C   0  0  0  0  0  0  0  0  0  0  0  0
   -0.9418    5.2217   -0.8512 H   0  0  0  0  0  0  0  0  0  0  0  0
   -2.4407    4.9291   -1.7580 H   0  0  0  0  0  0  0  0  0  0  0  0
   -2.4878    5.0426    0.0129 H   0  0  0  0  0  0  0  0  0  0  0  0
  1  2  1  0  0  0  0
  2  3  1  0  0  0  0
  2  4  1  0  0  0  0
  2  5  1  0  0  0  0
  5  6  2  0  0  0  0
  5  7  1  0  0  0  0
  7  8  1  0  0  0  0
  7  9  1  0  0  0  0
  9 10  1  0  0  0  0
  9 11  1  0  0  0  0
  9 26  1  0  0  0  0
 11 12  1  0  0  0  0
 11 13  1  0  0  0  0
 11 14  1  0  0  0  0
 14 15  1  0  0  0  0
 14 16  1  0  0  0  0
 14 17  1  0  0  0  0
 17 18  1  0  0  0  0
 17 19  1  0  0  0  0
 17 20  1  0  0  0  0
 20 21  1  0  0  0  0
 20 22  1  0  0  0  0
 20 23  1  0  0  0  0
 23 24  1  0  0  0  0
 23 25  1  0  0  0  0
 26 27  2  0  0  0  0
 26 28  1  0  0  0  0
 28 29  1  0  0  0  0
 28 30  1  0  0  0  0
 30 31  1  0  0  0  0
 30 32  1  0  0  0  0
 30 33  1  0  0  0  0
M  END
$$$$

  -OEChem-01062216083D

 33 32  0     1  0  0  0  0  0999 V2000
   -3.6799   -2.3986    1.3946 H   0  0  0  0  0  0  0  0  0  0  0  0
   -3.6800   -1.4260    0.8941 C   0  0  0  0  0  0  0  0  0  0  0  0
   -4.3684   -0.7605    1.4205 H   0  0  0  0  0  0  0  0  0  0  0  0
   -4.0252   -1.5602   -0.1338 H   0  0  0  0  0  0  0  0  0  0  0  0
   -2.2819   -0.8369    0.8990 C   0  0  0  0  0  0  0  0  0  0  0  0
   -1.3737   -1.4489    1.4353 O   0  0  0  0  0  0  0  0  0  0  0  0
   -2.0652    0.4003    0.3222 N   0  0  0  0  0  0  0  0  0  0  0  0
   -2.8948    0.9110    0.0363 H   0  0  0  0  0  0  0  0  0  0  0  0
   -0.7774    1.1230    0.3462 C   0  0  1  0  0  0  0  0  0  0  0  0
   -0.2295    0.8816    1.2648 H   0  0  0  0  0  0  0  0  0  0  0  0
    0.0959    0.7738   -0.8799 C   0  0  0  0  0  0  0  0  0  0  0  0
   -0.4765    0.9539   -1.7955 H   0  0  0  0  0  0  0  0  0  0  0  0
    0.9624    1.4446   -0.8939 H   0  0  0  0  0  0  0  0  0  0  0  0
    0.6099   -0.6716   -0.8847 C   0  0  0  0  0  0  0  0  0  0  0  0
    1.1821   -0.8626    0.0296 H   0  0  0  0  0  0  0  0  0  0  0  0
   -0.2342   -1.3660   -0.9087 H   0  0  0  0  0  0  0  0  0  0  0  0
    1.4859   -0.9297   -2.1152 C   0  0  0  0  0  0  0  0  0  0  0  0
    0.9109   -0.7304   -3.0251 H   0  0  0  0  0  0  0  0  0  0  0  0
    2.3478   -0.2546   -2.1038 H   0  0  0  0  0  0  0  0  0  0  0  0
    1.9762   -2.3745   -2.1305 C   0  0  0  0  0  0  0  0  0  0  0  0
    2.5749   -2.5749   -1.2347 H   0  0  0  0  0  0  0  0  0  0  0  0
    1.1229   -3.0619   -2.1288 H   0  0  0  0  0  0  0  0  0  0  0  0
    2.7882   -2.5824   -3.3338 N   0  0  0  0  0  0  0  0  0  0  0  0
    3.1649   -3.5299   -3.3649 H   0  0  0  0  0  0  0  0  0  0  0  0
    2.2540   -2.3748   -4.1771 H   0  0  0  0  0  0  0  0  0  0  0  0
   -1.0071    2.6476    0.3276 C   0  0  0  0  0  0  0  0  0  0  0  0
   -0.4028    3.3737    1.1029 O   0  0  0  0  0  0  0  0  0  0  0  0
   -1.9269    3.2049   -0.5457 N   0  0  0  0  0  0  0  0  0  0  0  0
   -2.2807    2.6040   -1.2833 H   0  0  0  0  0  0  0  0  0  0  0  0
   -2.1342    4.6444   -0.6586 C   0  0  0  0  0  0  0  0  0  0  0  0
   -1.2082    5.1427   -0.9646 H   0  0  0  0  0  0  0  0  0  0  0  0
   -2.9063    4.8592   -1.4035 H   0  0  0  0  0  0  0  0  0  0  0  0
   -2.4568    5.0615    0.3012 H   0  0  0  0  0  0  0  0  0  0  0  0
  1  2  1  0  0  0  0
  2  3  1  0  0  0  0
  2  4  1  0  0  0  0
  2  5  1  0  0  0  0
  5  6  2  0  0  0  0
  5  7  1  0  0  0  0
  7  8  1  0  0  0  0
  7  9  1  0  0  0  0
  9 10  1  0  0  0  0
  9 11  1  0  0  0  0
  9 26  1  0  0  0  0
 11 12  1  0  0  0  0
 11 13  1  0  0  0  0
 11 14  1  0  0  0  0
 14 15  1  0  0  0  0
 14 16  1  0  0  0  0
 14 17  1  0  0  0  0
 17 18  1  0  0  0  0
 17 19  1  0  0  0  0
 17 20  1  0  0  0  0
 20 21  1  0  0  0  0
 20 22  1  0  0  0  0
 20 23  1  0  0  0  0
 23 24  1  0  0  0  0
 23 25  1  0  0  0  0
 26 27  2  0  0  0  0
 26 28  1  0  0  0  0
 28 29  1  0  0  0  0
 28 30  1  0  0  0  0
 30 31  1  0  0  0  0
 30 32  1  0  0  0  0
 30 33  1  0  0  0  0
M  END
$$$$

  -OEChem-01062216083D

 33 32  0     1  0  0  0  0  0999 V2000
   -3.6398   -2.4591    1.3755 H   0  0  0  0  0  0  0  0  0  0  0  0
   -3.6525   -1.4915    0.8656 C   0  0  0  0  0  0  0  0  0  0  0  0
   -4.3806   -0.8440    1.3602 H   0  0  0  0  0  0  0  0  0  0  0  0
   -3.9554   -1.6465   -0.1726 H   0  0  0  0  0  0  0  0  0  0  0  0
   -2.2748   -0.8580    0.9154 C   0  0  0  0  0  0  0  0  0  0  0  0
   -1.3672   -1.4379    1.4873 O   0  0  0  0  0  0  0  0  0  0  0  0
   -2.0752    0.3816    0.3370 N   0  0  0  0  0  0  0  0  0  0  0  0
   -2.9023    0.8489   -0.0173 H   0  0  0  0  0  0  0  0  0  0  0  0
   -0.7951    1.1220    0.3558 C   0  0  1  0  0  0  0  0  0  0  0  0
   -0.2415    0.8830    1.2717 H   0  0  0  0  0  0  0  0  0  0  0  0
    0.0720    0.7706   -0.8744 C   0  0  0  0  0  0  0  0  0  0  0  0
   -0.5095    0.9411   -1.7862 H   0  0  0  0  0  0  0  0  0  0  0  0
    0.9332    1.4480   -0.9012 H   0  0  0  0  0  0  0  0  0  0  0  0
    0.5991   -0.6707   -0.8720 C   0  0  0  0  0  0  0  0  0  0  0  0
    1.1809   -0.8488    0.0388 H   0  0  0  0  0  0  0  0  0  0  0  0
   -0.2381   -1.3736   -0.8835 H   0  0  0  0  0  0  0  0  0  0  0  0
    1.4677   -0.9297   -2.1075 C   0  0  0  0  0  0  0  0  0  0  0  0
    0.8831   -0.7421   -3.0136 H   0  0  0  0  0  0  0  0  0  0  0  0
    2.3231   -0.2458   -2.1078 H   0  0  0  0  0  0  0  0  0  0  0  0
    1.9723   -2.3696   -2.1183 C   0  0  0  0  0  0  0  0  0  0  0  0
    2.5813   -2.5595   -1.2273 H   0  0  0  0  0  0  0  0  0  0  0  0
    1.1258   -3.0650   -2.1052 H   0  0  0  0  0  0  0  0  0  0  0  0
    2.7762   -2.5758   -3.3273 N   0  0  0  0  0  0  0  0  0  0  0  0
    3.1484   -3.5247   -3.3651 H   0  0  0  0  0  0  0  0  0  0  0  0
    2.2388   -2.3611   -4.1667 H   0  0  0  0  0  0  0  0  0  0  0  0
   -1.0088    2.6512    0.3376 C   0  0  0  0  0  0  0  0  0  0  0  0
   -0.2011    3.3861    0.8871 O   0  0  0  0  0  0  0  0  0  0  0  0
   -2.1126    3.2136   -0.2840 N   0  0  0  0  0  0  0  0  0  0  0  0
   -2.6539    2.6123   -0.8942 H   0  0  0  0  0  0  0  0  0  0  0  0
   -2.3109    4.6557   -0.3797 C   0  0  0  0  0  0  0  0  0  0  0  0
   -1.5097    5.1147   -0.9687 H   0  0  0  0  0  0  0  0  0  0  0  0
   -3.2678    4.8757   -0.8628 H   0  0  0  0  0  0  0  0  0  0  0  0
   -2.3185    5.1088    0.6175 H   0  0  0  0  0  0  0  0  0  0  0  0
  1  2  1  0  0  0  0
  2  3  1  0  0  0  0
  2  4  1  0  0  0  0
  2  5  1  0  0  0  0
  5  6  2  0  0  0  0
  5  7  1  0  0  0  0
  7  8  1  0  0  0  0
  7  9  1  0  0  0  0
  9 10  1  0  0  0  0
  9 11  1  0  0  0  0
  9 26  1  0  0  0  0
 11 12  1  0  0  0  0
 11 13  1  0  0  0  0
 11 14  1  0  0  0  0
 14 15  1  0  0  0  0
 14 16  1  0  0  0  0
 14 17  1  0  0  0  0
 17 18  1  0  0  0  0
 17 19  1  0  0  0  0
 17 20  1  0  0  0  0
 20 21  1  0  0  0  0
 20 22  1  0  0  0  0
 20 23  1  0  0  0  0
 23 24  1  0  0  0  0
 23 25  1  0  0  0  0
 26 27  2  0  0  0  0
 26 28  1  0  0  0  0
 28 29  1  0  0  0  0
 28 30  1  0  0  0  0
 30 31  1  0  0  0  0
 30 32  1  0  0  0  0
 30 33  1  0  0  0  0
M  END
$$$$

  -OEChem-01062216083D

 33 32  0     1  0  0  0  0  0999 V2000
   -3.4189   -2.5741    1.1713 H   0  0  0  0  0  0  0  0  0  0  0  0
   -3.4825   -1.5969    0.6841 C   0  0  0  0  0  0  0  0  0  0  0  0
   -4.3566   -1.0677    1.0713 H   0  0  0  0  0  0  0  0  0  0  0  0
   -3.6014   -1.7487   -0.3914 H   0  0  0  0  0  0  0  0  0  0  0  0
   -2.2256   -0.7937    0.9609 C   0  0  0  0  0  0  0  0  0  0  0  0
   -1.3721   -1.2465    1.7047 O   0  0  0  0  0  0  0  0  0  0  0  0
   -2.0637    0.4436    0.3661 N   0  0  0  0  0  0  0  0  0  0  0  0
   -2.7371    0.6615   -0.3610 H   0  0  0  0  0  0  0  0  0  0  0  0
   -0.7836    1.1852    0.3461 C   0  0  1  0  0  0  0  0  0  0  0  0
   -0.2087    0.9604    1.2519 H   0  0  0  0  0  0  0  0  0  0  0  0
    0.0528    0.7900   -0.8930 C   0  0  0  0  0  0  0  0  0  0  0  0
   -0.5470    0.9381   -1.7968 H   0  0  0  0  0  0  0  0  0  0  0  0
    0.9203    1.4559   -0.9626 H   0  0  0  0  0  0  0  0  0  0  0  0
    0.5699   -0.6552   -0.8506 C   0  0  0  0  0  0  0  0  0  0  0  0
    1.1729   -0.8027    0.0520 H   0  0  0  0  0  0  0  0  0  0  0  0
   -0.2698   -1.3541   -0.8150 H   0  0  0  0  0  0  0  0  0  0  0  0
    1.4088   -0.9635   -2.0956 C   0  0  0  0  0  0  0  0  0  0  0  0
    0.8057   -0.8023   -2.9947 H   0  0  0  0  0  0  0  0  0  0  0  0
    2.2682   -0.2863   -2.1388 H   0  0  0  0  0  0  0  0  0  0  0  0
    1.9042   -2.4064   -2.0686 C   0  0  0  0  0  0  0  0  0  0  0  0
    2.5317   -2.5693   -1.1851 H   0  0  0  0  0  0  0  0  0  0  0  0
    1.0544   -3.0956   -2.0128 H   0  0  0  0  0  0  0  0  0  0  0  0
    2.6790   -2.6589   -3.2877 N   0  0  0  0  0  0  0  0  0  0  0  0
    3.0494   -3.6091   -3.3003 H   0  0  0  0  0  0  0  0  0  0  0  0
    2.1232   -2.4725   -4.1219 H   0  0  0  0  0  0  0  0  0  0  0  0
   -0.9901    2.7179    0.3287 C   0  0  0  0  0  0  0  0  0  0  0  0
   -0.0362    3.4657    0.4926 O   0  0  0  0  0  0  0  0  0  0  0  0
   -2.2231    3.2725    0.0271 N   0  0  0  0  0  0  0  0  0  0  0  0
   -3.0215    2.6491    0.0530 H   0  0  0  0  0  0  0  0  0  0  0  0
   -2.4627    4.7114    0.0147 C   0  0  0  0  0  0  0  0  0  0  0  0
   -1.7856    5.2066   -0.6896 H   0  0  0  0  0  0  0  0  0  0  0  0
   -3.4912    4.9220   -0.2935 H   0  0  0  0  0  0  0  0  0  0  0  0
   -2.3043    5.1351    1.0120 H   0  0  0  0  0  0  0  0  0  0  0  0
  1  2  1  0  0  0  0
  2  3  1  0  0  0  0
  2  4  1  0  0  0  0
  2  5  1  0  0  0  0
  5  6  2  0  0  0  0
  5  7  1  0  0  0  0
  7  8  1  0  0  0  0
  7  9  1  0  0  0  0
  9 10  1  0  0  0  0
  9 11  1  0  0  0  0
  9 26  1  0  0  0  0
 11 12  1  0  0  0  0
 11 13  1  0  0  0  0
 11 14  1  0  0  0  0
 14 15  1  0  0  0  0
 14 16  1  0  0  0  0
 14 17  1  0  0  0  0
 17 18  1  0  0  0  0
 17 19  1  0  0  0  0
 17 20  1  0  0  0  0
 20 21  1  0  0  0  0
 20 22  1  0  0  0  0
 20 23  1  0  0  0  0
 23 24  1  0  0  0  0
 23 25  1  0  0  0  0
 26 27  2  0  0  0  0
 26 28  1  0  0  0  0
 28 29  1  0  0  0  0
 28 30  1  0  0  0  0
 30 31  1  0  0  0  0
 30 32  1  0  0  0  0
 30 33  1  0  0  0  0
M  END
$$$$

  -OEChem-01062216083D

 33 32  0     1  0  0  0  0  0999 V2000
   -3.4166   -2.5635    1.1434 H   0  0  0  0  0  0  0  0  0  0  0  0
   -3.4730   -1.5859    0.6559 C   0  0  0  0  0  0  0  0  0  0  0  0
   -4.3526   -1.0568    1.0305 H   0  0  0  0  0  0  0  0  0  0  0  0
   -3.5770   -1.7369   -0.4212 H   0  0  0  0  0  0  0  0  0  0  0  0
   -2.2196   -0.7831    0.9503 C   0  0  0  0  0  0  0  0  0  0  0  0
   -1.3768   -1.2333    1.7077 O   0  0  0  0  0  0  0  0  0  0  0  0
   -2.0506    0.4560    0.3620 N   0  0  0  0  0  0  0  0  0  0  0  0
   -2.7215    0.6847   -0.3656 H   0  0  0  0  0  0  0  0  0  0  0  0
   -0.7679    1.1933    0.3458 C   0  0  1  0  0  0  0  0  0  0  0  0
   -0.1946    0.9683    1.2522 H   0  0  0  0  0  0  0  0  0  0  0  0
    0.0664    0.7896   -0.8940 C   0  0  0  0  0  0  0  0  0  0  0  0
   -0.5340    0.9405   -1.7969 H   0  0  0  0  0  0  0  0  0  0  0  0
    0.9393    1.4478   -0.9679 H   0  0  0  0  0  0  0  0  0  0  0  0
    0.5756   -0.6586   -0.8502 C   0  0  0  0  0  0  0  0  0  0  0  0
    1.1798   -0.8079    0.0513 H   0  0  0  0  0  0  0  0  0  0  0  0
   -0.2672   -1.3534   -0.8125 H   0  0  0  0  0  0  0  0  0  0  0  0
    1.4114   -0.9725   -2.0958 C   0  0  0  0  0  0  0  0  0  0  0  0
    0.8074   -0.8090   -2.9940 H   0  0  0  0  0  0  0  0  0  0  0  0
    2.2741   -0.2996   -2.1409 H   0  0  0  0  0  0  0  0  0  0  0  0
    1.8994   -2.4180   -2.0685 C   0  0  0  0  0  0  0  0  0  0  0  0
    2.5272   -2.5847   -1.1859 H   0  0  0  0  0  0  0  0  0  0  0  0
    1.0456   -3.1022   -2.0119 H   0  0  0  0  0  0  0  0  0  0  0  0
    2.6712   -2.6748   -3.2886 N   0  0  0  0  0  0  0  0  0  0  0  0
    3.0277   -3.6303   -3.3066 H   0  0  0  0  0  0  0  0  0  0  0  0
    2.1185   -2.4754   -4.1219 H   0  0  0  0  0  0  0  0  0  0  0  0
   -0.9882    2.7257    0.3355 C   0  0  0  0  0  0  0  0  0  0  0  0
   -0.0390    3.4933    0.2542 O   0  0  0  0  0  0  0  0  0  0  0  0
   -2.2682    3.2543    0.3434 N   0  0  0  0  0  0  0  0  0  0  0  0
   -3.0143    2.6152    0.5970 H   0  0  0  0  0  0  0  0  0  0  0  0
   -2.5338    4.6878    0.3842 C   0  0  0  0  0  0  0  0  0  0  0  0
   -2.0682    5.1890   -0.4711 H   0  0  0  0  0  0  0  0  0  0  0  0
   -3.6112    4.8741    0.3457 H   0  0  0  0  0  0  0  0  0  0  0  0
   -2.1373    5.1250    1.3067 H   0  0  0  0  0  0  0  0  0  0  0  0
  1  2  1  0  0  0  0
  2  3  1  0  0  0  0
  2  4  1  0  0  0  0
  2  5  1  0  0  0  0
  5  6  2  0  0  0  0
  5  7  1  0  0  0  0
  7  8  1  0  0  0  0
  7  9  1  0  0  0  0
  9 10  1  0  0  0  0
  9 11  1  0  0  0  0
  9 26  1  0  0  0  0
 11 12  1  0  0  0  0
 11 13  1  0  0  0  0
 11 14  1  0  0  0  0
 14 15  1  0  0  0  0
 14 16  1  0  0  0  0
 14 17  1  0  0  0  0
 17 18  1  0  0  0  0
 17 19  1  0  0  0  0
 17 20  1  0  0  0  0
 20 21  1  0  0  0  0
 20 22  1  0  0  0  0
 20 23  1  0  0  0  0
 23 24  1  0  0  0  0
 23 25  1  0  0  0  0
 26 27  2  0  0  0  0
 26 28  1  0  0  0  0
 28 29  1  0  0  0  0
 28 30  1  0  0  0  0
 30 31  1  0  0  0  0
 30 32  1  0  0  0  0
 30 33  1  0  0  0  0
M  END
$$$$

  -OEChem-01062216083D

 33 32  0     1  0  0  0  0  0999 V2000
   -3.4361   -2.5366    1.1299 H   0  0  0  0  0  0  0  0  0  0  0  0
   -3.4842   -1.5558    0.6483 C   0  0  0  0  0  0  0  0  0  0  0  0
   -4.3515   -1.0158    1.0355 H   0  0  0  0  0  0  0  0  0  0  0  0
   -3.6025   -1.6995   -0.4283 H   0  0  0  0  0  0  0  0  0  0  0  0
   -2.2164   -0.7728    0.9326 C   0  0  0  0  0  0  0  0  0  0  0  0
   -1.3744   -1.2353    1.6836 O   0  0  0  0  0  0  0  0  0  0  0  0
   -2.0369    0.4694    0.3547 N   0  0  0  0  0  0  0  0  0  0  0  0
   -2.7223    0.7292   -0.3493 H   0  0  0  0  0  0  0  0  0  0  0  0
   -0.7507    1.1995    0.3383 C   0  0  1  0  0  0  0  0  0  0  0  0
   -0.1784    0.9710    1.2443 H   0  0  0  0  0  0  0  0  0  0  0  0
    0.0837    0.7897   -0.9009 C   0  0  0  0  0  0  0  0  0  0  0  0
   -0.5141    0.9441   -1.8050 H   0  0  0  0  0  0  0  0  0  0  0  0
    0.9622    1.4402   -0.9731 H   0  0  0  0  0  0  0  0  0  0  0  0
    0.5856   -0.6614   -0.8556 C   0  0  0  0  0  0  0  0  0  0  0  0
    1.1862   -0.8142    0.0475 H   0  0  0  0  0  0  0  0  0  0  0  0
   -0.2610   -1.3518   -0.8197 H   0  0  0  0  0  0  0  0  0  0  0  0
    1.4218   -0.9812   -2.0998 C   0  0  0  0  0  0  0  0  0  0  0  0
    0.8209   -0.8148   -2.9997 H   0  0  0  0  0  0  0  0  0  0  0  0
    2.2886   -0.3133   -2.1438 H   0  0  0  0  0  0  0  0  0  0  0  0
    1.9020   -2.4294   -2.0702 C   0  0  0  0  0  0  0  0  0  0  0  0
    2.5271   -2.5986   -1.1862 H   0  0  0  0  0  0  0  0  0  0  0  0
    1.0446   -3.1091   -2.0151 H   0  0  0  0  0  0  0  0  0  0  0  0
    2.6744   -2.6918   -3.2887 N   0  0  0  0  0  0  0  0  0  0  0  0
    3.0247   -3.6495   -3.3058 H   0  0  0  0  0  0  0  0  0  0  0  0
    2.1244   -2.4894   -4.1230 H   0  0  0  0  0  0  0  0  0  0  0  0
   -0.9861    2.7313    0.3407 C   0  0  0  0  0  0  0  0  0  0  0  0
   -0.1042    3.5154    0.0170 O   0  0  0  0  0  0  0  0  0  0  0  0
   -2.2318    3.2393    0.6678 N   0  0  0  0  0  0  0  0  0  0  0  0
   -2.8894    2.5833    1.0783 H   0  0  0  0  0  0  0  0  0  0  0  0
   -2.5140    4.6671    0.7592 C   0  0  0  0  0  0  0  0  0  0  0  0
   -2.2952    5.1630   -0.1925 H   0  0  0  0  0  0  0  0  0  0  0  0
   -3.5698    4.8301    0.9960 H   0  0  0  0  0  0  0  0  0  0  0  0
   -1.9061    5.1286    1.5446 H   0  0  0  0  0  0  0  0  0  0  0  0
  1  2  1  0  0  0  0
  2  3  1  0  0  0  0
  2  4  1  0  0  0  0
  2  5  1  0  0  0  0
  5  6  2  0  0  0  0
  5  7  1  0  0  0  0
  7  8  1  0  0  0  0
  7  9  1  0  0  0  0
  9 10  1  0  0  0  0
  9 11  1  0  0  0  0
  9 26  1  0  0  0  0
 11 12  1  0  0  0  0
 11 13  1  0  0  0  0
 11 14  1  0  0  0  0
 14 15  1  0  0  0  0
 14 16  1  0  0  0  0
 14 17  1  0  0  0  0
 17 18  1  0  0  0  0
 17 19  1  0  0  0  0
 17 20  1  0  0  0  0
 20 21  1  0  0  0  0
 20 22  1  0  0  0  0
 20 23  1  0  0  0  0
 23 24  1  0  0  0  0
 23 25  1  0  0  0  0
 26 27  2  0  0  0  0
 26 28  1  0  0  0  0
 28 29  1  0  0  0  0
 28 30  1  0  0  0  0
 30 31  1  0  0  0  0
 30 32  1  0  0  0  0
 30 33  1  0  0  0  0
M  END
$$$$

  -OEChem-01062216083D

 33 32  0     1  0  0  0  0  0999 V2000
   -3.4590   -2.5062    1.1295 H   0  0  0  0  0  0  0  0  0  0  0  0
   -3.4921   -1.5288    0.6396 C   0  0  0  0  0  0  0  0  0  0  0  0
   -4.3538   -0.9740    1.0185 H   0  0  0  0  0  0  0  0  0  0  0  0
   -3.6075   -1.6800   -0.4364 H   0  0  0  0  0  0  0  0  0  0  0  0
   -2.2149   -0.7605    0.9221 C   0  0  0  0  0  0  0  0  0  0  0  0
   -1.3738   -1.2349    1.6667 O   0  0  0  0  0  0  0  0  0  0  0  0
   -2.0244    0.4841    0.3536 N   0  0  0  0  0  0  0  0  0  0  0  0
   -2.7252    0.7748   -0.3232 H   0  0  0  0  0  0  0  0  0  0  0  0
   -0.7335    1.2046    0.3361 C   0  0  1  0  0  0  0  0  0  0  0  0
   -0.1609    0.9715    1.2406 H   0  0  0  0  0  0  0  0  0  0  0  0
    0.1003    0.7909   -0.9028 C   0  0  0  0  0  0  0  0  0  0  0  0
   -0.4947    0.9507   -1.8077 H   0  0  0  0  0  0  0  0  0  0  0  0
    0.9833    1.4357   -0.9718 H   0  0  0  0  0  0  0  0  0  0  0  0
    0.5934   -0.6630   -0.8584 C   0  0  0  0  0  0  0  0  0  0  0  0
    1.1915   -0.8210    0.0454 H   0  0  0  0  0  0  0  0  0  0  0  0
   -0.2576   -1.3478   -0.8260 H   0  0  0  0  0  0  0  0  0  0  0  0
    1.4290   -0.9861   -2.1016 C   0  0  0  0  0  0  0  0  0  0  0  0
    0.8300   -0.8154   -3.0019 H   0  0  0  0  0  0  0  0  0  0  0  0
    2.2999   -0.3235   -2.1438 H   0  0  0  0  0  0  0  0  0  0  0  0
    1.9000   -2.4373   -2.0722 C   0  0  0  0  0  0  0  0  0  0  0  0
    2.5228   -2.6108   -1.1875 H   0  0  0  0  0  0  0  0  0  0  0  0
    1.0379   -3.1115   -2.0181 H   0  0  0  0  0  0  0  0  0  0  0  0
    2.6725   -2.7042   -3.2895 N   0  0  0  0  0  0  0  0  0  0  0  0
    3.0158   -3.6645   -3.3067 H   0  0  0  0  0  0  0  0  0  0  0  0
    2.1254   -2.4967   -4.1245 H   0  0  0  0  0  0  0  0  0  0  0  0
   -0.9789    2.7350    0.3508 C   0  0  0  0  0  0  0  0  0  0  0  0
   -0.2269    3.5226   -0.2077 O   0  0  0  0  0  0  0  0  0  0  0  0
   -2.1070    3.2344    0.9780 N   0  0  0  0  0  0  0  0  0  0  0  0
   -2.6548    2.5715    1.5190 H   0  0  0  0  0  0  0  0  0  0  0  0
   -2.3982    4.6580    1.0984 C   0  0  0  0  0  0  0  0  0  0  0  0
   -2.4635    5.1216    0.1083 H   0  0  0  0  0  0  0  0  0  0  0  0
   -3.3536    4.8065    1.6109 H   0  0  0  0  0  0  0  0  0  0  0  0
   -1.6140    5.1624    1.6727 H   0  0  0  0  0  0  0  0  0  0  0  0
  1  2  1  0  0  0  0
  2  3  1  0  0  0  0
  2  4  1  0  0  0  0
  2  5  1  0  0  0  0
  5  6  2  0  0  0  0
  5  7  1  0  0  0  0
  7  8  1  0  0  0  0
  7  9  1  0  0  0  0
  9 10  1  0  0  0  0
  9 11  1  0  0  0  0
  9 26  1  0  0  0  0
 11 12  1  0  0  0  0
 11 13  1  0  0  0  0
 11 14  1  0  0  0  0
 14 15  1  0  0  0  0
 14 16  1  0  0  0  0
 14 17  1  0  0  0  0
 17 18  1  0  0  0  0
 17 19  1  0  0  0  0
 17 20  1  0  0  0  0
 20 21  1  0  0  0  0
 20 22  1  0  0  0  0
 20 23  1  0  0  0  0
 23 24  1  0  0  0  0
 23 25  1  0  0  0  0
 26 27  2  0  0  0  0
 26 28  1  0  0  0  0
 28 29  1  0  0  0  0
 28 30  1  0  0  0  0
 30 31  1  0  0  0  0
 30 32  1  0  0  0  0
 30 33  1  0  0  0  0
M  END
$$$$

  -OEChem-01062216083D

 33 32  0     1  0  0  0  0  0999 V2000
   -3.5012   -2.4788    1.1226 H   0  0  0  0  0  0  0  0  0  0  0  0
   -3.5326   -1.4853    0.6662 C   0  0  0  0  0  0  0  0  0  0  0  0
   -4.3615   -0.9231    1.1029 H   0  0  0  0  0  0  0  0  0  0  0  0
   -3.7021   -1.5982   -0.4073 H   0  0  0  0  0  0  0  0  0  0  0  0
   -2.2256   -0.7561    0.9137 C   0  0  0  0  0  0  0  0  0  0  0  0
   -1.3819   -1.2524    1.6414 O   0  0  0  0  0  0  0  0  0  0  0  0
   -2.0182    0.4884    0.3520 N   0  0  0  0  0  0  0  0  0  0  0  0
   -2.7311    0.8112   -0.2972 H   0  0  0  0  0  0  0  0  0  0  0  0
   -0.7220    1.1957    0.3361 C   0  0  1  0  0  0  0  0  0  0  0  0
   -0.1526    0.9566    1.2409 H   0  0  0  0  0  0  0  0  0  0  0  0
    0.1178    0.7839   -0.8987 C   0  0  0  0  0  0  0  0  0  0  0  0
   -0.4714    0.9508   -1.8063 H   0  0  0  0  0  0  0  0  0  0  0  0
    1.0022    1.4281   -0.9569 H   0  0  0  0  0  0  0  0  0  0  0  0
    0.6047   -0.6719   -0.8604 C   0  0  0  0  0  0  0  0  0  0  0  0
    1.1976   -0.8385    0.0454 H   0  0  0  0  0  0  0  0  0  0  0  0
   -0.2500   -1.3528   -0.8367 H   0  0  0  0  0  0  0  0  0  0  0  0
    1.4466   -0.9879   -2.1014 C   0  0  0  0  0  0  0  0  0  0  0  0
    0.8527   -0.8078   -3.0031 H   0  0  0  0  0  0  0  0  0  0  0  0
    2.3193   -0.3274   -2.1335 H   0  0  0  0  0  0  0  0  0  0  0  0
    1.9143   -2.4401   -2.0833 C   0  0  0  0  0  0  0  0  0  0  0  0
    2.5319   -2.6241   -1.1971 H   0  0  0  0  0  0  0  0  0  0  0  0
    1.0501   -3.1123   -2.0406 H   0  0  0  0  0  0  0  0  0  0  0  0
    2.6926   -2.6966   -3.2994 N   0  0  0  0  0  0  0  0  0  0  0  0
    3.0289   -3.6591   -3.3277 H   0  0  0  0  0  0  0  0  0  0  0  0
    2.1523   -2.4737   -4.1350 H   0  0  0  0  0  0  0  0  0  0  0  0
   -0.9702    2.7244    0.3579 C   0  0  0  0  0  0  0  0  0  0  0  0
   -0.4103    3.4943   -0.4119 O   0  0  0  0  0  0  0  0  0  0  0  0
   -1.9060    3.2372    1.2380 N   0  0  0  0  0  0  0  0  0  0  0  0
   -2.3188    2.5847    1.8989 H   0  0  0  0  0  0  0  0  0  0  0  0
   -2.1965    4.6601    1.3671 C   0  0  0  0  0  0  0  0  0  0  0  0
   -2.5270    5.0731    0.4082 H   0  0  0  0  0  0  0  0  0  0  0  0
   -2.9910    4.8186    2.1024 H   0  0  0  0  0  0  0  0  0  0  0  0
   -1.3051    5.2043    1.6961 H   0  0  0  0  0  0  0  0  0  0  0  0
  1  2  1  0  0  0  0
  2  3  1  0  0  0  0
  2  4  1  0  0  0  0
  2  5  1  0  0  0  0
  5  6  2  0  0  0  0
  5  7  1  0  0  0  0
  7  8  1  0  0  0  0
  7  9  1  0  0  0  0
  9 10  1  0  0  0  0
  9 11  1  0  0  0  0
  9 26  1  0  0  0  0
 11 12  1  0  0  0  0
 11 13  1  0  0  0  0
 11 14  1  0  0  0  0
 14 15  1  0  0  0  0
 14 16  1  0  0  0  0
 14 17  1  0  0  0  0
 17 18  1  0  0  0  0
 17 19  1  0  0  0  0
 17 20  1  0  0  0  0
 20 21  1  0  0  0  0
 20 22  1  0  0  0  0
 20 23  1  0  0  0  0
 23 24  1  0  0  0  0
 23 25  1  0  0  0  0
 26 27  2  0  0  0  0
 26 28  1  0  0  0  0
 28 29  1  0  0  0  0
 28 30  1  0  0  0  0
 30 31  1  0  0  0  0
 30 32  1  0  0  0  0
 30 33  1  0  0  0  0
M  END
$$$$

  -OEChem-01062216083D

 33 32  0     1  0  0  0  0  0999 V2000
   -3.5212   -2.4568    1.1228 H   0  0  0  0  0  0  0  0  0  0  0  0
   -3.5417   -1.4625    0.6675 C   0  0  0  0  0  0  0  0  0  0  0  0
   -4.3641   -0.8917    1.1054 H   0  0  0  0  0  0  0  0  0  0  0  0
   -3.7126   -1.5721   -0.4061 H   0  0  0  0  0  0  0  0  0  0  0  0
   -2.2266   -0.7477    0.9149 C   0  0  0  0  0  0  0  0  0  0  0  0
   -1.3854   -1.2556    1.6380 O   0  0  0  0  0  0  0  0  0  0  0  0
   -2.0071    0.4964    0.3580 N   0  0  0  0  0  0  0  0  0  0  0  0
   -2.7218    0.8362   -0.2807 H   0  0  0  0  0  0  0  0  0  0  0  0
   -0.7067    1.1925    0.3452 C   0  0  1  0  0  0  0  0  0  0  0  0
   -0.1375    0.9455    1.2479 H   0  0  0  0  0  0  0  0  0  0  0  0
    0.1327    0.7841   -0.8898 C   0  0  0  0  0  0  0  0  0  0  0  0
   -0.4547    0.9567   -1.7979 H   0  0  0  0  0  0  0  0  0  0  0  0
    1.0173    1.4281   -0.9424 H   0  0  0  0  0  0  0  0  0  0  0  0
    0.6100   -0.6749   -0.8592 C   0  0  0  0  0  0  0  0  0  0  0  0
    1.1995   -0.8518    0.0468 H   0  0  0  0  0  0  0  0  0  0  0  0
   -0.2494   -1.3501   -0.8414 H   0  0  0  0  0  0  0  0  0  0  0  0
    1.4525   -0.9888   -2.1003 C   0  0  0  0  0  0  0  0  0  0  0  0
    0.8616   -0.7996   -3.0022 H   0  0  0  0  0  0  0  0  0  0  0  0
    2.3297   -0.3336   -2.1264 H   0  0  0  0  0  0  0  0  0  0  0  0
    1.9106   -2.4441   -2.0899 C   0  0  0  0  0  0  0  0  0  0  0  0
    2.5246   -2.6378   -1.2033 H   0  0  0  0  0  0  0  0  0  0  0  0
    1.0419   -3.1108   -2.0536 H   0  0  0  0  0  0  0  0  0  0  0  0
    2.6898   -2.6977   -3.3058 N   0  0  0  0  0  0  0  0  0  0  0  0
    3.0173   -3.6629   -3.3408 H   0  0  0  0  0  0  0  0  0  0  0  0
    2.1532   -2.4639   -4.1408 H   0  0  0  0  0  0  0  0  0  0  0  0
   -0.9506    2.7198    0.3717 C   0  0  0  0  0  0  0  0  0  0  0  0
   -0.6256    3.4536   -0.5531 O   0  0  0  0  0  0  0  0  0  0  0  0
   -1.6350    3.2657    1.4420 N   0  0  0  0  0  0  0  0  0  0  0  0
   -1.8982    2.6338    2.1935 H   0  0  0  0  0  0  0  0  0  0  0  0
   -1.9349    4.6867    1.5689 C   0  0  0  0  0  0  0  0  0  0  0  0
   -2.5243    5.0327    0.7133 H   0  0  0  0  0  0  0  0  0  0  0  0
   -2.5096    4.8722    2.4812 H   0  0  0  0  0  0  0  0  0  0  0  0
   -1.0094    5.2698    1.6176 H   0  0  0  0  0  0  0  0  0  0  0  0
  1  2  1  0  0  0  0
  2  3  1  0  0  0  0
  2  4  1  0  0  0  0
  2  5  1  0  0  0  0
  5  6  2  0  0  0  0
  5  7  1  0  0  0  0
  7  8  1  0  0  0  0
  7  9  1  0  0  0  0
  9 10  1  0  0  0  0
  9 11  1  0  0  0  0
  9 26  1  0  0  0  0
 11 12  1  0  0  0  0
 11 13  1  0  0  0  0
 11 14  1  0  0  0  0
 14 15  1  0  0  0  0
 14 16  1  0  0  0  0
 14 17  1  0  0  0  0
 17 18  1  0  0  0  0
 17 19  1  0  0  0  0
 17 20  1  0  0  0  0
 20 21  1  0  0  0  0
 20 22  1  0  0  0  0
 20 23  1  0  0  0  0
 23 24  1  0  0  0  0
 23 25  1  0  0  0  0
 26 27  2  0  0  0  0
 26 28  1  0  0  0  0
 28 29  1  0  0  0  0
 28 30  1  0  0  0  0
 30 31  1  0  0  0  0
 30 32  1  0  0  0  0
 30 33  1  0  0  0  0
M  END
$$$$

  -OEChem-01062216083D

 33 32  0     1  0  0  0  0  0999 V2000
   -3.5419   -2.4382    1.1258 H   0  0  0  0  0  0  0  0  0  0  0  0
   -3.5528   -1.4430    0.6721 C   0  0  0  0  0  0  0  0  0  0  0  0
   -4.3670   -0.8633    1.1135 H   0  0  0  0  0  0  0  0  0  0  0  0
   -3.7286   -1.5487   -0.4012 H   0  0  0  0  0  0  0  0  0  0  0  0
   -2.2289   -0.7438    0.9161 C   0  0  0  0  0  0  0  0  0  0  0  0
   -1.3890   -1.2642    1.6324 O   0  0  0  0  0  0  0  0  0  0  0  0
   -1.9976    0.4989    0.3616 N   0  0  0  0  0  0  0  0  0  0  0  0
   -2.7125    0.8550   -0.2684 H   0  0  0  0  0  0  0  0  0  0  0  0
   -0.6944    1.1862    0.3548 C   0  0  1  0  0  0  0  0  0  0  0  0
   -0.1275    0.9304    1.2565 H   0  0  0  0  0  0  0  0  0  0  0  0
    0.1453    0.7837   -0.8807 C   0  0  0  0  0  0  0  0  0  0  0  0
   -0.4408    0.9619   -1.7886 H   0  0  0  0  0  0  0  0  0  0  0  0
    1.0296    1.4285   -0.9285 H   0  0  0  0  0  0  0  0  0  0  0  0
    0.6146   -0.6780   -0.8587 C   0  0  0  0  0  0  0  0  0  0  0  0
    1.2010   -0.8635    0.0476 H   0  0  0  0  0  0  0  0  0  0  0  0
   -0.2490   -1.3481   -0.8470 H   0  0  0  0  0  0  0  0  0  0  0  0
    1.4587   -0.9888   -2.0994 C   0  0  0  0  0  0  0  0  0  0  0  0
    0.8711   -0.7910   -3.0016 H   0  0  0  0  0  0  0  0  0  0  0  0
    2.3394   -0.3385   -2.1195 H   0  0  0  0  0  0  0  0  0  0  0  0
    1.9082   -2.4467   -2.0965 C   0  0  0  0  0  0  0  0  0  0  0  0
    2.5187   -2.6494   -1.2094 H   0  0  0  0  0  0  0  0  0  0  0  0
    1.0355   -3.1086   -2.0668 H   0  0  0  0  0  0  0  0  0  0  0  0
    2.6893   -2.6972   -3.3120 N   0  0  0  0  0  0  0  0  0  0  0  0
    3.0104   -3.6644   -3.3523 H   0  0  0  0  0  0  0  0  0  0  0  0
    2.1559   -2.4547   -4.1466 H   0  0  0  0  0  0  0  0  0  0  0  0
   -0.9290    2.7130    0.3812 C   0  0  0  0  0  0  0  0  0  0  0  0
   -0.8671    3.3959   -0.6336 O   0  0  0  0  0  0  0  0  0  0  0  0
   -1.3241    3.3098    1.5639 N   0  0  0  0  0  0  0  0  0  0  0  0
   -1.4191    2.7096    2.3787 H   0  0  0  0  0  0  0  0  0  0  0  0
   -1.6265    4.7304    1.6885 C   0  0  0  0  0  0  0  0  0  0  0  0
   -2.4314    5.0134    1.0019 H   0  0  0  0  0  0  0  0  0  0  0  0
   -1.9464    4.9608    2.7092 H   0  0  0  0  0  0  0  0  0  0  0  0
   -0.7403    5.3315    1.4593 H   0  0  0  0  0  0  0  0  0  0  0  0
  1  2  1  0  0  0  0
  2  3  1  0  0  0  0
  2  4  1  0  0  0  0
  2  5  1  0  0  0  0
  5  6  2  0  0  0  0
  5  7  1  0  0  0  0
  7  8  1  0  0  0  0
  7  9  1  0  0  0  0
  9 10  1  0  0  0  0
  9 11  1  0  0  0  0
  9 26  1  0  0  0  0
 11 12  1  0  0  0  0
 11 13  1  0  0  0  0
 11 14  1  0  0  0  0
 14 15  1  0  0  0  0
 14 16  1  0  0  0  0
 14 17  1  0  0  0  0
 17 18  1  0  0  0  0
 17 19  1  0  0  0  0
 17 20  1  0  0  0  0
 20 21  1  0  0  0  0
 20 22  1  0  0  0  0
 20 23  1  0  0  0  0
 23 24  1  0  0  0  0
 23 25  1  0  0  0  0
 26 27  2  0  0  0  0
 26 28  1  0  0  0  0
 28 29  1  0  0  0  0
 28 30  1  0  0  0  0
 30 31  1  0  0  0  0
 30 32  1  0  0  0  0
 30 33  1  0  0  0  0
M  END
$$$$

  -OEChem-01062216083D

 33 32  0     1  0  0  0  0  0999 V2000
   -3.5677   -2.4199    1.1345 H   0  0  0  0  0  0  0  0  0  0  0  0
   -3.5682   -1.4246    0.6814 C   0  0  0  0  0  0  0  0  0  0  0  0
   -4.3717   -0.8340    1.1280 H   0  0  0  0  0  0  0  0  0  0  0  0
   -3.7525   -1.5273   -0.3907 H   0  0  0  0  0  0  0  0  0  0  0  0
   -2.2337   -0.7430    0.9172 C   0  0  0  0  0  0  0  0  0  0  0  0
   -1.3937   -1.2771    1.6239 O   0  0  0  0  0  0  0  0  0  0  0  0
   -1.9896    0.4968    0.3623 N   0  0  0  0  0  0  0  0  0  0  0  0
   -2.7062    0.8723   -0.2548 H   0  0  0  0  0  0  0  0  0  0  0  0
   -0.6841    1.1769    0.3633 C   0  0  1  0  0  0  0  0  0  0  0  0
   -0.1220    0.9135    1.2653 H   0  0  0  0  0  0  0  0  0  0  0  0
    0.1573    0.7820   -0.8720 C   0  0  0  0  0  0  0  0  0  0  0  0
   -0.4257    0.9673   -1.7807 H   0  0  0  0  0  0  0  0  0  0  0  0
    1.0434    1.4247   -0.9130 H   0  0  0  0  0  0  0  0  0  0  0  0
    0.6191   -0.6821   -0.8585 C   0  0  0  0  0  0  0  0  0  0  0  0
    1.2015   -0.8767    0.0484 H   0  0  0  0  0  0  0  0  0  0  0  0
   -0.2481   -1.3478   -0.8537 H   0  0  0  0  0  0  0  0  0  0  0  0
    1.4660   -0.9885   -2.0982 C   0  0  0  0  0  0  0  0  0  0  0  0
    0.8824   -0.7809   -3.0009 H   0  0  0  0  0  0  0  0  0  0  0  0
    2.3499   -0.3423   -2.1104 H   0  0  0  0  0  0  0  0  0  0  0  0
    1.9083   -2.4487   -2.1041 C   0  0  0  0  0  0  0  0  0  0  0  0
    2.5149   -2.6610   -1.2167 H   0  0  0  0  0  0  0  0  0  0  0  0
    1.0320   -3.1062   -2.0822 H   0  0  0  0  0  0  0  0  0  0  0  0
    2.6924   -2.6944   -3.3185 N   0  0  0  0  0  0  0  0  0  0  0  0
    3.0082   -3.6631   -3.3648 H   0  0  0  0  0  0  0  0  0  0  0  0
    2.1632   -2.4434   -4.1533 H   0  0  0  0  0  0  0  0  0  0  0  0
   -0.9089    2.7036    0.3841 C   0  0  0  0  0  0  0  0  0  0  0  0
   -1.1187    3.3272   -0.6490 O   0  0  0  0  0  0  0  0  0  0  0  0
   -1.0003    3.3629    1.5960 N   0  0  0  0  0  0  0  0  0  0  0  0
   -0.9014    2.8051    2.4399 H   0  0  0  0  0  0  0  0  0  0  0  0
   -1.2964    4.7852    1.7175 C   0  0  0  0  0  0  0  0  0  0  0  0
   -2.2590    5.0183    1.2504 H   0  0  0  0  0  0  0  0  0  0  0  0
   -1.3457    5.0722    2.7722 H   0  0  0  0  0  0  0  0  0  0  0  0
   -0.5159    5.3810    1.2329 H   0  0  0  0  0  0  0  0  0  0  0  0
  1  2  1  0  0  0  0
  2  3  1  0  0  0  0
  2  4  1  0  0  0  0
  2  5  1  0  0  0  0
  5  6  2  0  0  0  0
  5  7  1  0  0  0  0
  7  8  1  0  0  0  0
  7  9  1  0  0  0  0
  9 10  1  0  0  0  0
  9 11  1  0  0  0  0
  9 26  1  0  0  0  0
 11 12  1  0  0  0  0
 11 13  1  0  0  0  0
 11 14  1  0  0  0  0
 14 15  1  0  0  0  0
 14 16  1  0  0  0  0
 14 17  1  0  0  0  0
 17 18  1  0  0  0  0
 17 19  1  0  0  0  0
 17 20  1  0  0  0  0
 20 21  1  0  0  0  0
 20 22  1  0  0  0  0
 20 23  1  0  0  0  0
 23 24  1  0  0  0  0
 23 25  1  0  0  0  0
 26 27  2  0  0  0  0
 26 28  1  0  0  0  0
 28 29  1  0  0  0  0
 28 30  1  0  0  0  0
 30 31  1  0  0  0  0
 30 32  1  0  0  0  0
 30 33  1  0  0  0  0
M  END
$$$$

  -OEChem-01062216083D

 33 32  0     1  0  0  0  0  0999 V2000
   -3.6014   -2.3976    1.1550 H   0  0  0  0  0  0  0  0  0  0  0  0
   -3.5889   -1.4045    0.6972 C   0  0  0  0  0  0  0  0  0  0  0  0
   -4.3787   -0.7985    1.1476 H   0  0  0  0  0  0  0  0  0  0  0  0
   -3.7833   -1.5082   -0.3730 H   0  0  0  0  0  0  0  0  0  0  0  0
   -2.2407   -0.7450    0.9171 C   0  0  0  0  0  0  0  0  0  0  0  0
   -1.3971   -1.2975    1.6055 O   0  0  0  0  0  0  0  0  0  0  0  0
   -1.9840    0.4907    0.3595 N   0  0  0  0  0  0  0  0  0  0  0  0
   -2.7089    0.8932   -0.2312 H   0  0  0  0  0  0  0  0  0  0  0  0
   -0.6772    1.1662    0.3674 C   0  0  1  0  0  0  0  0  0  0  0  0
   -0.1208    0.8995    1.2721 H   0  0  0  0  0  0  0  0  0  0  0  0
    0.1670    0.7800   -0.8669 C   0  0  0  0  0  0  0  0  0  0  0  0
   -0.4131    0.9734   -1.7756 H   0  0  0  0  0  0  0  0  0  0  0  0
    1.0542    1.4214   -0.9010 H   0  0  0  0  0  0  0  0  0  0  0  0
    0.6244   -0.6852   -0.8611 C   0  0  0  0  0  0  0  0  0  0  0  0
    1.2011   -0.8887    0.0478 H   0  0  0  0  0  0  0  0  0  0  0  0
   -0.2459   -1.3474   -0.8658 H   0  0  0  0  0  0  0  0  0  0  0  0
    1.4757   -0.9867   -2.0989 C   0  0  0  0  0  0  0  0  0  0  0  0
    0.8976   -0.7725   -3.0033 H   0  0  0  0  0  0  0  0  0  0  0  0
    2.3620   -0.3439   -2.1039 H   0  0  0  0  0  0  0  0  0  0  0  0
    1.9122   -2.4485   -2.1100 C   0  0  0  0  0  0  0  0  0  0  0  0
    2.5129   -2.6676   -1.2200 H   0  0  0  0  0  0  0  0  0  0  0  0
    1.0332   -3.1028   -2.0961 H   0  0  0  0  0  0  0  0  0  0  0  0
    2.7011   -2.6905   -3.3220 N   0  0  0  0  0  0  0  0  0  0  0  0
    3.0151   -3.6596   -3.3709 H   0  0  0  0  0  0  0  0  0  0  0  0
    2.1755   -2.4353   -4.1579 H   0  0  0  0  0  0  0  0  0  0  0  0
   -0.8953    2.6925    0.3785 C   0  0  0  0  0  0  0  0  0  0  0  0
   -1.3600    3.2594   -0.6033 O   0  0  0  0  0  0  0  0  0  0  0  0
   -0.6881    3.4141    1.5394 N   0  0  0  0  0  0  0  0  0  0  0  0
   -0.3863    2.9011    2.3631 H   0  0  0  0  0  0  0  0  0  0  0  0
   -0.9655    4.8405    1.6566 C   0  0  0  0  0  0  0  0  0  0  0  0
   -2.0201    5.0451    1.4440 H   0  0  0  0  0  0  0  0  0  0  0  0
   -0.7438    5.1873    2.6705 H   0  0  0  0  0  0  0  0  0  0  0  0
   -0.3474    5.4091    0.9538 H   0  0  0  0  0  0  0  0  0  0  0  0
  1  2  1  0  0  0  0
  2  3  1  0  0  0  0
  2  4  1  0  0  0  0
  2  5  1  0  0  0  0
  5  6  2  0  0  0  0
  5  7  1  0  0  0  0
  7  8  1  0  0  0  0
  7  9  1  0  0  0  0
  9 10  1  0  0  0  0
  9 11  1  0  0  0  0
  9 26  1  0  0  0  0
 11 12  1  0  0  0  0
 11 13  1  0  0  0  0
 11 14  1  0  0  0  0
 14 15  1  0  0  0  0
 14 16  1  0  0  0  0
 14 17  1  0  0  0  0
 17 18  1  0  0  0  0
 17 19  1  0  0  0  0
 17 20  1  0  0  0  0
 20 21  1  0  0  0  0
 20 22  1  0  0  0  0
 20 23  1  0  0  0  0
 23 24  1  0  0  0  0
 23 25  1  0  0  0  0
 26 27  2  0  0  0  0
 26 28  1  0  0  0  0
 28 29  1  0  0  0  0
 28 30  1  0  0  0  0
 30 31  1  0  0  0  0
 30 32  1  0  0  0  0
 30 33  1  0  0  0  0
M  END
$$$$

  -OEChem-01062216083D

 33 32  0     1  0  0  0  0  0999 V2000
   -3.6511   -2.3695    1.2004 H   0  0  0  0  0  0  0  0  0  0  0  0
   -3.6213   -1.3870    0.7211 C   0  0  0  0  0  0  0  0  0  0  0  0
   -4.3893   -0.7522    1.1693 H   0  0  0  0  0  0  0  0  0  0  0  0
   -3.8348   -1.5082   -0.3436 H   0  0  0  0  0  0  0  0  0  0  0  0
   -2.2545   -0.7558    0.9075 C   0  0  0  0  0  0  0  0  0  0  0  0
   -1.4039   -1.3294    1.5699 O   0  0  0  0  0  0  0  0  0  0  0  0
   -1.9879    0.4771    0.3488 N   0  0  0  0  0  0  0  0  0  0  0  0
   -2.7290    0.9165   -0.1944 H   0  0  0  0  0  0  0  0  0  0  0  0
   -0.6823    1.1543    0.3634 C   0  0  1  0  0  0  0  0  0  0  0  0
   -0.1343    0.8864    1.2727 H   0  0  0  0  0  0  0  0  0  0  0  0
    0.1684    0.7777   -0.8676 C   0  0  0  0  0  0  0  0  0  0  0  0
   -0.4085    0.9753   -1.7776 H   0  0  0  0  0  0  0  0  0  0  0  0
    1.0550    1.4206   -0.8937 H   0  0  0  0  0  0  0  0  0  0  0  0
    0.6287   -0.6863   -0.8654 C   0  0  0  0  0  0  0  0  0  0  0  0
    1.2004   -0.8924    0.0457 H   0  0  0  0  0  0  0  0  0  0  0  0
   -0.2403   -1.3501   -0.8769 H   0  0  0  0  0  0  0  0  0  0  0  0
    1.4873   -0.9810   -2.0995 C   0  0  0  0  0  0  0  0  0  0  0  0
    0.9135   -0.7638   -3.0063 H   0  0  0  0  0  0  0  0  0  0  0  0
    2.3725   -0.3365   -2.0965 H   0  0  0  0  0  0  0  0  0  0  0  0
    1.9262   -2.4420   -2.1130 C   0  0  0  0  0  0  0  0  0  0  0  0
    2.5227   -2.6625   -1.2206 H   0  0  0  0  0  0  0  0  0  0  0  0
    1.0483   -3.0975   -2.1055 H   0  0  0  0  0  0  0  0  0  0  0  0
    2.7225   -2.6802   -3.3208 N   0  0  0  0  0  0  0  0  0  0  0  0
    3.0419   -3.6478   -3.3675 H   0  0  0  0  0  0  0  0  0  0  0  0
    2.1993   -2.4288   -4.1593 H   0  0  0  0  0  0  0  0  0  0  0  0
   -0.8946    2.6812    0.3655 C   0  0  0  0  0  0  0  0  0  0  0  0
   -1.5813    3.2042   -0.5047 O   0  0  0  0  0  0  0  0  0  0  0  0
   -0.4097    3.4557    1.4033 N   0  0  0  0  0  0  0  0  0  0  0  0
    0.1010    2.9842    2.1445 H   0  0  0  0  0  0  0  0  0  0  0  0
   -0.6457    4.8905    1.5098 C   0  0  0  0  0  0  0  0  0  0  0  0
   -1.7186    5.0986    1.5802 H   0  0  0  0  0  0  0  0  0  0  0  0
   -0.1569    5.2890    2.4040 H   0  0  0  0  0  0  0  0  0  0  0  0
   -0.2423    5.4113    0.6350 H   0  0  0  0  0  0  0  0  0  0  0  0
  1  2  1  0  0  0  0
  2  3  1  0  0  0  0
  2  4  1  0  0  0  0
  2  5  1  0  0  0  0
  5  6  2  0  0  0  0
  5  7  1  0  0  0  0
  7  8  1  0  0  0  0
  7  9  1  0  0  0  0
  9 10  1  0  0  0  0
  9 11  1  0  0  0  0
  9 26  1  0  0  0  0
 11 12  1  0  0  0  0
 11 13  1  0  0  0  0
 11 14  1  0  0  0  0
 14 15  1  0  0  0  0
 14 16  1  0  0  0  0
 14 17  1  0  0  0  0
 17 18  1  0  0  0  0
 17 19  1  0  0  0  0
 17 20  1  0  0  0  0
 20 21  1  0  0  0  0
 20 22  1  0  0  0  0
 20 23  1  0  0  0  0
 23 24  1  0  0  0  0
 23 25  1  0  0  0  0
 26 27  2  0  0  0  0
 26 28  1  0  0  0  0
 28 29  1  0  0  0  0
 28 30  1  0  0  0  0
 30 31  1  0  0  0  0
 30 32  1  0  0  0  0
 30 33  1  0  0  0  0
M  END
$$$$

  -OEChem-01062216083D

 33 32  0     1  0  0  0  0  0999 V2000
   -3.6596   -2.3637    1.2032 H   0  0  0  0  0  0  0  0  0  0  0  0
   -3.6315   -1.3742    0.7385 C   0  0  0  0  0  0  0  0  0  0  0  0
   -4.3809   -0.7387    1.2166 H   0  0  0  0  0  0  0  0  0  0  0  0
   -3.8727   -1.4770   -0.3223 H   0  0  0  0  0  0  0  0  0  0  0  0
   -2.2538   -0.7602    0.8993 C   0  0  0  0  0  0  0  0  0  0  0  0
   -1.3968   -1.3459    1.5427 O   0  0  0  0  0  0  0  0  0  0  0  0
   -1.9847    0.4705    0.3380 N   0  0  0  0  0  0  0  0  0  0  0  0
   -2.7408    0.9376   -0.1605 H   0  0  0  0  0  0  0  0  0  0  0  0
   -0.6824    1.1536    0.3575 C   0  0  1  0  0  0  0  0  0  0  0  0
   -0.1376    0.8897    1.2701 H   0  0  0  0  0  0  0  0  0  0  0  0
    0.1695    0.7810   -0.8741 C   0  0  0  0  0  0  0  0  0  0  0  0
   -0.4096    0.9772   -1.7831 H   0  0  0  0  0  0  0  0  0  0  0  0
    1.0541    1.4261   -0.9021 H   0  0  0  0  0  0  0  0  0  0  0  0
    0.6334   -0.6819   -0.8725 C   0  0  0  0  0  0  0  0  0  0  0  0
    1.2045   -0.8869    0.0391 H   0  0  0  0  0  0  0  0  0  0  0  0
   -0.2347   -1.3468   -0.8851 H   0  0  0  0  0  0  0  0  0  0  0  0
    1.4936   -0.9794   -2.1049 C   0  0  0  0  0  0  0  0  0  0  0  0
    0.9201   -0.7675   -3.0130 H   0  0  0  0  0  0  0  0  0  0  0  0
    2.3787   -0.3346   -2.1048 H   0  0  0  0  0  0  0  0  0  0  0  0
    1.9319   -2.4409   -2.1111 C   0  0  0  0  0  0  0  0  0  0  0  0
    2.5266   -2.6576   -1.2165 H   0  0  0  0  0  0  0  0  0  0  0  0
    1.0540   -3.0963   -2.1015 H   0  0  0  0  0  0  0  0  0  0  0  0
    2.7302   -2.6858   -3.3163 N   0  0  0  0  0  0  0  0  0  0  0  0
    3.0518   -3.6531   -3.3551 H   0  0  0  0  0  0  0  0  0  0  0  0
    2.2071   -2.4425   -4.1573 H   0  0  0  0  0  0  0  0  0  0  0  0
   -0.8998    2.6799    0.3512 C   0  0  0  0  0  0  0  0  0  0  0  0
   -1.7614    3.1728   -0.3688 O   0  0  0  0  0  0  0  0  0  0  0  0
   -0.1774    3.4951    1.2029 N   0  0  0  0  0  0  0  0  0  0  0  0
    0.4912    3.0514    1.8262 H   0  0  0  0  0  0  0  0  0  0  0  0
   -0.3795    4.9360    1.2941 C   0  0  0  0  0  0  0  0  0  0  0  0
   -1.4111    5.1607    1.5852 H   0  0  0  0  0  0  0  0  0  0  0  0
    0.2922    5.3659    2.0435 H   0  0  0  0  0  0  0  0  0  0  0  0
   -0.1733    5.4132    0.3303 H   0  0  0  0  0  0  0  0  0  0  0  0
  1  2  1  0  0  0  0
  2  3  1  0  0  0  0
  2  4  1  0  0  0  0
  2  5  1  0  0  0  0
  5  6  2  0  0  0  0
  5  7  1  0  0  0  0
  7  8  1  0  0  0  0
  7  9  1  0  0  0  0
  9 10  1  0  0  0  0
  9 11  1  0  0  0  0
  9 26  1  0  0  0  0
 11 12  1  0  0  0  0
 11 13  1  0  0  0  0
 11 14  1  0  0  0  0
 14 15  1  0  0  0  0
 14 16  1  0  0  0  0
 14 17  1  0  0  0  0
 17 18  1  0  0  0  0
 17 19  1  0  0  0  0
 17 20  1  0  0  0  0
 20 21  1  0  0  0  0
 20 22  1  0  0  0  0
 20 23  1  0  0  0  0
 23 24  1  0  0  0  0
 23 25  1  0  0  0  0
 26 27  2  0  0  0  0
 26 28  1  0  0  0  0
 28 29  1  0  0  0  0
 28 30  1  0  0  0  0
 30 31  1  0  0  0  0
 30 32  1  0  0  0  0
 30 33  1  0  0  0  0
M  END
$$$$

  -OEChem-01062216083D

 33 32  0     1  0  0  0  0  0999 V2000
   -3.7028   -2.3387    1.2471 H   0  0  0  0  0  0  0  0  0  0  0  0
   -3.6635   -1.3559    0.7694 C   0  0  0  0  0  0  0  0  0  0  0  0
   -4.3869   -0.6975    1.2566 H   0  0  0  0  0  0  0  0  0  0  0  0
   -3.9326   -1.4651   -0.2840 H   0  0  0  0  0  0  0  0  0  0  0  0
   -2.2690   -0.7716    0.8896 C   0  0  0  0  0  0  0  0  0  0  0  0
   -1.4052   -1.3761    1.5062 O   0  0  0  0  0  0  0  0  0  0  0  0
   -1.9942    0.4562    0.3252 N   0  0  0  0  0  0  0  0  0  0  0  0
   -2.7662    0.9593   -0.1111 H   0  0  0  0  0  0  0  0  0  0  0  0
   -0.6942    1.1435    0.3561 C   0  0  1  0  0  0  0  0  0  0  0  0
   -0.1589    0.8857    1.2762 H   0  0  0  0  0  0  0  0  0  0  0  0
    0.1667    0.7722   -0.8696 C   0  0  0  0  0  0  0  0  0  0  0  0
   -0.4079    0.9677   -1.7813 H   0  0  0  0  0  0  0  0  0  0  0  0
    1.0504    1.4187   -0.8922 H   0  0  0  0  0  0  0  0  0  0  0  0
    0.6364   -0.6887   -0.8698 C   0  0  0  0  0  0  0  0  0  0  0  0
    1.2032   -0.8947    0.0445 H   0  0  0  0  0  0  0  0  0  0  0  0
   -0.2286   -1.3574   -0.8903 H   0  0  0  0  0  0  0  0  0  0  0  0
    1.5044   -0.9740   -2.1000 C   0  0  0  0  0  0  0  0  0  0  0  0
    0.9343   -0.7587   -3.0094 H   0  0  0  0  0  0  0  0  0  0  0  0
    2.3854   -0.3240   -2.0910 H   0  0  0  0  0  0  0  0  0  0  0  0
    1.9530   -2.4321   -2.1165 C   0  0  0  0  0  0  0  0  0  0  0  0
    2.5454   -2.6527   -1.2215 H   0  0  0  0  0  0  0  0  0  0  0  0
    1.0793   -3.0936   -2.1170 H   0  0  0  0  0  0  0  0  0  0  0  0
    2.7577   -2.6589   -3.3211 N   0  0  0  0  0  0  0  0  0  0  0  0
    3.0836   -3.6242   -3.3702 H   0  0  0  0  0  0  0  0  0  0  0  0
    2.2370   -2.4080   -4.1612 H   0  0  0  0  0  0  0  0  0  0  0  0
   -0.9107    2.6710    0.3380 C   0  0  0  0  0  0  0  0  0  0  0  0
   -1.9056    3.1451   -0.2009 O   0  0  0  0  0  0  0  0  0  0  0  0
   -0.0041    3.5153    0.9520 N   0  0  0  0  0  0  0  0  0  0  0  0
    0.7943    3.0931    1.4175 H   0  0  0  0  0  0  0  0  0  0  0  0
   -0.1629    4.9638    0.9942 C   0  0  0  0  0  0  0  0  0  0  0  0
   -1.0829    5.2329    1.5237 H   0  0  0  0  0  0  0  0  0  0  0  0
    0.6829    5.4226    1.5152 H   0  0  0  0  0  0  0  0  0  0  0  0
   -0.2073    5.3741   -0.0203 H   0  0  0  0  0  0  0  0  0  0  0  0
  1  2  1  0  0  0  0
  2  3  1  0  0  0  0
  2  4  1  0  0  0  0
  2  5  1  0  0  0  0
  5  6  2  0  0  0  0
  5  7  1  0  0  0  0
  7  8  1  0  0  0  0
  7  9  1  0  0  0  0
  9 10  1  0  0  0  0
  9 11  1  0  0  0  0
  9 26  1  0  0  0  0
 11 12  1  0  0  0  0
 11 13  1  0  0  0  0
 11 14  1  0  0  0  0
 14 15  1  0  0  0  0
 14 16  1  0  0  0  0
 14 17  1  0  0  0  0
 17 18  1  0  0  0  0
 17 19  1  0  0  0  0
 17 20  1  0  0  0  0
 20 21  1  0  0  0  0
 20 22  1  0  0  0  0
 20 23  1  0  0  0  0
 23 24  1  0  0  0  0
 23 25  1  0  0  0  0
 26 27  2  0  0  0  0
 26 28  1  0  0  0  0
 28 29  1  0  0  0  0
 28 30  1  0  0  0  0
 30 31  1  0  0  0  0
 30 32  1  0  0  0  0
 30 33  1  0  0  0  0
M  END
$$$$

  -OEChem-01062216083D

 33 32  0     1  0  0  0  0  0999 V2000
   -3.7115   -2.3296    1.2681 H   0  0  0  0  0  0  0  0  0  0  0  0
   -3.6731   -1.3483    0.7871 C   0  0  0  0  0  0  0  0  0  0  0  0
   -4.3767   -0.6809    1.2905 H   0  0  0  0  0  0  0  0  0  0  0  0
   -3.9691   -1.4566   -0.2591 H   0  0  0  0  0  0  0  0  0  0  0  0
   -2.2695   -0.7792    0.8717 C   0  0  0  0  0  0  0  0  0  0  0  0
   -1.3974   -1.3963    1.4636 O   0  0  0  0  0  0  0  0  0  0  0  0
   -1.9983    0.4503    0.3088 N   0  0  0  0  0  0  0  0  0  0  0  0
   -2.7873    0.9830   -0.0569 H   0  0  0  0  0  0  0  0  0  0  0  0
   -0.7018    1.1450    0.3471 C   0  0  1  0  0  0  0  0  0  0  0  0
   -0.1687    0.8907    1.2694 H   0  0  0  0  0  0  0  0  0  0  0  0
    0.1636    0.7737   -0.8781 C   0  0  0  0  0  0  0  0  0  0  0  0
   -0.4108    0.9659   -1.7907 H   0  0  0  0  0  0  0  0  0  0  0  0
    1.0467    1.4204   -0.9033 H   0  0  0  0  0  0  0  0  0  0  0  0
    0.6388   -0.6854   -0.8771 C   0  0  0  0  0  0  0  0  0  0  0  0
    1.2038   -0.8893    0.0387 H   0  0  0  0  0  0  0  0  0  0  0  0
   -0.2238   -1.3570   -0.8998 H   0  0  0  0  0  0  0  0  0  0  0  0
    1.5101   -0.9711   -2.1050 C   0  0  0  0  0  0  0  0  0  0  0  0
    0.9417   -0.7596   -3.0165 H   0  0  0  0  0  0  0  0  0  0  0  0
    2.3900   -0.3195   -2.0957 H   0  0  0  0  0  0  0  0  0  0  0  0
    1.9615   -2.4284   -2.1152 C   0  0  0  0  0  0  0  0  0  0  0  0
    2.5521   -2.6440   -1.2178 H   0  0  0  0  0  0  0  0  0  0  0  0
    1.0892   -3.0918   -2.1149 H   0  0  0  0  0  0  0  0  0  0  0  0
    2.7699   -2.6592   -3.3167 N   0  0  0  0  0  0  0  0  0  0  0  0
    3.1052   -3.6218   -3.3555 H   0  0  0  0  0  0  0  0  0  0  0  0
    2.2475   -2.4221   -4.1599 H   0  0  0  0  0  0  0  0  0  0  0  0
   -0.9222    2.6741    0.3283 C   0  0  0  0  0  0  0  0  0  0  0  0
   -2.0122    3.1393    0.0096 O   0  0  0  0  0  0  0  0  0  0  0  0
    0.1064    3.5353    0.6654 N   0  0  0  0  0  0  0  0  0  0  0  0
    0.9950    3.1253    0.9390 H   0  0  0  0  0  0  0  0  0  0  0  0
   -0.0342    4.9863    0.6721 C   0  0  0  0  0  0  0  0  0  0  0  0
   -0.8017    5.2929    1.3906 H   0  0  0  0  0  0  0  0  0  0  0  0
    0.9119    5.4576    0.9550 H   0  0  0  0  0  0  0  0  0  0  0  0
   -0.3167    5.3484   -0.3221 H   0  0  0  0  0  0  0  0  0  0  0  0
  1  2  1  0  0  0  0
  2  3  1  0  0  0  0
  2  4  1  0  0  0  0
  2  5  1  0  0  0  0
  5  6  2  0  0  0  0
  5  7  1  0  0  0  0
  7  8  1  0  0  0  0
  7  9  1  0  0  0  0
  9 10  1  0  0  0  0
  9 11  1  0  0  0  0
  9 26  1  0  0  0  0
 11 12  1  0  0  0  0
 11 13  1  0  0  0  0
 11 14  1  0  0  0  0
 14 15  1  0  0  0  0
 14 16  1  0  0  0  0
 14 17  1  0  0  0  0
 17 18  1  0  0  0  0
 17 19  1  0  0  0  0
 17 20  1  0  0  0  0
 20 21  1  0  0  0  0
 20 22  1  0  0  0  0
 20 23  1  0  0  0  0
 23 24  1  0  0  0  0
 23 25  1  0  0  0  0
 26 27  2  0  0  0  0
 26 28  1  0  0  0  0
 28 29  1  0  0  0  0
 28 30  1  0  0  0  0
 30 31  1  0  0  0  0
 30 32  1  0  0  0  0
 30 33  1  0  0  0  0
M  END
$$$$

  -OEChem-01062216083D

 33 32  0     1  0  0  0  0  0999 V2000
   -3.6271   -2.3086    1.3328 H   0  0  0  0  0  0  0  0  0  0  0  0
   -3.6262   -1.3288    0.8473 C   0  0  0  0  0  0  0  0  0  0  0  0
   -4.2378   -0.6425    1.4382 H   0  0  0  0  0  0  0  0  0  0  0  0
   -4.0624   -1.4283   -0.1495 H   0  0  0  0  0  0  0  0  0  0  0  0
   -2.2087   -0.7991    0.7404 C   0  0  0  0  0  0  0  0  0  0  0  0
   -1.2733   -1.4826    1.1276 O   0  0  0  0  0  0  0  0  0  0  0  0
   -1.9891    0.4536    0.2056 N   0  0  0  0  0  0  0  0  0  0  0  0
   -2.8140    1.0407    0.0857 H   0  0  0  0  0  0  0  0  0  0  0  0
   -0.7019    1.1652    0.2686 C   0  0  1  0  0  0  0  0  0  0  0  0
   -0.0528    0.7185    1.0292 H   0  0  0  0  0  0  0  0  0  0  0  0
   -0.0084    1.0879   -1.1076 C   0  0  0  0  0  0  0  0  0  0  0  0
   -0.6940    1.4550   -1.8789 H   0  0  0  0  0  0  0  0  0  0  0  0
    0.8723    1.7377   -1.1113 H   0  0  0  0  0  0  0  0  0  0  0  0
    0.4438   -0.3371   -1.4560 C   0  0  0  0  0  0  0  0  0  0  0  0
    1.1215   -0.7076   -0.6795 H   0  0  0  0  0  0  0  0  0  0  0  0
   -0.4233   -1.0038   -1.4921 H   0  0  0  0  0  0  0  0  0  0  0  0
    1.1485   -0.3633   -2.8163 C   0  0  0  0  0  0  0  0  0  0  0  0
    0.4709    0.0170   -3.5874 H   0  0  0  0  0  0  0  0  0  0  0  0
    2.0303    0.2853   -2.7898 H   0  0  0  0  0  0  0  0  0  0  0  0
    1.5762   -1.7837   -3.1733 C   0  0  0  0  0  0  0  0  0  0  0  0
    2.2741   -2.1656   -2.4198 H   0  0  0  0  0  0  0  0  0  0  0  0
    0.7032   -2.4454   -3.1939 H   0  0  0  0  0  0  0  0  0  0  0  0
    2.2222   -1.7605   -4.4893 N   0  0  0  0  0  0  0  0  0  0  0  0
    2.5433   -2.6906   -4.7586 H   0  0  0  0  0  0  0  0  0  0  0  0
    1.5980   -1.3729   -5.1964 H   0  0  0  0  0  0  0  0  0  0  0  0
   -0.9211    2.6425    0.6705 C   0  0  0  0  0  0  0  0  0  0  0  0
   -2.0567    3.0734    0.8448 O   0  0  0  0  0  0  0  0  0  0  0  0
    0.1498    3.5096    0.7957 N   0  0  0  0  0  0  0  0  0  0  0  0
    1.0817    3.1311    0.6529 H   0  0  0  0  0  0  0  0  0  0  0  0
    0.0066    4.9149    1.1568 C   0  0  0  0  0  0  0  0  0  0  0  0
   -0.4676    5.0117    2.1392 H   0  0  0  0  0  0  0  0  0  0  0  0
    0.9881    5.3969    1.1980 H   0  0  0  0  0  0  0  0  0  0  0  0
   -0.6053    5.4408    0.4163 H   0  0  0  0  0  0  0  0  0  0  0  0
  1  2  1  0  0  0  0
  2  3  1  0  0  0  0
  2  4  1  0  0  0  0
  2  5  1  0  0  0  0
  5  6  2  0  0  0  0
  5  7  1  0  0  0  0
  7  8  1  0  0  0  0
  7  9  1  0  0  0  0
  9 10  1  0  0  0  0
  9 11  1  0  0  0  0
  9 26  1  0  0  0  0
 11 12  1  0  0  0  0
 11 13  1  0  0  0  0
 11 14  1  0  0  0  0
 14 15  1  0  0  0  0
 14 16  1  0  0  0  0
 14 17  1  0  0  0  0
 17 18  1  0  0  0  0
 17 19  1  0  0  0  0
 17 20  1  0  0  0  0
 20 21  1  0  0  0  0
 20 22  1  0  0  0  0
 20 23  1  0  0  0  0
 23 24  1  0  0  0  0
 23 25  1  0  0  0  0
 26 27  2  0  0  0  0
 26 28  1  0  0  0  0
 28 29  1  0  0  0  0
 28 30  1  0  0  0  0
 30 31  1  0  0  0  0
 30 32  1  0  0  0  0
 30 33  1  0  0  0  0
M  END
$$$$

  -OEChem-01062216083D

 33 32  0     1  0  0  0  0  0999 V2000
   -3.6187   -2.2881    1.3489 H   0  0  0  0  0  0  0  0  0  0  0  0
   -3.6205   -1.3099    0.8601 C   0  0  0  0  0  0  0  0  0  0  0  0
   -4.2112   -0.6160    1.4633 H   0  0  0  0  0  0  0  0  0  0  0  0
   -4.0811   -1.4083   -0.1257 H   0  0  0  0  0  0  0  0  0  0  0  0
   -2.2013   -0.7941    0.7174 C   0  0  0  0  0  0  0  0  0  0  0  0
   -1.2628   -1.4920    1.0701 O   0  0  0  0  0  0  0  0  0  0  0  0
   -1.9858    0.4619    0.1879 N   0  0  0  0  0  0  0  0  0  0  0  0
   -2.8100    1.0586    0.1261 H   0  0  0  0  0  0  0  0  0  0  0  0
   -0.6959    1.1692    0.2554 C   0  0  1  0  0  0  0  0  0  0  0  0
   -0.0485    0.7220    1.0173 H   0  0  0  0  0  0  0  0  0  0  0  0
    0.0007    1.0825   -1.1212 C   0  0  0  0  0  0  0  0  0  0  0  0
   -0.6809    1.4513   -1.8951 H   0  0  0  0  0  0  0  0  0  0  0  0
    0.8882    1.7221   -1.1275 H   0  0  0  0  0  0  0  0  0  0  0  0
    0.4476   -0.3452   -1.4656 C   0  0  0  0  0  0  0  0  0  0  0  0
    1.1215   -0.7183   -0.6869 H   0  0  0  0  0  0  0  0  0  0  0  0
   -0.4223   -1.0079   -1.5037 H   0  0  0  0  0  0  0  0  0  0  0  0
    1.1544   -0.3771   -2.8248 C   0  0  0  0  0  0  0  0  0  0  0  0
    0.4793    0.0041   -3.5977 H   0  0  0  0  0  0  0  0  0  0  0  0
    2.0387    0.2680   -2.7988 H   0  0  0  0  0  0  0  0  0  0  0  0
    1.5768   -1.8000   -3.1777 C   0  0  0  0  0  0  0  0  0  0  0  0
    2.2719   -2.1822   -2.4218 H   0  0  0  0  0  0  0  0  0  0  0  0
    0.7010   -2.4583   -3.1974 H   0  0  0  0  0  0  0  0  0  0  0  0
    2.2252   -1.7825   -4.4927 N   0  0  0  0  0  0  0  0  0  0  0  0
    2.5481   -2.7135   -4.7563 H   0  0  0  0  0  0  0  0  0  0  0  0
    1.6017   -1.3996   -5.2030 H   0  0  0  0  0  0  0  0  0  0  0  0
   -0.9237    2.6449    0.6683 C   0  0  0  0  0  0  0  0  0  0  0  0
   -2.0246    3.0042    1.0737 O   0  0  0  0  0  0  0  0  0  0  0  0
    0.0660    3.6002    0.5148 N   0  0  0  0  0  0  0  0  0  0  0  0
    0.9710    3.2898    0.1738 H   0  0  0  0  0  0  0  0  0  0  0  0
   -0.1145    5.0065    0.8559 C   0  0  0  0  0  0  0  0  0  0  0  0
   -0.3588    5.1148    1.9179 H   0  0  0  0  0  0  0  0  0  0  0  0
    0.8040    5.5657    0.6539 H   0  0  0  0  0  0  0  0  0  0  0  0
   -0.9231    5.4445    0.2614 H   0  0  0  0  0  0  0  0  0  0  0  0
  1  2  1  0  0  0  0
  2  3  1  0  0  0  0
  2  4  1  0  0  0  0
  2  5  1  0  0  0  0
  5  6  2  0  0  0  0
  5  7  1  0  0  0  0
  7  8  1  0  0  0  0
  7  9  1  0  0  0  0
  9 10  1  0  0  0  0
  9 11  1  0  0  0  0
  9 26  1  0  0  0  0
 11 12  1  0  0  0  0
 11 13  1  0  0  0  0
 11 14  1  0  0  0  0
 14 15  1  0  0  0  0
 14 16  1  0  0  0  0
 14 17  1  0  0  0  0
 17 18  1  0  0  0  0
 17 19  1  0  0  0  0
 17 20  1  0  0  0  0
 20 21  1  0  0  0  0
 20 22  1  0  0  0  0
 20 23  1  0  0  0  0
 23 24  1  0  0  0  0
 23 25  1  0  0  0  0
 26 27  2  0  0  0  0
 26 28  1  0  0  0  0
 28 29  1  0  0  0  0
 28 30  1  0  0  0  0
 30 31  1  0  0  0  0
 30 32  1  0  0  0  0
 30 33  1  0  0  0  0
M  END
$$$$

  -OEChem-01062216083D

 33 32  0     1  0  0  0  0  0999 V2000
   -3.6146   -2.2769    1.3612 H   0  0  0  0  0  0  0  0  0  0  0  0
   -3.6222   -1.2922    0.8855 C   0  0  0  0  0  0  0  0  0  0  0  0
   -4.1837   -0.6006    1.5185 H   0  0  0  0  0  0  0  0  0  0  0  0
   -4.1181   -1.3726   -0.0848 H   0  0  0  0  0  0  0  0  0  0  0  0
   -2.2030   -0.7891    0.7011 C   0  0  0  0  0  0  0  0  0  0  0  0
   -1.2622   -1.4958    1.0293 O   0  0  0  0  0  0  0  0  0  0  0  0
   -1.9921    0.4683    0.1718 N   0  0  0  0  0  0  0  0  0  0  0  0
   -2.8161    1.0667    0.1401 H   0  0  0  0  0  0  0  0  0  0  0  0
   -0.6987    1.1708    0.2384 C   0  0  1  0  0  0  0  0  0  0  0  0
   -0.0543    0.7242    1.0035 H   0  0  0  0  0  0  0  0  0  0  0  0
    0.0053    1.0750   -1.1352 C   0  0  0  0  0  0  0  0  0  0  0  0
   -0.6686    1.4468   -1.9143 H   0  0  0  0  0  0  0  0  0  0  0  0
    0.8986    1.7065   -1.1362 H   0  0  0  0  0  0  0  0  0  0  0  0
    0.4505   -0.3541   -1.4752 C   0  0  0  0  0  0  0  0  0  0  0  0
    1.1204   -0.7271   -0.6929 H   0  0  0  0  0  0  0  0  0  0  0  0
   -0.4204   -1.0153   -1.5165 H   0  0  0  0  0  0  0  0  0  0  0  0
    1.1634   -0.3883   -2.8311 C   0  0  0  0  0  0  0  0  0  0  0  0
    0.4933   -0.0062   -3.6078 H   0  0  0  0  0  0  0  0  0  0  0  0
    2.0490    0.2547   -2.8010 H   0  0  0  0  0  0  0  0  0  0  0  0
    1.5850   -1.8120   -3.1816 C   0  0  0  0  0  0  0  0  0  0  0  0
    2.2764   -2.1955   -2.4230 H   0  0  0  0  0  0  0  0  0  0  0  0
    0.7086   -2.4696   -3.2052 H   0  0  0  0  0  0  0  0  0  0  0  0
    2.2391   -1.7952   -4.4940 N   0  0  0  0  0  0  0  0  0  0  0  0
    2.5645   -2.7263   -4.7546 H   0  0  0  0  0  0  0  0  0  0  0  0
    1.6178   -1.4147   -5.2076 H   0  0  0  0  0  0  0  0  0  0  0  0
   -0.9307    2.6457    0.6572 C   0  0  0  0  0  0  0  0  0  0  0  0
   -1.9419    2.9441    1.2836 O   0  0  0  0  0  0  0  0  0  0  0  0
   -0.0927    3.6683    0.2457 N   0  0  0  0  0  0  0  0  0  0  0  0
    0.7348    3.4132   -0.2850 H   0  0  0  0  0  0  0  0  0  0  0  0
   -0.3089    5.0711    0.5803 C   0  0  0  0  0  0  0  0  0  0  0  0
   -0.3096    5.2105    1.6665 H   0  0  0  0  0  0  0  0  0  0  0  0
    0.4875    5.6882    0.1533 H   0  0  0  0  0  0  0  0  0  0  0  0
   -1.2673    5.4178    0.1797 H   0  0  0  0  0  0  0  0  0  0  0  0
  1  2  1  0  0  0  0
  2  3  1  0  0  0  0
  2  4  1  0  0  0  0
  2  5  1  0  0  0  0
  5  6  2  0  0  0  0
  5  7  1  0  0  0  0
  7  8  1  0  0  0  0
  7  9  1  0  0  0  0
  9 10  1  0  0  0  0
  9 11  1  0  0  0  0
  9 26  1  0  0  0  0
 11 12  1  0  0  0  0
 11 13  1  0  0  0  0
 11 14  1  0  0  0  0
 14 15  1  0  0  0  0
 14 16  1  0  0  0  0
 14 17  1  0  0  0  0
 17 18  1  0  0  0  0
 17 19  1  0  0  0  0
 17 20  1  0  0  0  0
 20 21  1  0  0  0  0
 20 22  1  0  0  0  0
 20 23  1  0  0  0  0
 23 24  1  0  0  0  0
 23 25  1  0  0  0  0
 26 27  2  0  0  0  0
 26 28  1  0  0  0  0
 28 29  1  0  0  0  0
 28 30  1  0  0  0  0
 30 31  1  0  0  0  0
 30 32  1  0  0  0  0
 30 33  1  0  0  0  0
M  END
$$$$

  -OEChem-01062216083D

 33 32  0     1  0  0  0  0  0999 V2000
   -3.6109   -2.2714    1.3683 H   0  0  0  0  0  0  0  0  0  0  0  0
   -3.6215   -1.2854    0.8953 C   0  0  0  0  0  0  0  0  0  0  0  0
   -4.1745   -0.5941    1.5360 H   0  0  0  0  0  0  0  0  0  0  0  0
   -4.1282   -1.3625   -0.0697 H   0  0  0  0  0  0  0  0  0  0  0  0
   -2.2031   -0.7846    0.6978 C   0  0  0  0  0  0  0  0  0  0  0  0
   -1.2611   -1.4962    1.0108 O   0  0  0  0  0  0  0  0  0  0  0  0
   -1.9967    0.4741    0.1690 N   0  0  0  0  0  0  0  0  0  0  0  0
   -2.8224    1.0690    0.1446 H   0  0  0  0  0  0  0  0  0  0  0  0
   -0.7013    1.1740    0.2264 C   0  0  1  0  0  0  0  0  0  0  0  0
   -0.0557    0.7287    0.9914 H   0  0  0  0  0  0  0  0  0  0  0  0
    0.0059    1.0728   -1.1452 C   0  0  0  0  0  0  0  0  0  0  0  0
   -0.6651    1.4421   -1.9281 H   0  0  0  0  0  0  0  0  0  0  0  0
    0.9002    1.7034   -1.1414 H   0  0  0  0  0  0  0  0  0  0  0  0
    0.4522   -0.3569   -1.4804 C   0  0  0  0  0  0  0  0  0  0  0  0
    1.1201   -0.7278   -0.6956 H   0  0  0  0  0  0  0  0  0  0  0  0
   -0.4188   -1.0178   -1.5224 H   0  0  0  0  0  0  0  0  0  0  0  0
    1.1678   -0.3946   -2.8349 C   0  0  0  0  0  0  0  0  0  0  0  0
    0.4993   -0.0149   -3.6140 H   0  0  0  0  0  0  0  0  0  0  0  0
    2.0534    0.2488   -2.8048 H   0  0  0  0  0  0  0  0  0  0  0  0
    1.5905   -1.8192   -3.1804 C   0  0  0  0  0  0  0  0  0  0  0  0
    2.2807   -2.1999   -2.4193 H   0  0  0  0  0  0  0  0  0  0  0  0
    0.7147   -2.4771   -3.2037 H   0  0  0  0  0  0  0  0  0  0  0  0
    2.2473   -1.8061   -4.4915 N   0  0  0  0  0  0  0  0  0  0  0  0
    2.5786   -2.7367   -4.7463 H   0  0  0  0  0  0  0  0  0  0  0  0
    1.6254   -1.4333   -5.2085 H   0  0  0  0  0  0  0  0  0  0  0  0
   -0.9336    2.6465    0.6509 C   0  0  0  0  0  0  0  0  0  0  0  0
   -1.7950    2.8989    1.4849 O   0  0  0  0  0  0  0  0  0  0  0  0
   -0.3115    3.7094    0.0171 N   0  0  0  0  0  0  0  0  0  0  0  0
    0.3778    3.4930   -0.6965 H   0  0  0  0  0  0  0  0  0  0  0  0
   -0.5650    5.1066    0.3497 C   0  0  0  0  0  0  0  0  0  0  0  0
   -0.3218    5.3004    1.3998 H   0  0  0  0  0  0  0  0  0  0  0  0
    0.0508    5.7618   -0.2740 H   0  0  0  0  0  0  0  0  0  0  0  0
   -1.6174    5.3569    0.1797 H   0  0  0  0  0  0  0  0  0  0  0  0
  1  2  1  0  0  0  0
  2  3  1  0  0  0  0
  2  4  1  0  0  0  0
  2  5  1  0  0  0  0
  5  6  2  0  0  0  0
  5  7  1  0  0  0  0
  7  8  1  0  0  0  0
  7  9  1  0  0  0  0
  9 10  1  0  0  0  0
  9 11  1  0  0  0  0
  9 26  1  0  0  0  0
 11 12  1  0  0  0  0
 11 13  1  0  0  0  0
 11 14  1  0  0  0  0
 14 15  1  0  0  0  0
 14 16  1  0  0  0  0
 14 17  1  0  0  0  0
 17 18  1  0  0  0  0
 17 19  1  0  0  0  0
 17 20  1  0  0  0  0
 20 21  1  0  0  0  0
 20 22  1  0  0  0  0
 20 23  1  0  0  0  0
 23 24  1  0  0  0  0
 23 25  1  0  0  0  0
 26 27  2  0  0  0  0
 26 28  1  0  0  0  0
 28 29  1  0  0  0  0
 28 30  1  0  0  0  0
 30 31  1  0  0  0  0
 30 32  1  0  0  0  0
 30 33  1  0  0  0  0
M  END
$$$$

  -OEChem-01062216083D

 33 32  0     1  0  0  0  0  0999 V2000
   -3.6094   -2.2758    1.3746 H   0  0  0  0  0  0  0  0  0  0  0  0
   -3.6231   -1.2879    0.9059 C   0  0  0  0  0  0  0  0  0  0  0  0
   -4.1719   -0.6000    1.5540 H   0  0  0  0  0  0  0  0  0  0  0  0
   -4.1356   -1.3606   -0.0561 H   0  0  0  0  0  0  0  0  0  0  0  0
   -2.2062   -0.7861    0.7009 C   0  0  0  0  0  0  0  0  0  0  0  0
   -1.2622   -1.4973    1.0082 O   0  0  0  0  0  0  0  0  0  0  0  0
   -2.0053    0.4730    0.1698 N   0  0  0  0  0  0  0  0  0  0  0  0
   -2.8356    1.0591    0.1283 H   0  0  0  0  0  0  0  0  0  0  0  0
   -0.7109    1.1751    0.2189 C   0  0  1  0  0  0  0  0  0  0  0  0
   -0.0634    0.7318    0.9836 H   0  0  0  0  0  0  0  0  0  0  0  0
   -0.0011    1.0730   -1.1503 C   0  0  0  0  0  0  0  0  0  0  0  0
   -0.6713    1.4354   -1.9370 H   0  0  0  0  0  0  0  0  0  0  0  0
    0.8886    1.7110   -1.1416 H   0  0  0  0  0  0  0  0  0  0  0  0
    0.4509   -0.3557   -1.4811 C   0  0  0  0  0  0  0  0  0  0  0  0
    1.1191   -0.7229   -0.6947 H   0  0  0  0  0  0  0  0  0  0  0  0
   -0.4177   -1.0202   -1.5221 H   0  0  0  0  0  0  0  0  0  0  0  0
    1.1688   -0.3926   -2.8343 C   0  0  0  0  0  0  0  0  0  0  0  0
    0.4997   -0.0171   -3.6149 H   0  0  0  0  0  0  0  0  0  0  0  0
    2.0514    0.2547   -2.8037 H   0  0  0  0  0  0  0  0  0  0  0  0
    1.5983   -1.8156   -3.1774 C   0  0  0  0  0  0  0  0  0  0  0  0
    2.2892   -2.1918   -2.4146 H   0  0  0  0  0  0  0  0  0  0  0  0
    0.7255   -2.4777   -3.2004 H   0  0  0  0  0  0  0  0  0  0  0  0
    2.2570   -1.8020   -4.4875 N   0  0  0  0  0  0  0  0  0  0  0  0
    2.5946   -2.7313   -4.7392 H   0  0  0  0  0  0  0  0  0  0  0  0
    1.6339   -1.4350   -5.2063 H   0  0  0  0  0  0  0  0  0  0  0  0
   -0.9410    2.6462    0.6433 C   0  0  0  0  0  0  0  0  0  0  0  0
   -1.6025    2.8791    1.6466 O   0  0  0  0  0  0  0  0  0  0  0  0
   -0.5800    3.7142   -0.1615 N   0  0  0  0  0  0  0  0  0  0  0  0
   -0.0661    3.5077   -1.0128 H   0  0  0  0  0  0  0  0  0  0  0  0
   -0.8585    5.1060    0.1738 C   0  0  0  0  0  0  0  0  0  0  0  0
   -0.3815    5.3743    1.1225 H   0  0  0  0  0  0  0  0  0  0  0  0
   -0.4717    5.7678   -0.6071 H   0  0  0  0  0  0  0  0  0  0  0  0
   -1.9376    5.2705    0.2629 H   0  0  0  0  0  0  0  0  0  0  0  0
  1  2  1  0  0  0  0
  2  3  1  0  0  0  0
  2  4  1  0  0  0  0
  2  5  1  0  0  0  0
  5  6  2  0  0  0  0
  5  7  1  0  0  0  0
  7  8  1  0  0  0  0
  7  9  1  0  0  0  0
  9 10  1  0  0  0  0
  9 11  1  0  0  0  0
  9 26  1  0  0  0  0
 11 12  1  0  0  0  0
 11 13  1  0  0  0  0
 11 14  1  0  0  0  0
 14 15  1  0  0  0  0
 14 16  1  0  0  0  0
 14 17  1  0  0  0  0
 17 18  1  0  0  0  0
 17 19  1  0  0  0  0
 17 20  1  0  0  0  0
 20 21  1  0  0  0  0
 20 22  1  0  0  0  0
 20 23  1  0  0  0  0
 23 24  1  0  0  0  0
 23 25  1  0  0  0  0
 26 27  2  0  0  0  0
 26 28  1  0  0  0  0
 28 29  1  0  0  0  0
 28 30  1  0  0  0  0
 30 31  1  0  0  0  0
 30 32  1  0  0  0  0
 30 33  1  0  0  0  0
M  END
$$$$

  -OEChem-01062216083D

 33 32  0     1  0  0  0  0  0999 V2000
   -3.6006   -2.2982    1.3718 H   0  0  0  0  0  0  0  0  0  0  0  0
   -3.6209   -1.3114    0.9006 C   0  0  0  0  0  0  0  0  0  0  0  0
   -4.1879   -0.6297    1.5393 H   0  0  0  0  0  0  0  0  0  0  0  0
   -4.1185   -1.3931   -0.0686 H   0  0  0  0  0  0  0  0  0  0  0  0
   -2.2079   -0.7915    0.7142 C   0  0  0  0  0  0  0  0  0  0  0  0
   -1.2595   -1.4927    1.0296 O   0  0  0  0  0  0  0  0  0  0  0  0
   -2.0146    0.4677    0.1798 N   0  0  0  0  0  0  0  0  0  0  0  0
   -2.8520    1.0381    0.0988 H   0  0  0  0  0  0  0  0  0  0  0  0
   -0.7245    1.1789    0.2192 C   0  0  1  0  0  0  0  0  0  0  0  0
   -0.0709    0.7405    0.9821 H   0  0  0  0  0  0  0  0  0  0  0  0
   -0.0170    1.0791   -1.1506 C   0  0  0  0  0  0  0  0  0  0  0  0
   -0.6934    1.4276   -1.9380 H   0  0  0  0  0  0  0  0  0  0  0  0
    0.8631    1.7313   -1.1461 H   0  0  0  0  0  0  0  0  0  0  0  0
    0.4454   -0.3473   -1.4765 C   0  0  0  0  0  0  0  0  0  0  0  0
    1.1179   -0.7052   -0.6896 H   0  0  0  0  0  0  0  0  0  0  0  0
   -0.4179   -1.0185   -1.5126 H   0  0  0  0  0  0  0  0  0  0  0  0
    1.1613   -0.3846   -2.8310 C   0  0  0  0  0  0  0  0  0  0  0  0
    0.4877   -0.0178   -3.6120 H   0  0  0  0  0  0  0  0  0  0  0  0
    2.0388    0.2700   -2.8049 H   0  0  0  0  0  0  0  0  0  0  0  0
    1.6013   -1.8058   -3.1692 C   0  0  0  0  0  0  0  0  0  0  0  0
    2.2967   -2.1731   -2.4061 H   0  0  0  0  0  0  0  0  0  0  0  0
    0.7336   -2.4747   -3.1877 H   0  0  0  0  0  0  0  0  0  0  0  0
    2.2577   -1.7922   -4.4806 N   0  0  0  0  0  0  0  0  0  0  0  0
    2.6052   -2.7189   -4.7277 H   0  0  0  0  0  0  0  0  0  0  0  0
    1.6300   -1.4357   -5.2008 H   0  0  0  0  0  0  0  0  0  0  0  0
   -0.9518    2.6490    0.6397 C   0  0  0  0  0  0  0  0  0  0  0  0
   -1.3584    2.8924    1.7672 O   0  0  0  0  0  0  0  0  0  0  0  0
   -0.8862    3.6887   -0.2729 N   0  0  0  0  0  0  0  0  0  0  0  0
   -0.5708    3.4683   -1.2129 H   0  0  0  0  0  0  0  0  0  0  0  0
   -1.1670    5.0778    0.0702 C   0  0  0  0  0  0  0  0  0  0  0  0
   -0.4797    5.4262    0.8484 H   0  0  0  0  0  0  0  0  0  0  0  0
   -1.0459    5.7167   -0.8098 H   0  0  0  0  0  0  0  0  0  0  0  0
   -2.1944    5.1826    0.4346 H   0  0  0  0  0  0  0  0  0  0  0  0
  1  2  1  0  0  0  0
  2  3  1  0  0  0  0
  2  4  1  0  0  0  0
  2  5  1  0  0  0  0
  5  6  2  0  0  0  0
  5  7  1  0  0  0  0
  7  8  1  0  0  0  0
  7  9  1  0  0  0  0
  9 10  1  0  0  0  0
  9 11  1  0  0  0  0
  9 26  1  0  0  0  0
 11 12  1  0  0  0  0
 11 13  1  0  0  0  0
 11 14  1  0  0  0  0
 14 15  1  0  0  0  0
 14 16  1  0  0  0  0
 14 17  1  0  0  0  0
 17 18  1  0  0  0  0
 17 19  1  0  0  0  0
 17 20  1  0  0  0  0
 20 21  1  0  0  0  0
 20 22  1  0  0  0  0
 20 23  1  0  0  0  0
 23 24  1  0  0  0  0
 23 25  1  0  0  0  0
 26 27  2  0  0  0  0
 26 28  1  0  0  0  0
 28 29  1  0  0  0  0
 28 30  1  0  0  0  0
 30 31  1  0  0  0  0
 30 32  1  0  0  0  0
 30 33  1  0  0  0  0
M  END
$$$$

  -OEChem-01062216083D

 33 32  0     1  0  0  0  0  0999 V2000
   -3.5838   -2.3319    1.3632 H   0  0  0  0  0  0  0  0  0  0  0  0
   -3.6131   -1.3485    0.8857 C   0  0  0  0  0  0  0  0  0  0  0  0
   -4.2088   -0.6750    1.5066 H   0  0  0  0  0  0  0  0  0  0  0  0
   -4.0869   -1.4465   -0.0939 H   0  0  0  0  0  0  0  0  0  0  0  0
   -2.2064   -0.8020    0.7298 C   0  0  0  0  0  0  0  0  0  0  0  0
   -1.2529   -1.4867    1.0639 O   0  0  0  0  0  0  0  0  0  0  0  0
   -2.0232    0.4579    0.1928 N   0  0  0  0  0  0  0  0  0  0  0  0
   -2.8670    1.0095    0.0659 H   0  0  0  0  0  0  0  0  0  0  0  0
   -0.7393    1.1806    0.2256 C   0  0  1  0  0  0  0  0  0  0  0  0
   -0.0784    0.7459    0.9846 H   0  0  0  0  0  0  0  0  0  0  0  0
   -0.0365    1.0884   -1.1457 C   0  0  0  0  0  0  0  0  0  0  0  0
   -0.7187    1.4262   -1.9324 H   0  0  0  0  0  0  0  0  0  0  0  0
    0.8344    1.7527   -1.1452 H   0  0  0  0  0  0  0  0  0  0  0  0
    0.4365   -0.3350   -1.4690 C   0  0  0  0  0  0  0  0  0  0  0  0
    1.1149   -0.6851   -0.6833 H   0  0  0  0  0  0  0  0  0  0  0  0
   -0.4213   -1.0138   -1.5007 H   0  0  0  0  0  0  0  0  0  0  0  0
    1.1486   -0.3715   -2.8246 C   0  0  0  0  0  0  0  0  0  0  0  0
    0.4713   -0.0115   -3.6055 H   0  0  0  0  0  0  0  0  0  0  0  0
    2.0220    0.2885   -2.8016 H   0  0  0  0  0  0  0  0  0  0  0  0
    1.5975   -1.7908   -3.1573 C   0  0  0  0  0  0  0  0  0  0  0  0
    2.2970   -2.1506   -2.3943 H   0  0  0  0  0  0  0  0  0  0  0  0
    0.7345   -2.4655   -3.1716 H   0  0  0  0  0  0  0  0  0  0  0  0
    2.2501   -1.7770   -4.4702 N   0  0  0  0  0  0  0  0  0  0  0  0
    2.6020   -2.7023   -4.7159 H   0  0  0  0  0  0  0  0  0  0  0  0
    1.6191   -1.4251   -5.1896 H   0  0  0  0  0  0  0  0  0  0  0  0
   -0.9662    2.6497    0.6421 C   0  0  0  0  0  0  0  0  0  0  0  0
   -1.0758    2.9342    1.8259 O   0  0  0  0  0  0  0  0  0  0  0  0
   -1.2112    3.6333   -0.3011 N   0  0  0  0  0  0  0  0  0  0  0  0
   -1.1092    3.3796   -1.2791 H   0  0  0  0  0  0  0  0  0  0  0  0
   -1.4764    5.0252    0.0431 C   0  0  0  0  0  0  0  0  0  0  0  0
   -0.6311    5.4515    0.5937 H   0  0  0  0  0  0  0  0  0  0  0  0
   -1.6318    5.6165   -0.8643 H   0  0  0  0  0  0  0  0  0  0  0  0
   -2.3752    5.1027    0.6639 H   0  0  0  0  0  0  0  0  0  0  0  0
  1  2  1  0  0  0  0
  2  3  1  0  0  0  0
  2  4  1  0  0  0  0
  2  5  1  0  0  0  0
  5  6  2  0  0  0  0
  5  7  1  0  0  0  0
  7  8  1  0  0  0  0
  7  9  1  0  0  0  0
  9 10  1  0  0  0  0
  9 11  1  0  0  0  0
  9 26  1  0  0  0  0
 11 12  1  0  0  0  0
 11 13  1  0  0  0  0
 11 14  1  0  0  0  0
 14 15  1  0  0  0  0
 14 16  1  0  0  0  0
 14 17  1  0  0  0  0
 17 18  1  0  0  0  0
 17 19  1  0  0  0  0
 17 20  1  0  0  0  0
 20 21  1  0  0  0  0
 20 22  1  0  0  0  0
 20 23  1  0  0  0  0
 23 24  1  0  0  0  0
 23 25  1  0  0  0  0
 26 27  2  0  0  0  0
 26 28  1  0  0  0  0
 28 29  1  0  0  0  0
 28 30  1  0  0  0  0
 30 31  1  0  0  0  0
 30 32  1  0  0  0  0
 30 33  1  0  0  0  0
M  END
$$$$

  -OEChem-01062216083D

 33 32  0     1  0  0  0  0  0999 V2000
   -3.5917   -2.3577    1.3684 H   0  0  0  0  0  0  0  0  0  0  0  0
   -3.6215   -1.3738    0.8918 C   0  0  0  0  0  0  0  0  0  0  0  0
   -4.2245   -0.7034    1.5089 H   0  0  0  0  0  0  0  0  0  0  0  0
   -4.0872   -1.4731   -0.0915 H   0  0  0  0  0  0  0  0  0  0  0  0
   -2.2162   -0.8208    0.7473 C   0  0  0  0  0  0  0  0  0  0  0  0
   -1.2623   -1.4980    1.0939 O   0  0  0  0  0  0  0  0  0  0  0  0
   -2.0354    0.4384    0.2080 N   0  0  0  0  0  0  0  0  0  0  0  0
   -2.8816    0.9787    0.0534 H   0  0  0  0  0  0  0  0  0  0  0  0
   -0.7549    1.1687    0.2406 C   0  0  1  0  0  0  0  0  0  0  0  0
   -0.0906    0.7345    0.9975 H   0  0  0  0  0  0  0  0  0  0  0  0
   -0.0525    1.0910   -1.1303 C   0  0  0  0  0  0  0  0  0  0  0  0
   -0.7359    1.4306   -1.9150 H   0  0  0  0  0  0  0  0  0  0  0  0
    0.8133    1.7623   -1.1247 H   0  0  0  0  0  0  0  0  0  0  0  0
    0.4293   -0.3274   -1.4617 C   0  0  0  0  0  0  0  0  0  0  0  0
    1.1107   -0.6766   -0.6783 H   0  0  0  0  0  0  0  0  0  0  0  0
   -0.4237   -1.0119   -1.4951 H   0  0  0  0  0  0  0  0  0  0  0  0
    1.1417   -0.3517   -2.8177 C   0  0  0  0  0  0  0  0  0  0  0  0
    0.4617    0.0079   -3.5965 H   0  0  0  0  0  0  0  0  0  0  0  0
    2.0104    0.3146   -2.7915 H   0  0  0  0  0  0  0  0  0  0  0  0
    1.5997   -1.7665   -3.1582 C   0  0  0  0  0  0  0  0  0  0  0  0
    2.3016   -2.1245   -2.3967 H   0  0  0  0  0  0  0  0  0  0  0  0
    0.7412   -2.4473   -3.1753 H   0  0  0  0  0  0  0  0  0  0  0  0
    2.2526   -1.7439   -4.4711 N   0  0  0  0  0  0  0  0  0  0  0  0
    2.6111   -2.6660   -4.7197 H   0  0  0  0  0  0  0  0  0  0  0  0
    1.6200   -1.3931   -5.1897 H   0  0  0  0  0  0  0  0  0  0  0  0
   -0.9834    2.6375    0.6514 C   0  0  0  0  0  0  0  0  0  0  0  0
   -0.7834    2.9934    1.8032 O   0  0  0  0  0  0  0  0  0  0  0  0
   -1.5267    3.5424   -0.2446 N   0  0  0  0  0  0  0  0  0  0  0  0
   -1.6357    3.2371   -1.2069 H   0  0  0  0  0  0  0  0  0  0  0  0
   -1.7710    4.9420    0.0839 C   0  0  0  0  0  0  0  0  0  0  0  0
   -0.8349    5.4399    0.3582 H   0  0  0  0  0  0  0  0  0  0  0  0
   -2.2017    5.4638   -0.7760 H   0  0  0  0  0  0  0  0  0  0  0  0
   -2.4713    5.0227    0.9220 H   0  0  0  0  0  0  0  0  0  0  0  0
  1  2  1  0  0  0  0
  2  3  1  0  0  0  0
  2  4  1  0  0  0  0
  2  5  1  0  0  0  0
  5  6  2  0  0  0  0
  5  7  1  0  0  0  0
  7  8  1  0  0  0  0
  7  9  1  0  0  0  0
  9 10  1  0  0  0  0
  9 11  1  0  0  0  0
  9 26  1  0  0  0  0
 11 12  1  0  0  0  0
 11 13  1  0  0  0  0
 11 14  1  0  0  0  0
 14 15  1  0  0  0  0
 14 16  1  0  0  0  0
 14 17  1  0  0  0  0
 17 18  1  0  0  0  0
 17 19  1  0  0  0  0
 17 20  1  0  0  0  0
 20 21  1  0  0  0  0
 20 22  1  0  0  0  0
 20 23  1  0  0  0  0
 23 24  1  0  0  0  0
 23 25  1  0  0  0  0
 26 27  2  0  0  0  0
 26 28  1  0  0  0  0
 28 29  1  0  0  0  0
 28 30  1  0  0  0  0
 30 31  1  0  0  0  0
 30 32  1  0  0  0  0
 30 33  1  0  0  0  0
M  END
$$$$

  -OEChem-01062216083D

 33 32  0     1  0  0  0  0  0999 V2000
   -3.5930   -2.3936    1.3619 H   0  0  0  0  0  0  0  0  0  0  0  0
   -3.6262   -1.4070    0.8910 C   0  0  0  0  0  0  0  0  0  0  0  0
   -4.2444   -0.7468    1.5041 H   0  0  0  0  0  0  0  0  0  0  0  0
   -4.0775   -1.5050   -0.0991 H   0  0  0  0  0  0  0  0  0  0  0  0
   -2.2240   -0.8401    0.7688 C   0  0  0  0  0  0  0  0  0  0  0  0
   -1.2699   -1.5063    1.1348 O   0  0  0  0  0  0  0  0  0  0  0  0
   -2.0448    0.4182    0.2261 N   0  0  0  0  0  0  0  0  0  0  0  0
   -2.8925    0.9511    0.0562 H   0  0  0  0  0  0  0  0  0  0  0  0
   -0.7665    1.1542    0.2651 C   0  0  1  0  0  0  0  0  0  0  0  0
   -0.1014    0.7202    1.0214 H   0  0  0  0  0  0  0  0  0  0  0  0
   -0.0660    1.0898   -1.1057 C   0  0  0  0  0  0  0  0  0  0  0  0
   -0.7495    1.4377   -1.8866 H   0  0  0  0  0  0  0  0  0  0  0  0
    0.7979    1.7633   -1.0934 H   0  0  0  0  0  0  0  0  0  0  0  0
    0.4208   -0.3247   -1.4485 C   0  0  0  0  0  0  0  0  0  0  0  0
    1.1057   -0.6763   -0.6692 H   0  0  0  0  0  0  0  0  0  0  0  0
   -0.4291   -1.0130   -1.4851 H   0  0  0  0  0  0  0  0  0  0  0  0
    1.1313   -0.3344   -2.8058 C   0  0  0  0  0  0  0  0  0  0  0  0
    0.4487    0.0295   -3.5804 H   0  0  0  0  0  0  0  0  0  0  0  0
    1.9969    0.3358   -2.7749 H   0  0  0  0  0  0  0  0  0  0  0  0
    1.5957   -1.7437   -3.1611 C   0  0  0  0  0  0  0  0  0  0  0  0
    2.3008   -2.1064   -2.4048 H   0  0  0  0  0  0  0  0  0  0  0  0
    0.7408   -2.4287   -3.1837 H   0  0  0  0  0  0  0  0  0  0  0  0
    2.2460   -1.7041   -4.4747 N   0  0  0  0  0  0  0  0  0  0  0  0
    2.6049   -2.6225   -4.7357 H   0  0  0  0  0  0  0  0  0  0  0  0
    1.6117   -1.3449   -5.1876 H   0  0  0  0  0  0  0  0  0  0  0  0
   -0.9942    2.6243    0.6678 C   0  0  0  0  0  0  0  0  0  0  0  0
   -0.5170    3.0664    1.7022 O   0  0  0  0  0  0  0  0  0  0  0  0
   -1.8018    3.4400   -0.1068 N   0  0  0  0  0  0  0  0  0  0  0  0
   -2.0863    3.0828   -1.0135 H   0  0  0  0  0  0  0  0  0  0  0  0
   -2.0311    4.8478    0.1968 C   0  0  0  0  0  0  0  0  0  0  0  0
   -1.0878    5.4037    0.1730 H   0  0  0  0  0  0  0  0  0  0  0  0
   -2.7124    5.2881   -0.5377 H   0  0  0  0  0  0  0  0  0  0  0  0
   -2.4788    4.9576    1.1903 H   0  0  0  0  0  0  0  0  0  0  0  0
  1  2  1  0  0  0  0
  2  3  1  0  0  0  0
  2  4  1  0  0  0  0
  2  5  1  0  0  0  0
  5  6  2  0  0  0  0
  5  7  1  0  0  0  0
  7  8  1  0  0  0  0
  7  9  1  0  0  0  0
  9 10  1  0  0  0  0
  9 11  1  0  0  0  0
  9 26  1  0  0  0  0
 11 12  1  0  0  0  0
 11 13  1  0  0  0  0
 11 14  1  0  0  0  0
 14 15  1  0  0  0  0
 14 16  1  0  0  0  0
 14 17  1  0  0  0  0
 17 18  1  0  0  0  0
 17 19  1  0  0  0  0
 17 20  1  0  0  0  0
 20 21  1  0  0  0  0
 20 22  1  0  0  0  0
 20 23  1  0  0  0  0
 23 24  1  0  0  0  0
 23 25  1  0  0  0  0
 26 27  2  0  0  0  0
 26 28  1  0  0  0  0
 28 29  1  0  0  0  0
 28 30  1  0  0  0  0
 30 31  1  0  0  0  0
 30 32  1  0  0  0  0
 30 33  1  0  0  0  0
M  END
$$$$

  -OEChem-01062216083D

 33 32  0     1  0  0  0  0  0999 V2000
   -3.5844   -2.4375    1.3482 H   0  0  0  0  0  0  0  0  0  0  0  0
   -3.6217   -1.4516    0.8761 C   0  0  0  0  0  0  0  0  0  0  0  0
   -4.2611   -0.7997    1.4761 H   0  0  0  0  0  0  0  0  0  0  0  0
   -4.0518   -1.5562   -0.1228 H   0  0  0  0  0  0  0  0  0  0  0  0
   -2.2254   -0.8657    0.7810 C   0  0  0  0  0  0  0  0  0  0  0  0
   -1.2700   -1.5187    1.1658 O   0  0  0  0  0  0  0  0  0  0  0  0
   -2.0531    0.3947    0.2409 N   0  0  0  0  0  0  0  0  0  0  0  0
   -2.9047    0.9147    0.0556 H   0  0  0  0  0  0  0  0  0  0  0  0
   -0.7794    1.1414    0.2869 C   0  0  1  0  0  0  0  0  0  0  0  0
   -0.1119    0.7066    1.0406 H   0  0  0  0  0  0  0  0  0  0  0  0
   -0.0830    1.0901   -1.0855 C   0  0  0  0  0  0  0  0  0  0  0  0
   -0.7710    1.4413   -1.8610 H   0  0  0  0  0  0  0  0  0  0  0  0
    0.7774    1.7684   -1.0713 H   0  0  0  0  0  0  0  0  0  0  0  0
    0.4117   -0.3194   -1.4372 C   0  0  0  0  0  0  0  0  0  0  0  0
    1.1015   -0.6699   -0.6616 H   0  0  0  0  0  0  0  0  0  0  0  0
   -0.4337   -1.0134   -1.4740 H   0  0  0  0  0  0  0  0  0  0  0  0
    1.1185   -0.3185   -2.7965 C   0  0  0  0  0  0  0  0  0  0  0  0
    0.4319    0.0448   -3.5676 H   0  0  0  0  0  0  0  0  0  0  0  0
    1.9803    0.3565   -2.7649 H   0  0  0  0  0  0  0  0  0  0  0  0
    1.5892   -1.7241   -3.1575 C   0  0  0  0  0  0  0  0  0  0  0  0
    2.2982   -2.0850   -2.4039 H   0  0  0  0  0  0  0  0  0  0  0  0
    0.7377   -2.4133   -3.1797 H   0  0  0  0  0  0  0  0  0  0  0  0
    2.2360   -1.6786   -4.4726 N   0  0  0  0  0  0  0  0  0  0  0  0
    2.5992   -2.5946   -4.7363 H   0  0  0  0  0  0  0  0  0  0  0  0
    1.5979   -1.3211   -5.1831 H   0  0  0  0  0  0  0  0  0  0  0  0
   -0.9999    2.6128    0.6888 C   0  0  0  0  0  0  0  0  0  0  0  0
   -0.2836    3.1407    1.5264 O   0  0  0  0  0  0  0  0  0  0  0  0
   -2.0246    3.3466    0.1139 N   0  0  0  0  0  0  0  0  0  0  0  0
   -2.4794    2.9420   -0.6977 H   0  0  0  0  0  0  0  0  0  0  0  0
   -2.2347    4.7619    0.3962 C   0  0  0  0  0  0  0  0  0  0  0  0
   -1.3641    5.3487    0.0846 H   0  0  0  0  0  0  0  0  0  0  0  0
   -3.1128    5.1293   -0.1437 H   0  0  0  0  0  0  0  0  0  0  0  0
   -2.3995    4.9190    1.4675 H   0  0  0  0  0  0  0  0  0  0  0  0
  1  2  1  0  0  0  0
  2  3  1  0  0  0  0
  2  4  1  0  0  0  0
  2  5  1  0  0  0  0
  5  6  2  0  0  0  0
  5  7  1  0  0  0  0
  7  8  1  0  0  0  0
  7  9  1  0  0  0  0
  9 10  1  0  0  0  0
  9 11  1  0  0  0  0
  9 26  1  0  0  0  0
 11 12  1  0  0  0  0
 11 13  1  0  0  0  0
 11 14  1  0  0  0  0
 14 15  1  0  0  0  0
 14 16  1  0  0  0  0
 14 17  1  0  0  0  0
 17 18  1  0  0  0  0
 17 19  1  0  0  0  0
 17 20  1  0  0  0  0
 20 21  1  0  0  0  0
 20 22  1  0  0  0  0
 20 23  1  0  0  0  0
 23 24  1  0  0  0  0
 23 25  1  0  0  0  0
 26 27  2  0  0  0  0
 26 28  1  0  0  0  0
 28 29  1  0  0  0  0
 28 30  1  0  0  0  0
 30 31  1  0  0  0  0
 30 32  1  0  0  0  0
 30 33  1  0  0  0  0
M  END
$$$$

  -OEChem-01062216083D

 33 32  0     1  0  0  0  0  0999 V2000
   -3.4443   -2.5594    1.1330 H   0  0  0  0  0  0  0  0  0  0  0  0
   -3.5024   -1.5712    0.6678 C   0  0  0  0  0  0  0  0  0  0  0  0
   -4.3210   -1.0137    1.1292 H   0  0  0  0  0  0  0  0  0  0  0  0
   -3.7089   -1.6962   -0.3978 H   0  0  0  0  0  0  0  0  0  0  0  0
   -2.1950   -0.8263    0.8605 C   0  0  0  0  0  0  0  0  0  0  0  0
   -1.2884   -1.3512    1.4838 O   0  0  0  0  0  0  0  0  0  0  0  0
   -2.0424    0.4295    0.3041 N   0  0  0  0  0  0  0  0  0  0  0  0
   -2.7854    0.7354   -0.3142 H   0  0  0  0  0  0  0  0  0  0  0  0
   -0.7767    1.1928    0.3109 C   0  0  1  0  0  0  0  0  0  0  0  0
   -0.0880    0.7741    1.0540 H   0  0  0  0  0  0  0  0  0  0  0  0
   -0.1147    1.1093   -1.0767 C   0  0  0  0  0  0  0  0  0  0  0  0
   -0.8238    1.4373   -1.8435 H   0  0  0  0  0  0  0  0  0  0  0  0
    0.7413    1.7930   -1.1031 H   0  0  0  0  0  0  0  0  0  0  0  0
    0.3837   -0.3070   -1.3991 C   0  0  0  0  0  0  0  0  0  0  0  0
    1.0968   -0.6271   -0.6314 H   0  0  0  0  0  0  0  0  0  0  0  0
   -0.4546   -1.0101   -1.3931 H   0  0  0  0  0  0  0  0  0  0  0  0
    1.0565   -0.3403   -2.7754 C   0  0  0  0  0  0  0  0  0  0  0  0
    0.3473   -0.0046   -3.5386 H   0  0  0  0  0  0  0  0  0  0  0  0
    1.9126    0.3427   -2.7846 H   0  0  0  0  0  0  0  0  0  0  0  0
    1.5321   -1.7510   -3.1108 C   0  0  0  0  0  0  0  0  0  0  0  0
    2.2634   -2.0865   -2.3669 H   0  0  0  0  0  0  0  0  0  0  0  0
    0.6864   -2.4473   -3.0938 H   0  0  0  0  0  0  0  0  0  0  0  0
    2.1449   -1.7346   -4.4428 N   0  0  0  0  0  0  0  0  0  0  0  0
    2.4957   -2.6573   -4.6998 H   0  0  0  0  0  0  0  0  0  0  0  0
    1.4924   -1.3842   -5.1435 H   0  0  0  0  0  0  0  0  0  0  0  0
   -0.9701    2.6742    0.6994 C   0  0  0  0  0  0  0  0  0  0  0  0
   -0.0365    3.3068    1.1718 O   0  0  0  0  0  0  0  0  0  0  0  0
   -2.1498    3.3414    0.4146 N   0  0  0  0  0  0  0  0  0  0  0  0
   -2.9268    2.7919    0.0684 H   0  0  0  0  0  0  0  0  0  0  0  0
   -2.3693    4.7464    0.7364 C   0  0  0  0  0  0  0  0  0  0  0  0
   -1.6201    5.3746    0.2430 H   0  0  0  0  0  0  0  0  0  0  0  0
   -3.3604    5.0615    0.3968 H   0  0  0  0  0  0  0  0  0  0  0  0
   -2.3054    4.9058    1.8179 H   0  0  0  0  0  0  0  0  0  0  0  0
  1  2  1  0  0  0  0
  2  3  1  0  0  0  0
  2  4  1  0  0  0  0
  2  5  1  0  0  0  0
  5  6  2  0  0  0  0
  5  7  1  0  0  0  0
  7  8  1  0  0  0  0
  7  9  1  0  0  0  0
  9 10  1  0  0  0  0
  9 11  1  0  0  0  0
  9 26  1  0  0  0  0
 11 12  1  0  0  0  0
 11 13  1  0  0  0  0
 11 14  1  0  0  0  0
 14 15  1  0  0  0  0
 14 16  1  0  0  0  0
 14 17  1  0  0  0  0
 17 18  1  0  0  0  0
 17 19  1  0  0  0  0
 17 20  1  0  0  0  0
 20 21  1  0  0  0  0
 20 22  1  0  0  0  0
 20 23  1  0  0  0  0
 23 24  1  0  0  0  0
 23 25  1  0  0  0  0
 26 27  2  0  0  0  0
 26 28  1  0  0  0  0
 28 29  1  0  0  0  0
 28 30  1  0  0  0  0
 30 31  1  0  0  0  0
 30 32  1  0  0  0  0
 30 33  1  0  0  0  0
M  END
$$$$

  -OEChem-01062216083D

 33 32  0     1  0  0  0  0  0999 V2000
   -3.4063   -2.5800    1.0772 H   0  0  0  0  0  0  0  0  0  0  0  0
   -3.4749   -1.5890    0.6194 C   0  0  0  0  0  0  0  0  0  0  0  0
   -4.3205   -1.0564    1.0612 H   0  0  0  0  0  0  0  0  0  0  0  0
   -3.6467   -1.7093   -0.4528 H   0  0  0  0  0  0  0  0  0  0  0  0
   -2.1925   -0.8139    0.8578 C   0  0  0  0  0  0  0  0  0  0  0  0
   -1.3038   -1.3119    1.5269 O   0  0  0  0  0  0  0  0  0  0  0  0
   -2.0436    0.4433    0.3022 N   0  0  0  0  0  0  0  0  0  0  0  0
   -2.7529    0.7161   -0.3709 H   0  0  0  0  0  0  0  0  0  0  0  0
   -0.7759    1.2050    0.3096 C   0  0  1  0  0  0  0  0  0  0  0  0
   -0.0865    0.7880    1.0523 H   0  0  0  0  0  0  0  0  0  0  0  0
   -0.1160    1.1138   -1.0803 C   0  0  0  0  0  0  0  0  0  0  0  0
   -0.8259    1.4421   -1.8463 H   0  0  0  0  0  0  0  0  0  0  0  0
    0.7429    1.7934   -1.1138 H   0  0  0  0  0  0  0  0  0  0  0  0
    0.3779   -0.3050   -1.3983 C   0  0  0  0  0  0  0  0  0  0  0  0
    1.0911   -0.6252   -0.6309 H   0  0  0  0  0  0  0  0  0  0  0  0
   -0.4627   -1.0050   -1.3896 H   0  0  0  0  0  0  0  0  0  0  0  0
    1.0485   -0.3454   -2.7755 C   0  0  0  0  0  0  0  0  0  0  0  0
    0.3399   -0.0095   -3.5394 H   0  0  0  0  0  0  0  0  0  0  0  0
    1.9069    0.3348   -2.7879 H   0  0  0  0  0  0  0  0  0  0  0  0
    1.5192   -1.7591   -3.1052 C   0  0  0  0  0  0  0  0  0  0  0  0
    2.2501   -2.0927   -2.3601 H   0  0  0  0  0  0  0  0  0  0  0  0
    0.6715   -2.4527   -3.0841 H   0  0  0  0  0  0  0  0  0  0  0  0
    2.1304   -1.7514   -4.4378 N   0  0  0  0  0  0  0  0  0  0  0  0
    2.4852   -2.6745   -4.6874 H   0  0  0  0  0  0  0  0  0  0  0  0
    1.4760   -1.4092   -5.1408 H   0  0  0  0  0  0  0  0  0  0  0  0
   -0.9691    2.6867    0.7024 C   0  0  0  0  0  0  0  0  0  0  0  0
    0.0045    3.3963    0.9135 O   0  0  0  0  0  0  0  0  0  0  0  0
   -2.2274    3.2640    0.7063 N   0  0  0  0  0  0  0  0  0  0  0  0
   -3.0173    2.6296    0.6701 H   0  0  0  0  0  0  0  0  0  0  0  0
   -2.4609    4.6530    1.0843 C   0  0  0  0  0  0  0  0  0  0  0  0
   -1.8800    5.3268    0.4452 H   0  0  0  0  0  0  0  0  0  0  0  0
   -3.5201    4.9035    0.9730 H   0  0  0  0  0  0  0  0  0  0  0  0
   -2.1712    4.8206    2.1271 H   0  0  0  0  0  0  0  0  0  0  0  0
  1  2  1  0  0  0  0
  2  3  1  0  0  0  0
  2  4  1  0  0  0  0
  2  5  1  0  0  0  0
  5  6  2  0  0  0  0
  5  7  1  0  0  0  0
  7  8  1  0  0  0  0
  7  9  1  0  0  0  0
  9 10  1  0  0  0  0
  9 11  1  0  0  0  0
  9 26  1  0  0  0  0
 11 12  1  0  0  0  0
 11 13  1  0  0  0  0
 11 14  1  0  0  0  0
 14 15  1  0  0  0  0
 14 16  1  0  0  0  0
 14 17  1  0  0  0  0
 17 18  1  0  0  0  0
 17 19  1  0  0  0  0
 17 20  1  0  0  0  0
 20 21  1  0  0  0  0
 20 22  1  0  0  0  0
 20 23  1  0  0  0  0
 23 24  1  0  0  0  0
 23 25  1  0  0  0  0
 26 27  2  0  0  0  0
 26 28  1  0  0  0  0
 28 29  1  0  0  0  0
 28 30  1  0  0  0  0
 30 31  1  0  0  0  0
 30 32  1  0  0  0  0
 30 33  1  0  0  0  0
M  END
$$$$

  -OEChem-01062216083D

 33 32  0     1  0  0  0  0  0999 V2000
   -3.4102   -2.5650    1.0545 H   0  0  0  0  0  0  0  0  0  0  0  0
   -3.4732   -1.5716    0.6011 C   0  0  0  0  0  0  0  0  0  0  0  0
   -4.3191   -1.0383    1.0411 H   0  0  0  0  0  0  0  0  0  0  0  0
   -3.6403   -1.6866   -0.4724 H   0  0  0  0  0  0  0  0  0  0  0  0
   -2.1892   -0.8023    0.8487 C   0  0  0  0  0  0  0  0  0  0  0  0
   -1.3082   -1.3006    1.5279 O   0  0  0  0  0  0  0  0  0  0  0  0
   -2.0321    0.4559    0.2989 N   0  0  0  0  0  0  0  0  0  0  0  0
   -2.7444    0.7449   -0.3653 H   0  0  0  0  0  0  0  0  0  0  0  0
   -0.7620    1.2132    0.3088 C   0  0  1  0  0  0  0  0  0  0  0  0
   -0.0740    0.7952    1.0519 H   0  0  0  0  0  0  0  0  0  0  0  0
   -0.1037    1.1140   -1.0834 C   0  0  0  0  0  0  0  0  0  0  0  0
   -0.8131    1.4440   -1.8491 H   0  0  0  0  0  0  0  0  0  0  0  0
    0.7601    1.7871   -1.1227 H   0  0  0  0  0  0  0  0  0  0  0  0
    0.3835   -0.3081   -1.3993 C   0  0  0  0  0  0  0  0  0  0  0  0
    1.0962   -0.6299   -0.6322 H   0  0  0  0  0  0  0  0  0  0  0  0
   -0.4600   -1.0046   -1.3879 H   0  0  0  0  0  0  0  0  0  0  0  0
    1.0515   -0.3533   -2.7780 C   0  0  0  0  0  0  0  0  0  0  0  0
    0.3432   -0.0151   -3.5411 H   0  0  0  0  0  0  0  0  0  0  0  0
    1.9126    0.3232   -2.7930 H   0  0  0  0  0  0  0  0  0  0  0  0
    1.5163   -1.7689   -3.1083 C   0  0  0  0  0  0  0  0  0  0  0  0
    2.2472   -2.1058   -2.3644 H   0  0  0  0  0  0  0  0  0  0  0  0
    0.6660   -2.4595   -3.0855 H   0  0  0  0  0  0  0  0  0  0  0  0
    2.1249   -1.7636   -4.4423 N   0  0  0  0  0  0  0  0  0  0  0  0
    2.4691   -2.6897   -4.6961 H   0  0  0  0  0  0  0  0  0  0  0  0
    1.4730   -1.4115   -5.1429 H   0  0  0  0  0  0  0  0  0  0  0  0
   -0.9663    2.6933    0.7090 C   0  0  0  0  0  0  0  0  0  0  0  0
   -0.0282    3.4784    0.6942 O   0  0  0  0  0  0  0  0  0  0  0  0
   -2.2296    3.1729    1.0099 N   0  0  0  0  0  0  0  0  0  0  0  0
   -2.9494    2.4742    1.1632 H   0  0  0  0  0  0  0  0  0  0  0  0
   -2.4781    4.5428    1.4437 C   0  0  0  0  0  0  0  0  0  0  0  0
   -2.1251    5.2540    0.6892 H   0  0  0  0  0  0  0  0  0  0  0  0
   -3.5499    4.7046    1.5927 H   0  0  0  0  0  0  0  0  0  0  0  0
   -1.9614    4.7457    2.3877 H   0  0  0  0  0  0  0  0  0  0  0  0
  1  2  1  0  0  0  0
  2  3  1  0  0  0  0
  2  4  1  0  0  0  0
  2  5  1  0  0  0  0
  5  6  2  0  0  0  0
  5  7  1  0  0  0  0
  7  8  1  0  0  0  0
  7  9  1  0  0  0  0
  9 10  1  0  0  0  0
  9 11  1  0  0  0  0
  9 26  1  0  0  0  0
 11 12  1  0  0  0  0
 11 13  1  0  0  0  0
 11 14  1  0  0  0  0
 14 15  1  0  0  0  0
 14 16  1  0  0  0  0
 14 17  1  0  0  0  0
 17 18  1  0  0  0  0
 17 19  1  0  0  0  0
 17 20  1  0  0  0  0
 20 21  1  0  0  0  0
 20 22  1  0  0  0  0
 20 23  1  0  0  0  0
 23 24  1  0  0  0  0
 23 25  1  0  0  0  0
 26 27  2  0  0  0  0
 26 28  1  0  0  0  0
 28 29  1  0  0  0  0
 28 30  1  0  0  0  0
 30 31  1  0  0  0  0
 30 32  1  0  0  0  0
 30 33  1  0  0  0  0
M  END
$$$$

  -OEChem-01062216083D

 33 32  0     1  0  0  0  0  0999 V2000
   -3.4245   -2.5377    1.0471 H   0  0  0  0  0  0  0  0  0  0  0  0
   -3.4774   -1.5446    0.5919 C   0  0  0  0  0  0  0  0  0  0  0  0
   -4.3161   -1.0002    1.0323 H   0  0  0  0  0  0  0  0  0  0  0  0
   -3.6484   -1.6594   -0.4812 H   0  0  0  0  0  0  0  0  0  0  0  0
   -2.1837   -0.7902    0.8342 C   0  0  0  0  0  0  0  0  0  0  0  0
   -1.3018   -1.2993    1.5046 O   0  0  0  0  0  0  0  0  0  0  0  0
   -2.0192    0.4709    0.2947 N   0  0  0  0  0  0  0  0  0  0  0  0
   -2.7480    0.7898   -0.3378 H   0  0  0  0  0  0  0  0  0  0  0  0
   -0.7467    1.2231    0.3038 C   0  0  1  0  0  0  0  0  0  0  0  0
   -0.0590    0.8021    1.0456 H   0  0  0  0  0  0  0  0  0  0  0  0
   -0.0898    1.1181   -1.0902 C   0  0  0  0  0  0  0  0  0  0  0  0
   -0.7986    1.4506   -1.8556 H   0  0  0  0  0  0  0  0  0  0  0  0
    0.7781    1.7851   -1.1334 H   0  0  0  0  0  0  0  0  0  0  0  0
    0.3909   -0.3068   -1.4041 C   0  0  0  0  0  0  0  0  0  0  0  0
    1.1027   -0.6299   -0.6368 H   0  0  0  0  0  0  0  0  0  0  0  0
   -0.4557   -0.9995   -1.3909 H   0  0  0  0  0  0  0  0  0  0  0  0
    1.0574   -0.3594   -2.7832 C   0  0  0  0  0  0  0  0  0  0  0  0
    0.3500   -0.0203   -3.5465 H   0  0  0  0  0  0  0  0  0  0  0  0
    1.9217    0.3128   -2.8011 H   0  0  0  0  0  0  0  0  0  0  0  0
    1.5146   -1.7785   -3.1090 C   0  0  0  0  0  0  0  0  0  0  0  0
    2.2442   -2.1170   -2.3648 H   0  0  0  0  0  0  0  0  0  0  0  0
    0.6603   -2.4640   -3.0833 H   0  0  0  0  0  0  0  0  0  0  0  0
    2.1223   -1.7823   -4.4434 N   0  0  0  0  0  0  0  0  0  0  0  0
    2.4518   -2.7137   -4.6971 H   0  0  0  0  0  0  0  0  0  0  0  0
    1.4756   -1.4202   -5.1438 H   0  0  0  0  0  0  0  0  0  0  0  0
   -0.9634    2.6988    0.7182 C   0  0  0  0  0  0  0  0  0  0  0  0
   -0.1224    3.5555    0.4823 O   0  0  0  0  0  0  0  0  0  0  0  0
   -2.1509    3.0835    1.3163 N   0  0  0  0  0  0  0  0  0  0  0  0
   -2.7651    2.3333    1.6182 H   0  0  0  0  0  0  0  0  0  0  0  0
   -2.4045    4.4376    1.7941 C   0  0  0  0  0  0  0  0  0  0  0  0
   -2.3104    5.1575    0.9741 H   0  0  0  0  0  0  0  0  0  0  0  0
   -3.4173    4.5116    2.2017 H   0  0  0  0  0  0  0  0  0  0  0  0
   -1.6923    4.7057    2.5816 H   0  0  0  0  0  0  0  0  0  0  0  0
  1  2  1  0  0  0  0
  2  3  1  0  0  0  0
  2  4  1  0  0  0  0
  2  5  1  0  0  0  0
  5  6  2  0  0  0  0
  5  7  1  0  0  0  0
  7  8  1  0  0  0  0
  7  9  1  0  0  0  0
  9 10  1  0  0  0  0
  9 11  1  0  0  0  0
  9 26  1  0  0  0  0
 11 12  1  0  0  0  0
 11 13  1  0  0  0  0
 11 14  1  0  0  0  0
 14 15  1  0  0  0  0
 14 16  1  0  0  0  0
 14 17  1  0  0  0  0
 17 18  1  0  0  0  0
 17 19  1  0  0  0  0
 17 20  1  0  0  0  0
 20 21  1  0  0  0  0
 20 22  1  0  0  0  0
 20 23  1  0  0  0  0
 23 24  1  0  0  0  0
 23 25  1  0  0  0  0
 26 27  2  0  0  0  0
 26 28  1  0  0  0  0
 28 29  1  0  0  0  0
 28 30  1  0  0  0  0
 30 31  1  0  0  0  0
 30 32  1  0  0  0  0
 30 33  1  0  0  0  0
M  END
$$$$

  -OEChem-01062216083D

 33 32  0     1  0  0  0  0  0999 V2000
   -3.4496   -2.5067    1.0538 H   0  0  0  0  0  0  0  0  0  0  0  0
   -3.4907   -1.5138    0.5972 C   0  0  0  0  0  0  0  0  0  0  0  0
   -4.3157   -0.9548    1.0451 H   0  0  0  0  0  0  0  0  0  0  0  0
   -3.6748   -1.6278   -0.4738 H   0  0  0  0  0  0  0  0  0  0  0  0
   -2.1825   -0.7798    0.8240 C   0  0  0  0  0  0  0  0  0  0  0  0
   -1.2982   -1.3031    1.4803 O   0  0  0  0  0  0  0  0  0  0  0  0
   -2.0082    0.4832    0.2934 N   0  0  0  0  0  0  0  0  0  0  0  0
   -2.7532    0.8326   -0.3034 H   0  0  0  0  0  0  0  0  0  0  0  0
   -0.7324    1.2278    0.2994 C   0  0  1  0  0  0  0  0  0  0  0  0
   -0.0450    0.8027    1.0390 H   0  0  0  0  0  0  0  0  0  0  0  0
   -0.0755    1.1201   -1.0946 C   0  0  0  0  0  0  0  0  0  0  0  0
   -0.7820    1.4565   -1.8600 H   0  0  0  0  0  0  0  0  0  0  0  0
    0.7962    1.7820   -1.1367 H   0  0  0  0  0  0  0  0  0  0  0  0
    0.3982   -0.3068   -1.4081 C   0  0  0  0  0  0  0  0  0  0  0  0
    1.1084   -0.6329   -0.6405 H   0  0  0  0  0  0  0  0  0  0  0  0
   -0.4518   -0.9952   -1.3950 H   0  0  0  0  0  0  0  0  0  0  0  0
    1.0650   -0.3627   -2.7871 C   0  0  0  0  0  0  0  0  0  0  0  0
    0.3590   -0.0208   -3.5506 H   0  0  0  0  0  0  0  0  0  0  0  0
    1.9324    0.3054   -2.8053 H   0  0  0  0  0  0  0  0  0  0  0  0
    1.5153   -1.7839   -3.1121 C   0  0  0  0  0  0  0  0  0  0  0  0
    2.2432   -2.1250   -2.3673 H   0  0  0  0  0  0  0  0  0  0  0  0
    0.6579   -2.4654   -3.0862 H   0  0  0  0  0  0  0  0  0  0  0  0
    2.1232   -1.7904   -4.4463 N   0  0  0  0  0  0  0  0  0  0  0  0
    2.4466   -2.7236   -4.7009 H   0  0  0  0  0  0  0  0  0  0  0  0
    1.4787   -1.4235   -5.1462 H   0  0  0  0  0  0  0  0  0  0  0  0
   -0.9572    2.6990    0.7263 C   0  0  0  0  0  0  0  0  0  0  0  0
   -0.2763    3.6130    0.2809 O   0  0  0  0  0  0  0  0  0  0  0  0
   -1.9893    3.0064    1.5952 N   0  0  0  0  0  0  0  0  0  0  0  0
   -2.4727    2.2202    2.0201 H   0  0  0  0  0  0  0  0  0  0  0  0
   -2.2418    4.3509    2.0999 C   0  0  0  0  0  0  0  0  0  0  0  0
   -2.4268    5.0431    1.2717 H   0  0  0  0  0  0  0  0  0  0  0  0
   -3.1205    4.3516    2.7519 H   0  0  0  0  0  0  0  0  0  0  0  0
   -1.3823    4.7116    2.6747 H   0  0  0  0  0  0  0  0  0  0  0  0
  1  2  1  0  0  0  0
  2  3  1  0  0  0  0
  2  4  1  0  0  0  0
  2  5  1  0  0  0  0
  5  6  2  0  0  0  0
  5  7  1  0  0  0  0
  7  8  1  0  0  0  0
  7  9  1  0  0  0  0
  9 10  1  0  0  0  0
  9 11  1  0  0  0  0
  9 26  1  0  0  0  0
 11 12  1  0  0  0  0
 11 13  1  0  0  0  0
 11 14  1  0  0  0  0
 14 15  1  0  0  0  0
 14 16  1  0  0  0  0
 14 17  1  0  0  0  0
 17 18  1  0  0  0  0
 17 19  1  0  0  0  0
 17 20  1  0  0  0  0
 20 21  1  0  0  0  0
 20 22  1  0  0  0  0
 20 23  1  0  0  0  0
 23 24  1  0  0  0  0
 23 25  1  0  0  0  0
 26 27  2  0  0  0  0
 26 28  1  0  0  0  0
 28 29  1  0  0  0  0
 28 30  1  0  0  0  0
 30 31  1  0  0  0  0
 30 32  1  0  0  0  0
 30 33  1  0  0  0  0
M  END
$$$$

  -OEChem-01062216083D

 33 32  0     1  0  0  0  0  0999 V2000
   -3.4759   -2.4792    1.0738 H   0  0  0  0  0  0  0  0  0  0  0  0
   -3.5131   -1.4822    0.6253 C   0  0  0  0  0  0  0  0  0  0  0  0
   -4.3166   -0.9138    1.0995 H   0  0  0  0  0  0  0  0  0  0  0  0
   -3.7270   -1.5850   -0.4412 H   0  0  0  0  0  0  0  0  0  0  0  0
   -2.1879   -0.7708    0.8231 C   0  0  0  0  0  0  0  0  0  0  0  0
   -1.3017   -1.3071    1.4667 O   0  0  0  0  0  0  0  0  0  0  0  0
   -2.0017    0.4913    0.2946 N   0  0  0  0  0  0  0  0  0  0  0  0
   -2.7552    0.8640   -0.2772 H   0  0  0  0  0  0  0  0  0  0  0  0
   -0.7197    1.2229    0.3000 C   0  0  1  0  0  0  0  0  0  0  0  0
   -0.0351    0.7928    1.0386 H   0  0  0  0  0  0  0  0  0  0  0  0
   -0.0585    1.1130   -1.0911 C   0  0  0  0  0  0  0  0  0  0  0  0
   -0.7599    1.4572   -1.8583 H   0  0  0  0  0  0  0  0  0  0  0  0
    0.8176    1.7699   -1.1257 H   0  0  0  0  0  0  0  0  0  0  0  0
    0.4054   -0.3163   -1.4082 C   0  0  0  0  0  0  0  0  0  0  0  0
    1.1100   -0.6531   -0.6402 H   0  0  0  0  0  0  0  0  0  0  0  0
   -0.4503   -0.9978   -1.4021 H   0  0  0  0  0  0  0  0  0  0  0  0
    1.0759   -0.3661   -2.7854 C   0  0  0  0  0  0  0  0  0  0  0  0
    0.3735   -0.0136   -3.5475 H   0  0  0  0  0  0  0  0  0  0  0  0
    1.9468    0.2979   -2.7956 H   0  0  0  0  0  0  0  0  0  0  0  0
    1.5202   -1.7860   -3.1239 C   0  0  0  0  0  0  0  0  0  0  0  0
    2.2442   -2.1397   -2.3813 H   0  0  0  0  0  0  0  0  0  0  0  0
    0.6593   -2.4634   -3.1080 H   0  0  0  0  0  0  0  0  0  0  0  0
    2.1309   -1.7781   -4.4570 N   0  0  0  0  0  0  0  0  0  0  0  0
    2.4467   -2.7100   -4.7255 H   0  0  0  0  0  0  0  0  0  0  0  0
    1.4907   -1.3949   -5.1523 H   0  0  0  0  0  0  0  0  0  0  0  0
   -0.9441    2.6916    0.7313 C   0  0  0  0  0  0  0  0  0  0  0  0
   -0.4692    3.6343    0.1113 O   0  0  0  0  0  0  0  0  0  0  0  0
   -1.7552    2.9551    1.8202 N   0  0  0  0  0  0  0  0  0  0  0  0
   -2.0924    2.1526    2.3450 H   0  0  0  0  0  0  0  0  0  0  0  0
   -2.0073    4.2966    2.3321 C   0  0  0  0  0  0  0  0  0  0  0  0
   -2.4619    4.9232    1.5576 H   0  0  0  0  0  0  0  0  0  0  0  0
   -2.6904    4.2538    3.1858 H   0  0  0  0  0  0  0  0  0  0  0  0
   -1.0721    4.7630    2.6592 H   0  0  0  0  0  0  0  0  0  0  0  0
  1  2  1  0  0  0  0
  2  3  1  0  0  0  0
  2  4  1  0  0  0  0
  2  5  1  0  0  0  0
  5  6  2  0  0  0  0
  5  7  1  0  0  0  0
  7  8  1  0  0  0  0
  7  9  1  0  0  0  0
  9 10  1  0  0  0  0
  9 11  1  0  0  0  0
  9 26  1  0  0  0  0
 11 12  1  0  0  0  0
 11 13  1  0  0  0  0
 11 14  1  0  0  0  0
 14 15  1  0  0  0  0
 14 16  1  0  0  0  0
 14 17  1  0  0  0  0
 17 18  1  0  0  0  0
 17 19  1  0  0  0  0
 17 20  1  0  0  0  0
 20 21  1  0  0  0  0
 20 22  1  0  0  0  0
 20 23  1  0  0  0  0
 23 24  1  0  0  0  0
 23 25  1  0  0  0  0
 26 27  2  0  0  0  0
 26 28  1  0  0  0  0
 28 29  1  0  0  0  0
 28 30  1  0  0  0  0
 30 31  1  0  0  0  0
 30 32  1  0  0  0  0
 30 33  1  0  0  0  0
M  END
$$$$

  -OEChem-01062216083D

 33 32  0     1  0  0  0  0  0999 V2000
   -3.4958   -2.4524    1.0882 H   0  0  0  0  0  0  0  0  0  0  0  0
   -3.5223   -1.4548    0.6404 C   0  0  0  0  0  0  0  0  0  0  0  0
   -4.3137   -0.8741    1.1206 H   0  0  0  0  0  0  0  0  0  0  0  0
   -3.7471   -1.5542   -0.4243 H   0  0  0  0  0  0  0  0  0  0  0  0
   -2.1851   -0.7628    0.8267 C   0  0  0  0  0  0  0  0  0  0  0  0
   -1.2978   -1.3132    1.4574 O   0  0  0  0  0  0  0  0  0  0  0  0
   -1.9878    0.4977    0.3001 N   0  0  0  0  0  0  0  0  0  0  0  0
   -2.7467    0.8900   -0.2513 H   0  0  0  0  0  0  0  0  0  0  0  0
   -0.7016    1.2182    0.3052 C   0  0  1  0  0  0  0  0  0  0  0  0
   -0.0176    0.7825    1.0412 H   0  0  0  0  0  0  0  0  0  0  0  0
   -0.0413    1.1119   -1.0859 C   0  0  0  0  0  0  0  0  0  0  0  0
   -0.7413    1.4628   -1.8515 H   0  0  0  0  0  0  0  0  0  0  0  0
    0.8361    1.7676   -1.1154 H   0  0  0  0  0  0  0  0  0  0  0  0
    0.4127   -0.3188   -1.4106 C   0  0  0  0  0  0  0  0  0  0  0  0
    1.1156   -0.6643   -0.6450 H   0  0  0  0  0  0  0  0  0  0  0  0
   -0.4478   -0.9943   -1.4074 H   0  0  0  0  0  0  0  0  0  0  0  0
    1.0829   -0.3667   -2.7876 C   0  0  0  0  0  0  0  0  0  0  0  0
    0.3832   -0.0054   -3.5482 H   0  0  0  0  0  0  0  0  0  0  0  0
    1.9588    0.2905   -2.7944 H   0  0  0  0  0  0  0  0  0  0  0  0
    1.5166   -1.7882   -3.1318 C   0  0  0  0  0  0  0  0  0  0  0  0
    2.2382   -2.1499   -2.3907 H   0  0  0  0  0  0  0  0  0  0  0  0
    0.6499   -2.4585   -3.1187 H   0  0  0  0  0  0  0  0  0  0  0  0
    2.1279   -1.7803   -4.4645 N   0  0  0  0  0  0  0  0  0  0  0  0
    2.4313   -2.7148   -4.7382 H   0  0  0  0  0  0  0  0  0  0  0  0
    1.4928   -1.3849   -5.1576 H   0  0  0  0  0  0  0  0  0  0  0  0
   -0.9248    2.6844    0.7388 C   0  0  0  0  0  0  0  0  0  0  0  0
   -0.6986    3.6272   -0.0088 O   0  0  0  0  0  0  0  0  0  0  0  0
   -1.4645    2.9364    1.9866 N   0  0  0  0  0  0  0  0  0  0  0  0
   -1.6403    2.1334    2.5851 H   0  0  0  0  0  0  0  0  0  0  0  0
   -1.7255    4.2765    2.4979 C   0  0  0  0  0  0  0  0  0  0  0  0
   -2.4191    4.8100    1.8395 H   0  0  0  0  0  0  0  0  0  0  0  0
   -2.1712    4.2208    3.4958 H   0  0  0  0  0  0  0  0  0  0  0  0
   -0.7939    4.8482    2.5662 H   0  0  0  0  0  0  0  0  0  0  0  0
  1  2  1  0  0  0  0
  2  3  1  0  0  0  0
  2  4  1  0  0  0  0
  2  5  1  0  0  0  0
  5  6  2  0  0  0  0
  5  7  1  0  0  0  0
  7  8  1  0  0  0  0
  7  9  1  0  0  0  0
  9 10  1  0  0  0  0
  9 11  1  0  0  0  0
  9 26  1  0  0  0  0
 11 12  1  0  0  0  0
 11 13  1  0  0  0  0
 11 14  1  0  0  0  0
 14 15  1  0  0  0  0
 14 16  1  0  0  0  0
 14 17  1  0  0  0  0
 17 18  1  0  0  0  0
 17 19  1  0  0  0  0
 17 20  1  0  0  0  0
 20 21  1  0  0  0  0
 20 22  1  0  0  0  0
 20 23  1  0  0  0  0
 23 24  1  0  0  0  0
 23 25  1  0  0  0  0
 26 27  2  0  0  0  0
 26 28  1  0  0  0  0
 28 29  1  0  0  0  0
 28 30  1  0  0  0  0
 30 31  1  0  0  0  0
 30 32  1  0  0  0  0
 30 33  1  0  0  0  0
M  END
$$$$

  -OEChem-01062216083D

 33 32  0     1  0  0  0  0  0999 V2000
   -3.5162   -2.4319    1.1063 H   0  0  0  0  0  0  0  0  0  0  0  0
   -3.5335   -1.4346    0.6576 C   0  0  0  0  0  0  0  0  0  0  0  0
   -4.3113   -0.8424    1.1454 H   0  0  0  0  0  0  0  0  0  0  0  0
   -3.7703   -1.5315   -0.4047 H   0  0  0  0  0  0  0  0  0  0  0  0
   -2.1854   -0.7606    0.8297 C   0  0  0  0  0  0  0  0  0  0  0  0
   -1.2969   -1.3248    1.4471 O   0  0  0  0  0  0  0  0  0  0  0  0
   -1.9769    0.4978    0.3029 N   0  0  0  0  0  0  0  0  0  0  0  0
   -2.7396    0.9093   -0.2293 H   0  0  0  0  0  0  0  0  0  0  0  0
   -0.6875    1.2094    0.3110 C   0  0  1  0  0  0  0  0  0  0  0  0
   -0.0053    0.7662    1.0443 H   0  0  0  0  0  0  0  0  0  0  0  0
   -0.0272    1.1091   -1.0796 C   0  0  0  0  0  0  0  0  0  0  0  0
   -0.7263    1.4656   -1.8437 H   0  0  0  0  0  0  0  0  0  0  0  0
    0.8506    1.7640   -1.1041 H   0  0  0  0  0  0  0  0  0  0  0  0
    0.4189   -0.3221   -1.4130 C   0  0  0  0  0  0  0  0  0  0  0  0
    1.1186   -0.6769   -0.6487 H   0  0  0  0  0  0  0  0  0  0  0  0
   -0.4458   -0.9925   -1.4135 H   0  0  0  0  0  0  0  0  0  0  0  0
    1.0902   -0.3665   -2.7898 C   0  0  0  0  0  0  0  0  0  0  0  0
    0.3933    0.0029   -3.5490 H   0  0  0  0  0  0  0  0  0  0  0  0
    1.9700    0.2853   -2.7925 H   0  0  0  0  0  0  0  0  0  0  0  0
    1.5155   -1.7890   -3.1412 C   0  0  0  0  0  0  0  0  0  0  0  0
    2.2337   -2.1597   -2.4012 H   0  0  0  0  0  0  0  0  0  0  0  0
    0.6451   -2.4543   -3.1325 H   0  0  0  0  0  0  0  0  0  0  0  0
    2.1281   -1.7775   -4.4733 N   0  0  0  0  0  0  0  0  0  0  0  0
    2.4245   -2.7127   -4.7525 H   0  0  0  0  0  0  0  0  0  0  0  0
    1.4958   -1.3737   -5.1640 H   0  0  0  0  0  0  0  0  0  0  0  0
   -0.9048    2.6756    0.7423 C   0  0  0  0  0  0  0  0  0  0  0  0
   -0.9458    3.5879   -0.0736 O   0  0  0  0  0  0  0  0  0  0  0  0
   -1.1446    2.9555    2.0747 N   0  0  0  0  0  0  0  0  0  0  0  0
   -1.1467    2.1711    2.7216 H   0  0  0  0  0  0  0  0  0  0  0  0
   -1.4067    4.2967    2.5823 C   0  0  0  0  0  0  0  0  0  0  0  0
   -2.2899    4.7248    2.0969 H   0  0  0  0  0  0  0  0  0  0  0  0
   -1.5869    4.2647    3.6610 H   0  0  0  0  0  0  0  0  0  0  0  0
   -0.5490    4.9509    2.3941 H   0  0  0  0  0  0  0  0  0  0  0  0
  1  2  1  0  0  0  0
  2  3  1  0  0  0  0
  2  4  1  0  0  0  0
  2  5  1  0  0  0  0
  5  6  2  0  0  0  0
  5  7  1  0  0  0  0
  7  8  1  0  0  0  0
  7  9  1  0  0  0  0
  9 10  1  0  0  0  0
  9 11  1  0  0  0  0
  9 26  1  0  0  0  0
 11 12  1  0  0  0  0
 11 13  1  0  0  0  0
 11 14  1  0  0  0  0
 14 15  1  0  0  0  0
 14 16  1  0  0  0  0
 14 17  1  0  0  0  0
 17 18  1  0  0  0  0
 17 19  1  0  0  0  0
 17 20  1  0  0  0  0
 20 21  1  0  0  0  0
 20 22  1  0  0  0  0
 20 23  1  0  0  0  0
 23 24  1  0  0  0  0
 23 25  1  0  0  0  0
 26 27  2  0  0  0  0
 26 28  1  0  0  0  0
 28 29  1  0  0  0  0
 28 30  1  0  0  0  0
 30 31  1  0  0  0  0
 30 32  1  0  0  0  0
 30 33  1  0  0  0  0
M  END
$$$$

  -OEChem-01062216083D

 33 32  0     1  0  0  0  0  0999 V2000
   -3.5422   -2.4101    1.1330 H   0  0  0  0  0  0  0  0  0  0  0  0
   -3.5503   -1.4129    0.6841 C   0  0  0  0  0  0  0  0  0  0  0  0
   -4.3064   -0.8060    1.1879 H   0  0  0  0  0  0  0  0  0  0  0  0
   -3.8109   -1.5054   -0.3729 H   0  0  0  0  0  0  0  0  0  0  0  0
   -2.1867   -0.7642    0.8266 C   0  0  0  0  0  0  0  0  0  0  0  0
   -1.2915   -1.3493    1.4149 O   0  0  0  0  0  0  0  0  0  0  0  0
   -1.9695    0.4921    0.2992 N   0  0  0  0  0  0  0  0  0  0  0  0
   -2.7428    0.9311   -0.1950 H   0  0  0  0  0  0  0  0  0  0  0  0
   -0.6791    1.1988    0.3099 C   0  0  1  0  0  0  0  0  0  0  0  0
    0.0002    0.7490    1.0415 H   0  0  0  0  0  0  0  0  0  0  0  0
   -0.0169    1.1070   -1.0792 C   0  0  0  0  0  0  0  0  0  0  0  0
   -0.7155    1.4669   -1.8422 H   0  0  0  0  0  0  0  0  0  0  0  0
    0.8605    1.7624   -1.0991 H   0  0  0  0  0  0  0  0  0  0  0  0
    0.4259   -0.3234   -1.4197 C   0  0  0  0  0  0  0  0  0  0  0  0
    1.1228   -0.6841   -0.6558 H   0  0  0  0  0  0  0  0  0  0  0  0
   -0.4413   -0.9906   -1.4259 H   0  0  0  0  0  0  0  0  0  0  0  0
    1.1002   -0.3645   -2.7949 C   0  0  0  0  0  0  0  0  0  0  0  0
    0.4064    0.0095   -3.5548 H   0  0  0  0  0  0  0  0  0  0  0  0
    1.9823    0.2843   -2.7939 H   0  0  0  0  0  0  0  0  0  0  0  0
    1.5199   -1.7882   -3.1479 C   0  0  0  0  0  0  0  0  0  0  0  0
    2.2339   -2.1635   -2.4061 H   0  0  0  0  0  0  0  0  0  0  0  0
    0.6460   -2.4490   -3.1432 H   0  0  0  0  0  0  0  0  0  0  0  0
    2.1364   -1.7780   -4.4782 N   0  0  0  0  0  0  0  0  0  0  0  0
    2.4234   -2.7154   -4.7597 H   0  0  0  0  0  0  0  0  0  0  0  0
    1.5097   -1.3659   -5.1693 H   0  0  0  0  0  0  0  0  0  0  0  0
   -0.8906    2.6656    0.7370 C   0  0  0  0  0  0  0  0  0  0  0  0
   -1.2086    3.5214   -0.0793 O   0  0  0  0  0  0  0  0  0  0  0  0
   -0.8222    3.0021    2.0761 N   0  0  0  0  0  0  0  0  0  0  0  0
   -0.6200    2.2550    2.7352 H   0  0  0  0  0  0  0  0  0  0  0  0
   -1.0759    4.3449    2.5832 C   0  0  0  0  0  0  0  0  0  0  0  0
   -2.0795    4.6792    2.3000 H   0  0  0  0  0  0  0  0  0  0  0  0
   -1.0036    4.3565    3.6750 H   0  0  0  0  0  0  0  0  0  0  0  0
   -0.3423    5.0509    2.1803 H   0  0  0  0  0  0  0  0  0  0  0  0
  1  2  1  0  0  0  0
  2  3  1  0  0  0  0
  2  4  1  0  0  0  0
  2  5  1  0  0  0  0
  5  6  2  0  0  0  0
  5  7  1  0  0  0  0
  7  8  1  0  0  0  0
  7  9  1  0  0  0  0
  9 10  1  0  0  0  0
  9 11  1  0  0  0  0
  9 26  1  0  0  0  0
 11 12  1  0  0  0  0
 11 13  1  0  0  0  0
 11 14  1  0  0  0  0
 14 15  1  0  0  0  0
 14 16  1  0  0  0  0
 14 17  1  0  0  0  0
 17 18  1  0  0  0  0
 17 19  1  0  0  0  0
 17 20  1  0  0  0  0
 20 21  1  0  0  0  0
 20 22  1  0  0  0  0
 20 23  1  0  0  0  0
 23 24  1  0  0  0  0
 23 25  1  0  0  0  0
 26 27  2  0  0  0  0
 26 28  1  0  0  0  0
 28 29  1  0  0  0  0
 28 30  1  0  0  0  0
 30 31  1  0  0  0  0
 30 32  1  0  0  0  0
 30 33  1  0  0  0  0
M  END
$$$$

  -OEChem-01062216083D

 33 32  0     1  0  0  0  0  0999 V2000
   -3.5702   -2.3892    1.1648 H   0  0  0  0  0  0  0  0  0  0  0  0
   -3.5693   -1.3946    0.7099 C   0  0  0  0  0  0  0  0  0  0  0  0
   -4.3063   -0.7718    1.2227 H   0  0  0  0  0  0  0  0  0  0  0  0
   -3.8498   -1.4890   -0.3419 H   0  0  0  0  0  0  0  0  0  0  0  0
   -2.1924   -0.7684    0.8254 C   0  0  0  0  0  0  0  0  0  0  0  0
   -1.2938   -1.3714    1.3906 O   0  0  0  0  0  0  0  0  0  0  0  0
   -1.9639    0.4840    0.2939 N   0  0  0  0  0  0  0  0  0  0  0  0
   -2.7464    0.9545   -0.1558 H   0  0  0  0  0  0  0  0  0  0  0  0
   -0.6711    1.1847    0.3113 C   0  0  1  0  0  0  0  0  0  0  0  0
    0.0023    0.7302    1.0454 H   0  0  0  0  0  0  0  0  0  0  0  0
   -0.0057    1.1015   -1.0755 C   0  0  0  0  0  0  0  0  0  0  0  0
   -0.7010    1.4699   -1.8376 H   0  0  0  0  0  0  0  0  0  0  0  0
    0.8741    1.7538   -1.0885 H   0  0  0  0  0  0  0  0  0  0  0  0
    0.4314   -0.3287   -1.4233 C   0  0  0  0  0  0  0  0  0  0  0  0
    1.1237   -0.6977   -0.6592 H   0  0  0  0  0  0  0  0  0  0  0  0
   -0.4392   -0.9914   -1.4363 H   0  0  0  0  0  0  0  0  0  0  0  0
    1.1099   -0.3644   -2.7964 C   0  0  0  0  0  0  0  0  0  0  0  0
    0.4206    0.0186   -3.5560 H   0  0  0  0  0  0  0  0  0  0  0  0
    1.9953    0.2798   -2.7876 H   0  0  0  0  0  0  0  0  0  0  0  0
    1.5247   -1.7873   -3.1587 C   0  0  0  0  0  0  0  0  0  0  0  0
    2.2356   -2.1713   -2.4185 H   0  0  0  0  0  0  0  0  0  0  0  0
    0.6483   -2.4450   -3.1613 H   0  0  0  0  0  0  0  0  0  0  0  0
    2.1451   -1.7688   -4.4871 N   0  0  0  0  0  0  0  0  0  0  0  0
    2.4360   -2.7040   -4.7721 H   0  0  0  0  0  0  0  0  0  0  0  0
    1.5187   -1.3559   -5.1780 H   0  0  0  0  0  0  0  0  0  0  0  0
   -0.8771    2.6539    0.7283 C   0  0  0  0  0  0  0  0  0  0  0  0
   -1.4415    3.4379   -0.0251 O   0  0  0  0  0  0  0  0  0  0  0  0
   -0.5198    3.0712    1.9970 N   0  0  0  0  0  0  0  0  0  0  0  0
   -0.1272    2.3763    2.6264 H   0  0  0  0  0  0  0  0  0  0  0  0
   -0.7573    4.4212    2.4924 C   0  0  0  0  0  0  0  0  0  0  0  0
   -1.8255    4.6597    2.4581 H   0  0  0  0  0  0  0  0  0  0  0  0
   -0.4163    4.5099    3.5284 H   0  0  0  0  0  0  0  0  0  0  0  0
   -0.2130    5.1519    1.8851 H   0  0  0  0  0  0  0  0  0  0  0  0
  1  2  1  0  0  0  0
  2  3  1  0  0  0  0
  2  4  1  0  0  0  0
  2  5  1  0  0  0  0
  5  6  2  0  0  0  0
  5  7  1  0  0  0  0
  7  8  1  0  0  0  0
  7  9  1  0  0  0  0
  9 10  1  0  0  0  0
  9 11  1  0  0  0  0
  9 26  1  0  0  0  0
 11 12  1  0  0  0  0
 11 13  1  0  0  0  0
 11 14  1  0  0  0  0
 14 15  1  0  0  0  0
 14 16  1  0  0  0  0
 14 17  1  0  0  0  0
 17 18  1  0  0  0  0
 17 19  1  0  0  0  0
 17 20  1  0  0  0  0
 20 21  1  0  0  0  0
 20 22  1  0  0  0  0
 20 23  1  0  0  0  0
 23 24  1  0  0  0  0
 23 25  1  0  0  0  0
 26 27  2  0  0  0  0
 26 28  1  0  0  0  0
 28 29  1  0  0  0  0
 28 30  1  0  0  0  0
 30 31  1  0  0  0  0
 30 32  1  0  0  0  0
 30 33  1  0  0  0  0
M  END
$$$$

  -OEChem-01062216083D

 33 32  0     1  0  0  0  0  0999 V2000
   -3.5980   -2.3660    1.2047 H   0  0  0  0  0  0  0  0  0  0  0  0
   -3.5896   -1.3748    0.7426 C   0  0  0  0  0  0  0  0  0  0  0  0
   -4.2996   -0.7333    1.2701 H   0  0  0  0  0  0  0  0  0  0  0  0
   -3.9006   -1.4703   -0.3006 H   0  0  0  0  0  0  0  0  0  0  0  0
   -2.1979   -0.7756    0.8157 C   0  0  0  0  0  0  0  0  0  0  0  0
   -1.2925   -1.3994    1.3469 O   0  0  0  0  0  0  0  0  0  0  0  0
   -1.9629    0.4737    0.2802 N   0  0  0  0  0  0  0  0  0  0  0  0
   -2.7575    0.9776   -0.1088 H   0  0  0  0  0  0  0  0  0  0  0  0
   -0.6705    1.1740    0.3055 C   0  0  1  0  0  0  0  0  0  0  0  0
   -0.0038    0.7191    1.0451 H   0  0  0  0  0  0  0  0  0  0  0  0
   -0.0007    1.0965   -1.0782 C   0  0  0  0  0  0  0  0  0  0  0  0
   -0.6939    1.4683   -1.8407 H   0  0  0  0  0  0  0  0  0  0  0  0
    0.8797    1.7481   -1.0860 H   0  0  0  0  0  0  0  0  0  0  0  0
    0.4371   -0.3326   -1.4297 C   0  0  0  0  0  0  0  0  0  0  0  0
    1.1263   -0.7054   -0.6645 H   0  0  0  0  0  0  0  0  0  0  0  0
   -0.4339   -0.9949   -1.4484 H   0  0  0  0  0  0  0  0  0  0  0  0
    1.1203   -0.3630   -2.8003 C   0  0  0  0  0  0  0  0  0  0  0  0
    0.4332    0.0223   -3.5606 H   0  0  0  0  0  0  0  0  0  0  0  0
    2.0054    0.2814   -2.7867 H   0  0  0  0  0  0  0  0  0  0  0  0
    1.5355   -1.7850   -3.1655 C   0  0  0  0  0  0  0  0  0  0  0  0
    2.2438   -2.1716   -2.4241 H   0  0  0  0  0  0  0  0  0  0  0  0
    0.6589   -2.4422   -3.1734 H   0  0  0  0  0  0  0  0  0  0  0  0
    2.1605   -1.7622   -4.4914 N   0  0  0  0  0  0  0  0  0  0  0  0
    2.4594   -2.6954   -4.7747 H   0  0  0  0  0  0  0  0  0  0  0  0
    1.5330   -1.3550   -5.1846 H   0  0  0  0  0  0  0  0  0  0  0  0
   -0.8767    2.6457    0.7122 C   0  0  0  0  0  0  0  0  0  0  0  0
   -1.6510    3.3531    0.0783 O   0  0  0  0  0  0  0  0  0  0  0  0
   -0.2626    3.1524    1.8425 N   0  0  0  0  0  0  0  0  0  0  0  0
    0.3135    2.5180    2.3889 H   0  0  0  0  0  0  0  0  0  0  0  0
   -0.4697    4.5118    2.3260 C   0  0  0  0  0  0  0  0  0  0  0  0
   -1.5288    4.6848    2.5442 H   0  0  0  0  0  0  0  0  0  0  0  0
    0.1035    4.6784    3.2431 H   0  0  0  0  0  0  0  0  0  0  0  0
   -0.1407    5.2383    1.5757 H   0  0  0  0  0  0  0  0  0  0  0  0
  1  2  1  0  0  0  0
  2  3  1  0  0  0  0
  2  4  1  0  0  0  0
  2  5  1  0  0  0  0
  5  6  2  0  0  0  0
  5  7  1  0  0  0  0
  7  8  1  0  0  0  0
  7  9  1  0  0  0  0
  9 10  1  0  0  0  0
  9 11  1  0  0  0  0
  9 26  1  0  0  0  0
 11 12  1  0  0  0  0
 11 13  1  0  0  0  0
 11 14  1  0  0  0  0
 14 15  1  0  0  0  0
 14 16  1  0  0  0  0
 14 17  1  0  0  0  0
 17 18  1  0  0  0  0
 17 19  1  0  0  0  0
 17 20  1  0  0  0  0
 20 21  1  0  0  0  0
 20 22  1  0  0  0  0
 20 23  1  0  0  0  0
 23 24  1  0  0  0  0
 23 25  1  0  0  0  0
 26 27  2  0  0  0  0
 26 28  1  0  0  0  0
 28 29  1  0  0  0  0
 28 30  1  0  0  0  0
 30 31  1  0  0  0  0
 30 32  1  0  0  0  0
 30 33  1  0  0  0  0
M  END
$$$$

  -OEChem-01062216083D

 33 32  0     1  0  0  0  0  0999 V2000
   -3.6279   -2.3403    1.2576 H   0  0  0  0  0  0  0  0  0  0  0  0
   -3.6149   -1.3536    0.7860 C   0  0  0  0  0  0  0  0  0  0  0  0
   -4.2912   -0.6923    1.3331 H   0  0  0  0  0  0  0  0  0  0  0  0
   -3.9655   -1.4512   -0.2443 H   0  0  0  0  0  0  0  0  0  0  0  0
   -2.2088   -0.7844    0.8029 C   0  0  0  0  0  0  0  0  0  0  0  0
   -1.2955   -1.4305    1.2925 O   0  0  0  0  0  0  0  0  0  0  0  0
   -1.9697    0.4620    0.2627 N   0  0  0  0  0  0  0  0  0  0  0  0
   -2.7755    1.0004   -0.0519 H   0  0  0  0  0  0  0  0  0  0  0  0
   -0.6768    1.1617    0.2971 C   0  0  1  0  0  0  0  0  0  0  0  0
   -0.0183    0.7082    1.0452 H   0  0  0  0  0  0  0  0  0  0  0  0
    0.0023    1.0887   -1.0815 C   0  0  0  0  0  0  0  0  0  0  0  0
   -0.6863    1.4640   -1.8465 H   0  0  0  0  0  0  0  0  0  0  0  0
    0.8835    1.7392   -1.0814 H   0  0  0  0  0  0  0  0  0  0  0  0
    0.4423   -0.3389   -1.4361 C   0  0  0  0  0  0  0  0  0  0  0  0
    1.1256   -0.7164   -0.6678 H   0  0  0  0  0  0  0  0  0  0  0  0
   -0.4292   -1.0002   -1.4644 H   0  0  0  0  0  0  0  0  0  0  0  0
    1.1348   -0.3626   -2.8022 C   0  0  0  0  0  0  0  0  0  0  0  0
    0.4529    0.0269   -3.5649 H   0  0  0  0  0  0  0  0  0  0  0  0
    2.0200    0.2815   -2.7787 H   0  0  0  0  0  0  0  0  0  0  0  0
    1.5532   -1.7821   -3.1729 C   0  0  0  0  0  0  0  0  0  0  0  0
    2.2558   -2.1742   -2.4291 H   0  0  0  0  0  0  0  0  0  0  0  0
    0.6765   -2.4390   -3.1919 H   0  0  0  0  0  0  0  0  0  0  0  0
    2.1868   -1.7495   -4.4946 N   0  0  0  0  0  0  0  0  0  0  0  0
    2.4813   -2.6816   -4.7859 H   0  0  0  0  0  0  0  0  0  0  0  0
    1.5660   -1.3312   -5.1873 H   0  0  0  0  0  0  0  0  0  0  0  0
   -0.8844    2.6366    0.6939 C   0  0  0  0  0  0  0  0  0  0  0  0
   -1.8225    3.2694    0.2220 O   0  0  0  0  0  0  0  0  0  0  0  0
   -0.0596    3.2372    1.6271 N   0  0  0  0  0  0  0  0  0  0  0  0
    0.6770    2.6714    2.0394 H   0  0  0  0  0  0  0  0  0  0  0  0
   -0.2357    4.6102    2.0841 C   0  0  0  0  0  0  0  0  0  0  0  0
   -1.2193    4.7364    2.5487 H   0  0  0  0  0  0  0  0  0  0  0  0
    0.5306    4.8649    2.8225 H   0  0  0  0  0  0  0  0  0  0  0  0
   -0.1507    5.3072    1.2438 H   0  0  0  0  0  0  0  0  0  0  0  0
  1  2  1  0  0  0  0
  2  3  1  0  0  0  0
  2  4  1  0  0  0  0
  2  5  1  0  0  0  0
  5  6  2  0  0  0  0
  5  7  1  0  0  0  0
  7  8  1  0  0  0  0
  7  9  1  0  0  0  0
  9 10  1  0  0  0  0
  9 11  1  0  0  0  0
  9 26  1  0  0  0  0
 11 12  1  0  0  0  0
 11 13  1  0  0  0  0
 11 14  1  0  0  0  0
 14 15  1  0  0  0  0
 14 16  1  0  0  0  0
 14 17  1  0  0  0  0
 17 18  1  0  0  0  0
 17 19  1  0  0  0  0
 17 20  1  0  0  0  0
 20 21  1  0  0  0  0
 20 22  1  0  0  0  0
 20 23  1  0  0  0  0
 23 24  1  0  0  0  0
 23 25  1  0  0  0  0
 26 27  2  0  0  0  0
 26 28  1  0  0  0  0
 28 29  1  0  0  0  0
 28 30  1  0  0  0  0
 30 31  1  0  0  0  0
 30 32  1  0  0  0  0
 30 33  1  0  0  0  0
M  END
$$$$

  -OEChem-01062216083D

 33 32  0     1  0  0  0  0  0999 V2000
   -3.6294   -2.3331    1.2856 H   0  0  0  0  0  0  0  0  0  0  0  0
   -3.6215   -1.3495    0.8077 C   0  0  0  0  0  0  0  0  0  0  0  0
   -4.2773   -0.6795    1.3689 H   0  0  0  0  0  0  0  0  0  0  0  0
   -4.0009   -1.4502   -0.2120 H   0  0  0  0  0  0  0  0  0  0  0  0
   -2.2112   -0.7919    0.7821 C   0  0  0  0  0  0  0  0  0  0  0  0
   -1.2875   -1.4504    1.2347 O   0  0  0  0  0  0  0  0  0  0  0  0
   -1.9807    0.4564    0.2425 N   0  0  0  0  0  0  0  0  0  0  0  0
   -2.7972    1.0159   -0.0010 H   0  0  0  0  0  0  0  0  0  0  0  0
   -0.6915    1.1635    0.2852 C   0  0  1  0  0  0  0  0  0  0  0  0
   -0.0365    0.7127    1.0380 H   0  0  0  0  0  0  0  0  0  0  0  0
   -0.0073    1.0926   -1.0915 C   0  0  0  0  0  0  0  0  0  0  0  0
   -0.6959    1.4630   -1.8587 H   0  0  0  0  0  0  0  0  0  0  0  0
    0.8708    1.7470   -1.0910 H   0  0  0  0  0  0  0  0  0  0  0  0
    0.4406   -0.3331   -1.4426 C   0  0  0  0  0  0  0  0  0  0  0  0
    1.1226   -0.7053   -0.6707 H   0  0  0  0  0  0  0  0  0  0  0  0
   -0.4277   -0.9987   -1.4728 H   0  0  0  0  0  0  0  0  0  0  0  0
    1.1381   -0.3578   -2.8059 C   0  0  0  0  0  0  0  0  0  0  0  0
    0.4578    0.0264   -3.5728 H   0  0  0  0  0  0  0  0  0  0  0  0
    2.0208    0.2894   -2.7811 H   0  0  0  0  0  0  0  0  0  0  0  0
    1.5627   -1.7775   -3.1688 C   0  0  0  0  0  0  0  0  0  0  0  0
    2.2645   -2.1622   -2.4203 H   0  0  0  0  0  0  0  0  0  0  0  0
    0.6892   -2.4386   -3.1868 H   0  0  0  0  0  0  0  0  0  0  0  0
    2.2015   -1.7499   -4.4881 N   0  0  0  0  0  0  0  0  0  0  0  0
    2.5160   -2.6798   -4.7652 H   0  0  0  0  0  0  0  0  0  0  0  0
    1.5753   -1.3541   -5.1891 H   0  0  0  0  0  0  0  0  0  0  0  0
   -0.8996    2.6395    0.6810 C   0  0  0  0  0  0  0  0  0  0  0  0
   -1.9527    3.2061    0.4084 O   0  0  0  0  0  0  0  0  0  0  0  0
    0.0843    3.3263    1.3683 N   0  0  0  0  0  0  0  0  0  0  0  0
    0.9332    2.8215    1.6071 H   0  0  0  0  0  0  0  0  0  0  0  0
   -0.0592    4.7113    1.8000 C   0  0  0  0  0  0  0  0  0  0  0  0
   -0.9154    4.8160    2.4746 H   0  0  0  0  0  0  0  0  0  0  0  0
    0.8404    5.0374    2.3305 H   0  0  0  0  0  0  0  0  0  0  0  0
   -0.2082    5.3678    0.9364 H   0  0  0  0  0  0  0  0  0  0  0  0
  1  2  1  0  0  0  0
  2  3  1  0  0  0  0
  2  4  1  0  0  0  0
  2  5  1  0  0  0  0
  5  6  2  0  0  0  0
  5  7  1  0  0  0  0
  7  8  1  0  0  0  0
  7  9  1  0  0  0  0
  9 10  1  0  0  0  0
  9 11  1  0  0  0  0
  9 26  1  0  0  0  0
 11 12  1  0  0  0  0
 11 13  1  0  0  0  0
 11 14  1  0  0  0  0
 14 15  1  0  0  0  0
 14 16  1  0  0  0  0
 14 17  1  0  0  0  0
 17 18  1  0  0  0  0
 17 19  1  0  0  0  0
 17 20  1  0  0  0  0
 20 21  1  0  0  0  0
 20 22  1  0  0  0  0
 20 23  1  0  0  0  0
 23 24  1  0  0  0  0
 23 25  1  0  0  0  0
 26 27  2  0  0  0  0
 26 28  1  0  0  0  0
 28 29  1  0  0  0  0
 28 30  1  0  0  0  0
 30 31  1  0  0  0  0
 30 32  1  0  0  0  0
 30 33  1  0  0  0  0
M  END
$$$$

  -OEChem-01062216083D

 33 32  0     1  0  0  0  0  0999 V2000
   -3.6415   -2.3089    1.3355 H   0  0  0  0  0  0  0  0  0  0  0  0
   -3.6355   -1.3302    0.8481 C   0  0  0  0  0  0  0  0  0  0  0  0
   -4.2540   -0.6430    1.4304 H   0  0  0  0  0  0  0  0  0  0  0  0
   -4.0595   -1.4323   -0.1536 H   0  0  0  0  0  0  0  0  0  0  0  0
   -2.2174   -0.7998    0.7577 C   0  0  0  0  0  0  0  0  0  0  0  0
   -1.2865   -1.4775    1.1653 O   0  0  0  0  0  0  0  0  0  0  0  0
   -1.9907    0.4497    0.2190 N   0  0  0  0  0  0  0  0  0  0  0  0
   -2.8122    1.0308    0.0537 H   0  0  0  0  0  0  0  0  0  0  0  0
   -0.7018    1.1575    0.2743 C   0  0  1  0  0  0  0  0  0  0  0  0
   -0.0525    0.7084    1.0335 H   0  0  0  0  0  0  0  0  0  0  0  0
   -0.0074    1.0876   -1.0989 C   0  0  0  0  0  0  0  0  0  0  0  0
   -0.6914    1.4587   -1.8698 H   0  0  0  0  0  0  0  0  0  0  0  0
    0.8717    1.7404   -1.0947 H   0  0  0  0  0  0  0  0  0  0  0  0
    0.4437   -0.3369   -1.4510 C   0  0  0  0  0  0  0  0  0  0  0  0
    1.1204   -0.7117   -0.6756 H   0  0  0  0  0  0  0  0  0  0  0  0
   -0.4240   -1.0026   -1.4894 H   0  0  0  0  0  0  0  0  0  0  0  0
    1.1507   -0.3577   -2.8099 C   0  0  0  0  0  0  0  0  0  0  0  0
    0.4760    0.0288   -3.5806 H   0  0  0  0  0  0  0  0  0  0  0  0
    2.0336    0.2891   -2.7773 H   0  0  0  0  0  0  0  0  0  0  0  0
    1.5785   -1.7762   -3.1740 C   0  0  0  0  0  0  0  0  0  0  0  0
    2.2746   -2.1633   -2.4218 H   0  0  0  0  0  0  0  0  0  0  0  0
    0.7050   -2.4373   -3.2003 H   0  0  0  0  0  0  0  0  0  0  0  0
    2.2262   -1.7435   -4.4890 N   0  0  0  0  0  0  0  0  0  0  0  0
    2.5352   -2.6739   -4.7706 H   0  0  0  0  0  0  0  0  0  0  0  0
    1.6076   -1.3380   -5.1911 H   0  0  0  0  0  0  0  0  0  0  0  0
   -0.9152    2.6345    0.6707 C   0  0  0  0  0  0  0  0  0  0  0  0
   -2.0347    3.1336    0.6147 O   0  0  0  0  0  0  0  0  0  0  0  0
    0.1516    3.4111    1.0849 N   0  0  0  0  0  0  0  0  0  0  0  0
    1.0651    2.9693    1.1364 H   0  0  0  0  0  0  0  0  0  0  0  0
    0.0195    4.8096    1.4746 C   0  0  0  0  0  0  0  0  0  0  0  0
   -0.6587    4.9068    2.3288 H   0  0  0  0  0  0  0  0  0  0  0  0
    0.9942    5.2174    1.7588 H   0  0  0  0  0  0  0  0  0  0  0  0
   -0.3739    5.4028    0.6425 H   0  0  0  0  0  0  0  0  0  0  0  0
  1  2  1  0  0  0  0
  2  3  1  0  0  0  0
  2  4  1  0  0  0  0
  2  5  1  0  0  0  0
  5  6  2  0  0  0  0
  5  7  1  0  0  0  0
  7  8  1  0  0  0  0
  7  9  1  0  0  0  0
  9 10  1  0  0  0  0
  9 11  1  0  0  0  0
  9 26  1  0  0  0  0
 11 12  1  0  0  0  0
 11 13  1  0  0  0  0
 11 14  1  0  0  0  0
 14 15  1  0  0  0  0
 14 16  1  0  0  0  0
 14 17  1  0  0  0  0
 17 18  1  0  0  0  0
 17 19  1  0  0  0  0
 17 20  1  0  0  0  0
 20 21  1  0  0  0  0
 20 22  1  0  0  0  0
 20 23  1  0  0  0  0
 23 24  1  0  0  0  0
 23 25  1  0  0  0  0
 26 27  2  0  0  0  0
 26 28  1  0  0  0  0
 28 29  1  0  0  0  0
 28 30  1  0  0  0  0
 30 31  1  0  0  0  0
 30 32  1  0  0  0  0
 30 33  1  0  0  0  0
M  END
$$$$

  -OEChem-01062216083D

 33 32  0     1  0  0  0  0  0999 V2000
   -3.5706   -2.2996    1.3776 H   0  0  0  0  0  0  0  0  0  0  0  0
   -3.5949   -1.3166    0.8992 C   0  0  0  0  0  0  0  0  0  0  0  0
   -4.1495   -0.6271    1.5405 H   0  0  0  0  0  0  0  0  0  0  0  0
   -4.1086   -1.4036   -0.0611 H   0  0  0  0  0  0  0  0  0  0  0  0
   -2.1839   -0.8028    0.6854 C   0  0  0  0  0  0  0  0  0  0  0  0
   -1.2290   -1.5125    0.9621 O   0  0  0  0  0  0  0  0  0  0  0  0
   -1.9947    0.4598    0.1626 N   0  0  0  0  0  0  0  0  0  0  0  0
   -2.8251    1.0501    0.1516 H   0  0  0  0  0  0  0  0  0  0  0  0
   -0.7119    1.1794    0.2327 C   0  0  1  0  0  0  0  0  0  0  0  0
    0.0375    0.5917    0.7732 H   0  0  0  0  0  0  0  0  0  0  0  0
   -0.2114    1.4289   -1.2021 C   0  0  0  0  0  0  0  0  0  0  0  0
   -0.9937    1.9340   -1.7789 H   0  0  0  0  0  0  0  0  0  0  0  0
    0.6614    2.0889   -1.1787 H   0  0  0  0  0  0  0  0  0  0  0  0
    0.1858    0.1198   -1.8990 C   0  0  0  0  0  0  0  0  0  0  0  0
    0.9625   -0.3858   -1.3154 H   0  0  0  0  0  0  0  0  0  0  0  0
   -0.6790   -0.5491   -1.9556 H   0  0  0  0  0  0  0  0  0  0  0  0
    0.7030    0.3988   -3.3141 C   0  0  0  0  0  0  0  0  0  0  0  0
   -0.0699    0.9165   -3.8917 H   0  0  0  0  0  0  0  0  0  0  0  0
    1.5823    1.0498   -3.2659 H   0  0  0  0  0  0  0  0  0  0  0  0
    1.0757   -0.9026   -4.0179 C   0  0  0  0  0  0  0  0  0  0  0  0
    1.8674   -1.4159   -3.4607 H   0  0  0  0  0  0  0  0  0  0  0  0
    0.2064   -1.5680   -4.0639 H   0  0  0  0  0  0  0  0  0  0  0  0
    1.5405   -0.5849   -5.3717 N   0  0  0  0  0  0  0  0  0  0  0  0
    1.8160   -1.4288   -5.8742 H   0  0  0  0  0  0  0  0  0  0  0  0
    0.8304   -0.0686   -5.8905 H   0  0  0  0  0  0  0  0  0  0  0  0
   -0.8687    2.5119    1.0008 C   0  0  0  0  0  0  0  0  0  0  0  0
   -1.9726    2.8697    1.3989 O   0  0  0  0  0  0  0  0  0  0  0  0
    0.2161    3.3500    1.1877 N   0  0  0  0  0  0  0  0  0  0  0  0
    1.1215    3.0279    0.8580 H   0  0  0  0  0  0  0  0  0  0  0  0
    0.1338    4.6264    1.8875 C   0  0  0  0  0  0  0  0  0  0  0  0
   -0.2135    4.4786    2.9155 H   0  0  0  0  0  0  0  0  0  0  0  0
    1.1180    5.1033    1.9207 H   0  0  0  0  0  0  0  0  0  0  0  0
   -0.5595    5.3011    1.3745 H   0  0  0  0  0  0  0  0  0  0  0  0
  1  2  1  0  0  0  0
  2  3  1  0  0  0  0
  2  4  1  0  0  0  0
  2  5  1  0  0  0  0
  5  6  2  0  0  0  0
  5  7  1  0  0  0  0
  7  8  1  0  0  0  0
  7  9  1  0  0  0  0
  9 10  1  0  0  0  0
  9 11  1  0  0  0  0
  9 26  1  0  0  0  0
 11 12  1  0  0  0  0
 11 13  1  0  0  0  0
 11 14  1  0  0  0  0
 14 15  1  0  0  0  0
 14 16  1  0  0  0  0
 14 17  1  0  0  0  0
 17 18  1  0  0  0  0
 17 19  1  0  0  0  0
 17 20  1  0  0  0  0
 20 21  1  0  0  0  0
 20 22  1  0  0  0  0
 20 23  1  0  0  0  0
 23 24  1  0  0  0  0
 23 25  1  0  0  0  0
 26 27  2  0  0  0  0
 26 28  1  0  0  0  0
 28 29  1  0  0  0  0
 28 30  1  0  0  0  0
 30 31  1  0  0  0  0
 30 32  1  0  0  0  0
 30 33  1  0  0  0  0
M  END
$$$$

  -OEChem-01062216083D

 33 32  0     1  0  0  0  0  0999 V2000
   -3.5477   -2.2776    1.3999 H   0  0  0  0  0  0  0  0  0  0  0  0
   -3.5829   -1.2953    0.9208 C   0  0  0  0  0  0  0  0  0  0  0  0
   -4.1050   -0.6001    1.5830 H   0  0  0  0  0  0  0  0  0  0  0  0
   -4.1356   -1.3792   -0.0179 H   0  0  0  0  0  0  0  0  0  0  0  0
   -2.1771   -0.7942    0.6510 C   0  0  0  0  0  0  0  0  0  0  0  0
   -1.2194   -1.5180    0.8777 O   0  0  0  0  0  0  0  0  0  0  0  0
   -1.9972    0.4737    0.1372 N   0  0  0  0  0  0  0  0  0  0  0  0
   -2.8254    1.0654    0.1750 H   0  0  0  0  0  0  0  0  0  0  0  0
   -0.7118    1.1891    0.2140 C   0  0  1  0  0  0  0  0  0  0  0  0
    0.0354    0.5993    0.7555 H   0  0  0  0  0  0  0  0  0  0  0  0
   -0.2066    1.4310   -1.2226 C   0  0  0  0  0  0  0  0  0  0  0  0
   -0.9845    1.9383   -1.8032 H   0  0  0  0  0  0  0  0  0  0  0  0
    0.6722    2.0821   -1.2029 H   0  0  0  0  0  0  0  0  0  0  0  0
    0.1867    0.1167   -1.9126 C   0  0  0  0  0  0  0  0  0  0  0  0
    0.9594   -0.3901   -1.3245 H   0  0  0  0  0  0  0  0  0  0  0  0
   -0.6811   -0.5484   -1.9688 H   0  0  0  0  0  0  0  0  0  0  0  0
    0.7085    0.3853   -3.3280 C   0  0  0  0  0  0  0  0  0  0  0  0
   -0.0598    0.9040   -3.9104 H   0  0  0  0  0  0  0  0  0  0  0  0
    1.5913    1.0311   -3.2807 H   0  0  0  0  0  0  0  0  0  0  0  0
    1.0769   -0.9215   -4.0240 C   0  0  0  0  0  0  0  0  0  0  0  0
    1.8648   -1.4359   -3.4625 H   0  0  0  0  0  0  0  0  0  0  0  0
    0.2046   -1.5831   -4.0691 H   0  0  0  0  0  0  0  0  0  0  0  0
    1.5463   -0.6128   -5.3782 N   0  0  0  0  0  0  0  0  0  0  0  0
    1.8251   -1.4598   -5.8736 H   0  0  0  0  0  0  0  0  0  0  0  0
    0.8373   -0.1017   -5.9034 H   0  0  0  0  0  0  0  0  0  0  0  0
   -0.8751    2.5141    0.9986 C   0  0  0  0  0  0  0  0  0  0  0  0
   -1.9169    2.7449    1.6039 O   0  0  0  0  0  0  0  0  0  0  0  0
    0.0941    3.5009    0.9511 N   0  0  0  0  0  0  0  0  0  0  0  0
    0.9526    3.2929    0.4495 H   0  0  0  0  0  0  0  0  0  0  0  0
   -0.0263    4.7793    1.6425 C   0  0  0  0  0  0  0  0  0  0  0  0
   -0.1345    4.6235    2.7212 H   0  0  0  0  0  0  0  0  0  0  0  0
    0.8659    5.3885    1.4692 H   0  0  0  0  0  0  0  0  0  0  0  0
   -0.8979    5.3325    1.2771 H   0  0  0  0  0  0  0  0  0  0  0  0
  1  2  1  0  0  0  0
  2  3  1  0  0  0  0
  2  4  1  0  0  0  0
  2  5  1  0  0  0  0
  5  6  2  0  0  0  0
  5  7  1  0  0  0  0
  7  8  1  0  0  0  0
  7  9  1  0  0  0  0
  9 10  1  0  0  0  0
  9 11  1  0  0  0  0
  9 26  1  0  0  0  0
 11 12  1  0  0  0  0
 11 13  1  0  0  0  0
 11 14  1  0  0  0  0
 14 15  1  0  0  0  0
 14 16  1  0  0  0  0
 14 17  1  0  0  0  0
 17 18  1  0  0  0  0
 17 19  1  0  0  0  0
 17 20  1  0  0  0  0
 20 21  1  0  0  0  0
 20 22  1  0  0  0  0
 20 23  1  0  0  0  0
 23 24  1  0  0  0  0
 23 25  1  0  0  0  0
 26 27  2  0  0  0  0
 26 28  1  0  0  0  0
 28 29  1  0  0  0  0
 28 30  1  0  0  0  0
 30 31  1  0  0  0  0
 30 32  1  0  0  0  0
 30 33  1  0  0  0  0
M  END
$$$$

  -OEChem-01062216083D

 33 32  0     1  0  0  0  0  0999 V2000
   -3.5308   -2.2836    1.3810 H   0  0  0  0  0  0  0  0  0  0  0  0
   -3.5751   -1.2918    0.9225 C   0  0  0  0  0  0  0  0  0  0  0  0
   -4.0859   -0.6106    1.6075 H   0  0  0  0  0  0  0  0  0  0  0  0
   -4.1437   -1.3577   -0.0080 H   0  0  0  0  0  0  0  0  0  0  0  0
   -2.1738   -0.7847    0.6387 C   0  0  0  0  0  0  0  0  0  0  0  0
   -1.2132   -1.5124    0.8387 O   0  0  0  0  0  0  0  0  0  0  0  0
   -2.0016    0.4861    0.1279 N   0  0  0  0  0  0  0  0  0  0  0  0
   -2.8312    1.0736    0.1778 H   0  0  0  0  0  0  0  0  0  0  0  0
   -0.7149    1.2008    0.2014 C   0  0  1  0  0  0  0  0  0  0  0  0
    0.0327    0.6125    0.7442 H   0  0  0  0  0  0  0  0  0  0  0  0
   -0.2070    1.4308   -1.2370 C   0  0  0  0  0  0  0  0  0  0  0  0
   -0.9814    1.9377   -1.8229 H   0  0  0  0  0  0  0  0  0  0  0  0
    0.6772    2.0747   -1.2206 H   0  0  0  0  0  0  0  0  0  0  0  0
    0.1857    0.1117   -1.9175 C   0  0  0  0  0  0  0  0  0  0  0  0
    0.9563   -0.3933   -1.3253 H   0  0  0  0  0  0  0  0  0  0  0  0
   -0.6832   -0.5520   -1.9716 H   0  0  0  0  0  0  0  0  0  0  0  0
    0.7093    0.3734   -3.3333 C   0  0  0  0  0  0  0  0  0  0  0  0
   -0.0592    0.8882   -3.9187 H   0  0  0  0  0  0  0  0  0  0  0  0
    1.5914    1.0205   -3.2892 H   0  0  0  0  0  0  0  0  0  0  0  0
    1.0779   -0.9370   -4.0219 C   0  0  0  0  0  0  0  0  0  0  0  0
    1.8645   -1.4493   -3.4564 H   0  0  0  0  0  0  0  0  0  0  0  0
    0.2052   -1.5984   -4.0649 H   0  0  0  0  0  0  0  0  0  0  0  0
    1.5491   -0.6345   -5.3769 N   0  0  0  0  0  0  0  0  0  0  0  0
    1.8332   -1.4833   -5.8660 H   0  0  0  0  0  0  0  0  0  0  0  0
    0.8391   -0.1300   -5.9071 H   0  0  0  0  0  0  0  0  0  0  0  0
   -0.8792    2.5224    0.9941 C   0  0  0  0  0  0  0  0  0  0  0  0
   -1.7990    2.6404    1.7960 O   0  0  0  0  0  0  0  0  0  0  0  0
   -0.0950    3.6327    0.7313 N   0  0  0  0  0  0  0  0  0  0  0  0
    0.6580    3.5272    0.0581 H   0  0  0  0  0  0  0  0  0  0  0  0
   -0.2474    4.9080    1.4222 C   0  0  0  0  0  0  0  0  0  0  0  0
   -0.1035    4.7788    2.5001 H   0  0  0  0  0  0  0  0  0  0  0  0
    0.4935    5.6264    1.0581 H   0  0  0  0  0  0  0  0  0  0  0  0
   -1.2456    5.3226    1.2465 H   0  0  0  0  0  0  0  0  0  0  0  0
  1  2  1  0  0  0  0
  2  3  1  0  0  0  0
  2  4  1  0  0  0  0
  2  5  1  0  0  0  0
  5  6  2  0  0  0  0
  5  7  1  0  0  0  0
  7  8  1  0  0  0  0
  7  9  1  0  0  0  0
  9 10  1  0  0  0  0
  9 11  1  0  0  0  0
  9 26  1  0  0  0  0
 11 12  1  0  0  0  0
 11 13  1  0  0  0  0
 11 14  1  0  0  0  0
 14 15  1  0  0  0  0
 14 16  1  0  0  0  0
 14 17  1  0  0  0  0
 17 18  1  0  0  0  0
 17 19  1  0  0  0  0
 17 20  1  0  0  0  0
 20 21  1  0  0  0  0
 20 22  1  0  0  0  0
 20 23  1  0  0  0  0
 23 24  1  0  0  0  0
 23 25  1  0  0  0  0
 26 27  2  0  0  0  0
 26 28  1  0  0  0  0
 28 29  1  0  0  0  0
 28 30  1  0  0  0  0
 30 31  1  0  0  0  0
 30 32  1  0  0  0  0
 30 33  1  0  0  0  0
M  END
$$$$

  -OEChem-01062216083D

 33 32  0     1  0  0  0  0  0999 V2000
   -3.5260   -2.2840    1.3803 H   0  0  0  0  0  0  0  0  0  0  0  0
   -3.5744   -1.2838    0.9408 C   0  0  0  0  0  0  0  0  0  0  0  0
   -4.0638   -0.6119    1.6502 H   0  0  0  0  0  0  0  0  0  0  0  0
   -4.1658   -1.3290    0.0233 H   0  0  0  0  0  0  0  0  0  0  0  0
   -2.1769   -0.7802    0.6332 C   0  0  0  0  0  0  0  0  0  0  0  0
   -1.2159   -1.5127    0.8117 O   0  0  0  0  0  0  0  0  0  0  0  0
   -2.0104    0.4919    0.1228 N   0  0  0  0  0  0  0  0  0  0  0  0
   -2.8419    1.0752    0.1736 H   0  0  0  0  0  0  0  0  0  0  0  0
   -0.7222    1.2048    0.1890 C   0  0  1  0  0  0  0  0  0  0  0  0
    0.0247    0.6169    0.7335 H   0  0  0  0  0  0  0  0  0  0  0  0
   -0.2076    1.4289   -1.2480 C   0  0  0  0  0  0  0  0  0  0  0  0
   -0.9776    1.9357   -1.8395 H   0  0  0  0  0  0  0  0  0  0  0  0
    0.6789    2.0700   -1.2250 H   0  0  0  0  0  0  0  0  0  0  0  0
    0.1863    0.1081   -1.9242 C   0  0  0  0  0  0  0  0  0  0  0  0
    0.9541   -0.3972   -1.3284 H   0  0  0  0  0  0  0  0  0  0  0  0
   -0.6831   -0.5548   -1.9812 H   0  0  0  0  0  0  0  0  0  0  0  0
    0.7158    0.3677   -3.3379 C   0  0  0  0  0  0  0  0  0  0  0  0
   -0.0491    0.8834   -3.9275 H   0  0  0  0  0  0  0  0  0  0  0  0
    1.5991    1.0131   -3.2897 H   0  0  0  0  0  0  0  0  0  0  0  0
    1.0861   -0.9436   -4.0235 C   0  0  0  0  0  0  0  0  0  0  0  0
    1.8708   -1.4545   -3.4544 H   0  0  0  0  0  0  0  0  0  0  0  0
    0.2140   -1.6052   -4.0688 H   0  0  0  0  0  0  0  0  0  0  0  0
    1.5630   -0.6434   -5.3769 N   0  0  0  0  0  0  0  0  0  0  0  0
    1.8547   -1.4927   -5.8609 H   0  0  0  0  0  0  0  0  0  0  0  0
    0.8528   -0.1456   -5.9133 H   0  0  0  0  0  0  0  0  0  0  0  0
   -0.8865    2.5228    0.9867 C   0  0  0  0  0  0  0  0  0  0  0  0
   -1.6289    2.5487    1.9609 O   0  0  0  0  0  0  0  0  0  0  0  0
   -0.3447    3.7195    0.5486 N   0  0  0  0  0  0  0  0  0  0  0  0
    0.2446    3.6937   -0.2780 H   0  0  0  0  0  0  0  0  0  0  0  0
   -0.5313    4.9897    1.2401 C   0  0  0  0  0  0  0  0  0  0  0  0
   -0.1463    4.9284    2.2635 H   0  0  0  0  0  0  0  0  0  0  0  0
    0.0045    5.7876    0.7170 H   0  0  0  0  0  0  0  0  0  0  0  0
   -1.5933    5.2537    1.2779 H   0  0  0  0  0  0  0  0  0  0  0  0
  1  2  1  0  0  0  0
  2  3  1  0  0  0  0
  2  4  1  0  0  0  0
  2  5  1  0  0  0  0
  5  6  2  0  0  0  0
  5  7  1  0  0  0  0
  7  8  1  0  0  0  0
  7  9  1  0  0  0  0
  9 10  1  0  0  0  0
  9 11  1  0  0  0  0
  9 26  1  0  0  0  0
 11 12  1  0  0  0  0
 11 13  1  0  0  0  0
 11 14  1  0  0  0  0
 14 15  1  0  0  0  0
 14 16  1  0  0  0  0
 14 17  1  0  0  0  0
 17 18  1  0  0  0  0
 17 19  1  0  0  0  0
 17 20  1  0  0  0  0
 20 21  1  0  0  0  0
 20 22  1  0  0  0  0
 20 23  1  0  0  0  0
 23 24  1  0  0  0  0
 23 25  1  0  0  0  0
 26 27  2  0  0  0  0
 26 28  1  0  0  0  0
 28 29  1  0  0  0  0
 28 30  1  0  0  0  0
 30 31  1  0  0  0  0
 30 32  1  0  0  0  0
 30 33  1  0  0  0  0
M  END
$$$$

  -OEChem-01062216083D

 33 32  0     1  0  0  0  0  0999 V2000
   -3.5251   -2.2917    1.3762 H   0  0  0  0  0  0  0  0  0  0  0  0
   -3.5753   -1.2894    0.9414 C   0  0  0  0  0  0  0  0  0  0  0  0
   -4.0678   -0.6226    1.6535 H   0  0  0  0  0  0  0  0  0  0  0  0
   -4.1649   -1.3319    0.0226 H   0  0  0  0  0  0  0  0  0  0  0  0
   -2.1784   -0.7808    0.6387 C   0  0  0  0  0  0  0  0  0  0  0  0
   -1.2163   -1.5119    0.8151 O   0  0  0  0  0  0  0  0  0  0  0  0
   -2.0150    0.4917    0.1275 N   0  0  0  0  0  0  0  0  0  0  0  0
   -2.8519    1.0678    0.1545 H   0  0  0  0  0  0  0  0  0  0  0  0
   -0.7281    1.2077    0.1857 C   0  0  1  0  0  0  0  0  0  0  0  0
    0.0212    0.6216    0.7294 H   0  0  0  0  0  0  0  0  0  0  0  0
   -0.2124    1.4315   -1.2501 C   0  0  0  0  0  0  0  0  0  0  0  0
   -0.9823    1.9334   -1.8454 H   0  0  0  0  0  0  0  0  0  0  0  0
    0.6709    2.0779   -1.2222 H   0  0  0  0  0  0  0  0  0  0  0  0
    0.1857    0.1109   -1.9228 C   0  0  0  0  0  0  0  0  0  0  0  0
    0.9545   -0.3900   -1.3244 H   0  0  0  0  0  0  0  0  0  0  0  0
   -0.6818   -0.5547   -1.9784 H   0  0  0  0  0  0  0  0  0  0  0  0
    0.7166    0.3689   -3.3364 C   0  0  0  0  0  0  0  0  0  0  0  0
   -0.0490    0.8806   -3.9284 H   0  0  0  0  0  0  0  0  0  0  0  0
    1.5977    1.0171   -3.2890 H   0  0  0  0  0  0  0  0  0  0  0  0
    1.0911   -0.9431   -4.0184 C   0  0  0  0  0  0  0  0  0  0  0  0
    1.8765   -1.4507   -3.4469 H   0  0  0  0  0  0  0  0  0  0  0  0
    0.2207   -1.6073   -4.0636 H   0  0  0  0  0  0  0  0  0  0  0  0
    1.5693   -0.6443   -5.3720 N   0  0  0  0  0  0  0  0  0  0  0  0
    1.8664   -1.4933   -5.8530 H   0  0  0  0  0  0  0  0  0  0  0  0
    0.8588   -0.1504   -5.9116 H   0  0  0  0  0  0  0  0  0  0  0  0
   -0.8909    2.5241    0.9829 C   0  0  0  0  0  0  0  0  0  0  0  0
   -1.4128    2.4948    2.0897 O   0  0  0  0  0  0  0  0  0  0  0  0
   -0.6322    3.7606    0.4155 N   0  0  0  0  0  0  0  0  0  0  0  0
   -0.2295    3.7741   -0.5168 H   0  0  0  0  0  0  0  0  0  0  0  0
   -0.8496    5.0253    1.1082 C   0  0  0  0  0  0  0  0  0  0  0  0
   -0.2447    5.0713    2.0198 H   0  0  0  0  0  0  0  0  0  0  0  0
   -0.5677    5.8634    0.4637 H   0  0  0  0  0  0  0  0  0  0  0  0
   -1.9046    5.1375    1.3793 H   0  0  0  0  0  0  0  0  0  0  0  0
  1  2  1  0  0  0  0
  2  3  1  0  0  0  0
  2  4  1  0  0  0  0
  2  5  1  0  0  0  0
  5  6  2  0  0  0  0
  5  7  1  0  0  0  0
  7  8  1  0  0  0  0
  7  9  1  0  0  0  0
  9 10  1  0  0  0  0
  9 11  1  0  0  0  0
  9 26  1  0  0  0  0
 11 12  1  0  0  0  0
 11 13  1  0  0  0  0
 11 14  1  0  0  0  0
 14 15  1  0  0  0  0
 14 16  1  0  0  0  0
 14 17  1  0  0  0  0
 17 18  1  0  0  0  0
 17 19  1  0  0  0  0
 17 20  1  0  0  0  0
 20 21  1  0  0  0  0
 20 22  1  0  0  0  0
 20 23  1  0  0  0  0
 23 24  1  0  0  0  0
 23 25  1  0  0  0  0
 26 27  2  0  0  0  0
 26 28  1  0  0  0  0
 28 29  1  0  0  0  0
 28 30  1  0  0  0  0
 30 31  1  0  0  0  0
 30 32  1  0  0  0  0
 30 33  1  0  0  0  0
M  END
$$$$

  -OEChem-01062216083D

 33 32  0     1  0  0  0  0  0999 V2000
   -3.5269   -2.3095    1.3659 H   0  0  0  0  0  0  0  0  0  0  0  0
   -3.5776   -1.3084    0.9286 C   0  0  0  0  0  0  0  0  0  0  0  0
   -4.0907   -0.6453    1.6295 H   0  0  0  0  0  0  0  0  0  0  0  0
   -4.1479   -1.3578   -0.0020 H   0  0  0  0  0  0  0  0  0  0  0  0
   -2.1799   -0.7876    0.6527 C   0  0  0  0  0  0  0  0  0  0  0  0
   -1.2154   -1.5107    0.8456 O   0  0  0  0  0  0  0  0  0  0  0  0
   -2.0196    0.4846    0.1394 N   0  0  0  0  0  0  0  0  0  0  0  0
   -2.8637    1.0498    0.1274 H   0  0  0  0  0  0  0  0  0  0  0  0
   -0.7374    1.2090    0.1907 C   0  0  1  0  0  0  0  0  0  0  0  0
    0.0163    0.6269    0.7333 H   0  0  0  0  0  0  0  0  0  0  0  0
   -0.2238    1.4361   -1.2445 C   0  0  0  0  0  0  0  0  0  0  0  0
   -0.9988    1.9274   -1.8421 H   0  0  0  0  0  0  0  0  0  0  0  0
    0.6514    2.0940   -1.2141 H   0  0  0  0  0  0  0  0  0  0  0  0
    0.1831    0.1177   -1.9161 C   0  0  0  0  0  0  0  0  0  0  0  0
    0.9556   -0.3770   -1.3174 H   0  0  0  0  0  0  0  0  0  0  0  0
   -0.6796   -0.5543   -1.9705 H   0  0  0  0  0  0  0  0  0  0  0  0
    0.7120    0.3771   -3.3301 C   0  0  0  0  0  0  0  0  0  0  0  0
   -0.0568    0.8828   -3.9229 H   0  0  0  0  0  0  0  0  0  0  0  0
    1.5891    1.0309   -3.2832 H   0  0  0  0  0  0  0  0  0  0  0  0
    1.0949   -0.9339   -4.0093 C   0  0  0  0  0  0  0  0  0  0  0  0
    1.8835   -1.4349   -3.4366 H   0  0  0  0  0  0  0  0  0  0  0  0
    0.2286   -1.6036   -4.0525 H   0  0  0  0  0  0  0  0  0  0  0  0
    1.5711   -0.6360   -5.3637 N   0  0  0  0  0  0  0  0  0  0  0  0
    1.8740   -1.4846   -5.8422 H   0  0  0  0  0  0  0  0  0  0  0  0
    0.8571   -0.1487   -5.9047 H   0  0  0  0  0  0  0  0  0  0  0  0
   -0.8991    2.5260    0.9827 C   0  0  0  0  0  0  0  0  0  0  0  0
   -1.1522    2.4839    2.1784 O   0  0  0  0  0  0  0  0  0  0  0  0
   -0.9482    3.7529    0.3427 N   0  0  0  0  0  0  0  0  0  0  0  0
   -0.7536    3.7693   -0.6539 H   0  0  0  0  0  0  0  0  0  0  0  0
   -1.1754    5.0141    1.0384 C   0  0  0  0  0  0  0  0  0  0  0  0
   -0.3857    5.1922    1.7760 H   0  0  0  0  0  0  0  0  0  0  0  0
   -1.1769    5.8444    0.3256 H   0  0  0  0  0  0  0  0  0  0  0  0
   -2.1418    4.9998    1.5533 H   0  0  0  0  0  0  0  0  0  0  0  0
  1  2  1  0  0  0  0
  2  3  1  0  0  0  0
  2  4  1  0  0  0  0
  2  5  1  0  0  0  0
  5  6  2  0  0  0  0
  5  7  1  0  0  0  0
  7  8  1  0  0  0  0
  7  9  1  0  0  0  0
  9 10  1  0  0  0  0
  9 11  1  0  0  0  0
  9 26  1  0  0  0  0
 11 12  1  0  0  0  0
 11 13  1  0  0  0  0
 11 14  1  0  0  0  0
 14 15  1  0  0  0  0
 14 16  1  0  0  0  0
 14 17  1  0  0  0  0
 17 18  1  0  0  0  0
 17 19  1  0  0  0  0
 17 20  1  0  0  0  0
 20 21  1  0  0  0  0
 20 22  1  0  0  0  0
 20 23  1  0  0  0  0
 23 24  1  0  0  0  0
 23 25  1  0  0  0  0
 26 27  2  0  0  0  0
 26 28  1  0  0  0  0
 28 29  1  0  0  0  0
 28 30  1  0  0  0  0
 30 31  1  0  0  0  0
 30 32  1  0  0  0  0
 30 33  1  0  0  0  0
M  END
$$$$

  -OEChem-01062216083D

 33 32  0     1  0  0  0  0  0999 V2000
   -3.5283   -2.3366    1.3553 H   0  0  0  0  0  0  0  0  0  0  0  0
   -3.5808   -1.3398    0.9083 C   0  0  0  0  0  0  0  0  0  0  0  0
   -4.1260   -0.6797    1.5872 H   0  0  0  0  0  0  0  0  0  0  0  0
   -4.1205   -1.4061   -0.0393 H   0  0  0  0  0  0  0  0  0  0  0  0
   -2.1830   -0.7994    0.6729 C   0  0  0  0  0  0  0  0  0  0  0  0
   -1.2153   -1.5075    0.8992 O   0  0  0  0  0  0  0  0  0  0  0  0
   -2.0257    0.4718    0.1554 N   0  0  0  0  0  0  0  0  0  0  0  0
   -2.8765    1.0229    0.0928 H   0  0  0  0  0  0  0  0  0  0  0  0
   -0.7491    1.2068    0.2031 C   0  0  1  0  0  0  0  0  0  0  0  0
    0.0100    0.6297    0.7437 H   0  0  0  0  0  0  0  0  0  0  0  0
   -0.2396    1.4392   -1.2316 C   0  0  0  0  0  0  0  0  0  0  0  0
   -1.0183    1.9233   -1.8298 H   0  0  0  0  0  0  0  0  0  0  0  0
    0.6276    2.1077   -1.2000 H   0  0  0  0  0  0  0  0  0  0  0  0
    0.1775    0.1238   -1.9038 C   0  0  0  0  0  0  0  0  0  0  0  0
    0.9554   -0.3640   -1.3064 H   0  0  0  0  0  0  0  0  0  0  0  0
   -0.6794   -0.5557   -1.9564 H   0  0  0  0  0  0  0  0  0  0  0  0
    0.7026    0.3874   -3.3184 C   0  0  0  0  0  0  0  0  0  0  0  0
   -0.0711    0.8874   -3.9100 H   0  0  0  0  0  0  0  0  0  0  0  0
    1.5741    1.0486   -3.2722 H   0  0  0  0  0  0  0  0  0  0  0  0
    1.0960   -0.9195   -3.9998 C   0  0  0  0  0  0  0  0  0  0  0  0
    1.8895   -1.4148   -3.4290 H   0  0  0  0  0  0  0  0  0  0  0  0
    0.2359   -1.5970   -4.0428 H   0  0  0  0  0  0  0  0  0  0  0  0
    1.5676   -0.6142   -5.3542 N   0  0  0  0  0  0  0  0  0  0  0  0
    1.8791   -1.4583   -5.8349 H   0  0  0  0  0  0  0  0  0  0  0  0
    0.8482   -0.1333   -5.8935 H   0  0  0  0  0  0  0  0  0  0  0  0
   -0.9122    2.5265    0.9864 C   0  0  0  0  0  0  0  0  0  0  0  0
   -0.8654    2.5217    2.2078 O   0  0  0  0  0  0  0  0  0  0  0  0
   -1.2725    3.6971    0.3407 N   0  0  0  0  0  0  0  0  0  0  0  0
   -1.2910    3.6848   -0.6744 H   0  0  0  0  0  0  0  0  0  0  0  0
   -1.4875    4.9609    1.0355 C   0  0  0  0  0  0  0  0  0  0  0  0
   -0.5716    5.2778    1.5452 H   0  0  0  0  0  0  0  0  0  0  0  0
   -1.7758    5.7405    0.3240 H   0  0  0  0  0  0  0  0  0  0  0  0
   -2.2862    4.8590    1.7778 H   0  0  0  0  0  0  0  0  0  0  0  0
  1  2  1  0  0  0  0
  2  3  1  0  0  0  0
  2  4  1  0  0  0  0
  2  5  1  0  0  0  0
  5  6  2  0  0  0  0
  5  7  1  0  0  0  0
  7  8  1  0  0  0  0
  7  9  1  0  0  0  0
  9 10  1  0  0  0  0
  9 11  1  0  0  0  0
  9 26  1  0  0  0  0
 11 12  1  0  0  0  0
 11 13  1  0  0  0  0
 11 14  1  0  0  0  0
 14 15  1  0  0  0  0
 14 16  1  0  0  0  0
 14 17  1  0  0  0  0
 17 18  1  0  0  0  0
 17 19  1  0  0  0  0
 17 20  1  0  0  0  0
 20 21  1  0  0  0  0
 20 22  1  0  0  0  0
 20 23  1  0  0  0  0
 23 24  1  0  0  0  0
 23 25  1  0  0  0  0
 26 27  2  0  0  0  0
 26 28  1  0  0  0  0
 28 29  1  0  0  0  0
 28 30  1  0  0  0  0
 30 31  1  0  0  0  0
 30 32  1  0  0  0  0
 30 33  1  0  0  0  0
M  END
$$$$

  -OEChem-01062216083D

 33 32  0     1  0  0  0  0  0999 V2000
   -3.5392   -2.3664    1.3539 H   0  0  0  0  0  0  0  0  0  0  0  0
   -3.5911   -1.3713    0.9032 C   0  0  0  0  0  0  0  0  0  0  0  0
   -4.1537   -0.7136    1.5702 H   0  0  0  0  0  0  0  0  0  0  0  0
   -4.1133   -1.4447   -0.0536 H   0  0  0  0  0  0  0  0  0  0  0  0
   -2.1934   -0.8209    0.6916 C   0  0  0  0  0  0  0  0  0  0  0  0
   -1.2252   -1.5174    0.9477 O   0  0  0  0  0  0  0  0  0  0  0  0
   -2.0364    0.4494    0.1715 N   0  0  0  0  0  0  0  0  0  0  0  0
   -2.8907    0.9896    0.0734 H   0  0  0  0  0  0  0  0  0  0  0  0
   -0.7638    1.1927    0.2188 C   0  0  1  0  0  0  0  0  0  0  0  0
   -0.0014    0.6177    0.7576 H   0  0  0  0  0  0  0  0  0  0  0  0
   -0.2549    1.4379   -1.2130 C   0  0  0  0  0  0  0  0  0  0  0  0
   -1.0353    1.9216   -1.8089 H   0  0  0  0  0  0  0  0  0  0  0  0
    0.6067    2.1132   -1.1753 H   0  0  0  0  0  0  0  0  0  0  0  0
    0.1715    0.1294   -1.8929 C   0  0  0  0  0  0  0  0  0  0  0  0
    0.9524   -0.3565   -1.2975 H   0  0  0  0  0  0  0  0  0  0  0  0
   -0.6807   -0.5556   -1.9497 H   0  0  0  0  0  0  0  0  0  0  0  0
    0.6964    0.4043   -3.3059 C   0  0  0  0  0  0  0  0  0  0  0  0
   -0.0800    0.9023   -3.8953 H   0  0  0  0  0  0  0  0  0  0  0  0
    1.5634    1.0712   -3.2553 H   0  0  0  0  0  0  0  0  0  0  0  0
    1.0994   -0.8957   -3.9953 C   0  0  0  0  0  0  0  0  0  0  0  0
    1.8961   -1.3889   -3.4271 H   0  0  0  0  0  0  0  0  0  0  0  0
    0.2439   -1.5784   -4.0434 H   0  0  0  0  0  0  0  0  0  0  0  0
    1.5702   -0.5797   -5.3475 N   0  0  0  0  0  0  0  0  0  0  0  0
    1.8883   -1.4187   -5.8330 H   0  0  0  0  0  0  0  0  0  0  0  0
    0.8483   -0.1000   -5.8846 H   0  0  0  0  0  0  0  0  0  0  0  0
   -0.9288    2.5149    0.9948 C   0  0  0  0  0  0  0  0  0  0  0  0
   -0.5725    2.5972    2.1608 O   0  0  0  0  0  0  0  0  0  0  0  0
   -1.5810    3.5902    0.4156 N   0  0  0  0  0  0  0  0  0  0  0  0
   -1.8104    3.5206   -0.5710 H   0  0  0  0  0  0  0  0  0  0  0  0
   -1.7703    4.8667    1.0948 C   0  0  0  0  0  0  0  0  0  0  0  0
   -0.8026    5.3213    1.3320 H   0  0  0  0  0  0  0  0  0  0  0  0
   -2.3306    5.5566    0.4565 H   0  0  0  0  0  0  0  0  0  0  0  0
   -2.3308    4.7262    2.0251 H   0  0  0  0  0  0  0  0  0  0  0  0
  1  2  1  0  0  0  0
  2  3  1  0  0  0  0
  2  4  1  0  0  0  0
  2  5  1  0  0  0  0
  5  6  2  0  0  0  0
  5  7  1  0  0  0  0
  7  8  1  0  0  0  0
  7  9  1  0  0  0  0
  9 10  1  0  0  0  0
  9 11  1  0  0  0  0
  9 26  1  0  0  0  0
 11 12  1  0  0  0  0
 11 13  1  0  0  0  0
 11 14  1  0  0  0  0
 14 15  1  0  0  0  0
 14 16  1  0  0  0  0
 14 17  1  0  0  0  0
 17 18  1  0  0  0  0
 17 19  1  0  0  0  0
 17 20  1  0  0  0  0
 20 21  1  0  0  0  0
 20 22  1  0  0  0  0
 20 23  1  0  0  0  0
 23 24  1  0  0  0  0
 23 25  1  0  0  0  0
 26 27  2  0  0  0  0
 26 28  1  0  0  0  0
 28 29  1  0  0  0  0
 28 30  1  0  0  0  0
 30 31  1  0  0  0  0
 30 32  1  0  0  0  0
 30 33  1  0  0  0  0
M  END
$$$$

  -OEChem-01062216083D

 33 32  0     1  0  0  0  0  0999 V2000
   -3.5404   -2.4132    1.3253 H   0  0  0  0  0  0  0  0  0  0  0  0
   -3.5911   -1.4222    0.8653 C   0  0  0  0  0  0  0  0  0  0  0  0
   -4.2000   -0.7730    1.4989 H   0  0  0  0  0  0  0  0  0  0  0  0
   -4.0639   -1.5134   -0.1154 H   0  0  0  0  0  0  0  0  0  0  0  0
   -2.1962   -0.8440    0.7171 C   0  0  0  0  0  0  0  0  0  0  0  0
   -1.2283   -1.5194    1.0238 O   0  0  0  0  0  0  0  0  0  0  0  0
   -2.0397    0.4261    0.1958 N   0  0  0  0  0  0  0  0  0  0  0  0
   -2.8967    0.9492    0.0475 H   0  0  0  0  0  0  0  0  0  0  0  0
   -0.7716    1.1796    0.2446 C   0  0  1  0  0  0  0  0  0  0  0  0
   -0.0037    0.6075    0.7787 H   0  0  0  0  0  0  0  0  0  0  0  0
   -0.2705    1.4377   -1.1865 C   0  0  0  0  0  0  0  0  0  0  0  0
   -1.0553    1.9220   -1.7759 H   0  0  0  0  0  0  0  0  0  0  0  0
    0.5870    2.1185   -1.1474 H   0  0  0  0  0  0  0  0  0  0  0  0
    0.1626    0.1357   -1.8744 C   0  0  0  0  0  0  0  0  0  0  0  0
    0.9496   -0.3461   -1.2841 H   0  0  0  0  0  0  0  0  0  0  0  0
   -0.6840   -0.5561   -1.9308 H   0  0  0  0  0  0  0  0  0  0  0  0
    0.6803    0.4209   -3.2879 C   0  0  0  0  0  0  0  0  0  0  0  0
   -0.1022    0.9158   -3.8721 H   0  0  0  0  0  0  0  0  0  0  0  0
    1.5426    1.0939   -3.2373 H   0  0  0  0  0  0  0  0  0  0  0  0
    1.0894   -0.8738   -3.9838 C   0  0  0  0  0  0  0  0  0  0  0  0
    1.8914   -1.3635   -3.4201 H   0  0  0  0  0  0  0  0  0  0  0  0
    0.2381   -1.5618   -4.0307 H   0  0  0  0  0  0  0  0  0  0  0  0
    1.5533   -0.5508   -5.3367 N   0  0  0  0  0  0  0  0  0  0  0  0
    1.8709   -1.3869   -5.8272 H   0  0  0  0  0  0  0  0  0  0  0  0
    0.8284   -0.0701   -5.8685 H   0  0  0  0  0  0  0  0  0  0  0  0
   -0.9352    2.5053    1.0138 C   0  0  0  0  0  0  0  0  0  0  0  0
   -0.2962    2.7163    2.0338 O   0  0  0  0  0  0  0  0  0  0  0  0
   -1.8381    3.4586    0.5736 N   0  0  0  0  0  0  0  0  0  0  0  0
   -2.2616    3.3120   -0.3369 H   0  0  0  0  0  0  0  0  0  0  0  0
   -2.0015    4.7540    1.2233 C   0  0  0  0  0  0  0  0  0  0  0  0
   -1.0655    5.3214    1.1869 H   0  0  0  0  0  0  0  0  0  0  0  0
   -2.7796    5.3349    0.7193 H   0  0  0  0  0  0  0  0  0  0  0  0
   -2.2933    4.6234    2.2708 H   0  0  0  0  0  0  0  0  0  0  0  0
  1  2  1  0  0  0  0
  2  3  1  0  0  0  0
  2  4  1  0  0  0  0
  2  5  1  0  0  0  0
  5  6  2  0  0  0  0
  5  7  1  0  0  0  0
  7  8  1  0  0  0  0
  7  9  1  0  0  0  0
  9 10  1  0  0  0  0
  9 11  1  0  0  0  0
  9 26  1  0  0  0  0
 11 12  1  0  0  0  0
 11 13  1  0  0  0  0
 11 14  1  0  0  0  0
 14 15  1  0  0  0  0
 14 16  1  0  0  0  0
 14 17  1  0  0  0  0
 17 18  1  0  0  0  0
 17 19  1  0  0  0  0
 17 20  1  0  0  0  0
 20 21  1  0  0  0  0
 20 22  1  0  0  0  0
 20 23  1  0  0  0  0
 23 24  1  0  0  0  0
 23 25  1  0  0  0  0
 26 27  2  0  0  0  0
 26 28  1  0  0  0  0
 28 29  1  0  0  0  0
 28 30  1  0  0  0  0
 30 31  1  0  0  0  0
 30 32  1  0  0  0  0
 30 33  1  0  0  0  0
M  END
$$$$

  -OEChem-01062216083D

 33 32  0     1  0  0  0  0  0999 V2000
   -3.5138   -2.5020    1.2005 H   0  0  0  0  0  0  0  0  0  0  0  0
   -3.5627   -1.5084    0.7457 C   0  0  0  0  0  0  0  0  0  0  0  0
   -4.2768   -0.9010    1.3069 H   0  0  0  0  0  0  0  0  0  0  0  0
   -3.9096   -1.6103   -0.2853 H   0  0  0  0  0  0  0  0  0  0  0  0
   -2.1928   -0.8562    0.7702 C   0  0  0  0  0  0  0  0  0  0  0  0
   -1.2421   -1.4708    1.2223 O   0  0  0  0  0  0  0  0  0  0  0  0
   -2.0346    0.4123    0.2450 N   0  0  0  0  0  0  0  0  0  0  0  0
   -2.8708    0.8632   -0.1092 H   0  0  0  0  0  0  0  0  0  0  0  0
   -0.7734    1.1804    0.2856 C   0  0  1  0  0  0  0  0  0  0  0  0
    0.0029    0.6134    0.8126 H   0  0  0  0  0  0  0  0  0  0  0  0
   -0.2920    1.4397   -1.1513 C   0  0  0  0  0  0  0  0  0  0  0  0
   -1.0875    1.9194   -1.7304 H   0  0  0  0  0  0  0  0  0  0  0  0
    0.5600    2.1282   -1.1223 H   0  0  0  0  0  0  0  0  0  0  0  0
    0.1469    0.1406   -1.8416 C   0  0  0  0  0  0  0  0  0  0  0  0
    0.9462   -0.3309   -1.2599 H   0  0  0  0  0  0  0  0  0  0  0  0
   -0.6926   -0.5603   -1.8869 H   0  0  0  0  0  0  0  0  0  0  0  0
    0.6447    0.4276   -3.2616 C   0  0  0  0  0  0  0  0  0  0  0  0
   -0.1491    0.9137   -3.8374 H   0  0  0  0  0  0  0  0  0  0  0  0
    1.5007    1.1095   -3.2225 H   0  0  0  0  0  0  0  0  0  0  0  0
    1.0589   -0.8646   -3.9590 C   0  0  0  0  0  0  0  0  0  0  0  0
    1.8724   -1.3450   -3.4036 H   0  0  0  0  0  0  0  0  0  0  0  0
    0.2136   -1.5606   -3.9941 H   0  0  0  0  0  0  0  0  0  0  0  0
    1.5037   -0.5420   -5.3181 N   0  0  0  0  0  0  0  0  0  0  0  0
    1.8230   -1.3767   -5.8100 H   0  0  0  0  0  0  0  0  0  0  0  0
    0.7688   -0.0686   -5.8426 H   0  0  0  0  0  0  0  0  0  0  0  0
   -0.9191    2.5162    1.0427 C   0  0  0  0  0  0  0  0  0  0  0  0
   -0.0443    2.8886    1.8109 O   0  0  0  0  0  0  0  0  0  0  0  0
   -2.0088    3.3407    0.8166 N   0  0  0  0  0  0  0  0  0  0  0  0
   -2.6589    3.0689    0.0884 H   0  0  0  0  0  0  0  0  0  0  0  0
   -2.1530    4.6542    1.4330 C   0  0  0  0  0  0  0  0  0  0  0  0
   -1.3263    5.3091    1.1383 H   0  0  0  0  0  0  0  0  0  0  0  0
   -3.0922    5.1187    1.1181 H   0  0  0  0  0  0  0  0  0  0  0  0
   -2.1608    4.5662    2.5246 H   0  0  0  0  0  0  0  0  0  0  0  0
  1  2  1  0  0  0  0
  2  3  1  0  0  0  0
  2  4  1  0  0  0  0
  2  5  1  0  0  0  0
  5  6  2  0  0  0  0
  5  7  1  0  0  0  0
  7  8  1  0  0  0  0
  7  9  1  0  0  0  0
  9 10  1  0  0  0  0
  9 11  1  0  0  0  0
  9 26  1  0  0  0  0
 11 12  1  0  0  0  0
 11 13  1  0  0  0  0
 11 14  1  0  0  0  0
 14 15  1  0  0  0  0
 14 16  1  0  0  0  0
 14 17  1  0  0  0  0
 17 18  1  0  0  0  0
 17 19  1  0  0  0  0
 17 20  1  0  0  0  0
 20 21  1  0  0  0  0
 20 22  1  0  0  0  0
 20 23  1  0  0  0  0
 23 24  1  0  0  0  0
 23 25  1  0  0  0  0
 26 27  2  0  0  0  0
 26 28  1  0  0  0  0
 28 29  1  0  0  0  0
 28 30  1  0  0  0  0
 30 31  1  0  0  0  0
 30 32  1  0  0  0  0
 30 33  1  0  0  0  0
M  END
$$$$

  -OEChem-01062216083D

 33 32  0     1  0  0  0  0  0999 V2000
   -3.4398   -2.5554    1.0514 H   0  0  0  0  0  0  0  0  0  0  0  0
   -3.4942   -1.5628    0.5949 C   0  0  0  0  0  0  0  0  0  0  0  0
   -4.3278   -1.0163    1.0425 H   0  0  0  0  0  0  0  0  0  0  0  0
   -3.6742   -1.6791   -0.4764 H   0  0  0  0  0  0  0  0  0  0  0  0
   -2.1968   -0.8107    0.8265 C   0  0  0  0  0  0  0  0  0  0  0  0
   -1.3065   -1.3321    1.4749 O   0  0  0  0  0  0  0  0  0  0  0  0
   -2.0361    0.4500    0.2835 N   0  0  0  0  0  0  0  0  0  0  0  0
   -2.7612    0.7557   -0.3572 H   0  0  0  0  0  0  0  0  0  0  0  0
   -0.7685    1.2092    0.3093 C   0  0  1  0  0  0  0  0  0  0  0  0
    0.0080    0.6432    0.8363 H   0  0  0  0  0  0  0  0  0  0  0  0
   -0.2973    1.4478   -1.1357 C   0  0  0  0  0  0  0  0  0  0  0  0
   -1.0939    1.9304   -1.7110 H   0  0  0  0  0  0  0  0  0  0  0  0
    0.5606    2.1297   -1.1226 H   0  0  0  0  0  0  0  0  0  0  0  0
    0.1270    0.1396   -1.8190 C   0  0  0  0  0  0  0  0  0  0  0  0
    0.9293   -0.3312   -1.2406 H   0  0  0  0  0  0  0  0  0  0  0  0
   -0.7173   -0.5560   -1.8514 H   0  0  0  0  0  0  0  0  0  0  0  0
    0.6142    0.4113   -3.2461 C   0  0  0  0  0  0  0  0  0  0  0  0
   -0.1807    0.8987   -3.8195 H   0  0  0  0  0  0  0  0  0  0  0  0
    1.4753    1.0875   -3.2201 H   0  0  0  0  0  0  0  0  0  0  0  0
    1.0144   -0.8882   -3.9385 C   0  0  0  0  0  0  0  0  0  0  0  0
    1.8292   -1.3708   -3.3872 H   0  0  0  0  0  0  0  0  0  0  0  0
    0.1650   -1.5797   -3.9629 H   0  0  0  0  0  0  0  0  0  0  0  0
    1.4485   -0.5752   -5.3034 N   0  0  0  0  0  0  0  0  0  0  0  0
    1.7437   -1.4157   -5.8002 H   0  0  0  0  0  0  0  0  0  0  0  0
    0.7192   -0.0831   -5.8189 H   0  0  0  0  0  0  0  0  0  0  0  0
   -0.8927    2.5569    1.0508 C   0  0  0  0  0  0  0  0  0  0  0  0
    0.1039    3.0952    1.5117 O   0  0  0  0  0  0  0  0  0  0  0  0
   -2.0939    3.2447    1.0709 N   0  0  0  0  0  0  0  0  0  0  0  0
   -2.9163    2.7397    0.7617 H   0  0  0  0  0  0  0  0  0  0  0  0
   -2.2661    4.5276    1.7422 C   0  0  0  0  0  0  0  0  0  0  0  0
   -1.5773    5.2719    1.3288 H   0  0  0  0  0  0  0  0  0  0  0  0
   -3.2886    4.8924    1.6061 H   0  0  0  0  0  0  0  0  0  0  0  0
   -2.0728    4.4270    2.8154 H   0  0  0  0  0  0  0  0  0  0  0  0
  1  2  1  0  0  0  0
  2  3  1  0  0  0  0
  2  4  1  0  0  0  0
  2  5  1  0  0  0  0
  5  6  2  0  0  0  0
  5  7  1  0  0  0  0
  7  8  1  0  0  0  0
  7  9  1  0  0  0  0
  9 10  1  0  0  0  0
  9 11  1  0  0  0  0
  9 26  1  0  0  0  0
 11 12  1  0  0  0  0
 11 13  1  0  0  0  0
 11 14  1  0  0  0  0
 14 15  1  0  0  0  0
 14 16  1  0  0  0  0
 14 17  1  0  0  0  0
 17 18  1  0  0  0  0
 17 19  1  0  0  0  0
 17 20  1  0  0  0  0
 20 21  1  0  0  0  0
 20 22  1  0  0  0  0
 20 23  1  0  0  0  0
 23 24  1  0  0  0  0
 23 25  1  0  0  0  0
 26 27  2  0  0  0  0
 26 28  1  0  0  0  0
 28 29  1  0  0  0  0
 28 30  1  0  0  0  0
 30 31  1  0  0  0  0
 30 32  1  0  0  0  0
 30 33  1  0  0  0  0
M  END
$$$$

  -OEChem-01062216083D

 33 32  0     1  0  0  0  0  0999 V2000
   -3.4185   -2.5739    0.9949 H   0  0  0  0  0  0  0  0  0  0  0  0
   -3.4780   -1.5760    0.5507 C   0  0  0  0  0  0  0  0  0  0  0  0
   -4.3302   -1.0483    0.9853 H   0  0  0  0  0  0  0  0  0  0  0  0
   -3.6316   -1.6806   -0.5261 H   0  0  0  0  0  0  0  0  0  0  0  0
   -2.1984   -0.8071    0.8223 C   0  0  0  0  0  0  0  0  0  0  0  0
   -1.3255   -1.3118    1.5065 O   0  0  0  0  0  0  0  0  0  0  0  0
   -2.0361    0.4552    0.2840 N   0  0  0  0  0  0  0  0  0  0  0  0
   -2.7478    0.7556   -0.3752 H   0  0  0  0  0  0  0  0  0  0  0  0
   -0.7676    1.2133    0.3160 C   0  0  1  0  0  0  0  0  0  0  0  0
    0.0078    0.6454    0.8424 H   0  0  0  0  0  0  0  0  0  0  0  0
   -0.2991    1.4486   -1.1318 C   0  0  0  0  0  0  0  0  0  0  0  0
   -1.0970    1.9315   -1.7052 H   0  0  0  0  0  0  0  0  0  0  0  0
    0.5601    2.1286   -1.1248 H   0  0  0  0  0  0  0  0  0  0  0  0
    0.1226    0.1394   -1.8152 C   0  0  0  0  0  0  0  0  0  0  0  0
    0.9260   -0.3313   -1.2381 H   0  0  0  0  0  0  0  0  0  0  0  0
   -0.7217   -0.5563   -1.8447 H   0  0  0  0  0  0  0  0  0  0  0  0
    0.6065    0.4096   -3.2440 C   0  0  0  0  0  0  0  0  0  0  0  0
   -0.1899    0.8972   -3.8155 H   0  0  0  0  0  0  0  0  0  0  0  0
    1.4681    1.0850   -3.2200 H   0  0  0  0  0  0  0  0  0  0  0  0
    1.0043   -0.8909   -3.9360 C   0  0  0  0  0  0  0  0  0  0  0  0
    1.8209   -1.3720   -3.3860 H   0  0  0  0  0  0  0  0  0  0  0  0
    0.1549   -1.5825   -3.9568 H   0  0  0  0  0  0  0  0  0  0  0  0
    1.4355   -0.5815   -5.3026 N   0  0  0  0  0  0  0  0  0  0  0  0
    1.7394   -1.4218   -5.7945 H   0  0  0  0  0  0  0  0  0  0  0  0
    0.7010   -0.1005   -5.8210 H   0  0  0  0  0  0  0  0  0  0  0  0
   -0.8902    2.5599    1.0622 C   0  0  0  0  0  0  0  0  0  0  0  0
    0.1103    3.2224    1.3000 O   0  0  0  0  0  0  0  0  0  0  0  0
   -2.1322    3.0988    1.3496 N   0  0  0  0  0  0  0  0  0  0  0  0
   -2.9274    2.4763    1.2548 H   0  0  0  0  0  0  0  0  0  0  0  0
   -2.3064    4.3624    2.0563 C   0  0  0  0  0  0  0  0  0  0  0  0
   -1.8109    5.1753    1.5151 H   0  0  0  0  0  0  0  0  0  0  0  0
   -3.3698    4.6052    2.1421 H   0  0  0  0  0  0  0  0  0  0  0  0
   -1.8809    4.2999    3.0633 H   0  0  0  0  0  0  0  0  0  0  0  0
  1  2  1  0  0  0  0
  2  3  1  0  0  0  0
  2  4  1  0  0  0  0
  2  5  1  0  0  0  0
  5  6  2  0  0  0  0
  5  7  1  0  0  0  0
  7  8  1  0  0  0  0
  7  9  1  0  0  0  0
  9 10  1  0  0  0  0
  9 11  1  0  0  0  0
  9 26  1  0  0  0  0
 11 12  1  0  0  0  0
 11 13  1  0  0  0  0
 11 14  1  0  0  0  0
 14 15  1  0  0  0  0
 14 16  1  0  0  0  0
 14 17  1  0  0  0  0
 17 18  1  0  0  0  0
 17 19  1  0  0  0  0
 17 20  1  0  0  0  0
 20 21  1  0  0  0  0
 20 22  1  0  0  0  0
 20 23  1  0  0  0  0
 23 24  1  0  0  0  0
 23 25  1  0  0  0  0
 26 27  2  0  0  0  0
 26 28  1  0  0  0  0
 28 29  1  0  0  0  0
 28 30  1  0  0  0  0
 30 31  1  0  0  0  0
 30 32  1  0  0  0  0
 30 33  1  0  0  0  0
M  END
$$$$

  -OEChem-01062216083D

 33 32  0     1  0  0  0  0  0999 V2000
   -3.4316   -2.5507    0.9943 H   0  0  0  0  0  0  0  0  0  0  0  0
   -3.4858   -1.5517    0.5520 C   0  0  0  0  0  0  0  0  0  0  0  0
   -4.3272   -1.0155    0.9973 H   0  0  0  0  0  0  0  0  0  0  0  0
   -3.6530   -1.6533   -0.5229 H   0  0  0  0  0  0  0  0  0  0  0  0
   -2.1947   -0.7970    0.8086 C   0  0  0  0  0  0  0  0  0  0  0  0
   -1.3211   -1.3072    1.4880 O   0  0  0  0  0  0  0  0  0  0  0  0
   -2.0270    0.4668    0.2763 N   0  0  0  0  0  0  0  0  0  0  0  0
   -2.7523    0.7912   -0.3569 H   0  0  0  0  0  0  0  0  0  0  0  0
   -0.7571    1.2231    0.3084 C   0  0  1  0  0  0  0  0  0  0  0  0
    0.0177    0.6559    0.8363 H   0  0  0  0  0  0  0  0  0  0  0  0
   -0.2888    1.4508   -1.1426 C   0  0  0  0  0  0  0  0  0  0  0  0
   -1.0865    1.9329   -1.7169 H   0  0  0  0  0  0  0  0  0  0  0  0
    0.5727    2.1277   -1.1423 H   0  0  0  0  0  0  0  0  0  0  0  0
    0.1304    0.1383   -1.8223 C   0  0  0  0  0  0  0  0  0  0  0  0
    0.9334   -0.3324   -1.2447 H   0  0  0  0  0  0  0  0  0  0  0  0
   -0.7153   -0.5559   -1.8493 H   0  0  0  0  0  0  0  0  0  0  0  0
    0.6134    0.4027   -3.2529 C   0  0  0  0  0  0  0  0  0  0  0  0
   -0.1825    0.8900   -3.8250 H   0  0  0  0  0  0  0  0  0  0  0  0
    1.4762    1.0770   -3.2320 H   0  0  0  0  0  0  0  0  0  0  0  0
    1.0087   -0.9002   -3.9424 C   0  0  0  0  0  0  0  0  0  0  0  0
    1.8248   -1.3820   -3.3922 H   0  0  0  0  0  0  0  0  0  0  0  0
    0.1575   -1.5898   -3.9611 H   0  0  0  0  0  0  0  0  0  0  0  0
    1.4391   -0.5956   -5.3106 N   0  0  0  0  0  0  0  0  0  0  0  0
    1.7279   -1.4399   -5.8050 H   0  0  0  0  0  0  0  0  0  0  0  0
    0.7100   -0.1023   -5.8252 H   0  0  0  0  0  0  0  0  0  0  0  0
   -0.8898    2.5662    1.0636 C   0  0  0  0  0  0  0  0  0  0  0  0
    0.0492    3.3493    1.1108 O   0  0  0  0  0  0  0  0  0  0  0  0
   -2.0999    2.9427    1.6199 N   0  0  0  0  0  0  0  0  0  0  0  0
   -2.8083    2.2184    1.6817 H   0  0  0  0  0  0  0  0  0  0  0  0
   -2.2780    4.1696    2.3874 C   0  0  0  0  0  0  0  0  0  0  0  0
   -2.0170    5.0431    1.7805 H   0  0  0  0  0  0  0  0  0  0  0  0
   -3.3205    4.2705    2.7035 H   0  0  0  0  0  0  0  0  0  0  0  0
   -1.6437    4.1586    3.2800 H   0  0  0  0  0  0  0  0  0  0  0  0
  1  2  1  0  0  0  0
  2  3  1  0  0  0  0
  2  4  1  0  0  0  0
  2  5  1  0  0  0  0
  5  6  2  0  0  0  0
  5  7  1  0  0  0  0
  7  8  1  0  0  0  0
  7  9  1  0  0  0  0
  9 10  1  0  0  0  0
  9 11  1  0  0  0  0
  9 26  1  0  0  0  0
 11 12  1  0  0  0  0
 11 13  1  0  0  0  0
 11 14  1  0  0  0  0
 14 15  1  0  0  0  0
 14 16  1  0  0  0  0
 14 17  1  0  0  0  0
 17 18  1  0  0  0  0
 17 19  1  0  0  0  0
 17 20  1  0  0  0  0
 20 21  1  0  0  0  0
 20 22  1  0  0  0  0
 20 23  1  0  0  0  0
 23 24  1  0  0  0  0
 23 25  1  0  0  0  0
 26 27  2  0  0  0  0
 26 28  1  0  0  0  0
 28 29  1  0  0  0  0
 28 30  1  0  0  0  0
 30 31  1  0  0  0  0
 30 32  1  0  0  0  0
 30 33  1  0  0  0  0
M  END
$$$$

  -OEChem-01062216083D

 33 32  0     1  0  0  0  0  0999 V2000
   -3.4394   -2.5270    0.9870 H   0  0  0  0  0  0  0  0  0  0  0  0
   -3.4859   -1.5293    0.5408 C   0  0  0  0  0  0  0  0  0  0  0  0
   -4.3233   -0.9848    0.9837 H   0  0  0  0  0  0  0  0  0  0  0  0
   -3.6539   -1.6330   -0.5339 H   0  0  0  0  0  0  0  0  0  0  0  0
   -2.1889   -0.7841    0.7935 C   0  0  0  0  0  0  0  0  0  0  0  0
   -1.3154   -1.3000    1.4688 O   0  0  0  0  0  0  0  0  0  0  0  0
   -2.0167    0.4827    0.2713 N   0  0  0  0  0  0  0  0  0  0  0  0
   -2.7551    0.8297   -0.3348 H   0  0  0  0  0  0  0  0  0  0  0  0
   -0.7456    1.2362    0.3032 C   0  0  1  0  0  0  0  0  0  0  0  0
    0.0289    0.6674    0.8288 H   0  0  0  0  0  0  0  0  0  0  0  0
   -0.2799    1.4578   -1.1505 C   0  0  0  0  0  0  0  0  0  0  0  0
   -1.0774    1.9405   -1.7245 H   0  0  0  0  0  0  0  0  0  0  0  0
    0.5843    2.1311   -1.1574 H   0  0  0  0  0  0  0  0  0  0  0  0
    0.1341    0.1407   -1.8241 C   0  0  0  0  0  0  0  0  0  0  0  0
    0.9370   -0.3293   -1.2458 H   0  0  0  0  0  0  0  0  0  0  0  0
   -0.7137   -0.5511   -1.8467 H   0  0  0  0  0  0  0  0  0  0  0  0
    0.6145    0.3976   -3.2566 C   0  0  0  0  0  0  0  0  0  0  0  0
   -0.1823    0.8833   -3.8289 H   0  0  0  0  0  0  0  0  0  0  0  0
    1.4780    1.0709   -3.2417 H   0  0  0  0  0  0  0  0  0  0  0  0
    1.0048   -0.9095   -3.9405 C   0  0  0  0  0  0  0  0  0  0  0  0
    1.8206   -1.3915   -3.3898 H   0  0  0  0  0  0  0  0  0  0  0  0
    0.1513   -1.5962   -3.9533 H   0  0  0  0  0  0  0  0  0  0  0  0
    1.4330   -0.6120   -5.3109 N   0  0  0  0  0  0  0  0  0  0  0  0
    1.7143   -1.4595   -5.8039 H   0  0  0  0  0  0  0  0  0  0  0  0
    0.7060   -0.1147   -5.8247 H   0  0  0  0  0  0  0  0  0  0  0  0
   -0.8857    2.5722    1.0717 C   0  0  0  0  0  0  0  0  0  0  0  0
   -0.0642    3.4693    0.9379 O   0  0  0  0  0  0  0  0  0  0  0  0
   -1.9839    2.7927    1.8842 N   0  0  0  0  0  0  0  0  0  0  0  0
   -2.5718    1.9860    2.0708 H   0  0  0  0  0  0  0  0  0  0  0  0
   -2.1541    3.9929    2.6940 C   0  0  0  0  0  0  0  0  0  0  0  0
   -2.1559    4.8861    2.0605 H   0  0  0  0  0  0  0  0  0  0  0  0
   -3.1047    3.9526    3.2342 H   0  0  0  0  0  0  0  0  0  0  0  0
   -1.3427    4.0801    3.4242 H   0  0  0  0  0  0  0  0  0  0  0  0
  1  2  1  0  0  0  0
  2  3  1  0  0  0  0
  2  4  1  0  0  0  0
  2  5  1  0  0  0  0
  5  6  2  0  0  0  0
  5  7  1  0  0  0  0
  7  8  1  0  0  0  0
  7  9  1  0  0  0  0
  9 10  1  0  0  0  0
  9 11  1  0  0  0  0
  9 26  1  0  0  0  0
 11 12  1  0  0  0  0
 11 13  1  0  0  0  0
 11 14  1  0  0  0  0
 14 15  1  0  0  0  0
 14 16  1  0  0  0  0
 14 17  1  0  0  0  0
 17 18  1  0  0  0  0
 17 19  1  0  0  0  0
 17 20  1  0  0  0  0
 20 21  1  0  0  0  0
 20 22  1  0  0  0  0
 20 23  1  0  0  0  0
 23 24  1  0  0  0  0
 23 25  1  0  0  0  0
 26 27  2  0  0  0  0
 26 28  1  0  0  0  0
 28 29  1  0  0  0  0
 28 30  1  0  0  0  0
 30 31  1  0  0  0  0
 30 32  1  0  0  0  0
 30 33  1  0  0  0  0
M  END
$$$$

  -OEChem-01062216083D

 33 32  0     1  0  0  0  0  0999 V2000
   -3.4571   -2.4945    1.0005 H   0  0  0  0  0  0  0  0  0  0  0  0
   -3.4947   -1.4983    0.5504 C   0  0  0  0  0  0  0  0  0  0  0  0
   -4.3192   -0.9397    0.9999 H   0  0  0  0  0  0  0  0  0  0  0  0
   -3.6768   -1.6044   -0.5217 H   0  0  0  0  0  0  0  0  0  0  0  0
   -2.1849   -0.7700    0.7855 C   0  0  0  0  0  0  0  0  0  0  0  0
   -1.3092   -1.2947    1.4514 O   0  0  0  0  0  0  0  0  0  0  0  0
   -2.0064    0.4987    0.2717 N   0  0  0  0  0  0  0  0  0  0  0  0
   -2.7583    0.8698   -0.3028 H   0  0  0  0  0  0  0  0  0  0  0  0
   -0.7321    1.2451    0.2983 C   0  0  1  0  0  0  0  0  0  0  0  0
    0.0416    0.6725    0.8206 H   0  0  0  0  0  0  0  0  0  0  0  0
   -0.2665    1.4635   -1.1563 C   0  0  0  0  0  0  0  0  0  0  0  0
   -1.0620    1.9508   -1.7295 H   0  0  0  0  0  0  0  0  0  0  0  0
    0.6019    2.1314   -1.1639 H   0  0  0  0  0  0  0  0  0  0  0  0
    0.1399    0.1434   -1.8293 C   0  0  0  0  0  0  0  0  0  0  0  0
    0.9403   -0.3312   -1.2513 H   0  0  0  0  0  0  0  0  0  0  0  0
   -0.7119   -0.5434   -1.8504 H   0  0  0  0  0  0  0  0  0  0  0  0
    0.6208    0.3951   -3.2626 C   0  0  0  0  0  0  0  0  0  0  0  0
   -0.1738    0.8845   -3.8348 H   0  0  0  0  0  0  0  0  0  0  0  0
    1.4882    1.0635   -3.2492 H   0  0  0  0  0  0  0  0  0  0  0  0
    1.0031   -0.9157   -3.9446 C   0  0  0  0  0  0  0  0  0  0  0  0
    1.8164   -1.4015   -3.3938 H   0  0  0  0  0  0  0  0  0  0  0  0
    0.1456   -1.5973   -3.9555 H   0  0  0  0  0  0  0  0  0  0  0  0
    1.4320   -0.6238   -5.3159 N   0  0  0  0  0  0  0  0  0  0  0  0
    1.7065   -1.4743   -5.8075 H   0  0  0  0  0  0  0  0  0  0  0  0
    0.7077   -0.1225   -5.8296 H   0  0  0  0  0  0  0  0  0  0  0  0
   -0.8783    2.5725    1.0804 C   0  0  0  0  0  0  0  0  0  0  0  0
   -0.2431    3.5735    0.7761 O   0  0  0  0  0  0  0  0  0  0  0  0
   -1.7897    2.6544    2.1178 N   0  0  0  0  0  0  0  0  0  0  0  0
   -2.2186    1.7809    2.4106 H   0  0  0  0  0  0  0  0  0  0  0  0
   -1.9560    3.8392    2.9506 C   0  0  0  0  0  0  0  0  0  0  0  0
   -2.2328    4.7031    2.3372 H   0  0  0  0  0  0  0  0  0  0  0  0
   -2.7462    3.6741    3.6892 H   0  0  0  0  0  0  0  0  0  0  0  0
   -1.0259    4.0674    3.4817 H   0  0  0  0  0  0  0  0  0  0  0  0
  1  2  1  0  0  0  0
  2  3  1  0  0  0  0
  2  4  1  0  0  0  0
  2  5  1  0  0  0  0
  5  6  2  0  0  0  0
  5  7  1  0  0  0  0
  7  8  1  0  0  0  0
  7  9  1  0  0  0  0
  9 10  1  0  0  0  0
  9 11  1  0  0  0  0
  9 26  1  0  0  0  0
 11 12  1  0  0  0  0
 11 13  1  0  0  0  0
 11 14  1  0  0  0  0
 14 15  1  0  0  0  0
 14 16  1  0  0  0  0
 14 17  1  0  0  0  0
 17 18  1  0  0  0  0
 17 19  1  0  0  0  0
 17 20  1  0  0  0  0
 20 21  1  0  0  0  0
 20 22  1  0  0  0  0
 20 23  1  0  0  0  0
 23 24  1  0  0  0  0
 23 25  1  0  0  0  0
 26 27  2  0  0  0  0
 26 28  1  0  0  0  0
 28 29  1  0  0  0  0
 28 30  1  0  0  0  0
 30 31  1  0  0  0  0
 30 32  1  0  0  0  0
 30 33  1  0  0  0  0
M  END
$$$$

  -OEChem-01062216083D

 33 32  0     1  0  0  0  0  0999 V2000
   -3.4774   -2.4648    1.0324 H   0  0  0  0  0  0  0  0  0  0  0  0
   -3.5111   -1.4663    0.5874 C   0  0  0  0  0  0  0  0  0  0  0  0
   -4.3152   -0.8971    1.0599 H   0  0  0  0  0  0  0  0  0  0  0  0
   -3.7214   -1.5646   -0.4802 H   0  0  0  0  0  0  0  0  0  0  0  0
   -2.1845   -0.7596    0.7919 C   0  0  0  0  0  0  0  0  0  0  0  0
   -1.3045   -1.2948    1.4446 O   0  0  0  0  0  0  0  0  0  0  0  0
   -1.9964    0.5065    0.2762 N   0  0  0  0  0  0  0  0  0  0  0  0
   -2.7596    0.9003   -0.2678 H   0  0  0  0  0  0  0  0  0  0  0  0
   -0.7167    1.2405    0.2959 C   0  0  1  0  0  0  0  0  0  0  0  0
    0.0553    0.6646    0.8169 H   0  0  0  0  0  0  0  0  0  0  0  0
   -0.2477    1.4575   -1.1575 C   0  0  0  0  0  0  0  0  0  0  0  0
   -1.0385    1.9526   -1.7307 H   0  0  0  0  0  0  0  0  0  0  0  0
    0.6254    2.1195   -1.1597 H   0  0  0  0  0  0  0  0  0  0  0  0
    0.1483    0.1370   -1.8350 C   0  0  0  0  0  0  0  0  0  0  0  0
    0.9446   -0.3466   -1.2591 H   0  0  0  0  0  0  0  0  0  0  0  0
   -0.7096   -0.5422   -1.8597 H   0  0  0  0  0  0  0  0  0  0  0  0
    0.6317    0.3936   -3.2664 C   0  0  0  0  0  0  0  0  0  0  0  0
   -0.1586    0.8928   -3.8360 H   0  0  0  0  0  0  0  0  0  0  0  0
    1.5041    1.0554   -3.2482 H   0  0  0  0  0  0  0  0  0  0  0  0
    1.0047   -0.9149   -3.9569 C   0  0  0  0  0  0  0  0  0  0  0  0
    1.8144   -1.4106   -3.4096 H   0  0  0  0  0  0  0  0  0  0  0  0
    0.1420   -1.5899   -3.9740 H   0  0  0  0  0  0  0  0  0  0  0  0
    1.4358   -0.6148   -5.3255 N   0  0  0  0  0  0  0  0  0  0  0  0
    1.7062   -1.4629   -5.8233 H   0  0  0  0  0  0  0  0  0  0  0  0
    0.7136   -0.1066   -5.8357 H   0  0  0  0  0  0  0  0  0  0  0  0
   -0.8671    2.5644    1.0809 C   0  0  0  0  0  0  0  0  0  0  0  0
   -0.4619    3.6324    0.6405 O   0  0  0  0  0  0  0  0  0  0  0  0
   -1.5339    2.5526    2.2924 N   0  0  0  0  0  0  0  0  0  0  0  0
   -1.7944    1.6407    2.6596 H   0  0  0  0  0  0  0  0  0  0  0  0
   -1.6987    3.7311    3.1342 C   0  0  0  0  0  0  0  0  0  0  0  0
   -2.2384    4.5161    2.5940 H   0  0  0  0  0  0  0  0  0  0  0  0
   -2.2688    3.4771    4.0329 H   0  0  0  0  0  0  0  0  0  0  0  0
   -0.7227    4.1213    3.4412 H   0  0  0  0  0  0  0  0  0  0  0  0
  1  2  1  0  0  0  0
  2  3  1  0  0  0  0
  2  4  1  0  0  0  0
  2  5  1  0  0  0  0
  5  6  2  0  0  0  0
  5  7  1  0  0  0  0
  7  8  1  0  0  0  0
  7  9  1  0  0  0  0
  9 10  1  0  0  0  0
  9 11  1  0  0  0  0
  9 26  1  0  0  0  0
 11 12  1  0  0  0  0
 11 13  1  0  0  0  0
 11 14  1  0  0  0  0
 14 15  1  0  0  0  0
 14 16  1  0  0  0  0
 14 17  1  0  0  0  0
 17 18  1  0  0  0  0
 17 19  1  0  0  0  0
 17 20  1  0  0  0  0
 20 21  1  0  0  0  0
 20 22  1  0  0  0  0
 20 23  1  0  0  0  0
 23 24  1  0  0  0  0
 23 25  1  0  0  0  0
 26 27  2  0  0  0  0
 26 28  1  0  0  0  0
 28 29  1  0  0  0  0
 28 30  1  0  0  0  0
 30 31  1  0  0  0  0
 30 32  1  0  0  0  0
 30 33  1  0  0  0  0
M  END
$$$$

  -OEChem-01062216083D

 33 32  0     1  0  0  0  0  0999 V2000
   -3.4932   -2.4397    1.0619 H   0  0  0  0  0  0  0  0  0  0  0  0
   -3.5189   -1.4404    0.6180 C   0  0  0  0  0  0  0  0  0  0  0  0
   -4.3044   -0.8583    1.1061 H   0  0  0  0  0  0  0  0  0  0  0  0
   -3.7512   -1.5345   -0.4457 H   0  0  0  0  0  0  0  0  0  0  0  0
   -2.1783   -0.7539    0.7981 C   0  0  0  0  0  0  0  0  0  0  0  0
   -1.2933   -1.3024    1.4337 O   0  0  0  0  0  0  0  0  0  0  0  0
   -1.9812    0.5098    0.2804 N   0  0  0  0  0  0  0  0  0  0  0  0
   -2.7537    0.9259   -0.2330 H   0  0  0  0  0  0  0  0  0  0  0  0
   -0.6975    1.2337    0.2961 C   0  0  1  0  0  0  0  0  0  0  0  0
    0.0742    0.6534    0.8128 H   0  0  0  0  0  0  0  0  0  0  0  0
   -0.2292    1.4539   -1.1559 C   0  0  0  0  0  0  0  0  0  0  0  0
   -1.0190    1.9538   -1.7265 H   0  0  0  0  0  0  0  0  0  0  0  0
    0.6454    2.1137   -1.1547 H   0  0  0  0  0  0  0  0  0  0  0  0
    0.1563    0.1334   -1.8383 C   0  0  0  0  0  0  0  0  0  0  0  0
    0.9494   -0.3585   -1.2648 H   0  0  0  0  0  0  0  0  0  0  0  0
   -0.7068   -0.5391   -1.8638 H   0  0  0  0  0  0  0  0  0  0  0  0
    0.6398    0.3928   -3.2691 C   0  0  0  0  0  0  0  0  0  0  0  0
   -0.1479    0.9002   -3.8353 H   0  0  0  0  0  0  0  0  0  0  0  0
    1.5169    1.0485   -3.2489 H   0  0  0  0  0  0  0  0  0  0  0  0
    1.0029   -0.9150   -3.9660 C   0  0  0  0  0  0  0  0  0  0  0  0
    1.8093   -1.4190   -3.4215 H   0  0  0  0  0  0  0  0  0  0  0  0
    0.1356   -1.5840   -3.9851 H   0  0  0  0  0  0  0  0  0  0  0  0
    1.4345   -0.6117   -5.3339 N   0  0  0  0  0  0  0  0  0  0  0  0
    1.6812   -1.4613   -5.8416 H   0  0  0  0  0  0  0  0  0  0  0  0
    0.7224   -0.0806   -5.8349 H   0  0  0  0  0  0  0  0  0  0  0  0
   -0.8463    2.5557    1.0804 C   0  0  0  0  0  0  0  0  0  0  0  0
   -0.6966    3.6491    0.5496 O   0  0  0  0  0  0  0  0  0  0  0  0
   -1.2245    2.4993    2.4086 N   0  0  0  0  0  0  0  0  0  0  0  0
   -1.3299    1.5741    2.8185 H   0  0  0  0  0  0  0  0  0  0  0  0
   -1.4006    3.6764    3.2492 C   0  0  0  0  0  0  0  0  0  0  0  0
   -2.1646    4.3379    2.8273 H   0  0  0  0  0  0  0  0  0  0  0  0
   -1.7174    3.3796    4.2535 H   0  0  0  0  0  0  0  0  0  0  0  0
   -0.4600    4.2310    3.3318 H   0  0  0  0  0  0  0  0  0  0  0  0
  1  2  1  0  0  0  0
  2  3  1  0  0  0  0
  2  4  1  0  0  0  0
  2  5  1  0  0  0  0
  5  6  2  0  0  0  0
  5  7  1  0  0  0  0
  7  8  1  0  0  0  0
  7  9  1  0  0  0  0
  9 10  1  0  0  0  0
  9 11  1  0  0  0  0
  9 26  1  0  0  0  0
 11 12  1  0  0  0  0
 11 13  1  0  0  0  0
 11 14  1  0  0  0  0
 14 15  1  0  0  0  0
 14 16  1  0  0  0  0
 14 17  1  0  0  0  0
 17 18  1  0  0  0  0
 17 19  1  0  0  0  0
 17 20  1  0  0  0  0
 20 21  1  0  0  0  0
 20 22  1  0  0  0  0
 20 23  1  0  0  0  0
 23 24  1  0  0  0  0
 23 25  1  0  0  0  0
 26 27  2  0  0  0  0
 26 28  1  0  0  0  0
 28 29  1  0  0  0  0
 28 30  1  0  0  0  0
 30 31  1  0  0  0  0
 30 32  1  0  0  0  0
 30 33  1  0  0  0  0
M  END
$$$$

  -OEChem-01062216083D

 33 32  0     1  0  0  0  0  0999 V2000
   -3.5094   -2.4159    1.1007 H   0  0  0  0  0  0  0  0  0  0  0  0
   -3.5289   -1.4182    0.6530 C   0  0  0  0  0  0  0  0  0  0  0  0
   -4.2930   -0.8210    1.1566 H   0  0  0  0  0  0  0  0  0  0  0  0
   -3.7877   -1.5128   -0.4043 H   0  0  0  0  0  0  0  0  0  0  0  0
   -2.1728   -0.7539    0.7985 C   0  0  0  0  0  0  0  0  0  0  0  0
   -1.2769   -1.3222    1.4014 O   0  0  0  0  0  0  0  0  0  0  0  0
   -1.9689    0.5079    0.2792 N   0  0  0  0  0  0  0  0  0  0  0  0
   -2.7510    0.9477   -0.1992 H   0  0  0  0  0  0  0  0  0  0  0  0
   -0.6825    1.2238    0.2949 C   0  0  1  0  0  0  0  0  0  0  0  0
    0.0878    0.6389    0.8082 H   0  0  0  0  0  0  0  0  0  0  0  0
   -0.2141    1.4499   -1.1554 C   0  0  0  0  0  0  0  0  0  0  0  0
   -1.0026    1.9550   -1.7238 H   0  0  0  0  0  0  0  0  0  0  0  0
    0.6615    2.1083   -1.1490 H   0  0  0  0  0  0  0  0  0  0  0  0
    0.1638    0.1305   -1.8446 C   0  0  0  0  0  0  0  0  0  0  0  0
    0.9542   -0.3683   -1.2737 H   0  0  0  0  0  0  0  0  0  0  0  0
   -0.7030   -0.5372   -1.8730 H   0  0  0  0  0  0  0  0  0  0  0  0
    0.6482    0.3927   -3.2744 C   0  0  0  0  0  0  0  0  0  0  0  0
   -0.1364    0.9075   -3.8382 H   0  0  0  0  0  0  0  0  0  0  0  0
    1.5292    1.0427   -3.2515 H   0  0  0  0  0  0  0  0  0  0  0  0
    1.0034   -0.9142   -3.9775 C   0  0  0  0  0  0  0  0  0  0  0  0
    1.8079   -1.4253   -3.4368 H   0  0  0  0  0  0  0  0  0  0  0  0
    0.1322   -1.5781   -3.9989 H   0  0  0  0  0  0  0  0  0  0  0  0
    1.4360   -0.6064   -5.3440 N   0  0  0  0  0  0  0  0  0  0  0  0
    1.6794   -1.4546   -5.8554 H   0  0  0  0  0  0  0  0  0  0  0  0
    0.7252   -0.0711   -5.8426 H   0  0  0  0  0  0  0  0  0  0  0  0
   -0.8276    2.5457    1.0769 C   0  0  0  0  0  0  0  0  0  0  0  0
   -0.9441    3.6232    0.5066 O   0  0  0  0  0  0  0  0  0  0  0  0
   -0.8969    2.5005    2.4566 N   0  0  0  0  0  0  0  0  0  0  0  0
   -0.8433    1.5832    2.8934 H   0  0  0  0  0  0  0  0  0  0  0  0
   -1.0778    3.6792    3.2947 C   0  0  0  0  0  0  0  0  0  0  0  0
   -2.0092    4.1940    3.0370 H   0  0  0  0  0  0  0  0  0  0  0  0
   -1.1230    3.3896    4.3489 H   0  0  0  0  0  0  0  0  0  0  0  0
   -0.2424    4.3746    3.1623 H   0  0  0  0  0  0  0  0  0  0  0  0
  1  2  1  0  0  0  0
  2  3  1  0  0  0  0
  2  4  1  0  0  0  0
  2  5  1  0  0  0  0
  5  6  2  0  0  0  0
  5  7  1  0  0  0  0
  7  8  1  0  0  0  0
  7  9  1  0  0  0  0
  9 10  1  0  0  0  0
  9 11  1  0  0  0  0
  9 26  1  0  0  0  0
 11 12  1  0  0  0  0
 11 13  1  0  0  0  0
 11 14  1  0  0  0  0
 14 15  1  0  0  0  0
 14 16  1  0  0  0  0
 14 17  1  0  0  0  0
 17 18  1  0  0  0  0
 17 19  1  0  0  0  0
 17 20  1  0  0  0  0
 20 21  1  0  0  0  0
 20 22  1  0  0  0  0
 20 23  1  0  0  0  0
 23 24  1  0  0  0  0
 23 25  1  0  0  0  0
 26 27  2  0  0  0  0
 26 28  1  0  0  0  0
 28 29  1  0  0  0  0
 28 30  1  0  0  0  0
 30 31  1  0  0  0  0
 30 32  1  0  0  0  0
 30 33  1  0  0  0  0
M  END
$$$$

  -OEChem-01062216083D

 33 32  0     1  0  0  0  0  0999 V2000
   -3.5326   -2.3949    1.1425 H   0  0  0  0  0  0  0  0  0  0  0  0
   -3.5443   -1.3991    0.6904 C   0  0  0  0  0  0  0  0  0  0  0  0
   -4.2828   -0.7847    1.2110 H   0  0  0  0  0  0  0  0  0  0  0  0
   -3.8327   -1.4933   -0.3592 H   0  0  0  0  0  0  0  0  0  0  0  0
   -2.1720   -0.7611    0.7959 C   0  0  0  0  0  0  0  0  0  0  0  0
   -1.2653   -1.3545    1.3577 O   0  0  0  0  0  0  0  0  0  0  0  0
   -1.9608    0.4980    0.2733 N   0  0  0  0  0  0  0  0  0  0  0  0
   -2.7572    0.9712   -0.1467 H   0  0  0  0  0  0  0  0  0  0  0  0
   -0.6730    1.2091    0.2913 C   0  0  1  0  0  0  0  0  0  0  0  0
    0.0951    0.6196    0.8027 H   0  0  0  0  0  0  0  0  0  0  0  0
   -0.2028    1.4425   -1.1561 C   0  0  0  0  0  0  0  0  0  0  0  0
   -0.9904    1.9511   -1.7228 H   0  0  0  0  0  0  0  0  0  0  0  0
    0.6732    2.1002   -1.1448 H   0  0  0  0  0  0  0  0  0  0  0  0
    0.1714    0.1262   -1.8524 C   0  0  0  0  0  0  0  0  0  0  0  0
    0.9596   -0.3789   -1.2838 H   0  0  0  0  0  0  0  0  0  0  0  0
   -0.6977   -0.5384   -1.8853 H   0  0  0  0  0  0  0  0  0  0  0  0
    0.6578    0.3956   -3.2799 C   0  0  0  0  0  0  0  0  0  0  0  0
   -0.1247    0.9157   -3.8417 H   0  0  0  0  0  0  0  0  0  0  0  0
    1.5409    1.0426   -3.2529 H   0  0  0  0  0  0  0  0  0  0  0  0
    1.0089   -0.9093   -3.9882 C   0  0  0  0  0  0  0  0  0  0  0  0
    1.8106   -1.4258   -3.4486 H   0  0  0  0  0  0  0  0  0  0  0  0
    0.1351   -1.5699   -4.0134 H   0  0  0  0  0  0  0  0  0  0  0  0
    1.4440   -0.5974   -5.3529 N   0  0  0  0  0  0  0  0  0  0  0  0
    1.6864   -1.4445   -5.8668 H   0  0  0  0  0  0  0  0  0  0  0  0
    0.7344   -0.0595   -5.8505 H   0  0  0  0  0  0  0  0  0  0  0  0
   -0.8130    2.5342    1.0664 C   0  0  0  0  0  0  0  0  0  0  0  0
   -1.1963    3.5560    0.5104 O   0  0  0  0  0  0  0  0  0  0  0  0
   -0.5762    2.5508    2.4280 N   0  0  0  0  0  0  0  0  0  0  0  0
   -0.3454    1.6645    2.8707 H   0  0  0  0  0  0  0  0  0  0  0  0
   -0.7505    3.7349    3.2598 C   0  0  0  0  0  0  0  0  0  0  0  0
   -1.7828    4.0955    3.2025 H   0  0  0  0  0  0  0  0  0  0  0  0
   -0.5235    3.4997    4.3040 H   0  0  0  0  0  0  0  0  0  0  0  0
   -0.0787    4.5348    2.9317 H   0  0  0  0  0  0  0  0  0  0  0  0
  1  2  1  0  0  0  0
  2  3  1  0  0  0  0
  2  4  1  0  0  0  0
  2  5  1  0  0  0  0
  5  6  2  0  0  0  0
  5  7  1  0  0  0  0
  7  8  1  0  0  0  0
  7  9  1  0  0  0  0
  9 10  1  0  0  0  0
  9 11  1  0  0  0  0
  9 26  1  0  0  0  0
 11 12  1  0  0  0  0
 11 13  1  0  0  0  0
 11 14  1  0  0  0  0
 14 15  1  0  0  0  0
 14 16  1  0  0  0  0
 14 17  1  0  0  0  0
 17 18  1  0  0  0  0
 17 19  1  0  0  0  0
 17 20  1  0  0  0  0
 20 21  1  0  0  0  0
 20 22  1  0  0  0  0
 20 23  1  0  0  0  0
 23 24  1  0  0  0  0
 23 25  1  0  0  0  0
 26 27  2  0  0  0  0
 26 28  1  0  0  0  0
 28 29  1  0  0  0  0
 28 30  1  0  0  0  0
 30 31  1  0  0  0  0
 30 32  1  0  0  0  0
 30 33  1  0  0  0  0
M  END
$$$$

  -OEChem-01062216083D

 33 32  0     1  0  0  0  0  0999 V2000
   -3.5625   -2.3672    1.1971 H   0  0  0  0  0  0  0  0  0  0  0  0
   -3.5652   -1.3746    0.7383 C   0  0  0  0  0  0  0  0  0  0  0  0
   -4.2687   -0.7378    1.2800 H   0  0  0  0  0  0  0  0  0  0  0  0
   -3.8926   -1.4676   -0.3000 H   0  0  0  0  0  0  0  0  0  0  0  0
   -2.1745   -0.7712    0.7910 C   0  0  0  0  0  0  0  0  0  0  0  0
   -1.2593   -1.3917    1.3085 O   0  0  0  0  0  0  0  0  0  0  0  0
   -1.9548    0.4839    0.2627 N   0  0  0  0  0  0  0  0  0  0  0  0
   -2.7625    0.9916   -0.0909 H   0  0  0  0  0  0  0  0  0  0  0  0
   -0.6658    1.1910    0.2853 C   0  0  1  0  0  0  0  0  0  0  0  0
    0.0977    0.5979    0.7992 H   0  0  0  0  0  0  0  0  0  0  0  0
   -0.1920    1.4314   -1.1586 C   0  0  0  0  0  0  0  0  0  0  0  0
   -0.9778    1.9443   -1.7238 H   0  0  0  0  0  0  0  0  0  0  0  0
    0.6852    2.0873   -1.1425 H   0  0  0  0  0  0  0  0  0  0  0  0
    0.1804    0.1183   -1.8617 C   0  0  0  0  0  0  0  0  0  0  0  0
    0.9661   -0.3926   -1.2952 H   0  0  0  0  0  0  0  0  0  0  0  0
   -0.6904   -0.5439   -1.9002 H   0  0  0  0  0  0  0  0  0  0  0  0
    0.6704    0.3962   -3.2863 C   0  0  0  0  0  0  0  0  0  0  0  0
   -0.1103    0.9214   -3.8460 H   0  0  0  0  0  0  0  0  0  0  0  0
    1.5549    1.0410   -3.2533 H   0  0  0  0  0  0  0  0  0  0  0  0
    1.0202   -0.9041   -4.0032 C   0  0  0  0  0  0  0  0  0  0  0  0
    1.8198   -1.4259   -3.4657 H   0  0  0  0  0  0  0  0  0  0  0  0
    0.1453   -1.5628   -4.0349 H   0  0  0  0  0  0  0  0  0  0  0  0
    1.4586   -0.5824   -5.3644 N   0  0  0  0  0  0  0  0  0  0  0  0
    1.7024   -1.4260   -5.8833 H   0  0  0  0  0  0  0  0  0  0  0  0
    0.7490   -0.0426   -5.8597 H   0  0  0  0  0  0  0  0  0  0  0  0
   -0.8055    2.5211    1.0501 C   0  0  0  0  0  0  0  0  0  0  0  0
   -1.4328    3.4542    0.5633 O   0  0  0  0  0  0  0  0  0  0  0  0
   -0.2901    2.6398    2.3270 N   0  0  0  0  0  0  0  0  0  0  0  0
    0.1329    1.8117    2.7380 H   0  0  0  0  0  0  0  0  0  0  0  0
   -0.4511    3.8330    3.1481 C   0  0  0  0  0  0  0  0  0  0  0  0
   -1.5126    4.0416    3.3179 H   0  0  0  0  0  0  0  0  0  0  0  0
    0.0337    3.6920    4.1189 H   0  0  0  0  0  0  0  0  0  0  0  0
    0.0045    4.6994    2.6571 H   0  0  0  0  0  0  0  0  0  0  0  0
  1  2  1  0  0  0  0
  2  3  1  0  0  0  0
  2  4  1  0  0  0  0
  2  5  1  0  0  0  0
  5  6  2  0  0  0  0
  5  7  1  0  0  0  0
  7  8  1  0  0  0  0
  7  9  1  0  0  0  0
  9 10  1  0  0  0  0
  9 11  1  0  0  0  0
  9 26  1  0  0  0  0
 11 12  1  0  0  0  0
 11 13  1  0  0  0  0
 11 14  1  0  0  0  0
 14 15  1  0  0  0  0
 14 16  1  0  0  0  0
 14 17  1  0  0  0  0
 17 18  1  0  0  0  0
 17 19  1  0  0  0  0
 17 20  1  0  0  0  0
 20 21  1  0  0  0  0
 20 22  1  0  0  0  0
 20 23  1  0  0  0  0
 23 24  1  0  0  0  0
 23 25  1  0  0  0  0
 26 27  2  0  0  0  0
 26 28  1  0  0  0  0
 28 29  1  0  0  0  0
 28 30  1  0  0  0  0
 30 31  1  0  0  0  0
 30 32  1  0  0  0  0
 30 33  1  0  0  0  0
M  END
$$$$

  -OEChem-01062216083D

 33 32  0     1  0  0  0  0  0999 V2000
   -3.5889   -2.3402    1.2640 H   0  0  0  0  0  0  0  0  0  0  0  0
   -3.5884   -1.3512    0.7973 C   0  0  0  0  0  0  0  0  0  0  0  0
   -4.2485   -0.6927    1.3670 H   0  0  0  0  0  0  0  0  0  0  0  0
   -3.9683   -1.4428   -0.2231 H   0  0  0  0  0  0  0  0  0  0  0  0
   -2.1818   -0.7832    0.7763 C   0  0  0  0  0  0  0  0  0  0  0  0
   -1.2548   -1.4346    1.2313 O   0  0  0  0  0  0  0  0  0  0  0  0
   -1.9600    0.4704    0.2448 N   0  0  0  0  0  0  0  0  0  0  0  0
   -2.7790    1.0148   -0.0184 H   0  0  0  0  0  0  0  0  0  0  0  0
   -0.6700    1.1765    0.2720 C   0  0  1  0  0  0  0  0  0  0  0  0
    0.0878    0.5810    0.7911 H   0  0  0  0  0  0  0  0  0  0  0  0
   -0.1880    1.4254   -1.1671 C   0  0  0  0  0  0  0  0  0  0  0  0
   -0.9711    1.9426   -1.7324 H   0  0  0  0  0  0  0  0  0  0  0  0
    0.6899    2.0799   -1.1430 H   0  0  0  0  0  0  0  0  0  0  0  0
    0.1870    0.1160   -1.8759 C   0  0  0  0  0  0  0  0  0  0  0  0
    0.9678   -0.4000   -1.3073 H   0  0  0  0  0  0  0  0  0  0  0  0
   -0.6854   -0.5438   -1.9229 H   0  0  0  0  0  0  0  0  0  0  0  0
    0.6863    0.3993   -3.2966 C   0  0  0  0  0  0  0  0  0  0  0  0
   -0.0896    0.9286   -3.8590 H   0  0  0  0  0  0  0  0  0  0  0  0
    1.5719    1.0420   -3.2558 H   0  0  0  0  0  0  0  0  0  0  0  0
    1.0378   -0.8993   -4.0163 C   0  0  0  0  0  0  0  0  0  0  0  0
    1.8324   -1.4250   -3.4748 H   0  0  0  0  0  0  0  0  0  0  0  0
    0.1614   -1.5554   -4.0559 H   0  0  0  0  0  0  0  0  0  0  0  0
    1.4857   -0.5751   -5.3741 N   0  0  0  0  0  0  0  0  0  0  0  0
    1.7353   -1.4177   -5.8920 H   0  0  0  0  0  0  0  0  0  0  0  0
    0.7788   -0.0364   -5.8743 H   0  0  0  0  0  0  0  0  0  0  0  0
   -0.8105    2.5099    1.0314 C   0  0  0  0  0  0  0  0  0  0  0  0
   -1.6431    3.3335    0.6706 O   0  0  0  0  0  0  0  0  0  0  0  0
   -0.0548    2.7561    2.1627 N   0  0  0  0  0  0  0  0  0  0  0  0
    0.5632    2.0161    2.4843 H   0  0  0  0  0  0  0  0  0  0  0  0
   -0.1940    3.9610    2.9713 C   0  0  0  0  0  0  0  0  0  0  0  0
   -1.2105    4.0387    3.3713 H   0  0  0  0  0  0  0  0  0  0  0  0
    0.5073    3.9367    3.8110 H   0  0  0  0  0  0  0  0  0  0  0  0
    0.0177    4.8522    2.3710 H   0  0  0  0  0  0  0  0  0  0  0  0
  1  2  1  0  0  0  0
  2  3  1  0  0  0  0
  2  4  1  0  0  0  0
  2  5  1  0  0  0  0
  5  6  2  0  0  0  0
  5  7  1  0  0  0  0
  7  8  1  0  0  0  0
  7  9  1  0  0  0  0
  9 10  1  0  0  0  0
  9 11  1  0  0  0  0
  9 26  1  0  0  0  0
 11 12  1  0  0  0  0
 11 13  1  0  0  0  0
 11 14  1  0  0  0  0
 14 15  1  0  0  0  0
 14 16  1  0  0  0  0
 14 17  1  0  0  0  0
 17 18  1  0  0  0  0
 17 19  1  0  0  0  0
 17 20  1  0  0  0  0
 20 21  1  0  0  0  0
 20 22  1  0  0  0  0
 20 23  1  0  0  0  0
 23 24  1  0  0  0  0
 23 25  1  0  0  0  0
 26 27  2  0  0  0  0
 26 28  1  0  0  0  0
 28 29  1  0  0  0  0
 28 30  1  0  0  0  0
 30 31  1  0  0  0  0
 30 32  1  0  0  0  0
 30 33  1  0  0  0  0
M  END
$$$$

  -OEChem-01062216083D

 33 32  0     1  0  0  0  0  0999 V2000
   -3.5972   -2.3253    1.3099 H   0  0  0  0  0  0  0  0  0  0  0  0
   -3.5995   -1.3400    0.8354 C   0  0  0  0  0  0  0  0  0  0  0  0
   -4.2290   -0.6674    1.4232 H   0  0  0  0  0  0  0  0  0  0  0  0
   -4.0171   -1.4336   -0.1700 H   0  0  0  0  0  0  0  0  0  0  0  0
   -2.1867   -0.7925    0.7595 C   0  0  0  0  0  0  0  0  0  0  0  0
   -1.2506   -1.4633    1.1654 O   0  0  0  0  0  0  0  0  0  0  0  0
   -1.9695    0.4610    0.2259 N   0  0  0  0  0  0  0  0  0  0  0  0
   -2.7944    1.0270    0.0353 H   0  0  0  0  0  0  0  0  0  0  0  0
   -0.6814    1.1706    0.2613 C   0  0  1  0  0  0  0  0  0  0  0  0
    0.0729    0.5763    0.7872 H   0  0  0  0  0  0  0  0  0  0  0  0
   -0.1935    1.4239   -1.1741 C   0  0  0  0  0  0  0  0  0  0  0  0
   -0.9761    1.9393   -1.7415 H   0  0  0  0  0  0  0  0  0  0  0  0
    0.6820    2.0810   -1.1459 H   0  0  0  0  0  0  0  0  0  0  0  0
    0.1882    0.1167   -1.8826 C   0  0  0  0  0  0  0  0  0  0  0  0
    0.9675   -0.3976   -1.3103 H   0  0  0  0  0  0  0  0  0  0  0  0
   -0.6822   -0.5454   -1.9347 H   0  0  0  0  0  0  0  0  0  0  0  0
    0.6939    0.4020   -3.3007 C   0  0  0  0  0  0  0  0  0  0  0  0
   -0.0814    0.9286   -3.8669 H   0  0  0  0  0  0  0  0  0  0  0  0
    1.5774    1.0473   -3.2555 H   0  0  0  0  0  0  0  0  0  0  0  0
    1.0521   -0.8956   -4.0190 C   0  0  0  0  0  0  0  0  0  0  0  0
    1.8453   -1.4196   -3.4740 H   0  0  0  0  0  0  0  0  0  0  0  0
    0.1778   -1.5546   -4.0629 H   0  0  0  0  0  0  0  0  0  0  0  0
    1.5060   -0.5692   -5.3745 N   0  0  0  0  0  0  0  0  0  0  0  0
    1.7632   -1.4106   -5.8906 H   0  0  0  0  0  0  0  0  0  0  0  0
    0.7990   -0.0345   -5.8789 H   0  0  0  0  0  0  0  0  0  0  0  0
   -0.8247    2.5065    1.0160 C   0  0  0  0  0  0  0  0  0  0  0  0
   -1.8025    3.2182    0.8154 O   0  0  0  0  0  0  0  0  0  0  0  0
    0.1193    2.8916    1.9501 N   0  0  0  0  0  0  0  0  0  0  0  0
    0.8834    2.2491    2.1398 H   0  0  0  0  0  0  0  0  0  0  0  0
    0.0140    4.1150    2.7359 C   0  0  0  0  0  0  0  0  0  0  0  0
   -0.9015    4.1068    3.3368 H   0  0  0  0  0  0  0  0  0  0  0  0
    0.8701    4.2057    3.4115 H   0  0  0  0  0  0  0  0  0  0  0  0
   -0.0027    4.9914    2.0794 H   0  0  0  0  0  0  0  0  0  0  0  0
  1  2  1  0  0  0  0
  2  3  1  0  0  0  0
  2  4  1  0  0  0  0
  2  5  1  0  0  0  0
  5  6  2  0  0  0  0
  5  7  1  0  0  0  0
  7  8  1  0  0  0  0
  7  9  1  0  0  0  0
  9 10  1  0  0  0  0
  9 11  1  0  0  0  0
  9 26  1  0  0  0  0
 11 12  1  0  0  0  0
 11 13  1  0  0  0  0
 11 14  1  0  0  0  0
 14 15  1  0  0  0  0
 14 16  1  0  0  0  0
 14 17  1  0  0  0  0
 17 18  1  0  0  0  0
 17 19  1  0  0  0  0
 17 20  1  0  0  0  0
 20 21  1  0  0  0  0
 20 22  1  0  0  0  0
 20 23  1  0  0  0  0
 23 24  1  0  0  0  0
 23 25  1  0  0  0  0
 26 27  2  0  0  0  0
 26 28  1  0  0  0  0
 28 29  1  0  0  0  0
 28 30  1  0  0  0  0
 30 31  1  0  0  0  0
 30 32  1  0  0  0  0
 30 33  1  0  0  0  0
M  END
$$$$

  -OEChem-01062216083D

 33 32  0     1  0  0  0  0  0999 V2000
   -3.5962   -2.3083    1.3613 H   0  0  0  0  0  0  0  0  0  0  0  0
   -3.6060   -1.3280    0.8765 C   0  0  0  0  0  0  0  0  0  0  0  0
   -4.2006   -0.6411    1.4838 H   0  0  0  0  0  0  0  0  0  0  0  0
   -4.0682   -1.4257   -0.1086 H   0  0  0  0  0  0  0  0  0  0  0  0
   -2.1908   -0.8011    0.7329 C   0  0  0  0  0  0  0  0  0  0  0  0
   -1.2460   -1.4913    1.0832 O   0  0  0  0  0  0  0  0  0  0  0  0
   -1.9825    0.4544    0.2008 N   0  0  0  0  0  0  0  0  0  0  0  0
   -2.8103    1.0375    0.0871 H   0  0  0  0  0  0  0  0  0  0  0  0
   -0.6961    1.1668    0.2489 C   0  0  1  0  0  0  0  0  0  0  0  0
    0.0543    0.5747    0.7828 H   0  0  0  0  0  0  0  0  0  0  0  0
   -0.1996    1.4243   -1.1827 C   0  0  0  0  0  0  0  0  0  0  0  0
   -0.9804    1.9385   -1.7535 H   0  0  0  0  0  0  0  0  0  0  0  0
    0.6751    2.0826   -1.1493 H   0  0  0  0  0  0  0  0  0  0  0  0
    0.1884    0.1185   -1.8901 C   0  0  0  0  0  0  0  0  0  0  0  0
    0.9638   -0.3962   -1.3129 H   0  0  0  0  0  0  0  0  0  0  0  0
   -0.6813   -0.5440   -1.9488 H   0  0  0  0  0  0  0  0  0  0  0  0
    0.7029    0.4056   -3.3044 C   0  0  0  0  0  0  0  0  0  0  0  0
   -0.0691    0.9317   -3.8755 H   0  0  0  0  0  0  0  0  0  0  0  0
    1.5854    1.0516   -3.2539 H   0  0  0  0  0  0  0  0  0  0  0  0
    1.0668   -0.8917   -4.0201 C   0  0  0  0  0  0  0  0  0  0  0  0
    1.8562   -1.4154   -3.4695 H   0  0  0  0  0  0  0  0  0  0  0  0
    0.1926   -1.5506   -4.0703 H   0  0  0  0  0  0  0  0  0  0  0  0
    1.5295   -0.5651   -5.3726 N   0  0  0  0  0  0  0  0  0  0  0  0
    1.7910   -1.4068   -5.8863 H   0  0  0  0  0  0  0  0  0  0  0  0
    0.8246   -0.0323   -5.8819 H   0  0  0  0  0  0  0  0  0  0  0  0
   -0.8444    2.5024    1.0049 C   0  0  0  0  0  0  0  0  0  0  0  0
   -1.9167    3.0977    0.9935 O   0  0  0  0  0  0  0  0  0  0  0  0
    0.2220    3.0339    1.7062 N   0  0  0  0  0  0  0  0  0  0  0  0
    1.0856    2.4991    1.7284 H   0  0  0  0  0  0  0  0  0  0  0  0
    0.1429    4.2801    2.4582 C   0  0  0  0  0  0  0  0  0  0  0  0
   -0.6190    4.2067    3.2414 H   0  0  0  0  0  0  0  0  0  0  0  0
    1.1051    4.4987    2.9310 H   0  0  0  0  0  0  0  0  0  0  0  0
   -0.1125    5.1126    1.7942 H   0  0  0  0  0  0  0  0  0  0  0  0
  1  2  1  0  0  0  0
  2  3  1  0  0  0  0
  2  4  1  0  0  0  0
  2  5  1  0  0  0  0
  5  6  2  0  0  0  0
  5  7  1  0  0  0  0
  7  8  1  0  0  0  0
  7  9  1  0  0  0  0
  9 10  1  0  0  0  0
  9 11  1  0  0  0  0
  9 26  1  0  0  0  0
 11 12  1  0  0  0  0
 11 13  1  0  0  0  0
 11 14  1  0  0  0  0
 14 15  1  0  0  0  0
 14 16  1  0  0  0  0
 14 17  1  0  0  0  0
 17 18  1  0  0  0  0
 17 19  1  0  0  0  0
 17 20  1  0  0  0  0
 20 21  1  0  0  0  0
 20 22  1  0  0  0  0
 20 23  1  0  0  0  0
 23 24  1  0  0  0  0
 23 25  1  0  0  0  0
 26 27  2  0  0  0  0
 26 28  1  0  0  0  0
 28 29  1  0  0  0  0
 28 30  1  0  0  0  0
 30 31  1  0  0  0  0
 30 32  1  0  0  0  0
 30 33  1  0  0  0  0
M  END
$$$$

  -OEChem-01062216083D

 33 32  0     1  0  0  0  0  0999 V2000
   -3.5853   -2.3120    1.3604 H   0  0  0  0  0  0  0  0  0  0  0  0
   -3.6023   -1.3293    0.8807 C   0  0  0  0  0  0  0  0  0  0  0  0
   -4.1845   -0.6444    1.5021 H   0  0  0  0  0  0  0  0  0  0  0  0
   -4.0823   -1.4212   -0.0967 H   0  0  0  0  0  0  0  0  0  0  0  0
   -2.1892   -0.8034    0.7146 C   0  0  0  0  0  0  0  0  0  0  0  0
   -1.2387   -1.4996    1.0366 O   0  0  0  0  0  0  0  0  0  0  0  0
   -1.9913    0.4550    0.1854 N   0  0  0  0  0  0  0  0  0  0  0  0
   -2.8222    1.0410    0.1197 H   0  0  0  0  0  0  0  0  0  0  0  0
   -0.7085    1.1744    0.2439 C   0  0  1  0  0  0  0  0  0  0  0  0
    0.0420    0.5863    0.7822 H   0  0  0  0  0  0  0  0  0  0  0  0
   -0.2111    1.4273   -1.1895 C   0  0  0  0  0  0  0  0  0  0  0  0
   -0.9945    1.9342   -1.7634 H   0  0  0  0  0  0  0  0  0  0  0  0
    0.6601    2.0897   -1.1611 H   0  0  0  0  0  0  0  0  0  0  0  0
    0.1856    0.1204   -1.8912 C   0  0  0  0  0  0  0  0  0  0  0  0
    0.9641   -0.3874   -1.3117 H   0  0  0  0  0  0  0  0  0  0  0  0
   -0.6791   -0.5488   -1.9478 H   0  0  0  0  0  0  0  0  0  0  0  0
    0.6999    0.4049   -3.3062 C   0  0  0  0  0  0  0  0  0  0  0  0
   -0.0743    0.9244   -3.8799 H   0  0  0  0  0  0  0  0  0  0  0  0
    1.5785    1.0563   -3.2570 H   0  0  0  0  0  0  0  0  0  0  0  0
    1.0724   -0.8933   -4.0161 C   0  0  0  0  0  0  0  0  0  0  0  0
    1.8656   -1.4082   -3.4625 H   0  0  0  0  0  0  0  0  0  0  0  0
    0.2035   -1.5591   -4.0631 H   0  0  0  0  0  0  0  0  0  0  0  0
    1.5345   -0.5706   -5.3695 N   0  0  0  0  0  0  0  0  0  0  0  0
    1.8111   -1.4123   -5.8750 H   0  0  0  0  0  0  0  0  0  0  0  0
    0.8222   -0.0545   -5.8856 H   0  0  0  0  0  0  0  0  0  0  0  0
   -0.8588    2.5107    1.0020 C   0  0  0  0  0  0  0  0  0  0  0  0
   -1.9714    2.9907    1.1938 O   0  0  0  0  0  0  0  0  0  0  0  0
    0.2598    3.1940    1.4434 N   0  0  0  0  0  0  0  0  0  0  0  0
    1.1668    2.7634    1.2874 H   0  0  0  0  0  0  0  0  0  0  0  0
    0.1939    4.4567    2.1692 C   0  0  0  0  0  0  0  0  0  0  0  0
   -0.3752    4.3356    3.0968 H   0  0  0  0  0  0  0  0  0  0  0  0
    1.2013    4.7996    2.4243 H   0  0  0  0  0  0  0  0  0  0  0  0
   -0.2881    5.2264    1.5572 H   0  0  0  0  0  0  0  0  0  0  0  0
  1  2  1  0  0  0  0
  2  3  1  0  0  0  0
  2  4  1  0  0  0  0
  2  5  1  0  0  0  0
  5  6  2  0  0  0  0
  5  7  1  0  0  0  0
  7  8  1  0  0  0  0
  7  9  1  0  0  0  0
  9 10  1  0  0  0  0
  9 11  1  0  0  0  0
  9 26  1  0  0  0  0
 11 12  1  0  0  0  0
 11 13  1  0  0  0  0
 11 14  1  0  0  0  0
 14 15  1  0  0  0  0
 14 16  1  0  0  0  0
 14 17  1  0  0  0  0
 17 18  1  0  0  0  0
 17 19  1  0  0  0  0
 17 20  1  0  0  0  0
 20 21  1  0  0  0  0
 20 22  1  0  0  0  0
 20 23  1  0  0  0  0
 23 24  1  0  0  0  0
 23 25  1  0  0  0  0
 26 27  2  0  0  0  0
 26 28  1  0  0  0  0
 28 29  1  0  0  0  0
 28 30  1  0  0  0  0
 30 31  1  0  0  0  0
 30 32  1  0  0  0  0
 30 33  1  0  0  0  0
M  END
$$$$

  -OEChem-01062216083D

 33 32  0     1  0  0  0  0  0999 V2000
   -3.5243   -2.2950    1.4381 H   0  0  0  0  0  0  0  0  0  0  0  0
   -3.5688   -1.3161    0.9530 C   0  0  0  0  0  0  0  0  0  0  0  0
   -4.0929   -0.6205    1.6132 H   0  0  0  0  0  0  0  0  0  0  0  0
   -4.1246   -1.4099    0.0171 H   0  0  0  0  0  0  0  0  0  0  0  0
   -2.1677   -0.8064    0.6739 C   0  0  0  0  0  0  0  0  0  0  0  0
   -1.2039   -1.5210    0.9030 O   0  0  0  0  0  0  0  0  0  0  0  0
   -1.9995    0.4591    0.1499 N   0  0  0  0  0  0  0  0  0  0  0  0
   -2.8308    1.0445    0.1958 H   0  0  0  0  0  0  0  0  0  0  0  0
   -0.7175    1.1814    0.2187 C   0  0  1  0  0  0  0  0  0  0  0  0
    0.0988    0.5086    0.5015 H   0  0  0  0  0  0  0  0  0  0  0  0
   -0.4146    1.7605   -1.1755 C   0  0  0  0  0  0  0  0  0  0  0  0
   -1.2663    2.3592   -1.5163 H   0  0  0  0  0  0  0  0  0  0  0  0
    0.4547    2.4232   -1.1181 H   0  0  0  0  0  0  0  0  0  0  0  0
   -0.1161    0.6508   -2.1940 C   0  0  0  0  0  0  0  0  0  0  0  0
    0.7321    0.0517   -1.8458 H   0  0  0  0  0  0  0  0  0  0  0  0
   -0.9815   -0.0138   -2.2840 H   0  0  0  0  0  0  0  0  0  0  0  0
    0.2066    1.2511   -3.5664 C   0  0  0  0  0  0  0  0  0  0  0  0
   -0.6371    1.8601   -3.9069 H   0  0  0  0  0  0  0  0  0  0  0  0
    1.0843    1.9013   -3.4897 H   0  0  0  0  0  0  0  0  0  0  0  0
    0.4803    0.1508   -4.5876 C   0  0  0  0  0  0  0  0  0  0  0  0
    1.3388   -0.4511   -4.2693 H   0  0  0  0  0  0  0  0  0  0  0  0
   -0.3885   -0.5121   -4.6683 H   0  0  0  0  0  0  0  0  0  0  0  0
    0.7592    0.7754   -5.8844 N   0  0  0  0  0  0  0  0  0  0  0  0
    0.9691    0.0735   -6.5943 H   0  0  0  0  0  0  0  0  0  0  0  0
   -0.0153    1.3700   -6.1789 H   0  0  0  0  0  0  0  0  0  0  0  0
   -0.7665    2.3003    1.2851 C   0  0  0  0  0  0  0  0  0  0  0  0
   -1.8117    2.5446    1.8793 O   0  0  0  0  0  0  0  0  0  0  0  0
    0.3366    3.1028    1.5161 N   0  0  0  0  0  0  0  0  0  0  0  0
    1.1968    2.8726    1.0268 H   0  0  0  0  0  0  0  0  0  0  0  0
    0.3467    4.1907    2.4868 C   0  0  0  0  0  0  0  0  0  0  0  0
    0.1332    3.8103    3.4913 H   0  0  0  0  0  0  0  0  0  0  0  0
    1.3276    4.6751    2.5018 H   0  0  0  0  0  0  0  0  0  0  0  0
   -0.4059    4.9426    2.2276 H   0  0  0  0  0  0  0  0  0  0  0  0
  1  2  1  0  0  0  0
  2  3  1  0  0  0  0
  2  4  1  0  0  0  0
  2  5  1  0  0  0  0
  5  6  2  0  0  0  0
  5  7  1  0  0  0  0
  7  8  1  0  0  0  0
  7  9  1  0  0  0  0
  9 10  1  0  0  0  0
  9 11  1  0  0  0  0
  9 26  1  0  0  0  0
 11 12  1  0  0  0  0
 11 13  1  0  0  0  0
 11 14  1  0  0  0  0
 14 15  1  0  0  0  0
 14 16  1  0  0  0  0
 14 17  1  0  0  0  0
 17 18  1  0  0  0  0
 17 19  1  0  0  0  0
 17 20  1  0  0  0  0
 20 21  1  0  0  0  0
 20 22  1  0  0  0  0
 20 23  1  0  0  0  0
 23 24  1  0  0  0  0
 23 25  1  0  0  0  0
 26 27  2  0  0  0  0
 26 28  1  0  0  0  0
 28 29  1  0  0  0  0
 28 30  1  0  0  0  0
 30 31  1  0  0  0  0
 30 32  1  0  0  0  0
 30 33  1  0  0  0  0
M  END
$$$$

  -OEChem-01062216083D

 33 32  0     1  0  0  0  0  0999 V2000
   -3.5056   -2.3053    1.4057 H   0  0  0  0  0  0  0  0  0  0  0  0
   -3.5586   -1.3045    0.9684 C   0  0  0  0  0  0  0  0  0  0  0  0
   -4.0445   -0.6348    1.6823 H   0  0  0  0  0  0  0  0  0  0  0  0
   -4.1558   -1.3495    0.0547 H   0  0  0  0  0  0  0  0  0  0  0  0
   -2.1646   -0.7971    0.6516 C   0  0  0  0  0  0  0  0  0  0  0  0
   -1.1984   -1.5209    0.8383 O   0  0  0  0  0  0  0  0  0  0  0  0
   -2.0070    0.4727    0.1335 N   0  0  0  0  0  0  0  0  0  0  0  0
   -2.8392    1.0537    0.2039 H   0  0  0  0  0  0  0  0  0  0  0  0
   -0.7248    1.1957    0.2063 C   0  0  1  0  0  0  0  0  0  0  0  0
    0.0921    0.5242    0.4912 H   0  0  0  0  0  0  0  0  0  0  0  0
   -0.4188    1.7649   -1.1928 C   0  0  0  0  0  0  0  0  0  0  0  0
   -1.2688    2.3621   -1.5396 H   0  0  0  0  0  0  0  0  0  0  0  0
    0.4529    2.4242   -1.1443 H   0  0  0  0  0  0  0  0  0  0  0  0
   -0.1171    0.6478   -2.2017 C   0  0  0  0  0  0  0  0  0  0  0  0
    0.7310    0.0520   -1.8475 H   0  0  0  0  0  0  0  0  0  0  0  0
   -0.9816   -0.0185   -2.2895 H   0  0  0  0  0  0  0  0  0  0  0  0
    0.2080    1.2411   -3.5764 C   0  0  0  0  0  0  0  0  0  0  0  0
   -0.6351    1.8479   -3.9222 H   0  0  0  0  0  0  0  0  0  0  0  0
    1.0855    1.8917   -3.5009 H   0  0  0  0  0  0  0  0  0  0  0  0
    0.4851    0.1353   -4.5898 C   0  0  0  0  0  0  0  0  0  0  0  0
    1.3436   -0.4634   -4.2656 H   0  0  0  0  0  0  0  0  0  0  0  0
   -0.3825   -0.5293   -4.6681 H   0  0  0  0  0  0  0  0  0  0  0  0
    0.7662    0.7530   -5.8891 N   0  0  0  0  0  0  0  0  0  0  0  0
    0.9715    0.0470   -6.5963 H   0  0  0  0  0  0  0  0  0  0  0  0
   -0.0049    1.3510   -6.1856 H   0  0  0  0  0  0  0  0  0  0  0  0
   -0.7757    2.3083    1.2826 C   0  0  0  0  0  0  0  0  0  0  0  0
   -1.7309    2.3846    2.0479 O   0  0  0  0  0  0  0  0  0  0  0  0
    0.1837    3.3050    1.3251 N   0  0  0  0  0  0  0  0  0  0  0  0
    0.9713    3.2262    0.6887 H   0  0  0  0  0  0  0  0  0  0  0  0
    0.1687    4.3940    2.2944 C   0  0  0  0  0  0  0  0  0  0  0  0
    0.2110    3.9989    3.3150 H   0  0  0  0  0  0  0  0  0  0  0  0
    1.0324    5.0482    2.1411 H   0  0  0  0  0  0  0  0  0  0  0  0
   -0.7418    4.9925    2.1850 H   0  0  0  0  0  0  0  0  0  0  0  0
  1  2  1  0  0  0  0
  2  3  1  0  0  0  0
  2  4  1  0  0  0  0
  2  5  1  0  0  0  0
  5  6  2  0  0  0  0
  5  7  1  0  0  0  0
  7  8  1  0  0  0  0
  7  9  1  0  0  0  0
  9 10  1  0  0  0  0
  9 11  1  0  0  0  0
  9 26  1  0  0  0  0
 11 12  1  0  0  0  0
 11 13  1  0  0  0  0
 11 14  1  0  0  0  0
 14 15  1  0  0  0  0
 14 16  1  0  0  0  0
 14 17  1  0  0  0  0
 17 18  1  0  0  0  0
 17 19  1  0  0  0  0
 17 20  1  0  0  0  0
 20 21  1  0  0  0  0
 20 22  1  0  0  0  0
 20 23  1  0  0  0  0
 23 24  1  0  0  0  0
 23 25  1  0  0  0  0
 26 27  2  0  0  0  0
 26 28  1  0  0  0  0
 28 29  1  0  0  0  0
 28 30  1  0  0  0  0
 30 31  1  0  0  0  0
 30 32  1  0  0  0  0
 30 33  1  0  0  0  0
M  END
$$$$

  -OEChem-01062216083D

 33 32  0     1  0  0  0  0  0999 V2000
   -3.4861   -2.2978    1.4005 H   0  0  0  0  0  0  0  0  0  0  0  0
   -3.5481   -1.2938    0.9718 C   0  0  0  0  0  0  0  0  0  0  0  0
   -4.0214   -0.6298    1.6994 H   0  0  0  0  0  0  0  0  0  0  0  0
   -4.1609   -1.3323    0.0683 H   0  0  0  0  0  0  0  0  0  0  0  0
   -2.1603   -0.7834    0.6351 C   0  0  0  0  0  0  0  0  0  0  0  0
   -1.1929   -1.5134    0.7880 O   0  0  0  0  0  0  0  0  0  0  0  0
   -2.0111    0.4907    0.1240 N   0  0  0  0  0  0  0  0  0  0  0  0
   -2.8453    1.0668    0.2025 H   0  0  0  0  0  0  0  0  0  0  0  0
   -0.7281    1.2135    0.1941 C   0  0  1  0  0  0  0  0  0  0  0  0
    0.0894    0.5428    0.4797 H   0  0  0  0  0  0  0  0  0  0  0  0
   -0.4202    1.7717   -1.2098 C   0  0  0  0  0  0  0  0  0  0  0  0
   -1.2678    2.3690   -1.5625 H   0  0  0  0  0  0  0  0  0  0  0  0
    0.4558    2.4253   -1.1665 H   0  0  0  0  0  0  0  0  0  0  0  0
   -0.1187    0.6455   -2.2090 C   0  0  0  0  0  0  0  0  0  0  0  0
    0.7277    0.0505   -1.8492 H   0  0  0  0  0  0  0  0  0  0  0  0
   -0.9843   -0.0199   -2.2928 H   0  0  0  0  0  0  0  0  0  0  0  0
    0.2080    1.2284   -3.5876 C   0  0  0  0  0  0  0  0  0  0  0  0
   -0.6334    1.8347   -3.9381 H   0  0  0  0  0  0  0  0  0  0  0  0
    1.0864    1.8781   -3.5155 H   0  0  0  0  0  0  0  0  0  0  0  0
    0.4852    0.1161   -4.5937 C   0  0  0  0  0  0  0  0  0  0  0  0
    1.3436   -0.4805   -4.2652 H   0  0  0  0  0  0  0  0  0  0  0  0
   -0.3826   -0.5489   -4.6687 H   0  0  0  0  0  0  0  0  0  0  0  0
    0.7677    0.7266   -5.8965 N   0  0  0  0  0  0  0  0  0  0  0  0
    0.9839    0.0171   -6.5969 H   0  0  0  0  0  0  0  0  0  0  0  0
   -0.0082    1.3138   -6.2018 H   0  0  0  0  0  0  0  0  0  0  0  0
   -0.7798    2.3170    1.2818 C   0  0  0  0  0  0  0  0  0  0  0  0
   -1.5863    2.2328    2.2011 O   0  0  0  0  0  0  0  0  0  0  0  0
   -0.0344    3.4788    1.1729 N   0  0  0  0  0  0  0  0  0  0  0  0
    0.6276    3.5419    0.4055 H   0  0  0  0  0  0  0  0  0  0  0  0
   -0.0826    4.5603    2.1495 C   0  0  0  0  0  0  0  0  0  0  0  0
    0.2106    4.1955    3.1396 H   0  0  0  0  0  0  0  0  0  0  0  0
    0.6033    5.3620    1.8597 H   0  0  0  0  0  0  0  0  0  0  0  0
   -1.0936    4.9764    2.2115 H   0  0  0  0  0  0  0  0  0  0  0  0
  1  2  1  0  0  0  0
  2  3  1  0  0  0  0
  2  4  1  0  0  0  0
  2  5  1  0  0  0  0
  5  6  2  0  0  0  0
  5  7  1  0  0  0  0
  7  8  1  0  0  0  0
  7  9  1  0  0  0  0
  9 10  1  0  0  0  0
  9 11  1  0  0  0  0
  9 26  1  0  0  0  0
 11 12  1  0  0  0  0
 11 13  1  0  0  0  0
 11 14  1  0  0  0  0
 14 15  1  0  0  0  0
 14 16  1  0  0  0  0
 14 17  1  0  0  0  0
 17 18  1  0  0  0  0
 17 19  1  0  0  0  0
 17 20  1  0  0  0  0
 20 21  1  0  0  0  0
 20 22  1  0  0  0  0
 20 23  1  0  0  0  0
 23 24  1  0  0  0  0
 23 25  1  0  0  0  0
 26 27  2  0  0  0  0
 26 28  1  0  0  0  0
 28 29  1  0  0  0  0
 28 30  1  0  0  0  0
 30 31  1  0  0  0  0
 30 32  1  0  0  0  0
 30 33  1  0  0  0  0
M  END
$$$$

  -OEChem-01062216083D

 33 32  0     1  0  0  0  0  0999 V2000
   -3.4757   -2.2905    1.4088 H   0  0  0  0  0  0  0  0  0  0  0  0
   -3.5431   -1.2865    0.9807 C   0  0  0  0  0  0  0  0  0  0  0  0
   -4.0073   -0.6229    1.7145 H   0  0  0  0  0  0  0  0  0  0  0  0
   -4.1676   -1.3254    0.0852 H   0  0  0  0  0  0  0  0  0  0  0  0
   -2.1595   -0.7759    0.6266 C   0  0  0  0  0  0  0  0  0  0  0  0
   -1.1923   -1.5109    0.7532 O   0  0  0  0  0  0  0  0  0  0  0  0
   -2.0166    0.5012    0.1201 N   0  0  0  0  0  0  0  0  0  0  0  0
   -2.8538    1.0721    0.1935 H   0  0  0  0  0  0  0  0  0  0  0  0
   -0.7338    1.2246    0.1832 C   0  0  1  0  0  0  0  0  0  0  0  0
    0.0839    0.5540    0.4688 H   0  0  0  0  0  0  0  0  0  0  0  0
   -0.4220    1.7785   -1.2213 C   0  0  0  0  0  0  0  0  0  0  0  0
   -1.2669    2.3766   -1.5791 H   0  0  0  0  0  0  0  0  0  0  0  0
    0.4572    2.4284   -1.1747 H   0  0  0  0  0  0  0  0  0  0  0  0
   -0.1195    0.6478   -2.2151 C   0  0  0  0  0  0  0  0  0  0  0  0
    0.7249    0.0528   -1.8503 H   0  0  0  0  0  0  0  0  0  0  0  0
   -0.9858   -0.0167   -2.2979 H   0  0  0  0  0  0  0  0  0  0  0  0
    0.2116    1.2232   -3.5958 C   0  0  0  0  0  0  0  0  0  0  0  0
   -0.6285    1.8279   -3.9521 H   0  0  0  0  0  0  0  0  0  0  0  0
    1.0906    1.8723   -3.5252 H   0  0  0  0  0  0  0  0  0  0  0  0
    0.4899    0.1047   -4.5953 C   0  0  0  0  0  0  0  0  0  0  0  0
    1.3467   -0.4912   -4.2613 H   0  0  0  0  0  0  0  0  0  0  0  0
   -0.3782   -0.5601   -4.6691 H   0  0  0  0  0  0  0  0  0  0  0  0
    0.7766    0.7071   -5.9009 N   0  0  0  0  0  0  0  0  0  0  0  0
    1.0023   -0.0063   -6.5944 H   0  0  0  0  0  0  0  0  0  0  0  0
   -0.0008    1.2869   -6.2160 H   0  0  0  0  0  0  0  0  0  0  0  0
   -0.7850    2.3206    1.2781 C   0  0  0  0  0  0  0  0  0  0  0  0
   -1.3873    2.1071    2.3231 O   0  0  0  0  0  0  0  0  0  0  0  0
   -0.3056    3.6007    1.0554 N   0  0  0  0  0  0  0  0  0  0  0  0
    0.1754    3.7762    0.1785 H   0  0  0  0  0  0  0  0  0  0  0  0
   -0.3885    4.6740    2.0396 C   0  0  0  0  0  0  0  0  0  0  0  0
    0.1387    4.3937    2.9576 H   0  0  0  0  0  0  0  0  0  0  0  0
    0.0684    5.5859    1.6437 H   0  0  0  0  0  0  0  0  0  0  0  0
   -1.4336    4.8898    2.2852 H   0  0  0  0  0  0  0  0  0  0  0  0
  1  2  1  0  0  0  0
  2  3  1  0  0  0  0
  2  4  1  0  0  0  0
  2  5  1  0  0  0  0
  5  6  2  0  0  0  0
  5  7  1  0  0  0  0
  7  8  1  0  0  0  0
  7  9  1  0  0  0  0
  9 10  1  0  0  0  0
  9 11  1  0  0  0  0
  9 26  1  0  0  0  0
 11 12  1  0  0  0  0
 11 13  1  0  0  0  0
 11 14  1  0  0  0  0
 14 15  1  0  0  0  0
 14 16  1  0  0  0  0
 14 17  1  0  0  0  0
 17 18  1  0  0  0  0
 17 19  1  0  0  0  0
 17 20  1  0  0  0  0
 20 21  1  0  0  0  0
 20 22  1  0  0  0  0
 20 23  1  0  0  0  0
 23 24  1  0  0  0  0
 23 25  1  0  0  0  0
 26 27  2  0  0  0  0
 26 28  1  0  0  0  0
 28 29  1  0  0  0  0
 28 30  1  0  0  0  0
 30 31  1  0  0  0  0
 30 32  1  0  0  0  0
 30 33  1  0  0  0  0
M  END
$$$$

  -OEChem-01062216083D

 33 32  0     1  0  0  0  0  0999 V2000
   -3.4825   -2.3038    1.3901 H   0  0  0  0  0  0  0  0  0  0  0  0
   -3.5479   -1.2919    0.9802 C   0  0  0  0  0  0  0  0  0  0  0  0
   -4.0119   -0.6412    1.7255 H   0  0  0  0  0  0  0  0  0  0  0  0
   -4.1718   -1.3137    0.0837 H   0  0  0  0  0  0  0  0  0  0  0  0
   -2.1626   -0.7774    0.6371 C   0  0  0  0  0  0  0  0  0  0  0  0
   -1.1959   -1.5120    0.7662 O   0  0  0  0  0  0  0  0  0  0  0  0
   -2.0194    0.4991    0.1289 N   0  0  0  0  0  0  0  0  0  0  0  0
   -2.8614    1.0650    0.1751 H   0  0  0  0  0  0  0  0  0  0  0  0
   -0.7381    1.2256    0.1850 C   0  0  1  0  0  0  0  0  0  0  0  0
    0.0808    0.5565    0.4714 H   0  0  0  0  0  0  0  0  0  0  0  0
   -0.4243    1.7775   -1.2194 C   0  0  0  0  0  0  0  0  0  0  0  0
   -1.2694    2.3725   -1.5819 H   0  0  0  0  0  0  0  0  0  0  0  0
    0.4529    2.4306   -1.1661 H   0  0  0  0  0  0  0  0  0  0  0  0
   -0.1182    0.6472   -2.2124 C   0  0  0  0  0  0  0  0  0  0  0  0
    0.7272    0.0543   -1.8467 H   0  0  0  0  0  0  0  0  0  0  0  0
   -0.9830   -0.0194   -2.2958 H   0  0  0  0  0  0  0  0  0  0  0  0
    0.2142    1.2240   -3.5922 C   0  0  0  0  0  0  0  0  0  0  0  0
   -0.6257    1.8282   -3.9493 H   0  0  0  0  0  0  0  0  0  0  0  0
    1.0924    1.8740   -3.5194 H   0  0  0  0  0  0  0  0  0  0  0  0
    0.4961    0.1069   -4.5919 C   0  0  0  0  0  0  0  0  0  0  0  0
    1.3535   -0.4877   -4.2569 H   0  0  0  0  0  0  0  0  0  0  0  0
   -0.3709   -0.5588   -4.6672 H   0  0  0  0  0  0  0  0  0  0  0  0
    0.7839    0.7109   -5.8964 N   0  0  0  0  0  0  0  0  0  0  0  0
    1.0099   -0.0018   -6.5906 H   0  0  0  0  0  0  0  0  0  0  0  0
    0.0065    1.2910   -6.2113 H   0  0  0  0  0  0  0  0  0  0  0  0
   -0.7882    2.3223    1.2767 C   0  0  0  0  0  0  0  0  0  0  0  0
   -1.1518    2.0336    2.4089 O   0  0  0  0  0  0  0  0  0  0  0  0
   -0.6054    3.6612    0.9725 N   0  0  0  0  0  0  0  0  0  0  0  0
   -0.3307    3.8937    0.0230 H   0  0  0  0  0  0  0  0  0  0  0  0
   -0.7220    4.7331    1.9542 C   0  0  0  0  0  0  0  0  0  0  0  0
    0.0070    4.5956    2.7597 H   0  0  0  0  0  0  0  0  0  0  0  0
   -0.5352    5.7015    1.4804 H   0  0  0  0  0  0  0  0  0  0  0  0
   -1.7276    4.7492    2.3872 H   0  0  0  0  0  0  0  0  0  0  0  0
  1  2  1  0  0  0  0
  2  3  1  0  0  0  0
  2  4  1  0  0  0  0
  2  5  1  0  0  0  0
  5  6  2  0  0  0  0
  5  7  1  0  0  0  0
  7  8  1  0  0  0  0
  7  9  1  0  0  0  0
  9 10  1  0  0  0  0
  9 11  1  0  0  0  0
  9 26  1  0  0  0  0
 11 12  1  0  0  0  0
 11 13  1  0  0  0  0
 11 14  1  0  0  0  0
 14 15  1  0  0  0  0
 14 16  1  0  0  0  0
 14 17  1  0  0  0  0
 17 18  1  0  0  0  0
 17 19  1  0  0  0  0
 17 20  1  0  0  0  0
 20 21  1  0  0  0  0
 20 22  1  0  0  0  0
 20 23  1  0  0  0  0
 23 24  1  0  0  0  0
 23 25  1  0  0  0  0
 26 27  2  0  0  0  0
 26 28  1  0  0  0  0
 28 29  1  0  0  0  0
 28 30  1  0  0  0  0
 30 31  1  0  0  0  0
 30 32  1  0  0  0  0
 30 33  1  0  0  0  0
M  END
$$$$

  -OEChem-01062216083D

 33 32  0     1  0  0  0  0  0999 V2000
   -3.4847   -2.3170    1.3851 H   0  0  0  0  0  0  0  0  0  0  0  0
   -3.5525   -1.3117    0.9598 C   0  0  0  0  0  0  0  0  0  0  0  0
   -4.0452   -0.6579    1.6837 H   0  0  0  0  0  0  0  0  0  0  0  0
   -4.1518   -1.3541    0.0473 H   0  0  0  0  0  0  0  0  0  0  0  0
   -2.1652   -0.7838    0.6464 C   0  0  0  0  0  0  0  0  0  0  0  0
   -1.1956   -1.5101    0.7950 O   0  0  0  0  0  0  0  0  0  0  0  0
   -2.0233    0.4931    0.1379 N   0  0  0  0  0  0  0  0  0  0  0  0
   -2.8727    1.0494    0.1417 H   0  0  0  0  0  0  0  0  0  0  0  0
   -0.7470    1.2280    0.1913 C   0  0  1  0  0  0  0  0  0  0  0  0
    0.0753    0.5624    0.4772 H   0  0  0  0  0  0  0  0  0  0  0  0
   -0.4350    1.7833   -1.2112 C   0  0  0  0  0  0  0  0  0  0  0  0
   -1.2839    2.3699   -1.5770 H   0  0  0  0  0  0  0  0  0  0  0  0
    0.4351    2.4458   -1.1518 H   0  0  0  0  0  0  0  0  0  0  0  0
   -0.1208    0.6552   -2.2037 C   0  0  0  0  0  0  0  0  0  0  0  0
    0.7282    0.0683   -1.8359 H   0  0  0  0  0  0  0  0  0  0  0  0
   -0.9810   -0.0174   -2.2873 H   0  0  0  0  0  0  0  0  0  0  0  0
    0.2104    1.2317   -3.5842 C   0  0  0  0  0  0  0  0  0  0  0  0
   -0.6320    1.8308   -3.9443 H   0  0  0  0  0  0  0  0  0  0  0  0
    1.0851    1.8863   -3.5116 H   0  0  0  0  0  0  0  0  0  0  0  0
    0.4995    0.1128   -4.5799 C   0  0  0  0  0  0  0  0  0  0  0  0
    1.3594   -0.4761   -4.2412 H   0  0  0  0  0  0  0  0  0  0  0  0
   -0.3638   -0.5579   -4.6539 H   0  0  0  0  0  0  0  0  0  0  0  0
    0.7862    0.7127   -5.8867 N   0  0  0  0  0  0  0  0  0  0  0  0
    1.0170   -0.0018   -6.5776 H   0  0  0  0  0  0  0  0  0  0  0  0
    0.0069    1.2879   -6.2054 H   0  0  0  0  0  0  0  0  0  0  0  0
   -0.7978    2.3263    1.2785 C   0  0  0  0  0  0  0  0  0  0  0  0
   -0.8812    2.0129    2.4574 O   0  0  0  0  0  0  0  0  0  0  0  0
   -0.9296    3.6639    0.9441 N   0  0  0  0  0  0  0  0  0  0  0  0
   -0.8676    3.9090   -0.0393 H   0  0  0  0  0  0  0  0  0  0  0  0
   -1.0512    4.7316    1.9301 C   0  0  0  0  0  0  0  0  0  0  0  0
   -0.1626    4.7664    2.5691 H   0  0  0  0  0  0  0  0  0  0  0  0
   -1.1552    5.6987    1.4288 H   0  0  0  0  0  0  0  0  0  0  0  0
   -1.9326    4.5738    2.5605 H   0  0  0  0  0  0  0  0  0  0  0  0
  1  2  1  0  0  0  0
  2  3  1  0  0  0  0
  2  4  1  0  0  0  0
  2  5  1  0  0  0  0
  5  6  2  0  0  0  0
  5  7  1  0  0  0  0
  7  8  1  0  0  0  0
  7  9  1  0  0  0  0
  9 10  1  0  0  0  0
  9 11  1  0  0  0  0
  9 26  1  0  0  0  0
 11 12  1  0  0  0  0
 11 13  1  0  0  0  0
 11 14  1  0  0  0  0
 14 15  1  0  0  0  0
 14 16  1  0  0  0  0
 14 17  1  0  0  0  0
 17 18  1  0  0  0  0
 17 19  1  0  0  0  0
 17 20  1  0  0  0  0
 20 21  1  0  0  0  0
 20 22  1  0  0  0  0
 20 23  1  0  0  0  0
 23 24  1  0  0  0  0
 23 25  1  0  0  0  0
 26 27  2  0  0  0  0
 26 28  1  0  0  0  0
 28 29  1  0  0  0  0
 28 30  1  0  0  0  0
 30 31  1  0  0  0  0
 30 32  1  0  0  0  0
 30 33  1  0  0  0  0
M  END
$$$$

  -OEChem-01062216083D

 33 32  0     1  0  0  0  0  0999 V2000
   -3.4989   -2.3436    1.3687 H   0  0  0  0  0  0  0  0  0  0  0  0
   -3.5626   -1.3458    0.9250 C   0  0  0  0  0  0  0  0  0  0  0  0
   -4.1006   -0.6902    1.6140 H   0  0  0  0  0  0  0  0  0  0  0  0
   -4.1162   -1.4122   -0.0145 H   0  0  0  0  0  0  0  0  0  0  0  0
   -2.1706   -0.7981    0.6707 C   0  0  0  0  0  0  0  0  0  0  0  0
   -1.1980   -1.5055    0.8753 O   0  0  0  0  0  0  0  0  0  0  0  0
   -2.0273    0.4768    0.1572 N   0  0  0  0  0  0  0  0  0  0  0  0
   -2.8837    1.0191    0.1025 H   0  0  0  0  0  0  0  0  0  0  0  0
   -0.7571    1.2233    0.2063 C   0  0  1  0  0  0  0  0  0  0  0  0
    0.0705    0.5634    0.4910 H   0  0  0  0  0  0  0  0  0  0  0  0
   -0.4492    1.7832   -1.1946 C   0  0  0  0  0  0  0  0  0  0  0  0
   -1.3032    2.3613   -1.5621 H   0  0  0  0  0  0  0  0  0  0  0  0
    0.4126    2.4567   -1.1310 H   0  0  0  0  0  0  0  0  0  0  0  0
   -0.1251    0.6595   -2.1890 C   0  0  0  0  0  0  0  0  0  0  0  0
    0.7288    0.0793   -1.8226 H   0  0  0  0  0  0  0  0  0  0  0  0
   -0.9795   -0.0197   -2.2745 H   0  0  0  0  0  0  0  0  0  0  0  0
    0.2016    1.2412   -3.5682 C   0  0  0  0  0  0  0  0  0  0  0  0
   -0.6471    1.8322   -3.9275 H   0  0  0  0  0  0  0  0  0  0  0  0
    1.0694    1.9050   -3.4942 H   0  0  0  0  0  0  0  0  0  0  0  0
    0.5010    0.1268   -4.5664 C   0  0  0  0  0  0  0  0  0  0  0  0
    1.3661   -0.4551   -4.2291 H   0  0  0  0  0  0  0  0  0  0  0  0
   -0.3560   -0.5518   -4.6427 H   0  0  0  0  0  0  0  0  0  0  0  0
    0.7829    0.7327   -5.8713 N   0  0  0  0  0  0  0  0  0  0  0  0
    1.0256    0.0225   -6.5623 H   0  0  0  0  0  0  0  0  0  0  0  0
   -0.0034    1.2977   -6.1912 H   0  0  0  0  0  0  0  0  0  0  0  0
   -0.8111    2.3288    1.2832 C   0  0  0  0  0  0  0  0  0  0  0  0
   -0.5838    2.0590    2.4533 O   0  0  0  0  0  0  0  0  0  0  0  0
   -1.2538    3.6036    0.9719 N   0  0  0  0  0  0  0  0  0  0  0  0
   -1.4098    3.8193   -0.0079 H   0  0  0  0  0  0  0  0  0  0  0  0
   -1.3540    4.6763    1.9547 C   0  0  0  0  0  0  0  0  0  0  0  0
   -0.3692    4.8996    2.3787 H   0  0  0  0  0  0  0  0  0  0  0  0
   -1.7440    5.5850    1.4861 H   0  0  0  0  0  0  0  0  0  0  0  0
   -2.0304    4.3902    2.7673 H   0  0  0  0  0  0  0  0  0  0  0  0
  1  2  1  0  0  0  0
  2  3  1  0  0  0  0
  2  4  1  0  0  0  0
  2  5  1  0  0  0  0
  5  6  2  0  0  0  0
  5  7  1  0  0  0  0
  7  8  1  0  0  0  0
  7  9  1  0  0  0  0
  9 10  1  0  0  0  0
  9 11  1  0  0  0  0
  9 26  1  0  0  0  0
 11 12  1  0  0  0  0
 11 13  1  0  0  0  0
 11 14  1  0  0  0  0
 14 15  1  0  0  0  0
 14 16  1  0  0  0  0
 14 17  1  0  0  0  0
 17 18  1  0  0  0  0
 17 19  1  0  0  0  0
 17 20  1  0  0  0  0
 20 21  1  0  0  0  0
 20 22  1  0  0  0  0
 20 23  1  0  0  0  0
 23 24  1  0  0  0  0
 23 25  1  0  0  0  0
 26 27  2  0  0  0  0
 26 28  1  0  0  0  0
 28 29  1  0  0  0  0
 28 30  1  0  0  0  0
 30 31  1  0  0  0  0
 30 32  1  0  0  0  0
 30 33  1  0  0  0  0
M  END
$$$$

  -OEChem-01062216083D

 33 32  0     1  0  0  0  0  0999 V2000
   -3.5133   -2.3880    1.3379 H   0  0  0  0  0  0  0  0  0  0  0  0
   -3.5745   -1.3925    0.8888 C   0  0  0  0  0  0  0  0  0  0  0  0
   -4.1555   -0.7454    1.5503 H   0  0  0  0  0  0  0  0  0  0  0  0
   -4.0831   -1.4715   -0.0749 H   0  0  0  0  0  0  0  0  0  0  0  0
   -2.1821   -0.8213    0.6966 C   0  0  0  0  0  0  0  0  0  0  0  0
   -1.2093   -1.5049    0.9666 O   0  0  0  0  0  0  0  0  0  0  0  0
   -2.0364    0.4519    0.1797 N   0  0  0  0  0  0  0  0  0  0  0  0
   -2.8964    0.9764    0.0560 H   0  0  0  0  0  0  0  0  0  0  0  0
   -0.7710    1.2080    0.2276 C   0  0  1  0  0  0  0  0  0  0  0  0
    0.0601    0.5513    0.5104 H   0  0  0  0  0  0  0  0  0  0  0  0
   -0.4654    1.7772   -1.1692 C   0  0  0  0  0  0  0  0  0  0  0  0
   -1.3212    2.3539   -1.5341 H   0  0  0  0  0  0  0  0  0  0  0  0
    0.3913    2.4564   -1.0988 H   0  0  0  0  0  0  0  0  0  0  0  0
   -0.1327    0.6617   -2.1703 C   0  0  0  0  0  0  0  0  0  0  0  0
    0.7257    0.0868   -1.8059 H   0  0  0  0  0  0  0  0  0  0  0  0
   -0.9818   -0.0238   -2.2601 H   0  0  0  0  0  0  0  0  0  0  0  0
    0.1917    1.2536   -3.5463 C   0  0  0  0  0  0  0  0  0  0  0  0
   -0.6599    1.8415   -3.9029 H   0  0  0  0  0  0  0  0  0  0  0  0
    1.0555    1.9219   -3.4669 H   0  0  0  0  0  0  0  0  0  0  0  0
    0.5000    0.1488   -4.5525 C   0  0  0  0  0  0  0  0  0  0  0  0
    1.3688   -0.4294   -4.2184 H   0  0  0  0  0  0  0  0  0  0  0  0
   -0.3521   -0.5350   -4.6347 H   0  0  0  0  0  0  0  0  0  0  0  0
    0.7791    0.7654   -5.8532 N   0  0  0  0  0  0  0  0  0  0  0  0
    1.0291    0.0625   -6.5490 H   0  0  0  0  0  0  0  0  0  0  0  0
   -0.0101    1.3274   -6.1710 H   0  0  0  0  0  0  0  0  0  0  0  0
   -0.8245    2.3207    1.2954 C   0  0  0  0  0  0  0  0  0  0  0  0
   -0.2780    2.1701    2.3778 O   0  0  0  0  0  0  0  0  0  0  0  0
   -1.5471    3.4798    1.0670 N   0  0  0  0  0  0  0  0  0  0  0  0
   -1.9275    3.6174    0.1363 H   0  0  0  0  0  0  0  0  0  0  0  0
   -1.6127    4.5779    2.0244 C   0  0  0  0  0  0  0  0  0  0  0  0
   -0.6150    4.9944    2.1985 H   0  0  0  0  0  0  0  0  0  0  0  0
   -2.2594    5.3741    1.6436 H   0  0  0  0  0  0  0  0  0  0  0  0
   -2.0203    4.2304    2.9797 H   0  0  0  0  0  0  0  0  0  0  0  0
  1  2  1  0  0  0  0
  2  3  1  0  0  0  0
  2  4  1  0  0  0  0
  2  5  1  0  0  0  0
  5  6  2  0  0  0  0
  5  7  1  0  0  0  0
  7  8  1  0  0  0  0
  7  9  1  0  0  0  0
  9 10  1  0  0  0  0
  9 11  1  0  0  0  0
  9 26  1  0  0  0  0
 11 12  1  0  0  0  0
 11 13  1  0  0  0  0
 11 14  1  0  0  0  0
 14 15  1  0  0  0  0
 14 16  1  0  0  0  0
 14 17  1  0  0  0  0
 17 18  1  0  0  0  0
 17 19  1  0  0  0  0
 17 20  1  0  0  0  0
 20 21  1  0  0  0  0
 20 22  1  0  0  0  0
 20 23  1  0  0  0  0
 23 24  1  0  0  0  0
 23 25  1  0  0  0  0
 26 27  2  0  0  0  0
 26 28  1  0  0  0  0
 28 29  1  0  0  0  0
 28 30  1  0  0  0  0
 30 31  1  0  0  0  0
 30 32  1  0  0  0  0
 30 33  1  0  0  0  0
M  END
$$$$

  -OEChem-01062216083D

 33 32  0     1  0  0  0  0  0999 V2000
   -3.5193   -2.4526    1.2317 H   0  0  0  0  0  0  0  0  0  0  0  0
   -3.5667   -1.4600    0.7745 C   0  0  0  0  0  0  0  0  0  0  0  0
   -4.2456   -0.8362    1.3606 H   0  0  0  0  0  0  0  0  0  0  0  0
   -3.9561   -1.5593   -0.2415 H   0  0  0  0  0  0  0  0  0  0  0  0
   -2.1850   -0.8344    0.7418 C   0  0  0  0  0  0  0  0  0  0  0  0
   -1.2263   -1.4717    1.1417 O   0  0  0  0  0  0  0  0  0  0  0  0
   -2.0280    0.4357    0.2208 N   0  0  0  0  0  0  0  0  0  0  0  0
   -2.8770    0.9177   -0.0543 H   0  0  0  0  0  0  0  0  0  0  0  0
   -0.7660    1.1992    0.2658 C   0  0  1  0  0  0  0  0  0  0  0  0
    0.0685    0.5440    0.5428 H   0  0  0  0  0  0  0  0  0  0  0  0
   -0.4756    1.7746   -1.1305 C   0  0  0  0  0  0  0  0  0  0  0  0
   -1.3357    2.3515   -1.4844 H   0  0  0  0  0  0  0  0  0  0  0  0
    0.3795    2.4566   -1.0635 H   0  0  0  0  0  0  0  0  0  0  0  0
   -0.1444    0.6645   -2.1378 C   0  0  0  0  0  0  0  0  0  0  0  0
    0.7206    0.0943   -1.7820 H   0  0  0  0  0  0  0  0  0  0  0  0
   -0.9895   -0.0262   -2.2228 H   0  0  0  0  0  0  0  0  0  0  0  0
    0.1650    1.2612   -3.5143 C   0  0  0  0  0  0  0  0  0  0  0  0
   -0.6922    1.8459   -3.8629 H   0  0  0  0  0  0  0  0  0  0  0  0
    1.0261    1.9336   -3.4405 H   0  0  0  0  0  0  0  0  0  0  0  0
    0.4707    0.1585   -4.5233 C   0  0  0  0  0  0  0  0  0  0  0  0
    1.3454   -0.4150   -4.1963 H   0  0  0  0  0  0  0  0  0  0  0  0
   -0.3781   -0.5304   -4.5987 H   0  0  0  0  0  0  0  0  0  0  0  0
    0.7359    0.7768   -5.8259 N   0  0  0  0  0  0  0  0  0  0  0  0
    0.9826    0.0753   -6.5244 H   0  0  0  0  0  0  0  0  0  0  0  0
   -0.0578    1.3366   -6.1362 H   0  0  0  0  0  0  0  0  0  0  0  0
   -0.8106    2.3237    1.3211 C   0  0  0  0  0  0  0  0  0  0  0  0
    0.0085    2.3593    2.2273 O   0  0  0  0  0  0  0  0  0  0  0  0
   -1.7586    3.3298    1.2342 N   0  0  0  0  0  0  0  0  0  0  0  0
   -2.3638    3.3353    0.4205 H   0  0  0  0  0  0  0  0  0  0  0  0
   -1.8114    4.4549    2.1605 C   0  0  0  0  0  0  0  0  0  0  0  0
   -0.8770    5.0249    2.1250 H   0  0  0  0  0  0  0  0  0  0  0  0
   -2.6357    5.1248    1.8977 H   0  0  0  0  0  0  0  0  0  0  0  0
   -1.9680    4.1000    3.1847 H   0  0  0  0  0  0  0  0  0  0  0  0
  1  2  1  0  0  0  0
  2  3  1  0  0  0  0
  2  4  1  0  0  0  0
  2  5  1  0  0  0  0
  5  6  2  0  0  0  0
  5  7  1  0  0  0  0
  7  8  1  0  0  0  0
  7  9  1  0  0  0  0
  9 10  1  0  0  0  0
  9 11  1  0  0  0  0
  9 26  1  0  0  0  0
 11 12  1  0  0  0  0
 11 13  1  0  0  0  0
 11 14  1  0  0  0  0
 14 15  1  0  0  0  0
 14 16  1  0  0  0  0
 14 17  1  0  0  0  0
 17 18  1  0  0  0  0
 17 19  1  0  0  0  0
 17 20  1  0  0  0  0
 20 21  1  0  0  0  0
 20 22  1  0  0  0  0
 20 23  1  0  0  0  0
 23 24  1  0  0  0  0
 23 25  1  0  0  0  0
 26 27  2  0  0  0  0
 26 28  1  0  0  0  0
 28 29  1  0  0  0  0
 28 30  1  0  0  0  0
 30 31  1  0  0  0  0
 30 32  1  0  0  0  0
 30 33  1  0  0  0  0
M  END
$$$$

  -OEChem-01062216083D

 33 32  0     1  0  0  0  0  0999 V2000
   -3.4816   -2.5293    1.0686 H   0  0  0  0  0  0  0  0  0  0  0  0
   -3.5298   -1.5335    0.6186 C   0  0  0  0  0  0  0  0  0  0  0  0
   -4.3307   -0.9687    1.1014 H   0  0  0  0  0  0  0  0  0  0  0  0
   -3.7553   -1.6397   -0.4453 H   0  0  0  0  0  0  0  0  0  0  0  0
   -2.2064   -0.8145    0.8015 C   0  0  0  0  0  0  0  0  0  0  0  0
   -1.3015   -1.3622    1.4062 O   0  0  0  0  0  0  0  0  0  0  0  0
   -2.0398    0.4493    0.2686 N   0  0  0  0  0  0  0  0  0  0  0  0
   -2.8017    0.8082   -0.2972 H   0  0  0  0  0  0  0  0  0  0  0  0
   -0.7719    1.2044    0.3043 C   0  0  1  0  0  0  0  0  0  0  0  0
    0.0571    0.5412    0.5781 H   0  0  0  0  0  0  0  0  0  0  0  0
   -0.4862    1.7733   -1.0950 C   0  0  0  0  0  0  0  0  0  0  0  0
   -1.3438    2.3591   -1.4416 H   0  0  0  0  0  0  0  0  0  0  0  0
    0.3741    2.4494   -1.0345 H   0  0  0  0  0  0  0  0  0  0  0  0
   -0.1682    0.6606   -2.1042 C   0  0  0  0  0  0  0  0  0  0  0  0
    0.6961    0.0859   -1.7538 H   0  0  0  0  0  0  0  0  0  0  0  0
   -1.0179   -0.0249   -2.1845 H   0  0  0  0  0  0  0  0  0  0  0  0
    0.1364    1.2554   -3.4831 C   0  0  0  0  0  0  0  0  0  0  0  0
   -0.7198    1.8449   -3.8261 H   0  0  0  0  0  0  0  0  0  0  0  0
    1.0014    1.9235   -3.4146 H   0  0  0  0  0  0  0  0  0  0  0  0
    0.4296    0.1521   -4.4957 C   0  0  0  0  0  0  0  0  0  0  0  0
    1.3027   -0.4275   -4.1751 H   0  0  0  0  0  0  0  0  0  0  0  0
   -0.4241   -0.5309   -4.5669 H   0  0  0  0  0  0  0  0  0  0  0  0
    0.6903    0.7697   -5.7996 N   0  0  0  0  0  0  0  0  0  0  0  0
    0.9202    0.0672   -6.5029 H   0  0  0  0  0  0  0  0  0  0  0  0
   -0.0973    1.3434   -6.1005 H   0  0  0  0  0  0  0  0  0  0  0  0
   -0.7851    2.3435    1.3445 C   0  0  0  0  0  0  0  0  0  0  0  0
    0.2246    2.6032    1.9832 O   0  0  0  0  0  0  0  0  0  0  0  0
   -1.8795    3.1844    1.4524 N   0  0  0  0  0  0  0  0  0  0  0  0
   -2.7101    2.9383    0.9262 H   0  0  0  0  0  0  0  0  0  0  0  0
   -1.9316    4.3149    2.3719 C   0  0  0  0  0  0  0  0  0  0  0  0
   -1.1167    5.0165    2.1641 H   0  0  0  0  0  0  0  0  0  0  0  0
   -2.8808    4.8480    2.2629 H   0  0  0  0  0  0  0  0  0  0  0  0
   -1.8434    3.9702    3.4075 H   0  0  0  0  0  0  0  0  0  0  0  0
  1  2  1  0  0  0  0
  2  3  1  0  0  0  0
  2  4  1  0  0  0  0
  2  5  1  0  0  0  0
  5  6  2  0  0  0  0
  5  7  1  0  0  0  0
  7  8  1  0  0  0  0
  7  9  1  0  0  0  0
  9 10  1  0  0  0  0
  9 11  1  0  0  0  0
  9 26  1  0  0  0  0
 11 12  1  0  0  0  0
 11 13  1  0  0  0  0
 11 14  1  0  0  0  0
 14 15  1  0  0  0  0
 14 16  1  0  0  0  0
 14 17  1  0  0  0  0
 17 18  1  0  0  0  0
 17 19  1  0  0  0  0
 17 20  1  0  0  0  0
 20 21  1  0  0  0  0
 20 22  1  0  0  0  0
 20 23  1  0  0  0  0
 23 24  1  0  0  0  0
 23 25  1  0  0  0  0
 26 27  2  0  0  0  0
 26 28  1  0  0  0  0
 28 29  1  0  0  0  0
 28 30  1  0  0  0  0
 30 31  1  0  0  0  0
 30 32  1  0  0  0  0
 30 33  1  0  0  0  0
M  END
$$$$

  -OEChem-01062216083D

 33 32  0     1  0  0  0  0  0999 V2000
   -3.4583   -2.5480    1.0091 H   0  0  0  0  0  0  0  0  0  0  0  0
   -3.5113   -1.5510    0.5624 C   0  0  0  0  0  0  0  0  0  0  0  0
   -4.3497   -1.0105    1.0082 H   0  0  0  0  0  0  0  0  0  0  0  0
   -3.6824   -1.6568   -0.5115 H   0  0  0  0  0  0  0  0  0  0  0  0
   -2.2173   -0.7991    0.8120 C   0  0  0  0  0  0  0  0  0  0  0  0
   -1.3404   -1.3128    1.4840 O   0  0  0  0  0  0  0  0  0  0  0  0
   -2.0472    0.4624    0.2753 N   0  0  0  0  0  0  0  0  0  0  0  0
   -2.7690    0.7836   -0.3625 H   0  0  0  0  0  0  0  0  0  0  0  0
   -0.7734    1.2085    0.3129 C   0  0  1  0  0  0  0  0  0  0  0  0
    0.0510    0.5405    0.5888 H   0  0  0  0  0  0  0  0  0  0  0  0
   -0.4859    1.7724   -1.0890 C   0  0  0  0  0  0  0  0  0  0  0  0
   -1.3398    2.3648   -1.4336 H   0  0  0  0  0  0  0  0  0  0  0  0
    0.3797    2.4424   -1.0323 H   0  0  0  0  0  0  0  0  0  0  0  0
   -0.1763    0.6569   -2.0983 C   0  0  0  0  0  0  0  0  0  0  0  0
    0.6849    0.0771   -1.7492 H   0  0  0  0  0  0  0  0  0  0  0  0
   -1.0302   -0.0233   -2.1773 H   0  0  0  0  0  0  0  0  0  0  0  0
    0.1299    1.2496   -3.4780 C   0  0  0  0  0  0  0  0  0  0  0  0
   -0.7227    1.8452   -3.8196 H   0  0  0  0  0  0  0  0  0  0  0  0
    0.9996    1.9117   -3.4104 H   0  0  0  0  0  0  0  0  0  0  0  0
    0.4150    0.1455   -4.4922 C   0  0  0  0  0  0  0  0  0  0  0  0
    1.2854   -0.4390   -4.1739 H   0  0  0  0  0  0  0  0  0  0  0  0
   -0.4426   -0.5328   -4.5632 H   0  0  0  0  0  0  0  0  0  0  0  0
    0.6771    0.7640   -5.7952 N   0  0  0  0  0  0  0  0  0  0  0  0
    0.9004    0.0619   -6.5009 H   0  0  0  0  0  0  0  0  0  0  0  0
   -0.1065    1.3448   -6.0927 H   0  0  0  0  0  0  0  0  0  0  0  0
   -0.7771    2.3504    1.3509 C   0  0  0  0  0  0  0  0  0  0  0  0
    0.2808    2.7936    1.7753 O   0  0  0  0  0  0  0  0  0  0  0  0
   -1.9547    3.0006    1.6763 N   0  0  0  0  0  0  0  0  0  0  0  0
   -2.8163    2.5545    1.3814 H   0  0  0  0  0  0  0  0  0  0  0  0
   -2.0197    4.1007    2.6312 C   0  0  0  0  0  0  0  0  0  0  0  0
   -1.3705    4.9234    2.3132 H   0  0  0  0  0  0  0  0  0  0  0  0
   -3.0436    4.4795    2.7030 H   0  0  0  0  0  0  0  0  0  0  0  0
   -1.7022    3.7656    3.6241 H   0  0  0  0  0  0  0  0  0  0  0  0
  1  2  1  0  0  0  0
  2  3  1  0  0  0  0
  2  4  1  0  0  0  0
  2  5  1  0  0  0  0
  5  6  2  0  0  0  0
  5  7  1  0  0  0  0
  7  8  1  0  0  0  0
  7  9  1  0  0  0  0
  9 10  1  0  0  0  0
  9 11  1  0  0  0  0
  9 26  1  0  0  0  0
 11 12  1  0  0  0  0
 11 13  1  0  0  0  0
 11 14  1  0  0  0  0
 14 15  1  0  0  0  0
 14 16  1  0  0  0  0
 14 17  1  0  0  0  0
 17 18  1  0  0  0  0
 17 19  1  0  0  0  0
 17 20  1  0  0  0  0
 20 21  1  0  0  0  0
 20 22  1  0  0  0  0
 20 23  1  0  0  0  0
 23 24  1  0  0  0  0
 23 25  1  0  0  0  0
 26 27  2  0  0  0  0
 26 28  1  0  0  0  0
 28 29  1  0  0  0  0
 28 30  1  0  0  0  0
 30 31  1  0  0  0  0
 30 32  1  0  0  0  0
 30 33  1  0  0  0  0
M  END
$$$$

  -OEChem-01062216083D

 33 32  0     1  0  0  0  0  0999 V2000
   -3.4593   -2.5407    0.9863 H   0  0  0  0  0  0  0  0  0  0  0  0
   -3.5086   -1.5424    0.5421 C   0  0  0  0  0  0  0  0  0  0  0  0
   -4.3505   -1.0031    0.9827 H   0  0  0  0  0  0  0  0  0  0  0  0
   -3.6718   -1.6453   -0.5334 H   0  0  0  0  0  0  0  0  0  0  0  0
   -2.2166   -0.7914    0.8036 C   0  0  0  0  0  0  0  0  0  0  0  0
   -1.3519   -1.2963    1.4976 O   0  0  0  0  0  0  0  0  0  0  0  0
   -2.0413    0.4704    0.2705 N   0  0  0  0  0  0  0  0  0  0  0  0
   -2.7568    0.7947   -0.3734 H   0  0  0  0  0  0  0  0  0  0  0  0
   -0.7655    1.2136    0.3130 C   0  0  1  0  0  0  0  0  0  0  0  0
    0.0576    0.5448    0.5897 H   0  0  0  0  0  0  0  0  0  0  0  0
   -0.4804    1.7747   -1.0919 C   0  0  0  0  0  0  0  0  0  0  0  0
   -1.3348    2.3670   -1.4349 H   0  0  0  0  0  0  0  0  0  0  0  0
    0.3858    2.4440   -1.0419 H   0  0  0  0  0  0  0  0  0  0  0  0
   -0.1742    0.6569   -2.0998 C   0  0  0  0  0  0  0  0  0  0  0  0
    0.6874    0.0771   -1.7514 H   0  0  0  0  0  0  0  0  0  0  0  0
   -1.0289   -0.0228   -2.1757 H   0  0  0  0  0  0  0  0  0  0  0  0
    0.1295    1.2463   -3.4815 C   0  0  0  0  0  0  0  0  0  0  0  0
   -0.7233    1.8420   -3.8221 H   0  0  0  0  0  0  0  0  0  0  0  0
    1.0001    1.9074   -3.4171 H   0  0  0  0  0  0  0  0  0  0  0  0
    0.4110    0.1398   -4.4941 C   0  0  0  0  0  0  0  0  0  0  0  0
    1.2813   -0.4456   -4.1767 H   0  0  0  0  0  0  0  0  0  0  0  0
   -0.4478   -0.5372   -4.5615 H   0  0  0  0  0  0  0  0  0  0  0  0
    0.6710    0.7545   -5.7994 N   0  0  0  0  0  0  0  0  0  0  0  0
    0.8824    0.0496   -6.5059 H   0  0  0  0  0  0  0  0  0  0  0  0
   -0.1085    1.3431   -6.0922 H   0  0  0  0  0  0  0  0  0  0  0  0
   -0.7719    2.3534    1.3553 C   0  0  0  0  0  0  0  0  0  0  0  0
    0.2591    2.9624    1.6063 O   0  0  0  0  0  0  0  0  0  0  0  0
   -1.9620    2.7935    1.9067 N   0  0  0  0  0  0  0  0  0  0  0  0
   -2.7672    2.1914    1.7704 H   0  0  0  0  0  0  0  0  0  0  0  0
   -2.0343    3.8514    2.9072 C   0  0  0  0  0  0  0  0  0  0  0  0
   -1.5967    4.7772    2.5190 H   0  0  0  0  0  0  0  0  0  0  0  0
   -3.0770    4.0494    3.1730 H   0  0  0  0  0  0  0  0  0  0  0  0
   -1.4933    3.5599    3.8135 H   0  0  0  0  0  0  0  0  0  0  0  0
  1  2  1  0  0  0  0
  2  3  1  0  0  0  0
  2  4  1  0  0  0  0
  2  5  1  0  0  0  0
  5  6  2  0  0  0  0
  5  7  1  0  0  0  0
  7  8  1  0  0  0  0
  7  9  1  0  0  0  0
  9 10  1  0  0  0  0
  9 11  1  0  0  0  0
  9 26  1  0  0  0  0
 11 12  1  0  0  0  0
 11 13  1  0  0  0  0
 11 14  1  0  0  0  0
 14 15  1  0  0  0  0
 14 16  1  0  0  0  0
 14 17  1  0  0  0  0
 17 18  1  0  0  0  0
 17 19  1  0  0  0  0
 17 20  1  0  0  0  0
 20 21  1  0  0  0  0
 20 22  1  0  0  0  0
 20 23  1  0  0  0  0
 23 24  1  0  0  0  0
 23 25  1  0  0  0  0
 26 27  2  0  0  0  0
 26 28  1  0  0  0  0
 28 29  1  0  0  0  0
 28 30  1  0  0  0  0
 30 31  1  0  0  0  0
 30 32  1  0  0  0  0
 30 33  1  0  0  0  0
M  END
$$$$

  -OEChem-01062216083D

 33 32  0     1  0  0  0  0  0999 V2000
   -3.4569   -2.5358    0.9571 H   0  0  0  0  0  0  0  0  0  0  0  0
   -3.5042   -1.5354    0.5171 C   0  0  0  0  0  0  0  0  0  0  0  0
   -4.3529   -1.0004    0.9500 H   0  0  0  0  0  0  0  0  0  0  0  0
   -3.6542   -1.6340   -0.5607 H   0  0  0  0  0  0  0  0  0  0  0  0
   -2.2178   -0.7809    0.7961 C   0  0  0  0  0  0  0  0  0  0  0  0
   -1.3632   -1.2789    1.5077 O   0  0  0  0  0  0  0  0  0  0  0  0
   -2.0382    0.4821    0.2679 N   0  0  0  0  0  0  0  0  0  0  0  0
   -2.7578    0.8184   -0.3656 H   0  0  0  0  0  0  0  0  0  0  0  0
   -0.7613    1.2237    0.3137 C   0  0  1  0  0  0  0  0  0  0  0  0
    0.0608    0.5546    0.5914 H   0  0  0  0  0  0  0  0  0  0  0  0
   -0.4785    1.7774   -1.0963 C   0  0  0  0  0  0  0  0  0  0  0  0
   -1.3333    2.3690   -1.4400 H   0  0  0  0  0  0  0  0  0  0  0  0
    0.3886    2.4461   -1.0548 H   0  0  0  0  0  0  0  0  0  0  0  0
   -0.1739    0.6551   -2.1001 C   0  0  0  0  0  0  0  0  0  0  0  0
    0.6886    0.0770   -1.7512 H   0  0  0  0  0  0  0  0  0  0  0  0
   -1.0284   -0.0250   -2.1723 H   0  0  0  0  0  0  0  0  0  0  0  0
    0.1268    1.2405   -3.4845 C   0  0  0  0  0  0  0  0  0  0  0  0
   -0.7269    1.8357   -3.8247 H   0  0  0  0  0  0  0  0  0  0  0  0
    0.9971    1.9025   -3.4231 H   0  0  0  0  0  0  0  0  0  0  0  0
    0.4071    0.1318   -4.4952 C   0  0  0  0  0  0  0  0  0  0  0  0
    1.2786   -0.4522   -4.1783 H   0  0  0  0  0  0  0  0  0  0  0  0
   -0.4514   -0.5456   -4.5596 H   0  0  0  0  0  0  0  0  0  0  0  0
    0.6639    0.7442   -5.8022 N   0  0  0  0  0  0  0  0  0  0  0  0
    0.8743    0.0384   -6.5081 H   0  0  0  0  0  0  0  0  0  0  0  0
   -0.1169    1.3316   -6.0941 H   0  0  0  0  0  0  0  0  0  0  0  0
   -0.7702    2.3608    1.3618 C   0  0  0  0  0  0  0  0  0  0  0  0
    0.1830    3.1218    1.4615 O   0  0  0  0  0  0  0  0  0  0  0  0
   -1.8937    2.5925    2.1351 N   0  0  0  0  0  0  0  0  0  0  0  0
   -2.6030    1.8665    2.1179 H   0  0  0  0  0  0  0  0  0  0  0  0
   -1.9488    3.6077    3.1799 C   0  0  0  0  0  0  0  0  0  0  0  0
   -1.7511    4.6001    2.7611 H   0  0  0  0  0  0  0  0  0  0  0  0
   -2.9404    3.6210    3.6419 H   0  0  0  0  0  0  0  0  0  0  0  0
   -1.2060    3.3985    3.9569 H   0  0  0  0  0  0  0  0  0  0  0  0
  1  2  1  0  0  0  0
  2  3  1  0  0  0  0
  2  4  1  0  0  0  0
  2  5  1  0  0  0  0
  5  6  2  0  0  0  0
  5  7  1  0  0  0  0
  7  8  1  0  0  0  0
  7  9  1  0  0  0  0
  9 10  1  0  0  0  0
  9 11  1  0  0  0  0
  9 26  1  0  0  0  0
 11 12  1  0  0  0  0
 11 13  1  0  0  0  0
 11 14  1  0  0  0  0
 14 15  1  0  0  0  0
 14 16  1  0  0  0  0
 14 17  1  0  0  0  0
 17 18  1  0  0  0  0
 17 19  1  0  0  0  0
 17 20  1  0  0  0  0
 20 21  1  0  0  0  0
 20 22  1  0  0  0  0
 20 23  1  0  0  0  0
 23 24  1  0  0  0  0
 23 25  1  0  0  0  0
 26 27  2  0  0  0  0
 26 28  1  0  0  0  0
 28 29  1  0  0  0  0
 28 30  1  0  0  0  0
 30 31  1  0  0  0  0
 30 32  1  0  0  0  0
 30 33  1  0  0  0  0
M  END
$$$$

  -OEChem-01062216083D

 33 32  0     1  0  0  0  0  0999 V2000
   -3.4647   -2.5136    0.9547 H   0  0  0  0  0  0  0  0  0  0  0  0
   -3.5065   -1.5161    0.5080 C   0  0  0  0  0  0  0  0  0  0  0  0
   -4.3525   -0.9740    0.9371 H   0  0  0  0  0  0  0  0  0  0  0  0
   -3.6568   -1.6204   -0.5692 H   0  0  0  0  0  0  0  0  0  0  0  0
   -2.2158   -0.7674    0.7820 C   0  0  0  0  0  0  0  0  0  0  0  0
   -1.3616   -1.2666    1.4934 O   0  0  0  0  0  0  0  0  0  0  0  0
   -2.0331    0.4989    0.2643 N   0  0  0  0  0  0  0  0  0  0  0  0
   -2.7662    0.8571   -0.3413 H   0  0  0  0  0  0  0  0  0  0  0  0
   -0.7555    1.2391    0.3095 C   0  0  1  0  0  0  0  0  0  0  0  0
    0.0659    0.5689    0.5855 H   0  0  0  0  0  0  0  0  0  0  0  0
   -0.4741    1.7863   -1.1045 C   0  0  0  0  0  0  0  0  0  0  0  0
   -1.3287    2.3775   -1.4495 H   0  0  0  0  0  0  0  0  0  0  0  0
    0.3943    2.4532   -1.0703 H   0  0  0  0  0  0  0  0  0  0  0  0
   -0.1716    0.6584   -2.1025 C   0  0  0  0  0  0  0  0  0  0  0  0
    0.6910    0.0814   -1.7521 H   0  0  0  0  0  0  0  0  0  0  0  0
   -1.0266   -0.0214   -2.1703 H   0  0  0  0  0  0  0  0  0  0  0  0
    0.1275    1.2368   -3.4896 C   0  0  0  0  0  0  0  0  0  0  0  0
   -0.7268    1.8298   -3.8316 H   0  0  0  0  0  0  0  0  0  0  0  0
    0.9975    1.8995   -3.4332 H   0  0  0  0  0  0  0  0  0  0  0  0
    0.4057    0.1228   -4.4947 C   0  0  0  0  0  0  0  0  0  0  0  0
    1.2765   -0.4610   -4.1759 H   0  0  0  0  0  0  0  0  0  0  0  0
   -0.4539   -0.5536   -4.5544 H   0  0  0  0  0  0  0  0  0  0  0  0
    0.6611    0.7282   -5.8050 N   0  0  0  0  0  0  0  0  0  0  0  0
    0.8612    0.0181   -6.5094 H   0  0  0  0  0  0  0  0  0  0  0  0
   -0.1157    1.3220   -6.0948 H   0  0  0  0  0  0  0  0  0  0  0  0
   -0.7684    2.3666    1.3701 C   0  0  0  0  0  0  0  0  0  0  0  0
    0.0479    3.2780    1.3339 O   0  0  0  0  0  0  0  0  0  0  0  0
   -1.7501    2.3914    2.3443 N   0  0  0  0  0  0  0  0  0  0  0  0
   -2.3116    1.5491    2.4289 H   0  0  0  0  0  0  0  0  0  0  0  0
   -1.7829    3.3719    3.4223 C   0  0  0  0  0  0  0  0  0  0  0  0
   -1.8415    4.3868    3.0153 H   0  0  0  0  0  0  0  0  0  0  0  0
   -2.6575    3.2051    4.0582 H   0  0  0  0  0  0  0  0  0  0  0  0
   -0.8826    3.2915    4.0403 H   0  0  0  0  0  0  0  0  0  0  0  0
  1  2  1  0  0  0  0
  2  3  1  0  0  0  0
  2  4  1  0  0  0  0
  2  5  1  0  0  0  0
  5  6  2  0  0  0  0
  5  7  1  0  0  0  0
  7  8  1  0  0  0  0
  7  9  1  0  0  0  0
  9 10  1  0  0  0  0
  9 11  1  0  0  0  0
  9 26  1  0  0  0  0
 11 12  1  0  0  0  0
 11 13  1  0  0  0  0
 11 14  1  0  0  0  0
 14 15  1  0  0  0  0
 14 16  1  0  0  0  0
 14 17  1  0  0  0  0
 17 18  1  0  0  0  0
 17 19  1  0  0  0  0
 17 20  1  0  0  0  0
 20 21  1  0  0  0  0
 20 22  1  0  0  0  0
 20 23  1  0  0  0  0
 23 24  1  0  0  0  0
 23 25  1  0  0  0  0
 26 27  2  0  0  0  0
 26 28  1  0  0  0  0
 28 29  1  0  0  0  0
 28 30  1  0  0  0  0
 30 31  1  0  0  0  0
 30 32  1  0  0  0  0
 30 33  1  0  0  0  0
M  END
$$$$

  -OEChem-01062216083D

 33 32  0     1  0  0  0  0  0999 V2000
   -3.4715   -2.4840    0.9661 H   0  0  0  0  0  0  0  0  0  0  0  0
   -3.5081   -1.4875    0.5170 C   0  0  0  0  0  0  0  0  0  0  0  0
   -4.3486   -0.9379    0.9479 H   0  0  0  0  0  0  0  0  0  0  0  0
   -3.6638   -1.5941   -0.5593 H   0  0  0  0  0  0  0  0  0  0  0  0
   -2.2112   -0.7474    0.7839 C   0  0  0  0  0  0  0  0  0  0  0  0
   -1.3607   -1.2443    1.5021 O   0  0  0  0  0  0  0  0  0  0  0  0
   -2.0231    0.5191    0.2706 N   0  0  0  0  0  0  0  0  0  0  0  0
   -2.7638    0.8926   -0.3163 H   0  0  0  0  0  0  0  0  0  0  0  0
   -0.7411    1.2502    0.3069 C   0  0  1  0  0  0  0  0  0  0  0  0
    0.0782    0.5763    0.5793 H   0  0  0  0  0  0  0  0  0  0  0  0
   -0.4593    1.7940   -1.1090 C   0  0  0  0  0  0  0  0  0  0  0  0
   -1.3102    2.3917   -1.4518 H   0  0  0  0  0  0  0  0  0  0  0  0
    0.4151    2.4537   -1.0773 H   0  0  0  0  0  0  0  0  0  0  0  0
   -0.1680    0.6624   -2.1067 C   0  0  0  0  0  0  0  0  0  0  0  0
    0.6907    0.0789   -1.7578 H   0  0  0  0  0  0  0  0  0  0  0  0
   -1.0287   -0.0106   -2.1706 H   0  0  0  0  0  0  0  0  0  0  0  0
    0.1319    1.2350   -3.4964 C   0  0  0  0  0  0  0  0  0  0  0  0
   -0.7189    1.8337   -3.8373 H   0  0  0  0  0  0  0  0  0  0  0  0
    1.0074    1.8909   -3.4442 H   0  0  0  0  0  0  0  0  0  0  0  0
    0.3986    0.1161   -4.4996 C   0  0  0  0  0  0  0  0  0  0  0  0
    1.2658   -0.4738   -4.1820 H   0  0  0  0  0  0  0  0  0  0  0  0
   -0.4667   -0.5535   -4.5547 H   0  0  0  0  0  0  0  0  0  0  0  0
    0.6554    0.7153   -5.8126 N   0  0  0  0  0  0  0  0  0  0  0  0
    0.8481    0.0013   -6.5153 H   0  0  0  0  0  0  0  0  0  0  0  0
   -0.1182    1.3135   -6.1022 H   0  0  0  0  0  0  0  0  0  0  0  0
   -0.7591    2.3669    1.3790 C   0  0  0  0  0  0  0  0  0  0  0  0
   -0.1457    3.4155    1.2265 O   0  0  0  0  0  0  0  0  0  0  0  0
   -1.5329    2.2065    2.5141 N   0  0  0  0  0  0  0  0  0  0  0  0
   -1.9095    1.2740    2.6667 H   0  0  0  0  0  0  0  0  0  0  0  0
   -1.5571    3.1658    3.6110 C   0  0  0  0  0  0  0  0  0  0  0  0
   -1.8818    4.1487    3.2535 H   0  0  0  0  0  0  0  0  0  0  0  0
   -2.2537    2.8348    4.3871 H   0  0  0  0  0  0  0  0  0  0  0  0
   -0.5614    3.2638    4.0559 H   0  0  0  0  0  0  0  0  0  0  0  0
  1  2  1  0  0  0  0
  2  3  1  0  0  0  0
  2  4  1  0  0  0  0
  2  5  1  0  0  0  0
  5  6  2  0  0  0  0
  5  7  1  0  0  0  0
  7  8  1  0  0  0  0
  7  9  1  0  0  0  0
  9 10  1  0  0  0  0
  9 11  1  0  0  0  0
  9 26  1  0  0  0  0
 11 12  1  0  0  0  0
 11 13  1  0  0  0  0
 11 14  1  0  0  0  0
 14 15  1  0  0  0  0
 14 16  1  0  0  0  0
 14 17  1  0  0  0  0
 17 18  1  0  0  0  0
 17 19  1  0  0  0  0
 17 20  1  0  0  0  0
 20 21  1  0  0  0  0
 20 22  1  0  0  0  0
 20 23  1  0  0  0  0
 23 24  1  0  0  0  0
 23 25  1  0  0  0  0
 26 27  2  0  0  0  0
 26 28  1  0  0  0  0
 28 29  1  0  0  0  0
 28 30  1  0  0  0  0
 30 31  1  0  0  0  0
 30 32  1  0  0  0  0
 30 33  1  0  0  0  0
M  END
$$$$

  -OEChem-01062216083D

 33 32  0     1  0  0  0  0  0999 V2000
   -3.4749   -2.4578    0.9947 H   0  0  0  0  0  0  0  0  0  0  0  0
   -3.5073   -1.4630    0.5415 C   0  0  0  0  0  0  0  0  0  0  0  0
   -4.3411   -0.9056    0.9750 H   0  0  0  0  0  0  0  0  0  0  0  0
   -3.6697   -1.5722   -0.5333 H   0  0  0  0  0  0  0  0  0  0  0  0
   -2.2041   -0.7302    0.7969 C   0  0  0  0  0  0  0  0  0  0  0  0
   -1.3528   -1.2252    1.5169 O   0  0  0  0  0  0  0  0  0  0  0  0
   -2.0120    0.5337    0.2800 N   0  0  0  0  0  0  0  0  0  0  0  0
   -2.7595    0.9171   -0.2919 H   0  0  0  0  0  0  0  0  0  0  0  0
   -0.7247    1.2534    0.3042 C   0  0  1  0  0  0  0  0  0  0  0  0
    0.0928    0.5755    0.5727 H   0  0  0  0  0  0  0  0  0  0  0  0
   -0.4416    1.7961   -1.1113 C   0  0  0  0  0  0  0  0  0  0  0  0
   -1.2882    2.4014   -1.4515 H   0  0  0  0  0  0  0  0  0  0  0  0
    0.4380    2.4486   -1.0787 H   0  0  0  0  0  0  0  0  0  0  0  0
   -0.1645    0.6626   -2.1103 C   0  0  0  0  0  0  0  0  0  0  0  0
    0.6882    0.0690   -1.7640 H   0  0  0  0  0  0  0  0  0  0  0  0
   -1.0331   -0.0004   -2.1725 H   0  0  0  0  0  0  0  0  0  0  0  0
    0.1375    1.2342   -3.5000 C   0  0  0  0  0  0  0  0  0  0  0  0
   -0.7081    1.8421   -3.8378 H   0  0  0  0  0  0  0  0  0  0  0  0
    1.0198    1.8809   -3.4488 H   0  0  0  0  0  0  0  0  0  0  0  0
    0.3906    0.1145   -4.5058 C   0  0  0  0  0  0  0  0  0  0  0  0
    1.2526   -0.4844   -4.1913 H   0  0  0  0  0  0  0  0  0  0  0  0
   -0.4814   -0.5464   -4.5600 H   0  0  0  0  0  0  0  0  0  0  0  0
    0.6500    0.7128   -5.8187 N   0  0  0  0  0  0  0  0  0  0  0  0
    0.8360   -0.0020   -6.5223 H   0  0  0  0  0  0  0  0  0  0  0  0
   -0.1188    1.3178   -6.1067 H   0  0  0  0  0  0  0  0  0  0  0  0
   -0.7437    2.3644    1.3797 C   0  0  0  0  0  0  0  0  0  0  0  0
   -0.3688    3.5063    1.1445 O   0  0  0  0  0  0  0  0  0  0  0  0
   -1.2537    2.0683    2.6301 N   0  0  0  0  0  0  0  0  0  0  0  0
   -1.4644    1.0881    2.8099 H   0  0  0  0  0  0  0  0  0  0  0  0
   -1.2782    3.0163    3.7363 C   0  0  0  0  0  0  0  0  0  0  0  0
   -1.8562    3.9060    3.4655 H   0  0  0  0  0  0  0  0  0  0  0  0
   -1.7420    2.5588    4.6153 H   0  0  0  0  0  0  0  0  0  0  0  0
   -0.2607    3.3230    4.0001 H   0  0  0  0  0  0  0  0  0  0  0  0
  1  2  1  0  0  0  0
  2  3  1  0  0  0  0
  2  4  1  0  0  0  0
  2  5  1  0  0  0  0
  5  6  2  0  0  0  0
  5  7  1  0  0  0  0
  7  8  1  0  0  0  0
  7  9  1  0  0  0  0
  9 10  1  0  0  0  0
  9 11  1  0  0  0  0
  9 26  1  0  0  0  0
 11 12  1  0  0  0  0
 11 13  1  0  0  0  0
 11 14  1  0  0  0  0
 14 15  1  0  0  0  0
 14 16  1  0  0  0  0
 14 17  1  0  0  0  0
 17 18  1  0  0  0  0
 17 19  1  0  0  0  0
 17 20  1  0  0  0  0
 20 21  1  0  0  0  0
 20 22  1  0  0  0  0
 20 23  1  0  0  0  0
 23 24  1  0  0  0  0
 23 25  1  0  0  0  0
 26 27  2  0  0  0  0
 26 28  1  0  0  0  0
 28 29  1  0  0  0  0
 28 30  1  0  0  0  0
 30 31  1  0  0  0  0
 30 32  1  0  0  0  0
 30 33  1  0  0  0  0
M  END
$$$$

  -OEChem-01062216083D

 33 32  0     1  0  0  0  0  0999 V2000
   -3.4790   -2.4345    1.0429 H   0  0  0  0  0  0  0  0  0  0  0  0
   -3.5127   -1.4354    0.5993 C   0  0  0  0  0  0  0  0  0  0  0  0
   -4.3193   -0.8679    1.0698 H   0  0  0  0  0  0  0  0  0  0  0  0
   -3.7195   -1.5327   -0.4692 H   0  0  0  0  0  0  0  0  0  0  0  0
   -2.1890   -0.7252    0.8098 C   0  0  0  0  0  0  0  0  0  0  0  0
   -1.3232   -1.2343    1.5033 O   0  0  0  0  0  0  0  0  0  0  0  0
   -1.9904    0.5341    0.2838 N   0  0  0  0  0  0  0  0  0  0  0  0
   -2.7504    0.9398   -0.2553 H   0  0  0  0  0  0  0  0  0  0  0  0
   -0.6989    1.2423    0.2993 C   0  0  1  0  0  0  0  0  0  0  0  0
    0.1176    0.5626    0.5656 H   0  0  0  0  0  0  0  0  0  0  0  0
   -0.4162    1.7849   -1.1152 C   0  0  0  0  0  0  0  0  0  0  0  0
   -1.2599    2.3969   -1.4514 H   0  0  0  0  0  0  0  0  0  0  0  0
    0.4674    2.4321   -1.0806 H   0  0  0  0  0  0  0  0  0  0  0  0
   -0.1525    0.6535   -2.1195 C   0  0  0  0  0  0  0  0  0  0  0  0
    0.6975    0.0519   -1.7800 H   0  0  0  0  0  0  0  0  0  0  0  0
   -1.0266   -0.0024   -2.1810 H   0  0  0  0  0  0  0  0  0  0  0  0
    0.1486    1.2316   -3.5063 C   0  0  0  0  0  0  0  0  0  0  0  0
   -0.6934    1.8484   -3.8365 H   0  0  0  0  0  0  0  0  0  0  0  0
    1.0357    1.8715   -3.4545 H   0  0  0  0  0  0  0  0  0  0  0  0
    0.3891    0.1181   -4.5212 C   0  0  0  0  0  0  0  0  0  0  0  0
    1.2475   -0.4903   -4.2144 H   0  0  0  0  0  0  0  0  0  0  0  0
   -0.4884   -0.5355   -4.5777 H   0  0  0  0  0  0  0  0  0  0  0  0
    0.6477    0.7281   -5.8289 N   0  0  0  0  0  0  0  0  0  0  0  0
    0.8099    0.0191   -6.5441 H   0  0  0  0  0  0  0  0  0  0  0  0
   -0.1107    1.3539   -6.1001 H   0  0  0  0  0  0  0  0  0  0  0  0
   -0.7201    2.3540    1.3705 C   0  0  0  0  0  0  0  0  0  0  0  0
   -0.5972    3.5393    1.0872 O   0  0  0  0  0  0  0  0  0  0  0  0
   -0.9338    1.9903    2.6864 N   0  0  0  0  0  0  0  0  0  0  0  0
   -1.0238    0.9931    2.8769 H   0  0  0  0  0  0  0  0  0  0  0  0
   -0.9816    2.9380    3.7917 C   0  0  0  0  0  0  0  0  0  0  0  0
   -1.7834    3.6675    3.6363 H   0  0  0  0  0  0  0  0  0  0  0  0
   -1.1704    2.4120    4.7325 H   0  0  0  0  0  0  0  0  0  0  0  0
   -0.0297    3.4725    3.8783 H   0  0  0  0  0  0  0  0  0  0  0  0
  1  2  1  0  0  0  0
  2  3  1  0  0  0  0
  2  4  1  0  0  0  0
  2  5  1  0  0  0  0
  5  6  2  0  0  0  0
  5  7  1  0  0  0  0
  7  8  1  0  0  0  0
  7  9  1  0  0  0  0
  9 10  1  0  0  0  0
  9 11  1  0  0  0  0
  9 26  1  0  0  0  0
 11 12  1  0  0  0  0
 11 13  1  0  0  0  0
 11 14  1  0  0  0  0
 14 15  1  0  0  0  0
 14 16  1  0  0  0  0
 14 17  1  0  0  0  0
 17 18  1  0  0  0  0
 17 19  1  0  0  0  0
 17 20  1  0  0  0  0
 20 21  1  0  0  0  0
 20 22  1  0  0  0  0
 20 23  1  0  0  0  0
 23 24  1  0  0  0  0
 23 25  1  0  0  0  0
 26 27  2  0  0  0  0
 26 28  1  0  0  0  0
 28 29  1  0  0  0  0
 28 30  1  0  0  0  0
 30 31  1  0  0  0  0
 30 32  1  0  0  0  0
 30 33  1  0  0  0  0
M  END
$$$$

  -OEChem-01062216083D

 33 32  0     1  0  0  0  0  0999 V2000
   -3.4923   -2.4054    1.1106 H   0  0  0  0  0  0  0  0  0  0  0  0
   -3.5208   -1.4091    0.6604 C   0  0  0  0  0  0  0  0  0  0  0  0
   -4.2904   -0.8173    1.1619 H   0  0  0  0  0  0  0  0  0  0  0  0
   -3.7780   -1.5090   -0.3968 H   0  0  0  0  0  0  0  0  0  0  0  0
   -2.1711   -0.7320    0.8051 C   0  0  0  0  0  0  0  0  0  0  0  0
   -1.2785   -1.2736    1.4381 O   0  0  0  0  0  0  0  0  0  0  0  0
   -1.9716    0.5262    0.2768 N   0  0  0  0  0  0  0  0  0  0  0  0
   -2.7566    0.9696   -0.1925 H   0  0  0  0  0  0  0  0  0  0  0  0
   -0.6805    1.2319    0.2895 C   0  0  1  0  0  0  0  0  0  0  0  0
    0.1378    0.5518    0.5494 H   0  0  0  0  0  0  0  0  0  0  0  0
   -0.4001    1.7813   -1.1221 C   0  0  0  0  0  0  0  0  0  0  0  0
   -1.2452    2.3936   -1.4550 H   0  0  0  0  0  0  0  0  0  0  0  0
    0.4819    2.4300   -1.0837 H   0  0  0  0  0  0  0  0  0  0  0  0
   -0.1407    0.6532   -2.1317 C   0  0  0  0  0  0  0  0  0  0  0  0
    0.7082    0.0480   -1.7960 H   0  0  0  0  0  0  0  0  0  0  0  0
   -1.0166   -0.0004   -2.1938 H   0  0  0  0  0  0  0  0  0  0  0  0
    0.1587    1.2348   -3.5173 C   0  0  0  0  0  0  0  0  0  0  0  0
   -0.6828    1.8544   -3.8438 H   0  0  0  0  0  0  0  0  0  0  0  0
    1.0473    1.8725   -3.4652 H   0  0  0  0  0  0  0  0  0  0  0  0
    0.3943    0.1233   -4.5355 C   0  0  0  0  0  0  0  0  0  0  0  0
    1.2518   -0.4880   -4.2330 H   0  0  0  0  0  0  0  0  0  0  0  0
   -0.4853   -0.5277   -4.5915 H   0  0  0  0  0  0  0  0  0  0  0  0
    0.6515    0.7356   -5.8424 N   0  0  0  0  0  0  0  0  0  0  0  0
    0.8106    0.0275   -6.5591 H   0  0  0  0  0  0  0  0  0  0  0  0
   -0.1069    1.3627   -6.1106 H   0  0  0  0  0  0  0  0  0  0  0  0
   -0.7024    2.3436    1.3585 C   0  0  0  0  0  0  0  0  0  0  0  0
   -0.8444    3.5244    1.0651 O   0  0  0  0  0  0  0  0  0  0  0  0
   -0.6002    1.9796    2.6875 N   0  0  0  0  0  0  0  0  0  0  0  0
   -0.5641    0.9814    2.8885 H   0  0  0  0  0  0  0  0  0  0  0  0
   -0.6660    2.9275    3.7922 C   0  0  0  0  0  0  0  0  0  0  0  0
   -1.6200    3.4647    3.7800 H   0  0  0  0  0  0  0  0  0  0  0  0
   -0.5771    2.4011    4.7474 H   0  0  0  0  0  0  0  0  0  0  0  0
    0.1497    3.6546    3.7216 H   0  0  0  0  0  0  0  0  0  0  0  0
  1  2  1  0  0  0  0
  2  3  1  0  0  0  0
  2  4  1  0  0  0  0
  2  5  1  0  0  0  0
  5  6  2  0  0  0  0
  5  7  1  0  0  0  0
  7  8  1  0  0  0  0
  7  9  1  0  0  0  0
  9 10  1  0  0  0  0
  9 11  1  0  0  0  0
  9 26  1  0  0  0  0
 11 12  1  0  0  0  0
 11 13  1  0  0  0  0
 11 14  1  0  0  0  0
 14 15  1  0  0  0  0
 14 16  1  0  0  0  0
 14 17  1  0  0  0  0
 17 18  1  0  0  0  0
 17 19  1  0  0  0  0
 17 20  1  0  0  0  0
 20 21  1  0  0  0  0
 20 22  1  0  0  0  0
 20 23  1  0  0  0  0
 23 24  1  0  0  0  0
 23 25  1  0  0  0  0
 26 27  2  0  0  0  0
 26 28  1  0  0  0  0
 28 29  1  0  0  0  0
 28 30  1  0  0  0  0
 30 31  1  0  0  0  0
 30 32  1  0  0  0  0
 30 33  1  0  0  0  0
M  END
$$$$

  -OEChem-01062216083D

 33 32  0     1  0  0  0  0  0999 V2000
   -3.5125   -2.3853    1.1704 H   0  0  0  0  0  0  0  0  0  0  0  0
   -3.5357   -1.3922    0.7128 C   0  0  0  0  0  0  0  0  0  0  0  0
   -4.2679   -0.7774    1.2420 H   0  0  0  0  0  0  0  0  0  0  0  0
   -3.8409   -1.4934   -0.3316 H   0  0  0  0  0  0  0  0  0  0  0  0
   -2.1643   -0.7490    0.7921 C   0  0  0  0  0  0  0  0  0  0  0  0
   -1.2478   -1.3291    1.3532 O   0  0  0  0  0  0  0  0  0  0  0  0
   -1.9638    0.5091    0.2634 N   0  0  0  0  0  0  0  0  0  0  0  0
   -2.7725    0.9963   -0.1141 H   0  0  0  0  0  0  0  0  0  0  0  0
   -0.6749    1.2171    0.2790 C   0  0  1  0  0  0  0  0  0  0  0  0
    0.1444    0.5371    0.5356 H   0  0  0  0  0  0  0  0  0  0  0  0
   -0.3944    1.7749   -1.1283 C   0  0  0  0  0  0  0  0  0  0  0  0
   -1.2412    2.3855   -1.4598 H   0  0  0  0  0  0  0  0  0  0  0  0
    0.4848    2.4268   -1.0847 H   0  0  0  0  0  0  0  0  0  0  0  0
   -0.1321    0.6524   -2.1427 C   0  0  0  0  0  0  0  0  0  0  0  0
    0.7176    0.0470   -1.8091 H   0  0  0  0  0  0  0  0  0  0  0  0
   -1.0068   -0.0026   -2.2082 H   0  0  0  0  0  0  0  0  0  0  0  0
    0.1677    1.2398   -3.5256 C   0  0  0  0  0  0  0  0  0  0  0  0
   -0.6745    1.8591   -3.8509 H   0  0  0  0  0  0  0  0  0  0  0  0
    1.0555    1.8783   -3.4706 H   0  0  0  0  0  0  0  0  0  0  0  0
    0.4059    0.1316   -4.5470 C   0  0  0  0  0  0  0  0  0  0  0  0
    1.2643   -0.4791   -4.2453 H   0  0  0  0  0  0  0  0  0  0  0  0
   -0.4723   -0.5210   -4.6053 H   0  0  0  0  0  0  0  0  0  0  0  0
    0.6634    0.7478   -5.8518 N   0  0  0  0  0  0  0  0  0  0  0  0
    0.8272    0.0414   -6.5692 H   0  0  0  0  0  0  0  0  0  0  0  0
   -0.0984    1.3705   -6.1204 H   0  0  0  0  0  0  0  0  0  0  0  0
   -0.6965    2.3319    1.3435 C   0  0  0  0  0  0  0  0  0  0  0  0
   -1.1024    3.4572    1.0793 O   0  0  0  0  0  0  0  0  0  0  0  0
   -0.2886    2.0381    2.6305 N   0  0  0  0  0  0  0  0  0  0  0  0
   -0.0769    1.0634    2.8342 H   0  0  0  0  0  0  0  0  0  0  0  0
   -0.3449    2.9950    3.7280 C   0  0  0  0  0  0  0  0  0  0  0  0
   -1.3731    3.3369    3.8864 H   0  0  0  0  0  0  0  0  0  0  0  0
    0.0125    2.5312    4.6523 H   0  0  0  0  0  0  0  0  0  0  0  0
    0.2861    3.8633    3.5109 H   0  0  0  0  0  0  0  0  0  0  0  0
  1  2  1  0  0  0  0
  2  3  1  0  0  0  0
  2  4  1  0  0  0  0
  2  5  1  0  0  0  0
  5  6  2  0  0  0  0
  5  7  1  0  0  0  0
  7  8  1  0  0  0  0
  7  9  1  0  0  0  0
  9 10  1  0  0  0  0
  9 11  1  0  0  0  0
  9 26  1  0  0  0  0
 11 12  1  0  0  0  0
 11 13  1  0  0  0  0
 11 14  1  0  0  0  0
 14 15  1  0  0  0  0
 14 16  1  0  0  0  0
 14 17  1  0  0  0  0
 17 18  1  0  0  0  0
 17 19  1  0  0  0  0
 17 20  1  0  0  0  0
 20 21  1  0  0  0  0
 20 22  1  0  0  0  0
 20 23  1  0  0  0  0
 23 24  1  0  0  0  0
 23 25  1  0  0  0  0
 26 27  2  0  0  0  0
 26 28  1  0  0  0  0
 28 29  1  0  0  0  0
 28 30  1  0  0  0  0
 30 31  1  0  0  0  0
 30 32  1  0  0  0  0
 30 33  1  0  0  0  0
M  END
$$$$

  -OEChem-01062216083D

 33 32  0     1  0  0  0  0  0999 V2000
   -3.5408   -2.3552    1.2525 H   0  0  0  0  0  0  0  0  0  0  0  0
   -3.5561   -1.3660    0.7864 C   0  0  0  0  0  0  0  0  0  0  0  0
   -4.2367   -0.7222    1.3487 H   0  0  0  0  0  0  0  0  0  0  0  0
   -3.9218   -1.4654   -0.2384 H   0  0  0  0  0  0  0  0  0  0  0  0
   -2.1621   -0.7681    0.7821 C   0  0  0  0  0  0  0  0  0  0  0  0
   -1.2306   -1.3863    1.2734 O   0  0  0  0  0  0  0  0  0  0  0  0
   -1.9569    0.4859    0.2455 N   0  0  0  0  0  0  0  0  0  0  0  0
   -2.7798    1.0150   -0.0328 H   0  0  0  0  0  0  0  0  0  0  0  0
   -0.6679    1.1922    0.2647 C   0  0  1  0  0  0  0  0  0  0  0  0
    0.1493    0.5112    0.5242 H   0  0  0  0  0  0  0  0  0  0  0  0
   -0.3836    1.7572   -1.1375 C   0  0  0  0  0  0  0  0  0  0  0  0
   -1.2304    2.3691   -1.4667 H   0  0  0  0  0  0  0  0  0  0  0  0
    0.4953    2.4088   -1.0879 H   0  0  0  0  0  0  0  0  0  0  0  0
   -0.1207    0.6416   -2.1589 C   0  0  0  0  0  0  0  0  0  0  0  0
    0.7269    0.0322   -1.8275 H   0  0  0  0  0  0  0  0  0  0  0  0
   -0.9972   -0.0106   -2.2312 H   0  0  0  0  0  0  0  0  0  0  0  0
    0.1827    1.2408   -3.5361 C   0  0  0  0  0  0  0  0  0  0  0  0
   -0.6586    1.8635   -3.8569 H   0  0  0  0  0  0  0  0  0  0  0  0
    1.0703    1.8788   -3.4732 H   0  0  0  0  0  0  0  0  0  0  0  0
    0.4223    0.1430   -4.5682 C   0  0  0  0  0  0  0  0  0  0  0  0
    1.2791   -0.4721   -4.2711 H   0  0  0  0  0  0  0  0  0  0  0  0
   -0.4565   -0.5079   -4.6359 H   0  0  0  0  0  0  0  0  0  0  0  0
    0.6830    0.7740   -5.8655 N   0  0  0  0  0  0  0  0  0  0  0  0
    0.8464    0.0761   -6.5912 H   0  0  0  0  0  0  0  0  0  0  0  0
   -0.0771    1.4015   -6.1278 H   0  0  0  0  0  0  0  0  0  0  0  0
   -0.6925    2.3156    1.3191 C   0  0  0  0  0  0  0  0  0  0  0  0
   -1.3457    3.3345    1.1276 O   0  0  0  0  0  0  0  0  0  0  0  0
   -0.0178    2.1520    2.5141 N   0  0  0  0  0  0  0  0  0  0  0  0
    0.3972    1.2400    2.6892 H   0  0  0  0  0  0  0  0  0  0  0  0
   -0.0712    3.1222    3.6002 C   0  0  0  0  0  0  0  0  0  0  0  0
   -1.1004    3.2463    3.9527 H   0  0  0  0  0  0  0  0  0  0  0  0
    0.5446    2.7843    4.4392 H   0  0  0  0  0  0  0  0  0  0  0  0
    0.3065    4.0937    3.2647 H   0  0  0  0  0  0  0  0  0  0  0  0
  1  2  1  0  0  0  0
  2  3  1  0  0  0  0
  2  4  1  0  0  0  0
  2  5  1  0  0  0  0
  5  6  2  0  0  0  0
  5  7  1  0  0  0  0
  7  8  1  0  0  0  0
  7  9  1  0  0  0  0
  9 10  1  0  0  0  0
  9 11  1  0  0  0  0
  9 26  1  0  0  0  0
 11 12  1  0  0  0  0
 11 13  1  0  0  0  0
 11 14  1  0  0  0  0
 14 15  1  0  0  0  0
 14 16  1  0  0  0  0
 14 17  1  0  0  0  0
 17 18  1  0  0  0  0
 17 19  1  0  0  0  0
 17 20  1  0  0  0  0
 20 21  1  0  0  0  0
 20 22  1  0  0  0  0
 20 23  1  0  0  0  0
 23 24  1  0  0  0  0
 23 25  1  0  0  0  0
 26 27  2  0  0  0  0
 26 28  1  0  0  0  0
 28 29  1  0  0  0  0
 28 30  1  0  0  0  0
 30 31  1  0  0  0  0
 30 32  1  0  0  0  0
 30 33  1  0  0  0  0
M  END
$$$$

  -OEChem-01062216083D

 33 32  0     1  0  0  0  0  0999 V2000
   -3.5566   -2.3306    1.3303 H   0  0  0  0  0  0  0  0  0  0  0  0
   -3.5711   -1.3458    0.8549 C   0  0  0  0  0  0  0  0  0  0  0  0
   -4.2028   -0.6787    1.4468 H   0  0  0  0  0  0  0  0  0  0  0  0
   -3.9950   -1.4447   -0.1472 H   0  0  0  0  0  0  0  0  0  0  0  0
   -2.1641   -0.7856    0.7677 C   0  0  0  0  0  0  0  0  0  0  0  0
   -1.2212   -1.4350    1.1925 O   0  0  0  0  0  0  0  0  0  0  0  0
   -1.9617    0.4665    0.2253 N   0  0  0  0  0  0  0  0  0  0  0  0
   -2.7918    1.0243    0.0381 H   0  0  0  0  0  0  0  0  0  0  0  0
   -0.6739    1.1753    0.2490 C   0  0  1  0  0  0  0  0  0  0  0  0
    0.1419    0.4950    0.5142 H   0  0  0  0  0  0  0  0  0  0  0  0
   -0.3834    1.7480   -1.1480 C   0  0  0  0  0  0  0  0  0  0  0  0
   -1.2300    2.3603   -1.4773 H   0  0  0  0  0  0  0  0  0  0  0  0
    0.4947    2.4005   -1.0918 H   0  0  0  0  0  0  0  0  0  0  0  0
   -0.1144    0.6382   -2.1739 C   0  0  0  0  0  0  0  0  0  0  0  0
    0.7319    0.0275   -1.8417 H   0  0  0  0  0  0  0  0  0  0  0  0
   -0.9899   -0.0143   -2.2536 H   0  0  0  0  0  0  0  0  0  0  0  0
    0.1953    1.2454   -3.5461 C   0  0  0  0  0  0  0  0  0  0  0  0
   -0.6453    1.8685   -3.8681 H   0  0  0  0  0  0  0  0  0  0  0  0
    1.0818    1.8842   -3.4758 H   0  0  0  0  0  0  0  0  0  0  0  0
    0.4411    0.1534   -4.5826 C   0  0  0  0  0  0  0  0  0  0  0  0
    1.2971   -0.4622   -4.2841 H   0  0  0  0  0  0  0  0  0  0  0  0
   -0.4369   -0.4978   -4.6580 H   0  0  0  0  0  0  0  0  0  0  0  0
    0.7080    0.7912   -5.8755 N   0  0  0  0  0  0  0  0  0  0  0  0
    0.8802    0.0967   -6.6026 H   0  0  0  0  0  0  0  0  0  0  0  0
   -0.0536    1.4158   -6.1408 H   0  0  0  0  0  0  0  0  0  0  0  0
   -0.7054    2.3042    1.2969 C   0  0  0  0  0  0  0  0  0  0  0  0
   -1.5535    3.1858    1.2218 O   0  0  0  0  0  0  0  0  0  0  0  0
    0.1902    2.3051    2.3499 N   0  0  0  0  0  0  0  0  0  0  0  0
    0.7992    1.4964    2.4436 H   0  0  0  0  0  0  0  0  0  0  0  0
    0.1604    3.2924    3.4217 C   0  0  0  0  0  0  0  0  0  0  0  0
   -0.7948    3.2511    3.9555 H   0  0  0  0  0  0  0  0  0  0  0  0
    0.9655    3.0982    4.1366 H   0  0  0  0  0  0  0  0  0  0  0  0
    0.2945    4.3009    3.0167 H   0  0  0  0  0  0  0  0  0  0  0  0
  1  2  1  0  0  0  0
  2  3  1  0  0  0  0
  2  4  1  0  0  0  0
  2  5  1  0  0  0  0
  5  6  2  0  0  0  0
  5  7  1  0  0  0  0
  7  8  1  0  0  0  0
  7  9  1  0  0  0  0
  9 10  1  0  0  0  0
  9 11  1  0  0  0  0
  9 26  1  0  0  0  0
 11 12  1  0  0  0  0
 11 13  1  0  0  0  0
 11 14  1  0  0  0  0
 14 15  1  0  0  0  0
 14 16  1  0  0  0  0
 14 17  1  0  0  0  0
 17 18  1  0  0  0  0
 17 19  1  0  0  0  0
 17 20  1  0  0  0  0
 20 21  1  0  0  0  0
 20 22  1  0  0  0  0
 20 23  1  0  0  0  0
 23 24  1  0  0  0  0
 23 25  1  0  0  0  0
 26 27  2  0  0  0  0
 26 28  1  0  0  0  0
 28 29  1  0  0  0  0
 28 30  1  0  0  0  0
 30 31  1  0  0  0  0
 30 32  1  0  0  0  0
 30 33  1  0  0  0  0
M  END
$$$$

  -OEChem-01062216083D

 33 32  0     1  0  0  0  0  0999 V2000
   -3.5571   -2.3252    1.3632 H   0  0  0  0  0  0  0  0  0  0  0  0
   -3.5776   -1.3433    0.8820 C   0  0  0  0  0  0  0  0  0  0  0  0
   -4.1847   -0.6667    1.4884 H   0  0  0  0  0  0  0  0  0  0  0  0
   -4.0329   -1.4444   -0.1060 H   0  0  0  0  0  0  0  0  0  0  0  0
   -2.1687   -0.7967    0.7484 C   0  0  0  0  0  0  0  0  0  0  0  0
   -1.2182   -1.4654    1.1235 O   0  0  0  0  0  0  0  0  0  0  0  0
   -1.9730    0.4573    0.2077 N   0  0  0  0  0  0  0  0  0  0  0  0
   -2.8060    1.0303    0.0907 H   0  0  0  0  0  0  0  0  0  0  0  0
   -0.6876    1.1718    0.2411 C   0  0  1  0  0  0  0  0  0  0  0  0
    0.1275    0.4924    0.5110 H   0  0  0  0  0  0  0  0  0  0  0  0
   -0.3932    1.7509   -1.1518 C   0  0  0  0  0  0  0  0  0  0  0  0
   -1.2414    2.3603   -1.4824 H   0  0  0  0  0  0  0  0  0  0  0  0
    0.4819    2.4068   -1.0908 H   0  0  0  0  0  0  0  0  0  0  0  0
   -0.1151    0.6435   -2.1778 C   0  0  0  0  0  0  0  0  0  0  0  0
    0.7315    0.0354   -1.8418 H   0  0  0  0  0  0  0  0  0  0  0  0
   -0.9879   -0.0122   -2.2616 H   0  0  0  0  0  0  0  0  0  0  0  0
    0.1992    1.2505   -3.5490 C   0  0  0  0  0  0  0  0  0  0  0  0
   -0.6420    1.8703   -3.8760 H   0  0  0  0  0  0  0  0  0  0  0  0
    1.0833    1.8924   -3.4756 H   0  0  0  0  0  0  0  0  0  0  0  0
    0.4534    0.1571   -4.5821 C   0  0  0  0  0  0  0  0  0  0  0  0
    1.3102   -0.4546   -4.2782 H   0  0  0  0  0  0  0  0  0  0  0  0
   -0.4216   -0.4977   -4.6603 H   0  0  0  0  0  0  0  0  0  0  0  0
    0.7243    0.7922   -5.8753 N   0  0  0  0  0  0  0  0  0  0  0  0
    0.9100    0.0964   -6.5977 H   0  0  0  0  0  0  0  0  0  0  0  0
   -0.0423    1.4064   -6.1499 H   0  0  0  0  0  0  0  0  0  0  0  0
   -0.7220    2.3019    1.2881 C   0  0  0  0  0  0  0  0  0  0  0  0
   -1.7002    3.0376    1.3596 O   0  0  0  0  0  0  0  0  0  0  0  0
    0.3375    2.4878    2.1567 N   0  0  0  0  0  0  0  0  0  0  0  0
    1.0935    1.8092    2.1261 H   0  0  0  0  0  0  0  0  0  0  0  0
    0.3425    3.5022    3.2034 C   0  0  0  0  0  0  0  0  0  0  0  0
   -0.4882    3.3398    3.8981 H   0  0  0  0  0  0  0  0  0  0  0  0
    1.2790    3.4594    3.7673 H   0  0  0  0  0  0  0  0  0  0  0  0
    0.2476    4.5023    2.7675 H   0  0  0  0  0  0  0  0  0  0  0  0
  1  2  1  0  0  0  0
  2  3  1  0  0  0  0
  2  4  1  0  0  0  0
  2  5  1  0  0  0  0
  5  6  2  0  0  0  0
  5  7  1  0  0  0  0
  7  8  1  0  0  0  0
  7  9  1  0  0  0  0
  9 10  1  0  0  0  0
  9 11  1  0  0  0  0
  9 26  1  0  0  0  0
 11 12  1  0  0  0  0
 11 13  1  0  0  0  0
 11 14  1  0  0  0  0
 14 15  1  0  0  0  0
 14 16  1  0  0  0  0
 14 17  1  0  0  0  0
 17 18  1  0  0  0  0
 17 19  1  0  0  0  0
 17 20  1  0  0  0  0
 20 21  1  0  0  0  0
 20 22  1  0  0  0  0
 20 23  1  0  0  0  0
 23 24  1  0  0  0  0
 23 25  1  0  0  0  0
 26 27  2  0  0  0  0
 26 28  1  0  0  0  0
 28 29  1  0  0  0  0
 28 30  1  0  0  0  0
 30 31  1  0  0  0  0
 30 32  1  0  0  0  0
 30 33  1  0  0  0  0
M  END
$$$$

  -OEChem-01062216083D

 33 32  0     1  0  0  0  0  0999 V2000
   -3.5534   -2.3139    1.4061 H   0  0  0  0  0  0  0  0  0  0  0  0
   -3.5809   -1.3357    0.9179 C   0  0  0  0  0  0  0  0  0  0  0  0
   -4.1555   -0.6474    1.5425 H   0  0  0  0  0  0  0  0  0  0  0  0
   -4.0762   -1.4379   -0.0506 H   0  0  0  0  0  0  0  0  0  0  0  0
   -2.1720   -0.8073    0.7248 C   0  0  0  0  0  0  0  0  0  0  0  0
   -1.2152   -1.4948    1.0465 O   0  0  0  0  0  0  0  0  0  0  0  0
   -1.9852    0.4496    0.1870 N   0  0  0  0  0  0  0  0  0  0  0  0
   -2.8185    1.0323    0.1360 H   0  0  0  0  0  0  0  0  0  0  0  0
   -0.7018    1.1684    0.2325 C   0  0  1  0  0  0  0  0  0  0  0  0
    0.1136    0.4919    0.5090 H   0  0  0  0  0  0  0  0  0  0  0  0
   -0.4022    1.7517   -1.1572 C   0  0  0  0  0  0  0  0  0  0  0  0
   -1.2512    2.3582   -1.4910 H   0  0  0  0  0  0  0  0  0  0  0  0
    0.4699    2.4108   -1.0925 H   0  0  0  0  0  0  0  0  0  0  0  0
   -0.1148    0.6463   -2.1829 C   0  0  0  0  0  0  0  0  0  0  0  0
    0.7317    0.0397   -1.8434 H   0  0  0  0  0  0  0  0  0  0  0  0
   -0.9853   -0.0120   -2.2725 H   0  0  0  0  0  0  0  0  0  0  0  0
    0.2049    1.2554   -3.5521 C   0  0  0  0  0  0  0  0  0  0  0  0
   -0.6366    1.8725   -3.8834 H   0  0  0  0  0  0  0  0  0  0  0  0
    1.0868    1.8998   -3.4738 H   0  0  0  0  0  0  0  0  0  0  0  0
    0.4680    0.1619   -4.5830 C   0  0  0  0  0  0  0  0  0  0  0  0
    1.3243   -0.4477   -4.2734 H   0  0  0  0  0  0  0  0  0  0  0  0
   -0.4052   -0.4948   -4.6649 H   0  0  0  0  0  0  0  0  0  0  0  0
    0.7444    0.7958   -5.8755 N   0  0  0  0  0  0  0  0  0  0  0  0
    0.9386    0.0991   -6.5947 H   0  0  0  0  0  0  0  0  0  0  0  0
   -0.0240    1.4046   -6.1568 H   0  0  0  0  0  0  0  0  0  0  0  0
   -0.7427    2.2974    1.2821 C   0  0  0  0  0  0  0  0  0  0  0  0
   -1.7977    2.8756    1.5206 O   0  0  0  0  0  0  0  0  0  0  0  0
    0.4096    2.6836    1.9413 N   0  0  0  0  0  0  0  0  0  0  0  0
    1.2570    2.1535    1.7583 H   0  0  0  0  0  0  0  0  0  0  0  0
    0.4365    3.7298    2.9559 C   0  0  0  0  0  0  0  0  0  0  0  0
   -0.2192    3.4682    3.7931 H   0  0  0  0  0  0  0  0  0  0  0  0
    1.4531    3.8592    3.3398 H   0  0  0  0  0  0  0  0  0  0  0  0
    0.1037    4.6830    2.5315 H   0  0  0  0  0  0  0  0  0  0  0  0
  1  2  1  0  0  0  0
  2  3  1  0  0  0  0
  2  4  1  0  0  0  0
  2  5  1  0  0  0  0
  5  6  2  0  0  0  0
  5  7  1  0  0  0  0
  7  8  1  0  0  0  0
  7  9  1  0  0  0  0
  9 10  1  0  0  0  0
  9 11  1  0  0  0  0
  9 26  1  0  0  0  0
 11 12  1  0  0  0  0
 11 13  1  0  0  0  0
 11 14  1  0  0  0  0
 14 15  1  0  0  0  0
 14 16  1  0  0  0  0
 14 17  1  0  0  0  0
 17 18  1  0  0  0  0
 17 19  1  0  0  0  0
 17 20  1  0  0  0  0
 20 21  1  0  0  0  0
 20 22  1  0  0  0  0
 20 23  1  0  0  0  0
 23 24  1  0  0  0  0
 23 25  1  0  0  0  0
 26 27  2  0  0  0  0
 26 28  1  0  0  0  0
 28 29  1  0  0  0  0
 28 30  1  0  0  0  0
 30 31  1  0  0  0  0
 30 32  1  0  0  0  0
 30 33  1  0  0  0  0
M  END
$$$$

  -OEChem-01062216083D

 33 32  0     1  0  0  0  0  0999 V2000
   -3.5410   -2.3094    1.4241 H   0  0  0  0  0  0  0  0  0  0  0  0
   -3.5781   -1.3312    0.9363 C   0  0  0  0  0  0  0  0  0  0  0  0
   -4.1288   -0.6393    1.5784 H   0  0  0  0  0  0  0  0  0  0  0  0
   -4.1039   -1.4311   -0.0163 H   0  0  0  0  0  0  0  0  0  0  0  0
   -2.1730   -0.8106    0.7001 C   0  0  0  0  0  0  0  0  0  0  0  0
   -1.2116   -1.5124    0.9735 O   0  0  0  0  0  0  0  0  0  0  0  0
   -1.9958    0.4504    0.1686 N   0  0  0  0  0  0  0  0  0  0  0  0
   -2.8288    1.0355    0.1690 H   0  0  0  0  0  0  0  0  0  0  0  0
   -0.7138    1.1724    0.2272 C   0  0  1  0  0  0  0  0  0  0  0  0
    0.1018    0.4978    0.5076 H   0  0  0  0  0  0  0  0  0  0  0  0
   -0.4113    1.7557   -1.1631 C   0  0  0  0  0  0  0  0  0  0  0  0
   -1.2616    2.3581   -1.5004 H   0  0  0  0  0  0  0  0  0  0  0  0
    0.4586    2.4175   -1.0987 H   0  0  0  0  0  0  0  0  0  0  0  0
   -0.1159    0.6500   -2.1865 C   0  0  0  0  0  0  0  0  0  0  0  0
    0.7315    0.0472   -1.8427 H   0  0  0  0  0  0  0  0  0  0  0  0
   -0.9830   -0.0122   -2.2787 H   0  0  0  0  0  0  0  0  0  0  0  0
    0.2064    1.2567   -3.5558 C   0  0  0  0  0  0  0  0  0  0  0  0
   -0.6363    1.8693   -3.8922 H   0  0  0  0  0  0  0  0  0  0  0  0
    1.0856    1.9046   -3.4764 H   0  0  0  0  0  0  0  0  0  0  0  0
    0.4768    0.1605   -4.5821 C   0  0  0  0  0  0  0  0  0  0  0  0
    1.3340   -0.4452   -4.2673 H   0  0  0  0  0  0  0  0  0  0  0  0
   -0.3938   -0.4997   -4.6647 H   0  0  0  0  0  0  0  0  0  0  0  0
    0.7557    0.7902   -5.8763 N   0  0  0  0  0  0  0  0  0  0  0  0
    0.9562    0.0907   -6.5912 H   0  0  0  0  0  0  0  0  0  0  0  0
   -0.0144    1.3939   -6.1640 H   0  0  0  0  0  0  0  0  0  0  0  0
   -0.7576    2.2983    1.2832 C   0  0  0  0  0  0  0  0  0  0  0  0
   -1.8342    2.7143    1.6987 O   0  0  0  0  0  0  0  0  0  0  0  0
    0.4117    2.8924    1.7226 N   0  0  0  0  0  0  0  0  0  0  0  0
    1.2900    2.5106    1.3832 H   0  0  0  0  0  0  0  0  0  0  0  0
    0.4428    3.9663    2.7082 C   0  0  0  0  0  0  0  0  0  0  0  0
   -0.0025    3.6340    3.6518 H   0  0  0  0  0  0  0  0  0  0  0  0
    1.4754    4.2720    2.9020 H   0  0  0  0  0  0  0  0  0  0  0  0
   -0.1129    4.8367    2.3439 H   0  0  0  0  0  0  0  0  0  0  0  0
  1  2  1  0  0  0  0
  2  3  1  0  0  0  0
  2  4  1  0  0  0  0
  2  5  1  0  0  0  0
  5  6  2  0  0  0  0
  5  7  1  0  0  0  0
  7  8  1  0  0  0  0
  7  9  1  0  0  0  0
  9 10  1  0  0  0  0
  9 11  1  0  0  0  0
  9 26  1  0  0  0  0
 11 12  1  0  0  0  0
 11 13  1  0  0  0  0
 11 14  1  0  0  0  0
 14 15  1  0  0  0  0
 14 16  1  0  0  0  0
 14 17  1  0  0  0  0
 17 18  1  0  0  0  0
 17 19  1  0  0  0  0
 17 20  1  0  0  0  0
 20 21  1  0  0  0  0
 20 22  1  0  0  0  0
 20 23  1  0  0  0  0
 23 24  1  0  0  0  0
 23 25  1  0  0  0  0
 26 27  2  0  0  0  0
 26 28  1  0  0  0  0
 28 29  1  0  0  0  0
 28 30  1  0  0  0  0
 30 31  1  0  0  0  0
 30 32  1  0  0  0  0
 30 33  1  0  0  0  0
M  END
$$$$

  -OEChem-01062216083D

 33 32  0     1  0  0  0  0  0999 V2000
   -3.4609   -2.3185    1.4777 H   0  0  0  0  0  0  0  0  0  0  0  0
   -3.5329   -1.3379    0.9989 C   0  0  0  0  0  0  0  0  0  0  0  0
   -4.0380   -0.6504    1.6821 H   0  0  0  0  0  0  0  0  0  0  0  0
   -4.1230   -1.4330    0.0844 H   0  0  0  0  0  0  0  0  0  0  0  0
   -2.1479   -0.8137    0.6704 C   0  0  0  0  0  0  0  0  0  0  0  0
   -1.1686   -1.5162    0.8696 O   0  0  0  0  0  0  0  0  0  0  0  0
   -2.0088    0.4532    0.1397 N   0  0  0  0  0  0  0  0  0  0  0  0
   -2.8466    1.0252    0.2063 H   0  0  0  0  0  0  0  0  0  0  0  0
   -0.7308    1.1825    0.2089 C   0  0  1  0  0  0  0  0  0  0  0  0
    0.1134    0.4848    0.2184 H   0  0  0  0  0  0  0  0  0  0  0  0
   -0.6152    2.0680   -1.0456 C   0  0  0  0  0  0  0  0  0  0  0  0
   -1.5049    2.7013   -1.1300 H   0  0  0  0  0  0  0  0  0  0  0  0
    0.2525    2.7286   -0.9507 H   0  0  0  0  0  0  0  0  0  0  0  0
   -0.4491    1.2261   -2.3194 C   0  0  0  0  0  0  0  0  0  0  0  0
    0.4397    0.5925   -2.2284 H   0  0  0  0  0  0  0  0  0  0  0  0
   -1.3168    0.5709   -2.4478 H   0  0  0  0  0  0  0  0  0  0  0  0
   -0.3116    2.1311   -3.5484 C   0  0  0  0  0  0  0  0  0  0  0  0
   -1.1941    2.7738   -3.6306 H   0  0  0  0  0  0  0  0  0  0  0  0
    0.5669    2.7754   -3.4375 H   0  0  0  0  0  0  0  0  0  0  0  0
   -0.1706    1.2994   -4.8199 C   0  0  0  0  0  0  0  0  0  0  0  0
    0.7247    0.6706   -4.7596 H   0  0  0  0  0  0  0  0  0  0  0  0
   -1.0397    0.6429   -4.9385 H   0  0  0  0  0  0  0  0  0  0  0  0
   -0.0668    2.2099   -5.9639 N   0  0  0  0  0  0  0  0  0  0  0  0
    0.0466    1.6945   -6.8369 H   0  0  0  0  0  0  0  0  0  0  0  0
   -0.8735    2.8321   -6.0117 H   0  0  0  0  0  0  0  0  0  0  0  0
   -0.6334    2.0367    1.4959 C   0  0  0  0  0  0  0  0  0  0  0  0
   -1.5962    2.1397    2.2490 O   0  0  0  0  0  0  0  0  0  0  0  0
    0.4940    2.7974    1.7506 N   0  0  0  0  0  0  0  0  0  0  0  0
    1.2892    2.6805    1.1296 H   0  0  0  0  0  0  0  0  0  0  0  0
    0.6397    3.6425    2.9296 C   0  0  0  0  0  0  0  0  0  0  0  0
    0.5600    3.0426    3.8423 H   0  0  0  0  0  0  0  0  0  0  0  0
    1.6166    4.1354    2.9239 H   0  0  0  0  0  0  0  0  0  0  0  0
   -0.1366    4.4148    2.9460 H   0  0  0  0  0  0  0  0  0  0  0  0
  1  2  1  0  0  0  0
  2  3  1  0  0  0  0
  2  4  1  0  0  0  0
  2  5  1  0  0  0  0
  5  6  2  0  0  0  0
  5  7  1  0  0  0  0
  7  8  1  0  0  0  0
  7  9  1  0  0  0  0
  9 10  1  0  0  0  0
  9 11  1  0  0  0  0
  9 26  1  0  0  0  0
 11 12  1  0  0  0  0
 11 13  1  0  0  0  0
 11 14  1  0  0  0  0
 14 15  1  0  0  0  0
 14 16  1  0  0  0  0
 14 17  1  0  0  0  0
 17 18  1  0  0  0  0
 17 19  1  0  0  0  0
 17 20  1  0  0  0  0
 20 21  1  0  0  0  0
 20 22  1  0  0  0  0
 20 23  1  0  0  0  0
 23 24  1  0  0  0  0
 23 25  1  0  0  0  0
 26 27  2  0  0  0  0
 26 28  1  0  0  0  0
 28 29  1  0  0  0  0
 28 30  1  0  0  0  0
 30 31  1  0  0  0  0
 30 32  1  0  0  0  0
 30 33  1  0  0  0  0
M  END
$$$$

  -OEChem-01062216083D

 33 32  0     1  0  0  0  0  0999 V2000
   -3.4423   -2.3237    1.4456 H   0  0  0  0  0  0  0  0  0  0  0  0
   -3.5215   -1.3249    1.0075 C   0  0  0  0  0  0  0  0  0  0  0  0
   -3.9942   -0.6596    1.7345 H   0  0  0  0  0  0  0  0  0  0  0  0
   -4.1445   -1.3801    0.1118 H   0  0  0  0  0  0  0  0  0  0  0  0
   -2.1438   -0.8006    0.6502 C   0  0  0  0  0  0  0  0  0  0  0  0
   -1.1634   -1.5116    0.8109 O   0  0  0  0  0  0  0  0  0  0  0  0
   -2.0139    0.4715    0.1283 N   0  0  0  0  0  0  0  0  0  0  0  0
   -2.8527    1.0391    0.2118 H   0  0  0  0  0  0  0  0  0  0  0  0
   -0.7359    1.2012    0.2022 C   0  0  1  0  0  0  0  0  0  0  0  0
    0.1102    0.5058    0.2128 H   0  0  0  0  0  0  0  0  0  0  0  0
   -0.6210    2.0778   -1.0601 C   0  0  0  0  0  0  0  0  0  0  0  0
   -1.5115    2.7092   -1.1509 H   0  0  0  0  0  0  0  0  0  0  0  0
    0.2466    2.7390   -0.9764 H   0  0  0  0  0  0  0  0  0  0  0  0
   -0.4508    1.2249   -2.3256 C   0  0  0  0  0  0  0  0  0  0  0  0
    0.4401    0.5952   -2.2285 H   0  0  0  0  0  0  0  0  0  0  0  0
   -1.3162    0.5655   -2.4502 H   0  0  0  0  0  0  0  0  0  0  0  0
   -0.3140    2.1217   -3.5600 C   0  0  0  0  0  0  0  0  0  0  0  0
   -1.1984    2.7612   -3.6476 H   0  0  0  0  0  0  0  0  0  0  0  0
    0.5626    2.7689   -3.4522 H   0  0  0  0  0  0  0  0  0  0  0  0
   -0.1688    1.2825   -4.8256 C   0  0  0  0  0  0  0  0  0  0  0  0
    0.7275    0.6556   -4.7602 H   0  0  0  0  0  0  0  0  0  0  0  0
   -1.0366    0.6239   -4.9419 H   0  0  0  0  0  0  0  0  0  0  0  0
   -0.0658    2.1887   -5.9731 N   0  0  0  0  0  0  0  0  0  0  0  0
    0.0524    1.6703   -6.8436 H   0  0  0  0  0  0  0  0  0  0  0  0
   -0.8746    2.8077   -6.0253 H   0  0  0  0  0  0  0  0  0  0  0  0
   -0.6396    2.0447    1.4991 C   0  0  0  0  0  0  0  0  0  0  0  0
   -1.4947    1.9435    2.3723 O   0  0  0  0  0  0  0  0  0  0  0  0
    0.3200    3.0330    1.6341 N   0  0  0  0  0  0  0  0  0  0  0  0
    1.0312    3.0969    0.9120 H   0  0  0  0  0  0  0  0  0  0  0  0
    0.4400    3.8785    2.8157 C   0  0  0  0  0  0  0  0  0  0  0  0
    0.6151    3.2669    3.7072 H   0  0  0  0  0  0  0  0  0  0  0  0
    1.2788    4.5718    2.7010 H   0  0  0  0  0  0  0  0  0  0  0  0
   -0.4739    4.4635    2.9629 H   0  0  0  0  0  0  0  0  0  0  0  0
  1  2  1  0  0  0  0
  2  3  1  0  0  0  0
  2  4  1  0  0  0  0
  2  5  1  0  0  0  0
  5  6  2  0  0  0  0
  5  7  1  0  0  0  0
  7  8  1  0  0  0  0
  7  9  1  0  0  0  0
  9 10  1  0  0  0  0
  9 11  1  0  0  0  0
  9 26  1  0  0  0  0
 11 12  1  0  0  0  0
 11 13  1  0  0  0  0
 11 14  1  0  0  0  0
 14 15  1  0  0  0  0
 14 16  1  0  0  0  0
 14 17  1  0  0  0  0
 17 18  1  0  0  0  0
 17 19  1  0  0  0  0
 17 20  1  0  0  0  0
 20 21  1  0  0  0  0
 20 22  1  0  0  0  0
 20 23  1  0  0  0  0
 23 24  1  0  0  0  0
 23 25  1  0  0  0  0
 26 27  2  0  0  0  0
 26 28  1  0  0  0  0
 28 29  1  0  0  0  0
 28 30  1  0  0  0  0
 30 31  1  0  0  0  0
 30 32  1  0  0  0  0
 30 33  1  0  0  0  0
M  END
$$$$

  -OEChem-01062216083D

 33 32  0     1  0  0  0  0  0999 V2000
   -3.4273   -2.3096    1.4492 H   0  0  0  0  0  0  0  0  0  0  0  0
   -3.5141   -1.3140    1.0053 C   0  0  0  0  0  0  0  0  0  0  0  0
   -3.9838   -0.6467    1.7323 H   0  0  0  0  0  0  0  0  0  0  0  0
   -4.1441   -1.3770    0.1151 H   0  0  0  0  0  0  0  0  0  0  0  0
   -2.1408   -0.7870    0.6339 C   0  0  0  0  0  0  0  0  0  0  0  0
   -1.1614   -1.5066    0.7573 O   0  0  0  0  0  0  0  0  0  0  0  0
   -2.0169    0.4912    0.1240 N   0  0  0  0  0  0  0  0  0  0  0  0
   -2.8590    1.0529    0.2078 H   0  0  0  0  0  0  0  0  0  0  0  0
   -0.7394    1.2237    0.1966 C   0  0  1  0  0  0  0  0  0  0  0  0
    0.1070    0.5285    0.2055 H   0  0  0  0  0  0  0  0  0  0  0  0
   -0.6261    2.0924   -1.0732 C   0  0  0  0  0  0  0  0  0  0  0  0
   -1.5166    2.7229   -1.1694 H   0  0  0  0  0  0  0  0  0  0  0  0
    0.2436    2.7517   -0.9969 H   0  0  0  0  0  0  0  0  0  0  0  0
   -0.4530    1.2295   -2.3316 C   0  0  0  0  0  0  0  0  0  0  0  0
    0.4401    0.6040   -2.2278 H   0  0  0  0  0  0  0  0  0  0  0  0
   -1.3152    0.5650   -2.4508 H   0  0  0  0  0  0  0  0  0  0  0  0
   -0.3182    2.1153   -3.5745 C   0  0  0  0  0  0  0  0  0  0  0  0
   -1.2036    2.7523   -3.6692 H   0  0  0  0  0  0  0  0  0  0  0  0
    0.5570    2.7656   -3.4729 H   0  0  0  0  0  0  0  0  0  0  0  0
   -0.1702    1.2638   -4.8319 C   0  0  0  0  0  0  0  0  0  0  0  0
    0.7286    0.6411   -4.7590 H   0  0  0  0  0  0  0  0  0  0  0  0
   -1.0352    0.5999   -4.9417 H   0  0  0  0  0  0  0  0  0  0  0  0
   -0.0693    2.1573   -5.9898 N   0  0  0  0  0  0  0  0  0  0  0  0
    0.0633    1.6295   -6.8528 H   0  0  0  0  0  0  0  0  0  0  0  0
   -0.8867    2.7635   -6.0569 H   0  0  0  0  0  0  0  0  0  0  0  0
   -0.6391    2.0548    1.5039 C   0  0  0  0  0  0  0  0  0  0  0  0
   -1.3235    1.7606    2.4772 O   0  0  0  0  0  0  0  0  0  0  0  0
    0.0874    3.2326    1.5583 N   0  0  0  0  0  0  0  0  0  0  0  0
    0.6585    3.4691    0.7527 H   0  0  0  0  0  0  0  0  0  0  0  0
    0.1769    4.0671    2.7510 C   0  0  0  0  0  0  0  0  0  0  0  0
    0.5976    3.4974    3.5865 H   0  0  0  0  0  0  0  0  0  0  0  0
    0.8224    4.9300    2.5614 H   0  0  0  0  0  0  0  0  0  0  0  0
   -0.8142    4.4341    3.0380 H   0  0  0  0  0  0  0  0  0  0  0  0
  1  2  1  0  0  0  0
  2  3  1  0  0  0  0
  2  4  1  0  0  0  0
  2  5  1  0  0  0  0
  5  6  2  0  0  0  0
  5  7  1  0  0  0  0
  7  8  1  0  0  0  0
  7  9  1  0  0  0  0
  9 10  1  0  0  0  0
  9 11  1  0  0  0  0
  9 26  1  0  0  0  0
 11 12  1  0  0  0  0
 11 13  1  0  0  0  0
 11 14  1  0  0  0  0
 14 15  1  0  0  0  0
 14 16  1  0  0  0  0
 14 17  1  0  0  0  0
 17 18  1  0  0  0  0
 17 19  1  0  0  0  0
 17 20  1  0  0  0  0
 20 21  1  0  0  0  0
 20 22  1  0  0  0  0
 20 23  1  0  0  0  0
 23 24  1  0  0  0  0
 23 25  1  0  0  0  0
 26 27  2  0  0  0  0
 26 28  1  0  0  0  0
 28 29  1  0  0  0  0
 28 30  1  0  0  0  0
 30 31  1  0  0  0  0
 30 32  1  0  0  0  0
 30 33  1  0  0  0  0
M  END
$$$$

  -OEChem-01062216083D

 33 32  0     1  0  0  0  0  0999 V2000
   -3.4218   -2.3180    1.4265 H   0  0  0  0  0  0  0  0  0  0  0  0
   -3.5100   -1.3069    1.0195 C   0  0  0  0  0  0  0  0  0  0  0  0
   -3.9549   -0.6610    1.7807 H   0  0  0  0  0  0  0  0  0  0  0  0
   -4.1623   -1.3337    0.1436 H   0  0  0  0  0  0  0  0  0  0  0  0
   -2.1413   -0.7800    0.6325 C   0  0  0  0  0  0  0  0  0  0  0  0
   -1.1647   -1.5079    0.7221 O   0  0  0  0  0  0  0  0  0  0  0  0
   -2.0229    0.5005    0.1261 N   0  0  0  0  0  0  0  0  0  0  0  0
   -2.8671    1.0586    0.2082 H   0  0  0  0  0  0  0  0  0  0  0  0
   -0.7459    1.2343    0.1900 C   0  0  1  0  0  0  0  0  0  0  0  0
    0.1003    0.5389    0.2000 H   0  0  0  0  0  0  0  0  0  0  0  0
   -0.6269    2.0961   -1.0829 C   0  0  0  0  0  0  0  0  0  0  0  0
   -1.5136    2.7309   -1.1857 H   0  0  0  0  0  0  0  0  0  0  0  0
    0.2483    2.7482   -1.0052 H   0  0  0  0  0  0  0  0  0  0  0  0
   -0.4531    1.2262   -2.3363 C   0  0  0  0  0  0  0  0  0  0  0  0
    0.4363    0.5959   -2.2281 H   0  0  0  0  0  0  0  0  0  0  0  0
   -1.3187    0.5659   -2.4547 H   0  0  0  0  0  0  0  0  0  0  0  0
   -0.3124    2.1077   -3.5815 C   0  0  0  0  0  0  0  0  0  0  0  0
   -1.1956    2.7470   -3.6796 H   0  0  0  0  0  0  0  0  0  0  0  0
    0.5644    2.7555   -3.4789 H   0  0  0  0  0  0  0  0  0  0  0  0
   -0.1634    1.2539   -4.8369 C   0  0  0  0  0  0  0  0  0  0  0  0
    0.7335    0.6288   -4.7614 H   0  0  0  0  0  0  0  0  0  0  0  0
   -1.0298    0.5928   -4.9486 H   0  0  0  0  0  0  0  0  0  0  0  0
   -0.0572    2.1468   -5.9947 N   0  0  0  0  0  0  0  0  0  0  0  0
    0.0709    1.6186   -6.8580 H   0  0  0  0  0  0  0  0  0  0  0  0
   -0.8696    2.7596   -6.0610 H   0  0  0  0  0  0  0  0  0  0  0  0
   -0.6436    2.0586    1.5015 C   0  0  0  0  0  0  0  0  0  0  0  0
   -1.1084    1.6154    2.5442 O   0  0  0  0  0  0  0  0  0  0  0  0
   -0.1957    3.3695    1.5035 N   0  0  0  0  0  0  0  0  0  0  0  0
    0.1722    3.7415    0.6336 H   0  0  0  0  0  0  0  0  0  0  0  0
   -0.1437    4.2011    2.7004 C   0  0  0  0  0  0  0  0  0  0  0  0
    0.5039    3.7437    3.4559 H   0  0  0  0  0  0  0  0  0  0  0  0
    0.2547    5.1906    2.4563 H   0  0  0  0  0  0  0  0  0  0  0  0
   -1.1456    4.3272    3.1239 H   0  0  0  0  0  0  0  0  0  0  0  0
  1  2  1  0  0  0  0
  2  3  1  0  0  0  0
  2  4  1  0  0  0  0
  2  5  1  0  0  0  0
  5  6  2  0  0  0  0
  5  7  1  0  0  0  0
  7  8  1  0  0  0  0
  7  9  1  0  0  0  0
  9 10  1  0  0  0  0
  9 11  1  0  0  0  0
  9 26  1  0  0  0  0
 11 12  1  0  0  0  0
 11 13  1  0  0  0  0
 11 14  1  0  0  0  0
 14 15  1  0  0  0  0
 14 16  1  0  0  0  0
 14 17  1  0  0  0  0
 17 18  1  0  0  0  0
 17 19  1  0  0  0  0
 17 20  1  0  0  0  0
 20 21  1  0  0  0  0
 20 22  1  0  0  0  0
 20 23  1  0  0  0  0
 23 24  1  0  0  0  0
 23 25  1  0  0  0  0
 26 27  2  0  0  0  0
 26 28  1  0  0  0  0
 28 29  1  0  0  0  0
 28 30  1  0  0  0  0
 30 31  1  0  0  0  0
 30 32  1  0  0  0  0
 30 33  1  0  0  0  0
M  END
$$$$

  -OEChem-01062216083D

 33 32  0     1  0  0  0  0  0999 V2000
   -3.4286   -2.3203    1.4249 H   0  0  0  0  0  0  0  0  0  0  0  0
   -3.5149   -1.3093    1.0168 C   0  0  0  0  0  0  0  0  0  0  0  0
   -3.9672   -0.6636    1.7736 H   0  0  0  0  0  0  0  0  0  0  0  0
   -4.1599   -1.3376    0.1355 H   0  0  0  0  0  0  0  0  0  0  0  0
   -2.1439   -0.7804    0.6405 C   0  0  0  0  0  0  0  0  0  0  0  0
   -1.1692   -1.5104    0.7267 O   0  0  0  0  0  0  0  0  0  0  0  0
   -2.0252    0.5004    0.1347 N   0  0  0  0  0  0  0  0  0  0  0  0
   -2.8736    1.0545    0.1952 H   0  0  0  0  0  0  0  0  0  0  0  0
   -0.7508    1.2384    0.1915 C   0  0  1  0  0  0  0  0  0  0  0  0
    0.0964    0.5435    0.2028 H   0  0  0  0  0  0  0  0  0  0  0  0
   -0.6294    2.0985   -1.0817 C   0  0  0  0  0  0  0  0  0  0  0  0
   -1.5169    2.7310   -1.1892 H   0  0  0  0  0  0  0  0  0  0  0  0
    0.2450    2.7523   -0.9967 H   0  0  0  0  0  0  0  0  0  0  0  0
   -0.4525    1.2283   -2.3342 C   0  0  0  0  0  0  0  0  0  0  0  0
    0.4372    0.5989   -2.2232 H   0  0  0  0  0  0  0  0  0  0  0  0
   -1.3174    0.5672   -2.4534 H   0  0  0  0  0  0  0  0  0  0  0  0
   -0.3097    2.1090   -3.5799 C   0  0  0  0  0  0  0  0  0  0  0  0
   -1.1934    2.7474   -3.6808 H   0  0  0  0  0  0  0  0  0  0  0  0
    0.5665    2.7576   -3.4761 H   0  0  0  0  0  0  0  0  0  0  0  0
   -0.1576    1.2539   -4.8340 C   0  0  0  0  0  0  0  0  0  0  0  0
    0.7401    0.6303   -4.7554 H   0  0  0  0  0  0  0  0  0  0  0  0
   -1.0232    0.5915   -4.9464 H   0  0  0  0  0  0  0  0  0  0  0  0
   -0.0493    2.1445   -5.9937 N   0  0  0  0  0  0  0  0  0  0  0  0
    0.0858    1.6142   -6.8549 H   0  0  0  0  0  0  0  0  0  0  0  0
   -0.8642    2.7534   -6.0661 H   0  0  0  0  0  0  0  0  0  0  0  0
   -0.6466    2.0624    1.5007 C   0  0  0  0  0  0  0  0  0  0  0  0
   -0.8507    1.5263    2.5813 O   0  0  0  0  0  0  0  0  0  0  0  0
   -0.5051    3.4405    1.4794 N   0  0  0  0  0  0  0  0  0  0  0  0
   -0.3604    3.8834    0.5774 H   0  0  0  0  0  0  0  0  0  0  0  0
   -0.4834    4.2670    2.6808 C   0  0  0  0  0  0  0  0  0  0  0  0
    0.3521    3.9798    3.3277 H   0  0  0  0  0  0  0  0  0  0  0  0
   -0.3671    5.3214    2.4123 H   0  0  0  0  0  0  0  0  0  0  0  0
   -1.4177    4.1546    3.2406 H   0  0  0  0  0  0  0  0  0  0  0  0
  1  2  1  0  0  0  0
  2  3  1  0  0  0  0
  2  4  1  0  0  0  0
  2  5  1  0  0  0  0
  5  6  2  0  0  0  0
  5  7  1  0  0  0  0
  7  8  1  0  0  0  0
  7  9  1  0  0  0  0
  9 10  1  0  0  0  0
  9 11  1  0  0  0  0
  9 26  1  0  0  0  0
 11 12  1  0  0  0  0
 11 13  1  0  0  0  0
 11 14  1  0  0  0  0
 14 15  1  0  0  0  0
 14 16  1  0  0  0  0
 14 17  1  0  0  0  0
 17 18  1  0  0  0  0
 17 19  1  0  0  0  0
 17 20  1  0  0  0  0
 20 21  1  0  0  0  0
 20 22  1  0  0  0  0
 20 23  1  0  0  0  0
 23 24  1  0  0  0  0
 23 25  1  0  0  0  0
 26 27  2  0  0  0  0
 26 28  1  0  0  0  0
 28 29  1  0  0  0  0
 28 30  1  0  0  0  0
 30 31  1  0  0  0  0
 30 32  1  0  0  0  0
 30 33  1  0  0  0  0
M  END
$$$$

  -OEChem-01062216083D

 33 32  0     1  0  0  0  0  0999 V2000
   -3.4475   -2.3344    1.4045 H   0  0  0  0  0  0  0  0  0  0  0  0
   -3.5283   -1.3305    0.9780 C   0  0  0  0  0  0  0  0  0  0  0  0
   -4.0279   -0.6823    1.7020 H   0  0  0  0  0  0  0  0  0  0  0  0
   -4.1278   -1.3812    0.0662 H   0  0  0  0  0  0  0  0  0  0  0  0
   -2.1484   -0.7861    0.6607 C   0  0  0  0  0  0  0  0  0  0  0  0
   -1.1711   -1.5044    0.7935 O   0  0  0  0  0  0  0  0  0  0  0  0
   -2.0245    0.4928    0.1513 N   0  0  0  0  0  0  0  0  0  0  0  0
   -2.8805    1.0381    0.1560 H   0  0  0  0  0  0  0  0  0  0  0  0
   -0.7550    1.2391    0.2042 C   0  0  1  0  0  0  0  0  0  0  0  0
    0.0952    0.5474    0.2167 H   0  0  0  0  0  0  0  0  0  0  0  0
   -0.6367    2.0998   -1.0683 C   0  0  0  0  0  0  0  0  0  0  0  0
   -1.5291    2.7243   -1.1799 H   0  0  0  0  0  0  0  0  0  0  0  0
    0.2313    2.7616   -0.9767 H   0  0  0  0  0  0  0  0  0  0  0  0
   -0.4540    1.2314   -2.3208 C   0  0  0  0  0  0  0  0  0  0  0  0
    0.4399    0.6081   -2.2091 H   0  0  0  0  0  0  0  0  0  0  0  0
   -1.3143    0.5647   -2.4408 H   0  0  0  0  0  0  0  0  0  0  0  0
   -0.3145    2.1126   -3.5667 C   0  0  0  0  0  0  0  0  0  0  0  0
   -1.2011    2.7468   -3.6687 H   0  0  0  0  0  0  0  0  0  0  0  0
    0.5584    2.7656   -3.4616 H   0  0  0  0  0  0  0  0  0  0  0  0
   -0.1566    1.2578   -4.8205 C   0  0  0  0  0  0  0  0  0  0  0  0
    0.7443    0.6392   -4.7399 H   0  0  0  0  0  0  0  0  0  0  0  0
   -1.0182    0.5905   -4.9334 H   0  0  0  0  0  0  0  0  0  0  0  0
   -0.0517    2.1478   -5.9806 N   0  0  0  0  0  0  0  0  0  0  0  0
    0.0924    1.6181   -6.8406 H   0  0  0  0  0  0  0  0  0  0  0  0
   -0.8714    2.7496   -6.0574 H   0  0  0  0  0  0  0  0  0  0  0  0
   -0.6531    2.0709    1.5057 C   0  0  0  0  0  0  0  0  0  0  0  0
   -0.5629    1.5123    2.5892 O   0  0  0  0  0  0  0  0  0  0  0  0
   -0.8280    3.4451    1.4929 N   0  0  0  0  0  0  0  0  0  0  0  0
   -0.8993    3.8998    0.5882 H   0  0  0  0  0  0  0  0  0  0  0  0
   -0.8073    4.2691    2.6961 C   0  0  0  0  0  0  0  0  0  0  0  0
    0.1652    4.1949    3.1940 H   0  0  0  0  0  0  0  0  0  0  0  0
   -0.9863    5.3177    2.4398 H   0  0  0  0  0  0  0  0  0  0  0  0
   -1.5866    3.9478    3.3952 H   0  0  0  0  0  0  0  0  0  0  0  0
  1  2  1  0  0  0  0
  2  3  1  0  0  0  0
  2  4  1  0  0  0  0
  2  5  1  0  0  0  0
  5  6  2  0  0  0  0
  5  7  1  0  0  0  0
  7  8  1  0  0  0  0
  7  9  1  0  0  0  0
  9 10  1  0  0  0  0
  9 11  1  0  0  0  0
  9 26  1  0  0  0  0
 11 12  1  0  0  0  0
 11 13  1  0  0  0  0
 11 14  1  0  0  0  0
 14 15  1  0  0  0  0
 14 16  1  0  0  0  0
 14 17  1  0  0  0  0
 17 18  1  0  0  0  0
 17 19  1  0  0  0  0
 17 20  1  0  0  0  0
 20 21  1  0  0  0  0
 20 22  1  0  0  0  0
 20 23  1  0  0  0  0
 23 24  1  0  0  0  0
 23 25  1  0  0  0  0
 26 27  2  0  0  0  0
 26 28  1  0  0  0  0
 28 29  1  0  0  0  0
 28 30  1  0  0  0  0
 30 31  1  0  0  0  0
 30 32  1  0  0  0  0
 30 33  1  0  0  0  0
M  END
$$$$

  -OEChem-01062216083D

 33 32  0     1  0  0  0  0  0999 V2000
   -3.4687   -2.3670    1.3702 H   0  0  0  0  0  0  0  0  0  0  0  0
   -3.5452   -1.3666    0.9346 C   0  0  0  0  0  0  0  0  0  0  0  0
   -4.0901   -0.7232    1.6295 H   0  0  0  0  0  0  0  0  0  0  0  0
   -4.0991   -1.4325   -0.0048 H   0  0  0  0  0  0  0  0  0  0  0  0
   -2.1601   -0.8008    0.6824 C   0  0  0  0  0  0  0  0  0  0  0  0
   -1.1794   -1.4969    0.8837 O   0  0  0  0  0  0  0  0  0  0  0  0
   -2.0317    0.4760    0.1689 N   0  0  0  0  0  0  0  0  0  0  0  0
   -2.8937    1.0076    0.1062 H   0  0  0  0  0  0  0  0  0  0  0  0
   -0.7678    1.2323    0.2198 C   0  0  1  0  0  0  0  0  0  0  0  0
    0.0853    0.5440    0.2333 H   0  0  0  0  0  0  0  0  0  0  0  0
   -0.6498    2.0965   -1.0494 C   0  0  0  0  0  0  0  0  0  0  0  0
   -1.5449    2.7163   -1.1641 H   0  0  0  0  0  0  0  0  0  0  0  0
    0.2125    2.7646   -0.9481 H   0  0  0  0  0  0  0  0  0  0  0  0
   -0.4583    1.2332   -2.3045 C   0  0  0  0  0  0  0  0  0  0  0  0
    0.4387    0.6146   -2.1918 H   0  0  0  0  0  0  0  0  0  0  0  0
   -1.3148    0.5624   -2.4292 H   0  0  0  0  0  0  0  0  0  0  0  0
   -0.3193    2.1188   -3.5474 C   0  0  0  0  0  0  0  0  0  0  0  0
   -1.2090    2.7483   -3.6509 H   0  0  0  0  0  0  0  0  0  0  0  0
    0.5492    2.7765   -3.4374 H   0  0  0  0  0  0  0  0  0  0  0  0
   -0.1526    1.2688   -4.8036 C   0  0  0  0  0  0  0  0  0  0  0  0
    0.7512    0.6542   -4.7226 H   0  0  0  0  0  0  0  0  0  0  0  0
   -1.0105    0.5976   -4.9221 H   0  0  0  0  0  0  0  0  0  0  0  0
   -0.0484    2.1625   -5.9611 N   0  0  0  0  0  0  0  0  0  0  0  0
    0.1030    1.6356   -6.8216 H   0  0  0  0  0  0  0  0  0  0  0  0
   -0.8714    2.7594   -6.0402 H   0  0  0  0  0  0  0  0  0  0  0  0
   -0.6690    2.0739    1.5131 C   0  0  0  0  0  0  0  0  0  0  0  0
   -0.2521    1.5767    2.5484 O   0  0  0  0  0  0  0  0  0  0  0  0
   -1.1475    3.3734    1.5517 N   0  0  0  0  0  0  0  0  0  0  0  0
   -1.4557    3.7857    0.6770 H   0  0  0  0  0  0  0  0  0  0  0  0
   -1.0966    4.2089    2.7461 C   0  0  0  0  0  0  0  0  0  0  0  0
   -0.0583    4.3755    3.0522 H   0  0  0  0  0  0  0  0  0  0  0  0
   -1.5606    5.1803    2.5497 H   0  0  0  0  0  0  0  0  0  0  0  0
   -1.6346    3.7311    3.5718 H   0  0  0  0  0  0  0  0  0  0  0  0
  1  2  1  0  0  0  0
  2  3  1  0  0  0  0
  2  4  1  0  0  0  0
  2  5  1  0  0  0  0
  5  6  2  0  0  0  0
  5  7  1  0  0  0  0
  7  8  1  0  0  0  0
  7  9  1  0  0  0  0
  9 10  1  0  0  0  0
  9 11  1  0  0  0  0
  9 26  1  0  0  0  0
 11 12  1  0  0  0  0
 11 13  1  0  0  0  0
 11 14  1  0  0  0  0
 14 15  1  0  0  0  0
 14 16  1  0  0  0  0
 14 17  1  0  0  0  0
 17 18  1  0  0  0  0
 17 19  1  0  0  0  0
 17 20  1  0  0  0  0
 20 21  1  0  0  0  0
 20 22  1  0  0  0  0
 20 23  1  0  0  0  0
 23 24  1  0  0  0  0
 23 25  1  0  0  0  0
 26 27  2  0  0  0  0
 26 28  1  0  0  0  0
 28 29  1  0  0  0  0
 28 30  1  0  0  0  0
 30 31  1  0  0  0  0
 30 32  1  0  0  0  0
 30 33  1  0  0  0  0
M  END
$$$$

  -OEChem-01062216083D

 33 32  0     1  0  0  0  0  0999 V2000
   -3.4945   -2.4250    1.2867 H   0  0  0  0  0  0  0  0  0  0  0  0
   -3.5624   -1.4278    0.8421 C   0  0  0  0  0  0  0  0  0  0  0  0
   -4.1875   -0.8012    1.4826 H   0  0  0  0  0  0  0  0  0  0  0  0
   -4.0272   -1.5125   -0.1430 H   0  0  0  0  0  0  0  0  0  0  0  0
   -2.1781   -0.8204    0.7126 C   0  0  0  0  0  0  0  0  0  0  0  0
   -1.2017   -1.4772    1.0288 O   0  0  0  0  0  0  0  0  0  0  0  0
   -2.0393    0.4547    0.1985 N   0  0  0  0  0  0  0  0  0  0  0  0
   -2.9000    0.9583    0.0121 H   0  0  0  0  0  0  0  0  0  0  0  0
   -0.7793    1.2186    0.2487 C   0  0  1  0  0  0  0  0  0  0  0  0
    0.0753    0.5317    0.2599 H   0  0  0  0  0  0  0  0  0  0  0  0
   -0.6642    2.0900   -1.0148 C   0  0  0  0  0  0  0  0  0  0  0  0
   -1.5601    2.7088   -1.1259 H   0  0  0  0  0  0  0  0  0  0  0  0
    0.1954    2.7609   -0.9076 H   0  0  0  0  0  0  0  0  0  0  0  0
   -0.4688    1.2340   -2.2744 C   0  0  0  0  0  0  0  0  0  0  0  0
    0.4309    0.6188   -2.1637 H   0  0  0  0  0  0  0  0  0  0  0  0
   -1.3220    0.5601   -2.4028 H   0  0  0  0  0  0  0  0  0  0  0  0
   -0.3323    2.1250   -3.5137 C   0  0  0  0  0  0  0  0  0  0  0  0
   -1.2238    2.7524   -3.6150 H   0  0  0  0  0  0  0  0  0  0  0  0
    0.5346    2.7846   -3.4009 H   0  0  0  0  0  0  0  0  0  0  0  0
   -0.1621    1.2799   -4.7727 C   0  0  0  0  0  0  0  0  0  0  0  0
    0.7432    0.6678   -4.6931 H   0  0  0  0  0  0  0  0  0  0  0  0
   -1.0179    0.6064   -4.8932 H   0  0  0  0  0  0  0  0  0  0  0  0
   -0.0605    2.1780   -5.9273 N   0  0  0  0  0  0  0  0  0  0  0  0
    0.0915    1.6556   -6.7904 H   0  0  0  0  0  0  0  0  0  0  0  0
   -0.8836    2.7749   -6.0034 H   0  0  0  0  0  0  0  0  0  0  0  0
   -0.6758    2.0697    1.5333 C   0  0  0  0  0  0  0  0  0  0  0  0
    0.0699    1.7406    2.4435 O   0  0  0  0  0  0  0  0  0  0  0  0
   -1.4176    3.2316    1.6667 N   0  0  0  0  0  0  0  0  0  0  0  0
   -1.9726    3.5274    0.8708 H   0  0  0  0  0  0  0  0  0  0  0  0
   -1.3214    4.1109    2.8260 C   0  0  0  0  0  0  0  0  0  0  0  0
   -0.3046    4.5054    2.9235 H   0  0  0  0  0  0  0  0  0  0  0  0
   -2.0116    4.9533    2.7206 H   0  0  0  0  0  0  0  0  0  0  0  0
   -1.5774    3.5674    3.7417 H   0  0  0  0  0  0  0  0  0  0  0  0
  1  2  1  0  0  0  0
  2  3  1  0  0  0  0
  2  4  1  0  0  0  0
  2  5  1  0  0  0  0
  5  6  2  0  0  0  0
  5  7  1  0  0  0  0
  7  8  1  0  0  0  0
  7  9  1  0  0  0  0
  9 10  1  0  0  0  0
  9 11  1  0  0  0  0
  9 26  1  0  0  0  0
 11 12  1  0  0  0  0
 11 13  1  0  0  0  0
 11 14  1  0  0  0  0
 14 15  1  0  0  0  0
 14 16  1  0  0  0  0
 14 17  1  0  0  0  0
 17 18  1  0  0  0  0
 17 19  1  0  0  0  0
 17 20  1  0  0  0  0
 20 21  1  0  0  0  0
 20 22  1  0  0  0  0
 20 23  1  0  0  0  0
 23 24  1  0  0  0  0
 23 25  1  0  0  0  0
 26 27  2  0  0  0  0
 26 28  1  0  0  0  0
 28 29  1  0  0  0  0
 28 30  1  0  0  0  0
 30 31  1  0  0  0  0
 30 32  1  0  0  0  0
 30 33  1  0  0  0  0
M  END
$$$$

  -OEChem-01062216083D

 33 32  0     1  0  0  0  0  0999 V2000
   -3.5087   -2.4766    1.1441 H   0  0  0  0  0  0  0  0  0  0  0  0
   -3.5572   -1.4814    0.6931 C   0  0  0  0  0  0  0  0  0  0  0  0
   -4.2993   -0.8877    1.2321 H   0  0  0  0  0  0  0  0  0  0  0  0
   -3.8663   -1.5830   -0.3498 H   0  0  0  0  0  0  0  0  0  0  0  0
   -2.1994   -0.8090    0.7692 C   0  0  0  0  0  0  0  0  0  0  0  0
   -1.2606   -1.3989    1.2734 O   0  0  0  0  0  0  0  0  0  0  0  0
   -2.0377    0.4590    0.2463 N   0  0  0  0  0  0  0  0  0  0  0  0
   -2.8504    0.8863   -0.1853 H   0  0  0  0  0  0  0  0  0  0  0  0
   -0.7723    1.2143    0.2857 C   0  0  1  0  0  0  0  0  0  0  0  0
    0.0749    0.5181    0.2932 H   0  0  0  0  0  0  0  0  0  0  0  0
   -0.6625    2.0840   -0.9779 C   0  0  0  0  0  0  0  0  0  0  0  0
   -1.5526    2.7133   -1.0780 H   0  0  0  0  0  0  0  0  0  0  0  0
    0.2039    2.7474   -0.8777 H   0  0  0  0  0  0  0  0  0  0  0  0
   -0.4842    1.2266   -2.2395 C   0  0  0  0  0  0  0  0  0  0  0  0
    0.4130    0.6061   -2.1373 H   0  0  0  0  0  0  0  0  0  0  0  0
   -1.3425    0.5581   -2.3615 H   0  0  0  0  0  0  0  0  0  0  0  0
   -0.3529    2.1173   -3.4793 C   0  0  0  0  0  0  0  0  0  0  0  0
   -1.2409    2.7507   -3.5716 H   0  0  0  0  0  0  0  0  0  0  0  0
    0.5194    2.7708   -3.3732 H   0  0  0  0  0  0  0  0  0  0  0  0
   -0.1996    1.2731   -4.7411 C   0  0  0  0  0  0  0  0  0  0  0  0
    0.7025    0.6548   -4.6713 H   0  0  0  0  0  0  0  0  0  0  0  0
   -1.0611    0.6057   -4.8552 H   0  0  0  0  0  0  0  0  0  0  0  0
   -0.1027    2.1730   -5.8941 N   0  0  0  0  0  0  0  0  0  0  0  0
    0.0315    1.6517   -6.7607 H   0  0  0  0  0  0  0  0  0  0  0  0
   -0.9189    2.7810   -5.9568 H   0  0  0  0  0  0  0  0  0  0  0  0
   -0.6465    2.0809    1.5566 C   0  0  0  0  0  0  0  0  0  0  0  0
    0.3410    1.9954    2.2720 O   0  0  0  0  0  0  0  0  0  0  0  0
   -1.5816    3.0663    1.8239 N   0  0  0  0  0  0  0  0  0  0  0  0
   -2.3817    3.1334    1.2050 H   0  0  0  0  0  0  0  0  0  0  0  0
   -1.4956    3.9608    2.9717 C   0  0  0  0  0  0  0  0  0  0  0  0
   -0.5627    4.5337    2.9417 H   0  0  0  0  0  0  0  0  0  0  0  0
   -2.3332    4.6646    2.9669 H   0  0  0  0  0  0  0  0  0  0  0  0
   -1.5286    3.3892    3.9052 H   0  0  0  0  0  0  0  0  0  0  0  0
  1  2  1  0  0  0  0
  2  3  1  0  0  0  0
  2  4  1  0  0  0  0
  2  5  1  0  0  0  0
  5  6  2  0  0  0  0
  5  7  1  0  0  0  0
  7  8  1  0  0  0  0
  7  9  1  0  0  0  0
  9 10  1  0  0  0  0
  9 11  1  0  0  0  0
  9 26  1  0  0  0  0
 11 12  1  0  0  0  0
 11 13  1  0  0  0  0
 11 14  1  0  0  0  0
 14 15  1  0  0  0  0
 14 16  1  0  0  0  0
 14 17  1  0  0  0  0
 17 18  1  0  0  0  0
 17 19  1  0  0  0  0
 17 20  1  0  0  0  0
 20 21  1  0  0  0  0
 20 22  1  0  0  0  0
 20 23  1  0  0  0  0
 23 24  1  0  0  0  0
 23 25  1  0  0  0  0
 26 27  2  0  0  0  0
 26 28  1  0  0  0  0
 28 29  1  0  0  0  0
 28 30  1  0  0  0  0
 30 31  1  0  0  0  0
 30 32  1  0  0  0  0
 30 33  1  0  0  0  0
M  END
$$$$

  -OEChem-01062216083D

 33 32  0     1  0  0  0  0  0999 V2000
   -3.4960   -2.5145    1.0481 H   0  0  0  0  0  0  0  0  0  0  0  0
   -3.5425   -1.5188    0.5978 C   0  0  0  0  0  0  0  0  0  0  0  0
   -4.3543   -0.9584    1.0676 H   0  0  0  0  0  0  0  0  0  0  0  0
   -3.7505   -1.6257   -0.4695 H   0  0  0  0  0  0  0  0  0  0  0  0
   -2.2261   -0.7928    0.8015 C   0  0  0  0  0  0  0  0  0  0  0  0
   -1.3311   -1.3251    1.4331 O   0  0  0  0  0  0  0  0  0  0  0  0
   -2.0540    0.4694    0.2688 N   0  0  0  0  0  0  0  0  0  0  0  0
   -2.7971    0.8197   -0.3272 H   0  0  0  0  0  0  0  0  0  0  0  0
   -0.7787    1.2087    0.3063 C   0  0  1  0  0  0  0  0  0  0  0  0
    0.0592    0.5013    0.3140 H   0  0  0  0  0  0  0  0  0  0  0  0
   -0.6635    2.0781   -0.9564 C   0  0  0  0  0  0  0  0  0  0  0  0
   -1.5462    2.7190   -1.0488 H   0  0  0  0  0  0  0  0  0  0  0  0
    0.2110    2.7314   -0.8592 H   0  0  0  0  0  0  0  0  0  0  0  0
   -0.5001    1.2223   -2.2207 C   0  0  0  0  0  0  0  0  0  0  0  0
    0.3910    0.5925   -2.1229 H   0  0  0  0  0  0  0  0  0  0  0  0
   -1.3662    0.5637   -2.3412 H   0  0  0  0  0  0  0  0  0  0  0  0
   -0.3633    2.1142   -3.4591 C   0  0  0  0  0  0  0  0  0  0  0  0
   -1.2444    2.7578   -3.5470 H   0  0  0  0  0  0  0  0  0  0  0  0
    0.5165    2.7580   -3.3553 H   0  0  0  0  0  0  0  0  0  0  0  0
   -0.2246    1.2707   -4.7231 C   0  0  0  0  0  0  0  0  0  0  0  0
    0.6710    0.6429   -4.6572 H   0  0  0  0  0  0  0  0  0  0  0  0
   -1.0938    0.6131   -4.8352 H   0  0  0  0  0  0  0  0  0  0  0  0
   -0.1215    2.1702   -5.8760 N   0  0  0  0  0  0  0  0  0  0  0  0
   -0.0004    1.6480   -6.7440 H   0  0  0  0  0  0  0  0  0  0  0  0
   -0.9282    2.7915   -5.9332 H   0  0  0  0  0  0  0  0  0  0  0  0
   -0.6335    2.0840    1.5682 C   0  0  0  0  0  0  0  0  0  0  0  0
    0.4643    2.2390    2.0842 O   0  0  0  0  0  0  0  0  0  0  0  0
   -1.6923    2.8645    1.9987 N   0  0  0  0  0  0  0  0  0  0  0  0
   -2.5991    2.6735    1.5868 H   0  0  0  0  0  0  0  0  0  0  0  0
   -1.6117    3.7506    3.1537 C   0  0  0  0  0  0  0  0  0  0  0  0
   -0.8153    4.4895    3.0156 H   0  0  0  0  0  0  0  0  0  0  0  0
   -2.5569    4.2851    3.2874 H   0  0  0  0  0  0  0  0  0  0  0  0
   -1.4047    3.1765    4.0628 H   0  0  0  0  0  0  0  0  0  0  0  0
  1  2  1  0  0  0  0
  2  3  1  0  0  0  0
  2  4  1  0  0  0  0
  2  5  1  0  0  0  0
  5  6  2  0  0  0  0
  5  7  1  0  0  0  0
  7  8  1  0  0  0  0
  7  9  1  0  0  0  0
  9 10  1  0  0  0  0
  9 11  1  0  0  0  0
  9 26  1  0  0  0  0
 11 12  1  0  0  0  0
 11 13  1  0  0  0  0
 11 14  1  0  0  0  0
 14 15  1  0  0  0  0
 14 16  1  0  0  0  0
 14 17  1  0  0  0  0
 17 18  1  0  0  0  0
 17 19  1  0  0  0  0
 17 20  1  0  0  0  0
 20 21  1  0  0  0  0
 20 22  1  0  0  0  0
 20 23  1  0  0  0  0
 23 24  1  0  0  0  0
 23 25  1  0  0  0  0
 26 27  2  0  0  0  0
 26 28  1  0  0  0  0
 28 29  1  0  0  0  0
 28 30  1  0  0  0  0
 30 31  1  0  0  0  0
 30 32  1  0  0  0  0
 30 33  1  0  0  0  0
M  END
$$$$

  -OEChem-01062216083D

 33 32  0     1  0  0  0  0  0999 V2000
   -3.4847   -2.5286    1.0018 H   0  0  0  0  0  0  0  0  0  0  0  0
   -3.5347   -1.5316    0.5549 C   0  0  0  0  0  0  0  0  0  0  0  0
   -4.3715   -0.9880    1.0001 H   0  0  0  0  0  0  0  0  0  0  0  0
   -3.7056   -1.6369   -0.5191 H   0  0  0  0  0  0  0  0  0  0  0  0
   -2.2388   -0.7840    0.8047 C   0  0  0  0  0  0  0  0  0  0  0  0
   -1.3657   -1.2915    1.4859 O   0  0  0  0  0  0  0  0  0  0  0  0
   -2.0625    0.4767    0.2703 N   0  0  0  0  0  0  0  0  0  0  0  0
   -2.7810    0.8077   -0.3662 H   0  0  0  0  0  0  0  0  0  0  0  0
   -0.7817    1.2077    0.3123 C   0  0  1  0  0  0  0  0  0  0  0  0
    0.0516    0.4954    0.3207 H   0  0  0  0  0  0  0  0  0  0  0  0
   -0.6646    2.0754   -0.9524 C   0  0  0  0  0  0  0  0  0  0  0  0
   -1.5440    2.7214   -1.0423 H   0  0  0  0  0  0  0  0  0  0  0  0
    0.2133    2.7249   -0.8587 H   0  0  0  0  0  0  0  0  0  0  0  0
   -0.5063    1.2188   -2.2173 C   0  0  0  0  0  0  0  0  0  0  0  0
    0.3822    0.5854   -2.1215 H   0  0  0  0  0  0  0  0  0  0  0  0
   -1.3748    0.5638   -2.3374 H   0  0  0  0  0  0  0  0  0  0  0  0
   -0.3676    2.1114   -3.4550 C   0  0  0  0  0  0  0  0  0  0  0  0
   -1.2460    2.7591   -3.5411 H   0  0  0  0  0  0  0  0  0  0  0  0
    0.5149    2.7517   -3.3513 H   0  0  0  0  0  0  0  0  0  0  0  0
   -0.2338    1.2684   -4.7199 C   0  0  0  0  0  0  0  0  0  0  0  0
    0.6597    0.6374   -4.6553 H   0  0  0  0  0  0  0  0  0  0  0  0
   -1.1052    0.6139   -4.8316 H   0  0  0  0  0  0  0  0  0  0  0  0
   -0.1287    2.1682   -5.8722 N   0  0  0  0  0  0  0  0  0  0  0  0
   -0.0089    1.6468   -6.7407 H   0  0  0  0  0  0  0  0  0  0  0  0
   -0.9337    2.7916   -5.9285 H   0  0  0  0  0  0  0  0  0  0  0  0
   -0.6271    2.0853    1.5723 C   0  0  0  0  0  0  0  0  0  0  0  0
    0.4851    2.4428    1.9353 O   0  0  0  0  0  0  0  0  0  0  0  0
   -1.7417    2.6319    2.1831 N   0  0  0  0  0  0  0  0  0  0  0  0
   -2.6387    2.2419    1.9145 H   0  0  0  0  0  0  0  0  0  0  0  0
   -1.6665    3.4823    3.3646 C   0  0  0  0  0  0  0  0  0  0  0  0
   -1.0510    4.3653    3.1627 H   0  0  0  0  0  0  0  0  0  0  0  0
   -2.6667    3.8196    3.6524 H   0  0  0  0  0  0  0  0  0  0  0  0
   -1.2299    2.9323    4.2048 H   0  0  0  0  0  0  0  0  0  0  0  0
  1  2  1  0  0  0  0
  2  3  1  0  0  0  0
  2  4  1  0  0  0  0
  2  5  1  0  0  0  0
  5  6  2  0  0  0  0
  5  7  1  0  0  0  0
  7  8  1  0  0  0  0
  7  9  1  0  0  0  0
  9 10  1  0  0  0  0
  9 11  1  0  0  0  0
  9 26  1  0  0  0  0
 11 12  1  0  0  0  0
 11 13  1  0  0  0  0
 11 14  1  0  0  0  0
 14 15  1  0  0  0  0
 14 16  1  0  0  0  0
 14 17  1  0  0  0  0
 17 18  1  0  0  0  0
 17 19  1  0  0  0  0
 17 20  1  0  0  0  0
 20 21  1  0  0  0  0
 20 22  1  0  0  0  0
 20 23  1  0  0  0  0
 23 24  1  0  0  0  0
 23 25  1  0  0  0  0
 26 27  2  0  0  0  0
 26 28  1  0  0  0  0
 28 29  1  0  0  0  0
 28 30  1  0  0  0  0
 30 31  1  0  0  0  0
 30 32  1  0  0  0  0
 30 33  1  0  0  0  0
M  END
$$$$

  -OEChem-01062216083D

 33 32  0     1  0  0  0  0  0999 V2000
   -3.4863   -2.5253    0.9830 H   0  0  0  0  0  0  0  0  0  0  0  0
   -3.5355   -1.5274    0.5381 C   0  0  0  0  0  0  0  0  0  0  0  0
   -4.3764   -0.9868    0.9788 H   0  0  0  0  0  0  0  0  0  0  0  0
   -3.6989   -1.6307   -0.5372 H   0  0  0  0  0  0  0  0  0  0  0  0
   -2.2429   -0.7771    0.7974 C   0  0  0  0  0  0  0  0  0  0  0  0
   -1.3786   -1.2756    1.4963 O   0  0  0  0  0  0  0  0  0  0  0  0
   -2.0626    0.4836    0.2648 N   0  0  0  0  0  0  0  0  0  0  0  0
   -2.7834    0.8248   -0.3643 H   0  0  0  0  0  0  0  0  0  0  0  0
   -0.7808    1.2140    0.3123 C   0  0  1  0  0  0  0  0  0  0  0  0
    0.0527    0.5020    0.3239 H   0  0  0  0  0  0  0  0  0  0  0  0
   -0.6655    2.0773   -0.9571 C   0  0  0  0  0  0  0  0  0  0  0  0
   -1.5468    2.7205   -1.0481 H   0  0  0  0  0  0  0  0  0  0  0  0
    0.2103    2.7299   -0.8683 H   0  0  0  0  0  0  0  0  0  0  0  0
   -0.5051    1.2183   -2.2203 C   0  0  0  0  0  0  0  0  0  0  0  0
    0.3855    0.5880   -2.1225 H   0  0  0  0  0  0  0  0  0  0  0  0
   -1.3722    0.5608   -2.3391 H   0  0  0  0  0  0  0  0  0  0  0  0
   -0.3685    2.1081   -3.4609 C   0  0  0  0  0  0  0  0  0  0  0  0
   -1.2484    2.7536   -3.5486 H   0  0  0  0  0  0  0  0  0  0  0  0
    0.5128    2.7504   -3.3590 H   0  0  0  0  0  0  0  0  0  0  0  0
   -0.2327    1.2635   -4.7251 C   0  0  0  0  0  0  0  0  0  0  0  0
    0.6620    0.6343   -4.6602 H   0  0  0  0  0  0  0  0  0  0  0  0
   -1.1028    0.6071   -4.8358 H   0  0  0  0  0  0  0  0  0  0  0  0
   -0.1297    2.1613   -5.8793 N   0  0  0  0  0  0  0  0  0  0  0  0
   -0.0184    1.6382   -6.7480 H   0  0  0  0  0  0  0  0  0  0  0  0
   -0.9312    2.7896   -5.9311 H   0  0  0  0  0  0  0  0  0  0  0  0
   -0.6278    2.0925    1.5740 C   0  0  0  0  0  0  0  0  0  0  0  0
    0.4397    2.6413    1.8124 O   0  0  0  0  0  0  0  0  0  0  0  0
   -1.7256    2.3883    2.3621 N   0  0  0  0  0  0  0  0  0  0  0  0
   -2.5534    1.8239    2.2013 H   0  0  0  0  0  0  0  0  0  0  0  0
   -1.6385    3.1797    3.5830 C   0  0  0  0  0  0  0  0  0  0  0  0
   -1.2339    4.1742    3.3672 H   0  0  0  0  0  0  0  0  0  0  0  0
   -2.6314    3.3014    4.0264 H   0  0  0  0  0  0  0  0  0  0  0  0
   -0.9890    2.6858    4.3132 H   0  0  0  0  0  0  0  0  0  0  0  0
  1  2  1  0  0  0  0
  2  3  1  0  0  0  0
  2  4  1  0  0  0  0
  2  5  1  0  0  0  0
  5  6  2  0  0  0  0
  5  7  1  0  0  0  0
  7  8  1  0  0  0  0
  7  9  1  0  0  0  0
  9 10  1  0  0  0  0
  9 11  1  0  0  0  0
  9 26  1  0  0  0  0
 11 12  1  0  0  0  0
 11 13  1  0  0  0  0
 11 14  1  0  0  0  0
 14 15  1  0  0  0  0
 14 16  1  0  0  0  0
 14 17  1  0  0  0  0
 17 18  1  0  0  0  0
 17 19  1  0  0  0  0
 17 20  1  0  0  0  0
 20 21  1  0  0  0  0
 20 22  1  0  0  0  0
 20 23  1  0  0  0  0
 23 24  1  0  0  0  0
 23 25  1  0  0  0  0
 26 27  2  0  0  0  0
 26 28  1  0  0  0  0
 28 29  1  0  0  0  0
 28 30  1  0  0  0  0
 30 31  1  0  0  0  0
 30 32  1  0  0  0  0
 30 33  1  0  0  0  0
M  END
$$$$

  -OEChem-01062216083D

 33 32  0     1  0  0  0  0  0999 V2000
   -3.4865   -2.5193    0.9449 H   0  0  0  0  0  0  0  0  0  0  0  0
   -3.5337   -1.5197    0.5032 C   0  0  0  0  0  0  0  0  0  0  0  0
   -4.3865   -0.9857    0.9293 H   0  0  0  0  0  0  0  0  0  0  0  0
   -3.6762   -1.6200   -0.5755 H   0  0  0  0  0  0  0  0  0  0  0  0
   -2.2510   -0.7628    0.7900 C   0  0  0  0  0  0  0  0  0  0  0  0
   -1.4061   -1.2472    1.5217 O   0  0  0  0  0  0  0  0  0  0  0  0
   -2.0648    0.4994    0.2646 N   0  0  0  0  0  0  0  0  0  0  0  0
   -2.7810    0.8443   -0.3678 H   0  0  0  0  0  0  0  0  0  0  0  0
   -0.7811    1.2272    0.3160 C   0  0  1  0  0  0  0  0  0  0  0  0
    0.0501    0.5132    0.3285 H   0  0  0  0  0  0  0  0  0  0  0  0
   -0.6673    2.0834   -0.9605 C   0  0  0  0  0  0  0  0  0  0  0  0
   -1.5485    2.7265   -1.0537 H   0  0  0  0  0  0  0  0  0  0  0  0
    0.2084    2.7371   -0.8803 H   0  0  0  0  0  0  0  0  0  0  0  0
   -0.5071    1.2174   -2.2194 C   0  0  0  0  0  0  0  0  0  0  0  0
    0.3839    0.5884   -2.1197 H   0  0  0  0  0  0  0  0  0  0  0  0
   -1.3731    0.5584   -2.3346 H   0  0  0  0  0  0  0  0  0  0  0  0
   -0.3725    2.1024   -3.4635 C   0  0  0  0  0  0  0  0  0  0  0  0
   -1.2529    2.7470   -3.5525 H   0  0  0  0  0  0  0  0  0  0  0  0
    0.5082    2.7460   -3.3643 H   0  0  0  0  0  0  0  0  0  0  0  0
   -0.2369    1.2538   -4.7248 C   0  0  0  0  0  0  0  0  0  0  0  0
    0.6585    0.6257   -4.6588 H   0  0  0  0  0  0  0  0  0  0  0  0
   -1.1067    0.5964   -4.8330 H   0  0  0  0  0  0  0  0  0  0  0  0
   -0.1361    2.1491   -5.8811 N   0  0  0  0  0  0  0  0  0  0  0  0
   -0.0301    1.6245   -6.7495 H   0  0  0  0  0  0  0  0  0  0  0  0
   -0.9361    2.7798   -5.9305 H   0  0  0  0  0  0  0  0  0  0  0  0
   -0.6269    2.1004    1.5843 C   0  0  0  0  0  0  0  0  0  0  0  0
    0.3464    2.8309    1.7178 O   0  0  0  0  0  0  0  0  0  0  0  0
   -1.6318    2.1448    2.5336 N   0  0  0  0  0  0  0  0  0  0  0  0
   -2.3313    1.4119    2.4662 H   0  0  0  0  0  0  0  0  0  0  0  0
   -1.5138    2.8872    3.7823 C   0  0  0  0  0  0  0  0  0  0  0  0
   -1.3467    3.9507    3.5820 H   0  0  0  0  0  0  0  0  0  0  0  0
   -2.4320    2.7883    4.3689 H   0  0  0  0  0  0  0  0  0  0  0  0
   -0.6780    2.5049    4.3776 H   0  0  0  0  0  0  0  0  0  0  0  0
  1  2  1  0  0  0  0
  2  3  1  0  0  0  0
  2  4  1  0  0  0  0
  2  5  1  0  0  0  0
  5  6  2  0  0  0  0
  5  7  1  0  0  0  0
  7  8  1  0  0  0  0
  7  9  1  0  0  0  0
  9 10  1  0  0  0  0
  9 11  1  0  0  0  0
  9 26  1  0  0  0  0
 11 12  1  0  0  0  0
 11 13  1  0  0  0  0
 11 14  1  0  0  0  0
 14 15  1  0  0  0  0
 14 16  1  0  0  0  0
 14 17  1  0  0  0  0
 17 18  1  0  0  0  0
 17 19  1  0  0  0  0
 17 20  1  0  0  0  0
 20 21  1  0  0  0  0
 20 22  1  0  0  0  0
 20 23  1  0  0  0  0
 23 24  1  0  0  0  0
 23 25  1  0  0  0  0
 26 27  2  0  0  0  0
 26 28  1  0  0  0  0
 28 29  1  0  0  0  0
 28 30  1  0  0  0  0
 30 31  1  0  0  0  0
 30 32  1  0  0  0  0
 30 33  1  0  0  0  0
M  END
$$$$

  -OEChem-01062216083D

 33 32  0     1  0  0  0  0  0999 V2000
   -3.4894   -2.5027    0.9225 H   0  0  0  0  0  0  0  0  0  0  0  0
   -3.5328   -1.5032    0.4803 C   0  0  0  0  0  0  0  0  0  0  0  0
   -4.3932   -0.9720    0.8943 H   0  0  0  0  0  0  0  0  0  0  0  0
   -3.6596   -1.6033   -0.6004 H   0  0  0  0  0  0  0  0  0  0  0  0
   -2.2563   -0.7425    0.7854 C   0  0  0  0  0  0  0  0  0  0  0  0
   -1.4267   -1.2149    1.5430 O   0  0  0  0  0  0  0  0  0  0  0  0
   -2.0639    0.5217    0.2691 N   0  0  0  0  0  0  0  0  0  0  0  0
   -2.7814    0.8765   -0.3565 H   0  0  0  0  0  0  0  0  0  0  0  0
   -0.7766    1.2432    0.3189 C   0  0  1  0  0  0  0  0  0  0  0  0
    0.0509    0.5253    0.3290 H   0  0  0  0  0  0  0  0  0  0  0  0
   -0.6628    2.0938   -0.9627 C   0  0  0  0  0  0  0  0  0  0  0  0
   -1.5418    2.7400   -1.0560 H   0  0  0  0  0  0  0  0  0  0  0  0
    0.2161    2.7439   -0.8909 H   0  0  0  0  0  0  0  0  0  0  0  0
   -0.5087    1.2204   -2.2175 C   0  0  0  0  0  0  0  0  0  0  0  0
    0.3797    0.5877   -2.1164 H   0  0  0  0  0  0  0  0  0  0  0  0
   -1.3783    0.5651   -2.3275 H   0  0  0  0  0  0  0  0  0  0  0  0
   -0.3739    2.0984   -3.4665 C   0  0  0  0  0  0  0  0  0  0  0  0
   -1.2526    2.7453   -3.5561 H   0  0  0  0  0  0  0  0  0  0  0  0
    0.5090    2.7396   -3.3728 H   0  0  0  0  0  0  0  0  0  0  0  0
   -0.2446    1.2435   -4.7241 C   0  0  0  0  0  0  0  0  0  0  0  0
    0.6479    0.6110   -4.6583 H   0  0  0  0  0  0  0  0  0  0  0  0
   -1.1179    0.5898   -4.8263 H   0  0  0  0  0  0  0  0  0  0  0  0
   -0.1432    2.1329   -5.8849 N   0  0  0  0  0  0  0  0  0  0  0  0
   -0.0456    1.6034   -6.7512 H   0  0  0  0  0  0  0  0  0  0  0  0
   -0.9392    2.7686   -5.9332 H   0  0  0  0  0  0  0  0  0  0  0  0
   -0.6218    2.1041    1.5981 C   0  0  0  0  0  0  0  0  0  0  0  0
    0.1970    3.0133    1.6494 O   0  0  0  0  0  0  0  0  0  0  0  0
   -1.4652    1.9054    2.6761 N   0  0  0  0  0  0  0  0  0  0  0  0
   -1.9777    1.0270    2.6675 H   0  0  0  0  0  0  0  0  0  0  0  0
   -1.3162    2.6115    3.9422 C   0  0  0  0  0  0  0  0  0  0  0  0
   -1.3998    3.6927    3.7903 H   0  0  0  0  0  0  0  0  0  0  0  0
   -2.0981    2.3011    4.6418 H   0  0  0  0  0  0  0  0  0  0  0  0
   -0.3415    2.3926    4.3903 H   0  0  0  0  0  0  0  0  0  0  0  0
  1  2  1  0  0  0  0
  2  3  1  0  0  0  0
  2  4  1  0  0  0  0
  2  5  1  0  0  0  0
  5  6  2  0  0  0  0
  5  7  1  0  0  0  0
  7  8  1  0  0  0  0
  7  9  1  0  0  0  0
  9 10  1  0  0  0  0
  9 11  1  0  0  0  0
  9 26  1  0  0  0  0
 11 12  1  0  0  0  0
 11 13  1  0  0  0  0
 11 14  1  0  0  0  0
 14 15  1  0  0  0  0
 14 16  1  0  0  0  0
 14 17  1  0  0  0  0
 17 18  1  0  0  0  0
 17 19  1  0  0  0  0
 17 20  1  0  0  0  0
 20 21  1  0  0  0  0
 20 22  1  0  0  0  0
 20 23  1  0  0  0  0
 23 24  1  0  0  0  0
 23 25  1  0  0  0  0
 26 27  2  0  0  0  0
 26 28  1  0  0  0  0
 28 29  1  0  0  0  0
 28 30  1  0  0  0  0
 30 31  1  0  0  0  0
 30 32  1  0  0  0  0
 30 33  1  0  0  0  0
M  END
$$$$

  -OEChem-01062216083D

 33 32  0     1  0  0  0  0  0999 V2000
   -3.4958   -2.4747    0.9386 H   0  0  0  0  0  0  0  0  0  0  0  0
   -3.5331   -1.4759    0.4942 C   0  0  0  0  0  0  0  0  0  0  0  0
   -4.3868   -0.9361    0.9112 H   0  0  0  0  0  0  0  0  0  0  0  0
   -3.6664   -1.5772   -0.5855 H   0  0  0  0  0  0  0  0  0  0  0  0
   -2.2490   -0.7247    0.7901 C   0  0  0  0  0  0  0  0  0  0  0  0
   -1.4179   -1.1985    1.5469 O   0  0  0  0  0  0  0  0  0  0  0  0
   -2.0532    0.5403    0.2783 N   0  0  0  0  0  0  0  0  0  0  0  0
   -2.7826    0.9117   -0.3235 H   0  0  0  0  0  0  0  0  0  0  0  0
   -0.7633    1.2559    0.3176 C   0  0  1  0  0  0  0  0  0  0  0  0
    0.0618    0.5353    0.3235 H   0  0  0  0  0  0  0  0  0  0  0  0
   -0.6502    2.1029   -0.9667 C   0  0  0  0  0  0  0  0  0  0  0  0
   -1.5252    2.7551   -1.0575 H   0  0  0  0  0  0  0  0  0  0  0  0
    0.2341    2.7462   -0.9005 H   0  0  0  0  0  0  0  0  0  0  0  0
   -0.5066    1.2246   -2.2191 C   0  0  0  0  0  0  0  0  0  0  0  0
    0.3788    0.5874   -2.1202 H   0  0  0  0  0  0  0  0  0  0  0  0
   -1.3806    0.5741   -2.3230 H   0  0  0  0  0  0  0  0  0  0  0  0
   -0.3720    2.0970   -3.4719 C   0  0  0  0  0  0  0  0  0  0  0  0
   -1.2467    2.7491   -3.5604 H   0  0  0  0  0  0  0  0  0  0  0  0
    0.5152    2.7329   -3.3847 H   0  0  0  0  0  0  0  0  0  0  0  0
   -0.2529    1.2368   -4.7267 C   0  0  0  0  0  0  0  0  0  0  0  0
    0.6367    0.6002   -4.6612 H   0  0  0  0  0  0  0  0  0  0  0  0
   -1.1300    0.5872   -4.8230 H   0  0  0  0  0  0  0  0  0  0  0  0
   -0.1512    2.1218   -5.8911 N   0  0  0  0  0  0  0  0  0  0  0  0
   -0.0532    1.5894   -6.7555 H   0  0  0  0  0  0  0  0  0  0  0  0
   -0.9466    2.7582   -5.9417 H   0  0  0  0  0  0  0  0  0  0  0  0
   -0.6105    2.1036    1.6059 C   0  0  0  0  0  0  0  0  0  0  0  0
   -0.0048    3.1680    1.6051 O   0  0  0  0  0  0  0  0  0  0  0  0
   -1.2302    1.6889    2.7703 N   0  0  0  0  0  0  0  0  0  0  0  0
   -1.5486    0.7201    2.7691 H   0  0  0  0  0  0  0  0  0  0  0  0
   -1.0689    2.3704    4.0482 C   0  0  0  0  0  0  0  0  0  0  0  0
   -1.4042    3.4102    3.9736 H   0  0  0  0  0  0  0  0  0  0  0  0
   -1.6641    1.8715    4.8190 H   0  0  0  0  0  0  0  0  0  0  0  0
   -0.0188    2.3603    4.3584 H   0  0  0  0  0  0  0  0  0  0  0  0
  1  2  1  0  0  0  0
  2  3  1  0  0  0  0
  2  4  1  0  0  0  0
  2  5  1  0  0  0  0
  5  6  2  0  0  0  0
  5  7  1  0  0  0  0
  7  8  1  0  0  0  0
  7  9  1  0  0  0  0
  9 10  1  0  0  0  0
  9 11  1  0  0  0  0
  9 26  1  0  0  0  0
 11 12  1  0  0  0  0
 11 13  1  0  0  0  0
 11 14  1  0  0  0  0
 14 15  1  0  0  0  0
 14 16  1  0  0  0  0
 14 17  1  0  0  0  0
 17 18  1  0  0  0  0
 17 19  1  0  0  0  0
 17 20  1  0  0  0  0
 20 21  1  0  0  0  0
 20 22  1  0  0  0  0
 20 23  1  0  0  0  0
 23 24  1  0  0  0  0
 23 25  1  0  0  0  0
 26 27  2  0  0  0  0
 26 28  1  0  0  0  0
 28 29  1  0  0  0  0
 28 30  1  0  0  0  0
 30 31  1  0  0  0  0
 30 32  1  0  0  0  0
 30 33  1  0  0  0  0
M  END
$$$$

  -OEChem-01062216083D

 33 32  0     1  0  0  0  0  0999 V2000
   -3.5022   -2.4521    1.0120 H   0  0  0  0  0  0  0  0  0  0  0  0
   -3.5419   -1.4509    0.5734 C   0  0  0  0  0  0  0  0  0  0  0  0
   -4.3572   -0.8930    1.0407 H   0  0  0  0  0  0  0  0  0  0  0  0
   -3.7396   -1.5447   -0.4969 H   0  0  0  0  0  0  0  0  0  0  0  0
   -2.2263   -0.7297    0.7967 C   0  0  0  0  0  0  0  0  0  0  0  0
   -1.3648   -1.2241    1.5067 O   0  0  0  0  0  0  0  0  0  0  0  0
   -2.0332    0.5332    0.2782 N   0  0  0  0  0  0  0  0  0  0  0  0
   -2.7911    0.9340   -0.2669 H   0  0  0  0  0  0  0  0  0  0  0  0
   -0.7448    1.2492    0.3058 C   0  0  1  0  0  0  0  0  0  0  0  0
    0.0834    0.5321    0.3107 H   0  0  0  0  0  0  0  0  0  0  0  0
   -0.6327    2.0961   -0.9779 C   0  0  0  0  0  0  0  0  0  0  0  0
   -1.5080    2.7480   -1.0669 H   0  0  0  0  0  0  0  0  0  0  0  0
    0.2516    2.7393   -0.9098 H   0  0  0  0  0  0  0  0  0  0  0  0
   -0.4936    1.2214   -2.2323 C   0  0  0  0  0  0  0  0  0  0  0  0
    0.3908    0.5822   -2.1375 H   0  0  0  0  0  0  0  0  0  0  0  0
   -1.3693    0.5732   -2.3363 H   0  0  0  0  0  0  0  0  0  0  0  0
   -0.3602    2.1004   -3.4805 C   0  0  0  0  0  0  0  0  0  0  0  0
   -1.2352    2.7531   -3.5634 H   0  0  0  0  0  0  0  0  0  0  0  0
    0.5271    2.7359   -3.3913 H   0  0  0  0  0  0  0  0  0  0  0  0
   -0.2453    1.2464   -4.7396 C   0  0  0  0  0  0  0  0  0  0  0  0
    0.6431    0.6076   -4.6797 H   0  0  0  0  0  0  0  0  0  0  0  0
   -1.1245    0.5998   -4.8369 H   0  0  0  0  0  0  0  0  0  0  0  0
   -0.1445    2.1364   -5.8998 N   0  0  0  0  0  0  0  0  0  0  0  0
   -0.0658    1.6073   -6.7683 H   0  0  0  0  0  0  0  0  0  0  0  0
   -0.9311    2.7846   -5.9363 H   0  0  0  0  0  0  0  0  0  0  0  0
   -0.6031    2.0954    1.5943 C   0  0  0  0  0  0  0  0  0  0  0  0
   -0.2360    3.2637    1.5684 O   0  0  0  0  0  0  0  0  0  0  0  0
   -0.9506    1.5278    2.8055 N   0  0  0  0  0  0  0  0  0  0  0  0
   -1.1353    0.5234    2.7891 H   0  0  0  0  0  0  0  0  0  0  0  0
   -0.7899    2.2006    4.0875 C   0  0  0  0  0  0  0  0  0  0  0  0
   -1.3742    3.1264    4.1103 H   0  0  0  0  0  0  0  0  0  0  0  0
   -1.1371    1.5538    4.8986 H   0  0  0  0  0  0  0  0  0  0  0  0
    0.2632    2.4437    4.2633 H   0  0  0  0  0  0  0  0  0  0  0  0
  1  2  1  0  0  0  0
  2  3  1  0  0  0  0
  2  4  1  0  0  0  0
  2  5  1  0  0  0  0
  5  6  2  0  0  0  0
  5  7  1  0  0  0  0
  7  8  1  0  0  0  0
  7  9  1  0  0  0  0
  9 10  1  0  0  0  0
  9 11  1  0  0  0  0
  9 26  1  0  0  0  0
 11 12  1  0  0  0  0
 11 13  1  0  0  0  0
 11 14  1  0  0  0  0
 14 15  1  0  0  0  0
 14 16  1  0  0  0  0
 14 17  1  0  0  0  0
 17 18  1  0  0  0  0
 17 19  1  0  0  0  0
 17 20  1  0  0  0  0
 20 21  1  0  0  0  0
 20 22  1  0  0  0  0
 20 23  1  0  0  0  0
 23 24  1  0  0  0  0
 23 25  1  0  0  0  0
 26 27  2  0  0  0  0
 26 28  1  0  0  0  0
 28 29  1  0  0  0  0
 28 30  1  0  0  0  0
 30 31  1  0  0  0  0
 30 32  1  0  0  0  0
 30 33  1  0  0  0  0
M  END
$$$$

  -OEChem-01062216083D

 33 32  0     1  0  0  0  0  0999 V2000
   -3.4923   -2.4195    1.0896 H   0  0  0  0  0  0  0  0  0  0  0  0
   -3.5303   -1.4228    0.6409 C   0  0  0  0  0  0  0  0  0  0  0  0
   -4.3145   -0.8437    1.1348 H   0  0  0  0  0  0  0  0  0  0  0  0
   -3.7743   -1.5242   -0.4194 H   0  0  0  0  0  0  0  0  0  0  0  0
   -2.1927   -0.7260    0.8026 C   0  0  0  0  0  0  0  0  0  0  0  0
   -1.3023   -1.2451    1.4587 O   0  0  0  0  0  0  0  0  0  0  0  0
   -2.0028    0.5357    0.2793 N   0  0  0  0  0  0  0  0  0  0  0  0
   -2.7833    0.9648   -0.2095 H   0  0  0  0  0  0  0  0  0  0  0  0
   -0.7123    1.2449    0.2940 C   0  0  1  0  0  0  0  0  0  0  0  0
    0.1156    0.5275    0.2895 H   0  0  0  0  0  0  0  0  0  0  0  0
   -0.6047    2.0970   -0.9857 C   0  0  0  0  0  0  0  0  0  0  0  0
   -1.4771    2.7544   -1.0661 H   0  0  0  0  0  0  0  0  0  0  0  0
    0.2834    2.7353   -0.9170 H   0  0  0  0  0  0  0  0  0  0  0  0
   -0.4814    1.2250   -2.2441 C   0  0  0  0  0  0  0  0  0  0  0  0
    0.3988    0.5791   -2.1576 H   0  0  0  0  0  0  0  0  0  0  0  0
   -1.3624    0.5828   -2.3413 H   0  0  0  0  0  0  0  0  0  0  0  0
   -0.3519    2.1037   -3.4929 C   0  0  0  0  0  0  0  0  0  0  0  0
   -1.2227    2.7629   -3.5683 H   0  0  0  0  0  0  0  0  0  0  0  0
    0.5411    2.7324   -3.4105 H   0  0  0  0  0  0  0  0  0  0  0  0
   -0.2531    1.2494   -4.7534 C   0  0  0  0  0  0  0  0  0  0  0  0
    0.6311    0.6043   -4.7016 H   0  0  0  0  0  0  0  0  0  0  0  0
   -1.1370    0.6087   -4.8440 H   0  0  0  0  0  0  0  0  0  0  0  0
   -0.1557    2.1399   -5.9135 N   0  0  0  0  0  0  0  0  0  0  0  0
   -0.0929    1.6113   -6.7836 H   0  0  0  0  0  0  0  0  0  0  0  0
   -0.9361    2.7961   -5.9405 H   0  0  0  0  0  0  0  0  0  0  0  0
   -0.5714    2.0856    1.5834 C   0  0  0  0  0  0  0  0  0  0  0  0
   -0.4551    3.3049    1.5598 O   0  0  0  0  0  0  0  0  0  0  0  0
   -0.6137    1.4322    2.7999 N   0  0  0  0  0  0  0  0  0  0  0  0
   -0.7208    0.4165    2.7669 H   0  0  0  0  0  0  0  0  0  0  0  0
   -0.5051    2.1019    4.0886 C   0  0  0  0  0  0  0  0  0  0  0  0
   -1.3086    2.8362    4.2073 H   0  0  0  0  0  0  0  0  0  0  0  0
   -0.5807    1.3721    4.9003 H   0  0  0  0  0  0  0  0  0  0  0  0
    0.4582    2.6154    4.1728 H   0  0  0  0  0  0  0  0  0  0  0  0
  1  2  1  0  0  0  0
  2  3  1  0  0  0  0
  2  4  1  0  0  0  0
  2  5  1  0  0  0  0
  5  6  2  0  0  0  0
  5  7  1  0  0  0  0
  7  8  1  0  0  0  0
  7  9  1  0  0  0  0
  9 10  1  0  0  0  0
  9 11  1  0  0  0  0
  9 26  1  0  0  0  0
 11 12  1  0  0  0  0
 11 13  1  0  0  0  0
 11 14  1  0  0  0  0
 14 15  1  0  0  0  0
 14 16  1  0  0  0  0
 14 17  1  0  0  0  0
 17 18  1  0  0  0  0
 17 19  1  0  0  0  0
 17 20  1  0  0  0  0
 20 21  1  0  0  0  0
 20 22  1  0  0  0  0
 20 23  1  0  0  0  0
 23 24  1  0  0  0  0
 23 25  1  0  0  0  0
 26 27  2  0  0  0  0
 26 28  1  0  0  0  0
 28 29  1  0  0  0  0
 28 30  1  0  0  0  0
 30 31  1  0  0  0  0
 30 32  1  0  0  0  0
 30 33  1  0  0  0  0
M  END
$$$$

  -OEChem-01062216083D

 33 32  0     1  0  0  0  0  0999 V2000
   -3.4736   -2.3962    1.1610 H   0  0  0  0  0  0  0  0  0  0  0  0
   -3.5147   -1.4035    0.7038 C   0  0  0  0  0  0  0  0  0  0  0  0
   -4.2740   -0.8094    1.2184 H   0  0  0  0  0  0  0  0  0  0  0  0
   -3.7957   -1.5118   -0.3466 H   0  0  0  0  0  0  0  0  0  0  0  0
   -2.1637   -0.7228    0.8110 C   0  0  0  0  0  0  0  0  0  0  0  0
   -1.2502   -1.2567    1.4228 O   0  0  0  0  0  0  0  0  0  0  0  0
   -1.9796    0.5350    0.2758 N   0  0  0  0  0  0  0  0  0  0  0  0
   -2.7809    0.9934   -0.1489 H   0  0  0  0  0  0  0  0  0  0  0  0
   -0.6874    1.2375    0.2803 C   0  0  1  0  0  0  0  0  0  0  0  0
    0.1407    0.5203    0.2705 H   0  0  0  0  0  0  0  0  0  0  0  0
   -0.5821    2.0934   -0.9961 C   0  0  0  0  0  0  0  0  0  0  0  0
   -1.4527    2.7538   -1.0709 H   0  0  0  0  0  0  0  0  0  0  0  0
    0.3079    2.7287   -0.9265 H   0  0  0  0  0  0  0  0  0  0  0  0
   -0.4716    1.2257   -2.2581 C   0  0  0  0  0  0  0  0  0  0  0  0
    0.4048    0.5736   -2.1793 H   0  0  0  0  0  0  0  0  0  0  0  0
   -1.3576    0.5899   -2.3526 H   0  0  0  0  0  0  0  0  0  0  0  0
   -0.3439    2.1084   -3.5041 C   0  0  0  0  0  0  0  0  0  0  0  0
   -1.2108    2.7735   -3.5724 H   0  0  0  0  0  0  0  0  0  0  0  0
    0.5537    2.7308   -3.4249 H   0  0  0  0  0  0  0  0  0  0  0  0
   -0.2579    1.2566   -4.7672 C   0  0  0  0  0  0  0  0  0  0  0  0
    0.6223    0.6054   -4.7219 H   0  0  0  0  0  0  0  0  0  0  0  0
   -1.1469    0.6221   -4.8535 H   0  0  0  0  0  0  0  0  0  0  0  0
   -0.1615    2.1478   -5.9267 N   0  0  0  0  0  0  0  0  0  0  0  0
   -0.1089    1.6191   -6.7974 H   0  0  0  0  0  0  0  0  0  0  0  0
   -0.9374    2.8094   -5.9477 H   0  0  0  0  0  0  0  0  0  0  0  0
   -0.5492    2.0807    1.5652 C   0  0  0  0  0  0  0  0  0  0  0  0
   -0.6815    3.2988    1.5634 O   0  0  0  0  0  0  0  0  0  0  0  0
   -0.2805    1.4222    2.7490 N   0  0  0  0  0  0  0  0  0  0  0  0
   -0.3120    0.4019    2.7137 H   0  0  0  0  0  0  0  0  0  0  0  0
   -0.2059    2.0876    4.0422 C   0  0  0  0  0  0  0  0  0  0  0  0
   -1.1556    2.5805    4.2747 H   0  0  0  0  0  0  0  0  0  0  0  0
    0.0092    1.3588    4.8294 H   0  0  0  0  0  0  0  0  0  0  0  0
    0.5910    2.8387    4.0400 H   0  0  0  0  0  0  0  0  0  0  0  0
  1  2  1  0  0  0  0
  2  3  1  0  0  0  0
  2  4  1  0  0  0  0
  2  5  1  0  0  0  0
  5  6  2  0  0  0  0
  5  7  1  0  0  0  0
  7  8  1  0  0  0  0
  7  9  1  0  0  0  0
  9 10  1  0  0  0  0
  9 11  1  0  0  0  0
  9 26  1  0  0  0  0
 11 12  1  0  0  0  0
 11 13  1  0  0  0  0
 11 14  1  0  0  0  0
 14 15  1  0  0  0  0
 14 16  1  0  0  0  0
 14 17  1  0  0  0  0
 17 18  1  0  0  0  0
 17 19  1  0  0  0  0
 17 20  1  0  0  0  0
 20 21  1  0  0  0  0
 20 22  1  0  0  0  0
 20 23  1  0  0  0  0
 23 24  1  0  0  0  0
 23 25  1  0  0  0  0
 26 27  2  0  0  0  0
 26 28  1  0  0  0  0
 28 29  1  0  0  0  0
 28 30  1  0  0  0  0
 30 31  1  0  0  0  0
 30 32  1  0  0  0  0
 30 33  1  0  0  0  0
M  END
$$$$

  -OEChem-01062216083D

 33 32  0     1  0  0  0  0  0999 V2000
   -3.4769   -2.3748    1.2411 H   0  0  0  0  0  0  0  0  0  0  0  0
   -3.5187   -1.3871    0.7735 C   0  0  0  0  0  0  0  0  0  0  0  0
   -4.2326   -0.7679    1.3221 H   0  0  0  0  0  0  0  0  0  0  0  0
   -3.8613   -1.5007   -0.2578 H   0  0  0  0  0  0  0  0  0  0  0  0
   -2.1469   -0.7405    0.7950 C   0  0  0  0  0  0  0  0  0  0  0  0
   -1.2061   -1.3095    1.3289 O   0  0  0  0  0  0  0  0  0  0  0  0
   -1.9683    0.5160    0.2550 N   0  0  0  0  0  0  0  0  0  0  0  0
   -2.7928    1.0178   -0.0634 H   0  0  0  0  0  0  0  0  0  0  0  0
   -0.6794    1.2213    0.2628 C   0  0  1  0  0  0  0  0  0  0  0  0
    0.1524    0.5087    0.2509 H   0  0  0  0  0  0  0  0  0  0  0  0
   -0.5750    2.0840   -1.0084 C   0  0  0  0  0  0  0  0  0  0  0  0
   -1.4488    2.7407   -1.0823 H   0  0  0  0  0  0  0  0  0  0  0  0
    0.3120    2.7226   -0.9338 H   0  0  0  0  0  0  0  0  0  0  0  0
   -0.4617    1.2232   -2.2749 C   0  0  0  0  0  0  0  0  0  0  0  0
    0.4157    0.5720   -2.1991 H   0  0  0  0  0  0  0  0  0  0  0  0
   -1.3468    0.5865   -2.3730 H   0  0  0  0  0  0  0  0  0  0  0  0
   -0.3349    2.1126   -3.5164 C   0  0  0  0  0  0  0  0  0  0  0  0
   -1.2036    2.7756   -3.5816 H   0  0  0  0  0  0  0  0  0  0  0  0
    0.5612    2.7368   -3.4333 H   0  0  0  0  0  0  0  0  0  0  0  0
   -0.2461    1.2688   -4.7844 C   0  0  0  0  0  0  0  0  0  0  0  0
    0.6350    0.6190   -4.7423 H   0  0  0  0  0  0  0  0  0  0  0  0
   -1.1340    0.6333   -4.8760 H   0  0  0  0  0  0  0  0  0  0  0  0
   -0.1507    2.1691   -5.9373 N   0  0  0  0  0  0  0  0  0  0  0  0
   -0.0906    1.6472   -6.8115 H   0  0  0  0  0  0  0  0  0  0  0  0
   -0.9311    2.8256   -5.9569 H   0  0  0  0  0  0  0  0  0  0  0  0
   -0.5499    2.0692    1.5441 C   0  0  0  0  0  0  0  0  0  0  0  0
   -0.9470    3.2275    1.5879 O   0  0  0  0  0  0  0  0  0  0  0  0
    0.0150    1.4941    2.6659 N   0  0  0  0  0  0  0  0  0  0  0  0
    0.1581    0.4852    2.6294 H   0  0  0  0  0  0  0  0  0  0  0  0
    0.0933    2.1695    3.9545 C   0  0  0  0  0  0  0  0  0  0  0  0
   -0.9092    2.4109    4.3227 H   0  0  0  0  0  0  0  0  0  0  0  0
    0.5877    1.5260    4.6884 H   0  0  0  0  0  0  0  0  0  0  0  0
    0.6690    3.0967    3.8659 H   0  0  0  0  0  0  0  0  0  0  0  0
  1  2  1  0  0  0  0
  2  3  1  0  0  0  0
  2  4  1  0  0  0  0
  2  5  1  0  0  0  0
  5  6  2  0  0  0  0
  5  7  1  0  0  0  0
  7  8  1  0  0  0  0
  7  9  1  0  0  0  0
  9 10  1  0  0  0  0
  9 11  1  0  0  0  0
  9 26  1  0  0  0  0
 11 12  1  0  0  0  0
 11 13  1  0  0  0  0
 11 14  1  0  0  0  0
 14 15  1  0  0  0  0
 14 16  1  0  0  0  0
 14 17  1  0  0  0  0
 17 18  1  0  0  0  0
 17 19  1  0  0  0  0
 17 20  1  0  0  0  0
 20 21  1  0  0  0  0
 20 22  1  0  0  0  0
 20 23  1  0  0  0  0
 23 24  1  0  0  0  0
 23 25  1  0  0  0  0
 26 27  2  0  0  0  0
 26 28  1  0  0  0  0
 28 29  1  0  0  0  0
 28 30  1  0  0  0  0
 30 31  1  0  0  0  0
 30 32  1  0  0  0  0
 30 33  1  0  0  0  0
M  END
$$$$

  -OEChem-01062216083D

 33 32  0     1  0  0  0  0  0999 V2000
   -3.4850   -2.3572    1.3255 H   0  0  0  0  0  0  0  0  0  0  0  0
   -3.5294   -1.3735    0.8498 C   0  0  0  0  0  0  0  0  0  0  0  0
   -4.1866   -0.7277    1.4373 H   0  0  0  0  0  0  0  0  0  0  0  0
   -3.9436   -1.4866   -0.1549 H   0  0  0  0  0  0  0  0  0  0  0  0
   -2.1410   -0.7674    0.7721 C   0  0  0  0  0  0  0  0  0  0  0  0
   -1.1798   -1.3763    1.2176 O   0  0  0  0  0  0  0  0  0  0  0  0
   -1.9692    0.4889    0.2288 N   0  0  0  0  0  0  0  0  0  0  0  0
   -2.8080    1.0283    0.0309 H   0  0  0  0  0  0  0  0  0  0  0  0
   -0.6838    1.2006    0.2423 C   0  0  1  0  0  0  0  0  0  0  0  0
    0.1504    0.4910    0.2305 H   0  0  0  0  0  0  0  0  0  0  0  0
   -0.5761    2.0718   -1.0217 C   0  0  0  0  0  0  0  0  0  0  0  0
   -1.4521    2.7251   -1.0956 H   0  0  0  0  0  0  0  0  0  0  0  0
    0.3076    2.7138   -0.9381 H   0  0  0  0  0  0  0  0  0  0  0  0
   -0.4543    1.2195   -2.2932 C   0  0  0  0  0  0  0  0  0  0  0  0
    0.4240    0.5695   -2.2177 H   0  0  0  0  0  0  0  0  0  0  0  0
   -1.3375    0.5813   -2.3996 H   0  0  0  0  0  0  0  0  0  0  0  0
   -0.3241    2.1183   -3.5277 C   0  0  0  0  0  0  0  0  0  0  0  0
   -1.1948    2.7788   -3.5924 H   0  0  0  0  0  0  0  0  0  0  0  0
    0.5694    2.7449   -3.4358 H   0  0  0  0  0  0  0  0  0  0  0  0
   -0.2267    1.2847   -4.8020 C   0  0  0  0  0  0  0  0  0  0  0  0
    0.6560    0.6368   -4.7611 H   0  0  0  0  0  0  0  0  0  0  0  0
   -1.1123    0.6475   -4.9029 H   0  0  0  0  0  0  0  0  0  0  0  0
   -0.1285    2.1951   -5.9467 N   0  0  0  0  0  0  0  0  0  0  0  0
   -0.0600    1.6809   -6.8248 H   0  0  0  0  0  0  0  0  0  0  0  0
   -0.9127    2.8469   -5.9659 H   0  0  0  0  0  0  0  0  0  0  0  0
   -0.5611    2.0550    1.5197 C   0  0  0  0  0  0  0  0  0  0  0  0
   -1.2028    3.0920    1.6410 O   0  0  0  0  0  0  0  0  0  0  0  0
    0.2633    1.6353    2.5462 N   0  0  0  0  0  0  0  0  0  0  0  0
    0.6288    0.6880    2.4758 H   0  0  0  0  0  0  0  0  0  0  0  0
    0.3579    2.3294    3.8243 C   0  0  0  0  0  0  0  0  0  0  0  0
   -0.6143    2.3398    4.3279 H   0  0  0  0  0  0  0  0  0  0  0  0
    1.0808    1.8271    4.4743 H   0  0  0  0  0  0  0  0  0  0  0  0
    0.6889    3.3626    3.6752 H   0  0  0  0  0  0  0  0  0  0  0  0
  1  2  1  0  0  0  0
  2  3  1  0  0  0  0
  2  4  1  0  0  0  0
  2  5  1  0  0  0  0
  5  6  2  0  0  0  0
  5  7  1  0  0  0  0
  7  8  1  0  0  0  0
  7  9  1  0  0  0  0
  9 10  1  0  0  0  0
  9 11  1  0  0  0  0
  9 26  1  0  0  0  0
 11 12  1  0  0  0  0
 11 13  1  0  0  0  0
 11 14  1  0  0  0  0
 14 15  1  0  0  0  0
 14 16  1  0  0  0  0
 14 17  1  0  0  0  0
 17 18  1  0  0  0  0
 17 19  1  0  0  0  0
 17 20  1  0  0  0  0
 20 21  1  0  0  0  0
 20 22  1  0  0  0  0
 20 23  1  0  0  0  0
 23 24  1  0  0  0  0
 23 25  1  0  0  0  0
 26 27  2  0  0  0  0
 26 28  1  0  0  0  0
 28 29  1  0  0  0  0
 28 30  1  0  0  0  0
 30 31  1  0  0  0  0
 30 32  1  0  0  0  0
 30 33  1  0  0  0  0
M  END
$$$$

  -OEChem-01062216083D

 33 32  0     1  0  0  0  0  0999 V2000
   -3.4900   -2.3479    1.3773 H   0  0  0  0  0  0  0  0  0  0  0  0
   -3.5374   -1.3673    0.8954 C   0  0  0  0  0  0  0  0  0  0  0  0
   -4.1579   -0.7054    1.5046 H   0  0  0  0  0  0  0  0  0  0  0  0
   -3.9953   -1.4812   -0.0900 H   0  0  0  0  0  0  0  0  0  0  0  0
   -2.1431   -0.7865    0.7537 C   0  0  0  0  0  0  0  0  0  0  0  0
   -1.1737   -1.4224    1.1386 O   0  0  0  0  0  0  0  0  0  0  0  0
   -1.9759    0.4697    0.2081 N   0  0  0  0  0  0  0  0  0  0  0  0
   -2.8175    1.0283    0.0894 H   0  0  0  0  0  0  0  0  0  0  0  0
   -0.6929    1.1866    0.2297 C   0  0  1  0  0  0  0  0  0  0  0  0
    0.1422    0.4781    0.2216 H   0  0  0  0  0  0  0  0  0  0  0  0
   -0.5820    2.0651   -1.0276 C   0  0  0  0  0  0  0  0  0  0  0  0
   -1.4607    2.7153   -1.1009 H   0  0  0  0  0  0  0  0  0  0  0  0
    0.2993    2.7094   -0.9370 H   0  0  0  0  0  0  0  0  0  0  0  0
   -0.4516    1.2199   -2.3026 C   0  0  0  0  0  0  0  0  0  0  0  0
    0.4279    0.5721   -2.2258 H   0  0  0  0  0  0  0  0  0  0  0  0
   -1.3326    0.5799   -2.4157 H   0  0  0  0  0  0  0  0  0  0  0  0
   -0.3182    2.1237   -3.5329 C   0  0  0  0  0  0  0  0  0  0  0  0
   -1.1909    2.7814   -3.5995 H   0  0  0  0  0  0  0  0  0  0  0  0
    0.5725    2.7531   -3.4346 H   0  0  0  0  0  0  0  0  0  0  0  0
   -0.2123    1.2945   -4.8093 C   0  0  0  0  0  0  0  0  0  0  0  0
    0.6722    0.6491   -4.7659 H   0  0  0  0  0  0  0  0  0  0  0  0
   -1.0955    0.6549   -4.9165 H   0  0  0  0  0  0  0  0  0  0  0  0
   -0.1110    2.2082   -5.9511 N   0  0  0  0  0  0  0  0  0  0  0  0
   -0.0361    1.6961   -6.8300 H   0  0  0  0  0  0  0  0  0  0  0  0
   -0.8976    2.8571   -5.9732 H   0  0  0  0  0  0  0  0  0  0  0  0
   -0.5751    2.0474    1.5030 C   0  0  0  0  0  0  0  0  0  0  0  0
   -1.3988    2.9270    1.7270 O   0  0  0  0  0  0  0  0  0  0  0  0
    0.4531    1.8277    2.4002 N   0  0  0  0  0  0  0  0  0  0  0  0
    1.0212    0.9971    2.2544 H   0  0  0  0  0  0  0  0  0  0  0  0
    0.5762    2.5483    3.6611 C   0  0  0  0  0  0  0  0  0  0  0  0
   -0.3024    2.3732    4.2909 H   0  0  0  0  0  0  0  0  0  0  0  0
    1.4647    2.2114    4.2037 H   0  0  0  0  0  0  0  0  0  0  0  0
    0.6711    3.6241    3.4796 H   0  0  0  0  0  0  0  0  0  0  0  0
  1  2  1  0  0  0  0
  2  3  1  0  0  0  0
  2  4  1  0  0  0  0
  2  5  1  0  0  0  0
  5  6  2  0  0  0  0
  5  7  1  0  0  0  0
  7  8  1  0  0  0  0
  7  9  1  0  0  0  0
  9 10  1  0  0  0  0
  9 11  1  0  0  0  0
  9 26  1  0  0  0  0
 11 12  1  0  0  0  0
 11 13  1  0  0  0  0
 11 14  1  0  0  0  0
 14 15  1  0  0  0  0
 14 16  1  0  0  0  0
 14 17  1  0  0  0  0
 17 18  1  0  0  0  0
 17 19  1  0  0  0  0
 17 20  1  0  0  0  0
 20 21  1  0  0  0  0
 20 22  1  0  0  0  0
 20 23  1  0  0  0  0
 23 24  1  0  0  0  0
 23 25  1  0  0  0  0
 26 27  2  0  0  0  0
 26 28  1  0  0  0  0
 28 29  1  0  0  0  0
 28 30  1  0  0  0  0
 30 31  1  0  0  0  0
 30 32  1  0  0  0  0
 30 33  1  0  0  0  0
M  END
$$$$

  -OEChem-01062216083D

 33 32  0     1  0  0  0  0  0999 V2000
   -3.4833   -2.3446    1.4139 H   0  0  0  0  0  0  0  0  0  0  0  0
   -3.5384   -1.3560    0.9494 C   0  0  0  0  0  0  0  0  0  0  0  0
   -4.1092   -0.6917    1.6029 H   0  0  0  0  0  0  0  0  0  0  0  0
   -4.0536   -1.4448   -0.0100 H   0  0  0  0  0  0  0  0  0  0  0  0
   -2.1433   -0.7992    0.7383 C   0  0  0  0  0  0  0  0  0  0  0  0
   -1.1680   -1.4543    1.0726 O   0  0  0  0  0  0  0  0  0  0  0  0
   -1.9850    0.4557    0.1865 N   0  0  0  0  0  0  0  0  0  0  0  0
   -2.8262    1.0256    0.1382 H   0  0  0  0  0  0  0  0  0  0  0  0
   -0.7039    1.1768    0.2157 C   0  0  1  0  0  0  0  0  0  0  0  0
    0.1331    0.4707    0.2151 H   0  0  0  0  0  0  0  0  0  0  0  0
   -0.5880    2.0600   -1.0367 C   0  0  0  0  0  0  0  0  0  0  0  0
   -1.4674    2.7090   -1.1113 H   0  0  0  0  0  0  0  0  0  0  0  0
    0.2915    2.7056   -0.9398 H   0  0  0  0  0  0  0  0  0  0  0  0
   -0.4488    1.2198   -2.3138 C   0  0  0  0  0  0  0  0  0  0  0  0
    0.4311    0.5727   -2.2349 H   0  0  0  0  0  0  0  0  0  0  0  0
   -1.3286    0.5791   -2.4339 H   0  0  0  0  0  0  0  0  0  0  0  0
   -0.3104    2.1291   -3.5391 C   0  0  0  0  0  0  0  0  0  0  0  0
   -1.1834    2.7862   -3.6083 H   0  0  0  0  0  0  0  0  0  0  0  0
    0.5790    2.7593   -3.4335 H   0  0  0  0  0  0  0  0  0  0  0  0
   -0.1961    1.3027   -4.8163 C   0  0  0  0  0  0  0  0  0  0  0  0
    0.6885    0.6577   -4.7689 H   0  0  0  0  0  0  0  0  0  0  0  0
   -1.0780    0.6626   -4.9295 H   0  0  0  0  0  0  0  0  0  0  0  0
   -0.0899    2.2181   -5.9563 N   0  0  0  0  0  0  0  0  0  0  0  0
   -0.0063    1.7067   -6.8348 H   0  0  0  0  0  0  0  0  0  0  0  0
   -0.8795    2.8630   -5.9842 H   0  0  0  0  0  0  0  0  0  0  0  0
   -0.5952    2.0443    1.4855 C   0  0  0  0  0  0  0  0  0  0  0  0
   -1.5423    2.7420    1.8315 O   0  0  0  0  0  0  0  0  0  0  0  0
    0.5705    2.0555    2.2281 N   0  0  0  0  0  0  0  0  0  0  0  0
    1.2869    1.3795    1.9778 H   0  0  0  0  0  0  0  0  0  0  0  0
    0.7118    2.7985    3.4738 C   0  0  0  0  0  0  0  0  0  0  0  0
   -0.0070    2.4389    4.2175 H   0  0  0  0  0  0  0  0  0  0  0  0
    1.7210    2.6719    3.8772 H   0  0  0  0  0  0  0  0  0  0  0  0
    0.5395    3.8667    3.3046 H   0  0  0  0  0  0  0  0  0  0  0  0
  1  2  1  0  0  0  0
  2  3  1  0  0  0  0
  2  4  1  0  0  0  0
  2  5  1  0  0  0  0
  5  6  2  0  0  0  0
  5  7  1  0  0  0  0
  7  8  1  0  0  0  0
  7  9  1  0  0  0  0
  9 10  1  0  0  0  0
  9 11  1  0  0  0  0
  9 26  1  0  0  0  0
 11 12  1  0  0  0  0
 11 13  1  0  0  0  0
 11 14  1  0  0  0  0
 14 15  1  0  0  0  0
 14 16  1  0  0  0  0
 14 17  1  0  0  0  0
 17 18  1  0  0  0  0
 17 19  1  0  0  0  0
 17 20  1  0  0  0  0
 20 21  1  0  0  0  0
 20 22  1  0  0  0  0
 20 23  1  0  0  0  0
 23 24  1  0  0  0  0
 23 25  1  0  0  0  0
 26 27  2  0  0  0  0
 26 28  1  0  0  0  0
 28 29  1  0  0  0  0
 28 30  1  0  0  0  0
 30 31  1  0  0  0  0
 30 32  1  0  0  0  0
 30 33  1  0  0  0  0
M  END
$$$$

  -OEChem-01062216083D

 33 32  0     1  0  0  0  0  0999 V2000
   -3.4875   -2.3384    1.4402 H   0  0  0  0  0  0  0  0  0  0  0  0
   -3.5443   -1.3591    0.9567 C   0  0  0  0  0  0  0  0  0  0  0  0
   -4.1068   -0.6801    1.6024 H   0  0  0  0  0  0  0  0  0  0  0  0
   -4.0695   -1.4652    0.0046 H   0  0  0  0  0  0  0  0  0  0  0  0
   -2.1499   -0.8110    0.7199 C   0  0  0  0  0  0  0  0  0  0  0  0
   -1.1728   -1.4807    1.0179 O   0  0  0  0  0  0  0  0  0  0  0  0
   -1.9963    0.4468    0.1737 N   0  0  0  0  0  0  0  0  0  0  0  0
   -2.8367    1.0196    0.1665 H   0  0  0  0  0  0  0  0  0  0  0  0
   -0.7177    1.1733    0.2172 C   0  0  1  0  0  0  0  0  0  0  0  0
    0.1214    0.4698    0.2215 H   0  0  0  0  0  0  0  0  0  0  0  0
   -0.6013    2.0590   -1.0335 C   0  0  0  0  0  0  0  0  0  0  0  0
   -1.4847    2.7023   -1.1109 H   0  0  0  0  0  0  0  0  0  0  0  0
    0.2736    2.7100   -0.9325 H   0  0  0  0  0  0  0  0  0  0  0  0
   -0.4500    1.2210   -2.3110 C   0  0  0  0  0  0  0  0  0  0  0  0
    0.4342    0.5802   -2.2284 H   0  0  0  0  0  0  0  0  0  0  0  0
   -1.3238    0.5735   -2.4366 H   0  0  0  0  0  0  0  0  0  0  0  0
   -0.3116    2.1312   -3.5357 C   0  0  0  0  0  0  0  0  0  0  0  0
   -1.1887    2.7821   -3.6093 H   0  0  0  0  0  0  0  0  0  0  0  0
    0.5729    2.7673   -3.4262 H   0  0  0  0  0  0  0  0  0  0  0  0
   -0.1850    1.3060   -4.8128 C   0  0  0  0  0  0  0  0  0  0  0  0
    0.7049    0.6687   -4.7614 H   0  0  0  0  0  0  0  0  0  0  0  0
   -1.0610    0.6583   -4.9303 H   0  0  0  0  0  0  0  0  0  0  0  0
   -0.0797    2.2229   -5.9517 N   0  0  0  0  0  0  0  0  0  0  0  0
    0.0188    1.7126   -6.8295 H   0  0  0  0  0  0  0  0  0  0  0  0
   -0.8780    2.8569   -5.9868 H   0  0  0  0  0  0  0  0  0  0  0  0
   -0.6132    2.0409    1.4892 C   0  0  0  0  0  0  0  0  0  0  0  0
   -1.6196    2.5510    1.9700 O   0  0  0  0  0  0  0  0  0  0  0  0
    0.6197    2.2989    2.0597 N   0  0  0  0  0  0  0  0  0  0  0  0
    1.4228    1.8071    1.6788 H   0  0  0  0  0  0  0  0  0  0  0  0
    0.7899    3.0890    3.2729 C   0  0  0  0  0  0  0  0  0  0  0  0
    0.2516    2.6294    4.1085 H   0  0  0  0  0  0  0  0  0  0  0  0
    1.8499    3.1517    3.5369 H   0  0  0  0  0  0  0  0  0  0  0  0
    0.4110    4.1057    3.1253 H   0  0  0  0  0  0  0  0  0  0  0  0
  1  2  1  0  0  0  0
  2  3  1  0  0  0  0
  2  4  1  0  0  0  0
  2  5  1  0  0  0  0
  5  6  2  0  0  0  0
  5  7  1  0  0  0  0
  7  8  1  0  0  0  0
  7  9  1  0  0  0  0
  9 10  1  0  0  0  0
  9 11  1  0  0  0  0
  9 26  1  0  0  0  0
 11 12  1  0  0  0  0
 11 13  1  0  0  0  0
 11 14  1  0  0  0  0
 14 15  1  0  0  0  0
 14 16  1  0  0  0  0
 14 17  1  0  0  0  0
 17 18  1  0  0  0  0
 17 19  1  0  0  0  0
 17 20  1  0  0  0  0
 20 21  1  0  0  0  0
 20 22  1  0  0  0  0
 20 23  1  0  0  0  0
 23 24  1  0  0  0  0
 23 25  1  0  0  0  0
 26 27  2  0  0  0  0
 26 28  1  0  0  0  0
 28 29  1  0  0  0  0
 28 30  1  0  0  0  0
 30 31  1  0  0  0  0
 30 32  1  0  0  0  0
 30 33  1  0  0  0  0
M  END
$$$$

  -OEChem-01062216083D

 33 32  0     1  0  0  0  0  0999 V2000
   -3.4803   -2.3385    1.4486 H   0  0  0  0  0  0  0  0  0  0  0  0
   -3.5431   -1.3547    0.9751 C   0  0  0  0  0  0  0  0  0  0  0  0
   -4.0802   -0.6768    1.6432 H   0  0  0  0  0  0  0  0  0  0  0  0
   -4.0971   -1.4486    0.0381 H   0  0  0  0  0  0  0  0  0  0  0  0
   -2.1517   -0.8155    0.7024 C   0  0  0  0  0  0  0  0  0  0  0  0
   -1.1727   -1.4984    0.9620 O   0  0  0  0  0  0  0  0  0  0  0  0
   -2.0047    0.4450    0.1594 N   0  0  0  0  0  0  0  0  0  0  0  0
   -2.8443    1.0181    0.1875 H   0  0  0  0  0  0  0  0  0  0  0  0
   -0.7270    1.1743    0.2156 C   0  0  1  0  0  0  0  0  0  0  0  0
    0.1150    0.4741    0.2257 H   0  0  0  0  0  0  0  0  0  0  0  0
   -0.6101    2.0604   -1.0363 C   0  0  0  0  0  0  0  0  0  0  0  0
   -1.4975    2.6973   -1.1182 H   0  0  0  0  0  0  0  0  0  0  0  0
    0.2601    2.7175   -0.9364 H   0  0  0  0  0  0  0  0  0  0  0  0
   -0.4497    1.2221   -2.3123 C   0  0  0  0  0  0  0  0  0  0  0  0
    0.4373    0.5856   -2.2254 H   0  0  0  0  0  0  0  0  0  0  0  0
   -1.3201    0.5701   -2.4405 H   0  0  0  0  0  0  0  0  0  0  0  0
   -0.3109    2.1325   -3.5373 C   0  0  0  0  0  0  0  0  0  0  0  0
   -1.1906    2.7796   -3.6147 H   0  0  0  0  0  0  0  0  0  0  0  0
    0.5705    2.7725   -3.4247 H   0  0  0  0  0  0  0  0  0  0  0  0
   -0.1754    1.3068   -4.8130 C   0  0  0  0  0  0  0  0  0  0  0  0
    0.7177    0.6746   -4.7567 H   0  0  0  0  0  0  0  0  0  0  0  0
   -1.0470    0.6541   -4.9331 H   0  0  0  0  0  0  0  0  0  0  0  0
   -0.0700    2.2221   -5.9533 N   0  0  0  0  0  0  0  0  0  0  0  0
    0.0347    1.7101   -6.8294 H   0  0  0  0  0  0  0  0  0  0  0  0
   -0.8715    2.8517   -5.9937 H   0  0  0  0  0  0  0  0  0  0  0  0
   -0.6265    2.0408    1.4903 C   0  0  0  0  0  0  0  0  0  0  0  0
   -1.6384    2.3536    2.1088 O   0  0  0  0  0  0  0  0  0  0  0  0
    0.5945    2.5531    1.8900 N   0  0  0  0  0  0  0  0  0  0  0  0
    1.4199    2.2453    1.3843 H   0  0  0  0  0  0  0  0  0  0  0  0
    0.7648    3.3755    3.0816 C   0  0  0  0  0  0  0  0  0  0  0  0
    0.4481    2.8263    3.9746 H   0  0  0  0  0  0  0  0  0  0  0  0
    1.8161    3.6542    3.2015 H   0  0  0  0  0  0  0  0  0  0  0  0
    0.1712    4.2923    3.0027 H   0  0  0  0  0  0  0  0  0  0  0  0
  1  2  1  0  0  0  0
  2  3  1  0  0  0  0
  2  4  1  0  0  0  0
  2  5  1  0  0  0  0
  5  6  2  0  0  0  0
  5  7  1  0  0  0  0
  7  8  1  0  0  0  0
  7  9  1  0  0  0  0
  9 10  1  0  0  0  0
  9 11  1  0  0  0  0
  9 26  1  0  0  0  0
 11 12  1  0  0  0  0
 11 13  1  0  0  0  0
 11 14  1  0  0  0  0
 14 15  1  0  0  0  0
 14 16  1  0  0  0  0
 14 17  1  0  0  0  0
 17 18  1  0  0  0  0
 17 19  1  0  0  0  0
 17 20  1  0  0  0  0
 20 21  1  0  0  0  0
 20 22  1  0  0  0  0
 20 23  1  0  0  0  0
 23 24  1  0  0  0  0
 23 25  1  0  0  0  0
 26 27  2  0  0  0  0
 26 28  1  0  0  0  0
 28 29  1  0  0  0  0
 28 30  1  0  0  0  0
 30 31  1  0  0  0  0
 30 32  1  0  0  0  0
 30 33  1  0  0  0  0
M  END
$$$$

  -OEChem-01062216083D

 33 32  0     1  0  0  0  0  0999 V2000
   -3.3824   -2.3524    1.5050 H   0  0  0  0  0  0  0  0  0  0  0  0
   -3.4882   -1.3709    1.0346 C   0  0  0  0  0  0  0  0  0  0  0  0
   -3.9731   -0.6936    1.7422 H   0  0  0  0  0  0  0  0  0  0  0  0
   -4.1142   -1.4694    0.1447 H   0  0  0  0  0  0  0  0  0  0  0  0
   -2.1251   -0.8264    0.6529 C   0  0  0  0  0  0  0  0  0  0  0  0
   -1.1280   -1.5172    0.8011 O   0  0  0  0  0  0  0  0  0  0  0  0
   -2.0203    0.4453    0.1238 N   0  0  0  0  0  0  0  0  0  0  0  0
   -2.8651    1.0021    0.2137 H   0  0  0  0  0  0  0  0  0  0  0  0
   -0.7483    1.1837    0.2007 C   0  0  1  0  0  0  0  0  0  0  0  0
    0.0844    0.5210   -0.0588 H   0  0  0  0  0  0  0  0  0  0  0  0
   -0.7979    2.3324   -0.8241 C   0  0  0  0  0  0  0  0  0  0  0  0
   -1.6937    2.9387   -0.6521 H   0  0  0  0  0  0  0  0  0  0  0  0
    0.0715    2.9835   -0.6885 H   0  0  0  0  0  0  0  0  0  0  0  0
   -0.7895    1.8077   -2.2674 C   0  0  0  0  0  0  0  0  0  0  0  0
    0.1082    1.2025   -2.4334 H   0  0  0  0  0  0  0  0  0  0  0  0
   -1.6619    1.1679   -2.4363 H   0  0  0  0  0  0  0  0  0  0  0  0
   -0.8143    2.9739   -3.2617 C   0  0  0  0  0  0  0  0  0  0  0  0
   -1.7034    3.5877   -3.0848 H   0  0  0  0  0  0  0  0  0  0  0  0
    0.0676    3.6058   -3.1129 H   0  0  0  0  0  0  0  0  0  0  0  0
   -0.8306    2.4613   -4.6987 C   0  0  0  0  0  0  0  0  0  0  0  0
    0.0695    1.8681   -4.8948 H   0  0  0  0  0  0  0  0  0  0  0  0
   -1.7034    1.8188   -4.8596 H   0  0  0  0  0  0  0  0  0  0  0  0
   -0.8781    3.6124   -5.6050 N   0  0  0  0  0  0  0  0  0  0  0  0
   -0.8723    3.3150   -6.5809 H   0  0  0  0  0  0  0  0  0  0  0  0
   -1.6883    4.2004   -5.4092 H   0  0  0  0  0  0  0  0  0  0  0  0
   -0.4752    1.7310    1.6246 C   0  0  0  0  0  0  0  0  0  0  0  0
   -1.3378    1.6691    2.4945 O   0  0  0  0  0  0  0  0  0  0  0  0
    0.6776    2.4500    1.8881 N   0  0  0  0  0  0  0  0  0  0  0  0
    1.3911    2.4717    1.1657 H   0  0  0  0  0  0  0  0  0  0  0  0
    0.9808    3.0247    3.1934 C   0  0  0  0  0  0  0  0  0  0  0  0
    1.0157    2.2412    3.9579 H   0  0  0  0  0  0  0  0  0  0  0  0
    1.9521    3.5279    3.1692 H   0  0  0  0  0  0  0  0  0  0  0  0
    0.2186    3.7586    3.4755 H   0  0  0  0  0  0  0  0  0  0  0  0
  1  2  1  0  0  0  0
  2  3  1  0  0  0  0
  2  4  1  0  0  0  0
  2  5  1  0  0  0  0
  5  6  2  0  0  0  0
  5  7  1  0  0  0  0
  7  8  1  0  0  0  0
  7  9  1  0  0  0  0
  9 10  1  0  0  0  0
  9 11  1  0  0  0  0
  9 26  1  0  0  0  0
 11 12  1  0  0  0  0
 11 13  1  0  0  0  0
 11 14  1  0  0  0  0
 14 15  1  0  0  0  0
 14 16  1  0  0  0  0
 14 17  1  0  0  0  0
 17 18  1  0  0  0  0
 17 19  1  0  0  0  0
 17 20  1  0  0  0  0
 20 21  1  0  0  0  0
 20 22  1  0  0  0  0
 20 23  1  0  0  0  0
 23 24  1  0  0  0  0
 23 25  1  0  0  0  0
 26 27  2  0  0  0  0
 26 28  1  0  0  0  0
 28 29  1  0  0  0  0
 28 30  1  0  0  0  0
 30 31  1  0  0  0  0
 30 32  1  0  0  0  0
 30 33  1  0  0  0  0
M  END
$$$$

  -OEChem-01062216083D

 33 32  0     1  0  0  0  0  0999 V2000
   -3.3829   -2.3770    1.4244 H   0  0  0  0  0  0  0  0  0  0  0  0
   -3.4853   -1.3617    1.0314 C   0  0  0  0  0  0  0  0  0  0  0  0
   -3.9288   -0.7292    1.8045 H   0  0  0  0  0  0  0  0  0  0  0  0
   -4.1465   -1.3838    0.1620 H   0  0  0  0  0  0  0  0  0  0  0  0
   -2.1256   -0.8157    0.6384 C   0  0  0  0  0  0  0  0  0  0  0  0
   -1.1329   -1.5211    0.7385 O   0  0  0  0  0  0  0  0  0  0  0  0
   -2.0230    0.4630    0.1239 N   0  0  0  0  0  0  0  0  0  0  0  0
   -2.8670    1.0173    0.2305 H   0  0  0  0  0  0  0  0  0  0  0  0
   -0.7501    1.2013    0.2049 C   0  0  1  0  0  0  0  0  0  0  0  0
    0.0830    0.5395   -0.0557 H   0  0  0  0  0  0  0  0  0  0  0  0
   -0.8031    2.3427   -0.8307 C   0  0  0  0  0  0  0  0  0  0  0  0
   -1.7010    2.9473   -0.6642 H   0  0  0  0  0  0  0  0  0  0  0  0
    0.0640    2.9979   -0.7067 H   0  0  0  0  0  0  0  0  0  0  0  0
   -0.7904    1.8056   -2.2696 C   0  0  0  0  0  0  0  0  0  0  0  0
    0.1095    1.2019   -2.4296 H   0  0  0  0  0  0  0  0  0  0  0  0
   -1.6607    1.1618   -2.4354 H   0  0  0  0  0  0  0  0  0  0  0  0
   -0.8184    2.9646   -3.2719 C   0  0  0  0  0  0  0  0  0  0  0  0
   -1.7100    3.5759   -3.1000 H   0  0  0  0  0  0  0  0  0  0  0  0
    0.0610    3.6007   -3.1261 H   0  0  0  0  0  0  0  0  0  0  0  0
   -0.8305    2.4443   -4.7062 C   0  0  0  0  0  0  0  0  0  0  0  0
    0.0722    1.8535   -4.8984 H   0  0  0  0  0  0  0  0  0  0  0  0
   -1.7007    1.7980   -4.8653 H   0  0  0  0  0  0  0  0  0  0  0  0
   -0.8812    3.5924   -5.6164 N   0  0  0  0  0  0  0  0  0  0  0  0
   -0.8754    3.2917   -6.5913 H   0  0  0  0  0  0  0  0  0  0  0  0
   -1.6924    4.1793   -5.4220 H   0  0  0  0  0  0  0  0  0  0  0  0
   -0.4681    1.7358    1.6357 C   0  0  0  0  0  0  0  0  0  0  0  0
   -1.2117    1.4523    2.5687 O   0  0  0  0  0  0  0  0  0  0  0  0
    0.5035    2.6984    1.8527 N   0  0  0  0  0  0  0  0  0  0  0  0
    1.1184    2.9260    1.0775 H   0  0  0  0  0  0  0  0  0  0  0  0
    0.7718    3.2901    3.1584 C   0  0  0  0  0  0  0  0  0  0  0  0
    1.0591    2.5159    3.8778 H   0  0  0  0  0  0  0  0  0  0  0  0
    1.5886    4.0146    3.0848 H   0  0  0  0  0  0  0  0  0  0  0  0
   -0.1163    3.8089    3.5347 H   0  0  0  0  0  0  0  0  0  0  0  0
  1  2  1  0  0  0  0
  2  3  1  0  0  0  0
  2  4  1  0  0  0  0
  2  5  1  0  0  0  0
  5  6  2  0  0  0  0
  5  7  1  0  0  0  0
  7  8  1  0  0  0  0
  7  9  1  0  0  0  0
  9 10  1  0  0  0  0
  9 11  1  0  0  0  0
  9 26  1  0  0  0  0
 11 12  1  0  0  0  0
 11 13  1  0  0  0  0
 11 14  1  0  0  0  0
 14 15  1  0  0  0  0
 14 16  1  0  0  0  0
 14 17  1  0  0  0  0
 17 18  1  0  0  0  0
 17 19  1  0  0  0  0
 17 20  1  0  0  0  0
 20 21  1  0  0  0  0
 20 22  1  0  0  0  0
 20 23  1  0  0  0  0
 23 24  1  0  0  0  0
 23 25  1  0  0  0  0
 26 27  2  0  0  0  0
 26 28  1  0  0  0  0
 28 29  1  0  0  0  0
 28 30  1  0  0  0  0
 30 31  1  0  0  0  0
 30 32  1  0  0  0  0
 30 33  1  0  0  0  0
M  END
$$$$

  -OEChem-01062216083D

 33 32  0     1  0  0  0  0  0999 V2000
   -3.3662   -2.3681    1.4242 H   0  0  0  0  0  0  0  0  0  0  0  0
   -3.4734   -1.3467    1.0484 C   0  0  0  0  0  0  0  0  0  0  0  0
   -3.8879   -0.7226    1.8440 H   0  0  0  0  0  0  0  0  0  0  0  0
   -4.1609   -1.3526    0.1996 H   0  0  0  0  0  0  0  0  0  0  0  0
   -2.1232   -0.8039    0.6206 C   0  0  0  0  0  0  0  0  0  0  0  0
   -1.1365   -1.5229    0.6622 O   0  0  0  0  0  0  0  0  0  0  0  0
   -2.0278    0.4820    0.1215 N   0  0  0  0  0  0  0  0  0  0  0  0
   -2.8731    1.0313    0.2408 H   0  0  0  0  0  0  0  0  0  0  0  0
   -0.7562    1.2244    0.2020 C   0  0  1  0  0  0  0  0  0  0  0  0
    0.0775    0.5642   -0.0613 H   0  0  0  0  0  0  0  0  0  0  0  0
   -0.8102    2.3592   -0.8426 C   0  0  0  0  0  0  0  0  0  0  0  0
   -1.7084    2.9651   -0.6823 H   0  0  0  0  0  0  0  0  0  0  0  0
    0.0585    3.0139   -0.7272 H   0  0  0  0  0  0  0  0  0  0  0  0
   -0.7924    1.8105   -2.2773 C   0  0  0  0  0  0  0  0  0  0  0  0
    0.1096    1.2085   -2.4307 H   0  0  0  0  0  0  0  0  0  0  0  0
   -1.6600    1.1624   -2.4396 H   0  0  0  0  0  0  0  0  0  0  0  0
   -0.8213    2.9609   -3.2893 C   0  0  0  0  0  0  0  0  0  0  0  0
   -1.7152    3.5712   -3.1246 H   0  0  0  0  0  0  0  0  0  0  0  0
    0.0560    3.6004   -3.1470 H   0  0  0  0  0  0  0  0  0  0  0  0
   -0.8286    2.4289   -4.7194 C   0  0  0  0  0  0  0  0  0  0  0  0
    0.0756    1.8385   -4.9054 H   0  0  0  0  0  0  0  0  0  0  0  0
   -1.6970    1.7789   -4.8754 H   0  0  0  0  0  0  0  0  0  0  0  0
   -0.8802    3.5696   -5.6387 N   0  0  0  0  0  0  0  0  0  0  0  0
   -0.8671    3.2613   -6.6112 H   0  0  0  0  0  0  0  0  0  0  0  0
   -1.6954    4.1538   -5.4537 H   0  0  0  0  0  0  0  0  0  0  0  0
   -0.4668    1.7433    1.6403 C   0  0  0  0  0  0  0  0  0  0  0  0
   -1.0300    1.2506    2.6108 O   0  0  0  0  0  0  0  0  0  0  0  0
    0.2619    2.9025    1.8507 N   0  0  0  0  0  0  0  0  0  0  0  0
    0.7231    3.3176    1.0474 H   0  0  0  0  0  0  0  0  0  0  0  0
    0.4948    3.4809    3.1692 C   0  0  0  0  0  0  0  0  0  0  0  0
    1.0208    2.7683    3.8132 H   0  0  0  0  0  0  0  0  0  0  0  0
    1.1055    4.3846    3.0824 H   0  0  0  0  0  0  0  0  0  0  0  0
   -0.4548    3.7503    3.6435 H   0  0  0  0  0  0  0  0  0  0  0  0
  1  2  1  0  0  0  0
  2  3  1  0  0  0  0
  2  4  1  0  0  0  0
  2  5  1  0  0  0  0
  5  6  2  0  0  0  0
  5  7  1  0  0  0  0
  7  8  1  0  0  0  0
  7  9  1  0  0  0  0
  9 10  1  0  0  0  0
  9 11  1  0  0  0  0
  9 26  1  0  0  0  0
 11 12  1  0  0  0  0
 11 13  1  0  0  0  0
 11 14  1  0  0  0  0
 14 15  1  0  0  0  0
 14 16  1  0  0  0  0
 14 17  1  0  0  0  0
 17 18  1  0  0  0  0
 17 19  1  0  0  0  0
 17 20  1  0  0  0  0
 20 21  1  0  0  0  0
 20 22  1  0  0  0  0
 20 23  1  0  0  0  0
 23 24  1  0  0  0  0
 23 25  1  0  0  0  0
 26 27  2  0  0  0  0
 26 28  1  0  0  0  0
 28 29  1  0  0  0  0
 28 30  1  0  0  0  0
 30 31  1  0  0  0  0
 30 32  1  0  0  0  0
 30 33  1  0  0  0  0
M  END
$$$$

  -OEChem-01062216083D

 33 32  0     1  0  0  0  0  0999 V2000
   -3.3621   -2.3588    1.4346 H   0  0  0  0  0  0  0  0  0  0  0  0
   -3.4737   -1.3409    1.0510 C   0  0  0  0  0  0  0  0  0  0  0  0
   -3.8917   -0.7131    1.8417 H   0  0  0  0  0  0  0  0  0  0  0  0
   -4.1605   -1.3561    0.2017 H   0  0  0  0  0  0  0  0  0  0  0  0
   -2.1247   -0.7972    0.6203 C   0  0  0  0  0  0  0  0  0  0  0  0
   -1.1436   -1.5244    0.6349 O   0  0  0  0  0  0  0  0  0  0  0  0
   -2.0305    0.4909    0.1260 N   0  0  0  0  0  0  0  0  0  0  0  0
   -2.8801    1.0358    0.2306 H   0  0  0  0  0  0  0  0  0  0  0  0
   -0.7623    1.2391    0.2031 C   0  0  1  0  0  0  0  0  0  0  0  0
    0.0732    0.5794   -0.0569 H   0  0  0  0  0  0  0  0  0  0  0  0
   -0.8160    2.3669   -0.8481 C   0  0  0  0  0  0  0  0  0  0  0  0
   -1.7136    2.9751   -0.6940 H   0  0  0  0  0  0  0  0  0  0  0  0
    0.0559    3.0180   -0.7337 H   0  0  0  0  0  0  0  0  0  0  0  0
   -0.7930    1.8106   -2.2792 C   0  0  0  0  0  0  0  0  0  0  0  0
    0.1107    1.2099   -2.4268 H   0  0  0  0  0  0  0  0  0  0  0  0
   -1.6585    1.1598   -2.4409 H   0  0  0  0  0  0  0  0  0  0  0  0
   -0.8222    2.9571   -3.2957 C   0  0  0  0  0  0  0  0  0  0  0  0
   -1.7180    3.5659   -3.1356 H   0  0  0  0  0  0  0  0  0  0  0  0
    0.0533    3.5992   -3.1536 H   0  0  0  0  0  0  0  0  0  0  0  0
   -0.8243    2.4200   -4.7235 C   0  0  0  0  0  0  0  0  0  0  0  0
    0.0825    1.8318   -4.9042 H   0  0  0  0  0  0  0  0  0  0  0  0
   -1.6904    1.7671   -4.8797 H   0  0  0  0  0  0  0  0  0  0  0  0
   -0.8766    3.5584   -5.6459 N   0  0  0  0  0  0  0  0  0  0  0  0
   -0.8485    3.2482   -6.6174 H   0  0  0  0  0  0  0  0  0  0  0  0
   -1.7002    4.1343   -5.4720 H   0  0  0  0  0  0  0  0  0  0  0  0
   -0.4703    1.7562    1.6416 C   0  0  0  0  0  0  0  0  0  0  0  0
   -0.7963    1.1006    2.6227 O   0  0  0  0  0  0  0  0  0  0  0  0
   -0.0271    3.0499    1.8656 N   0  0  0  0  0  0  0  0  0  0  0  0
    0.2243    3.6060    1.0547 H   0  0  0  0  0  0  0  0  0  0  0  0
    0.1837    3.6130    3.1945 C   0  0  0  0  0  0  0  0  0  0  0  0
    0.9291    3.0289    3.7446 H   0  0  0  0  0  0  0  0  0  0  0  0
    0.5415    4.6441    3.1152 H   0  0  0  0  0  0  0  0  0  0  0  0
   -0.7521    3.6153    3.7633 H   0  0  0  0  0  0  0  0  0  0  0  0
  1  2  1  0  0  0  0
  2  3  1  0  0  0  0
  2  4  1  0  0  0  0
  2  5  1  0  0  0  0
  5  6  2  0  0  0  0
  5  7  1  0  0  0  0
  7  8  1  0  0  0  0
  7  9  1  0  0  0  0
  9 10  1  0  0  0  0
  9 11  1  0  0  0  0
  9 26  1  0  0  0  0
 11 12  1  0  0  0  0
 11 13  1  0  0  0  0
 11 14  1  0  0  0  0
 14 15  1  0  0  0  0
 14 16  1  0  0  0  0
 14 17  1  0  0  0  0
 17 18  1  0  0  0  0
 17 19  1  0  0  0  0
 17 20  1  0  0  0  0
 20 21  1  0  0  0  0
 20 22  1  0  0  0  0
 20 23  1  0  0  0  0
 23 24  1  0  0  0  0
 23 25  1  0  0  0  0
 26 27  2  0  0  0  0
 26 28  1  0  0  0  0
 28 29  1  0  0  0  0
 28 30  1  0  0  0  0
 30 31  1  0  0  0  0
 30 32  1  0  0  0  0
 30 33  1  0  0  0  0
M  END
$$$$

  -OEChem-01062216083D

 33 32  0     1  0  0  0  0  0999 V2000
   -3.3655   -2.3503    1.4494 H   0  0  0  0  0  0  0  0  0  0  0  0
   -3.4776   -1.3382    1.0504 C   0  0  0  0  0  0  0  0  0  0  0  0
   -3.9063   -0.7015    1.8281 H   0  0  0  0  0  0  0  0  0  0  0  0
   -4.1558   -1.3684    0.1946 H   0  0  0  0  0  0  0  0  0  0  0  0
   -2.1270   -0.7947    0.6239 C   0  0  0  0  0  0  0  0  0  0  0  0
   -1.1501   -1.5264    0.6264 O   0  0  0  0  0  0  0  0  0  0  0  0
   -2.0328    0.4942    0.1322 N   0  0  0  0  0  0  0  0  0  0  0  0
   -2.8870    1.0351    0.2185 H   0  0  0  0  0  0  0  0  0  0  0  0
   -0.7688    1.2493    0.2040 C   0  0  1  0  0  0  0  0  0  0  0  0
    0.0681    0.5910   -0.0553 H   0  0  0  0  0  0  0  0  0  0  0  0
   -0.8203    2.3752   -0.8477 C   0  0  0  0  0  0  0  0  0  0  0  0
   -1.7211    2.9801   -0.7003 H   0  0  0  0  0  0  0  0  0  0  0  0
    0.0501    3.0281   -0.7251 H   0  0  0  0  0  0  0  0  0  0  0  0
   -0.7924    1.8155   -2.2770 C   0  0  0  0  0  0  0  0  0  0  0  0
    0.1128    1.2158   -2.4206 H   0  0  0  0  0  0  0  0  0  0  0  0
   -1.6565    1.1630   -2.4391 H   0  0  0  0  0  0  0  0  0  0  0  0
   -0.8197    2.9582   -3.2969 C   0  0  0  0  0  0  0  0  0  0  0  0
   -1.7172    3.5658   -3.1424 H   0  0  0  0  0  0  0  0  0  0  0  0
    0.0541    3.6027   -3.1538 H   0  0  0  0  0  0  0  0  0  0  0  0
   -0.8168    2.4146   -4.7223 C   0  0  0  0  0  0  0  0  0  0  0  0
    0.0915    1.8274   -4.8977 H   0  0  0  0  0  0  0  0  0  0  0  0
   -1.6811    1.7594   -4.8789 H   0  0  0  0  0  0  0  0  0  0  0  0
   -0.8676    3.5487   -5.6496 N   0  0  0  0  0  0  0  0  0  0  0  0
   -0.8369    3.2343   -6.6198 H   0  0  0  0  0  0  0  0  0  0  0  0
   -1.6917    4.1250   -5.4800 H   0  0  0  0  0  0  0  0  0  0  0  0
   -0.4774    1.7653    1.6403 C   0  0  0  0  0  0  0  0  0  0  0  0
   -0.5197    1.0079    2.5994 O   0  0  0  0  0  0  0  0  0  0  0  0
   -0.3441    3.1196    1.9029 N   0  0  0  0  0  0  0  0  0  0  0  0
   -0.3231    3.7517    1.1089 H   0  0  0  0  0  0  0  0  0  0  0  0
   -0.1536    3.6663    3.2417 C   0  0  0  0  0  0  0  0  0  0  0  0
    0.7697    3.2792    3.6854 H   0  0  0  0  0  0  0  0  0  0  0  0
   -0.0861    4.7576    3.1987 H   0  0  0  0  0  0  0  0  0  0  0  0
   -0.9953    3.3985    3.8892 H   0  0  0  0  0  0  0  0  0  0  0  0
  1  2  1  0  0  0  0
  2  3  1  0  0  0  0
  2  4  1  0  0  0  0
  2  5  1  0  0  0  0
  5  6  2  0  0  0  0
  5  7  1  0  0  0  0
  7  8  1  0  0  0  0
  7  9  1  0  0  0  0
  9 10  1  0  0  0  0
  9 11  1  0  0  0  0
  9 26  1  0  0  0  0
 11 12  1  0  0  0  0
 11 13  1  0  0  0  0
 11 14  1  0  0  0  0
 14 15  1  0  0  0  0
 14 16  1  0  0  0  0
 14 17  1  0  0  0  0
 17 18  1  0  0  0  0
 17 19  1  0  0  0  0
 17 20  1  0  0  0  0
 20 21  1  0  0  0  0
 20 22  1  0  0  0  0
 20 23  1  0  0  0  0
 23 24  1  0  0  0  0
 23 25  1  0  0  0  0
 26 27  2  0  0  0  0
 26 28  1  0  0  0  0
 28 29  1  0  0  0  0
 28 30  1  0  0  0  0
 30 31  1  0  0  0  0
 30 32  1  0  0  0  0
 30 33  1  0  0  0  0
M  END
$$$$

  -OEChem-01062216083D

 33 32  0     1  0  0  0  0  0999 V2000
   -3.3848   -2.3606    1.4405 H   0  0  0  0  0  0  0  0  0  0  0  0
   -3.4961   -1.3585    1.0165 C   0  0  0  0  0  0  0  0  0  0  0  0
   -3.9691   -0.7144    1.7617 H   0  0  0  0  0  0  0  0  0  0  0  0
   -4.1359   -1.4175    0.1329 H   0  0  0  0  0  0  0  0  0  0  0  0
   -2.1372   -0.8005    0.6375 C   0  0  0  0  0  0  0  0  0  0  0  0
   -1.1539   -1.5203    0.6862 O   0  0  0  0  0  0  0  0  0  0  0  0
   -2.0414    0.4877    0.1445 N   0  0  0  0  0  0  0  0  0  0  0  0
   -2.9043    1.0202    0.1827 H   0  0  0  0  0  0  0  0  0  0  0  0
   -0.7836    1.2530    0.2146 C   0  0  1  0  0  0  0  0  0  0  0  0
    0.0573    0.5979   -0.0413 H   0  0  0  0  0  0  0  0  0  0  0  0
   -0.8322    2.3811   -0.8342 C   0  0  0  0  0  0  0  0  0  0  0  0
   -1.7370    2.9818   -0.6945 H   0  0  0  0  0  0  0  0  0  0  0  0
    0.0345    3.0373   -0.6983 H   0  0  0  0  0  0  0  0  0  0  0  0
   -0.7955    1.8229   -2.2637 C   0  0  0  0  0  0  0  0  0  0  0  0
    0.1122    1.2254   -2.4018 H   0  0  0  0  0  0  0  0  0  0  0  0
   -1.6568    1.1675   -2.4299 H   0  0  0  0  0  0  0  0  0  0  0  0
   -0.8199    2.9642   -3.2860 C   0  0  0  0  0  0  0  0  0  0  0  0
   -1.7194    3.5705   -3.1382 H   0  0  0  0  0  0  0  0  0  0  0  0
    0.0520    3.6104   -3.1397 H   0  0  0  0  0  0  0  0  0  0  0  0
   -0.8081    2.4157   -4.7098 C   0  0  0  0  0  0  0  0  0  0  0  0
    0.1027    1.8297   -4.8768 H   0  0  0  0  0  0  0  0  0  0  0  0
   -1.6697    1.7575   -4.8682 H   0  0  0  0  0  0  0  0  0  0  0  0
   -0.8563    3.5439   -5.6445 N   0  0  0  0  0  0  0  0  0  0  0  0
   -0.8132    3.2237   -6.6124 H   0  0  0  0  0  0  0  0  0  0  0  0
   -1.6852    4.1167   -5.4874 H   0  0  0  0  0  0  0  0  0  0  0  0
   -0.4977    1.7748    1.6467 C   0  0  0  0  0  0  0  0  0  0  0  0
   -0.2149    1.0042    2.5517 O   0  0  0  0  0  0  0  0  0  0  0  0
   -0.6796    3.1105    1.9671 N   0  0  0  0  0  0  0  0  0  0  0  0
   -0.9018    3.7482    1.2094 H   0  0  0  0  0  0  0  0  0  0  0  0
   -0.4596    3.6534    3.3028 C   0  0  0  0  0  0  0  0  0  0  0  0
    0.5849    3.5198    3.6030 H   0  0  0  0  0  0  0  0  0  0  0  0
   -0.6909    4.7226    3.3197 H   0  0  0  0  0  0  0  0  0  0  0  0
   -1.1029    3.1505    4.0325 H   0  0  0  0  0  0  0  0  0  0  0  0
  1  2  1  0  0  0  0
  2  3  1  0  0  0  0
  2  4  1  0  0  0  0
  2  5  1  0  0  0  0
  5  6  2  0  0  0  0
  5  7  1  0  0  0  0
  7  8  1  0  0  0  0
  7  9  1  0  0  0  0
  9 10  1  0  0  0  0
  9 11  1  0  0  0  0
  9 26  1  0  0  0  0
 11 12  1  0  0  0  0
 11 13  1  0  0  0  0
 11 14  1  0  0  0  0
 14 15  1  0  0  0  0
 14 16  1  0  0  0  0
 14 17  1  0  0  0  0
 17 18  1  0  0  0  0
 17 19  1  0  0  0  0
 17 20  1  0  0  0  0
 20 21  1  0  0  0  0
 20 22  1  0  0  0  0
 20 23  1  0  0  0  0
 23 24  1  0  0  0  0
 23 25  1  0  0  0  0
 26 27  2  0  0  0  0
 26 28  1  0  0  0  0
 28 29  1  0  0  0  0
 28 30  1  0  0  0  0
 30 31  1  0  0  0  0
 30 32  1  0  0  0  0
 30 33  1  0  0  0  0
M  END
$$$$

  -OEChem-01062216083D

 33 32  0     1  0  0  0  0  0999 V2000
   -3.4490   -2.4047    1.3407 H   0  0  0  0  0  0  0  0  0  0  0  0
   -3.5378   -1.4063    0.9030 C   0  0  0  0  0  0  0  0  0  0  0  0
   -4.1089   -0.7742    1.5870 H   0  0  0  0  0  0  0  0  0  0  0  0
   -4.0728   -1.4841   -0.0463 H   0  0  0  0  0  0  0  0  0  0  0  0
   -2.1596   -0.8143    0.6751 C   0  0  0  0  0  0  0  0  0  0  0  0
   -1.1709   -1.4995    0.8679 O   0  0  0  0  0  0  0  0  0  0  0  0
   -2.0433    0.4697    0.1777 N   0  0  0  0  0  0  0  0  0  0  0  0
   -2.9123    0.9863    0.0918 H   0  0  0  0  0  0  0  0  0  0  0  0
   -0.7905    1.2432    0.2450 C   0  0  1  0  0  0  0  0  0  0  0  0
    0.0522    0.5887   -0.0084 H   0  0  0  0  0  0  0  0  0  0  0  0
   -0.8420    2.3705   -0.8026 C   0  0  0  0  0  0  0  0  0  0  0  0
   -1.7495    2.9671   -0.6655 H   0  0  0  0  0  0  0  0  0  0  0  0
    0.0197    3.0315   -0.6589 H   0  0  0  0  0  0  0  0  0  0  0  0
   -0.8010    1.8152   -2.2331 C   0  0  0  0  0  0  0  0  0  0  0  0
    0.1102    1.2232   -2.3714 H   0  0  0  0  0  0  0  0  0  0  0  0
   -1.6583    1.1555   -2.4026 H   0  0  0  0  0  0  0  0  0  0  0  0
   -0.8287    2.9597   -3.2513 C   0  0  0  0  0  0  0  0  0  0  0  0
   -1.7310    3.5612   -3.1023 H   0  0  0  0  0  0  0  0  0  0  0  0
    0.0398    3.6096   -3.1011 H   0  0  0  0  0  0  0  0  0  0  0  0
   -0.8125    2.4165   -4.6769 C   0  0  0  0  0  0  0  0  0  0  0  0
    0.1007    1.8348   -4.8453 H   0  0  0  0  0  0  0  0  0  0  0  0
   -1.6714    1.7557   -4.8387 H   0  0  0  0  0  0  0  0  0  0  0  0
   -0.8641    3.5482   -5.6071 N   0  0  0  0  0  0  0  0  0  0  0  0
   -0.8147    3.2325   -6.5761 H   0  0  0  0  0  0  0  0  0  0  0  0
   -1.6975    4.1146   -5.4510 H   0  0  0  0  0  0  0  0  0  0  0  0
   -0.5042    1.7833    1.6673 C   0  0  0  0  0  0  0  0  0  0  0  0
    0.1371    1.1273    2.4738 O   0  0  0  0  0  0  0  0  0  0  0  0
   -0.9758    3.0259    2.0584 N   0  0  0  0  0  0  0  0  0  0  0  0
   -1.4617    3.5838    1.3643 H   0  0  0  0  0  0  0  0  0  0  0  0
   -0.7081    3.6064    3.3690 C   0  0  0  0  0  0  0  0  0  0  0  0
    0.3684    3.7483    3.5117 H   0  0  0  0  0  0  0  0  0  0  0  0
   -1.2012    4.5787    3.4609 H   0  0  0  0  0  0  0  0  0  0  0  0
   -1.0854    2.9522    4.1621 H   0  0  0  0  0  0  0  0  0  0  0  0
  1  2  1  0  0  0  0
  2  3  1  0  0  0  0
  2  4  1  0  0  0  0
  2  5  1  0  0  0  0
  5  6  2  0  0  0  0
  5  7  1  0  0  0  0
  7  8  1  0  0  0  0
  7  9  1  0  0  0  0
  9 10  1  0  0  0  0
  9 11  1  0  0  0  0
  9 26  1  0  0  0  0
 11 12  1  0  0  0  0
 11 13  1  0  0  0  0
 11 14  1  0  0  0  0
 14 15  1  0  0  0  0
 14 16  1  0  0  0  0
 14 17  1  0  0  0  0
 17 18  1  0  0  0  0
 17 19  1  0  0  0  0
 17 20  1  0  0  0  0
 20 21  1  0  0  0  0
 20 22  1  0  0  0  0
 20 23  1  0  0  0  0
 23 24  1  0  0  0  0
 23 25  1  0  0  0  0
 26 27  2  0  0  0  0
 26 28  1  0  0  0  0
 28 29  1  0  0  0  0
 28 30  1  0  0  0  0
 30 31  1  0  0  0  0
 30 32  1  0  0  0  0
 30 33  1  0  0  0  0
M  END
$$$$

  -OEChem-01062216083D

 33 32  0     1  0  0  0  0  0999 V2000
   -3.5054   -2.4573    1.1996 H   0  0  0  0  0  0  0  0  0  0  0  0
   -3.5668   -1.4569    0.7618 C   0  0  0  0  0  0  0  0  0  0  0  0
   -4.2440   -0.8500    1.3675 H   0  0  0  0  0  0  0  0  0  0  0  0
   -3.9670   -1.5407   -0.2514 H   0  0  0  0  0  0  0  0  0  0  0  0
   -2.1903   -0.8199    0.7253 C   0  0  0  0  0  0  0  0  0  0  0  0
   -1.2225   -1.4514    1.1084 O   0  0  0  0  0  0  0  0  0  0  0  0
   -2.0444    0.4576    0.2210 N   0  0  0  0  0  0  0  0  0  0  0  0
   -2.8929    0.9358   -0.0628 H   0  0  0  0  0  0  0  0  0  0  0  0
   -0.7882    1.2254    0.2788 C   0  0  1  0  0  0  0  0  0  0  0  0
    0.0477    0.5636    0.0227 H   0  0  0  0  0  0  0  0  0  0  0  0
   -0.8390    2.3553   -0.7645 C   0  0  0  0  0  0  0  0  0  0  0  0
   -1.7399    2.9597   -0.6185 H   0  0  0  0  0  0  0  0  0  0  0  0
    0.0287    3.0093   -0.6225 H   0  0  0  0  0  0  0  0  0  0  0  0
   -0.8111    1.8044   -2.1971 C   0  0  0  0  0  0  0  0  0  0  0  0
    0.0959    1.2074   -2.3429 H   0  0  0  0  0  0  0  0  0  0  0  0
   -1.6738    1.1513   -2.3634 H   0  0  0  0  0  0  0  0  0  0  0  0
   -0.8379    2.9519   -3.2117 C   0  0  0  0  0  0  0  0  0  0  0  0
   -1.7350    3.5593   -3.0550 H   0  0  0  0  0  0  0  0  0  0  0  0
    0.0362    3.5953   -3.0654 H   0  0  0  0  0  0  0  0  0  0  0  0
   -0.8350    2.4134   -4.6391 C   0  0  0  0  0  0  0  0  0  0  0  0
    0.0730    1.8258   -4.8159 H   0  0  0  0  0  0  0  0  0  0  0  0
   -1.6995    1.7592   -4.7975 H   0  0  0  0  0  0  0  0  0  0  0  0
   -0.8853    3.5489   -5.5648 N   0  0  0  0  0  0  0  0  0  0  0  0
   -0.8528    3.2369   -6.5357 H   0  0  0  0  0  0  0  0  0  0  0  0
   -1.7079    4.1271   -5.3950 H   0  0  0  0  0  0  0  0  0  0  0  0
   -0.4922    1.7801    1.6910 C   0  0  0  0  0  0  0  0  0  0  0  0
    0.4446    1.3520    2.3486 O   0  0  0  0  0  0  0  0  0  0  0  0
   -1.2003    2.8669    2.1763 N   0  0  0  0  0  0  0  0  0  0  0  0
   -1.9398    3.2441    1.5939 H   0  0  0  0  0  0  0  0  0  0  0  0
   -0.9146    3.5000    3.4580 C   0  0  0  0  0  0  0  0  0  0  0  0
    0.1062    3.8962    3.4695 H   0  0  0  0  0  0  0  0  0  0  0  0
   -1.6090    4.3266    3.6357 H   0  0  0  0  0  0  0  0  0  0  0  0
   -1.0211    2.7773    4.2738 H   0  0  0  0  0  0  0  0  0  0  0  0
  1  2  1  0  0  0  0
  2  3  1  0  0  0  0
  2  4  1  0  0  0  0
  2  5  1  0  0  0  0
  5  6  2  0  0  0  0
  5  7  1  0  0  0  0
  7  8  1  0  0  0  0
  7  9  1  0  0  0  0
  9 10  1  0  0  0  0
  9 11  1  0  0  0  0
  9 26  1  0  0  0  0
 11 12  1  0  0  0  0
 11 13  1  0  0  0  0
 11 14  1  0  0  0  0
 14 15  1  0  0  0  0
 14 16  1  0  0  0  0
 14 17  1  0  0  0  0
 17 18  1  0  0  0  0
 17 19  1  0  0  0  0
 17 20  1  0  0  0  0
 20 21  1  0  0  0  0
 20 22  1  0  0  0  0
 20 23  1  0  0  0  0
 23 24  1  0  0  0  0
 23 25  1  0  0  0  0
 26 27  2  0  0  0  0
 26 28  1  0  0  0  0
 28 29  1  0  0  0  0
 28 30  1  0  0  0  0
 30 31  1  0  0  0  0
 30 32  1  0  0  0  0
 30 33  1  0  0  0  0
M  END
$$$$

  -OEChem-01062216083D

 33 32  0     1  0  0  0  0  0999 V2000
   -3.5166   -2.4950    1.0966 H   0  0  0  0  0  0  0  0  0  0  0  0
   -3.5672   -1.4983    0.6488 C   0  0  0  0  0  0  0  0  0  0  0  0
   -4.3403   -0.9217    1.1622 H   0  0  0  0  0  0  0  0  0  0  0  0
   -3.8350   -1.6003   -0.4056 H   0  0  0  0  0  0  0  0  0  0  0  0
   -2.2266   -0.8000    0.7795 C   0  0  0  0  0  0  0  0  0  0  0  0
   -1.3012   -1.3647    1.3336 O   0  0  0  0  0  0  0  0  0  0  0  0
   -2.0630    0.4693    0.2612 N   0  0  0  0  0  0  0  0  0  0  0  0
   -2.8485    0.8686   -0.2423 H   0  0  0  0  0  0  0  0  0  0  0  0
   -0.7947    1.2183    0.3021 C   0  0  1  0  0  0  0  0  0  0  0  0
    0.0270    0.5403    0.0427 H   0  0  0  0  0  0  0  0  0  0  0  0
   -0.8342    2.3480   -0.7406 C   0  0  0  0  0  0  0  0  0  0  0  0
   -1.7218    2.9690   -0.5831 H   0  0  0  0  0  0  0  0  0  0  0  0
    0.0457    2.9869   -0.6058 H   0  0  0  0  0  0  0  0  0  0  0  0
   -0.8294    1.7978   -2.1738 C   0  0  0  0  0  0  0  0  0  0  0  0
    0.0656    1.1850   -2.3275 H   0  0  0  0  0  0  0  0  0  0  0  0
   -1.7053    1.1609   -2.3331 H   0  0  0  0  0  0  0  0  0  0  0  0
   -0.8441    2.9459   -3.1887 C   0  0  0  0  0  0  0  0  0  0  0  0
   -1.7281    3.5702   -3.0237 H   0  0  0  0  0  0  0  0  0  0  0  0
    0.0430    3.5730   -3.0497 H   0  0  0  0  0  0  0  0  0  0  0  0
   -0.8636    2.4089   -4.6170 C   0  0  0  0  0  0  0  0  0  0  0  0
    0.0323    1.8053   -4.8014 H   0  0  0  0  0  0  0  0  0  0  0  0
   -1.7410    1.7707   -4.7685 H   0  0  0  0  0  0  0  0  0  0  0  0
   -0.9011    3.5447   -5.5429 N   0  0  0  0  0  0  0  0  0  0  0  0
   -0.8806    3.2322   -6.5138 H   0  0  0  0  0  0  0  0  0  0  0  0
   -1.7118    4.1378   -5.3675 H   0  0  0  0  0  0  0  0  0  0  0  0
   -0.4726    1.7846    1.7020 C   0  0  0  0  0  0  0  0  0  0  0  0
    0.6356    1.6216    2.1927 O   0  0  0  0  0  0  0  0  0  0  0  0
   -1.3453    2.6717    2.3079 N   0  0  0  0  0  0  0  0  0  0  0  0
   -2.2633    2.7759    1.8900 H   0  0  0  0  0  0  0  0  0  0  0  0
   -1.0741    3.3065    3.5919 C   0  0  0  0  0  0  0  0  0  0  0  0
   -0.1475    3.8884    3.5439 H   0  0  0  0  0  0  0  0  0  0  0  0
   -1.8914    3.9825    3.8604 H   0  0  0  0  0  0  0  0  0  0  0  0
   -0.9744    2.5511    4.3785 H   0  0  0  0  0  0  0  0  0  0  0  0
  1  2  1  0  0  0  0
  2  3  1  0  0  0  0
  2  4  1  0  0  0  0
  2  5  1  0  0  0  0
  5  6  2  0  0  0  0
  5  7  1  0  0  0  0
  7  8  1  0  0  0  0
  7  9  1  0  0  0  0
  9 10  1  0  0  0  0
  9 11  1  0  0  0  0
  9 26  1  0  0  0  0
 11 12  1  0  0  0  0
 11 13  1  0  0  0  0
 11 14  1  0  0  0  0
 14 15  1  0  0  0  0
 14 16  1  0  0  0  0
 14 17  1  0  0  0  0
 17 18  1  0  0  0  0
 17 19  1  0  0  0  0
 17 20  1  0  0  0  0
 20 21  1  0  0  0  0
 20 22  1  0  0  0  0
 20 23  1  0  0  0  0
 23 24  1  0  0  0  0
 23 25  1  0  0  0  0
 26 27  2  0  0  0  0
 26 28  1  0  0  0  0
 28 29  1  0  0  0  0
 28 30  1  0  0  0  0
 30 31  1  0  0  0  0
 30 32  1  0  0  0  0
 30 33  1  0  0  0  0
M  END
$$$$

  -OEChem-01062216083D

 33 32  0     1  0  0  0  0  0999 V2000
   -3.5128   -2.5164    1.0385 H   0  0  0  0  0  0  0  0  0  0  0  0
   -3.5623   -1.5198    0.5902 C   0  0  0  0  0  0  0  0  0  0  0  0
   -4.3822   -0.9663    1.0539 H   0  0  0  0  0  0  0  0  0  0  0  0
   -3.7603   -1.6258   -0.4791 H   0  0  0  0  0  0  0  0  0  0  0  0
   -2.2520   -0.7857    0.8055 C   0  0  0  0  0  0  0  0  0  0  0  0
   -1.3589   -1.3119    1.4446 O   0  0  0  0  0  0  0  0  0  0  0  0
   -2.0786    0.4773    0.2752 N   0  0  0  0  0  0  0  0  0  0  0  0
   -2.8175    0.8289   -0.3257 H   0  0  0  0  0  0  0  0  0  0  0  0
   -0.7996    1.2095    0.3122 C   0  0  1  0  0  0  0  0  0  0  0  0
    0.0133    0.5206    0.0544 H   0  0  0  0  0  0  0  0  0  0  0  0
   -0.8309    2.3389   -0.7312 C   0  0  0  0  0  0  0  0  0  0  0  0
   -1.7091    2.9721   -0.5659 H   0  0  0  0  0  0  0  0  0  0  0  0
    0.0585    2.9663   -0.6013 H   0  0  0  0  0  0  0  0  0  0  0  0
   -0.8397    1.7912   -2.1663 C   0  0  0  0  0  0  0  0  0  0  0  0
    0.0473    1.1685   -2.3253 H   0  0  0  0  0  0  0  0  0  0  0  0
   -1.7234    1.1645   -2.3228 H   0  0  0  0  0  0  0  0  0  0  0  0
   -0.8459    2.9413   -3.1796 C   0  0  0  0  0  0  0  0  0  0  0  0
   -1.7213    3.5764   -3.0086 H   0  0  0  0  0  0  0  0  0  0  0  0
    0.0498    3.5567   -3.0439 H   0  0  0  0  0  0  0  0  0  0  0  0
   -0.8789    2.4084   -4.6096 C   0  0  0  0  0  0  0  0  0  0  0  0
    0.0088    1.7950   -4.8007 H   0  0  0  0  0  0  0  0  0  0  0  0
   -1.7644    1.7808   -4.7586 H   0  0  0  0  0  0  0  0  0  0  0  0
   -0.9076    3.5474   -5.5321 N   0  0  0  0  0  0  0  0  0  0  0  0
   -0.9025    3.2387   -6.5045 H   0  0  0  0  0  0  0  0  0  0  0  0
   -1.7055    4.1546   -5.3456 H   0  0  0  0  0  0  0  0  0  0  0  0
   -0.4643    1.7848    1.7049 C   0  0  0  0  0  0  0  0  0  0  0  0
    0.7014    1.8634    2.0678 O   0  0  0  0  0  0  0  0  0  0  0  0
   -1.4401    2.4350    2.4396 N   0  0  0  0  0  0  0  0  0  0  0  0
   -2.3999    2.2962    2.1424 H   0  0  0  0  0  0  0  0  0  0  0  0
   -1.1833    3.0431    3.7393 C   0  0  0  0  0  0  0  0  0  0  0  0
   -0.4038    3.8081    3.6573 H   0  0  0  0  0  0  0  0  0  0  0  0
   -2.0920    3.5182    4.1214 H   0  0  0  0  0  0  0  0  0  0  0  0
   -0.8577    2.2846    4.4589 H   0  0  0  0  0  0  0  0  0  0  0  0
  1  2  1  0  0  0  0
  2  3  1  0  0  0  0
  2  4  1  0  0  0  0
  2  5  1  0  0  0  0
  5  6  2  0  0  0  0
  5  7  1  0  0  0  0
  7  8  1  0  0  0  0
  7  9  1  0  0  0  0
  9 10  1  0  0  0  0
  9 11  1  0  0  0  0
  9 26  1  0  0  0  0
 11 12  1  0  0  0  0
 11 13  1  0  0  0  0
 11 14  1  0  0  0  0
 14 15  1  0  0  0  0
 14 16  1  0  0  0  0
 14 17  1  0  0  0  0
 17 18  1  0  0  0  0
 17 19  1  0  0  0  0
 17 20  1  0  0  0  0
 20 21  1  0  0  0  0
 20 22  1  0  0  0  0
 20 23  1  0  0  0  0
 23 24  1  0  0  0  0
 23 25  1  0  0  0  0
 26 27  2  0  0  0  0
 26 28  1  0  0  0  0
 28 29  1  0  0  0  0
 28 30  1  0  0  0  0
 30 31  1  0  0  0  0
 30 32  1  0  0  0  0
 30 33  1  0  0  0  0
M  END
$$$$

  -OEChem-01062216083D

 33 32  0     1  0  0  0  0  0999 V2000
   -3.5139   -2.5162    1.0151 H   0  0  0  0  0  0  0  0  0  0  0  0
   -3.5631   -1.5191    0.5680 C   0  0  0  0  0  0  0  0  0  0  0  0
   -4.3922   -0.9708    1.0216 H   0  0  0  0  0  0  0  0  0  0  0  0
   -3.7461   -1.6243   -0.5040 H   0  0  0  0  0  0  0  0  0  0  0  0
   -2.2602   -0.7782    0.8030 C   0  0  0  0  0  0  0  0  0  0  0  0
   -1.3820   -1.2889    1.4747 O   0  0  0  0  0  0  0  0  0  0  0  0
   -2.0808    0.4826    0.2698 N   0  0  0  0  0  0  0  0  0  0  0  0
   -2.8092    0.8296   -0.3468 H   0  0  0  0  0  0  0  0  0  0  0  0
   -0.7981    1.2104    0.3126 C   0  0  1  0  0  0  0  0  0  0  0  0
    0.0148    0.5206    0.0577 H   0  0  0  0  0  0  0  0  0  0  0  0
   -0.8309    2.3394   -0.7322 C   0  0  0  0  0  0  0  0  0  0  0  0
   -1.7082    2.9730   -0.5646 H   0  0  0  0  0  0  0  0  0  0  0  0
    0.0583    2.9677   -0.6050 H   0  0  0  0  0  0  0  0  0  0  0  0
   -0.8404    1.7921   -2.1676 C   0  0  0  0  0  0  0  0  0  0  0  0
    0.0472    1.1705   -2.3273 H   0  0  0  0  0  0  0  0  0  0  0  0
   -1.7231    1.1644   -2.3240 H   0  0  0  0  0  0  0  0  0  0  0  0
   -0.8483    2.9420   -3.1810 C   0  0  0  0  0  0  0  0  0  0  0  0
   -1.7237    3.5766   -3.0093 H   0  0  0  0  0  0  0  0  0  0  0  0
    0.0468    3.5585   -3.0462 H   0  0  0  0  0  0  0  0  0  0  0  0
   -0.8822    2.4069   -4.6100 C   0  0  0  0  0  0  0  0  0  0  0  0
    0.0059    1.7940   -4.8008 H   0  0  0  0  0  0  0  0  0  0  0  0
   -1.7673    1.7783   -4.7566 H   0  0  0  0  0  0  0  0  0  0  0  0
   -0.9126    3.5430   -5.5359 N   0  0  0  0  0  0  0  0  0  0  0  0
   -0.9078    3.2310   -6.5072 H   0  0  0  0  0  0  0  0  0  0  0  0
   -1.7116    4.1492   -5.3513 H   0  0  0  0  0  0  0  0  0  0  0  0
   -0.4612    1.7914    1.7034 C   0  0  0  0  0  0  0  0  0  0  0  0
    0.6950    2.0863    1.9754 O   0  0  0  0  0  0  0  0  0  0  0  0
   -1.4738    2.1718    2.5659 N   0  0  0  0  0  0  0  0  0  0  0  0
   -2.4004    1.8203    2.3493 H   0  0  0  0  0  0  0  0  0  0  0  0
   -1.2202    2.7166    3.8936 C   0  0  0  0  0  0  0  0  0  0  0  0
   -0.6170    3.6280    3.8250 H   0  0  0  0  0  0  0  0  0  0  0  0
   -2.1642    2.9655    4.3874 H   0  0  0  0  0  0  0  0  0  0  0  0
   -0.6866    1.9858    4.5105 H   0  0  0  0  0  0  0  0  0  0  0  0
  1  2  1  0  0  0  0
  2  3  1  0  0  0  0
  2  4  1  0  0  0  0
  2  5  1  0  0  0  0
  5  6  2  0  0  0  0
  5  7  1  0  0  0  0
  7  8  1  0  0  0  0
  7  9  1  0  0  0  0
  9 10  1  0  0  0  0
  9 11  1  0  0  0  0
  9 26  1  0  0  0  0
 11 12  1  0  0  0  0
 11 13  1  0  0  0  0
 11 14  1  0  0  0  0
 14 15  1  0  0  0  0
 14 16  1  0  0  0  0
 14 17  1  0  0  0  0
 17 18  1  0  0  0  0
 17 19  1  0  0  0  0
 17 20  1  0  0  0  0
 20 21  1  0  0  0  0
 20 22  1  0  0  0  0
 20 23  1  0  0  0  0
 23 24  1  0  0  0  0
 23 25  1  0  0  0  0
 26 27  2  0  0  0  0
 26 28  1  0  0  0  0
 28 29  1  0  0  0  0
 28 30  1  0  0  0  0
 30 31  1  0  0  0  0
 30 32  1  0  0  0  0
 30 33  1  0  0  0  0
M  END
$$$$

  -OEChem-01062216083D

 33 32  0     1  0  0  0  0  0999 V2000
   -3.5262   -2.5082    0.9836 H   0  0  0  0  0  0  0  0  0  0  0  0
   -3.5694   -1.5109    0.5364 C   0  0  0  0  0  0  0  0  0  0  0  0
   -4.4041   -0.9624    0.9795 H   0  0  0  0  0  0  0  0  0  0  0  0
   -3.7386   -1.6152   -0.5381 H   0  0  0  0  0  0  0  0  0  0  0  0
   -2.2691   -0.7712    0.7878 C   0  0  0  0  0  0  0  0  0  0  0  0
   -1.4039   -1.2755    1.4811 O   0  0  0  0  0  0  0  0  0  0  0  0
   -2.0819    0.4912    0.2624 N   0  0  0  0  0  0  0  0  0  0  0  0
   -2.8076    0.8480   -0.3521 H   0  0  0  0  0  0  0  0  0  0  0  0
   -0.7992    1.2194    0.3166 C   0  0  1  0  0  0  0  0  0  0  0  0
    0.0156    0.5312    0.0640 H   0  0  0  0  0  0  0  0  0  0  0  0
   -0.8376    2.3443   -0.7337 C   0  0  0  0  0  0  0  0  0  0  0  0
   -1.7202    2.9714   -0.5702 H   0  0  0  0  0  0  0  0  0  0  0  0
    0.0456    2.9816   -0.6110 H   0  0  0  0  0  0  0  0  0  0  0  0
   -0.8398    1.7897   -2.1663 C   0  0  0  0  0  0  0  0  0  0  0  0
    0.0524    1.1735   -2.3210 H   0  0  0  0  0  0  0  0  0  0  0  0
   -1.7185    1.1561   -2.3218 H   0  0  0  0  0  0  0  0  0  0  0  0
   -0.8534    2.9358   -3.1836 C   0  0  0  0  0  0  0  0  0  0  0  0
   -1.7337    3.5644   -3.0156 H   0  0  0  0  0  0  0  0  0  0  0  0
    0.0372    3.5589   -3.0489 H   0  0  0  0  0  0  0  0  0  0  0  0
   -0.8803    2.3983   -4.6114 C   0  0  0  0  0  0  0  0  0  0  0  0
    0.0115    1.7901   -4.7999 H   0  0  0  0  0  0  0  0  0  0  0  0
   -1.7620    1.7651   -4.7590 H   0  0  0  0  0  0  0  0  0  0  0  0
   -0.9162    3.5344   -5.5370 N   0  0  0  0  0  0  0  0  0  0  0  0
   -0.9196    3.2224   -6.5082 H   0  0  0  0  0  0  0  0  0  0  0  0
   -1.7125    4.1422   -5.3455 H   0  0  0  0  0  0  0  0  0  0  0  0
   -0.4629    1.8000    1.7104 C   0  0  0  0  0  0  0  0  0  0  0  0
    0.6336    2.3063    1.9103 O   0  0  0  0  0  0  0  0  0  0  0  0
   -1.4358    1.8965    2.6888 N   0  0  0  0  0  0  0  0  0  0  0  0
   -2.2670    1.3348    2.5364 H   0  0  0  0  0  0  0  0  0  0  0  0
   -1.1577    2.3818    4.0347 C   0  0  0  0  0  0  0  0  0  0  0  0
   -0.7634    3.4029    4.0009 H   0  0  0  0  0  0  0  0  0  0  0  0
   -2.0747    2.3872    4.6313 H   0  0  0  0  0  0  0  0  0  0  0  0
   -0.4235    1.7374    4.5297 H   0  0  0  0  0  0  0  0  0  0  0  0
  1  2  1  0  0  0  0
  2  3  1  0  0  0  0
  2  4  1  0  0  0  0
  2  5  1  0  0  0  0
  5  6  2  0  0  0  0
  5  7  1  0  0  0  0
  7  8  1  0  0  0  0
  7  9  1  0  0  0  0
  9 10  1  0  0  0  0
  9 11  1  0  0  0  0
  9 26  1  0  0  0  0
 11 12  1  0  0  0  0
 11 13  1  0  0  0  0
 11 14  1  0  0  0  0
 14 15  1  0  0  0  0
 14 16  1  0  0  0  0
 14 17  1  0  0  0  0
 17 18  1  0  0  0  0
 17 19  1  0  0  0  0
 17 20  1  0  0  0  0
 20 21  1  0  0  0  0
 20 22  1  0  0  0  0
 20 23  1  0  0  0  0
 23 24  1  0  0  0  0
 23 25  1  0  0  0  0
 26 27  2  0  0  0  0
 26 28  1  0  0  0  0
 28 29  1  0  0  0  0
 28 30  1  0  0  0  0
 30 31  1  0  0  0  0
 30 32  1  0  0  0  0
 30 33  1  0  0  0  0
M  END
$$$$

  -OEChem-01062216083D

 33 32  0     1  0  0  0  0  0999 V2000
   -3.5481   -2.5026    0.9244 H   0  0  0  0  0  0  0  0  0  0  0  0
   -3.5819   -1.5007    0.4868 C   0  0  0  0  0  0  0  0  0  0  0  0
   -4.4267   -0.9570    0.9164 H   0  0  0  0  0  0  0  0  0  0  0  0
   -3.7275   -1.5946   -0.5919 H   0  0  0  0  0  0  0  0  0  0  0  0
   -2.2880   -0.7629    0.7742 C   0  0  0  0  0  0  0  0  0  0  0  0
   -1.4473   -1.2611    1.5018 O   0  0  0  0  0  0  0  0  0  0  0  0
   -2.0870    0.5028    0.2640 N   0  0  0  0  0  0  0  0  0  0  0  0
   -2.8096    0.8713   -0.3472 H   0  0  0  0  0  0  0  0  0  0  0  0
   -0.8031    1.2296    0.3274 C   0  0  1  0  0  0  0  0  0  0  0  0
    0.0105    0.5410    0.0745 H   0  0  0  0  0  0  0  0  0  0  0  0
   -0.8453    2.3500   -0.7307 C   0  0  0  0  0  0  0  0  0  0  0  0
   -1.7305    2.9744   -0.5709 H   0  0  0  0  0  0  0  0  0  0  0  0
    0.0343    2.9930   -0.6147 H   0  0  0  0  0  0  0  0  0  0  0  0
   -0.8421    1.7884   -2.1608 C   0  0  0  0  0  0  0  0  0  0  0  0
    0.0536    1.1762   -2.3116 H   0  0  0  0  0  0  0  0  0  0  0  0
   -1.7170    1.1496   -2.3161 H   0  0  0  0  0  0  0  0  0  0  0  0
   -0.8596    2.9308   -3.1824 C   0  0  0  0  0  0  0  0  0  0  0  0
   -1.7436    3.5553   -3.0180 H   0  0  0  0  0  0  0  0  0  0  0  0
    0.0276    3.5590   -3.0482 H   0  0  0  0  0  0  0  0  0  0  0  0
   -0.8812    2.3888   -4.6088 C   0  0  0  0  0  0  0  0  0  0  0  0
    0.0138    1.7841   -4.7943 H   0  0  0  0  0  0  0  0  0  0  0  0
   -1.7596    1.7509   -4.7555 H   0  0  0  0  0  0  0  0  0  0  0  0
   -0.9212    3.5214   -5.5384 N   0  0  0  0  0  0  0  0  0  0  0  0
   -0.9310    3.2063   -6.5085 H   0  0  0  0  0  0  0  0  0  0  0  0
   -1.7154    4.1309   -5.3440 H   0  0  0  0  0  0  0  0  0  0  0  0
   -0.4621    1.8015    1.7274 C   0  0  0  0  0  0  0  0  0  0  0  0
    0.5212    2.5166    1.8746 O   0  0  0  0  0  0  0  0  0  0  0  0
   -1.3189    1.6185    2.7975 N   0  0  0  0  0  0  0  0  0  0  0  0
   -1.9695    0.8447    2.6924 H   0  0  0  0  0  0  0  0  0  0  0  0
   -0.9997    2.0706    4.1458 C   0  0  0  0  0  0  0  0  0  0  0  0
   -0.8438    3.1544    4.1603 H   0  0  0  0  0  0  0  0  0  0  0  0
   -1.8210    1.8327    4.8282 H   0  0  0  0  0  0  0  0  0  0  0  0
   -0.0914    1.5787    4.5091 H   0  0  0  0  0  0  0  0  0  0  0  0
  1  2  1  0  0  0  0
  2  3  1  0  0  0  0
  2  4  1  0  0  0  0
  2  5  1  0  0  0  0
  5  6  2  0  0  0  0
  5  7  1  0  0  0  0
  7  8  1  0  0  0  0
  7  9  1  0  0  0  0
  9 10  1  0  0  0  0
  9 11  1  0  0  0  0
  9 26  1  0  0  0  0
 11 12  1  0  0  0  0
 11 13  1  0  0  0  0
 11 14  1  0  0  0  0
 14 15  1  0  0  0  0
 14 16  1  0  0  0  0
 14 17  1  0  0  0  0
 17 18  1  0  0  0  0
 17 19  1  0  0  0  0
 17 20  1  0  0  0  0
 20 21  1  0  0  0  0
 20 22  1  0  0  0  0
 20 23  1  0  0  0  0
 23 24  1  0  0  0  0
 23 25  1  0  0  0  0
 26 27  2  0  0  0  0
 26 28  1  0  0  0  0
 28 29  1  0  0  0  0
 28 30  1  0  0  0  0
 30 31  1  0  0  0  0
 30 32  1  0  0  0  0
 30 33  1  0  0  0  0
M  END
$$$$

  -OEChem-01062216083D

 33 32  0     1  0  0  0  0  0999 V2000
   -3.5737   -2.4816    0.9122 H   0  0  0  0  0  0  0  0  0  0  0  0
   -3.5960   -1.4765    0.4814 C   0  0  0  0  0  0  0  0  0  0  0  0
   -4.4256   -0.9209    0.9253 H   0  0  0  0  0  0  0  0  0  0  0  0
   -3.7573   -1.5607   -0.5960 H   0  0  0  0  0  0  0  0  0  0  0  0
   -2.2871   -0.7610    0.7566 C   0  0  0  0  0  0  0  0  0  0  0  0
   -1.4418   -1.2791    1.4665 O   0  0  0  0  0  0  0  0  0  0  0  0
   -2.0787    0.5106    0.2649 N   0  0  0  0  0  0  0  0  0  0  0  0
   -2.8204    0.9101   -0.3026 H   0  0  0  0  0  0  0  0  0  0  0  0
   -0.7962    1.2403    0.3316 C   0  0  1  0  0  0  0  0  0  0  0  0
    0.0177    0.5544    0.0734 H   0  0  0  0  0  0  0  0  0  0  0  0
   -0.8446    2.3589   -0.7303 C   0  0  0  0  0  0  0  0  0  0  0  0
   -1.7315    2.9810   -0.5710 H   0  0  0  0  0  0  0  0  0  0  0  0
    0.0329    3.0054   -0.6205 H   0  0  0  0  0  0  0  0  0  0  0  0
   -0.8390    1.7932   -2.1589 C   0  0  0  0  0  0  0  0  0  0  0  0
    0.0596    1.1848   -2.3078 H   0  0  0  0  0  0  0  0  0  0  0  0
   -1.7113    1.1502   -2.3121 H   0  0  0  0  0  0  0  0  0  0  0  0
   -0.8625    2.9310   -3.1850 C   0  0  0  0  0  0  0  0  0  0  0  0
   -1.7494    3.5523   -3.0234 H   0  0  0  0  0  0  0  0  0  0  0  0
    0.0213    3.5643   -3.0535 H   0  0  0  0  0  0  0  0  0  0  0  0
   -0.8818    2.3810   -4.6085 C   0  0  0  0  0  0  0  0  0  0  0  0
    0.0158    1.7795   -4.7909 H   0  0  0  0  0  0  0  0  0  0  0  0
   -1.7573    1.7381   -4.7516 H   0  0  0  0  0  0  0  0  0  0  0  0
   -0.9279    3.5084   -5.5441 N   0  0  0  0  0  0  0  0  0  0  0  0
   -0.9380    3.1877   -6.5124 H   0  0  0  0  0  0  0  0  0  0  0  0
   -1.7246    4.1154   -5.3519 H   0  0  0  0  0  0  0  0  0  0  0  0
   -0.4540    1.7959    1.7411 C   0  0  0  0  0  0  0  0  0  0  0  0
    0.3617    2.7001    1.8732 O   0  0  0  0  0  0  0  0  0  0  0  0
   -1.1297    1.3472    2.8612 N   0  0  0  0  0  0  0  0  0  0  0  0
   -1.5761    0.4381    2.7448 H   0  0  0  0  0  0  0  0  0  0  0  0
   -0.7895    1.7754    4.2121 C   0  0  0  0  0  0  0  0  0  0  0  0
   -0.8864    2.8621    4.3061 H   0  0  0  0  0  0  0  0  0  0  0  0
   -1.4622    1.3068    4.9366 H   0  0  0  0  0  0  0  0  0  0  0  0
    0.2392    1.4907    4.4566 H   0  0  0  0  0  0  0  0  0  0  0  0
  1  2  1  0  0  0  0
  2  3  1  0  0  0  0
  2  4  1  0  0  0  0
  2  5  1  0  0  0  0
  5  6  2  0  0  0  0
  5  7  1  0  0  0  0
  7  8  1  0  0  0  0
  7  9  1  0  0  0  0
  9 10  1  0  0  0  0
  9 11  1  0  0  0  0
  9 26  1  0  0  0  0
 11 12  1  0  0  0  0
 11 13  1  0  0  0  0
 11 14  1  0  0  0  0
 14 15  1  0  0  0  0
 14 16  1  0  0  0  0
 14 17  1  0  0  0  0
 17 18  1  0  0  0  0
 17 19  1  0  0  0  0
 17 20  1  0  0  0  0
 20 21  1  0  0  0  0
 20 22  1  0  0  0  0
 20 23  1  0  0  0  0
 23 24  1  0  0  0  0
 23 25  1  0  0  0  0
 26 27  2  0  0  0  0
 26 28  1  0  0  0  0
 28 29  1  0  0  0  0
 28 30  1  0  0  0  0
 30 31  1  0  0  0  0
 30 32  1  0  0  0  0
 30 33  1  0  0  0  0
M  END
$$$$

  -OEChem-01062216083D

 33 32  0     1  0  0  0  0  0999 V2000
   -3.5842   -2.4582    0.9772 H   0  0  0  0  0  0  0  0  0  0  0  0
   -3.6072   -1.4509    0.5519 C   0  0  0  0  0  0  0  0  0  0  0  0
   -4.3859   -0.8734    1.0561 H   0  0  0  0  0  0  0  0  0  0  0  0
   -3.8476   -1.5246   -0.5114 H   0  0  0  0  0  0  0  0  0  0  0  0
   -2.2614   -0.7755    0.7355 C   0  0  0  0  0  0  0  0  0  0  0  0
   -1.3735   -1.3362    1.3574 O   0  0  0  0  0  0  0  0  0  0  0  0
   -2.0606    0.5020    0.2549 N   0  0  0  0  0  0  0  0  0  0  0  0
   -2.8464    0.9489   -0.2085 H   0  0  0  0  0  0  0  0  0  0  0  0
   -0.7862    1.2448    0.3221 C   0  0  1  0  0  0  0  0  0  0  0  0
    0.0345    0.5679    0.0617 H   0  0  0  0  0  0  0  0  0  0  0  0
   -0.8417    2.3622   -0.7413 C   0  0  0  0  0  0  0  0  0  0  0  0
   -1.7345    2.9766   -0.5845 H   0  0  0  0  0  0  0  0  0  0  0  0
    0.0305    3.0156   -0.6304 H   0  0  0  0  0  0  0  0  0  0  0  0
   -0.8274    1.7960   -2.1696 C   0  0  0  0  0  0  0  0  0  0  0  0
    0.0772    1.1962   -2.3164 H   0  0  0  0  0  0  0  0  0  0  0  0
   -1.6930    1.1440   -2.3242 H   0  0  0  0  0  0  0  0  0  0  0  0
   -0.8586    2.9344   -3.1949 C   0  0  0  0  0  0  0  0  0  0  0  0
   -1.7514    3.5474   -3.0348 H   0  0  0  0  0  0  0  0  0  0  0  0
    0.0194    3.5751   -3.0608 H   0  0  0  0  0  0  0  0  0  0  0  0
   -0.8692    2.3860   -4.6186 C   0  0  0  0  0  0  0  0  0  0  0  0
    0.0349    1.7937   -4.7990 H   0  0  0  0  0  0  0  0  0  0  0  0
   -1.7378    1.7347   -4.7650 H   0  0  0  0  0  0  0  0  0  0  0  0
   -0.9231    3.5150   -5.5518 N   0  0  0  0  0  0  0  0  0  0  0  0
   -0.9247    3.1967   -6.5209 H   0  0  0  0  0  0  0  0  0  0  0  0
   -1.7276    4.1124   -5.3618 H   0  0  0  0  0  0  0  0  0  0  0  0
   -0.4554    1.7891    1.7398 C   0  0  0  0  0  0  0  0  0  0  0  0
    0.1416    2.8484    1.8873 O   0  0  0  0  0  0  0  0  0  0  0  0
   -0.8920    1.1198    2.8682 N   0  0  0  0  0  0  0  0  0  0  0  0
   -1.1838    0.1539    2.7092 H   0  0  0  0  0  0  0  0  0  0  0  0
   -0.5380    1.5238    4.2232 C   0  0  0  0  0  0  0  0  0  0  0  0
   -0.8814    2.5446    4.4216 H   0  0  0  0  0  0  0  0  0  0  0  0
   -1.0085    0.8555    4.9507 H   0  0  0  0  0  0  0  0  0  0  0  0
    0.5472    1.4832    4.3642 H   0  0  0  0  0  0  0  0  0  0  0  0
  1  2  1  0  0  0  0
  2  3  1  0  0  0  0
  2  4  1  0  0  0  0
  2  5  1  0  0  0  0
  5  6  2  0  0  0  0
  5  7  1  0  0  0  0
  7  8  1  0  0  0  0
  7  9  1  0  0  0  0
  9 10  1  0  0  0  0
  9 11  1  0  0  0  0
  9 26  1  0  0  0  0
 11 12  1  0  0  0  0
 11 13  1  0  0  0  0
 11 14  1  0  0  0  0
 14 15  1  0  0  0  0
 14 16  1  0  0  0  0
 14 17  1  0  0  0  0
 17 18  1  0  0  0  0
 17 19  1  0  0  0  0
 17 20  1  0  0  0  0
 20 21  1  0  0  0  0
 20 22  1  0  0  0  0
 20 23  1  0  0  0  0
 23 24  1  0  0  0  0
 23 25  1  0  0  0  0
 26 27  2  0  0  0  0
 26 28  1  0  0  0  0
 28 29  1  0  0  0  0
 28 30  1  0  0  0  0
 30 31  1  0  0  0  0
 30 32  1  0  0  0  0
 30 33  1  0  0  0  0
M  END
$$$$

  -OEChem-01062216083D

 33 32  0     1  0  0  0  0  0999 V2000
   -3.5681   -2.4383    1.0774 H   0  0  0  0  0  0  0  0  0  0  0  0
   -3.5976   -1.4357    0.6411 C   0  0  0  0  0  0  0  0  0  0  0  0
   -4.3325   -0.8373    1.1851 H   0  0  0  0  0  0  0  0  0  0  0  0
   -3.9045   -1.5164   -0.4045 H   0  0  0  0  0  0  0  0  0  0  0  0
   -2.2300   -0.7857    0.7324 C   0  0  0  0  0  0  0  0  0  0  0  0
   -1.3062   -1.3763    1.2704 O   0  0  0  0  0  0  0  0  0  0  0  0
   -2.0419    0.4935    0.2496 N   0  0  0  0  0  0  0  0  0  0  0  0
   -2.8572    0.9702   -0.1248 H   0  0  0  0  0  0  0  0  0  0  0  0
   -0.7703    1.2404    0.3058 C   0  0  1  0  0  0  0  0  0  0  0  0
    0.0523    0.5672    0.0411 H   0  0  0  0  0  0  0  0  0  0  0  0
   -0.8263    2.3607   -0.7541 C   0  0  0  0  0  0  0  0  0  0  0  0
   -1.7172    2.9769   -0.5933 H   0  0  0  0  0  0  0  0  0  0  0  0
    0.0482    3.0109   -0.6403 H   0  0  0  0  0  0  0  0  0  0  0  0
   -0.8173    1.7997   -2.1842 C   0  0  0  0  0  0  0  0  0  0  0  0
    0.0845    1.1971   -2.3360 H   0  0  0  0  0  0  0  0  0  0  0  0
   -1.6855    1.1511   -2.3374 H   0  0  0  0  0  0  0  0  0  0  0  0
   -0.8486    2.9417   -3.2061 C   0  0  0  0  0  0  0  0  0  0  0  0
   -1.7398    3.5560   -3.0418 H   0  0  0  0  0  0  0  0  0  0  0  0
    0.0308    3.5807   -3.0724 H   0  0  0  0  0  0  0  0  0  0  0  0
   -0.8645    2.3973   -4.6316 C   0  0  0  0  0  0  0  0  0  0  0  0
    0.0370    1.8025   -4.8163 H   0  0  0  0  0  0  0  0  0  0  0  0
   -1.7355    1.7488   -4.7766 H   0  0  0  0  0  0  0  0  0  0  0  0
   -0.9182    3.5276   -5.5635 N   0  0  0  0  0  0  0  0  0  0  0  0
   -0.9359    3.2098   -6.5326 H   0  0  0  0  0  0  0  0  0  0  0  0
   -1.7137    4.1336   -5.3629 H   0  0  0  0  0  0  0  0  0  0  0  0
   -0.4458    1.7771    1.7270 C   0  0  0  0  0  0  0  0  0  0  0  0
   -0.0940    2.9363    1.9095 O   0  0  0  0  0  0  0  0  0  0  0  0
   -0.6033    0.9572    2.8282 N   0  0  0  0  0  0  0  0  0  0  0  0
   -0.7843   -0.0289    2.6268 H   0  0  0  0  0  0  0  0  0  0  0  0
   -0.2646    1.3511    4.1891 C   0  0  0  0  0  0  0  0  0  0  0  0
   -0.8400    2.2338    4.4870 H   0  0  0  0  0  0  0  0  0  0  0  0
   -0.4951    0.5386    4.8847 H   0  0  0  0  0  0  0  0  0  0  0  0
    0.8027    1.5830    4.2665 H   0  0  0  0  0  0  0  0  0  0  0  0
  1  2  1  0  0  0  0
  2  3  1  0  0  0  0
  2  4  1  0  0  0  0
  2  5  1  0  0  0  0
  5  6  2  0  0  0  0
  5  7  1  0  0  0  0
  7  8  1  0  0  0  0
  7  9  1  0  0  0  0
  9 10  1  0  0  0  0
  9 11  1  0  0  0  0
  9 26  1  0  0  0  0
 11 12  1  0  0  0  0
 11 13  1  0  0  0  0
 11 14  1  0  0  0  0
 14 15  1  0  0  0  0
 14 16  1  0  0  0  0
 14 17  1  0  0  0  0
 17 18  1  0  0  0  0
 17 19  1  0  0  0  0
 17 20  1  0  0  0  0
 20 21  1  0  0  0  0
 20 22  1  0  0  0  0
 20 23  1  0  0  0  0
 23 24  1  0  0  0  0
 23 25  1  0  0  0  0
 26 27  2  0  0  0  0
 26 28  1  0  0  0  0
 28 29  1  0  0  0  0
 28 30  1  0  0  0  0
 30 31  1  0  0  0  0
 30 32  1  0  0  0  0
 30 33  1  0  0  0  0
M  END
$$$$

  -OEChem-01062216083D

 33 32  0     1  0  0  0  0  0999 V2000
   -3.5294   -2.4164    1.1594 H   0  0  0  0  0  0  0  0  0  0  0  0
   -3.5679   -1.4194    0.7116 C   0  0  0  0  0  0  0  0  0  0  0  0
   -4.2766   -0.8079    1.2754 H   0  0  0  0  0  0  0  0  0  0  0  0
   -3.9156   -1.5109   -0.3203 H   0  0  0  0  0  0  0  0  0  0  0  0
   -2.1925   -0.7804    0.7412 C   0  0  0  0  0  0  0  0  0  0  0  0
   -1.2468   -1.3847    1.2244 O   0  0  0  0  0  0  0  0  0  0  0  0
   -2.0152    0.4969    0.2487 N   0  0  0  0  0  0  0  0  0  0  0  0
   -2.8462    0.9946   -0.0583 H   0  0  0  0  0  0  0  0  0  0  0  0
   -0.7405    1.2365    0.2878 C   0  0  1  0  0  0  0  0  0  0  0  0
    0.0785    0.5624    0.0148 H   0  0  0  0  0  0  0  0  0  0  0  0
   -0.7975    2.3611   -0.7657 C   0  0  0  0  0  0  0  0  0  0  0  0
   -1.6825    2.9832   -0.5951 H   0  0  0  0  0  0  0  0  0  0  0  0
    0.0830    3.0034   -0.6530 H   0  0  0  0  0  0  0  0  0  0  0  0
   -0.8086    1.8036   -2.1968 C   0  0  0  0  0  0  0  0  0  0  0  0
    0.0858    1.1926   -2.3596 H   0  0  0  0  0  0  0  0  0  0  0  0
   -1.6848    1.1638   -2.3416 H   0  0  0  0  0  0  0  0  0  0  0  0
   -0.8403    2.9469   -3.2167 C   0  0  0  0  0  0  0  0  0  0  0  0
   -1.7245    3.5686   -3.0422 H   0  0  0  0  0  0  0  0  0  0  0  0
    0.0461    3.5779   -3.0915 H   0  0  0  0  0  0  0  0  0  0  0  0
   -0.8762    2.4036   -4.6422 C   0  0  0  0  0  0  0  0  0  0  0  0
    0.0178    1.8008   -4.8370 H   0  0  0  0  0  0  0  0  0  0  0  0
   -1.7549    1.7636   -4.7778 H   0  0  0  0  0  0  0  0  0  0  0  0
   -0.9297    3.5345   -5.5730 N   0  0  0  0  0  0  0  0  0  0  0  0
   -0.9637    3.2166   -6.5416 H   0  0  0  0  0  0  0  0  0  0  0  0
   -1.7167    4.1480   -5.3621 H   0  0  0  0  0  0  0  0  0  0  0  0
   -0.4149    1.7668    1.7078 C   0  0  0  0  0  0  0  0  0  0  0  0
   -0.3043    2.9650    1.9382 O   0  0  0  0  0  0  0  0  0  0  0  0
   -0.2749    0.8734    2.7518 N   0  0  0  0  0  0  0  0  0  0  0  0
   -0.4052   -0.1155    2.5238 H   0  0  0  0  0  0  0  0  0  0  0  0
    0.0130    1.2603    4.1262 C   0  0  0  0  0  0  0  0  0  0  0  0
   -0.7702    1.9221    4.5100 H   0  0  0  0  0  0  0  0  0  0  0  0
    0.0609    0.3734    4.7651 H   0  0  0  0  0  0  0  0  0  0  0  0
    0.9745    1.7807    4.1833 H   0  0  0  0  0  0  0  0  0  0  0  0
  1  2  1  0  0  0  0
  2  3  1  0  0  0  0
  2  4  1  0  0  0  0
  2  5  1  0  0  0  0
  5  6  2  0  0  0  0
  5  7  1  0  0  0  0
  7  8  1  0  0  0  0
  7  9  1  0  0  0  0
  9 10  1  0  0  0  0
  9 11  1  0  0  0  0
  9 26  1  0  0  0  0
 11 12  1  0  0  0  0
 11 13  1  0  0  0  0
 11 14  1  0  0  0  0
 14 15  1  0  0  0  0
 14 16  1  0  0  0  0
 14 17  1  0  0  0  0
 17 18  1  0  0  0  0
 17 19  1  0  0  0  0
 17 20  1  0  0  0  0
 20 21  1  0  0  0  0
 20 22  1  0  0  0  0
 20 23  1  0  0  0  0
 23 24  1  0  0  0  0
 23 25  1  0  0  0  0
 26 27  2  0  0  0  0
 26 28  1  0  0  0  0
 28 29  1  0  0  0  0
 28 30  1  0  0  0  0
 30 31  1  0  0  0  0
 30 32  1  0  0  0  0
 30 33  1  0  0  0  0
M  END
$$$$

  -OEChem-01062216083D

 33 32  0     1  0  0  0  0  0999 V2000
   -3.4758   -2.3966    1.2555 H   0  0  0  0  0  0  0  0  0  0  0  0
   -3.5287   -1.4057    0.7956 C   0  0  0  0  0  0  0  0  0  0  0  0
   -4.2101   -0.7826    1.3800 H   0  0  0  0  0  0  0  0  0  0  0  0
   -3.9199   -1.5095   -0.2193 H   0  0  0  0  0  0  0  0  0  0  0  0
   -2.1510   -0.7724    0.7569 C   0  0  0  0  0  0  0  0  0  0  0  0
   -1.1857   -1.3737    1.2055 O   0  0  0  0  0  0  0  0  0  0  0  0
   -1.9903    0.4985    0.2428 N   0  0  0  0  0  0  0  0  0  0  0  0
   -2.8317    1.0107   -0.0064 H   0  0  0  0  0  0  0  0  0  0  0  0
   -0.7131    1.2298    0.2646 C   0  0  1  0  0  0  0  0  0  0  0  0
    0.1038    0.5549   -0.0124 H   0  0  0  0  0  0  0  0  0  0  0  0
   -0.7697    2.3572   -0.7842 C   0  0  0  0  0  0  0  0  0  0  0  0
   -1.6497    2.9846   -0.6050 H   0  0  0  0  0  0  0  0  0  0  0  0
    0.1159    2.9925   -0.6731 H   0  0  0  0  0  0  0  0  0  0  0  0
   -0.8003    1.8049   -2.2165 C   0  0  0  0  0  0  0  0  0  0  0  0
    0.0864    1.1861   -2.3900 H   0  0  0  0  0  0  0  0  0  0  0  0
   -1.6843    1.1741   -2.3541 H   0  0  0  0  0  0  0  0  0  0  0  0
   -0.8311    2.9525   -3.2317 C   0  0  0  0  0  0  0  0  0  0  0  0
   -1.7073    3.5821   -3.0462 H   0  0  0  0  0  0  0  0  0  0  0  0
    0.0621    3.5748   -3.1127 H   0  0  0  0  0  0  0  0  0  0  0  0
   -0.8862    2.4161   -4.6592 C   0  0  0  0  0  0  0  0  0  0  0  0
    0.0002    1.8058   -4.8650 H   0  0  0  0  0  0  0  0  0  0  0  0
   -1.7723    1.7850   -4.7897 H   0  0  0  0  0  0  0  0  0  0  0  0
   -0.9377    3.5526   -5.5835 N   0  0  0  0  0  0  0  0  0  0  0  0
   -0.9773    3.2408   -6.5538 H   0  0  0  0  0  0  0  0  0  0  0  0
   -1.7205    4.1691   -5.3660 H   0  0  0  0  0  0  0  0  0  0  0  0
   -0.3950    1.7633    1.6814 C   0  0  0  0  0  0  0  0  0  0  0  0
   -0.5285    2.9470    1.9682 O   0  0  0  0  0  0  0  0  0  0  0  0
    0.0393    0.8773    2.6475 N   0  0  0  0  0  0  0  0  0  0  0  0
   -0.0321   -0.1140    2.4057 H   0  0  0  0  0  0  0  0  0  0  0  0
    0.2830    1.2514    4.0338 C   0  0  0  0  0  0  0  0  0  0  0  0
   -0.6359    1.6227    4.4989 H   0  0  0  0  0  0  0  0  0  0  0  0
    0.6342    0.3844    4.6011 H   0  0  0  0  0  0  0  0  0  0  0  0
    1.0479    2.0328    4.0901 H   0  0  0  0  0  0  0  0  0  0  0  0
  1  2  1  0  0  0  0
  2  3  1  0  0  0  0
  2  4  1  0  0  0  0
  2  5  1  0  0  0  0
  5  6  2  0  0  0  0
  5  7  1  0  0  0  0
  7  8  1  0  0  0  0
  7  9  1  0  0  0  0
  9 10  1  0  0  0  0
  9 11  1  0  0  0  0
  9 26  1  0  0  0  0
 11 12  1  0  0  0  0
 11 13  1  0  0  0  0
 11 14  1  0  0  0  0
 14 15  1  0  0  0  0
 14 16  1  0  0  0  0
 14 17  1  0  0  0  0
 17 18  1  0  0  0  0
 17 19  1  0  0  0  0
 17 20  1  0  0  0  0
 20 21  1  0  0  0  0
 20 22  1  0  0  0  0
 20 23  1  0  0  0  0
 23 24  1  0  0  0  0
 23 25  1  0  0  0  0
 26 27  2  0  0  0  0
 26 28  1  0  0  0  0
 28 29  1  0  0  0  0
 28 30  1  0  0  0  0
 30 31  1  0  0  0  0
 30 32  1  0  0  0  0
 30 33  1  0  0  0  0
M  END
$$$$

  -OEChem-01062216083D

 33 32  0     1  0  0  0  0  0999 V2000
   -3.4289   -2.3858    1.3239 H   0  0  0  0  0  0  0  0  0  0  0  0
   -3.4984   -1.4014    0.8526 C   0  0  0  0  0  0  0  0  0  0  0  0
   -4.1601   -0.7708    1.4513 H   0  0  0  0  0  0  0  0  0  0  0  0
   -3.9230   -1.5189   -0.1472 H   0  0  0  0  0  0  0  0  0  0  0  0
   -2.1234   -0.7683    0.7597 C   0  0  0  0  0  0  0  0  0  0  0  0
   -1.1414   -1.3639    1.1798 O   0  0  0  0  0  0  0  0  0  0  0  0
   -1.9816    0.4978    0.2290 N   0  0  0  0  0  0  0  0  0  0  0  0
   -2.8310    1.0227    0.0400 H   0  0  0  0  0  0  0  0  0  0  0  0
   -0.7046    1.2248    0.2457 C   0  0  1  0  0  0  0  0  0  0  0  0
    0.1131    0.5514   -0.0325 H   0  0  0  0  0  0  0  0  0  0  0  0
   -0.7591    2.3564   -0.7976 C   0  0  0  0  0  0  0  0  0  0  0  0
   -1.6375    2.9850   -0.6146 H   0  0  0  0  0  0  0  0  0  0  0  0
    0.1282    2.9885   -0.6832 H   0  0  0  0  0  0  0  0  0  0  0  0
   -0.7969    1.8096   -2.2322 C   0  0  0  0  0  0  0  0  0  0  0  0
    0.0858    1.1865   -2.4115 H   0  0  0  0  0  0  0  0  0  0  0  0
   -1.6848    1.1841   -2.3687 H   0  0  0  0  0  0  0  0  0  0  0  0
   -0.8254    2.9603   -3.2437 C   0  0  0  0  0  0  0  0  0  0  0  0
   -1.6974    3.5941   -3.0531 H   0  0  0  0  0  0  0  0  0  0  0  0
    0.0718    3.5770   -3.1259 H   0  0  0  0  0  0  0  0  0  0  0  0
   -0.8878    2.4277   -4.6724 C   0  0  0  0  0  0  0  0  0  0  0  0
   -0.0055    1.8128   -4.8828 H   0  0  0  0  0  0  0  0  0  0  0  0
   -1.7776    1.8017   -4.8010 H   0  0  0  0  0  0  0  0  0  0  0  0
   -0.9370    3.5659   -5.5947 N   0  0  0  0  0  0  0  0  0  0  0  0
   -0.9785    3.2553   -6.5655 H   0  0  0  0  0  0  0  0  0  0  0  0
   -1.7187    4.1836   -5.3755 H   0  0  0  0  0  0  0  0  0  0  0  0
   -0.4012    1.7616    1.6622 C   0  0  0  0  0  0  0  0  0  0  0  0
   -0.7675    2.8773    2.0127 O   0  0  0  0  0  0  0  0  0  0  0  0
    0.3094    0.9659    2.5397 N   0  0  0  0  0  0  0  0  0  0  0  0
    0.3710   -0.0205    2.2827 H   0  0  0  0  0  0  0  0  0  0  0  0
    0.5605    1.3401    3.9251 C   0  0  0  0  0  0  0  0  0  0  0  0
   -0.3831    1.4589    4.4678 H   0  0  0  0  0  0  0  0  0  0  0  0
    1.1532    0.5666    4.4228 H   0  0  0  0  0  0  0  0  0  0  0  0
    1.1164    2.2824    3.9719 H   0  0  0  0  0  0  0  0  0  0  0  0
  1  2  1  0  0  0  0
  2  3  1  0  0  0  0
  2  4  1  0  0  0  0
  2  5  1  0  0  0  0
  5  6  2  0  0  0  0
  5  7  1  0  0  0  0
  7  8  1  0  0  0  0
  7  9  1  0  0  0  0
  9 10  1  0  0  0  0
  9 11  1  0  0  0  0
  9 26  1  0  0  0  0
 11 12  1  0  0  0  0
 11 13  1  0  0  0  0
 11 14  1  0  0  0  0
 14 15  1  0  0  0  0
 14 16  1  0  0  0  0
 14 17  1  0  0  0  0
 17 18  1  0  0  0  0
 17 19  1  0  0  0  0
 17 20  1  0  0  0  0
 20 21  1  0  0  0  0
 20 22  1  0  0  0  0
 20 23  1  0  0  0  0
 23 24  1  0  0  0  0
 23 25  1  0  0  0  0
 26 27  2  0  0  0  0
 26 28  1  0  0  0  0
 28 29  1  0  0  0  0
 28 30  1  0  0  0  0
 30 31  1  0  0  0  0
 30 32  1  0  0  0  0
 30 33  1  0  0  0  0
M  END
$$$$

  -OEChem-01062216083D

 33 32  0     1  0  0  0  0  0999 V2000
   -3.4064   -2.3765    1.3989 H   0  0  0  0  0  0  0  0  0  0  0  0
   -3.4883   -1.3955    0.9226 C   0  0  0  0  0  0  0  0  0  0  0  0
   -4.1054   -0.7495    1.5519 H   0  0  0  0  0  0  0  0  0  0  0  0
   -3.9714   -1.5155   -0.0500 H   0  0  0  0  0  0  0  0  0  0  0  0
   -2.1114   -0.7843    0.7457 C   0  0  0  0  0  0  0  0  0  0  0  0
   -1.1161   -1.3951    1.1080 O   0  0  0  0  0  0  0  0  0  0  0  0
   -1.9823    0.4784    0.2034 N   0  0  0  0  0  0  0  0  0  0  0  0
   -2.8354    1.0205    0.0967 H   0  0  0  0  0  0  0  0  0  0  0  0
   -0.7069    1.2071    0.2220 C   0  0  1  0  0  0  0  0  0  0  0  0
    0.1124    0.5353   -0.0550 H   0  0  0  0  0  0  0  0  0  0  0  0
   -0.7572    2.3451   -0.8132 C   0  0  0  0  0  0  0  0  0  0  0  0
   -1.6358    2.9727   -0.6284 H   0  0  0  0  0  0  0  0  0  0  0  0
    0.1302    2.9759   -0.6922 H   0  0  0  0  0  0  0  0  0  0  0  0
   -0.7934    1.8090   -2.2516 C   0  0  0  0  0  0  0  0  0  0  0  0
    0.0883    1.1857   -2.4341 H   0  0  0  0  0  0  0  0  0  0  0  0
   -1.6820    1.1858   -2.3942 H   0  0  0  0  0  0  0  0  0  0  0  0
   -0.8178    2.9678   -3.2542 C   0  0  0  0  0  0  0  0  0  0  0  0
   -1.6894    3.6015   -3.0609 H   0  0  0  0  0  0  0  0  0  0  0  0
    0.0805    3.5818   -3.1304 H   0  0  0  0  0  0  0  0  0  0  0  0
   -0.8783    2.4460   -4.6870 C   0  0  0  0  0  0  0  0  0  0  0  0
    0.0038    1.8319   -4.9001 H   0  0  0  0  0  0  0  0  0  0  0  0
   -1.7687    1.8220   -4.8225 H   0  0  0  0  0  0  0  0  0  0  0  0
   -0.9234    3.5915   -5.6004 N   0  0  0  0  0  0  0  0  0  0  0  0
   -0.9612    3.2885   -6.5737 H   0  0  0  0  0  0  0  0  0  0  0  0
   -1.7059    4.2074   -5.3795 H   0  0  0  0  0  0  0  0  0  0  0  0
   -0.4141    1.7528    1.6358 C   0  0  0  0  0  0  0  0  0  0  0  0
   -1.0118    2.7343    2.0616 O   0  0  0  0  0  0  0  0  0  0  0  0
    0.5383    1.1337    2.4223 N   0  0  0  0  0  0  0  0  0  0  0  0
    0.8215    0.2026    2.1217 H   0  0  0  0  0  0  0  0  0  0  0  0
    0.7983    1.5243    3.8021 C   0  0  0  0  0  0  0  0  0  0  0  0
   -0.0984    1.3868    4.4154 H   0  0  0  0  0  0  0  0  0  0  0  0
    1.6038    0.9136    4.2212 H   0  0  0  0  0  0  0  0  0  0  0  0
    1.1020    2.5753    3.8524 H   0  0  0  0  0  0  0  0  0  0  0  0
  1  2  1  0  0  0  0
  2  3  1  0  0  0  0
  2  4  1  0  0  0  0
  2  5  1  0  0  0  0
  5  6  2  0  0  0  0
  5  7  1  0  0  0  0
  7  8  1  0  0  0  0
  7  9  1  0  0  0  0
  9 10  1  0  0  0  0
  9 11  1  0  0  0  0
  9 26  1  0  0  0  0
 11 12  1  0  0  0  0
 11 13  1  0  0  0  0
 11 14  1  0  0  0  0
 14 15  1  0  0  0  0
 14 16  1  0  0  0  0
 14 17  1  0  0  0  0
 17 18  1  0  0  0  0
 17 19  1  0  0  0  0
 17 20  1  0  0  0  0
 20 21  1  0  0  0  0
 20 22  1  0  0  0  0
 20 23  1  0  0  0  0
 23 24  1  0  0  0  0
 23 25  1  0  0  0  0
 26 27  2  0  0  0  0
 26 28  1  0  0  0  0
 28 29  1  0  0  0  0
 28 30  1  0  0  0  0
 30 31  1  0  0  0  0
 30 32  1  0  0  0  0
 30 33  1  0  0  0  0
M  END
$$$$

  -OEChem-01062216083D

 33 32  0     1  0  0  0  0  0999 V2000
   -3.3965   -2.3676    1.4641 H   0  0  0  0  0  0  0  0  0  0  0  0
   -3.4872   -1.3947    0.9728 C   0  0  0  0  0  0  0  0  0  0  0  0
   -4.0714   -0.7304    1.6145 H   0  0  0  0  0  0  0  0  0  0  0  0
   -4.0105   -1.5263    0.0227 H   0  0  0  0  0  0  0  0  0  0  0  0
   -2.1122   -0.8024    0.7296 C   0  0  0  0  0  0  0  0  0  0  0  0
   -1.1103   -1.4323    1.0355 O   0  0  0  0  0  0  0  0  0  0  0  0
   -1.9936    0.4584    0.1809 N   0  0  0  0  0  0  0  0  0  0  0  0
   -2.8455    1.0122    0.1501 H   0  0  0  0  0  0  0  0  0  0  0  0
   -0.7208    1.1919    0.2052 C   0  0  1  0  0  0  0  0  0  0  0  0
    0.1005    0.5207   -0.0679 H   0  0  0  0  0  0  0  0  0  0  0  0
   -0.7651    2.3348   -0.8228 C   0  0  0  0  0  0  0  0  0  0  0  0
   -1.6447    2.9612   -0.6389 H   0  0  0  0  0  0  0  0  0  0  0  0
    0.1211    2.9658   -0.6941 H   0  0  0  0  0  0  0  0  0  0  0  0
   -0.7929    1.8053   -2.2633 C   0  0  0  0  0  0  0  0  0  0  0  0
    0.0890    1.1818   -2.4439 H   0  0  0  0  0  0  0  0  0  0  0  0
   -1.6821    1.1842   -2.4132 H   0  0  0  0  0  0  0  0  0  0  0  0
   -0.8111    2.9702   -3.2584 C   0  0  0  0  0  0  0  0  0  0  0  0
   -1.6846    3.6018   -3.0664 H   0  0  0  0  0  0  0  0  0  0  0  0
    0.0855    3.5847   -3.1248 H   0  0  0  0  0  0  0  0  0  0  0  0
   -0.8634    2.4587   -4.6948 C   0  0  0  0  0  0  0  0  0  0  0  0
    0.0186    1.8441   -4.9075 H   0  0  0  0  0  0  0  0  0  0  0  0
   -1.7541    1.8374   -4.8399 H   0  0  0  0  0  0  0  0  0  0  0  0
   -0.9023    3.6123   -5.5986 N   0  0  0  0  0  0  0  0  0  0  0  0
   -0.9405    3.3179   -6.5745 H   0  0  0  0  0  0  0  0  0  0  0  0
   -1.6826    4.2293   -5.3732 H   0  0  0  0  0  0  0  0  0  0  0  0
   -0.4345    1.7465    1.6161 C   0  0  0  0  0  0  0  0  0  0  0  0
   -1.2093    2.5459    2.1296 O   0  0  0  0  0  0  0  0  0  0  0  0
    0.7042    1.3599    2.2967 N   0  0  0  0  0  0  0  0  0  0  0  0
    1.2081    0.5614    1.9190 H   0  0  0  0  0  0  0  0  0  0  0  0
    0.9908    1.7800    3.6621 C   0  0  0  0  0  0  0  0  0  0  0  0
    0.2034    1.4376    4.3416 H   0  0  0  0  0  0  0  0  0  0  0  0
    1.9443    1.3583    3.9942 H   0  0  0  0  0  0  0  0  0  0  0  0
    1.0583    2.8715    3.7207 H   0  0  0  0  0  0  0  0  0  0  0  0
  1  2  1  0  0  0  0
  2  3  1  0  0  0  0
  2  4  1  0  0  0  0
  2  5  1  0  0  0  0
  5  6  2  0  0  0  0
  5  7  1  0  0  0  0
  7  8  1  0  0  0  0
  7  9  1  0  0  0  0
  9 10  1  0  0  0  0
  9 11  1  0  0  0  0
  9 26  1  0  0  0  0
 11 12  1  0  0  0  0
 11 13  1  0  0  0  0
 11 14  1  0  0  0  0
 14 15  1  0  0  0  0
 14 16  1  0  0  0  0
 14 17  1  0  0  0  0
 17 18  1  0  0  0  0
 17 19  1  0  0  0  0
 17 20  1  0  0  0  0
 20 21  1  0  0  0  0
 20 22  1  0  0  0  0
 20 23  1  0  0  0  0
 23 24  1  0  0  0  0
 23 25  1  0  0  0  0
 26 27  2  0  0  0  0
 26 28  1  0  0  0  0
 28 29  1  0  0  0  0
 28 30  1  0  0  0  0
 30 31  1  0  0  0  0
 30 32  1  0  0  0  0
 30 33  1  0  0  0  0
M  END
$$$$

  -OEChem-01062216083D

 33 32  0     1  0  0  0  0  0999 V2000
   -3.4050   -2.3646    1.4704 H   0  0  0  0  0  0  0  0  0  0  0  0
   -3.4951   -1.3920    0.9786 C   0  0  0  0  0  0  0  0  0  0  0  0
   -4.0644   -0.7216    1.6275 H   0  0  0  0  0  0  0  0  0  0  0  0
   -4.0322   -1.5211    0.0360 H   0  0  0  0  0  0  0  0  0  0  0  0
   -2.1190   -0.8115    0.7142 C   0  0  0  0  0  0  0  0  0  0  0  0
   -1.1183   -1.4568    0.9887 O   0  0  0  0  0  0  0  0  0  0  0  0
   -2.0005    0.4497    0.1667 N   0  0  0  0  0  0  0  0  0  0  0  0
   -2.8497    1.0084    0.1709 H   0  0  0  0  0  0  0  0  0  0  0  0
   -0.7284    1.1851    0.2036 C   0  0  1  0  0  0  0  0  0  0  0  0
    0.0944    0.5143   -0.0655 H   0  0  0  0  0  0  0  0  0  0  0  0
   -0.7732    2.3317   -0.8192 C   0  0  0  0  0  0  0  0  0  0  0  0
   -1.6568    2.9528   -0.6362 H   0  0  0  0  0  0  0  0  0  0  0  0
    0.1096    2.9664   -0.6858 H   0  0  0  0  0  0  0  0  0  0  0  0
   -0.7929    1.8058   -2.2612 C   0  0  0  0  0  0  0  0  0  0  0  0
    0.0928    1.1865   -2.4389 H   0  0  0  0  0  0  0  0  0  0  0  0
   -1.6780    1.1802   -2.4161 H   0  0  0  0  0  0  0  0  0  0  0  0
   -0.8121    2.9713   -3.2556 C   0  0  0  0  0  0  0  0  0  0  0  0
   -1.6889    3.5991   -3.0669 H   0  0  0  0  0  0  0  0  0  0  0  0
    0.0814    3.5892   -3.1184 H   0  0  0  0  0  0  0  0  0  0  0  0
   -0.8564    2.4598   -4.6923 C   0  0  0  0  0  0  0  0  0  0  0  0
    0.0300    1.8505   -4.9012 H   0  0  0  0  0  0  0  0  0  0  0  0
   -1.7427    1.8334   -4.8417 H   0  0  0  0  0  0  0  0  0  0  0  0
   -0.8970    3.6134   -5.5959 N   0  0  0  0  0  0  0  0  0  0  0  0
   -0.9206    3.3190   -6.5723 H   0  0  0  0  0  0  0  0  0  0  0  0
   -1.6864    4.2220   -5.3795 H   0  0  0  0  0  0  0  0  0  0  0  0
   -0.4466    1.7438    1.6141 C   0  0  0  0  0  0  0  0  0  0  0  0
   -1.3277    2.3435    2.2203 O   0  0  0  0  0  0  0  0  0  0  0  0
    0.8094    1.6194    2.1778 N   0  0  0  0  0  0  0  0  0  0  0  0
    1.4675    1.0053    1.7062 H   0  0  0  0  0  0  0  0  0  0  0  0
    1.1251    2.0814    3.5235 C   0  0  0  0  0  0  0  0  0  0  0  0
    0.4964    1.5725    4.2617 H   0  0  0  0  0  0  0  0  0  0  0  0
    2.1733    1.8727    3.7579 H   0  0  0  0  0  0  0  0  0  0  0  0
    0.9623    3.1612    3.6055 H   0  0  0  0  0  0  0  0  0  0  0  0
  1  2  1  0  0  0  0
  2  3  1  0  0  0  0
  2  4  1  0  0  0  0
  2  5  1  0  0  0  0
  5  6  2  0  0  0  0
  5  7  1  0  0  0  0
  7  8  1  0  0  0  0
  7  9  1  0  0  0  0
  9 10  1  0  0  0  0
  9 11  1  0  0  0  0
  9 26  1  0  0  0  0
 11 12  1  0  0  0  0
 11 13  1  0  0  0  0
 11 14  1  0  0  0  0
 14 15  1  0  0  0  0
 14 16  1  0  0  0  0
 14 17  1  0  0  0  0
 17 18  1  0  0  0  0
 17 19  1  0  0  0  0
 17 20  1  0  0  0  0
 20 21  1  0  0  0  0
 20 22  1  0  0  0  0
 20 23  1  0  0  0  0
 23 24  1  0  0  0  0
 23 25  1  0  0  0  0
 26 27  2  0  0  0  0
 26 28  1  0  0  0  0
 28 29  1  0  0  0  0
 28 30  1  0  0  0  0
 30 31  1  0  0  0  0
 30 32  1  0  0  0  0
 30 33  1  0  0  0  0
M  END
$$$$

  -OEChem-01062216083D

 33 32  0     1  0  0  0  0  0999 V2000
   -3.3993   -2.3721    1.4783 H   0  0  0  0  0  0  0  0  0  0  0  0
   -3.4941   -1.3880    1.0109 C   0  0  0  0  0  0  0  0  0  0  0  0
   -4.0254   -0.7233    1.6966 H   0  0  0  0  0  0  0  0  0  0  0  0
   -4.0717   -1.4886    0.0891 H   0  0  0  0  0  0  0  0  0  0  0  0
   -2.1212   -0.8215    0.7024 C   0  0  0  0  0  0  0  0  0  0  0  0
   -1.1197   -1.4785    0.9442 O   0  0  0  0  0  0  0  0  0  0  0  0
   -2.0084    0.4389    0.1507 N   0  0  0  0  0  0  0  0  0  0  0  0
   -2.8555    0.9990    0.1914 H   0  0  0  0  0  0  0  0  0  0  0  0
   -0.7371    1.1770    0.1980 C   0  0  1  0  0  0  0  0  0  0  0  0
    0.0896    0.5080   -0.0638 H   0  0  0  0  0  0  0  0  0  0  0  0
   -0.7804    2.3248   -0.8235 C   0  0  0  0  0  0  0  0  0  0  0  0
   -1.6675    2.9417   -0.6433 H   0  0  0  0  0  0  0  0  0  0  0  0
    0.0991    2.9629   -0.6851 H   0  0  0  0  0  0  0  0  0  0  0  0
   -0.7905    1.8032   -2.2671 C   0  0  0  0  0  0  0  0  0  0  0  0
    0.0980    1.1873   -2.4417 H   0  0  0  0  0  0  0  0  0  0  0  0
   -1.6729    1.1755   -2.4289 H   0  0  0  0  0  0  0  0  0  0  0  0
   -0.8085    2.9723   -3.2574 C   0  0  0  0  0  0  0  0  0  0  0  0
   -1.6888    3.5959   -3.0710 H   0  0  0  0  0  0  0  0  0  0  0  0
    0.0820    3.5929   -3.1135 H   0  0  0  0  0  0  0  0  0  0  0  0
   -0.8432    2.4661   -4.6962 C   0  0  0  0  0  0  0  0  0  0  0  0
    0.0461    1.8603   -4.9033 H   0  0  0  0  0  0  0  0  0  0  0  0
   -1.7272    1.8376   -4.8521 H   0  0  0  0  0  0  0  0  0  0  0  0
   -0.8830    3.6230   -5.5956 N   0  0  0  0  0  0  0  0  0  0  0  0
   -0.8996    3.3317   -6.5732 H   0  0  0  0  0  0  0  0  0  0  0  0
   -1.6769    4.2269   -5.3822 H   0  0  0  0  0  0  0  0  0  0  0  0
   -0.4638    1.7427    1.6086 C   0  0  0  0  0  0  0  0  0  0  0  0
   -1.3951    2.1311    2.3060 O   0  0  0  0  0  0  0  0  0  0  0  0
    0.8344    1.9032    2.0563 N   0  0  0  0  0  0  0  0  0  0  0  0
    1.5738    1.4910    1.4948 H   0  0  0  0  0  0  0  0  0  0  0  0
    1.1592    2.4013    3.3868 C   0  0  0  0  0  0  0  0  0  0  0  0
    0.7374    1.7443    4.1547 H   0  0  0  0  0  0  0  0  0  0  0  0
    2.2444    2.4400    3.5216 H   0  0  0  0  0  0  0  0  0  0  0  0
    0.7584    3.4108    3.5266 H   0  0  0  0  0  0  0  0  0  0  0  0
  1  2  1  0  0  0  0
  2  3  1  0  0  0  0
  2  4  1  0  0  0  0
  2  5  1  0  0  0  0
  5  6  2  0  0  0  0
  5  7  1  0  0  0  0
  7  8  1  0  0  0  0
  7  9  1  0  0  0  0
  9 10  1  0  0  0  0
  9 11  1  0  0  0  0
  9 26  1  0  0  0  0
 11 12  1  0  0  0  0
 11 13  1  0  0  0  0
 11 14  1  0  0  0  0
 14 15  1  0  0  0  0
 14 16  1  0  0  0  0
 14 17  1  0  0  0  0
 17 18  1  0  0  0  0
 17 19  1  0  0  0  0
 17 20  1  0  0  0  0
 20 21  1  0  0  0  0
 20 22  1  0  0  0  0
 20 23  1  0  0  0  0
 23 24  1  0  0  0  0
 23 25  1  0  0  0  0
 26 27  2  0  0  0  0
 26 28  1  0  0  0  0
 28 29  1  0  0  0  0
 28 30  1  0  0  0  0
 30 31  1  0  0  0  0
 30 32  1  0  0  0  0
 30 33  1  0  0  0  0
M  END
$$$$

  -OEChem-01062216083D

 33 32  0     1  0  0  0  0  0999 V2000
   -3.3980   -2.3613    1.4983 H   0  0  0  0  0  0  0  0  0  0  0  0
   -3.4979   -1.3858    1.0142 C   0  0  0  0  0  0  0  0  0  0  0  0
   -4.0176   -0.7080    1.6961 H   0  0  0  0  0  0  0  0  0  0  0  0
   -4.0894   -1.5019    0.1030 H   0  0  0  0  0  0  0  0  0  0  0  0
   -2.1283   -0.8279    0.6768 C   0  0  0  0  0  0  0  0  0  0  0  0
   -1.1288   -1.5029    0.8726 O   0  0  0  0  0  0  0  0  0  0  0  0
   -2.0181    0.4386    0.1382 N   0  0  0  0  0  0  0  0  0  0  0  0
   -2.8642    0.9972    0.2053 H   0  0  0  0  0  0  0  0  0  0  0  0
   -0.7467    1.1775    0.2031 C   0  0  1  0  0  0  0  0  0  0  0  0
    0.0830    0.5115   -0.0573 H   0  0  0  0  0  0  0  0  0  0  0  0
   -0.7921    2.3274   -0.8176 C   0  0  0  0  0  0  0  0  0  0  0  0
   -1.6847    2.9373   -0.6419 H   0  0  0  0  0  0  0  0  0  0  0  0
    0.0814    2.9727   -0.6765 H   0  0  0  0  0  0  0  0  0  0  0  0
   -0.7906    1.8063   -2.2620 C   0  0  0  0  0  0  0  0  0  0  0  0
    0.1032    1.1966   -2.4318 H   0  0  0  0  0  0  0  0  0  0  0  0
   -1.6674    1.1719   -2.4296 H   0  0  0  0  0  0  0  0  0  0  0  0
   -0.8111    2.9745   -3.2536 C   0  0  0  0  0  0  0  0  0  0  0  0
   -1.6973    3.5916   -3.0732 H   0  0  0  0  0  0  0  0  0  0  0  0
    0.0740    3.6017   -3.1051 H   0  0  0  0  0  0  0  0  0  0  0  0
   -0.8342    2.4655   -4.6918 C   0  0  0  0  0  0  0  0  0  0  0  0
    0.0613    1.8665   -4.8923 H   0  0  0  0  0  0  0  0  0  0  0  0
   -1.7118    1.8295   -4.8521 H   0  0  0  0  0  0  0  0  0  0  0  0
   -0.8771    3.6195   -5.5948 N   0  0  0  0  0  0  0  0  0  0  0  0
   -0.8777    3.3248   -6.5713 H   0  0  0  0  0  0  0  0  0  0  0  0
   -1.6816    4.2134   -5.3939 H   0  0  0  0  0  0  0  0  0  0  0  0
   -0.4718    1.7346    1.6195 C   0  0  0  0  0  0  0  0  0  0  0  0
   -1.3933    1.8979    2.4124 O   0  0  0  0  0  0  0  0  0  0  0  0
    0.7935    2.1792    1.9584 N   0  0  0  0  0  0  0  0  0  0  0  0
    1.5460    1.9913    1.3027 H   0  0  0  0  0  0  0  0  0  0  0  0
    1.1225    2.7301    3.2675 C   0  0  0  0  0  0  0  0  0  0  0  0
    0.9205    1.9958    4.0545 H   0  0  0  0  0  0  0  0  0  0  0  0
    2.1824    2.9990    3.3092 H   0  0  0  0  0  0  0  0  0  0  0  0
    0.5301    3.6296    3.4649 H   0  0  0  0  0  0  0  0  0  0  0  0
  1  2  1  0  0  0  0
  2  3  1  0  0  0  0
  2  4  1  0  0  0  0
  2  5  1  0  0  0  0
  5  6  2  0  0  0  0
  5  7  1  0  0  0  0
  7  8  1  0  0  0  0
  7  9  1  0  0  0  0
  9 10  1  0  0  0  0
  9 11  1  0  0  0  0
  9 26  1  0  0  0  0
 11 12  1  0  0  0  0
 11 13  1  0  0  0  0
 11 14  1  0  0  0  0
 14 15  1  0  0  0  0
 14 16  1  0  0  0  0
 14 17  1  0  0  0  0
 17 18  1  0  0  0  0
 17 19  1  0  0  0  0
 17 20  1  0  0  0  0
 20 21  1  0  0  0  0
 20 22  1  0  0  0  0
 20 23  1  0  0  0  0
 23 24  1  0  0  0  0
 23 25  1  0  0  0  0
 26 27  2  0  0  0  0
 26 28  1  0  0  0  0
 28 29  1  0  0  0  0
 28 30  1  0  0  0  0
 30 31  1  0  0  0  0
 30 32  1  0  0  0  0
 30 33  1  0  0  0  0
M  END
$$$$

  -OEChem-01062216083D

 33 32  0     1  0  0  0  0  0999 V2000
   -3.3344   -2.3898    1.4913 H   0  0  0  0  0  0  0  0  0  0  0  0
   -3.4613   -1.4081    1.0262 C   0  0  0  0  0  0  0  0  0  0  0  0
   -3.9353   -0.7378    1.7474 H   0  0  0  0  0  0  0  0  0  0  0  0
   -4.1074   -1.5111    0.1514 H   0  0  0  0  0  0  0  0  0  0  0  0
   -2.1128   -0.8493    0.6138 C   0  0  0  0  0  0  0  0  0  0  0  0
   -1.1126   -1.5486    0.6810 O   0  0  0  0  0  0  0  0  0  0  0  0
   -2.0230    0.4321    0.1033 N   0  0  0  0  0  0  0  0  0  0  0  0
   -2.8718    0.9777    0.2141 H   0  0  0  0  0  0  0  0  0  0  0  0
   -0.7578    1.1808    0.2034 C   0  0  1  0  0  0  0  0  0  0  0  0
    0.0324    0.6163   -0.3030 H   0  0  0  0  0  0  0  0  0  0  0  0
   -0.9470    2.5300   -0.5168 C   0  0  0  0  0  0  0  0  0  0  0  0
   -1.8219    3.0451   -0.1055 H   0  0  0  0  0  0  0  0  0  0  0  0
   -0.0760    3.1683   -0.3377 H   0  0  0  0  0  0  0  0  0  0  0  0
   -1.1084    2.3496   -2.0334 C   0  0  0  0  0  0  0  0  0  0  0  0
   -0.2297    1.8362   -2.4380 H   0  0  0  0  0  0  0  0  0  0  0  0
   -1.9863    1.7302   -2.2444 H   0  0  0  0  0  0  0  0  0  0  0  0
   -1.2690    3.7111   -2.7188 C   0  0  0  0  0  0  0  0  0  0  0  0
   -2.1377    4.2306   -2.3015 H   0  0  0  0  0  0  0  0  0  0  0  0
   -0.3838    4.3271   -2.5292 H   0  0  0  0  0  0  0  0  0  0  0  0
   -1.4548    3.5463   -4.2243 C   0  0  0  0  0  0  0  0  0  0  0  0
   -0.5789    3.0511   -4.6581 H   0  0  0  0  0  0  0  0  0  0  0  0
   -2.3339    2.9255   -4.4301 H   0  0  0  0  0  0  0  0  0  0  0  0
   -1.6262    4.8748   -4.8199 N   0  0  0  0  0  0  0  0  0  0  0  0
   -1.7295    4.8159   -5.8332 H   0  0  0  0  0  0  0  0  0  0  0  0
   -2.4162    5.3660   -4.4016 H   0  0  0  0  0  0  0  0  0  0  0  0
   -0.2872    1.4055    1.6660 C   0  0  0  0  0  0  0  0  0  0  0  0
   -1.0420    1.1889    2.6086 O   0  0  0  0  0  0  0  0  0  0  0  0
    0.8892    2.0903    1.9190 N   0  0  0  0  0  0  0  0  0  0  0  0
    1.5105    2.2568    1.1333 H   0  0  0  0  0  0  0  0  0  0  0  0
    1.3580    2.4057    3.2634 C   0  0  0  0  0  0  0  0  0  0  0  0
    1.4845    1.4894    3.8497 H   0  0  0  0  0  0  0  0  0  0  0  0
    2.3214    2.9221    3.2164 H   0  0  0  0  0  0  0  0  0  0  0  0
    0.6424    3.0567    3.7763 H   0  0  0  0  0  0  0  0  0  0  0  0
  1  2  1  0  0  0  0
  2  3  1  0  0  0  0
  2  4  1  0  0  0  0
  2  5  1  0  0  0  0
  5  6  2  0  0  0  0
  5  7  1  0  0  0  0
  7  8  1  0  0  0  0
  7  9  1  0  0  0  0
  9 10  1  0  0  0  0
  9 11  1  0  0  0  0
  9 26  1  0  0  0  0
 11 12  1  0  0  0  0
 11 13  1  0  0  0  0
 11 14  1  0  0  0  0
 14 15  1  0  0  0  0
 14 16  1  0  0  0  0
 14 17  1  0  0  0  0
 17 18  1  0  0  0  0
 17 19  1  0  0  0  0
 17 20  1  0  0  0  0
 20 21  1  0  0  0  0
 20 22  1  0  0  0  0
 20 23  1  0  0  0  0
 23 24  1  0  0  0  0
 23 25  1  0  0  0  0
 26 27  2  0  0  0  0
 26 28  1  0  0  0  0
 28 29  1  0  0  0  0
 28 30  1  0  0  0  0
 30 31  1  0  0  0  0
 30 32  1  0  0  0  0
 30 33  1  0  0  0  0
M  END
$$$$

  -OEChem-01062216083D

 33 32  0     1  0  0  0  0  0999 V2000
   -3.3464   -2.4291    1.3732 H   0  0  0  0  0  0  0  0  0  0  0  0
   -3.4578   -1.3954    1.0343 C   0  0  0  0  0  0  0  0  0  0  0  0
   -3.8473   -0.7960    1.8608 H   0  0  0  0  0  0  0  0  0  0  0  0
   -4.1674   -1.3698    0.2043 H   0  0  0  0  0  0  0  0  0  0  0  0
   -2.1157   -0.8449    0.5905 C   0  0  0  0  0  0  0  0  0  0  0  0
   -1.1269   -1.5630    0.5928 O   0  0  0  0  0  0  0  0  0  0  0  0
   -2.0244    0.4455    0.1020 N   0  0  0  0  0  0  0  0  0  0  0  0
   -2.8720    0.9889    0.2294 H   0  0  0  0  0  0  0  0  0  0  0  0
   -0.7584    1.1945    0.2112 C   0  0  1  0  0  0  0  0  0  0  0  0
    0.0313    0.6326   -0.2991 H   0  0  0  0  0  0  0  0  0  0  0  0
   -0.9541    2.5397   -0.5188 C   0  0  0  0  0  0  0  0  0  0  0  0
   -1.8337    3.0519   -0.1142 H   0  0  0  0  0  0  0  0  0  0  0  0
   -0.0889    3.1872   -0.3486 H   0  0  0  0  0  0  0  0  0  0  0  0
   -1.1068    2.3485   -2.0350 C   0  0  0  0  0  0  0  0  0  0  0  0
   -0.2235    1.8380   -2.4334 H   0  0  0  0  0  0  0  0  0  0  0  0
   -1.9801    1.7229   -2.2468 H   0  0  0  0  0  0  0  0  0  0  0  0
   -1.2737    3.7053   -2.7275 C   0  0  0  0  0  0  0  0  0  0  0  0
   -2.1481    4.2206   -2.3167 H   0  0  0  0  0  0  0  0  0  0  0  0
   -0.3935    4.3284   -2.5371 H   0  0  0  0  0  0  0  0  0  0  0  0
   -1.4510    3.5315   -4.2327 C   0  0  0  0  0  0  0  0  0  0  0  0
   -0.5693    3.0412   -4.6606 H   0  0  0  0  0  0  0  0  0  0  0  0
   -2.3242    2.9029   -4.4399 H   0  0  0  0  0  0  0  0  0  0  0  0
   -1.6288    4.8565   -4.8337 N   0  0  0  0  0  0  0  0  0  0  0  0
   -1.7391    4.7917   -5.8458 H   0  0  0  0  0  0  0  0  0  0  0  0
   -2.4171    5.3480   -4.4127 H   0  0  0  0  0  0  0  0  0  0  0  0
   -0.2723    1.4052    1.6757 C   0  0  0  0  0  0  0  0  0  0  0  0
   -0.9052    0.9570    2.6254 O   0  0  0  0  0  0  0  0  0  0  0  0
    0.7161    2.3342    1.9574 N   0  0  0  0  0  0  0  0  0  0  0  0
    1.2303    2.7218    1.1725 H   0  0  0  0  0  0  0  0  0  0  0  0
    1.1419    2.6740    3.3105 C   0  0  0  0  0  0  0  0  0  0  0  0
    1.5106    1.7840    3.8311 H   0  0  0  0  0  0  0  0  0  0  0  0
    1.9469    3.4144    3.2790 H   0  0  0  0  0  0  0  0  0  0  0  0
    0.3077    3.0960    3.8808 H   0  0  0  0  0  0  0  0  0  0  0  0
  1  2  1  0  0  0  0
  2  3  1  0  0  0  0
  2  4  1  0  0  0  0
  2  5  1  0  0  0  0
  5  6  2  0  0  0  0
  5  7  1  0  0  0  0
  7  8  1  0  0  0  0
  7  9  1  0  0  0  0
  9 10  1  0  0  0  0
  9 11  1  0  0  0  0
  9 26  1  0  0  0  0
 11 12  1  0  0  0  0
 11 13  1  0  0  0  0
 11 14  1  0  0  0  0
 14 15  1  0  0  0  0
 14 16  1  0  0  0  0
 14 17  1  0  0  0  0
 17 18  1  0  0  0  0
 17 19  1  0  0  0  0
 17 20  1  0  0  0  0
 20 21  1  0  0  0  0
 20 22  1  0  0  0  0
 20 23  1  0  0  0  0
 23 24  1  0  0  0  0
 23 25  1  0  0  0  0
 26 27  2  0  0  0  0
 26 28  1  0  0  0  0
 28 29  1  0  0  0  0
 28 30  1  0  0  0  0
 30 31  1  0  0  0  0
 30 32  1  0  0  0  0
 30 33  1  0  0  0  0
M  END
$$$$

  -OEChem-01062216083D

 33 32  0     1  0  0  0  0  0999 V2000
   -3.3414   -2.4139    1.3545 H   0  0  0  0  0  0  0  0  0  0  0  0
   -3.4510   -1.3739    1.0345 C   0  0  0  0  0  0  0  0  0  0  0  0
   -3.8195   -0.7849    1.8779 H   0  0  0  0  0  0  0  0  0  0  0  0
   -4.1757   -1.3294    0.2184 H   0  0  0  0  0  0  0  0  0  0  0  0
   -2.1131   -0.8278    0.5734 C   0  0  0  0  0  0  0  0  0  0  0  0
   -1.1397   -1.5633    0.5103 O   0  0  0  0  0  0  0  0  0  0  0  0
   -2.0203    0.4708    0.1073 N   0  0  0  0  0  0  0  0  0  0  0  0
   -2.8684    1.0105    0.2442 H   0  0  0  0  0  0  0  0  0  0  0  0
   -0.7567    1.2248    0.2205 C   0  0  1  0  0  0  0  0  0  0  0  0
    0.0338    0.6662   -0.2926 H   0  0  0  0  0  0  0  0  0  0  0  0
   -0.9619    2.5643   -0.5206 C   0  0  0  0  0  0  0  0  0  0  0  0
   -1.8448    3.0748   -0.1214 H   0  0  0  0  0  0  0  0  0  0  0  0
   -0.0997    3.2179   -0.3603 H   0  0  0  0  0  0  0  0  0  0  0  0
   -1.1085    2.3583   -2.0359 C   0  0  0  0  0  0  0  0  0  0  0  0
   -0.2190    1.8521   -2.4262 H   0  0  0  0  0  0  0  0  0  0  0  0
   -1.9752    1.7226   -2.2453 H   0  0  0  0  0  0  0  0  0  0  0  0
   -1.2853    3.7060   -2.7438 C   0  0  0  0  0  0  0  0  0  0  0  0
   -2.1655    4.2181   -2.3419 H   0  0  0  0  0  0  0  0  0  0  0  0
   -0.4115    4.3396   -2.5585 H   0  0  0  0  0  0  0  0  0  0  0  0
   -1.4564    3.5111   -4.2475 C   0  0  0  0  0  0  0  0  0  0  0  0
   -0.5699    3.0216   -4.6662 H   0  0  0  0  0  0  0  0  0  0  0  0
   -2.3238    2.8724   -4.4480 H   0  0  0  0  0  0  0  0  0  0  0  0
   -1.6444    4.8255   -4.8689 N   0  0  0  0  0  0  0  0  0  0  0  0
   -1.7434    4.7451   -5.8812 H   0  0  0  0  0  0  0  0  0  0  0  0
   -2.4432    5.3130   -4.4633 H   0  0  0  0  0  0  0  0  0  0  0  0
   -0.2575    1.4205    1.6863 C   0  0  0  0  0  0  0  0  0  0  0  0
   -0.6998    0.7472    2.6092 O   0  0  0  0  0  0  0  0  0  0  0  0
    0.4864    2.5357    2.0386 N   0  0  0  0  0  0  0  0  0  0  0  0
    0.8417    3.1182    1.2871 H   0  0  0  0  0  0  0  0  0  0  0  0
    0.8778    2.8457    3.4095 C   0  0  0  0  0  0  0  0  0  0  0  0
    1.4780    2.0320    3.8302 H   0  0  0  0  0  0  0  0  0  0  0  0
    1.4729    3.7635    3.4348 H   0  0  0  0  0  0  0  0  0  0  0  0
   -0.0078    2.9909    4.0371 H   0  0  0  0  0  0  0  0  0  0  0  0
  1  2  1  0  0  0  0
  2  3  1  0  0  0  0
  2  4  1  0  0  0  0
  2  5  1  0  0  0  0
  5  6  2  0  0  0  0
  5  7  1  0  0  0  0
  7  8  1  0  0  0  0
  7  9  1  0  0  0  0
  9 10  1  0  0  0  0
  9 11  1  0  0  0  0
  9 26  1  0  0  0  0
 11 12  1  0  0  0  0
 11 13  1  0  0  0  0
 11 14  1  0  0  0  0
 14 15  1  0  0  0  0
 14 16  1  0  0  0  0
 14 17  1  0  0  0  0
 17 18  1  0  0  0  0
 17 19  1  0  0  0  0
 17 20  1  0  0  0  0
 20 21  1  0  0  0  0
 20 22  1  0  0  0  0
 20 23  1  0  0  0  0
 23 24  1  0  0  0  0
 23 25  1  0  0  0  0
 26 27  2  0  0  0  0
 26 28  1  0  0  0  0
 28 29  1  0  0  0  0
 28 30  1  0  0  0  0
 30 31  1  0  0  0  0
 30 32  1  0  0  0  0
 30 33  1  0  0  0  0
M  END
$$$$

  -OEChem-01062216083D

 33 32  0     1  0  0  0  0  0999 V2000
   -3.3188   -2.4011    1.4078 H   0  0  0  0  0  0  0  0  0  0  0  0
   -3.4416   -1.3694    1.0663 C   0  0  0  0  0  0  0  0  0  0  0  0
   -3.8014   -0.7653    1.9027 H   0  0  0  0  0  0  0  0  0  0  0  0
   -4.1800   -1.3478    0.2616 H   0  0  0  0  0  0  0  0  0  0  0  0
   -2.1151   -0.8253    0.5714 C   0  0  0  0  0  0  0  0  0  0  0  0
   -1.1540   -1.5696    0.4587 O   0  0  0  0  0  0  0  0  0  0  0  0
   -2.0295    0.4762    0.1118 N   0  0  0  0  0  0  0  0  0  0  0  0
   -2.8830    1.0084    0.2438 H   0  0  0  0  0  0  0  0  0  0  0  0
   -0.7737    1.2439    0.2235 C   0  0  1  0  0  0  0  0  0  0  0  0
    0.0214    0.6878   -0.2857 H   0  0  0  0  0  0  0  0  0  0  0  0
   -0.9768    2.5768   -0.5295 C   0  0  0  0  0  0  0  0  0  0  0  0
   -1.8623    3.0905   -0.1405 H   0  0  0  0  0  0  0  0  0  0  0  0
   -0.1125    3.2282   -0.3692 H   0  0  0  0  0  0  0  0  0  0  0  0
   -1.1105    2.3611   -2.0447 C   0  0  0  0  0  0  0  0  0  0  0  0
   -0.2173    1.8546   -2.4262 H   0  0  0  0  0  0  0  0  0  0  0  0
   -1.9743    1.7222   -2.2563 H   0  0  0  0  0  0  0  0  0  0  0  0
   -1.2854    3.7052   -2.7599 C   0  0  0  0  0  0  0  0  0  0  0  0
   -2.1695    4.2168   -2.3664 H   0  0  0  0  0  0  0  0  0  0  0  0
   -0.4142    4.3412   -2.5700 H   0  0  0  0  0  0  0  0  0  0  0  0
   -1.4442    3.5079   -4.2645 C   0  0  0  0  0  0  0  0  0  0  0  0
   -0.5524    3.0221   -4.6761 H   0  0  0  0  0  0  0  0  0  0  0  0
   -2.3078    2.8666   -4.4728 H   0  0  0  0  0  0  0  0  0  0  0  0
   -1.6304    4.8232   -4.8844 N   0  0  0  0  0  0  0  0  0  0  0  0
   -1.7136    4.7461   -5.8984 H   0  0  0  0  0  0  0  0  0  0  0  0
   -2.4380    5.3046   -4.4891 H   0  0  0  0  0  0  0  0  0  0  0  0
   -0.2729    1.4405    1.6895 C   0  0  0  0  0  0  0  0  0  0  0  0
   -0.4433    0.5879    2.5501 O   0  0  0  0  0  0  0  0  0  0  0  0
    0.1807    2.6750    2.1283 N   0  0  0  0  0  0  0  0  0  0  0  0
    0.3062    3.4025    1.4321 H   0  0  0  0  0  0  0  0  0  0  0  0
    0.5727    2.9507    3.5064 C   0  0  0  0  0  0  0  0  0  0  0  0
    1.3970    2.2960    3.8086 H   0  0  0  0  0  0  0  0  0  0  0  0
    0.9022    3.9894    3.6050 H   0  0  0  0  0  0  0  0  0  0  0  0
   -0.2718    2.7905    4.1850 H   0  0  0  0  0  0  0  0  0  0  0  0
  1  2  1  0  0  0  0
  2  3  1  0  0  0  0
  2  4  1  0  0  0  0
  2  5  1  0  0  0  0
  5  6  2  0  0  0  0
  5  7  1  0  0  0  0
  7  8  1  0  0  0  0
  7  9  1  0  0  0  0
  9 10  1  0  0  0  0
  9 11  1  0  0  0  0
  9 26  1  0  0  0  0
 11 12  1  0  0  0  0
 11 13  1  0  0  0  0
 11 14  1  0  0  0  0
 14 15  1  0  0  0  0
 14 16  1  0  0  0  0
 14 17  1  0  0  0  0
 17 18  1  0  0  0  0
 17 19  1  0  0  0  0
 17 20  1  0  0  0  0
 20 21  1  0  0  0  0
 20 22  1  0  0  0  0
 20 23  1  0  0  0  0
 23 24  1  0  0  0  0
 23 25  1  0  0  0  0
 26 27  2  0  0  0  0
 26 28  1  0  0  0  0
 28 29  1  0  0  0  0
 28 30  1  0  0  0  0
 30 31  1  0  0  0  0
 30 32  1  0  0  0  0
 30 33  1  0  0  0  0
M  END
$$$$

  -OEChem-01062216083D

 33 32  0     1  0  0  0  0  0999 V2000
   -3.3367   -2.4093    1.3783 H   0  0  0  0  0  0  0  0  0  0  0  0
   -3.4514   -1.3707    1.0555 C   0  0  0  0  0  0  0  0  0  0  0  0
   -3.8177   -0.7808    1.8991 H   0  0  0  0  0  0  0  0  0  0  0  0
   -4.1811   -1.3318    0.2435 H   0  0  0  0  0  0  0  0  0  0  0  0
   -2.1175   -0.8235    0.5840 C   0  0  0  0  0  0  0  0  0  0  0  0
   -1.1595   -1.5707    0.4746 O   0  0  0  0  0  0  0  0  0  0  0  0
   -2.0325    0.4778    0.1247 N   0  0  0  0  0  0  0  0  0  0  0  0
   -2.8932    1.0038    0.2319 H   0  0  0  0  0  0  0  0  0  0  0  0
   -0.7847    1.2580    0.2325 C   0  0  1  0  0  0  0  0  0  0  0  0
    0.0152    0.7038   -0.2714 H   0  0  0  0  0  0  0  0  0  0  0  0
   -0.9854    2.5879   -0.5238 C   0  0  0  0  0  0  0  0  0  0  0  0
   -1.8742    3.1020   -0.1434 H   0  0  0  0  0  0  0  0  0  0  0  0
   -0.1202    3.2372   -0.3538 H   0  0  0  0  0  0  0  0  0  0  0  0
   -1.1111    2.3673   -2.0385 C   0  0  0  0  0  0  0  0  0  0  0  0
   -0.2140    1.8617   -2.4123 H   0  0  0  0  0  0  0  0  0  0  0  0
   -1.9719    1.7251   -2.2522 H   0  0  0  0  0  0  0  0  0  0  0  0
   -1.2842    3.7079   -2.7611 C   0  0  0  0  0  0  0  0  0  0  0  0
   -2.1710    4.2205   -2.3750 H   0  0  0  0  0  0  0  0  0  0  0  0
   -0.4147    4.3457   -2.5700 H   0  0  0  0  0  0  0  0  0  0  0  0
   -1.4347    3.5015   -4.2654 C   0  0  0  0  0  0  0  0  0  0  0  0
   -0.5396    3.0143   -4.6682 H   0  0  0  0  0  0  0  0  0  0  0  0
   -2.2956    2.8568   -4.4738 H   0  0  0  0  0  0  0  0  0  0  0  0
   -1.6201    4.8112   -4.8974 N   0  0  0  0  0  0  0  0  0  0  0  0
   -1.6887    4.7257   -5.9118 H   0  0  0  0  0  0  0  0  0  0  0  0
   -2.4357    5.2910   -4.5172 H   0  0  0  0  0  0  0  0  0  0  0  0
   -0.2906    1.4591    1.6966 C   0  0  0  0  0  0  0  0  0  0  0  0
   -0.1359    0.5188    2.4613 O   0  0  0  0  0  0  0  0  0  0  0  0
   -0.1463    2.7304    2.2302 N   0  0  0  0  0  0  0  0  0  0  0  0
   -0.2873    3.5193    1.6079 H   0  0  0  0  0  0  0  0  0  0  0  0
    0.2598    2.9871    3.6076 C   0  0  0  0  0  0  0  0  0  0  0  0
    1.2482    2.5574    3.8019 H   0  0  0  0  0  0  0  0  0  0  0  0
    0.3085    4.0643    3.7934 H   0  0  0  0  0  0  0  0  0  0  0  0
   -0.4589    2.5483    4.3077 H   0  0  0  0  0  0  0  0  0  0  0  0
  1  2  1  0  0  0  0
  2  3  1  0  0  0  0
  2  4  1  0  0  0  0
  2  5  1  0  0  0  0
  5  6  2  0  0  0  0
  5  7  1  0  0  0  0
  7  8  1  0  0  0  0
  7  9  1  0  0  0  0
  9 10  1  0  0  0  0
  9 11  1  0  0  0  0
  9 26  1  0  0  0  0
 11 12  1  0  0  0  0
 11 13  1  0  0  0  0
 11 14  1  0  0  0  0
 14 15  1  0  0  0  0
 14 16  1  0  0  0  0
 14 17  1  0  0  0  0
 17 18  1  0  0  0  0
 17 19  1  0  0  0  0
 17 20  1  0  0  0  0
 20 21  1  0  0  0  0
 20 22  1  0  0  0  0
 20 23  1  0  0  0  0
 23 24  1  0  0  0  0
 23 25  1  0  0  0  0
 26 27  2  0  0  0  0
 26 28  1  0  0  0  0
 28 29  1  0  0  0  0
 28 30  1  0  0  0  0
 30 31  1  0  0  0  0
 30 32  1  0  0  0  0
 30 33  1  0  0  0  0
M  END
$$$$

  -OEChem-01062216083D

 33 32  0     1  0  0  0  0  0999 V2000
   -3.4088   -2.4033    1.3563 H   0  0  0  0  0  0  0  0  0  0  0  0
   -3.5094   -1.3912    0.9542 C   0  0  0  0  0  0  0  0  0  0  0  0
   -3.9989   -0.7645    1.7035 H   0  0  0  0  0  0  0  0  0  0  0  0
   -4.1291   -1.4286    0.0552 H   0  0  0  0  0  0  0  0  0  0  0  0
   -2.1413   -0.8276    0.6189 C   0  0  0  0  0  0  0  0  0  0  0  0
   -1.1674   -1.5587    0.6406 O   0  0  0  0  0  0  0  0  0  0  0  0
   -2.0336    0.4698    0.1545 N   0  0  0  0  0  0  0  0  0  0  0  0
   -2.9031    0.9922    0.1623 H   0  0  0  0  0  0  0  0  0  0  0  0
   -0.7905    1.2569    0.2585 C   0  0  1  0  0  0  0  0  0  0  0  0
    0.0131    0.7023   -0.2395 H   0  0  0  0  0  0  0  0  0  0  0  0
   -0.9901    2.5849   -0.4981 C   0  0  0  0  0  0  0  0  0  0  0  0
   -1.8827    3.0970   -0.1239 H   0  0  0  0  0  0  0  0  0  0  0  0
   -0.1269    3.2350   -0.3172 H   0  0  0  0  0  0  0  0  0  0  0  0
   -1.1126    2.3624   -2.0126 C   0  0  0  0  0  0  0  0  0  0  0  0
   -0.2146    1.8572   -2.3843 H   0  0  0  0  0  0  0  0  0  0  0  0
   -1.9725    1.7194   -2.2274 H   0  0  0  0  0  0  0  0  0  0  0  0
   -1.2851    3.7015   -2.7372 C   0  0  0  0  0  0  0  0  0  0  0  0
   -2.1732    4.2142   -2.3541 H   0  0  0  0  0  0  0  0  0  0  0  0
   -0.4165    4.3402   -2.5457 H   0  0  0  0  0  0  0  0  0  0  0  0
   -1.4323    3.4910   -4.2412 C   0  0  0  0  0  0  0  0  0  0  0  0
   -0.5362    3.0034   -4.6414 H   0  0  0  0  0  0  0  0  0  0  0  0
   -2.2928    2.8455   -4.4497 H   0  0  0  0  0  0  0  0  0  0  0  0
   -1.6172    4.7993   -4.8758 N   0  0  0  0  0  0  0  0  0  0  0  0
   -1.6856    4.7121   -5.8900 H   0  0  0  0  0  0  0  0  0  0  0  0
   -2.4325    5.2802   -4.4964 H   0  0  0  0  0  0  0  0  0  0  0  0
   -0.3060    1.4720    1.7193 C   0  0  0  0  0  0  0  0  0  0  0  0
    0.2198    0.5759    2.3604 O   0  0  0  0  0  0  0  0  0  0  0  0
   -0.4636    2.7000    2.3425 N   0  0  0  0  0  0  0  0  0  0  0  0
   -0.8644    3.4553    1.7961 H   0  0  0  0  0  0  0  0  0  0  0  0
   -0.0030    2.9794    3.6980 C   0  0  0  0  0  0  0  0  0  0  0  0
    1.0865    2.8874    3.7582 H   0  0  0  0  0  0  0  0  0  0  0  0
   -0.2822    3.9961    3.9903 H   0  0  0  0  0  0  0  0  0  0  0  0
   -0.4554    2.2803    4.4094 H   0  0  0  0  0  0  0  0  0  0  0  0
  1  2  1  0  0  0  0
  2  3  1  0  0  0  0
  2  4  1  0  0  0  0
  2  5  1  0  0  0  0
  5  6  2  0  0  0  0
  5  7  1  0  0  0  0
  7  8  1  0  0  0  0
  7  9  1  0  0  0  0
  9 10  1  0  0  0  0
  9 11  1  0  0  0  0
  9 26  1  0  0  0  0
 11 12  1  0  0  0  0
 11 13  1  0  0  0  0
 11 14  1  0  0  0  0
 14 15  1  0  0  0  0
 14 16  1  0  0  0  0
 14 17  1  0  0  0  0
 17 18  1  0  0  0  0
 17 19  1  0  0  0  0
 17 20  1  0  0  0  0
 20 21  1  0  0  0  0
 20 22  1  0  0  0  0
 20 23  1  0  0  0  0
 23 24  1  0  0  0  0
 23 25  1  0  0  0  0
 26 27  2  0  0  0  0
 26 28  1  0  0  0  0
 28 29  1  0  0  0  0
 28 30  1  0  0  0  0
 30 31  1  0  0  0  0
 30 32  1  0  0  0  0
 30 33  1  0  0  0  0
M  END
$$$$

  -OEChem-01062216083D

 33 32  0     1  0  0  0  0  0999 V2000
   -3.5179   -2.4507    1.1897 H   0  0  0  0  0  0  0  0  0  0  0  0
   -3.5776   -1.4383    0.7798 C   0  0  0  0  0  0  0  0  0  0  0  0
   -4.2021   -0.8300    1.4381 H   0  0  0  0  0  0  0  0  0  0  0  0
   -4.0382   -1.4865   -0.2098 H   0  0  0  0  0  0  0  0  0  0  0  0
   -2.1889   -0.8352    0.6786 C   0  0  0  0  0  0  0  0  0  0  0  0
   -1.2181   -1.5135    0.9571 O   0  0  0  0  0  0  0  0  0  0  0  0
   -2.0420    0.4547    0.2059 N   0  0  0  0  0  0  0  0  0  0  0  0
   -2.9022    0.9555    0.0098 H   0  0  0  0  0  0  0  0  0  0  0  0
   -0.7965    1.2390    0.2979 C   0  0  1  0  0  0  0  0  0  0  0  0
    0.0015    0.6764   -0.2005 H   0  0  0  0  0  0  0  0  0  0  0  0
   -0.9906    2.5665   -0.4584 C   0  0  0  0  0  0  0  0  0  0  0  0
   -1.8788    3.0844   -0.0822 H   0  0  0  0  0  0  0  0  0  0  0  0
   -0.1234    3.2109   -0.2750 H   0  0  0  0  0  0  0  0  0  0  0  0
   -1.1220    2.3451   -1.9718 C   0  0  0  0  0  0  0  0  0  0  0  0
   -0.2279    1.8355   -2.3469 H   0  0  0  0  0  0  0  0  0  0  0  0
   -1.9863    1.7078   -2.1838 H   0  0  0  0  0  0  0  0  0  0  0  0
   -1.2888    3.6860   -2.6939 C   0  0  0  0  0  0  0  0  0  0  0  0
   -2.1720    4.2040   -2.3064 H   0  0  0  0  0  0  0  0  0  0  0  0
   -0.4152    4.3188   -2.5046 H   0  0  0  0  0  0  0  0  0  0  0  0
   -1.4448    3.4788   -4.1975 C   0  0  0  0  0  0  0  0  0  0  0  0
   -0.5532    2.9863   -4.6018 H   0  0  0  0  0  0  0  0  0  0  0  0
   -2.3097    2.8385   -4.4037 H   0  0  0  0  0  0  0  0  0  0  0  0
   -1.6239    4.7890   -4.8299 N   0  0  0  0  0  0  0  0  0  0  0  0
   -1.6944    4.7042   -5.8442 H   0  0  0  0  0  0  0  0  0  0  0  0
   -2.4349    5.2749   -4.4478 H   0  0  0  0  0  0  0  0  0  0  0  0
   -0.3059    1.4742    1.7498 C   0  0  0  0  0  0  0  0  0  0  0  0
    0.5742    0.7809    2.2370 O   0  0  0  0  0  0  0  0  0  0  0  0
   -0.7248    2.5873    2.4611 N   0  0  0  0  0  0  0  0  0  0  0  0
   -1.4030    3.1989    2.0196 H   0  0  0  0  0  0  0  0  0  0  0  0
   -0.2088    2.9382    3.7794 C   0  0  0  0  0  0  0  0  0  0  0  0
    0.8640    3.1515    3.7267 H   0  0  0  0  0  0  0  0  0  0  0  0
   -0.7200    3.8266    4.1622 H   0  0  0  0  0  0  0  0  0  0  0  0
   -0.3697    2.1162    4.4849 H   0  0  0  0  0  0  0  0  0  0  0  0
  1  2  1  0  0  0  0
  2  3  1  0  0  0  0
  2  4  1  0  0  0  0
  2  5  1  0  0  0  0
  5  6  2  0  0  0  0
  5  7  1  0  0  0  0
  7  8  1  0  0  0  0
  7  9  1  0  0  0  0
  9 10  1  0  0  0  0
  9 11  1  0  0  0  0
  9 26  1  0  0  0  0
 11 12  1  0  0  0  0
 11 13  1  0  0  0  0
 11 14  1  0  0  0  0
 14 15  1  0  0  0  0
 14 16  1  0  0  0  0
 14 17  1  0  0  0  0
 17 18  1  0  0  0  0
 17 19  1  0  0  0  0
 17 20  1  0  0  0  0
 20 21  1  0  0  0  0
 20 22  1  0  0  0  0
 20 23  1  0  0  0  0
 23 24  1  0  0  0  0
 23 25  1  0  0  0  0
 26 27  2  0  0  0  0
 26 28  1  0  0  0  0
 28 29  1  0  0  0  0
 28 30  1  0  0  0  0
 30 31  1  0  0  0  0
 30 32  1  0  0  0  0
 30 33  1  0  0  0  0
M  END
$$$$

  -OEChem-01062216083D

 33 32  0     1  0  0  0  0  0999 V2000
   -3.5578   -2.4773    1.0868 H   0  0  0  0  0  0  0  0  0  0  0  0
   -3.5944   -1.4725    0.6560 C   0  0  0  0  0  0  0  0  0  0  0  0
   -4.3302   -0.8814    1.2062 H   0  0  0  0  0  0  0  0  0  0  0  0
   -3.9041   -1.5500   -0.3889 H   0  0  0  0  0  0  0  0  0  0  0  0
   -2.2290   -0.8169    0.7465 C   0  0  0  0  0  0  0  0  0  0  0  0
   -1.2977   -1.4306    1.2324 O   0  0  0  0  0  0  0  0  0  0  0  0
   -2.0551    0.4618    0.2537 N   0  0  0  0  0  0  0  0  0  0  0  0
   -2.8655    0.9027   -0.1688 H   0  0  0  0  0  0  0  0  0  0  0  0
   -0.7958    1.2261    0.3183 C   0  0  1  0  0  0  0  0  0  0  0  0
   -0.0152    0.6458   -0.1872 H   0  0  0  0  0  0  0  0  0  0  0  0
   -0.9745    2.5564   -0.4354 C   0  0  0  0  0  0  0  0  0  0  0  0
   -1.8438    3.0937   -0.0429 H   0  0  0  0  0  0  0  0  0  0  0  0
   -0.0913    3.1825   -0.2651 H   0  0  0  0  0  0  0  0  0  0  0  0
   -1.1370    2.3373   -1.9464 C   0  0  0  0  0  0  0  0  0  0  0  0
   -0.2604    1.8087   -2.3363 H   0  0  0  0  0  0  0  0  0  0  0  0
   -2.0181    1.7181   -2.1430 H   0  0  0  0  0  0  0  0  0  0  0  0
   -1.2878    3.6803   -2.6684 C   0  0  0  0  0  0  0  0  0  0  0  0
   -2.1522    4.2186   -2.2664 H   0  0  0  0  0  0  0  0  0  0  0  0
   -0.3975    4.2945   -2.4963 H   0  0  0  0  0  0  0  0  0  0  0  0
   -1.4742    3.4707   -4.1683 C   0  0  0  0  0  0  0  0  0  0  0  0
   -0.6010    2.9569   -4.5860 H   0  0  0  0  0  0  0  0  0  0  0  0
   -2.3566    2.8488   -4.3555 H   0  0  0  0  0  0  0  0  0  0  0  0
   -1.6370    4.7803   -4.8062 N   0  0  0  0  0  0  0  0  0  0  0  0
   -1.7362    4.6901   -5.8177 H   0  0  0  0  0  0  0  0  0  0  0  0
   -2.4250    5.2899   -4.4068 H   0  0  0  0  0  0  0  0  0  0  0  0
   -0.2840    1.4750    1.7575 C   0  0  0  0  0  0  0  0  0  0  0  0
    0.7964    1.0276    2.1149 O   0  0  0  0  0  0  0  0  0  0  0  0
   -0.9032    2.4177    2.5613 N   0  0  0  0  0  0  0  0  0  0  0  0
   -1.7914    2.7900    2.2434 H   0  0  0  0  0  0  0  0  0  0  0  0
   -0.4162    2.7823    3.8861 C   0  0  0  0  0  0  0  0  0  0  0  0
    0.5978    3.1912    3.8226 H   0  0  0  0  0  0  0  0  0  0  0  0
   -1.0660    3.5405    4.3331 H   0  0  0  0  0  0  0  0  0  0  0  0
   -0.4024    1.9060    4.5426 H   0  0  0  0  0  0  0  0  0  0  0  0
  1  2  1  0  0  0  0
  2  3  1  0  0  0  0
  2  4  1  0  0  0  0
  2  5  1  0  0  0  0
  5  6  2  0  0  0  0
  5  7  1  0  0  0  0
  7  8  1  0  0  0  0
  7  9  1  0  0  0  0
  9 10  1  0  0  0  0
  9 11  1  0  0  0  0
  9 26  1  0  0  0  0
 11 12  1  0  0  0  0
 11 13  1  0  0  0  0
 11 14  1  0  0  0  0
 14 15  1  0  0  0  0
 14 16  1  0  0  0  0
 14 17  1  0  0  0  0
 17 18  1  0  0  0  0
 17 19  1  0  0  0  0
 17 20  1  0  0  0  0
 20 21  1  0  0  0  0
 20 22  1  0  0  0  0
 20 23  1  0  0  0  0
 23 24  1  0  0  0  0
 23 25  1  0  0  0  0
 26 27  2  0  0  0  0
 26 28  1  0  0  0  0
 28 29  1  0  0  0  0
 28 30  1  0  0  0  0
 30 31  1  0  0  0  0
 30 32  1  0  0  0  0
 30 33  1  0  0  0  0
M  END
$$$$

  -OEChem-01062216083D

 33 32  0     1  0  0  0  0  0999 V2000
   -3.5599   -2.4977    1.0440 H   0  0  0  0  0  0  0  0  0  0  0  0
   -3.5931   -1.4964    0.6047 C   0  0  0  0  0  0  0  0  0  0  0  0
   -4.3804   -0.9220    1.0985 H   0  0  0  0  0  0  0  0  0  0  0  0
   -3.8272   -1.5875   -0.4588 H   0  0  0  0  0  0  0  0  0  0  0  0
   -2.2555   -0.8032    0.7841 C   0  0  0  0  0  0  0  0  0  0  0  0
   -1.3536   -1.3731    1.3698 O   0  0  0  0  0  0  0  0  0  0  0  0
   -2.0722    0.4667    0.2727 N   0  0  0  0  0  0  0  0  0  0  0  0
   -2.8396    0.8592   -0.2632 H   0  0  0  0  0  0  0  0  0  0  0  0
   -0.8021    1.2140    0.3223 C   0  0  1  0  0  0  0  0  0  0  0  0
   -0.0315    0.6213   -0.1842 H   0  0  0  0  0  0  0  0  0  0  0  0
   -0.9671    2.5462   -0.4295 C   0  0  0  0  0  0  0  0  0  0  0  0
   -1.8224    3.0975   -0.0253 H   0  0  0  0  0  0  0  0  0  0  0  0
   -0.0723    3.1582   -0.2678 H   0  0  0  0  0  0  0  0  0  0  0  0
   -1.1484    2.3306   -1.9391 C   0  0  0  0  0  0  0  0  0  0  0  0
   -0.2845    1.7872   -2.3377 H   0  0  0  0  0  0  0  0  0  0  0  0
   -2.0419    1.7269   -2.1264 H   0  0  0  0  0  0  0  0  0  0  0  0
   -1.2846    3.6763   -2.6592 C   0  0  0  0  0  0  0  0  0  0  0  0
   -2.1359    4.2281   -2.2480 H   0  0  0  0  0  0  0  0  0  0  0  0
   -0.3829    4.2758   -2.4950 H   0  0  0  0  0  0  0  0  0  0  0  0
   -1.4897    3.4742   -4.1578 C   0  0  0  0  0  0  0  0  0  0  0  0
   -0.6293    2.9472   -4.5853 H   0  0  0  0  0  0  0  0  0  0  0  0
   -2.3841    2.8676   -4.3382 H   0  0  0  0  0  0  0  0  0  0  0  0
   -1.6369    4.7884   -4.7903 N   0  0  0  0  0  0  0  0  0  0  0  0
   -1.7457    4.7040   -5.8013 H   0  0  0  0  0  0  0  0  0  0  0  0
   -2.4113    5.3113   -4.3818 H   0  0  0  0  0  0  0  0  0  0  0  0
   -0.2782    1.4740    1.7532 C   0  0  0  0  0  0  0  0  0  0  0  0
    0.8994    1.2728    2.0172 O   0  0  0  0  0  0  0  0  0  0  0  0
   -1.0475    2.1931    2.6516 N   0  0  0  0  0  0  0  0  0  0  0  0
   -2.0287    2.3095    2.4229 H   0  0  0  0  0  0  0  0  0  0  0  0
   -0.5877    2.5399    3.9911 C   0  0  0  0  0  0  0  0  0  0  0  0
    0.3223    3.1468    3.9388 H   0  0  0  0  0  0  0  0  0  0  0  0
   -1.3549    3.1151    4.5182 H   0  0  0  0  0  0  0  0  0  0  0  0
   -0.3736    1.6341    4.5682 H   0  0  0  0  0  0  0  0  0  0  0  0
  1  2  1  0  0  0  0
  2  3  1  0  0  0  0
  2  4  1  0  0  0  0
  2  5  1  0  0  0  0
  5  6  2  0  0  0  0
  5  7  1  0  0  0  0
  7  8  1  0  0  0  0
  7  9  1  0  0  0  0
  9 10  1  0  0  0  0
  9 11  1  0  0  0  0
  9 26  1  0  0  0  0
 11 12  1  0  0  0  0
 11 13  1  0  0  0  0
 11 14  1  0  0  0  0
 14 15  1  0  0  0  0
 14 16  1  0  0  0  0
 14 17  1  0  0  0  0
 17 18  1  0  0  0  0
 17 19  1  0  0  0  0
 17 20  1  0  0  0  0
 20 21  1  0  0  0  0
 20 22  1  0  0  0  0
 20 23  1  0  0  0  0
 23 24  1  0  0  0  0
 23 25  1  0  0  0  0
 26 27  2  0  0  0  0
 26 28  1  0  0  0  0
 28 29  1  0  0  0  0
 28 30  1  0  0  0  0
 30 31  1  0  0  0  0
 30 32  1  0  0  0  0
 30 33  1  0  0  0  0
M  END
$$$$

  -OEChem-01062216083D

 33 32  0     1  0  0  0  0  0999 V2000
   -3.5623   -2.4948    1.0311 H   0  0  0  0  0  0  0  0  0  0  0  0
   -3.5929   -1.4965    0.5851 C   0  0  0  0  0  0  0  0  0  0  0  0
   -4.3968   -0.9255    1.0554 H   0  0  0  0  0  0  0  0  0  0  0  0
   -3.8007   -1.5963   -0.4829 H   0  0  0  0  0  0  0  0  0  0  0  0
   -2.2653   -0.7923    0.7929 C   0  0  0  0  0  0  0  0  0  0  0  0
   -1.3790   -1.3435    1.4195 O   0  0  0  0  0  0  0  0  0  0  0  0
   -2.0743    0.4724    0.2718 N   0  0  0  0  0  0  0  0  0  0  0  0
   -2.8216    0.8476   -0.3040 H   0  0  0  0  0  0  0  0  0  0  0  0
   -0.7978    1.2104    0.3198 C   0  0  1  0  0  0  0  0  0  0  0  0
   -0.0301    0.6133   -0.1853 H   0  0  0  0  0  0  0  0  0  0  0  0
   -0.9613    2.5430   -0.4304 C   0  0  0  0  0  0  0  0  0  0  0  0
   -1.8115    3.0975   -0.0196 H   0  0  0  0  0  0  0  0  0  0  0  0
   -0.0632    3.1514   -0.2733 H   0  0  0  0  0  0  0  0  0  0  0  0
   -1.1502    2.3288   -1.9394 C   0  0  0  0  0  0  0  0  0  0  0  0
   -0.2898    1.7831   -2.3417 H   0  0  0  0  0  0  0  0  0  0  0  0
   -2.0463    1.7281   -2.1235 H   0  0  0  0  0  0  0  0  0  0  0  0
   -1.2849    3.6751   -2.6589 C   0  0  0  0  0  0  0  0  0  0  0  0
   -2.1319    4.2301   -2.2432 H   0  0  0  0  0  0  0  0  0  0  0  0
   -0.3796    4.2704   -2.4987 H   0  0  0  0  0  0  0  0  0  0  0  0
   -1.4974    3.4746   -4.1567 C   0  0  0  0  0  0  0  0  0  0  0  0
   -0.6410    2.9448   -4.5888 H   0  0  0  0  0  0  0  0  0  0  0  0
   -2.3950    2.8719   -4.3332 H   0  0  0  0  0  0  0  0  0  0  0  0
   -1.6428    4.7898   -4.7871 N   0  0  0  0  0  0  0  0  0  0  0  0
   -1.7624    4.7069   -5.7968 H   0  0  0  0  0  0  0  0  0  0  0  0
   -2.4101    5.3166   -4.3704 H   0  0  0  0  0  0  0  0  0  0  0  0
   -0.2714    1.4794    1.7476 C   0  0  0  0  0  0  0  0  0  0  0  0
    0.9346    1.5150    1.9525 O   0  0  0  0  0  0  0  0  0  0  0  0
   -1.1345    1.9311    2.7302 N   0  0  0  0  0  0  0  0  0  0  0  0
   -2.1246    1.8063    2.5488 H   0  0  0  0  0  0  0  0  0  0  0  0
   -0.7007    2.2198    4.0915 C   0  0  0  0  0  0  0  0  0  0  0  0
    0.0735    2.9943    4.0920 H   0  0  0  0  0  0  0  0  0  0  0  0
   -1.5442    2.5769    4.6897 H   0  0  0  0  0  0  0  0  0  0  0  0
   -0.2964    1.3179    4.5630 H   0  0  0  0  0  0  0  0  0  0  0  0
  1  2  1  0  0  0  0
  2  3  1  0  0  0  0
  2  4  1  0  0  0  0
  2  5  1  0  0  0  0
  5  6  2  0  0  0  0
  5  7  1  0  0  0  0
  7  8  1  0  0  0  0
  7  9  1  0  0  0  0
  9 10  1  0  0  0  0
  9 11  1  0  0  0  0
  9 26  1  0  0  0  0
 11 12  1  0  0  0  0
 11 13  1  0  0  0  0
 11 14  1  0  0  0  0
 14 15  1  0  0  0  0
 14 16  1  0  0  0  0
 14 17  1  0  0  0  0
 17 18  1  0  0  0  0
 17 19  1  0  0  0  0
 17 20  1  0  0  0  0
 20 21  1  0  0  0  0
 20 22  1  0  0  0  0
 20 23  1  0  0  0  0
 23 24  1  0  0  0  0
 23 25  1  0  0  0  0
 26 27  2  0  0  0  0
 26 28  1  0  0  0  0
 28 29  1  0  0  0  0
 28 30  1  0  0  0  0
 30 31  1  0  0  0  0
 30 32  1  0  0  0  0
 30 33  1  0  0  0  0
M  END
$$$$

  -OEChem-01062216083D

 33 32  0     1  0  0  0  0  0999 V2000
   -3.5786   -2.4919    1.0011 H   0  0  0  0  0  0  0  0  0  0  0  0
   -3.6035   -1.4926    0.5571 C   0  0  0  0  0  0  0  0  0  0  0  0
   -4.4143   -0.9235    1.0181 H   0  0  0  0  0  0  0  0  0  0  0  0
   -3.7970   -1.5896   -0.5139 H   0  0  0  0  0  0  0  0  0  0  0  0
   -2.2793   -0.7881    0.7834 C   0  0  0  0  0  0  0  0  0  0  0  0
   -1.4071   -1.3308    1.4370 O   0  0  0  0  0  0  0  0  0  0  0  0
   -2.0788    0.4758    0.2643 N   0  0  0  0  0  0  0  0  0  0  0  0
   -2.8182    0.8536   -0.3203 H   0  0  0  0  0  0  0  0  0  0  0  0
   -0.8007    1.2124    0.3239 C   0  0  1  0  0  0  0  0  0  0  0  0
   -0.0296    0.6164   -0.1769 H   0  0  0  0  0  0  0  0  0  0  0  0
   -0.9691    2.5439   -0.4291 C   0  0  0  0  0  0  0  0  0  0  0  0
   -1.8242    3.0929   -0.0210 H   0  0  0  0  0  0  0  0  0  0  0  0
   -0.0762    3.1594   -0.2707 H   0  0  0  0  0  0  0  0  0  0  0  0
   -1.1503    2.3289   -1.9390 C   0  0  0  0  0  0  0  0  0  0  0  0
   -0.2840    1.7895   -2.3375 H   0  0  0  0  0  0  0  0  0  0  0  0
   -2.0417    1.7226   -2.1280 H   0  0  0  0  0  0  0  0  0  0  0  0
   -1.2900    3.6744   -2.6590 C   0  0  0  0  0  0  0  0  0  0  0  0
   -2.1423    4.2243   -2.2470 H   0  0  0  0  0  0  0  0  0  0  0  0
   -0.3892    4.2755   -2.4955 H   0  0  0  0  0  0  0  0  0  0  0  0
   -1.4950    3.4716   -4.1575 C   0  0  0  0  0  0  0  0  0  0  0  0
   -0.6333    2.9471   -4.5855 H   0  0  0  0  0  0  0  0  0  0  0  0
   -2.3877    2.8626   -4.3371 H   0  0  0  0  0  0  0  0  0  0  0  0
   -1.6459    4.7849   -4.7907 N   0  0  0  0  0  0  0  0  0  0  0  0
   -1.7655    4.6993   -5.8002 H   0  0  0  0  0  0  0  0  0  0  0  0
   -2.4148    5.3099   -4.3745 H   0  0  0  0  0  0  0  0  0  0  0  0
   -0.2742    1.4894    1.7515 C   0  0  0  0  0  0  0  0  0  0  0  0
    0.9088    1.7578    1.9162 O   0  0  0  0  0  0  0  0  0  0  0  0
   -1.1549    1.6469    2.8065 N   0  0  0  0  0  0  0  0  0  0  0  0
   -2.0884    1.2799    2.6558 H   0  0  0  0  0  0  0  0  0  0  0  0
   -0.7084    1.8730    4.1752 C   0  0  0  0  0  0  0  0  0  0  0  0
   -0.1059    2.7854    4.2369 H   0  0  0  0  0  0  0  0  0  0  0  0
   -1.5700    1.9848    4.8402 H   0  0  0  0  0  0  0  0  0  0  0  0
   -0.1049    1.0286    4.5247 H   0  0  0  0  0  0  0  0  0  0  0  0
  1  2  1  0  0  0  0
  2  3  1  0  0  0  0
  2  4  1  0  0  0  0
  2  5  1  0  0  0  0
  5  6  2  0  0  0  0
  5  7  1  0  0  0  0
  7  8  1  0  0  0  0
  7  9  1  0  0  0  0
  9 10  1  0  0  0  0
  9 11  1  0  0  0  0
  9 26  1  0  0  0  0
 11 12  1  0  0  0  0
 11 13  1  0  0  0  0
 11 14  1  0  0  0  0
 14 15  1  0  0  0  0
 14 16  1  0  0  0  0
 14 17  1  0  0  0  0
 17 18  1  0  0  0  0
 17 19  1  0  0  0  0
 17 20  1  0  0  0  0
 20 21  1  0  0  0  0
 20 22  1  0  0  0  0
 20 23  1  0  0  0  0
 23 24  1  0  0  0  0
 23 25  1  0  0  0  0
 26 27  2  0  0  0  0
 26 28  1  0  0  0  0
 28 29  1  0  0  0  0
 28 30  1  0  0  0  0
 30 31  1  0  0  0  0
 30 32  1  0  0  0  0
 30 33  1  0  0  0  0
M  END
$$$$

  -OEChem-01062216083D

 33 32  0     1  0  0  0  0  0999 V2000
   -3.6166   -2.4931    0.9298 H   0  0  0  0  0  0  0  0  0  0  0  0
   -3.6306   -1.4866    0.5015 C   0  0  0  0  0  0  0  0  0  0  0  0
   -4.4463   -0.9206    0.9581 H   0  0  0  0  0  0  0  0  0  0  0  0
   -3.8076   -1.5663   -0.5739 H   0  0  0  0  0  0  0  0  0  0  0  0
   -2.3077   -0.7910    0.7607 C   0  0  0  0  0  0  0  0  0  0  0  0
   -1.4585   -1.3359    1.4425 O   0  0  0  0  0  0  0  0  0  0  0  0
   -2.0892    0.4760    0.2584 N   0  0  0  0  0  0  0  0  0  0  0  0
   -2.8261    0.8701   -0.3187 H   0  0  0  0  0  0  0  0  0  0  0  0
   -0.8115    1.2143    0.3376 C   0  0  1  0  0  0  0  0  0  0  0  0
   -0.0361    0.6218   -0.1600 H   0  0  0  0  0  0  0  0  0  0  0  0
   -0.9871    2.5434   -0.4225 C   0  0  0  0  0  0  0  0  0  0  0  0
   -1.8515    3.0841   -0.0229 H   0  0  0  0  0  0  0  0  0  0  0  0
   -0.1041    3.1719   -0.2599 H   0  0  0  0  0  0  0  0  0  0  0  0
   -1.1516    2.3254   -1.9347 C   0  0  0  0  0  0  0  0  0  0  0  0
   -0.2770    1.7942   -2.3252 H   0  0  0  0  0  0  0  0  0  0  0  0
   -2.0351    1.7108   -2.1325 H   0  0  0  0  0  0  0  0  0  0  0  0
   -1.2983    3.6696   -2.6564 C   0  0  0  0  0  0  0  0  0  0  0  0
   -2.1604    4.2106   -2.2532 H   0  0  0  0  0  0  0  0  0  0  0  0
   -0.4061    4.2809   -2.4838 H   0  0  0  0  0  0  0  0  0  0  0  0
   -1.4866    3.4650   -4.1572 C   0  0  0  0  0  0  0  0  0  0  0  0
   -0.6159    2.9492   -4.5774 H   0  0  0  0  0  0  0  0  0  0  0  0
   -2.3717    2.8473   -4.3456 H   0  0  0  0  0  0  0  0  0  0  0  0
   -1.6449    4.7775   -4.7902 N   0  0  0  0  0  0  0  0  0  0  0  0
   -1.7602    4.6920   -5.8001 H   0  0  0  0  0  0  0  0  0  0  0  0
   -2.4196    5.2960   -4.3765 H   0  0  0  0  0  0  0  0  0  0  0  0
   -0.2806    1.4930    1.7673 C   0  0  0  0  0  0  0  0  0  0  0  0
    0.8316    1.9861    1.9085 O   0  0  0  0  0  0  0  0  0  0  0  0
   -1.0953    1.3507    2.8761 N   0  0  0  0  0  0  0  0  0  0  0  0
   -1.8888    0.7314    2.7407 H   0  0  0  0  0  0  0  0  0  0  0  0
   -0.6052    1.5452    4.2347 C   0  0  0  0  0  0  0  0  0  0  0  0
   -0.2180    2.5617    4.3616 H   0  0  0  0  0  0  0  0  0  0  0  0
   -1.4157    1.3945    4.9538 H   0  0  0  0  0  0  0  0  0  0  0  0
    0.1955    0.8324    4.4580 H   0  0  0  0  0  0  0  0  0  0  0  0
  1  2  1  0  0  0  0
  2  3  1  0  0  0  0
  2  4  1  0  0  0  0
  2  5  1  0  0  0  0
  5  6  2  0  0  0  0
  5  7  1  0  0  0  0
  7  8  1  0  0  0  0
  7  9  1  0  0  0  0
  9 10  1  0  0  0  0
  9 11  1  0  0  0  0
  9 26  1  0  0  0  0
 11 12  1  0  0  0  0
 11 13  1  0  0  0  0
 11 14  1  0  0  0  0
 14 15  1  0  0  0  0
 14 16  1  0  0  0  0
 14 17  1  0  0  0  0
 17 18  1  0  0  0  0
 17 19  1  0  0  0  0
 17 20  1  0  0  0  0
 20 21  1  0  0  0  0
 20 22  1  0  0  0  0
 20 23  1  0  0  0  0
 23 24  1  0  0  0  0
 23 25  1  0  0  0  0
 26 27  2  0  0  0  0
 26 28  1  0  0  0  0
 28 29  1  0  0  0  0
 28 30  1  0  0  0  0
 30 31  1  0  0  0  0
 30 32  1  0  0  0  0
 30 33  1  0  0  0  0
M  END
$$$$

  -OEChem-01062216083D

 33 32  0     1  0  0  0  0  0999 V2000
   -3.6698   -2.4705    0.8869 H   0  0  0  0  0  0  0  0  0  0  0  0
   -3.6637   -1.4584    0.4719 C   0  0  0  0  0  0  0  0  0  0  0  0
   -4.4585   -0.8783    0.9473 H   0  0  0  0  0  0  0  0  0  0  0  0
   -3.8569   -1.5185   -0.6018 H   0  0  0  0  0  0  0  0  0  0  0  0
   -2.3197   -0.8001    0.7205 C   0  0  0  0  0  0  0  0  0  0  0  0
   -1.4687   -1.3812    1.3709 O   0  0  0  0  0  0  0  0  0  0  0  0
   -2.0828    0.4743    0.2472 N   0  0  0  0  0  0  0  0  0  0  0  0
   -2.8365    0.9099   -0.2761 H   0  0  0  0  0  0  0  0  0  0  0  0
   -0.8073    1.2161    0.3469 C   0  0  1  0  0  0  0  0  0  0  0  0
   -0.0278    0.6314   -0.1528 H   0  0  0  0  0  0  0  0  0  0  0  0
   -0.9962    2.5440   -0.4166 C   0  0  0  0  0  0  0  0  0  0  0  0
   -1.8701    3.0738   -0.0231 H   0  0  0  0  0  0  0  0  0  0  0  0
   -0.1239    3.1868   -0.2548 H   0  0  0  0  0  0  0  0  0  0  0  0
   -1.1463    2.3213   -1.9300 C   0  0  0  0  0  0  0  0  0  0  0  0
   -0.2607    1.8026   -2.3127 H   0  0  0  0  0  0  0  0  0  0  0  0
   -2.0195    1.6937   -2.1342 H   0  0  0  0  0  0  0  0  0  0  0  0
   -1.3066    3.6627   -2.6533 C   0  0  0  0  0  0  0  0  0  0  0  0
   -2.1791    4.1907   -2.2557 H   0  0  0  0  0  0  0  0  0  0  0  0
   -0.4241    4.2857   -2.4739 H   0  0  0  0  0  0  0  0  0  0  0  0
   -1.4811    3.4569   -4.1552 C   0  0  0  0  0  0  0  0  0  0  0  0
   -0.6009    2.9531   -4.5705 H   0  0  0  0  0  0  0  0  0  0  0  0
   -2.3568    2.8280   -4.3501 H   0  0  0  0  0  0  0  0  0  0  0  0
   -1.6529    4.7680   -4.7875 N   0  0  0  0  0  0  0  0  0  0  0  0
   -1.7666    4.6820   -5.7976 H   0  0  0  0  0  0  0  0  0  0  0  0
   -2.4332    5.2781   -4.3736 H   0  0  0  0  0  0  0  0  0  0  0  0
   -0.2748    1.4814    1.7830 C   0  0  0  0  0  0  0  0  0  0  0  0
    0.7130    2.1886    1.9404 O   0  0  0  0  0  0  0  0  0  0  0  0
   -0.9580    1.0445    2.9033 N   0  0  0  0  0  0  0  0  0  0  0  0
   -1.5539    0.2363    2.7322 H   0  0  0  0  0  0  0  0  0  0  0  0
   -0.4438    1.2293    4.2548 C   0  0  0  0  0  0  0  0  0  0  0  0
   -0.3039    2.2937    4.4713 H   0  0  0  0  0  0  0  0  0  0  0  0
   -1.1489    0.8206    4.9849 H   0  0  0  0  0  0  0  0  0  0  0  0
    0.5166    0.7164    4.3728 H   0  0  0  0  0  0  0  0  0  0  0  0
  1  2  1  0  0  0  0
  2  3  1  0  0  0  0
  2  4  1  0  0  0  0
  2  5  1  0  0  0  0
  5  6  2  0  0  0  0
  5  7  1  0  0  0  0
  7  8  1  0  0  0  0
  7  9  1  0  0  0  0
  9 10  1  0  0  0  0
  9 11  1  0  0  0  0
  9 26  1  0  0  0  0
 11 12  1  0  0  0  0
 11 13  1  0  0  0  0
 11 14  1  0  0  0  0
 14 15  1  0  0  0  0
 14 16  1  0  0  0  0
 14 17  1  0  0  0  0
 17 18  1  0  0  0  0
 17 19  1  0  0  0  0
 17 20  1  0  0  0  0
 20 21  1  0  0  0  0
 20 22  1  0  0  0  0
 20 23  1  0  0  0  0
 23 24  1  0  0  0  0
 23 25  1  0  0  0  0
 26 27  2  0  0  0  0
 26 28  1  0  0  0  0
 28 29  1  0  0  0  0
 28 30  1  0  0  0  0
 30 31  1  0  0  0  0
 30 32  1  0  0  0  0
 30 33  1  0  0  0  0
M  END
$$$$

  -OEChem-01062216083D

 33 32  0     1  0  0  0  0  0999 V2000
   -3.6915   -2.4479    0.9277 H   0  0  0  0  0  0  0  0  0  0  0  0
   -3.6803   -1.4337    0.5184 C   0  0  0  0  0  0  0  0  0  0  0  0
   -4.4209   -0.8320    1.0510 H   0  0  0  0  0  0  0  0  0  0  0  0
   -3.9489   -1.4788   -0.5396 H   0  0  0  0  0  0  0  0  0  0  0  0
   -2.3021   -0.8204    0.6769 C   0  0  0  0  0  0  0  0  0  0  0  0
   -1.4146   -1.4535    1.2235 O   0  0  0  0  0  0  0  0  0  0  0  0
   -2.0690    0.4636    0.2274 N   0  0  0  0  0  0  0  0  0  0  0  0
   -2.8618    0.9454   -0.1860 H   0  0  0  0  0  0  0  0  0  0  0  0
   -0.8030    1.2202    0.3437 C   0  0  1  0  0  0  0  0  0  0  0  0
   -0.0141    0.6480   -0.1554 H   0  0  0  0  0  0  0  0  0  0  0  0
   -1.0046    2.5473   -0.4218 C   0  0  0  0  0  0  0  0  0  0  0  0
   -1.8885    3.0650   -0.0351 H   0  0  0  0  0  0  0  0  0  0  0  0
   -0.1433    3.2033   -0.2561 H   0  0  0  0  0  0  0  0  0  0  0  0
   -1.1365    2.3257   -1.9366 C   0  0  0  0  0  0  0  0  0  0  0  0
   -0.2388    1.8228   -2.3119 H   0  0  0  0  0  0  0  0  0  0  0  0
   -1.9972    1.6843   -2.1509 H   0  0  0  0  0  0  0  0  0  0  0  0
   -1.3099    3.6667   -2.6585 C   0  0  0  0  0  0  0  0  0  0  0  0
   -2.1934    4.1821   -2.2682 H   0  0  0  0  0  0  0  0  0  0  0  0
   -0.4377    4.3020   -2.4704 H   0  0  0  0  0  0  0  0  0  0  0  0
   -1.4666    3.4599   -4.1620 C   0  0  0  0  0  0  0  0  0  0  0  0
   -0.5741    2.9705   -4.5681 H   0  0  0  0  0  0  0  0  0  0  0  0
   -2.3300    2.8170   -4.3655 H   0  0  0  0  0  0  0  0  0  0  0  0
   -1.6520    4.7684   -4.7959 N   0  0  0  0  0  0  0  0  0  0  0  0
   -1.7592    4.6802   -5.8064 H   0  0  0  0  0  0  0  0  0  0  0  0
   -2.4413    5.2681   -4.3867 H   0  0  0  0  0  0  0  0  0  0  0  0
   -0.2802    1.4716    1.7895 C   0  0  0  0  0  0  0  0  0  0  0  0
    0.5383    2.3583    2.0006 O   0  0  0  0  0  0  0  0  0  0  0  0
   -0.7709    0.7725    2.8771 N   0  0  0  0  0  0  0  0  0  0  0  0
   -1.2069   -0.1191    2.6391 H   0  0  0  0  0  0  0  0  0  0  0  0
   -0.2355    0.9273    4.2239 C   0  0  0  0  0  0  0  0  0  0  0  0
   -0.3322    1.9655    4.5581 H   0  0  0  0  0  0  0  0  0  0  0  0
   -0.7843    0.2889    4.9226 H   0  0  0  0  0  0  0  0  0  0  0  0
    0.8220    0.6447    4.2505 H   0  0  0  0  0  0  0  0  0  0  0  0
  1  2  1  0  0  0  0
  2  3  1  0  0  0  0
  2  4  1  0  0  0  0
  2  5  1  0  0  0  0
  5  6  2  0  0  0  0
  5  7  1  0  0  0  0
  7  8  1  0  0  0  0
  7  9  1  0  0  0  0
  9 10  1  0  0  0  0
  9 11  1  0  0  0  0
  9 26  1  0  0  0  0
 11 12  1  0  0  0  0
 11 13  1  0  0  0  0
 11 14  1  0  0  0  0
 14 15  1  0  0  0  0
 14 16  1  0  0  0  0
 14 17  1  0  0  0  0
 17 18  1  0  0  0  0
 17 19  1  0  0  0  0
 17 20  1  0  0  0  0
 20 21  1  0  0  0  0
 20 22  1  0  0  0  0
 20 23  1  0  0  0  0
 23 24  1  0  0  0  0
 23 25  1  0  0  0  0
 26 27  2  0  0  0  0
 26 28  1  0  0  0  0
 28 29  1  0  0  0  0
 28 30  1  0  0  0  0
 30 31  1  0  0  0  0
 30 32  1  0  0  0  0
 30 33  1  0  0  0  0
M  END
$$$$

  -OEChem-01062216083D

 33 32  0     1  0  0  0  0  0999 V2000
   -3.6817   -2.4350    0.9788 H   0  0  0  0  0  0  0  0  0  0  0  0
   -3.6789   -1.4183    0.5754 C   0  0  0  0  0  0  0  0  0  0  0  0
   -4.3714   -0.8069    1.1590 H   0  0  0  0  0  0  0  0  0  0  0  0
   -4.0179   -1.4507   -0.4628 H   0  0  0  0  0  0  0  0  0  0  0  0
   -2.2821   -0.8314    0.6468 C   0  0  0  0  0  0  0  0  0  0  0  0
   -1.3609   -1.5059    1.0774 O   0  0  0  0  0  0  0  0  0  0  0  0
   -2.0620    0.4617    0.2165 N   0  0  0  0  0  0  0  0  0  0  0  0
   -2.8844    0.9749   -0.0870 H   0  0  0  0  0  0  0  0  0  0  0  0
   -0.8022    1.2271    0.3387 C   0  0  1  0  0  0  0  0  0  0  0  0
   -0.0106    0.6624   -0.1648 H   0  0  0  0  0  0  0  0  0  0  0  0
   -1.0074    2.5545   -0.4256 C   0  0  0  0  0  0  0  0  0  0  0  0
   -1.8949    3.0684   -0.0416 H   0  0  0  0  0  0  0  0  0  0  0  0
   -0.1485    3.2132   -0.2573 H   0  0  0  0  0  0  0  0  0  0  0  0
   -1.1308    2.3315   -1.9410 C   0  0  0  0  0  0  0  0  0  0  0  0
   -0.2302    1.8312   -2.3126 H   0  0  0  0  0  0  0  0  0  0  0  0
   -1.9880    1.6866   -2.1577 H   0  0  0  0  0  0  0  0  0  0  0  0
   -1.3079    3.6704   -2.6648 C   0  0  0  0  0  0  0  0  0  0  0  0
   -2.1962    4.1812   -2.2794 H   0  0  0  0  0  0  0  0  0  0  0  0
   -0.4406    4.3111   -2.4729 H   0  0  0  0  0  0  0  0  0  0  0  0
   -1.4562    3.4608   -4.1688 C   0  0  0  0  0  0  0  0  0  0  0  0
   -0.5599    2.9749   -4.5705 H   0  0  0  0  0  0  0  0  0  0  0  0
   -2.3160    2.8140   -4.3754 H   0  0  0  0  0  0  0  0  0  0  0  0
   -1.6457    4.7676   -4.8050 N   0  0  0  0  0  0  0  0  0  0  0  0
   -1.7461    4.6775   -5.8161 H   0  0  0  0  0  0  0  0  0  0  0  0
   -2.4412    5.2620   -4.4013 H   0  0  0  0  0  0  0  0  0  0  0  0
   -0.2808    1.4578    1.7904 C   0  0  0  0  0  0  0  0  0  0  0  0
    0.3235    2.4838    2.0785 O   0  0  0  0  0  0  0  0  0  0  0  0
   -0.5254    0.5549    2.8084 N   0  0  0  0  0  0  0  0  0  0  0  0
   -0.8372   -0.3693    2.5033 H   0  0  0  0  0  0  0  0  0  0  0  0
    0.0246    0.6907    4.1515 C   0  0  0  0  0  0  0  0  0  0  0  0
   -0.2990    1.6330    4.6058 H   0  0  0  0  0  0  0  0  0  0  0  0
   -0.3202   -0.1322    4.7848 H   0  0  0  0  0  0  0  0  0  0  0  0
    1.1189    0.6711    4.1206 H   0  0  0  0  0  0  0  0  0  0  0  0
  1  2  1  0  0  0  0
  2  3  1  0  0  0  0
  2  4  1  0  0  0  0
  2  5  1  0  0  0  0
  5  6  2  0  0  0  0
  5  7  1  0  0  0  0
  7  8  1  0  0  0  0
  7  9  1  0  0  0  0
  9 10  1  0  0  0  0
  9 11  1  0  0  0  0
  9 26  1  0  0  0  0
 11 12  1  0  0  0  0
 11 13  1  0  0  0  0
 11 14  1  0  0  0  0
 14 15  1  0  0  0  0
 14 16  1  0  0  0  0
 14 17  1  0  0  0  0
 17 18  1  0  0  0  0
 17 19  1  0  0  0  0
 17 20  1  0  0  0  0
 20 21  1  0  0  0  0
 20 22  1  0  0  0  0
 20 23  1  0  0  0  0
 23 24  1  0  0  0  0
 23 25  1  0  0  0  0
 26 27  2  0  0  0  0
 26 28  1  0  0  0  0
 28 29  1  0  0  0  0
 28 30  1  0  0  0  0
 30 31  1  0  0  0  0
 30 32  1  0  0  0  0
 30 33  1  0  0  0  0
M  END
$$$$

  -OEChem-01062216083D

 33 32  0     1  0  0  0  0  0999 V2000
   -3.6415   -2.4252    1.0745 H   0  0  0  0  0  0  0  0  0  0  0  0
   -3.6534   -1.4136    0.6587 C   0  0  0  0  0  0  0  0  0  0  0  0
   -4.3058   -0.7890    1.2740 H   0  0  0  0  0  0  0  0  0  0  0  0
   -4.0519   -1.4560   -0.3579 H   0  0  0  0  0  0  0  0  0  0  0  0
   -2.2497   -0.8388    0.6414 C   0  0  0  0  0  0  0  0  0  0  0  0
   -1.3047   -1.5349    0.9774 O   0  0  0  0  0  0  0  0  0  0  0  0
   -2.0468    0.4572    0.2104 N   0  0  0  0  0  0  0  0  0  0  0  0
   -2.8863    0.9868   -0.0058 H   0  0  0  0  0  0  0  0  0  0  0  0
   -0.7869    1.2227    0.3190 C   0  0  1  0  0  0  0  0  0  0  0  0
    0.0002    0.6593   -0.1931 H   0  0  0  0  0  0  0  0  0  0  0  0
   -0.9893    2.5533   -0.4394 C   0  0  0  0  0  0  0  0  0  0  0  0
   -1.8705    3.0718   -0.0475 H   0  0  0  0  0  0  0  0  0  0  0  0
   -0.1236    3.2038   -0.2726 H   0  0  0  0  0  0  0  0  0  0  0  0
   -1.1256    2.3363   -1.9544 C   0  0  0  0  0  0  0  0  0  0  0  0
   -0.2317    1.8303   -2.3345 H   0  0  0  0  0  0  0  0  0  0  0  0
   -1.9898    1.6984   -2.1652 H   0  0  0  0  0  0  0  0  0  0  0  0
   -1.2994    3.6783   -2.6738 C   0  0  0  0  0  0  0  0  0  0  0  0
   -2.1818    4.1934   -2.2807 H   0  0  0  0  0  0  0  0  0  0  0  0
   -0.4268    4.3128   -2.4866 H   0  0  0  0  0  0  0  0  0  0  0  0
   -1.4603    3.4731   -4.1773 C   0  0  0  0  0  0  0  0  0  0  0  0
   -0.5703    2.9819   -4.5866 H   0  0  0  0  0  0  0  0  0  0  0  0
   -2.3258    2.8321   -4.3789 H   0  0  0  0  0  0  0  0  0  0  0  0
   -1.6459    4.7821   -4.8103 N   0  0  0  0  0  0  0  0  0  0  0  0
   -1.7513    4.6944   -5.8210 H   0  0  0  0  0  0  0  0  0  0  0  0
   -2.4366    5.2803   -4.4021 H   0  0  0  0  0  0  0  0  0  0  0  0
   -0.2616    1.4383    1.7706 C   0  0  0  0  0  0  0  0  0  0  0  0
    0.1012    2.5455    2.1495 O   0  0  0  0  0  0  0  0  0  0  0  0
   -0.2331    0.4088    2.6917 N   0  0  0  0  0  0  0  0  0  0  0  0
   -0.4607   -0.5222    2.3344 H   0  0  0  0  0  0  0  0  0  0  0  0
    0.2873    0.5389    4.0465 C   0  0  0  0  0  0  0  0  0  0  0  0
   -0.2602    1.3129    4.5944 H   0  0  0  0  0  0  0  0  0  0  0  0
    0.1776   -0.4074    4.5846 H   0  0  0  0  0  0  0  0  0  0  0  0
    1.3492    0.8053    4.0253 H   0  0  0  0  0  0  0  0  0  0  0  0
  1  2  1  0  0  0  0
  2  3  1  0  0  0  0
  2  4  1  0  0  0  0
  2  5  1  0  0  0  0
  5  6  2  0  0  0  0
  5  7  1  0  0  0  0
  7  8  1  0  0  0  0
  7  9  1  0  0  0  0
  9 10  1  0  0  0  0
  9 11  1  0  0  0  0
  9 26  1  0  0  0  0
 11 12  1  0  0  0  0
 11 13  1  0  0  0  0
 11 14  1  0  0  0  0
 14 15  1  0  0  0  0
 14 16  1  0  0  0  0
 14 17  1  0  0  0  0
 17 18  1  0  0  0  0
 17 19  1  0  0  0  0
 17 20  1  0  0  0  0
 20 21  1  0  0  0  0
 20 22  1  0  0  0  0
 20 23  1  0  0  0  0
 23 24  1  0  0  0  0
 23 25  1  0  0  0  0
 26 27  2  0  0  0  0
 26 28  1  0  0  0  0
 28 29  1  0  0  0  0
 28 30  1  0  0  0  0
 30 31  1  0  0  0  0
 30 32  1  0  0  0  0
 30 33  1  0  0  0  0
M  END
$$$$

  -OEChem-01062216083D

 33 32  0     1  0  0  0  0  0999 V2000
   -3.5791   -2.4152    1.1729 H   0  0  0  0  0  0  0  0  0  0  0  0
   -3.6084   -1.4121    0.7380 C   0  0  0  0  0  0  0  0  0  0  0  0
   -4.2404   -0.7773    1.3639 H   0  0  0  0  0  0  0  0  0  0  0  0
   -4.0429   -1.4749   -0.2627 H   0  0  0  0  0  0  0  0  0  0  0  0
   -2.2070   -0.8357    0.6591 C   0  0  0  0  0  0  0  0  0  0  0  0
   -1.2472   -1.5314    0.9533 O   0  0  0  0  0  0  0  0  0  0  0  0
   -2.0222    0.4576    0.2109 N   0  0  0  0  0  0  0  0  0  0  0  0
   -2.8698    0.9929    0.0459 H   0  0  0  0  0  0  0  0  0  0  0  0
   -0.7594    1.2192    0.2932 C   0  0  1  0  0  0  0  0  0  0  0  0
    0.0197    0.6534   -0.2282 H   0  0  0  0  0  0  0  0  0  0  0  0
   -0.9583    2.5524   -0.4587 C   0  0  0  0  0  0  0  0  0  0  0  0
   -1.8285    3.0794   -0.0531 H   0  0  0  0  0  0  0  0  0  0  0  0
   -0.0827    3.1909   -0.2973 H   0  0  0  0  0  0  0  0  0  0  0  0
   -1.1201    2.3404   -1.9714 C   0  0  0  0  0  0  0  0  0  0  0  0
   -0.2376    1.8259   -2.3663 H   0  0  0  0  0  0  0  0  0  0  0  0
   -1.9938    1.7115   -2.1694 H   0  0  0  0  0  0  0  0  0  0  0  0
   -1.2901    3.6862   -2.6850 C   0  0  0  0  0  0  0  0  0  0  0  0
   -2.1607    4.2100   -2.2772 H   0  0  0  0  0  0  0  0  0  0  0  0
   -0.4078    4.3109   -2.5098 H   0  0  0  0  0  0  0  0  0  0  0  0
   -1.4760    3.4860   -4.1862 C   0  0  0  0  0  0  0  0  0  0  0  0
   -0.5973    2.9864   -4.6092 H   0  0  0  0  0  0  0  0  0  0  0  0
   -2.3509    2.8542   -4.3756 H   0  0  0  0  0  0  0  0  0  0  0  0
   -1.6570    4.7978   -4.8149 N   0  0  0  0  0  0  0  0  0  0  0  0
   -1.7816    4.7124   -5.8237 H   0  0  0  0  0  0  0  0  0  0  0  0
   -2.4344    5.3051   -4.3924 H   0  0  0  0  0  0  0  0  0  0  0  0
   -0.2276    1.4311    1.7400 C   0  0  0  0  0  0  0  0  0  0  0  0
   -0.0972    2.5566    2.2069 O   0  0  0  0  0  0  0  0  0  0  0  0
    0.0837    0.3545    2.5470 N   0  0  0  0  0  0  0  0  0  0  0  0
   -0.1106   -0.5729    2.1602 H   0  0  0  0  0  0  0  0  0  0  0  0
    0.5438    0.4688    3.9245 C   0  0  0  0  0  0  0  0  0  0  0  0
   -0.1998    0.9907    4.5356 H   0  0  0  0  0  0  0  0  0  0  0  0
    0.7060   -0.5258    4.3507 H   0  0  0  0  0  0  0  0  0  0  0  0
    1.4877    1.0220    3.9670 H   0  0  0  0  0  0  0  0  0  0  0  0
  1  2  1  0  0  0  0
  2  3  1  0  0  0  0
  2  4  1  0  0  0  0
  2  5  1  0  0  0  0
  5  6  2  0  0  0  0
  5  7  1  0  0  0  0
  7  8  1  0  0  0  0
  7  9  1  0  0  0  0
  9 10  1  0  0  0  0
  9 11  1  0  0  0  0
  9 26  1  0  0  0  0
 11 12  1  0  0  0  0
 11 13  1  0  0  0  0
 11 14  1  0  0  0  0
 14 15  1  0  0  0  0
 14 16  1  0  0  0  0
 14 17  1  0  0  0  0
 17 18  1  0  0  0  0
 17 19  1  0  0  0  0
 17 20  1  0  0  0  0
 20 21  1  0  0  0  0
 20 22  1  0  0  0  0
 20 23  1  0  0  0  0
 23 24  1  0  0  0  0
 23 25  1  0  0  0  0
 26 27  2  0  0  0  0
 26 28  1  0  0  0  0
 28 29  1  0  0  0  0
 28 30  1  0  0  0  0
 30 31  1  0  0  0  0
 30 32  1  0  0  0  0
 30 33  1  0  0  0  0
M  END
$$$$

  -OEChem-01062216083D

 33 32  0     1  0  0  0  0  0999 V2000
   -3.4844   -2.4175    1.2424 H   0  0  0  0  0  0  0  0  0  0  0  0
   -3.5418   -1.4059    0.8306 C   0  0  0  0  0  0  0  0  0  0  0  0
   -4.1370   -0.7856    1.5052 H   0  0  0  0  0  0  0  0  0  0  0  0
   -4.0340   -1.4500   -0.1439 H   0  0  0  0  0  0  0  0  0  0  0  0
   -2.1497   -0.8222    0.6814 C   0  0  0  0  0  0  0  0  0  0  0  0
   -1.1705   -1.5010    0.9535 O   0  0  0  0  0  0  0  0  0  0  0  0
   -1.9928    0.4641    0.2038 N   0  0  0  0  0  0  0  0  0  0  0  0
   -2.8468    1.0015    0.0848 H   0  0  0  0  0  0  0  0  0  0  0  0
   -0.7286    1.2206    0.2618 C   0  0  1  0  0  0  0  0  0  0  0  0
    0.0471    0.6530   -0.2632 H   0  0  0  0  0  0  0  0  0  0  0  0
   -0.9260    2.5555   -0.4836 C   0  0  0  0  0  0  0  0  0  0  0  0
   -1.7883    3.0873   -0.0674 H   0  0  0  0  0  0  0  0  0  0  0  0
   -0.0436    3.1859   -0.3269 H   0  0  0  0  0  0  0  0  0  0  0  0
   -1.1128    2.3471   -1.9938 C   0  0  0  0  0  0  0  0  0  0  0  0
   -0.2416    1.8243   -2.4027 H   0  0  0  0  0  0  0  0  0  0  0  0
   -1.9958    1.7272   -2.1789 H   0  0  0  0  0  0  0  0  0  0  0  0
   -1.2808    3.6951   -2.7029 C   0  0  0  0  0  0  0  0  0  0  0  0
   -2.1400    4.2268   -2.2813 H   0  0  0  0  0  0  0  0  0  0  0  0
   -0.3899    4.3108   -2.5404 H   0  0  0  0  0  0  0  0  0  0  0  0
   -1.4918    3.4987   -4.2013 C   0  0  0  0  0  0  0  0  0  0  0  0
   -0.6251    2.9908   -4.6389 H   0  0  0  0  0  0  0  0  0  0  0  0
   -2.3761    2.8764   -4.3780 H   0  0  0  0  0  0  0  0  0  0  0  0
   -1.6697    4.8134   -4.8244 N   0  0  0  0  0  0  0  0  0  0  0  0
   -1.8101    4.7310   -5.8313 H   0  0  0  0  0  0  0  0  0  0  0  0
   -2.4365    5.3265   -4.3895 H   0  0  0  0  0  0  0  0  0  0  0  0
   -0.2081    1.4343    1.7081 C   0  0  0  0  0  0  0  0  0  0  0  0
   -0.3120    2.5220    2.2631 O   0  0  0  0  0  0  0  0  0  0  0  0
    0.3740    0.3880    2.3965 N   0  0  0  0  0  0  0  0  0  0  0  0
    0.2344   -0.5376    1.9829 H   0  0  0  0  0  0  0  0  0  0  0  0
    0.7740    0.4729    3.7947 C   0  0  0  0  0  0  0  0  0  0  0  0
   -0.0961    0.6644    4.4309 H   0  0  0  0  0  0  0  0  0  0  0  0
    1.2370   -0.4666    4.1110 H   0  0  0  0  0  0  0  0  0  0  0  0
    1.5008    1.2794    3.9373 H   0  0  0  0  0  0  0  0  0  0  0  0
  1  2  1  0  0  0  0
  2  3  1  0  0  0  0
  2  4  1  0  0  0  0
  2  5  1  0  0  0  0
  5  6  2  0  0  0  0
  5  7  1  0  0  0  0
  7  8  1  0  0  0  0
  7  9  1  0  0  0  0
  9 10  1  0  0  0  0
  9 11  1  0  0  0  0
  9 26  1  0  0  0  0
 11 12  1  0  0  0  0
 11 13  1  0  0  0  0
 11 14  1  0  0  0  0
 14 15  1  0  0  0  0
 14 16  1  0  0  0  0
 14 17  1  0  0  0  0
 17 18  1  0  0  0  0
 17 19  1  0  0  0  0
 17 20  1  0  0  0  0
 20 21  1  0  0  0  0
 20 22  1  0  0  0  0
 20 23  1  0  0  0  0
 23 24  1  0  0  0  0
 23 25  1  0  0  0  0
 26 27  2  0  0  0  0
 26 28  1  0  0  0  0
 28 29  1  0  0  0  0
 28 30  1  0  0  0  0
 30 31  1  0  0  0  0
 30 32  1  0  0  0  0
 30 33  1  0  0  0  0
M  END
$$$$

  -OEChem-01062216083D

 33 32  0     1  0  0  0  0  0999 V2000
   -3.4039   -2.4168    1.3235 H   0  0  0  0  0  0  0  0  0  0  0  0
   -3.4873   -1.4121    0.8995 C   0  0  0  0  0  0  0  0  0  0  0  0
   -4.0670   -0.7888    1.5849 H   0  0  0  0  0  0  0  0  0  0  0  0
   -4.0116   -1.4756   -0.0571 H   0  0  0  0  0  0  0  0  0  0  0  0
   -2.1083   -0.8137    0.6960 C   0  0  0  0  0  0  0  0  0  0  0  0
   -1.1097   -1.4678    0.9611 O   0  0  0  0  0  0  0  0  0  0  0  0
   -1.9813    0.4643    0.1884 N   0  0  0  0  0  0  0  0  0  0  0  0
   -2.8401    1.0016    0.1110 H   0  0  0  0  0  0  0  0  0  0  0  0
   -0.7178    1.2178    0.2340 C   0  0  1  0  0  0  0  0  0  0  0  0
    0.0593    0.6505   -0.2888 H   0  0  0  0  0  0  0  0  0  0  0  0
   -0.9110    2.5558   -0.5045 C   0  0  0  0  0  0  0  0  0  0  0  0
   -1.7687    3.0906   -0.0820 H   0  0  0  0  0  0  0  0  0  0  0  0
   -0.0245    3.1803   -0.3474 H   0  0  0  0  0  0  0  0  0  0  0  0
   -1.1105    2.3542   -2.0137 C   0  0  0  0  0  0  0  0  0  0  0  0
   -0.2467    1.8265   -2.4315 H   0  0  0  0  0  0  0  0  0  0  0  0
   -1.9994    1.7412   -2.1934 H   0  0  0  0  0  0  0  0  0  0  0  0
   -1.2741    3.7061   -2.7166 C   0  0  0  0  0  0  0  0  0  0  0  0
   -2.1263    4.2423   -2.2865 H   0  0  0  0  0  0  0  0  0  0  0  0
   -0.3778    4.3155   -2.5582 H   0  0  0  0  0  0  0  0  0  0  0  0
   -1.4975    3.5163   -4.2140 C   0  0  0  0  0  0  0  0  0  0  0  0
   -0.6379    3.0034   -4.6595 H   0  0  0  0  0  0  0  0  0  0  0  0
   -2.3876    2.9010   -4.3856 H   0  0  0  0  0  0  0  0  0  0  0  0
   -1.6708    4.8341   -4.8322 N   0  0  0  0  0  0  0  0  0  0  0  0
   -1.8228    4.7548   -5.8376 H   0  0  0  0  0  0  0  0  0  0  0  0
   -2.4289    5.3524   -4.3883 H   0  0  0  0  0  0  0  0  0  0  0  0
   -0.2220    1.4373    1.6846 C   0  0  0  0  0  0  0  0  0  0  0  0
   -0.5467    2.4367    2.3155 O   0  0  0  0  0  0  0  0  0  0  0  0
    0.6112    0.5043    2.2704 N   0  0  0  0  0  0  0  0  0  0  0  0
    0.6008   -0.4142    1.8233 H   0  0  0  0  0  0  0  0  0  0  0  0
    1.0145    0.5800    3.6684 C   0  0  0  0  0  0  0  0  0  0  0  0
    0.1403    0.5037    4.3232 H   0  0  0  0  0  0  0  0  0  0  0  0
    1.7017   -0.2373    3.9072 H   0  0  0  0  0  0  0  0  0  0  0  0
    1.5244    1.5279    3.8702 H   0  0  0  0  0  0  0  0  0  0  0  0
  1  2  1  0  0  0  0
  2  3  1  0  0  0  0
  2  4  1  0  0  0  0
  2  5  1  0  0  0  0
  5  6  2  0  0  0  0
  5  7  1  0  0  0  0
  7  8  1  0  0  0  0
  7  9  1  0  0  0  0
  9 10  1  0  0  0  0
  9 11  1  0  0  0  0
  9 26  1  0  0  0  0
 11 12  1  0  0  0  0
 11 13  1  0  0  0  0
 11 14  1  0  0  0  0
 14 15  1  0  0  0  0
 14 16  1  0  0  0  0
 14 17  1  0  0  0  0
 17 18  1  0  0  0  0
 17 19  1  0  0  0  0
 17 20  1  0  0  0  0
 20 21  1  0  0  0  0
 20 22  1  0  0  0  0
 20 23  1  0  0  0  0
 23 24  1  0  0  0  0
 23 25  1  0  0  0  0
 26 27  2  0  0  0  0
 26 28  1  0  0  0  0
 28 29  1  0  0  0  0
 28 30  1  0  0  0  0
 30 31  1  0  0  0  0
 30 32  1  0  0  0  0
 30 33  1  0  0  0  0
M  END
$$$$

  -OEChem-01062216083D

 33 32  0     1  0  0  0  0  0999 V2000
   -3.3502   -2.4134    1.3955 H   0  0  0  0  0  0  0  0  0  0  0  0
   -3.4552   -1.4181    0.9548 C   0  0  0  0  0  0  0  0  0  0  0  0
   -4.0162   -0.7852    1.6466 H   0  0  0  0  0  0  0  0  0  0  0  0
   -4.0099   -1.5039    0.0174 H   0  0  0  0  0  0  0  0  0  0  0  0
   -2.0882   -0.8146    0.6947 C   0  0  0  0  0  0  0  0  0  0  0  0
   -1.0757   -1.4560    0.9376 O   0  0  0  0  0  0  0  0  0  0  0  0
   -1.9856    0.4576    0.1678 N   0  0  0  0  0  0  0  0  0  0  0  0
   -2.8457    0.9981    0.1452 H   0  0  0  0  0  0  0  0  0  0  0  0
   -0.7236    1.2107    0.2097 C   0  0  1  0  0  0  0  0  0  0  0  0
    0.0546    0.6424   -0.3109 H   0  0  0  0  0  0  0  0  0  0  0  0
   -0.9095    2.5523   -0.5211 C   0  0  0  0  0  0  0  0  0  0  0  0
   -1.7644    3.0893   -0.0958 H   0  0  0  0  0  0  0  0  0  0  0  0
   -0.0196    3.1707   -0.3608 H   0  0  0  0  0  0  0  0  0  0  0  0
   -1.1121    2.3580   -2.0303 C   0  0  0  0  0  0  0  0  0  0  0  0
   -0.2520    1.8266   -2.4513 H   0  0  0  0  0  0  0  0  0  0  0  0
   -2.0053    1.7515   -2.2112 H   0  0  0  0  0  0  0  0  0  0  0  0
   -1.2682    3.7137   -2.7265 C   0  0  0  0  0  0  0  0  0  0  0  0
   -2.1164    4.2532   -2.2928 H   0  0  0  0  0  0  0  0  0  0  0  0
   -0.3675    4.3157   -2.5674 H   0  0  0  0  0  0  0  0  0  0  0  0
   -1.4948    3.5326   -4.2242 C   0  0  0  0  0  0  0  0  0  0  0  0
   -0.6393    3.0164   -4.6741 H   0  0  0  0  0  0  0  0  0  0  0  0
   -2.3892    2.9239   -4.3978 H   0  0  0  0  0  0  0  0  0  0  0  0
   -1.6604    4.8551   -4.8339 N   0  0  0  0  0  0  0  0  0  0  0  0
   -1.8174    4.7831   -5.8391 H   0  0  0  0  0  0  0  0  0  0  0  0
   -2.4129    5.3759   -4.3836 H   0  0  0  0  0  0  0  0  0  0  0  0
   -0.2443    1.4363    1.6627 C   0  0  0  0  0  0  0  0  0  0  0  0
   -0.7781    2.2877    2.3649 O   0  0  0  0  0  0  0  0  0  0  0  0
    0.8095    0.6966    2.1632 N   0  0  0  0  0  0  0  0  0  0  0  0
    1.0090   -0.1644    1.6565 H   0  0  0  0  0  0  0  0  0  0  0  0
    1.2315    0.7821    3.5553 C   0  0  0  0  0  0  0  0  0  0  0  0
    0.4234    0.4608    4.2205 H   0  0  0  0  0  0  0  0  0  0  0  0
    2.0999    0.1389    3.7262 H   0  0  0  0  0  0  0  0  0  0  0  0
    1.5099    1.8101    3.8100 H   0  0  0  0  0  0  0  0  0  0  0  0
  1  2  1  0  0  0  0
  2  3  1  0  0  0  0
  2  4  1  0  0  0  0
  2  5  1  0  0  0  0
  5  6  2  0  0  0  0
  5  7  1  0  0  0  0
  7  8  1  0  0  0  0
  7  9  1  0  0  0  0
  9 10  1  0  0  0  0
  9 11  1  0  0  0  0
  9 26  1  0  0  0  0
 11 12  1  0  0  0  0
 11 13  1  0  0  0  0
 11 14  1  0  0  0  0
 14 15  1  0  0  0  0
 14 16  1  0  0  0  0
 14 17  1  0  0  0  0
 17 18  1  0  0  0  0
 17 19  1  0  0  0  0
 17 20  1  0  0  0  0
 20 21  1  0  0  0  0
 20 22  1  0  0  0  0
 20 23  1  0  0  0  0
 23 24  1  0  0  0  0
 23 25  1  0  0  0  0
 26 27  2  0  0  0  0
 26 28  1  0  0  0  0
 28 29  1  0  0  0  0
 28 30  1  0  0  0  0
 30 31  1  0  0  0  0
 30 32  1  0  0  0  0
 30 33  1  0  0  0  0
M  END
$$$$

  -OEChem-01062216083D

 33 32  0     1  0  0  0  0  0999 V2000
   -3.3315   -2.4100    1.4370 H   0  0  0  0  0  0  0  0  0  0  0  0
   -3.4456   -1.4176    0.9922 C   0  0  0  0  0  0  0  0  0  0  0  0
   -3.9865   -0.7777    1.6938 H   0  0  0  0  0  0  0  0  0  0  0  0
   -4.0243   -1.5088    0.0700 H   0  0  0  0  0  0  0  0  0  0  0  0
   -2.0839   -0.8209    0.6928 C   0  0  0  0  0  0  0  0  0  0  0  0
   -1.0683   -1.4647    0.9137 O   0  0  0  0  0  0  0  0  0  0  0  0
   -1.9910    0.4461    0.1516 N   0  0  0  0  0  0  0  0  0  0  0  0
   -2.8497    0.9889    0.1656 H   0  0  0  0  0  0  0  0  0  0  0  0
   -0.7297    1.2004    0.1937 C   0  0  1  0  0  0  0  0  0  0  0  0
    0.0489    0.6293   -0.3225 H   0  0  0  0  0  0  0  0  0  0  0  0
   -0.9113    2.5439   -0.5321 C   0  0  0  0  0  0  0  0  0  0  0  0
   -1.7652    3.0806   -0.1044 H   0  0  0  0  0  0  0  0  0  0  0  0
   -0.0202    3.1597   -0.3682 H   0  0  0  0  0  0  0  0  0  0  0  0
   -1.1132    2.3566   -2.0424 C   0  0  0  0  0  0  0  0  0  0  0  0
   -0.2546    1.8245   -2.4655 H   0  0  0  0  0  0  0  0  0  0  0  0
   -2.0080    1.7529   -2.2261 H   0  0  0  0  0  0  0  0  0  0  0  0
   -1.2650    3.7163   -2.7324 C   0  0  0  0  0  0  0  0  0  0  0  0
   -2.1129    4.2548   -2.2973 H   0  0  0  0  0  0  0  0  0  0  0  0
   -0.3639    4.3166   -2.5686 H   0  0  0  0  0  0  0  0  0  0  0  0
   -1.4909    3.5442   -4.2314 C   0  0  0  0  0  0  0  0  0  0  0  0
   -0.6369    3.0282   -4.6841 H   0  0  0  0  0  0  0  0  0  0  0  0
   -2.3871    2.9395   -4.4091 H   0  0  0  0  0  0  0  0  0  0  0  0
   -1.6521    4.8709   -4.8333 N   0  0  0  0  0  0  0  0  0  0  0  0
   -1.8036    4.8056   -5.8400 H   0  0  0  0  0  0  0  0  0  0  0  0
   -2.4069    5.3892   -4.3838 H   0  0  0  0  0  0  0  0  0  0  0  0
   -0.2596    1.4389    1.6465 C   0  0  0  0  0  0  0  0  0  0  0  0
   -0.9561    2.0951    2.4131 O   0  0  0  0  0  0  0  0  0  0  0  0
    0.9613    0.9528    2.0738 N   0  0  0  0  0  0  0  0  0  0  0  0
    1.3821    0.2356    1.4886 H   0  0  0  0  0  0  0  0  0  0  0  0
    1.4011    1.0537    3.4595 C   0  0  0  0  0  0  0  0  0  0  0  0
    0.7149    0.5117    4.1186 H   0  0  0  0  0  0  0  0  0  0  0  0
    2.4016    0.6249    3.5701 H   0  0  0  0  0  0  0  0  0  0  0  0
    1.4393    2.1015    3.7757 H   0  0  0  0  0  0  0  0  0  0  0  0
  1  2  1  0  0  0  0
  2  3  1  0  0  0  0
  2  4  1  0  0  0  0
  2  5  1  0  0  0  0
  5  6  2  0  0  0  0
  5  7  1  0  0  0  0
  7  8  1  0  0  0  0
  7  9  1  0  0  0  0
  9 10  1  0  0  0  0
  9 11  1  0  0  0  0
  9 26  1  0  0  0  0
 11 12  1  0  0  0  0
 11 13  1  0  0  0  0
 11 14  1  0  0  0  0
 14 15  1  0  0  0  0
 14 16  1  0  0  0  0
 14 17  1  0  0  0  0
 17 18  1  0  0  0  0
 17 19  1  0  0  0  0
 17 20  1  0  0  0  0
 20 21  1  0  0  0  0
 20 22  1  0  0  0  0
 20 23  1  0  0  0  0
 23 24  1  0  0  0  0
 23 25  1  0  0  0  0
 26 27  2  0  0  0  0
 26 28  1  0  0  0  0
 28 29  1  0  0  0  0
 28 30  1  0  0  0  0
 30 31  1  0  0  0  0
 30 32  1  0  0  0  0
 30 33  1  0  0  0  0
M  END
$$$$

  -OEChem-01062216083D

 33 32  0     1  0  0  0  0  0999 V2000
   -3.3257   -2.4132    1.4516 H   0  0  0  0  0  0  0  0  0  0  0  0
   -3.4452   -1.4170    1.0164 C   0  0  0  0  0  0  0  0  0  0  0  0
   -3.9579   -0.7773    1.7389 H   0  0  0  0  0  0  0  0  0  0  0  0
   -4.0537   -1.4972    0.1126 H   0  0  0  0  0  0  0  0  0  0  0  0
   -2.0885   -0.8296    0.6784 C   0  0  0  0  0  0  0  0  0  0  0  0
   -1.0726   -1.4815    0.8702 O   0  0  0  0  0  0  0  0  0  0  0  0
   -2.0008    0.4361    0.1331 N   0  0  0  0  0  0  0  0  0  0  0  0
   -2.8567    0.9813    0.1789 H   0  0  0  0  0  0  0  0  0  0  0  0
   -0.7397    1.1911    0.1858 C   0  0  1  0  0  0  0  0  0  0  0  0
    0.0425    0.6191   -0.3241 H   0  0  0  0  0  0  0  0  0  0  0  0
   -0.9192    2.5367   -0.5354 C   0  0  0  0  0  0  0  0  0  0  0  0
   -1.7762    3.0701   -0.1104 H   0  0  0  0  0  0  0  0  0  0  0  0
   -0.0304    3.1540   -0.3660 H   0  0  0  0  0  0  0  0  0  0  0  0
   -1.1127    2.3541   -2.0471 C   0  0  0  0  0  0  0  0  0  0  0  0
   -0.2519    1.8234   -2.4674 H   0  0  0  0  0  0  0  0  0  0  0  0
   -2.0059    1.7504   -2.2375 H   0  0  0  0  0  0  0  0  0  0  0  0
   -1.2627    3.7161   -2.7327 C   0  0  0  0  0  0  0  0  0  0  0  0
   -2.1131    4.2526   -2.2995 H   0  0  0  0  0  0  0  0  0  0  0  0
   -0.3622    4.3156   -2.5623 H   0  0  0  0  0  0  0  0  0  0  0  0
   -1.4805    3.5493   -4.2336 C   0  0  0  0  0  0  0  0  0  0  0  0
   -0.6234    3.0357   -4.6833 H   0  0  0  0  0  0  0  0  0  0  0  0
   -2.3751    2.9442   -4.4183 H   0  0  0  0  0  0  0  0  0  0  0  0
   -1.6402    4.8782   -4.8310 N   0  0  0  0  0  0  0  0  0  0  0  0
   -1.7902    4.8163   -5.8380 H   0  0  0  0  0  0  0  0  0  0  0  0
   -2.3958    5.3949   -4.3812 H   0  0  0  0  0  0  0  0  0  0  0  0
   -0.2788    1.4351    1.6410 C   0  0  0  0  0  0  0  0  0  0  0  0
   -1.0726    1.8792    2.4638 O   0  0  0  0  0  0  0  0  0  0  0  0
    1.0404    1.2357    2.0027 N   0  0  0  0  0  0  0  0  0  0  0  0
    1.6203    0.7233    1.3445 H   0  0  0  0  0  0  0  0  0  0  0  0
    1.5088    1.3780    3.3753 C   0  0  0  0  0  0  0  0  0  0  0  0
    0.9980    0.6636    4.0295 H   0  0  0  0  0  0  0  0  0  0  0  0
    2.5853    1.1902    3.4287 H   0  0  0  0  0  0  0  0  0  0  0  0
    1.3183    2.3919    3.7428 H   0  0  0  0  0  0  0  0  0  0  0  0
  1  2  1  0  0  0  0
  2  3  1  0  0  0  0
  2  4  1  0  0  0  0
  2  5  1  0  0  0  0
  5  6  2  0  0  0  0
  5  7  1  0  0  0  0
  7  8  1  0  0  0  0
  7  9  1  0  0  0  0
  9 10  1  0  0  0  0
  9 11  1  0  0  0  0
  9 26  1  0  0  0  0
 11 12  1  0  0  0  0
 11 13  1  0  0  0  0
 11 14  1  0  0  0  0
 14 15  1  0  0  0  0
 14 16  1  0  0  0  0
 14 17  1  0  0  0  0
 17 18  1  0  0  0  0
 17 19  1  0  0  0  0
 17 20  1  0  0  0  0
 20 21  1  0  0  0  0
 20 22  1  0  0  0  0
 20 23  1  0  0  0  0
 23 24  1  0  0  0  0
 23 25  1  0  0  0  0
 26 27  2  0  0  0  0
 26 28  1  0  0  0  0
 28 29  1  0  0  0  0
 28 30  1  0  0  0  0
 30 31  1  0  0  0  0
 30 32  1  0  0  0  0
 30 33  1  0  0  0  0
M  END
$$$$

  -OEChem-01062216083D

 33 32  0     1  0  0  0  0  0999 V2000
   -3.3330   -2.4156    1.4570 H   0  0  0  0  0  0  0  0  0  0  0  0
   -3.4545   -1.4196    1.0221 C   0  0  0  0  0  0  0  0  0  0  0  0
   -3.9484   -0.7751    1.7534 H   0  0  0  0  0  0  0  0  0  0  0  0
   -4.0809   -1.4977    0.1305 H   0  0  0  0  0  0  0  0  0  0  0  0
   -2.1003   -0.8417    0.6569 C   0  0  0  0  0  0  0  0  0  0  0  0
   -1.0871   -1.5073    0.8131 O   0  0  0  0  0  0  0  0  0  0  0  0
   -2.0137    0.4276    0.1188 N   0  0  0  0  0  0  0  0  0  0  0  0
   -2.8673    0.9736    0.1895 H   0  0  0  0  0  0  0  0  0  0  0  0
   -0.7517    1.1816    0.1882 C   0  0  1  0  0  0  0  0  0  0  0  0
    0.0335    0.6108   -0.3185 H   0  0  0  0  0  0  0  0  0  0  0  0
   -0.9298    2.5307   -0.5271 C   0  0  0  0  0  0  0  0  0  0  0  0
   -1.7916    3.0593   -0.1053 H   0  0  0  0  0  0  0  0  0  0  0  0
   -0.0443    3.1509   -0.3499 H   0  0  0  0  0  0  0  0  0  0  0  0
   -1.1116    2.3527   -2.0411 C   0  0  0  0  0  0  0  0  0  0  0  0
   -0.2454    1.8266   -2.4562 H   0  0  0  0  0  0  0  0  0  0  0  0
   -2.0013    1.7461   -2.2402 H   0  0  0  0  0  0  0  0  0  0  0  0
   -1.2610    3.7159   -2.7251 C   0  0  0  0  0  0  0  0  0  0  0  0
   -2.1162    4.2490   -2.2973 H   0  0  0  0  0  0  0  0  0  0  0  0
   -0.3643    4.3188   -2.5472 H   0  0  0  0  0  0  0  0  0  0  0  0
   -1.4669    3.5502   -4.2277 C   0  0  0  0  0  0  0  0  0  0  0  0
   -0.6040    3.0412   -4.6710 H   0  0  0  0  0  0  0  0  0  0  0  0
   -2.3570    2.9410   -4.4200 H   0  0  0  0  0  0  0  0  0  0  0  0
   -1.6271    4.8789   -4.8251 N   0  0  0  0  0  0  0  0  0  0  0  0
   -1.7702    4.8169   -5.8333 H   0  0  0  0  0  0  0  0  0  0  0  0
   -2.3883    5.3919   -4.3805 H   0  0  0  0  0  0  0  0  0  0  0  0
   -0.2931    1.4225    1.6457 C   0  0  0  0  0  0  0  0  0  0  0  0
   -1.1235    1.6514    2.5190 O   0  0  0  0  0  0  0  0  0  0  0  0
    1.0526    1.5245    1.9479 N   0  0  0  0  0  0  0  0  0  0  0  0
    1.7113    1.2417    1.2284 H   0  0  0  0  0  0  0  0  0  0  0  0
    1.5462    1.7392    3.3025 C   0  0  0  0  0  0  0  0  0  0  0  0
    1.2368    0.9176    3.9570 H   0  0  0  0  0  0  0  0  0  0  0  0
    2.6391    1.7909    3.3032 H   0  0  0  0  0  0  0  0  0  0  0  0
    1.1569    2.6792    3.7073 H   0  0  0  0  0  0  0  0  0  0  0  0
  1  2  1  0  0  0  0
  2  3  1  0  0  0  0
  2  4  1  0  0  0  0
  2  5  1  0  0  0  0
  5  6  2  0  0  0  0
  5  7  1  0  0  0  0
  7  8  1  0  0  0  0
  7  9  1  0  0  0  0
  9 10  1  0  0  0  0
  9 11  1  0  0  0  0
  9 26  1  0  0  0  0
 11 12  1  0  0  0  0
 11 13  1  0  0  0  0
 11 14  1  0  0  0  0
 14 15  1  0  0  0  0
 14 16  1  0  0  0  0
 14 17  1  0  0  0  0
 17 18  1  0  0  0  0
 17 19  1  0  0  0  0
 17 20  1  0  0  0  0
 20 21  1  0  0  0  0
 20 22  1  0  0  0  0
 20 23  1  0  0  0  0
 23 24  1  0  0  0  0
 23 25  1  0  0  0  0
 26 27  2  0  0  0  0
 26 28  1  0  0  0  0
 28 29  1  0  0  0  0
 28 30  1  0  0  0  0
 30 31  1  0  0  0  0
 30 32  1  0  0  0  0
 30 33  1  0  0  0  0
M  END
$$$$

  -OEChem-01062216083D

 33 32  0     1  0  0  0  0  0999 V2000
   -3.3400   -2.3976    1.4959 H   0  0  0  0  0  0  0  0  0  0  0  0
   -3.4645   -1.4204    1.0209 C   0  0  0  0  0  0  0  0  0  0  0  0
   -3.9636   -0.7497    1.7248 H   0  0  0  0  0  0  0  0  0  0  0  0
   -4.0872   -1.5363    0.1308 H   0  0  0  0  0  0  0  0  0  0  0  0
   -2.1115   -0.8513    0.6384 C   0  0  0  0  0  0  0  0  0  0  0  0
   -1.1034   -1.5318    0.7590 O   0  0  0  0  0  0  0  0  0  0  0  0
   -2.0233    0.4228    0.1113 N   0  0  0  0  0  0  0  0  0  0  0  0
   -2.8751    0.9686    0.1990 H   0  0  0  0  0  0  0  0  0  0  0  0
   -0.7602    1.1749    0.1973 C   0  0  1  0  0  0  0  0  0  0  0  0
    0.0280    0.6064   -0.3078 H   0  0  0  0  0  0  0  0  0  0  0  0
   -0.9410    2.5248   -0.5179 C   0  0  0  0  0  0  0  0  0  0  0  0
   -1.8097    3.0461   -0.1015 H   0  0  0  0  0  0  0  0  0  0  0  0
   -0.0620    3.1524   -0.3353 H   0  0  0  0  0  0  0  0  0  0  0  0
   -1.1104    2.3493   -2.0335 C   0  0  0  0  0  0  0  0  0  0  0  0
   -0.2381    1.8292   -2.4429 H   0  0  0  0  0  0  0  0  0  0  0  0
   -1.9948    1.7382   -2.2410 H   0  0  0  0  0  0  0  0  0  0  0  0
   -1.2627    3.7135   -2.7147 C   0  0  0  0  0  0  0  0  0  0  0  0
   -2.1265    4.2376   -2.2929 H   0  0  0  0  0  0  0  0  0  0  0  0
   -0.3725    4.3230   -2.5262 H   0  0  0  0  0  0  0  0  0  0  0  0
   -1.4560    3.5523   -4.2196 C   0  0  0  0  0  0  0  0  0  0  0  0
   -0.5858    3.0505   -4.6573 H   0  0  0  0  0  0  0  0  0  0  0  0
   -2.3407    2.9385   -4.4220 H   0  0  0  0  0  0  0  0  0  0  0  0
   -1.6193    4.8823   -4.8143 N   0  0  0  0  0  0  0  0  0  0  0  0
   -1.7301    4.8238   -5.8267 H   0  0  0  0  0  0  0  0  0  0  0  0
   -2.4016    5.3814   -4.3907 H   0  0  0  0  0  0  0  0  0  0  0  0
   -0.2959    1.4127    1.6556 C   0  0  0  0  0  0  0  0  0  0  0  0
   -1.1097    1.4166    2.5735 O   0  0  0  0  0  0  0  0  0  0  0  0
    1.0022    1.8171    1.9122 N   0  0  0  0  0  0  0  0  0  0  0  0
    1.6649    1.7730    1.1440 H   0  0  0  0  0  0  0  0  0  0  0  0
    1.5000    2.0948    3.2541 C   0  0  0  0  0  0  0  0  0  0  0  0
    1.3985    1.2096    3.8909 H   0  0  0  0  0  0  0  0  0  0  0  0
    2.5574    2.3737    3.2145 H   0  0  0  0  0  0  0  0  0  0  0  0
    0.9417    2.9209    3.7068 H   0  0  0  0  0  0  0  0  0  0  0  0
  1  2  1  0  0  0  0
  2  3  1  0  0  0  0
  2  4  1  0  0  0  0
  2  5  1  0  0  0  0
  5  6  2  0  0  0  0
  5  7  1  0  0  0  0
  7  8  1  0  0  0  0
  7  9  1  0  0  0  0
  9 10  1  0  0  0  0
  9 11  1  0  0  0  0
  9 26  1  0  0  0  0
 11 12  1  0  0  0  0
 11 13  1  0  0  0  0
 11 14  1  0  0  0  0
 14 15  1  0  0  0  0
 14 16  1  0  0  0  0
 14 17  1  0  0  0  0
 17 18  1  0  0  0  0
 17 19  1  0  0  0  0
 17 20  1  0  0  0  0
 20 21  1  0  0  0  0
 20 22  1  0  0  0  0
 20 23  1  0  0  0  0
 23 24  1  0  0  0  0
 23 25  1  0  0  0  0
 26 27  2  0  0  0  0
 26 28  1  0  0  0  0
 28 29  1  0  0  0  0
 28 30  1  0  0  0  0
 30 31  1  0  0  0  0
 30 32  1  0  0  0  0
 30 33  1  0  0  0  0
M  END
$$$$

  -OEChem-01062216083D

 33 32  0     1  0  0  0  0  0999 V2000
   -3.3861   -2.4622    1.2776 H   0  0  0  0  0  0  0  0  0  0  0  0
   -3.4734   -1.4124    0.9841 C   0  0  0  0  0  0  0  0  0  0  0  0
   -3.8326   -0.8374    1.8412 H   0  0  0  0  0  0  0  0  0  0  0  0
   -4.1951   -1.3319    0.1680 H   0  0  0  0  0  0  0  0  0  0  0  0
   -2.1237   -0.8813    0.5413 C   0  0  0  0  0  0  0  0  0  0  0  0
   -1.1524   -1.6219    0.5043 O   0  0  0  0  0  0  0  0  0  0  0  0
   -2.0104    0.4123    0.0671 N   0  0  0  0  0  0  0  0  0  0  0  0
   -2.8572    0.9591    0.1843 H   0  0  0  0  0  0  0  0  0  0  0  0
   -0.7477    1.1629    0.2078 C   0  0  1  0  0  0  0  0  0  0  0  0
   -0.0256    0.7567   -0.5080 H   0  0  0  0  0  0  0  0  0  0  0  0
   -1.0426    2.6338   -0.1474 C   0  0  0  0  0  0  0  0  0  0  0  0
   -1.8719    2.9991    0.4679 H   0  0  0  0  0  0  0  0  0  0  0  0
   -0.1690    3.2527    0.0809 H   0  0  0  0  0  0  0  0  0  0  0  0
   -1.3757    2.8064   -1.6369 C   0  0  0  0  0  0  0  0  0  0  0  0
   -0.5404    2.4419   -2.2442 H   0  0  0  0  0  0  0  0  0  0  0  0
   -2.2609    2.2155   -1.8940 H   0  0  0  0  0  0  0  0  0  0  0  0
   -1.6381    4.2818   -1.9582 C   0  0  0  0  0  0  0  0  0  0  0  0
   -2.4609    4.6513   -1.3375 H   0  0  0  0  0  0  0  0  0  0  0  0
   -0.7474    4.8750   -1.7257 H   0  0  0  0  0  0  0  0  0  0  0  0
   -1.9943    4.4635   -3.4307 C   0  0  0  0  0  0  0  0  0  0  0  0
   -1.1673    4.1209   -4.0626 H   0  0  0  0  0  0  0  0  0  0  0  0
   -2.8809    3.8696   -3.6792 H   0  0  0  0  0  0  0  0  0  0  0  0
   -2.2566    5.8850   -3.6731 N   0  0  0  0  0  0  0  0  0  0  0  0
   -2.4906    6.0569   -4.6510 H   0  0  0  0  0  0  0  0  0  0  0  0
   -2.9902    6.2343   -3.0567 H   0  0  0  0  0  0  0  0  0  0  0  0
   -0.0759    1.0768    1.6082 C   0  0  0  0  0  0  0  0  0  0  0  0
   -0.7111    0.7075    2.5904 O   0  0  0  0  0  0  0  0  0  0  0  0
    1.1163    1.7434    1.8366 N   0  0  0  0  0  0  0  0  0  0  0  0
    1.6279    2.0759    1.0251 H   0  0  0  0  0  0  0  0  0  0  0  0
    1.7403    1.8484    3.1505 C   0  0  0  0  0  0  0  0  0  0  0  0
    1.9410    0.8527    3.5599 H   0  0  0  0  0  0  0  0  0  0  0  0
    2.6884    2.3896    3.0761 H   0  0  0  0  0  0  0  0  0  0  0  0
    1.0874    2.3896    3.8433 H   0  0  0  0  0  0  0  0  0  0  0  0
  1  2  1  0  0  0  0
  2  3  1  0  0  0  0
  2  4  1  0  0  0  0
  2  5  1  0  0  0  0
  5  6  2  0  0  0  0
  5  7  1  0  0  0  0
  7  8  1  0  0  0  0
  7  9  1  0  0  0  0
  9 10  1  0  0  0  0
  9 11  1  0  0  0  0
  9 26  1  0  0  0  0
 11 12  1  0  0  0  0
 11 13  1  0  0  0  0
 11 14  1  0  0  0  0
 14 15  1  0  0  0  0
 14 16  1  0  0  0  0
 14 17  1  0  0  0  0
 17 18  1  0  0  0  0
 17 19  1  0  0  0  0
 17 20  1  0  0  0  0
 20 21  1  0  0  0  0
 20 22  1  0  0  0  0
 20 23  1  0  0  0  0
 23 24  1  0  0  0  0
 23 25  1  0  0  0  0
 26 27  2  0  0  0  0
 26 28  1  0  0  0  0
 28 29  1  0  0  0  0
 28 30  1  0  0  0  0
 30 31  1  0  0  0  0
 30 32  1  0  0  0  0
 30 33  1  0  0  0  0
M  END
$$$$

  -OEChem-01062216083D

 33 32  0     1  0  0  0  0  0999 V2000
   -3.3796   -2.4495    1.2720 H   0  0  0  0  0  0  0  0  0  0  0  0
   -3.4663   -1.3953    0.9940 C   0  0  0  0  0  0  0  0  0  0  0  0
   -3.7931   -0.8284    1.8692 H   0  0  0  0  0  0  0  0  0  0  0  0
   -4.2121   -1.2981    0.2018 H   0  0  0  0  0  0  0  0  0  0  0  0
   -2.1254   -0.8720    0.5155 C   0  0  0  0  0  0  0  0  0  0  0  0
   -1.1759   -1.6313    0.3953 O   0  0  0  0  0  0  0  0  0  0  0  0
   -2.0064    0.4316    0.0704 N   0  0  0  0  0  0  0  0  0  0  0  0
   -2.8501    0.9774    0.2094 H   0  0  0  0  0  0  0  0  0  0  0  0
   -0.7424    1.1808    0.2220 C   0  0  1  0  0  0  0  0  0  0  0  0
   -0.0221    0.7804   -0.4991 H   0  0  0  0  0  0  0  0  0  0  0  0
   -1.0507    2.6499   -0.1428 C   0  0  0  0  0  0  0  0  0  0  0  0
   -1.8861    3.0111    0.4665 H   0  0  0  0  0  0  0  0  0  0  0  0
   -0.1868    3.2832    0.0786 H   0  0  0  0  0  0  0  0  0  0  0  0
   -1.3753    2.8117   -1.6357 C   0  0  0  0  0  0  0  0  0  0  0  0
   -0.5335    2.4516   -2.2368 H   0  0  0  0  0  0  0  0  0  0  0  0
   -2.2540    2.2122   -1.8953 H   0  0  0  0  0  0  0  0  0  0  0  0
   -1.6507    4.2828   -1.9657 C   0  0  0  0  0  0  0  0  0  0  0  0
   -2.4818    4.6463   -1.3526 H   0  0  0  0  0  0  0  0  0  0  0  0
   -0.7679    4.8865   -1.7301 H   0  0  0  0  0  0  0  0  0  0  0  0
   -1.9984    4.4533   -3.4416 C   0  0  0  0  0  0  0  0  0  0  0  0
   -1.1630    4.1164   -4.0656 H   0  0  0  0  0  0  0  0  0  0  0  0
   -2.8768    3.8486   -3.6934 H   0  0  0  0  0  0  0  0  0  0  0  0
   -2.2739    5.8706   -3.6946 N   0  0  0  0  0  0  0  0  0  0  0  0
   -2.4877    6.0360   -4.6784 H   0  0  0  0  0  0  0  0  0  0  0  0
   -3.0264    6.2118   -3.0966 H   0  0  0  0  0  0  0  0  0  0  0  0
   -0.0482    1.0802    1.6170 C   0  0  0  0  0  0  0  0  0  0  0  0
   -0.5636    0.4727    2.5486 O   0  0  0  0  0  0  0  0  0  0  0  0
    0.9575    1.9731    1.9526 N   0  0  0  0  0  0  0  0  0  0  0  0
    1.3669    2.5190    1.2011 H   0  0  0  0  0  0  0  0  0  0  0  0
    1.5383    2.0748    3.2869 C   0  0  0  0  0  0  0  0  0  0  0  0
    1.9613    1.1127    3.5946 H   0  0  0  0  0  0  0  0  0  0  0  0
    2.3370    2.8226    3.2957 H   0  0  0  0  0  0  0  0  0  0  0  0
    0.7767    2.3745    4.0146 H   0  0  0  0  0  0  0  0  0  0  0  0
  1  2  1  0  0  0  0
  2  3  1  0  0  0  0
  2  4  1  0  0  0  0
  2  5  1  0  0  0  0
  5  6  2  0  0  0  0
  5  7  1  0  0  0  0
  7  8  1  0  0  0  0
  7  9  1  0  0  0  0
  9 10  1  0  0  0  0
  9 11  1  0  0  0  0
  9 26  1  0  0  0  0
 11 12  1  0  0  0  0
 11 13  1  0  0  0  0
 11 14  1  0  0  0  0
 14 15  1  0  0  0  0
 14 16  1  0  0  0  0
 14 17  1  0  0  0  0
 17 18  1  0  0  0  0
 17 19  1  0  0  0  0
 17 20  1  0  0  0  0
 20 21  1  0  0  0  0
 20 22  1  0  0  0  0
 20 23  1  0  0  0  0
 23 24  1  0  0  0  0
 23 25  1  0  0  0  0
 26 27  2  0  0  0  0
 26 28  1  0  0  0  0
 28 29  1  0  0  0  0
 28 30  1  0  0  0  0
 30 31  1  0  0  0  0
 30 32  1  0  0  0  0
 30 33  1  0  0  0  0
M  END
$$$$

  -OEChem-01062216083D

 33 32  0     1  0  0  0  0  0999 V2000
   -3.3779   -2.4216    1.2789 H   0  0  0  0  0  0  0  0  0  0  0  0
   -3.4652   -1.3697    0.9928 C   0  0  0  0  0  0  0  0  0  0  0  0
   -3.7868   -0.7957    1.8652 H   0  0  0  0  0  0  0  0  0  0  0  0
   -4.2157   -1.2784    0.2044 H   0  0  0  0  0  0  0  0  0  0  0  0
   -2.1268   -0.8529    0.5006 C   0  0  0  0  0  0  0  0  0  0  0  0
   -1.2055   -1.6288    0.3003 O   0  0  0  0  0  0  0  0  0  0  0  0
   -2.0010    0.4593    0.0852 N   0  0  0  0  0  0  0  0  0  0  0  0
   -2.8460    1.0007    0.2317 H   0  0  0  0  0  0  0  0  0  0  0  0
   -0.7420    1.2175    0.2471 C   0  0  1  0  0  0  0  0  0  0  0  0
   -0.0192    0.8235   -0.4753 H   0  0  0  0  0  0  0  0  0  0  0  0
   -1.0667    2.6800   -0.1355 C   0  0  0  0  0  0  0  0  0  0  0  0
   -1.9106    3.0389    0.4634 H   0  0  0  0  0  0  0  0  0  0  0  0
   -0.2113    3.3264    0.0782 H   0  0  0  0  0  0  0  0  0  0  0  0
   -1.3773    2.8205   -1.6337 C   0  0  0  0  0  0  0  0  0  0  0  0
   -0.5232    2.4669   -2.2212 H   0  0  0  0  0  0  0  0  0  0  0  0
   -2.2437    2.2051   -1.8971 H   0  0  0  0  0  0  0  0  0  0  0  0
   -1.6698    4.2833   -1.9833 C   0  0  0  0  0  0  0  0  0  0  0  0
   -2.5134    4.6411   -1.3841 H   0  0  0  0  0  0  0  0  0  0  0  0
   -0.7989    4.9029   -1.7449 H   0  0  0  0  0  0  0  0  0  0  0  0
   -2.0034    4.4309   -3.4645 C   0  0  0  0  0  0  0  0  0  0  0  0
   -1.1556    4.0999   -4.0748 H   0  0  0  0  0  0  0  0  0  0  0  0
   -2.8694    3.8100   -3.7196 H   0  0  0  0  0  0  0  0  0  0  0  0
   -2.2962    5.8411   -3.7359 N   0  0  0  0  0  0  0  0  0  0  0  0
   -2.5041    5.9916   -4.7234 H   0  0  0  0  0  0  0  0  0  0  0  0
   -3.0585    6.1784   -3.1483 H   0  0  0  0  0  0  0  0  0  0  0  0
   -0.0295    1.1092    1.6370 C   0  0  0  0  0  0  0  0  0  0  0  0
   -0.3271    0.2551    2.4615 O   0  0  0  0  0  0  0  0  0  0  0  0
    0.7347    2.1627    2.1161 N   0  0  0  0  0  0  0  0  0  0  0  0
    0.9648    2.9063    1.4651 H   0  0  0  0  0  0  0  0  0  0  0  0
    1.3078    2.2077    3.4573 C   0  0  0  0  0  0  0  0  0  0  0  0
    1.9687    1.3499    3.6211 H   0  0  0  0  0  0  0  0  0  0  0  0
    1.8917    3.1237    3.5885 H   0  0  0  0  0  0  0  0  0  0  0  0
    0.5160    2.1924    4.2137 H   0  0  0  0  0  0  0  0  0  0  0  0
  1  2  1  0  0  0  0
  2  3  1  0  0  0  0
  2  4  1  0  0  0  0
  2  5  1  0  0  0  0
  5  6  2  0  0  0  0
  5  7  1  0  0  0  0
  7  8  1  0  0  0  0
  7  9  1  0  0  0  0
  9 10  1  0  0  0  0
  9 11  1  0  0  0  0
  9 26  1  0  0  0  0
 11 12  1  0  0  0  0
 11 13  1  0  0  0  0
 11 14  1  0  0  0  0
 14 15  1  0  0  0  0
 14 16  1  0  0  0  0
 14 17  1  0  0  0  0
 17 18  1  0  0  0  0
 17 19  1  0  0  0  0
 17 20  1  0  0  0  0
 20 21  1  0  0  0  0
 20 22  1  0  0  0  0
 20 23  1  0  0  0  0
 23 24  1  0  0  0  0
 23 25  1  0  0  0  0
 26 27  2  0  0  0  0
 26 28  1  0  0  0  0
 28 29  1  0  0  0  0
 28 30  1  0  0  0  0
 30 31  1  0  0  0  0
 30 32  1  0  0  0  0
 30 33  1  0  0  0  0
M  END
$$$$

  -OEChem-01062216083D

 33 32  0     1  0  0  0  0  0999 V2000
   -3.3590   -2.4225    1.2828 H   0  0  0  0  0  0  0  0  0  0  0  0
   -3.4442   -1.3615    1.0317 C   0  0  0  0  0  0  0  0  0  0  0  0
   -3.7180   -0.8096    1.9340 H   0  0  0  0  0  0  0  0  0  0  0  0
   -4.2277   -1.2372    0.2809 H   0  0  0  0  0  0  0  0  0  0  0  0
   -2.1214   -0.8478    0.4958 C   0  0  0  0  0  0  0  0  0  0  0  0
   -1.2234   -1.6313    0.2349 O   0  0  0  0  0  0  0  0  0  0  0  0
   -2.0056    0.4686    0.0915 N   0  0  0  0  0  0  0  0  0  0  0  0
   -2.8573    0.9984    0.2413 H   0  0  0  0  0  0  0  0  0  0  0  0
   -0.7602    1.2470    0.2596 C   0  0  1  0  0  0  0  0  0  0  0  0
   -0.0275    0.8571   -0.4552 H   0  0  0  0  0  0  0  0  0  0  0  0
   -1.0881    2.7036   -0.1388 C   0  0  0  0  0  0  0  0  0  0  0  0
   -1.9402    3.0654    0.4467 H   0  0  0  0  0  0  0  0  0  0  0  0
   -0.2333    3.3512    0.0765 H   0  0  0  0  0  0  0  0  0  0  0  0
   -1.3799    2.8303   -1.6416 C   0  0  0  0  0  0  0  0  0  0  0  0
   -0.5168    2.4766   -2.2158 H   0  0  0  0  0  0  0  0  0  0  0  0
   -2.2398    2.2083   -1.9109 H   0  0  0  0  0  0  0  0  0  0  0  0
   -1.6759    4.2892   -2.0045 C   0  0  0  0  0  0  0  0  0  0  0  0
   -2.5290    4.6465   -1.4186 H   0  0  0  0  0  0  0  0  0  0  0  0
   -0.8112    4.9146   -1.7589 H   0  0  0  0  0  0  0  0  0  0  0  0
   -1.9914    4.4271   -3.4908 C   0  0  0  0  0  0  0  0  0  0  0  0
   -1.1339    4.0978   -4.0884 H   0  0  0  0  0  0  0  0  0  0  0  0
   -2.8507    3.8003   -3.7544 H   0  0  0  0  0  0  0  0  0  0  0  0
   -2.2881    5.8347   -3.7722 N   0  0  0  0  0  0  0  0  0  0  0  0
   -2.4729    5.9822   -4.7648 H   0  0  0  0  0  0  0  0  0  0  0  0
   -3.0673    6.1670   -3.2043 H   0  0  0  0  0  0  0  0  0  0  0  0
   -0.0525    1.1400    1.6511 C   0  0  0  0  0  0  0  0  0  0  0  0
   -0.0342    0.1093    2.3074 O   0  0  0  0  0  0  0  0  0  0  0  0
    0.4252    2.2740    2.2912 N   0  0  0  0  0  0  0  0  0  0  0  0
    0.4004    3.1483    1.7769 H   0  0  0  0  0  0  0  0  0  0  0  0
    1.0200    2.2643    3.6237 C   0  0  0  0  0  0  0  0  0  0  0  0
    1.8977    1.6099    3.6467 H   0  0  0  0  0  0  0  0  0  0  0  0
    1.3343    3.2738    3.9052 H   0  0  0  0  0  0  0  0  0  0  0  0
    0.2958    1.9089    4.3642 H   0  0  0  0  0  0  0  0  0  0  0  0
  1  2  1  0  0  0  0
  2  3  1  0  0  0  0
  2  4  1  0  0  0  0
  2  5  1  0  0  0  0
  5  6  2  0  0  0  0
  5  7  1  0  0  0  0
  7  8  1  0  0  0  0
  7  9  1  0  0  0  0
  9 10  1  0  0  0  0
  9 11  1  0  0  0  0
  9 26  1  0  0  0  0
 11 12  1  0  0  0  0
 11 13  1  0  0  0  0
 11 14  1  0  0  0  0
 14 15  1  0  0  0  0
 14 16  1  0  0  0  0
 14 17  1  0  0  0  0
 17 18  1  0  0  0  0
 17 19  1  0  0  0  0
 17 20  1  0  0  0  0
 20 21  1  0  0  0  0
 20 22  1  0  0  0  0
 20 23  1  0  0  0  0
 23 24  1  0  0  0  0
 23 25  1  0  0  0  0
 26 27  2  0  0  0  0
 26 28  1  0  0  0  0
 28 29  1  0  0  0  0
 28 30  1  0  0  0  0
 30 31  1  0  0  0  0
 30 32  1  0  0  0  0
 30 33  1  0  0  0  0
M  END
$$$$

  -OEChem-01062216083D

 33 32  0     1  0  0  0  0  0999 V2000
   -3.4081   -2.4074    1.3020 H   0  0  0  0  0  0  0  0  0  0  0  0
   -3.4936   -1.3667    0.9764 C   0  0  0  0  0  0  0  0  0  0  0  0
   -3.8666   -0.7689    1.8112 H   0  0  0  0  0  0  0  0  0  0  0  0
   -4.2039   -1.3128    0.1482 H   0  0  0  0  0  0  0  0  0  0  0  0
   -2.1380   -0.8495    0.5330 C   0  0  0  0  0  0  0  0  0  0  0  0
   -1.2243   -1.6352    0.3572 O   0  0  0  0  0  0  0  0  0  0  0  0
   -2.0090    0.4635    0.1209 N   0  0  0  0  0  0  0  0  0  0  0  0
   -2.8713    0.9919    0.1975 H   0  0  0  0  0  0  0  0  0  0  0  0
   -0.7718    1.2559    0.2839 C   0  0  1  0  0  0  0  0  0  0  0  0
   -0.0315    0.8644   -0.4226 H   0  0  0  0  0  0  0  0  0  0  0  0
   -1.0952    2.7101   -0.1221 C   0  0  0  0  0  0  0  0  0  0  0  0
   -1.9499    3.0766    0.4563 H   0  0  0  0  0  0  0  0  0  0  0  0
   -0.2360    3.3513    0.1012 H   0  0  0  0  0  0  0  0  0  0  0  0
   -1.3813    2.8322   -1.6264 C   0  0  0  0  0  0  0  0  0  0  0  0
   -0.5161    2.4752   -2.1956 H   0  0  0  0  0  0  0  0  0  0  0  0
   -2.2405    2.2097   -1.8961 H   0  0  0  0  0  0  0  0  0  0  0  0
   -1.6737    4.2898   -1.9981 C   0  0  0  0  0  0  0  0  0  0  0  0
   -2.5279    4.6520   -1.4173 H   0  0  0  0  0  0  0  0  0  0  0  0
   -0.8084    4.9148   -1.7533 H   0  0  0  0  0  0  0  0  0  0  0  0
   -1.9833    4.4196   -3.4866 C   0  0  0  0  0  0  0  0  0  0  0  0
   -1.1232    4.0860   -4.0780 H   0  0  0  0  0  0  0  0  0  0  0  0
   -2.8419    3.7919   -3.7504 H   0  0  0  0  0  0  0  0  0  0  0  0
   -2.2773    5.8255   -3.7797 N   0  0  0  0  0  0  0  0  0  0  0  0
   -2.4461    5.9683   -4.7759 H   0  0  0  0  0  0  0  0  0  0  0  0
   -3.0657    6.1600   -3.2260 H   0  0  0  0  0  0  0  0  0  0  0  0
   -0.0803    1.1617    1.6800 C   0  0  0  0  0  0  0  0  0  0  0  0
    0.3132    0.1058    2.1487 O   0  0  0  0  0  0  0  0  0  0  0  0
    0.1022    2.2945    2.4593 N   0  0  0  0  0  0  0  0  0  0  0  0
   -0.1926    3.1841    2.0704 H   0  0  0  0  0  0  0  0  0  0  0  0
    0.7599    2.2830    3.7617 C   0  0  0  0  0  0  0  0  0  0  0  0
    1.8061    1.9757    3.6593 H   0  0  0  0  0  0  0  0  0  0  0  0
    0.7343    3.2819    4.2072 H   0  0  0  0  0  0  0  0  0  0  0  0
    0.2531    1.5902    4.4419 H   0  0  0  0  0  0  0  0  0  0  0  0
  1  2  1  0  0  0  0
  2  3  1  0  0  0  0
  2  4  1  0  0  0  0
  2  5  1  0  0  0  0
  5  6  2  0  0  0  0
  5  7  1  0  0  0  0
  7  8  1  0  0  0  0
  7  9  1  0  0  0  0
  9 10  1  0  0  0  0
  9 11  1  0  0  0  0
  9 26  1  0  0  0  0
 11 12  1  0  0  0  0
 11 13  1  0  0  0  0
 11 14  1  0  0  0  0
 14 15  1  0  0  0  0
 14 16  1  0  0  0  0
 14 17  1  0  0  0  0
 17 18  1  0  0  0  0
 17 19  1  0  0  0  0
 17 20  1  0  0  0  0
 20 21  1  0  0  0  0
 20 22  1  0  0  0  0
 20 23  1  0  0  0  0
 23 24  1  0  0  0  0
 23 25  1  0  0  0  0
 26 27  2  0  0  0  0
 26 28  1  0  0  0  0
 28 29  1  0  0  0  0
 28 30  1  0  0  0  0
 30 31  1  0  0  0  0
 30 32  1  0  0  0  0
 30 33  1  0  0  0  0
M  END
$$$$

  -OEChem-01062216083D

 33 32  0     1  0  0  0  0  0999 V2000
   -3.6438   -2.4266    1.0443 H   0  0  0  0  0  0  0  0  0  0  0  0
   -3.6451   -1.4032    0.6578 C   0  0  0  0  0  0  0  0  0  0  0  0
   -4.2982   -0.7927    1.2858 H   0  0  0  0  0  0  0  0  0  0  0  0
   -4.0339   -1.4138   -0.3632 H   0  0  0  0  0  0  0  0  0  0  0  0
   -2.2360   -0.8399    0.6702 C   0  0  0  0  0  0  0  0  0  0  0  0
   -1.3158   -1.5626    0.9967 O   0  0  0  0  0  0  0  0  0  0  0  0
   -2.0291    0.4581    0.2407 N   0  0  0  0  0  0  0  0  0  0  0  0
   -2.8660    0.9630   -0.0309 H   0  0  0  0  0  0  0  0  0  0  0  0
   -0.7825    1.2424    0.3646 C   0  0  1  0  0  0  0  0  0  0  0  0
   -0.0587    0.8273   -0.3459 H   0  0  0  0  0  0  0  0  0  0  0  0
   -1.0888    2.6937   -0.0586 C   0  0  0  0  0  0  0  0  0  0  0  0
   -1.9305    3.0821    0.5247 H   0  0  0  0  0  0  0  0  0  0  0  0
   -0.2151    3.3211    0.1506 H   0  0  0  0  0  0  0  0  0  0  0  0
   -1.3992    2.7986   -1.5590 C   0  0  0  0  0  0  0  0  0  0  0  0
   -0.5492    2.4196   -2.1367 H   0  0  0  0  0  0  0  0  0  0  0  0
   -2.2728    2.1872   -1.8062 H   0  0  0  0  0  0  0  0  0  0  0  0
   -1.6733    4.2557   -1.9458 C   0  0  0  0  0  0  0  0  0  0  0  0
   -2.5103    4.6412   -1.3548 H   0  0  0  0  0  0  0  0  0  0  0  0
   -0.7928    4.8679   -1.7241 H   0  0  0  0  0  0  0  0  0  0  0  0
   -2.0070    4.3724   -3.4302 C   0  0  0  0  0  0  0  0  0  0  0  0
   -1.1631    4.0169   -4.0322 H   0  0  0  0  0  0  0  0  0  0  0  0
   -2.8805    3.7569   -3.6717 H   0  0  0  0  0  0  0  0  0  0  0  0
   -2.2819    5.7793   -3.7360 N   0  0  0  0  0  0  0  0  0  0  0  0
   -2.4661    5.9135   -4.7306 H   0  0  0  0  0  0  0  0  0  0  0  0
   -3.0521    6.1372   -3.1713 H   0  0  0  0  0  0  0  0  0  0  0  0
   -0.0708    1.1815    1.7464 C   0  0  0  0  0  0  0  0  0  0  0  0
    0.7740    0.3297    1.9779 O   0  0  0  0  0  0  0  0  0  0  0  0
   -0.1390    2.2518    2.6255 N   0  0  0  0  0  0  0  0  0  0  0  0
   -0.7831    3.0026    2.4013 H   0  0  0  0  0  0  0  0  0  0  0  0
    0.6330    2.3296    3.8606 C   0  0  0  0  0  0  0  0  0  0  0  0
    1.7059    2.3475    3.6415 H   0  0  0  0  0  0  0  0  0  0  0  0
    0.3774    3.2398    4.4113 H   0  0  0  0  0  0  0  0  0  0  0  0
    0.4187    1.4668    4.5003 H   0  0  0  0  0  0  0  0  0  0  0  0
  1  2  1  0  0  0  0
  2  3  1  0  0  0  0
  2  4  1  0  0  0  0
  2  5  1  0  0  0  0
  5  6  2  0  0  0  0
  5  7  1  0  0  0  0
  7  8  1  0  0  0  0
  7  9  1  0  0  0  0
  9 10  1  0  0  0  0
  9 11  1  0  0  0  0
  9 26  1  0  0  0  0
 11 12  1  0  0  0  0
 11 13  1  0  0  0  0
 11 14  1  0  0  0  0
 14 15  1  0  0  0  0
 14 16  1  0  0  0  0
 14 17  1  0  0  0  0
 17 18  1  0  0  0  0
 17 19  1  0  0  0  0
 17 20  1  0  0  0  0
 20 21  1  0  0  0  0
 20 22  1  0  0  0  0
 20 23  1  0  0  0  0
 23 24  1  0  0  0  0
 23 25  1  0  0  0  0
 26 27  2  0  0  0  0
 26 28  1  0  0  0  0
 28 29  1  0  0  0  0
 28 30  1  0  0  0  0
 30 31  1  0  0  0  0
 30 32  1  0  0  0  0
 30 33  1  0  0  0  0
M  END
$$$$

  -OEChem-01062216083D

 33 32  0     1  0  0  0  0  0999 V2000
   -3.6615   -2.4533    0.9650 H   0  0  0  0  0  0  0  0  0  0  0  0
   -3.6518   -1.4345    0.5669 C   0  0  0  0  0  0  0  0  0  0  0  0
   -4.3980   -0.8416    1.1011 H   0  0  0  0  0  0  0  0  0  0  0  0
   -3.9121   -1.4701   -0.4936 H   0  0  0  0  0  0  0  0  0  0  0  0
   -2.2762   -0.8186    0.7434 C   0  0  0  0  0  0  0  0  0  0  0  0
   -1.3990   -1.4692    1.2768 O   0  0  0  0  0  0  0  0  0  0  0  0
   -2.0523    0.4646    0.2809 N   0  0  0  0  0  0  0  0  0  0  0  0
   -2.8375    0.9120   -0.1803 H   0  0  0  0  0  0  0  0  0  0  0  0
   -0.7906    1.2272    0.3715 C   0  0  1  0  0  0  0  0  0  0  0  0
   -0.0855    0.7923   -0.3459 H   0  0  0  0  0  0  0  0  0  0  0  0
   -1.0737    2.6816   -0.0519 C   0  0  0  0  0  0  0  0  0  0  0  0
   -1.8953    3.0895    0.5458 H   0  0  0  0  0  0  0  0  0  0  0  0
   -0.1836    3.2900    0.1450 H   0  0  0  0  0  0  0  0  0  0  0  0
   -1.4139    2.7895   -1.5460 C   0  0  0  0  0  0  0  0  0  0  0  0
   -0.5843    2.3913   -2.1404 H   0  0  0  0  0  0  0  0  0  0  0  0
   -2.3057    2.1969   -1.7730 H   0  0  0  0  0  0  0  0  0  0  0  0
   -1.6640    4.2516   -1.9307 C   0  0  0  0  0  0  0  0  0  0  0  0
   -2.4797    4.6564   -1.3229 H   0  0  0  0  0  0  0  0  0  0  0  0
   -0.7663    4.8454   -1.7292 H   0  0  0  0  0  0  0  0  0  0  0  0
   -2.0267    4.3718   -3.4082 C   0  0  0  0  0  0  0  0  0  0  0  0
   -1.2040    3.9964   -4.0271 H   0  0  0  0  0  0  0  0  0  0  0  0
   -2.9185    3.7748   -3.6286 H   0  0  0  0  0  0  0  0  0  0  0  0
   -2.2773    5.7832   -3.7133 N   0  0  0  0  0  0  0  0  0  0  0  0
   -2.4836    5.9176   -4.7034 H   0  0  0  0  0  0  0  0  0  0  0  0
   -3.0251    6.1598   -3.1313 H   0  0  0  0  0  0  0  0  0  0  0  0
   -0.0670    1.1797    1.7438 C   0  0  0  0  0  0  0  0  0  0  0  0
    0.9531    0.5169    1.8719 O   0  0  0  0  0  0  0  0  0  0  0  0
   -0.3508    2.1192    2.7221 N   0  0  0  0  0  0  0  0  0  0  0  0
   -1.1869    2.6801    2.5994 H   0  0  0  0  0  0  0  0  0  0  0  0
    0.3827    2.2109    3.9791 C   0  0  0  0  0  0  0  0  0  0  0  0
    1.4360    2.4449    3.7919 H   0  0  0  0  0  0  0  0  0  0  0  0
   -0.0399    3.0006    4.6073 H   0  0  0  0  0  0  0  0  0  0  0  0
    0.3241    1.2639    4.5260 H   0  0  0  0  0  0  0  0  0  0  0  0
  1  2  1  0  0  0  0
  2  3  1  0  0  0  0
  2  4  1  0  0  0  0
  2  5  1  0  0  0  0
  5  6  2  0  0  0  0
  5  7  1  0  0  0  0
  7  8  1  0  0  0  0
  7  9  1  0  0  0  0
  9 10  1  0  0  0  0
  9 11  1  0  0  0  0
  9 26  1  0  0  0  0
 11 12  1  0  0  0  0
 11 13  1  0  0  0  0
 11 14  1  0  0  0  0
 14 15  1  0  0  0  0
 14 16  1  0  0  0  0
 14 17  1  0  0  0  0
 17 18  1  0  0  0  0
 17 19  1  0  0  0  0
 17 20  1  0  0  0  0
 20 21  1  0  0  0  0
 20 22  1  0  0  0  0
 20 23  1  0  0  0  0
 23 24  1  0  0  0  0
 23 25  1  0  0  0  0
 26 27  2  0  0  0  0
 26 28  1  0  0  0  0
 28 29  1  0  0  0  0
 28 30  1  0  0  0  0
 30 31  1  0  0  0  0
 30 32  1  0  0  0  0
 30 33  1  0  0  0  0
M  END
$$$$

  -OEChem-01062216083D

 33 32  0     1  0  0  0  0  0999 V2000
   -3.6414   -2.4635    0.9900 H   0  0  0  0  0  0  0  0  0  0  0  0
   -3.6365   -1.4558    0.5643 C   0  0  0  0  0  0  0  0  0  0  0  0
   -4.4116   -0.8632    1.0557 H   0  0  0  0  0  0  0  0  0  0  0  0
   -3.8598   -1.5251   -0.5030 H   0  0  0  0  0  0  0  0  0  0  0  0
   -2.2793   -0.8092    0.7707 C   0  0  0  0  0  0  0  0  0  0  0  0
   -1.4093   -1.4249    1.3566 O   0  0  0  0  0  0  0  0  0  0  0  0
   -2.0599    0.4668    0.2863 N   0  0  0  0  0  0  0  0  0  0  0  0
   -2.8264    0.8850   -0.2307 H   0  0  0  0  0  0  0  0  0  0  0  0
   -0.7919    1.2202    0.3568 C   0  0  1  0  0  0  0  0  0  0  0  0
   -0.0965    0.7757   -0.3639 H   0  0  0  0  0  0  0  0  0  0  0  0
   -1.0595    2.6787   -0.0600 C   0  0  0  0  0  0  0  0  0  0  0  0
   -1.8660    3.0979    0.5503 H   0  0  0  0  0  0  0  0  0  0  0  0
   -0.1577    3.2731    0.1274 H   0  0  0  0  0  0  0  0  0  0  0  0
   -1.4193    2.7930   -1.5495 C   0  0  0  0  0  0  0  0  0  0  0  0
   -0.6039    2.3829   -2.1554 H   0  0  0  0  0  0  0  0  0  0  0  0
   -2.3226    2.2134   -1.7636 H   0  0  0  0  0  0  0  0  0  0  0  0
   -1.6542    4.2581   -1.9331 C   0  0  0  0  0  0  0  0  0  0  0  0
   -2.4547    4.6753   -1.3138 H   0  0  0  0  0  0  0  0  0  0  0  0
   -0.7449    4.8390   -1.7453 H   0  0  0  0  0  0  0  0  0  0  0  0
   -2.0363    4.3831   -3.4054 C   0  0  0  0  0  0  0  0  0  0  0  0
   -1.2293    3.9949   -4.0370 H   0  0  0  0  0  0  0  0  0  0  0  0
   -2.9404    3.7997   -3.6114 H   0  0  0  0  0  0  0  0  0  0  0  0
   -2.2710    5.7982   -3.7072 N   0  0  0  0  0  0  0  0  0  0  0  0
   -2.5103    5.9340   -4.6897 H   0  0  0  0  0  0  0  0  0  0  0  0
   -2.9890    6.1920   -3.0991 H   0  0  0  0  0  0  0  0  0  0  0  0
   -0.0662    1.1783    1.7246 C   0  0  0  0  0  0  0  0  0  0  0  0
    1.0682    0.7245    1.7955 O   0  0  0  0  0  0  0  0  0  0  0  0
   -0.5476    1.9193    2.7908 N   0  0  0  0  0  0  0  0  0  0  0  0
   -1.5029    2.2531    2.7213 H   0  0  0  0  0  0  0  0  0  0  0  0
    0.1254    1.9800    4.0824 C   0  0  0  0  0  0  0  0  0  0  0  0
    1.1328    2.3948    3.9710 H   0  0  0  0  0  0  0  0  0  0  0  0
   -0.4354    2.6189    4.7711 H   0  0  0  0  0  0  0  0  0  0  0  0
    0.2027    0.9794    4.5210 H   0  0  0  0  0  0  0  0  0  0  0  0
  1  2  1  0  0  0  0
  2  3  1  0  0  0  0
  2  4  1  0  0  0  0
  2  5  1  0  0  0  0
  5  6  2  0  0  0  0
  5  7  1  0  0  0  0
  7  8  1  0  0  0  0
  7  9  1  0  0  0  0
  9 10  1  0  0  0  0
  9 11  1  0  0  0  0
  9 26  1  0  0  0  0
 11 12  1  0  0  0  0
 11 13  1  0  0  0  0
 11 14  1  0  0  0  0
 14 15  1  0  0  0  0
 14 16  1  0  0  0  0
 14 17  1  0  0  0  0
 17 18  1  0  0  0  0
 17 19  1  0  0  0  0
 17 20  1  0  0  0  0
 20 21  1  0  0  0  0
 20 22  1  0  0  0  0
 20 23  1  0  0  0  0
 23 24  1  0  0  0  0
 23 25  1  0  0  0  0
 26 27  2  0  0  0  0
 26 28  1  0  0  0  0
 28 29  1  0  0  0  0
 28 30  1  0  0  0  0
 30 31  1  0  0  0  0
 30 32  1  0  0  0  0
 30 33  1  0  0  0  0
M  END
$$$$

  -OEChem-01062216083D

 33 32  0     1  0  0  0  0  0999 V2000
   -3.6364   -2.4746    0.9856 H   0  0  0  0  0  0  0  0  0  0  0  0
   -3.6352   -1.4682    0.5571 C   0  0  0  0  0  0  0  0  0  0  0  0
   -4.4238   -0.8824    1.0350 H   0  0  0  0  0  0  0  0  0  0  0  0
   -3.8418   -1.5428   -0.5132 H   0  0  0  0  0  0  0  0  0  0  0  0
   -2.2879   -0.8071    0.7807 C   0  0  0  0  0  0  0  0  0  0  0  0
   -1.4231   -1.4044    1.3939 O   0  0  0  0  0  0  0  0  0  0  0  0
   -2.0679    0.4633    0.2823 N   0  0  0  0  0  0  0  0  0  0  0  0
   -2.8228    0.8667   -0.2632 H   0  0  0  0  0  0  0  0  0  0  0  0
   -0.7959    1.2111    0.3471 C   0  0  1  0  0  0  0  0  0  0  0  0
   -0.1021    0.7622   -0.3724 H   0  0  0  0  0  0  0  0  0  0  0  0
   -1.0558    2.6713   -0.0640 C   0  0  0  0  0  0  0  0  0  0  0  0
   -1.8551    3.0936    0.5540 H   0  0  0  0  0  0  0  0  0  0  0  0
   -0.1495    3.2592    0.1207 H   0  0  0  0  0  0  0  0  0  0  0  0
   -1.4225    2.7928   -1.5504 C   0  0  0  0  0  0  0  0  0  0  0  0
   -0.6127    2.3795   -2.1614 H   0  0  0  0  0  0  0  0  0  0  0  0
   -2.3308    2.2204   -1.7613 H   0  0  0  0  0  0  0  0  0  0  0  0
   -1.6495    4.2607   -1.9278 C   0  0  0  0  0  0  0  0  0  0  0  0
   -2.4443    4.6815   -1.3035 H   0  0  0  0  0  0  0  0  0  0  0  0
   -0.7355    4.8350   -1.7430 H   0  0  0  0  0  0  0  0  0  0  0  0
   -2.0381    4.3909   -3.3977 C   0  0  0  0  0  0  0  0  0  0  0  0
   -1.2358    3.9987   -4.0326 H   0  0  0  0  0  0  0  0  0  0  0  0
   -2.9464    3.8128   -3.6007 H   0  0  0  0  0  0  0  0  0  0  0  0
   -2.2655    5.8075   -3.6976 N   0  0  0  0  0  0  0  0  0  0  0  0
   -2.5035    5.9457   -4.6799 H   0  0  0  0  0  0  0  0  0  0  0  0
   -2.9815    6.2042   -3.0893 H   0  0  0  0  0  0  0  0  0  0  0  0
   -0.0692    1.1816    1.7125 C   0  0  0  0  0  0  0  0  0  0  0  0
    1.1357    0.9691    1.7498 O   0  0  0  0  0  0  0  0  0  0  0  0
   -0.6977    1.6739    2.8430 N   0  0  0  0  0  0  0  0  0  0  0  0
   -1.7073    1.7596    2.7946 H   0  0  0  0  0  0  0  0  0  0  0  0
   -0.0549    1.6983    4.1510 C   0  0  0  0  0  0  0  0  0  0  0  0
    0.8589    2.3007    4.1185 H   0  0  0  0  0  0  0  0  0  0  0  0
   -0.7274    2.1344    4.8956 H   0  0  0  0  0  0  0  0  0  0  0  0
    0.2046    0.6826    4.4677 H   0  0  0  0  0  0  0  0  0  0  0  0
  1  2  1  0  0  0  0
  2  3  1  0  0  0  0
  2  4  1  0  0  0  0
  2  5  1  0  0  0  0
  5  6  2  0  0  0  0
  5  7  1  0  0  0  0
  7  8  1  0  0  0  0
  7  9  1  0  0  0  0
  9 10  1  0  0  0  0
  9 11  1  0  0  0  0
  9 26  1  0  0  0  0
 11 12  1  0  0  0  0
 11 13  1  0  0  0  0
 11 14  1  0  0  0  0
 14 15  1  0  0  0  0
 14 16  1  0  0  0  0
 14 17  1  0  0  0  0
 17 18  1  0  0  0  0
 17 19  1  0  0  0  0
 17 20  1  0  0  0  0
 20 21  1  0  0  0  0
 20 22  1  0  0  0  0
 20 23  1  0  0  0  0
 23 24  1  0  0  0  0
 23 25  1  0  0  0  0
 26 27  2  0  0  0  0
 26 28  1  0  0  0  0
 28 29  1  0  0  0  0
 28 30  1  0  0  0  0
 30 31  1  0  0  0  0
 30 32  1  0  0  0  0
 30 33  1  0  0  0  0
M  END
$$$$

  -OEChem-01062216083D

 33 32  0     1  0  0  0  0  0999 V2000
   -3.6554   -2.4686    0.9709 H   0  0  0  0  0  0  0  0  0  0  0  0
   -3.6468   -1.4632    0.5399 C   0  0  0  0  0  0  0  0  0  0  0  0
   -4.4386   -0.8736    1.0082 H   0  0  0  0  0  0  0  0  0  0  0  0
   -3.8427   -1.5403   -0.5323 H   0  0  0  0  0  0  0  0  0  0  0  0
   -2.3001   -0.8049    0.7757 C   0  0  0  0  0  0  0  0  0  0  0  0
   -1.4459   -1.3962    1.4099 O   0  0  0  0  0  0  0  0  0  0  0  0
   -2.0682    0.4613    0.2725 N   0  0  0  0  0  0  0  0  0  0  0  0
   -2.8138    0.8639   -0.2867 H   0  0  0  0  0  0  0  0  0  0  0  0
   -0.7933    1.2056    0.3437 C   0  0  1  0  0  0  0  0  0  0  0  0
   -0.0958    0.7565   -0.3720 H   0  0  0  0  0  0  0  0  0  0  0  0
   -1.0565    2.6659   -0.0652 C   0  0  0  0  0  0  0  0  0  0  0  0
   -1.8568    3.0844    0.5544 H   0  0  0  0  0  0  0  0  0  0  0  0
   -0.1521    3.2564    0.1211 H   0  0  0  0  0  0  0  0  0  0  0  0
   -1.4212    2.7899   -1.5521 C   0  0  0  0  0  0  0  0  0  0  0  0
   -0.6091    2.3800   -2.1626 H   0  0  0  0  0  0  0  0  0  0  0  0
   -2.3281    2.2160   -1.7662 H   0  0  0  0  0  0  0  0  0  0  0  0
   -1.6514    4.2579   -1.9262 C   0  0  0  0  0  0  0  0  0  0  0  0
   -2.4478    4.6750   -1.3019 H   0  0  0  0  0  0  0  0  0  0  0  0
   -0.7391    4.8338   -1.7383 H   0  0  0  0  0  0  0  0  0  0  0  0
   -2.0383    4.3919   -3.3965 C   0  0  0  0  0  0  0  0  0  0  0  0
   -1.2345    4.0035   -4.0321 H   0  0  0  0  0  0  0  0  0  0  0  0
   -2.9452    3.8125   -3.6024 H   0  0  0  0  0  0  0  0  0  0  0  0
   -2.2685    5.8092   -3.6913 N   0  0  0  0  0  0  0  0  0  0  0  0
   -2.5109    5.9503   -4.6721 H   0  0  0  0  0  0  0  0  0  0  0  0
   -2.9821    6.2034   -3.0783 H   0  0  0  0  0  0  0  0  0  0  0  0
   -0.0694    1.1896    1.7110 C   0  0  0  0  0  0  0  0  0  0  0  0
    1.1541    1.2234    1.7418 O   0  0  0  0  0  0  0  0  0  0  0  0
   -0.7804    1.3974    2.8794 N   0  0  0  0  0  0  0  0  0  0  0  0
   -1.7781    1.2238    2.8211 H   0  0  0  0  0  0  0  0  0  0  0  0
   -0.1494    1.3699    4.1927 C   0  0  0  0  0  0  0  0  0  0  0  0
    0.6317    2.1343    4.2597 H   0  0  0  0  0  0  0  0  0  0  0  0
   -0.8910    1.5669    4.9727 H   0  0  0  0  0  0  0  0  0  0  0  0
    0.3009    0.3892    4.3792 H   0  0  0  0  0  0  0  0  0  0  0  0
  1  2  1  0  0  0  0
  2  3  1  0  0  0  0
  2  4  1  0  0  0  0
  2  5  1  0  0  0  0
  5  6  2  0  0  0  0
  5  7  1  0  0  0  0
  7  8  1  0  0  0  0
  7  9  1  0  0  0  0
  9 10  1  0  0  0  0
  9 11  1  0  0  0  0
  9 26  1  0  0  0  0
 11 12  1  0  0  0  0
 11 13  1  0  0  0  0
 11 14  1  0  0  0  0
 14 15  1  0  0  0  0
 14 16  1  0  0  0  0
 14 17  1  0  0  0  0
 17 18  1  0  0  0  0
 17 19  1  0  0  0  0
 17 20  1  0  0  0  0
 20 21  1  0  0  0  0
 20 22  1  0  0  0  0
 20 23  1  0  0  0  0
 23 24  1  0  0  0  0
 23 25  1  0  0  0  0
 26 27  2  0  0  0  0
 26 28  1  0  0  0  0
 28 29  1  0  0  0  0
 28 30  1  0  0  0  0
 30 31  1  0  0  0  0
 30 32  1  0  0  0  0
 30 33  1  0  0  0  0
M  END
$$$$

  -OEChem-01062216083D

 33 32  0     1  0  0  0  0  0999 V2000
   -3.7025   -2.4652    0.9081 H   0  0  0  0  0  0  0  0  0  0  0  0
   -3.6824   -1.4545    0.4904 C   0  0  0  0  0  0  0  0  0  0  0  0
   -4.4749   -0.8650    0.9579 H   0  0  0  0  0  0  0  0  0  0  0  0
   -3.8683   -1.5171   -0.5846 H   0  0  0  0  0  0  0  0  0  0  0  0
   -2.3332   -0.8098    0.7478 C   0  0  0  0  0  0  0  0  0  0  0  0
   -1.4933   -1.4109    1.3919 O   0  0  0  0  0  0  0  0  0  0  0  0
   -2.0828    0.4588    0.2612 N   0  0  0  0  0  0  0  0  0  0  0  0
   -2.8273    0.8828   -0.2835 H   0  0  0  0  0  0  0  0  0  0  0  0
   -0.8071    1.2016    0.3559 C   0  0  1  0  0  0  0  0  0  0  0  0
   -0.1029    0.7574   -0.3557 H   0  0  0  0  0  0  0  0  0  0  0  0
   -1.0769    2.6614   -0.0548 C   0  0  0  0  0  0  0  0  0  0  0  0
   -1.8881    3.0720    0.5560 H   0  0  0  0  0  0  0  0  0  0  0  0
   -0.1810    3.2613    0.1431 H   0  0  0  0  0  0  0  0  0  0  0  0
   -1.4220    2.7859   -1.5471 C   0  0  0  0  0  0  0  0  0  0  0  0
   -0.5980    2.3844   -2.1467 H   0  0  0  0  0  0  0  0  0  0  0  0
   -2.3203    2.2044   -1.7760 H   0  0  0  0  0  0  0  0  0  0  0  0
   -1.6590    4.2531   -1.9214 C   0  0  0  0  0  0  0  0  0  0  0  0
   -2.4678    4.6623   -1.3074 H   0  0  0  0  0  0  0  0  0  0  0  0
   -0.7541    4.8359   -1.7197 H   0  0  0  0  0  0  0  0  0  0  0  0
   -2.0264    4.3878   -3.3966 C   0  0  0  0  0  0  0  0  0  0  0  0
   -1.2105    4.0078   -4.0218 H   0  0  0  0  0  0  0  0  0  0  0  0
   -2.9254    3.8014   -3.6170 H   0  0  0  0  0  0  0  0  0  0  0  0
   -2.2640    5.8040   -3.6908 N   0  0  0  0  0  0  0  0  0  0  0  0
   -2.4960    5.9458   -4.6741 H   0  0  0  0  0  0  0  0  0  0  0  0
   -2.9879    6.1905   -3.0852 H   0  0  0  0  0  0  0  0  0  0  0  0
   -0.0804    1.1916    1.7244 C   0  0  0  0  0  0  0  0  0  0  0  0
    1.1110    1.4724    1.7639 O   0  0  0  0  0  0  0  0  0  0  0  0
   -0.7859    1.0898    2.9100 N   0  0  0  0  0  0  0  0  0  0  0  0
   -1.6892    0.6340    2.8252 H   0  0  0  0  0  0  0  0  0  0  0  0
   -0.1204    1.0433    4.2060 C   0  0  0  0  0  0  0  0  0  0  0  0
    0.4800    1.9458    4.3628 H   0  0  0  0  0  0  0  0  0  0  0  0
   -0.8606    0.9795    5.0091 H   0  0  0  0  0  0  0  0  0  0  0  0
    0.5355    0.1684    4.2665 H   0  0  0  0  0  0  0  0  0  0  0  0
  1  2  1  0  0  0  0
  2  3  1  0  0  0  0
  2  4  1  0  0  0  0
  2  5  1  0  0  0  0
  5  6  2  0  0  0  0
  5  7  1  0  0  0  0
  7  8  1  0  0  0  0
  7  9  1  0  0  0  0
  9 10  1  0  0  0  0
  9 11  1  0  0  0  0
  9 26  1  0  0  0  0
 11 12  1  0  0  0  0
 11 13  1  0  0  0  0
 11 14  1  0  0  0  0
 14 15  1  0  0  0  0
 14 16  1  0  0  0  0
 14 17  1  0  0  0  0
 17 18  1  0  0  0  0
 17 19  1  0  0  0  0
 17 20  1  0  0  0  0
 20 21  1  0  0  0  0
 20 22  1  0  0  0  0
 20 23  1  0  0  0  0
 23 24  1  0  0  0  0
 23 25  1  0  0  0  0
 26 27  2  0  0  0  0
 26 28  1  0  0  0  0
 28 29  1  0  0  0  0
 28 30  1  0  0  0  0
 30 31  1  0  0  0  0
 30 32  1  0  0  0  0
 30 33  1  0  0  0  0
M  END
$$$$

  -OEChem-01062216083D

 33 32  0     1  0  0  0  0  0999 V2000
   -3.7796   -2.4420    0.8415 H   0  0  0  0  0  0  0  0  0  0  0  0
   -3.7343   -1.4238    0.4439 C   0  0  0  0  0  0  0  0  0  0  0  0
   -4.5035   -0.8207    0.9320 H   0  0  0  0  0  0  0  0  0  0  0  0
   -3.9343   -1.4580   -0.6299 H   0  0  0  0  0  0  0  0  0  0  0  0
   -2.3640   -0.8239    0.6985 C   0  0  0  0  0  0  0  0  0  0  0  0
   -1.5337   -1.4639    1.3181 O   0  0  0  0  0  0  0  0  0  0  0  0
   -2.0854    0.4495    0.2419 N   0  0  0  0  0  0  0  0  0  0  0  0
   -2.8368    0.9122   -0.2606 H   0  0  0  0  0  0  0  0  0  0  0  0
   -0.8096    1.1909    0.3668 C   0  0  1  0  0  0  0  0  0  0  0  0
   -0.0979    0.7557   -0.3423 H   0  0  0  0  0  0  0  0  0  0  0  0
   -1.0940    2.6507   -0.0439 C   0  0  0  0  0  0  0  0  0  0  0  0
   -1.9203    3.0461    0.5564 H   0  0  0  0  0  0  0  0  0  0  0  0
   -0.2127    3.2670    0.1671 H   0  0  0  0  0  0  0  0  0  0  0  0
   -1.4176    2.7781   -1.5413 C   0  0  0  0  0  0  0  0  0  0  0  0
   -0.5791    2.3908   -2.1302 H   0  0  0  0  0  0  0  0  0  0  0  0
   -2.3042    2.1861   -1.7877 H   0  0  0  0  0  0  0  0  0  0  0  0
   -1.6690    4.2439   -1.9128 C   0  0  0  0  0  0  0  0  0  0  0  0
   -2.4925    4.6388   -1.3093 H   0  0  0  0  0  0  0  0  0  0  0  0
   -0.7754    4.8382   -1.6941 H   0  0  0  0  0  0  0  0  0  0  0  0
   -2.0153    4.3810   -3.3931 C   0  0  0  0  0  0  0  0  0  0  0  0
   -1.1852    4.0150   -4.0076 H   0  0  0  0  0  0  0  0  0  0  0  0
   -2.9030    3.7840   -3.6297 H   0  0  0  0  0  0  0  0  0  0  0  0
   -2.2678    5.7951   -3.6848 N   0  0  0  0  0  0  0  0  0  0  0  0
   -2.4904    5.9377   -4.6701 H   0  0  0  0  0  0  0  0  0  0  0  0
   -3.0030    6.1707   -3.0860 H   0  0  0  0  0  0  0  0  0  0  0  0
   -0.0802    1.1786    1.7389 C   0  0  0  0  0  0  0  0  0  0  0  0
    1.0322    1.6857    1.8193 O   0  0  0  0  0  0  0  0  0  0  0  0
   -0.7074    0.7716    2.9025 N   0  0  0  0  0  0  0  0  0  0  0  0
   -1.4466    0.0886    2.7491 H   0  0  0  0  0  0  0  0  0  0  0  0
   -0.0132    0.7282    4.1836 C   0  0  0  0  0  0  0  0  0  0  0  0
    0.3601    1.7218    4.4528 H   0  0  0  0  0  0  0  0  0  0  0  0
   -0.6957    0.3935    4.9706 H   0  0  0  0  0  0  0  0  0  0  0  0
    0.8326    0.0343    4.1374 H   0  0  0  0  0  0  0  0  0  0  0  0
  1  2  1  0  0  0  0
  2  3  1  0  0  0  0
  2  4  1  0  0  0  0
  2  5  1  0  0  0  0
  5  6  2  0  0  0  0
  5  7  1  0  0  0  0
  7  8  1  0  0  0  0
  7  9  1  0  0  0  0
  9 10  1  0  0  0  0
  9 11  1  0  0  0  0
  9 26  1  0  0  0  0
 11 12  1  0  0  0  0
 11 13  1  0  0  0  0
 11 14  1  0  0  0  0
 14 15  1  0  0  0  0
 14 16  1  0  0  0  0
 14 17  1  0  0  0  0
 17 18  1  0  0  0  0
 17 19  1  0  0  0  0
 17 20  1  0  0  0  0
 20 21  1  0  0  0  0
 20 22  1  0  0  0  0
 20 23  1  0  0  0  0
 23 24  1  0  0  0  0
 23 25  1  0  0  0  0
 26 27  2  0  0  0  0
 26 28  1  0  0  0  0
 28 29  1  0  0  0  0
 28 30  1  0  0  0  0
 30 31  1  0  0  0  0
 30 32  1  0  0  0  0
 30 33  1  0  0  0  0
M  END
$$$$

  -OEChem-01062216083D

 33 32  0     1  0  0  0  0  0999 V2000
   -3.8282   -2.4010    0.8549 H   0  0  0  0  0  0  0  0  0  0  0  0
   -3.7650   -1.3835    0.4587 C   0  0  0  0  0  0  0  0  0  0  0  0
   -4.4778   -0.7528    0.9955 H   0  0  0  0  0  0  0  0  0  0  0  0
   -4.0302   -1.4030   -0.6011 H   0  0  0  0  0  0  0  0  0  0  0  0
   -2.3591   -0.8408    0.6320 C   0  0  0  0  0  0  0  0  0  0  0  0
   -1.5020   -1.5442    1.1374 O   0  0  0  0  0  0  0  0  0  0  0  0
   -2.0715    0.4422    0.2102 N   0  0  0  0  0  0  0  0  0  0  0  0
   -2.8529    0.9559   -0.1857 H   0  0  0  0  0  0  0  0  0  0  0  0
   -0.8026    1.1907    0.3687 C   0  0  1  0  0  0  0  0  0  0  0  0
   -0.0771    0.7717   -0.3362 H   0  0  0  0  0  0  0  0  0  0  0  0
   -1.1087    2.6483   -0.0421 C   0  0  0  0  0  0  0  0  0  0  0  0
   -1.9522    3.0261    0.5453 H   0  0  0  0  0  0  0  0  0  0  0  0
   -0.2452    3.2840    0.1820 H   0  0  0  0  0  0  0  0  0  0  0  0
   -1.4071    2.7755   -1.5448 C   0  0  0  0  0  0  0  0  0  0  0  0
   -0.5492    2.4088   -2.1187 H   0  0  0  0  0  0  0  0  0  0  0  0
   -2.2764    2.1670   -1.8115 H   0  0  0  0  0  0  0  0  0  0  0  0
   -1.6803    4.2378   -1.9129 C   0  0  0  0  0  0  0  0  0  0  0  0
   -2.5225    4.6131   -1.3228 H   0  0  0  0  0  0  0  0  0  0  0  0
   -0.8025    4.8479   -1.6746 H   0  0  0  0  0  0  0  0  0  0  0  0
   -2.0022    4.3775   -3.3979 C   0  0  0  0  0  0  0  0  0  0  0  0
   -1.1544    4.0319   -3.9998 H   0  0  0  0  0  0  0  0  0  0  0  0
   -2.8739    3.7653   -3.6545 H   0  0  0  0  0  0  0  0  0  0  0  0
   -2.2766    5.7885   -3.6840 N   0  0  0  0  0  0  0  0  0  0  0  0
   -2.4903    5.9331   -4.6708 H   0  0  0  0  0  0  0  0  0  0  0  0
   -3.0254    6.1466   -3.0916 H   0  0  0  0  0  0  0  0  0  0  0  0
   -0.0823    1.1652    1.7507 C   0  0  0  0  0  0  0  0  0  0  0  0
    0.9139    1.8594    1.9141 O   0  0  0  0  0  0  0  0  0  0  0  0
   -0.5730    0.4730    2.8427 N   0  0  0  0  0  0  0  0  0  0  0  0
   -1.1724   -0.3149    2.5967 H   0  0  0  0  0  0  0  0  0  0  0  0
    0.1389    0.4025    4.1133 C   0  0  0  0  0  0  0  0  0  0  0  0
    0.2971    1.4060    4.5221 H   0  0  0  0  0  0  0  0  0  0  0  0
   -0.4416   -0.1754    4.8385 H   0  0  0  0  0  0  0  0  0  0  0  0
    1.1120   -0.0819    3.9813 H   0  0  0  0  0  0  0  0  0  0  0  0
  1  2  1  0  0  0  0
  2  3  1  0  0  0  0
  2  4  1  0  0  0  0
  2  5  1  0  0  0  0
  5  6  2  0  0  0  0
  5  7  1  0  0  0  0
  7  8  1  0  0  0  0
  7  9  1  0  0  0  0
  9 10  1  0  0  0  0
  9 11  1  0  0  0  0
  9 26  1  0  0  0  0
 11 12  1  0  0  0  0
 11 13  1  0  0  0  0
 11 14  1  0  0  0  0
 14 15  1  0  0  0  0
 14 16  1  0  0  0  0
 14 17  1  0  0  0  0
 17 18  1  0  0  0  0
 17 19  1  0  0  0  0
 17 20  1  0  0  0  0
 20 21  1  0  0  0  0
 20 22  1  0  0  0  0
 20 23  1  0  0  0  0
 23 24  1  0  0  0  0
 23 25  1  0  0  0  0
 26 27  2  0  0  0  0
 26 28  1  0  0  0  0
 28 29  1  0  0  0  0
 28 30  1  0  0  0  0
 30 31  1  0  0  0  0
 30 32  1  0  0  0  0
 30 33  1  0  0  0  0
M  END
$$$$

  -OEChem-01062216083D

 33 32  0     1  0  0  0  0  0999 V2000
   -3.8420   -2.3833    0.8816 H   0  0  0  0  0  0  0  0  0  0  0  0
   -3.7786   -1.3624    0.4943 C   0  0  0  0  0  0  0  0  0  0  0  0
   -4.4411   -0.7230    1.0826 H   0  0  0  0  0  0  0  0  0  0  0  0
   -4.1100   -1.3602   -0.5469 H   0  0  0  0  0  0  0  0  0  0  0  0
   -2.3517   -0.8554    0.5852 C   0  0  0  0  0  0  0  0  0  0  0  0
   -1.4698   -1.6077    0.9627 O   0  0  0  0  0  0  0  0  0  0  0  0
   -2.0667    0.4371    0.1913 N   0  0  0  0  0  0  0  0  0  0  0  0
   -2.8710    0.9803   -0.1076 H   0  0  0  0  0  0  0  0  0  0  0  0
   -0.8041    1.1926    0.3707 C   0  0  1  0  0  0  0  0  0  0  0  0
   -0.0717    0.7837   -0.3328 H   0  0  0  0  0  0  0  0  0  0  0  0
   -1.1208    2.6497   -0.0420 C   0  0  0  0  0  0  0  0  0  0  0  0
   -1.9747    3.0179    0.5363 H   0  0  0  0  0  0  0  0  0  0  0  0
   -0.2683    3.2972    0.1891 H   0  0  0  0  0  0  0  0  0  0  0  0
   -1.4012    2.7775   -1.5480 C   0  0  0  0  0  0  0  0  0  0  0  0
   -0.5338    2.4201   -2.1133 H   0  0  0  0  0  0  0  0  0  0  0  0
   -2.2621    2.1619   -1.8262 H   0  0  0  0  0  0  0  0  0  0  0  0
   -1.6846    4.2381   -1.9149 C   0  0  0  0  0  0  0  0  0  0  0  0
   -2.5377    4.6032   -1.3341 H   0  0  0  0  0  0  0  0  0  0  0  0
   -0.8164    4.8567   -1.6638 H   0  0  0  0  0  0  0  0  0  0  0  0
   -1.9887    4.3775   -3.4036 C   0  0  0  0  0  0  0  0  0  0  0  0
   -1.1300    4.0411   -3.9958 H   0  0  0  0  0  0  0  0  0  0  0  0
   -2.8511    3.7573   -3.6714 H   0  0  0  0  0  0  0  0  0  0  0  0
   -2.2740    5.7863   -3.6897 N   0  0  0  0  0  0  0  0  0  0  0  0
   -2.4833    5.9302   -4.6776 H   0  0  0  0  0  0  0  0  0  0  0  0
   -3.0293    6.1371   -3.1009 H   0  0  0  0  0  0  0  0  0  0  0  0
   -0.0876    1.1496    1.7585 C   0  0  0  0  0  0  0  0  0  0  0  0
    0.7566    1.9963    2.0264 O   0  0  0  0  0  0  0  0  0  0  0  0
   -0.3841    0.2236    2.7413 N   0  0  0  0  0  0  0  0  0  0  0  0
   -0.8679   -0.6120    2.4092 H   0  0  0  0  0  0  0  0  0  0  0  0
    0.3543    0.1273    3.9948 C   0  0  0  0  0  0  0  0  0  0  0  0
    0.2968    1.0703    4.5483 H   0  0  0  0  0  0  0  0  0  0  0  0
   -0.0691   -0.6641    4.6206 H   0  0  0  0  0  0  0  0  0  0  0  0
    1.4069   -0.1055    3.8027 H   0  0  0  0  0  0  0  0  0  0  0  0
  1  2  1  0  0  0  0
  2  3  1  0  0  0  0
  2  4  1  0  0  0  0
  2  5  1  0  0  0  0
  5  6  2  0  0  0  0
  5  7  1  0  0  0  0
  7  8  1  0  0  0  0
  7  9  1  0  0  0  0
  9 10  1  0  0  0  0
  9 11  1  0  0  0  0
  9 26  1  0  0  0  0
 11 12  1  0  0  0  0
 11 13  1  0  0  0  0
 11 14  1  0  0  0  0
 14 15  1  0  0  0  0
 14 16  1  0  0  0  0
 14 17  1  0  0  0  0
 17 18  1  0  0  0  0
 17 19  1  0  0  0  0
 17 20  1  0  0  0  0
 20 21  1  0  0  0  0
 20 22  1  0  0  0  0
 20 23  1  0  0  0  0
 23 24  1  0  0  0  0
 23 25  1  0  0  0  0
 26 27  2  0  0  0  0
 26 28  1  0  0  0  0
 28 29  1  0  0  0  0
 28 30  1  0  0  0  0
 30 31  1  0  0  0  0
 30 32  1  0  0  0  0
 30 33  1  0  0  0  0
M  END
$$$$

  -OEChem-01062216083D

 33 32  0     1  0  0  0  0  0999 V2000
   -3.8854   -2.3107    1.0053 H   0  0  0  0  0  0  0  0  0  0  0  0
   -3.8178   -1.2926    0.6117 C   0  0  0  0  0  0  0  0  0  0  0  0
   -4.4110   -0.6313    1.2484 H   0  0  0  0  0  0  0  0  0  0  0  0
   -4.2281   -1.2791   -0.4011 H   0  0  0  0  0  0  0  0  0  0  0  0
   -2.3714   -0.8355    0.5899 C   0  0  0  0  0  0  0  0  0  0  0  0
   -1.4847   -1.6375    0.8312 O   0  0  0  0  0  0  0  0  0  0  0  0
   -2.0761    0.4569    0.2032 N   0  0  0  0  0  0  0  0  0  0  0  0
   -2.8889    1.0338    0.0078 H   0  0  0  0  0  0  0  0  0  0  0  0
   -0.7959    1.1883    0.3552 C   0  0  1  0  0  0  0  0  0  0  0  0
   -0.0890    0.7673   -0.3668 H   0  0  0  0  0  0  0  0  0  0  0  0
   -1.0931    2.6506   -0.0551 C   0  0  0  0  0  0  0  0  0  0  0  0
   -1.9249    3.0408    0.5411 H   0  0  0  0  0  0  0  0  0  0  0  0
   -0.2206    3.2800    0.1500 H   0  0  0  0  0  0  0  0  0  0  0  0
   -1.4014    2.7739   -1.5561 C   0  0  0  0  0  0  0  0  0  0  0  0
   -0.5521    2.3963   -2.1355 H   0  0  0  0  0  0  0  0  0  0  0  0
   -2.2784    2.1712   -1.8120 H   0  0  0  0  0  0  0  0  0  0  0  0
   -1.6661    4.2360   -1.9312 C   0  0  0  0  0  0  0  0  0  0  0  0
   -2.5003    4.6225   -1.3371 H   0  0  0  0  0  0  0  0  0  0  0  0
   -0.7819    4.8408   -1.7047 H   0  0  0  0  0  0  0  0  0  0  0  0
   -1.9973    4.3647   -3.4153 C   0  0  0  0  0  0  0  0  0  0  0  0
   -1.1568    4.0064   -4.0202 H   0  0  0  0  0  0  0  0  0  0  0  0
   -2.8755    3.7567   -3.6588 H   0  0  0  0  0  0  0  0  0  0  0  0
   -2.2640    5.7747   -3.7138 N   0  0  0  0  0  0  0  0  0  0  0  0
   -2.4876    5.9099   -4.6998 H   0  0  0  0  0  0  0  0  0  0  0  0
   -3.0038    6.1448   -3.1172 H   0  0  0  0  0  0  0  0  0  0  0  0
   -0.0504    1.1084    1.7280 C   0  0  0  0  0  0  0  0  0  0  0  0
    0.6201    2.0573    2.1170 O   0  0  0  0  0  0  0  0  0  0  0  0
   -0.1237    0.0154    2.5703 N   0  0  0  0  0  0  0  0  0  0  0  0
   -0.5384   -0.8278    2.1688 H   0  0  0  0  0  0  0  0  0  0  0  0
    0.6266   -0.1054    3.8141 C   0  0  0  0  0  0  0  0  0  0  0  0
    0.3803    0.7180    4.4926 H   0  0  0  0  0  0  0  0  0  0  0  0
    0.3783   -1.0470    4.3129 H   0  0  0  0  0  0  0  0  0  0  0  0
    1.7031   -0.0898    3.6153 H   0  0  0  0  0  0  0  0  0  0  0  0
  1  2  1  0  0  0  0
  2  3  1  0  0  0  0
  2  4  1  0  0  0  0
  2  5  1  0  0  0  0
  5  6  2  0  0  0  0
  5  7  1  0  0  0  0
  7  8  1  0  0  0  0
  7  9  1  0  0  0  0
  9 10  1  0  0  0  0
  9 11  1  0  0  0  0
  9 26  1  0  0  0  0
 11 12  1  0  0  0  0
 11 13  1  0  0  0  0
 11 14  1  0  0  0  0
 14 15  1  0  0  0  0
 14 16  1  0  0  0  0
 14 17  1  0  0  0  0
 17 18  1  0  0  0  0
 17 19  1  0  0  0  0
 17 20  1  0  0  0  0
 20 21  1  0  0  0  0
 20 22  1  0  0  0  0
 20 23  1  0  0  0  0
 23 24  1  0  0  0  0
 23 25  1  0  0  0  0
 26 27  2  0  0  0  0
 26 28  1  0  0  0  0
 28 29  1  0  0  0  0
 28 30  1  0  0  0  0
 30 31  1  0  0  0  0
 30 32  1  0  0  0  0
 30 33  1  0  0  0  0
M  END
$$$$

  -OEChem-01062216083D

 33 32  0     1  0  0  0  0  0999 V2000
   -3.7490   -2.3930    0.9907 H   0  0  0  0  0  0  0  0  0  0  0  0
   -3.7257   -1.3567    0.6417 C   0  0  0  0  0  0  0  0  0  0  0  0
   -4.2933   -0.7387    1.3417 H   0  0  0  0  0  0  0  0  0  0  0  0
   -4.1962   -1.3070   -0.3433 H   0  0  0  0  0  0  0  0  0  0  0  0
   -2.2928   -0.8656    0.5566 C   0  0  0  0  0  0  0  0  0  0  0  0
   -1.3771   -1.6554    0.7187 O   0  0  0  0  0  0  0  0  0  0  0  0
   -2.0450    0.4408    0.1825 N   0  0  0  0  0  0  0  0  0  0  0  0
   -2.8803    1.0047    0.0550 H   0  0  0  0  0  0  0  0  0  0  0  0
   -0.7846    1.2024    0.3424 C   0  0  1  0  0  0  0  0  0  0  0  0
   -0.0660    0.8012   -0.3792 H   0  0  0  0  0  0  0  0  0  0  0  0
   -1.0960    2.6630   -0.0604 C   0  0  0  0  0  0  0  0  0  0  0  0
   -1.9366    3.0395    0.5318 H   0  0  0  0  0  0  0  0  0  0  0  0
   -0.2302    3.2976    0.1580 H   0  0  0  0  0  0  0  0  0  0  0  0
   -1.3949    2.7933   -1.5627 C   0  0  0  0  0  0  0  0  0  0  0  0
   -0.5381    2.4289   -2.1395 H   0  0  0  0  0  0  0  0  0  0  0  0
   -2.2637    2.1822   -1.8271 H   0  0  0  0  0  0  0  0  0  0  0  0
   -1.6740    4.2547   -1.9307 C   0  0  0  0  0  0  0  0  0  0  0  0
   -2.5173    4.6275   -1.3407 H   0  0  0  0  0  0  0  0  0  0  0  0
   -0.7988    4.8687   -1.6933 H   0  0  0  0  0  0  0  0  0  0  0  0
   -1.9957    4.3887   -3.4164 C   0  0  0  0  0  0  0  0  0  0  0  0
   -1.1466    4.0429   -4.0166 H   0  0  0  0  0  0  0  0  0  0  0  0
   -2.8651    3.7721   -3.6695 H   0  0  0  0  0  0  0  0  0  0  0  0
   -2.2769    5.7969   -3.7105 N   0  0  0  0  0  0  0  0  0  0  0  0
   -2.4984    5.9331   -4.6968 H   0  0  0  0  0  0  0  0  0  0  0  0
   -3.0235    6.1562   -3.1157 H   0  0  0  0  0  0  0  0  0  0  0  0
   -0.0500    1.1102    1.7194 C   0  0  0  0  0  0  0  0  0  0  0  0
    0.3593    2.1240    2.2727 O   0  0  0  0  0  0  0  0  0  0  0  0
    0.1433   -0.0830    2.3879 N   0  0  0  0  0  0  0  0  0  0  0  0
   -0.1842   -0.9288    1.9153 H   0  0  0  0  0  0  0  0  0  0  0  0
    0.8300   -0.2098    3.6669 C   0  0  0  0  0  0  0  0  0  0  0  0
    0.3165    0.3754    4.4368 H   0  0  0  0  0  0  0  0  0  0  0  0
    0.8468   -1.2575    3.9822 H   0  0  0  0  0  0  0  0  0  0  0  0
    1.8629    0.1434    3.5837 H   0  0  0  0  0  0  0  0  0  0  0  0
  1  2  1  0  0  0  0
  2  3  1  0  0  0  0
  2  4  1  0  0  0  0
  2  5  1  0  0  0  0
  5  6  2  0  0  0  0
  5  7  1  0  0  0  0
  7  8  1  0  0  0  0
  7  9  1  0  0  0  0
  9 10  1  0  0  0  0
  9 11  1  0  0  0  0
  9 26  1  0  0  0  0
 11 12  1  0  0  0  0
 11 13  1  0  0  0  0
 11 14  1  0  0  0  0
 14 15  1  0  0  0  0
 14 16  1  0  0  0  0
 14 17  1  0  0  0  0
 17 18  1  0  0  0  0
 17 19  1  0  0  0  0
 17 20  1  0  0  0  0
 20 21  1  0  0  0  0
 20 22  1  0  0  0  0
 20 23  1  0  0  0  0
 23 24  1  0  0  0  0
 23 25  1  0  0  0  0
 26 27  2  0  0  0  0
 26 28  1  0  0  0  0
 28 29  1  0  0  0  0
 28 30  1  0  0  0  0
 30 31  1  0  0  0  0
 30 32  1  0  0  0  0
 30 33  1  0  0  0  0
M  END
$$$$

  -OEChem-01062216083D

 33 32  0     1  0  0  0  0  0999 V2000
   -3.6554   -2.4011    1.0814 H   0  0  0  0  0  0  0  0  0  0  0  0
   -3.6584   -1.3622    0.7392 C   0  0  0  0  0  0  0  0  0  0  0  0
   -4.1876   -0.7524    1.4756 H   0  0  0  0  0  0  0  0  0  0  0  0
   -4.1853   -1.3079   -0.2166 H   0  0  0  0  0  0  0  0  0  0  0  0
   -2.2356   -0.8617    0.5758 C   0  0  0  0  0  0  0  0  0  0  0  0
   -1.3049   -1.6406    0.7042 O   0  0  0  0  0  0  0  0  0  0  0  0
   -2.0155    0.4422    0.1773 N   0  0  0  0  0  0  0  0  0  0  0  0
   -2.8580    1.0042    0.0999 H   0  0  0  0  0  0  0  0  0  0  0  0
   -0.7534    1.2039    0.3035 C   0  0  1  0  0  0  0  0  0  0  0  0
   -0.0472    0.8003   -0.4289 H   0  0  0  0  0  0  0  0  0  0  0  0
   -1.0589    2.6660   -0.0913 C   0  0  0  0  0  0  0  0  0  0  0  0
   -1.8842    3.0499    0.5176 H   0  0  0  0  0  0  0  0  0  0  0  0
   -0.1813    3.2891    0.1149 H   0  0  0  0  0  0  0  0  0  0  0  0
   -1.3899    2.7983   -1.5859 C   0  0  0  0  0  0  0  0  0  0  0  0
   -0.5502    2.4246   -2.1816 H   0  0  0  0  0  0  0  0  0  0  0  0
   -2.2709    2.1961   -1.8296 H   0  0  0  0  0  0  0  0  0  0  0  0
   -1.6622    4.2625   -1.9465 C   0  0  0  0  0  0  0  0  0  0  0  0
   -2.4891    4.6420   -1.3376 H   0  0  0  0  0  0  0  0  0  0  0  0
   -0.7762    4.8677   -1.7274 H   0  0  0  0  0  0  0  0  0  0  0  0
   -2.0161    4.4025   -3.4242 C   0  0  0  0  0  0  0  0  0  0  0  0
   -1.1851    4.0495   -4.0452 H   0  0  0  0  0  0  0  0  0  0  0  0
   -2.8978    3.7957   -3.6584 H   0  0  0  0  0  0  0  0  0  0  0  0
   -2.2885    5.8148   -3.7062 N   0  0  0  0  0  0  0  0  0  0  0  0
   -2.5347    5.9577   -4.6857 H   0  0  0  0  0  0  0  0  0  0  0  0
   -3.0140    6.1808   -3.0897 H   0  0  0  0  0  0  0  0  0  0  0  0
   -0.0114    1.1075    1.6721 C   0  0  0  0  0  0  0  0  0  0  0  0
    0.1709    2.1100    2.3531 O   0  0  0  0  0  0  0  0  0  0  0  0
    0.4379   -0.0968    2.1773 N   0  0  0  0  0  0  0  0  0  0  0  0
    0.1366   -0.9337    1.6714 H   0  0  0  0  0  0  0  0  0  0  0  0
    1.0405   -0.2539    3.4945 C   0  0  0  0  0  0  0  0  0  0  0  0
    0.3260    0.0192    4.2776 H   0  0  0  0  0  0  0  0  0  0  0  0
    1.3433   -1.2941    3.6477 H   0  0  0  0  0  0  0  0  0  0  0  0
    1.9281    0.3807    3.5881 H   0  0  0  0  0  0  0  0  0  0  0  0
  1  2  1  0  0  0  0
  2  3  1  0  0  0  0
  2  4  1  0  0  0  0
  2  5  1  0  0  0  0
  5  6  2  0  0  0  0
  5  7  1  0  0  0  0
  7  8  1  0  0  0  0
  7  9  1  0  0  0  0
  9 10  1  0  0  0  0
  9 11  1  0  0  0  0
  9 26  1  0  0  0  0
 11 12  1  0  0  0  0
 11 13  1  0  0  0  0
 11 14  1  0  0  0  0
 14 15  1  0  0  0  0
 14 16  1  0  0  0  0
 14 17  1  0  0  0  0
 17 18  1  0  0  0  0
 17 19  1  0  0  0  0
 17 20  1  0  0  0  0
 20 21  1  0  0  0  0
 20 22  1  0  0  0  0
 20 23  1  0  0  0  0
 23 24  1  0  0  0  0
 23 25  1  0  0  0  0
 26 27  2  0  0  0  0
 26 28  1  0  0  0  0
 28 29  1  0  0  0  0
 28 30  1  0  0  0  0
 30 31  1  0  0  0  0
 30 32  1  0  0  0  0
 30 33  1  0  0  0  0
M  END
$$$$

  -OEChem-01062216083D

 33 32  0     1  0  0  0  0  0999 V2000
   -3.5492   -2.4111    1.1875 H   0  0  0  0  0  0  0  0  0  0  0  0
   -3.5841   -1.3847    0.8116 C   0  0  0  0  0  0  0  0  0  0  0  0
   -4.1107   -0.7628    1.5396 H   0  0  0  0  0  0  0  0  0  0  0  0
   -4.1332   -1.3738   -0.1331 H   0  0  0  0  0  0  0  0  0  0  0  0
   -2.1778   -0.8571    0.6005 C   0  0  0  0  0  0  0  0  0  0  0  0
   -1.2225   -1.6058    0.7341 O   0  0  0  0  0  0  0  0  0  0  0  0
   -1.9953    0.4411    0.1657 N   0  0  0  0  0  0  0  0  0  0  0  0
   -2.8460    0.9936    0.1117 H   0  0  0  0  0  0  0  0  0  0  0  0
   -0.7369    1.2073    0.2732 C   0  0  1  0  0  0  0  0  0  0  0  0
   -0.0286    0.8028   -0.4572 H   0  0  0  0  0  0  0  0  0  0  0  0
   -1.0395    2.6690   -0.1172 C   0  0  0  0  0  0  0  0  0  0  0  0
   -1.8588    3.0539    0.4995 H   0  0  0  0  0  0  0  0  0  0  0  0
   -0.1566    3.2845    0.0884 H   0  0  0  0  0  0  0  0  0  0  0  0
   -1.3869    2.8073   -1.6074 C   0  0  0  0  0  0  0  0  0  0  0  0
   -0.5557    2.4321   -2.2138 H   0  0  0  0  0  0  0  0  0  0  0  0
   -2.2727    2.2091   -1.8427 H   0  0  0  0  0  0  0  0  0  0  0  0
   -1.6558    4.2744   -1.9585 C   0  0  0  0  0  0  0  0  0  0  0  0
   -2.4742    4.6546   -1.3385 H   0  0  0  0  0  0  0  0  0  0  0  0
   -0.7643    4.8742   -1.7461 H   0  0  0  0  0  0  0  0  0  0  0  0
   -2.0261    4.4246   -3.4312 C   0  0  0  0  0  0  0  0  0  0  0  0
   -1.2033    4.0722   -4.0633 H   0  0  0  0  0  0  0  0  0  0  0  0
   -2.9127    3.8232   -3.6602 H   0  0  0  0  0  0  0  0  0  0  0  0
   -2.2943    5.8398   -3.7021 N   0  0  0  0  0  0  0  0  0  0  0  0
   -2.5471    5.9896   -4.6789 H   0  0  0  0  0  0  0  0  0  0  0  0
   -3.0141    6.2045   -3.0782 H   0  0  0  0  0  0  0  0  0  0  0  0
   -0.0171    1.1173    1.6494 C   0  0  0  0  0  0  0  0  0  0  0  0
   -0.0433    2.0608    2.4315 O   0  0  0  0  0  0  0  0  0  0  0  0
    0.6761   -0.0207    2.0129 N   0  0  0  0  0  0  0  0  0  0  0  0
    0.4383   -0.8559    1.4718 H   0  0  0  0  0  0  0  0  0  0  0  0
    1.2697   -0.2049    3.3307 C   0  0  0  0  0  0  0  0  0  0  0  0
    0.4949   -0.1986    4.1043 H   0  0  0  0  0  0  0  0  0  0  0  0
    1.7978   -1.1621    3.3741 H   0  0  0  0  0  0  0  0  0  0  0  0
    1.9882    0.5936    3.5436 H   0  0  0  0  0  0  0  0  0  0  0  0
  1  2  1  0  0  0  0
  2  3  1  0  0  0  0
  2  4  1  0  0  0  0
  2  5  1  0  0  0  0
  5  6  2  0  0  0  0
  5  7  1  0  0  0  0
  7  8  1  0  0  0  0
  7  9  1  0  0  0  0
  9 10  1  0  0  0  0
  9 11  1  0  0  0  0
  9 26  1  0  0  0  0
 11 12  1  0  0  0  0
 11 13  1  0  0  0  0
 11 14  1  0  0  0  0
 14 15  1  0  0  0  0
 14 16  1  0  0  0  0
 14 17  1  0  0  0  0
 17 18  1  0  0  0  0
 17 19  1  0  0  0  0
 17 20  1  0  0  0  0
 20 21  1  0  0  0  0
 20 22  1  0  0  0  0
 20 23  1  0  0  0  0
 23 24  1  0  0  0  0
 23 25  1  0  0  0  0
 26 27  2  0  0  0  0
 26 28  1  0  0  0  0
 28 29  1  0  0  0  0
 28 30  1  0  0  0  0
 30 31  1  0  0  0  0
 30 32  1  0  0  0  0
 30 33  1  0  0  0  0
M  END
$$$$

  -OEChem-01062216083D

 33 32  0     1  0  0  0  0  0999 V2000
   -3.4394   -2.4292    1.2675 H   0  0  0  0  0  0  0  0  0  0  0  0
   -3.5129   -1.4106    0.8761 C   0  0  0  0  0  0  0  0  0  0  0  0
   -4.0356   -0.7908    1.6087 H   0  0  0  0  0  0  0  0  0  0  0  0
   -4.0883   -1.4304   -0.0525 H   0  0  0  0  0  0  0  0  0  0  0  0
   -2.1278   -0.8493    0.6172 C   0  0  0  0  0  0  0  0  0  0  0  0
   -1.1448   -1.5620    0.7548 O   0  0  0  0  0  0  0  0  0  0  0  0
   -1.9871    0.4427    0.1490 N   0  0  0  0  0  0  0  0  0  0  0  0
   -2.8450    0.9861    0.1268 H   0  0  0  0  0  0  0  0  0  0  0  0
   -0.7325    1.2119    0.2428 C   0  0  1  0  0  0  0  0  0  0  0  0
   -0.0214    0.8078   -0.4850 H   0  0  0  0  0  0  0  0  0  0  0  0
   -1.0275    2.6758   -0.1386 C   0  0  0  0  0  0  0  0  0  0  0  0
   -1.8411    3.0634    0.4841 H   0  0  0  0  0  0  0  0  0  0  0  0
   -0.1393    3.2837    0.0663 H   0  0  0  0  0  0  0  0  0  0  0  0
   -1.3872    2.8202   -1.6249 C   0  0  0  0  0  0  0  0  0  0  0  0
   -0.5656    2.4394   -2.2409 H   0  0  0  0  0  0  0  0  0  0  0  0
   -2.2805    2.2296   -1.8521 H   0  0  0  0  0  0  0  0  0  0  0  0
   -1.6487    4.2899   -1.9708 C   0  0  0  0  0  0  0  0  0  0  0  0
   -2.4578    4.6754   -1.3421 H   0  0  0  0  0  0  0  0  0  0  0  0
   -0.7504    4.8820   -1.7664 H   0  0  0  0  0  0  0  0  0  0  0  0
   -2.0312    4.4450   -3.4398 C   0  0  0  0  0  0  0  0  0  0  0  0
   -1.2176    4.0868   -4.0804 H   0  0  0  0  0  0  0  0  0  0  0  0
   -2.9248    3.8507   -3.6605 H   0  0  0  0  0  0  0  0  0  0  0  0
   -2.2915    5.8626   -3.7062 N   0  0  0  0  0  0  0  0  0  0  0  0
   -2.5603    6.0144   -4.6785 H   0  0  0  0  0  0  0  0  0  0  0  0
   -2.9973    6.2335   -3.0701 H   0  0  0  0  0  0  0  0  0  0  0  0
   -0.0400    1.1231    1.6292 C   0  0  0  0  0  0  0  0  0  0  0  0
   -0.2728    1.9579    2.4960 O   0  0  0  0  0  0  0  0  0  0  0  0
    0.8829    0.1267    1.8822 N   0  0  0  0  0  0  0  0  0  0  0  0
    0.7807   -0.6949    1.2846 H   0  0  0  0  0  0  0  0  0  0  0  0
    1.4814   -0.0672    3.1969 C   0  0  0  0  0  0  0  0  0  0  0  0
    0.7116   -0.3145    3.9352 H   0  0  0  0  0  0  0  0  0  0  0  0
    2.2076   -0.8849    3.1628 H   0  0  0  0  0  0  0  0  0  0  0  0
    2.0016    0.8404    3.5208 H   0  0  0  0  0  0  0  0  0  0  0  0
  1  2  1  0  0  0  0
  2  3  1  0  0  0  0
  2  4  1  0  0  0  0
  2  5  1  0  0  0  0
  5  6  2  0  0  0  0
  5  7  1  0  0  0  0
  7  8  1  0  0  0  0
  7  9  1  0  0  0  0
  9 10  1  0  0  0  0
  9 11  1  0  0  0  0
  9 26  1  0  0  0  0
 11 12  1  0  0  0  0
 11 13  1  0  0  0  0
 11 14  1  0  0  0  0
 14 15  1  0  0  0  0
 14 16  1  0  0  0  0
 14 17  1  0  0  0  0
 17 18  1  0  0  0  0
 17 19  1  0  0  0  0
 17 20  1  0  0  0  0
 20 21  1  0  0  0  0
 20 22  1  0  0  0  0
 20 23  1  0  0  0  0
 23 24  1  0  0  0  0
 23 25  1  0  0  0  0
 26 27  2  0  0  0  0
 26 28  1  0  0  0  0
 28 29  1  0  0  0  0
 28 30  1  0  0  0  0
 30 31  1  0  0  0  0
 30 32  1  0  0  0  0
 30 33  1  0  0  0  0
M  END
$$$$

  -OEChem-01062216083D

 33 32  0     1  0  0  0  0  0999 V2000
   -3.3727   -2.4320    1.3216 H   0  0  0  0  0  0  0  0  0  0  0  0
   -3.4694   -1.4181    0.9234 C   0  0  0  0  0  0  0  0  0  0  0  0
   -3.9821   -0.7984    1.6630 H   0  0  0  0  0  0  0  0  0  0  0  0
   -4.0667   -1.4538    0.0092 H   0  0  0  0  0  0  0  0  0  0  0  0
   -2.0983   -0.8418    0.6260 C   0  0  0  0  0  0  0  0  0  0  0  0
   -1.1005   -1.5349    0.7591 O   0  0  0  0  0  0  0  0  0  0  0  0
   -1.9830    0.4433    0.1323 N   0  0  0  0  0  0  0  0  0  0  0  0
   -2.8433    0.9831    0.1385 H   0  0  0  0  0  0  0  0  0  0  0  0
   -0.7294    1.2127    0.2171 C   0  0  1  0  0  0  0  0  0  0  0  0
   -0.0184    0.8057   -0.5090 H   0  0  0  0  0  0  0  0  0  0  0  0
   -1.0192    2.6781   -0.1566 C   0  0  0  0  0  0  0  0  0  0  0  0
   -1.8281    3.0665    0.4716 H   0  0  0  0  0  0  0  0  0  0  0  0
   -0.1273    3.2809    0.0469 H   0  0  0  0  0  0  0  0  0  0  0  0
   -1.3884    2.8280   -1.6395 C   0  0  0  0  0  0  0  0  0  0  0  0
   -0.5727    2.4452   -2.2621 H   0  0  0  0  0  0  0  0  0  0  0  0
   -2.2857    2.2417   -1.8615 H   0  0  0  0  0  0  0  0  0  0  0  0
   -1.6453    4.2994   -1.9805 C   0  0  0  0  0  0  0  0  0  0  0  0
   -2.4483    4.6876   -1.3456 H   0  0  0  0  0  0  0  0  0  0  0  0
   -0.7429    4.8872   -1.7818 H   0  0  0  0  0  0  0  0  0  0  0  0
   -2.0374    4.4584   -3.4464 C   0  0  0  0  0  0  0  0  0  0  0  0
   -1.2305    4.0971   -4.0937 H   0  0  0  0  0  0  0  0  0  0  0  0
   -2.9355    3.8685   -3.6608 H   0  0  0  0  0  0  0  0  0  0  0  0
   -2.2930    5.8774   -3.7085 N   0  0  0  0  0  0  0  0  0  0  0  0
   -2.5716    6.0312   -4.6776 H   0  0  0  0  0  0  0  0  0  0  0  0
   -2.9908    6.2503   -3.0648 H   0  0  0  0  0  0  0  0  0  0  0  0
   -0.0558    1.1292    1.6105 C   0  0  0  0  0  0  0  0  0  0  0  0
   -0.4888    1.7970    2.5431 O   0  0  0  0  0  0  0  0  0  0  0  0
    1.0674    0.3455    1.7954 N   0  0  0  0  0  0  0  0  0  0  0  0
    1.1888   -0.3929    1.1050 H   0  0  0  0  0  0  0  0  0  0  0  0
    1.6670    0.1464    3.1088 C   0  0  0  0  0  0  0  0  0  0  0  0
    0.9590   -0.3490    3.7813 H   0  0  0  0  0  0  0  0  0  0  0  0
    2.5620   -0.4774    3.0241 H   0  0  0  0  0  0  0  0  0  0  0  0
    1.9579    1.1061    3.5485 H   0  0  0  0  0  0  0  0  0  0  0  0
  1  2  1  0  0  0  0
  2  3  1  0  0  0  0
  2  4  1  0  0  0  0
  2  5  1  0  0  0  0
  5  6  2  0  0  0  0
  5  7  1  0  0  0  0
  7  8  1  0  0  0  0
  7  9  1  0  0  0  0
  9 10  1  0  0  0  0
  9 11  1  0  0  0  0
  9 26  1  0  0  0  0
 11 12  1  0  0  0  0
 11 13  1  0  0  0  0
 11 14  1  0  0  0  0
 14 15  1  0  0  0  0
 14 16  1  0  0  0  0
 14 17  1  0  0  0  0
 17 18  1  0  0  0  0
 17 19  1  0  0  0  0
 17 20  1  0  0  0  0
 20 21  1  0  0  0  0
 20 22  1  0  0  0  0
 20 23  1  0  0  0  0
 23 24  1  0  0  0  0
 23 25  1  0  0  0  0
 26 27  2  0  0  0  0
 26 28  1  0  0  0  0
 28 29  1  0  0  0  0
 28 30  1  0  0  0  0
 30 31  1  0  0  0  0
 30 32  1  0  0  0  0
 30 33  1  0  0  0  0
M  END
$$$$

  -OEChem-01062216083D

 33 32  0     1  0  0  0  0  0999 V2000
   -3.3417   -2.4349    1.3549 H   0  0  0  0  0  0  0  0  0  0  0  0
   -3.4490   -1.4201    0.9621 C   0  0  0  0  0  0  0  0  0  0  0  0
   -3.9356   -0.8004    1.7193 H   0  0  0  0  0  0  0  0  0  0  0  0
   -4.0752   -1.4523    0.0674 H   0  0  0  0  0  0  0  0  0  0  0  0
   -2.0870   -0.8456    0.6224 C   0  0  0  0  0  0  0  0  0  0  0  0
   -1.0843   -1.5342    0.7396 O   0  0  0  0  0  0  0  0  0  0  0  0
   -1.9863    0.4351    0.1138 N   0  0  0  0  0  0  0  0  0  0  0  0
   -2.8465    0.9736    0.1530 H   0  0  0  0  0  0  0  0  0  0  0  0
   -0.7347    1.2067    0.2001 C   0  0  1  0  0  0  0  0  0  0  0  0
   -0.0208    0.7969   -0.5216 H   0  0  0  0  0  0  0  0  0  0  0  0
   -1.0217    2.6727   -0.1689 C   0  0  0  0  0  0  0  0  0  0  0  0
   -1.8311    3.0586    0.4606 H   0  0  0  0  0  0  0  0  0  0  0  0
   -0.1297    3.2738    0.0384 H   0  0  0  0  0  0  0  0  0  0  0  0
   -1.3901    2.8291   -1.6515 C   0  0  0  0  0  0  0  0  0  0  0  0
   -0.5751    2.4471   -2.2754 H   0  0  0  0  0  0  0  0  0  0  0  0
   -2.2887    2.2455   -1.8761 H   0  0  0  0  0  0  0  0  0  0  0  0
   -1.6440    4.3028   -1.9863 C   0  0  0  0  0  0  0  0  0  0  0  0
   -2.4468    4.6897   -1.3503 H   0  0  0  0  0  0  0  0  0  0  0  0
   -0.7410    4.8883   -1.7839 H   0  0  0  0  0  0  0  0  0  0  0  0
   -2.0352    4.4694   -3.4518 C   0  0  0  0  0  0  0  0  0  0  0  0
   -1.2287    4.1088   -4.1000 H   0  0  0  0  0  0  0  0  0  0  0  0
   -2.9346    3.8828   -3.6695 H   0  0  0  0  0  0  0  0  0  0  0  0
   -2.2879    5.8902   -3.7084 N   0  0  0  0  0  0  0  0  0  0  0  0
   -2.5615    6.0494   -4.6781 H   0  0  0  0  0  0  0  0  0  0  0  0
   -2.9885    6.2610   -3.0665 H   0  0  0  0  0  0  0  0  0  0  0  0
   -0.0725    1.1332    1.5980 C   0  0  0  0  0  0  0  0  0  0  0  0
   -0.6572    1.5963    2.5714 O   0  0  0  0  0  0  0  0  0  0  0  0
    1.2019    0.6186    1.7463 N   0  0  0  0  0  0  0  0  0  0  0  0
    1.5416    0.0522    0.9739 H   0  0  0  0  0  0  0  0  0  0  0  0
    1.8165    0.4287    3.0542 C   0  0  0  0  0  0  0  0  0  0  0  0
    1.2353   -0.2839    3.6489 H   0  0  0  0  0  0  0  0  0  0  0  0
    2.8333    0.0407    2.9413 H   0  0  0  0  0  0  0  0  0  0  0  0
    1.8702    1.3788    3.5963 H   0  0  0  0  0  0  0  0  0  0  0  0
  1  2  1  0  0  0  0
  2  3  1  0  0  0  0
  2  4  1  0  0  0  0
  2  5  1  0  0  0  0
  5  6  2  0  0  0  0
  5  7  1  0  0  0  0
  7  8  1  0  0  0  0
  7  9  1  0  0  0  0
  9 10  1  0  0  0  0
  9 11  1  0  0  0  0
  9 26  1  0  0  0  0
 11 12  1  0  0  0  0
 11 13  1  0  0  0  0
 11 14  1  0  0  0  0
 14 15  1  0  0  0  0
 14 16  1  0  0  0  0
 14 17  1  0  0  0  0
 17 18  1  0  0  0  0
 17 19  1  0  0  0  0
 17 20  1  0  0  0  0
 20 21  1  0  0  0  0
 20 22  1  0  0  0  0
 20 23  1  0  0  0  0
 23 24  1  0  0  0  0
 23 25  1  0  0  0  0
 26 27  2  0  0  0  0
 26 28  1  0  0  0  0
 28 29  1  0  0  0  0
 28 30  1  0  0  0  0
 30 31  1  0  0  0  0
 30 32  1  0  0  0  0
 30 33  1  0  0  0  0
M  END
$$$$

  -OEChem-01062216083D

 33 32  0     1  0  0  0  0  0999 V2000
   -3.3296   -2.4364    1.3916 H   0  0  0  0  0  0  0  0  0  0  0  0
   -3.4464   -1.4277    0.9852 C   0  0  0  0  0  0  0  0  0  0  0  0
   -3.9146   -0.7963    1.7444 H   0  0  0  0  0  0  0  0  0  0  0  0
   -4.0937   -1.4726    0.1063 H   0  0  0  0  0  0  0  0  0  0  0  0
   -2.0925   -0.8589    0.6057 C   0  0  0  0  0  0  0  0  0  0  0  0
   -1.0896   -1.5516    0.6942 O   0  0  0  0  0  0  0  0  0  0  0  0
   -1.9999    0.4209    0.0931 N   0  0  0  0  0  0  0  0  0  0  0  0
   -2.8585    0.9589    0.1592 H   0  0  0  0  0  0  0  0  0  0  0  0
   -0.7483    1.1921    0.1895 C   0  0  1  0  0  0  0  0  0  0  0  0
   -0.0315    0.7803   -0.5281 H   0  0  0  0  0  0  0  0  0  0  0  0
   -1.0302    2.6598   -0.1722 C   0  0  0  0  0  0  0  0  0  0  0  0
   -1.8423    3.0431    0.4553 H   0  0  0  0  0  0  0  0  0  0  0  0
   -0.1386    3.2590    0.0425 H   0  0  0  0  0  0  0  0  0  0  0  0
   -1.3903    2.8245   -1.6556 C   0  0  0  0  0  0  0  0  0  0  0  0
   -0.5728    2.4441   -2.2772 H   0  0  0  0  0  0  0  0  0  0  0  0
   -2.2885    2.2435   -1.8882 H   0  0  0  0  0  0  0  0  0  0  0  0
   -1.6392    4.3008   -1.9824 C   0  0  0  0  0  0  0  0  0  0  0  0
   -2.4442    4.6855   -1.3478 H   0  0  0  0  0  0  0  0  0  0  0  0
   -0.7359    4.8831   -1.7714 H   0  0  0  0  0  0  0  0  0  0  0  0
   -2.0223    4.4773   -3.4487 C   0  0  0  0  0  0  0  0  0  0  0  0
   -1.2130    4.1198   -4.0949 H   0  0  0  0  0  0  0  0  0  0  0  0
   -2.9214    3.8938   -3.6751 H   0  0  0  0  0  0  0  0  0  0  0  0
   -2.2703    5.9004   -3.6964 N   0  0  0  0  0  0  0  0  0  0  0  0
   -2.5361    6.0670   -4.6671 H   0  0  0  0  0  0  0  0  0  0  0  0
   -2.9756    6.2673   -3.0575 H   0  0  0  0  0  0  0  0  0  0  0  0
   -0.0942    1.1229    1.5913 C   0  0  0  0  0  0  0  0  0  0  0  0
   -0.7660    1.3787    2.5852 O   0  0  0  0  0  0  0  0  0  0  0  0
    1.2651    0.9070    1.7251 N   0  0  0  0  0  0  0  0  0  0  0  0
    1.7516    0.5528    0.9070 H   0  0  0  0  0  0  0  0  0  0  0  0
    1.9147    0.7823    3.0242 C   0  0  0  0  0  0  0  0  0  0  0  0
    1.5053   -0.0707    3.5758 H   0  0  0  0  0  0  0  0  0  0  0  0
    2.9906    0.6297    2.8961 H   0  0  0  0  0  0  0  0  0  0  0  0
    1.7648    1.6904    3.6177 H   0  0  0  0  0  0  0  0  0  0  0  0
  1  2  1  0  0  0  0
  2  3  1  0  0  0  0
  2  4  1  0  0  0  0
  2  5  1  0  0  0  0
  5  6  2  0  0  0  0
  5  7  1  0  0  0  0
  7  8  1  0  0  0  0
  7  9  1  0  0  0  0
  9 10  1  0  0  0  0
  9 11  1  0  0  0  0
  9 26  1  0  0  0  0
 11 12  1  0  0  0  0
 11 13  1  0  0  0  0
 11 14  1  0  0  0  0
 14 15  1  0  0  0  0
 14 16  1  0  0  0  0
 14 17  1  0  0  0  0
 17 18  1  0  0  0  0
 17 19  1  0  0  0  0
 17 20  1  0  0  0  0
 20 21  1  0  0  0  0
 20 22  1  0  0  0  0
 20 23  1  0  0  0  0
 23 24  1  0  0  0  0
 23 25  1  0  0  0  0
 26 27  2  0  0  0  0
 26 28  1  0  0  0  0
 28 29  1  0  0  0  0
 28 30  1  0  0  0  0
 30 31  1  0  0  0  0
 30 32  1  0  0  0  0
 30 33  1  0  0  0  0
M  END
$$$$

  -OEChem-01062216083D

 33 32  0     1  0  0  0  0  0999 V2000
   -3.3569   -2.4513    1.3397 H   0  0  0  0  0  0  0  0  0  0  0  0
   -3.4612   -1.4244    0.9785 C   0  0  0  0  0  0  0  0  0  0  0  0
   -3.9011   -0.8160    1.7727 H   0  0  0  0  0  0  0  0  0  0  0  0
   -4.1267   -1.4201    0.1121 H   0  0  0  0  0  0  0  0  0  0  0  0
   -2.1043   -0.8662    0.5946 C   0  0  0  0  0  0  0  0  0  0  0  0
   -1.1081   -1.5710    0.6622 O   0  0  0  0  0  0  0  0  0  0  0  0
   -2.0054    0.4149    0.0861 N   0  0  0  0  0  0  0  0  0  0  0  0
   -2.8609    0.9557    0.1647 H   0  0  0  0  0  0  0  0  0  0  0  0
   -0.7513    1.1806    0.1955 C   0  0  1  0  0  0  0  0  0  0  0  0
   -0.0309    0.7678   -0.5180 H   0  0  0  0  0  0  0  0  0  0  0  0
   -1.0347    2.6491   -0.1632 C   0  0  0  0  0  0  0  0  0  0  0  0
   -1.8508    3.0285    0.4615 H   0  0  0  0  0  0  0  0  0  0  0  0
   -0.1461    3.2506    0.0566 H   0  0  0  0  0  0  0  0  0  0  0  0
   -1.3864    2.8173   -1.6487 C   0  0  0  0  0  0  0  0  0  0  0  0
   -0.5637    2.4405   -2.2658 H   0  0  0  0  0  0  0  0  0  0  0  0
   -2.2817    2.2347   -1.8889 H   0  0  0  0  0  0  0  0  0  0  0  0
   -1.6377    4.2935   -1.9745 C   0  0  0  0  0  0  0  0  0  0  0  0
   -2.4481    4.6743   -1.3448 H   0  0  0  0  0  0  0  0  0  0  0  0
   -0.7377    4.8782   -1.7570 H   0  0  0  0  0  0  0  0  0  0  0  0
   -2.0123    4.4722   -3.4430 C   0  0  0  0  0  0  0  0  0  0  0  0
   -1.1979    4.1178   -4.0847 H   0  0  0  0  0  0  0  0  0  0  0  0
   -2.9088    3.8869   -3.6760 H   0  0  0  0  0  0  0  0  0  0  0  0
   -2.2631    5.8951   -3.6904 N   0  0  0  0  0  0  0  0  0  0  0  0
   -2.5203    6.0626   -4.6634 H   0  0  0  0  0  0  0  0  0  0  0  0
   -2.9760    6.2585   -3.0578 H   0  0  0  0  0  0  0  0  0  0  0  0
   -0.0988    1.1124    1.5992 C   0  0  0  0  0  0  0  0  0  0  0  0
   -0.8026    1.1641    2.6027 O   0  0  0  0  0  0  0  0  0  0  0  0
    1.2747    1.2043    1.7351 N   0  0  0  0  0  0  0  0  0  0  0  0
    1.8311    1.0787    0.8951 H   0  0  0  0  0  0  0  0  0  0  0  0
    1.9450    1.1556    3.0287 C   0  0  0  0  0  0  0  0  0  0  0  0
    1.7348    0.2062    3.5323 H   0  0  0  0  0  0  0  0  0  0  0  0
    3.0273    1.2472    2.8974 H   0  0  0  0  0  0  0  0  0  0  0  0
    1.6051    1.9768    3.6684 H   0  0  0  0  0  0  0  0  0  0  0  0
  1  2  1  0  0  0  0
  2  3  1  0  0  0  0
  2  4  1  0  0  0  0
  2  5  1  0  0  0  0
  5  6  2  0  0  0  0
  5  7  1  0  0  0  0
  7  8  1  0  0  0  0
  7  9  1  0  0  0  0
  9 10  1  0  0  0  0
  9 11  1  0  0  0  0
  9 26  1  0  0  0  0
 11 12  1  0  0  0  0
 11 13  1  0  0  0  0
 11 14  1  0  0  0  0
 14 15  1  0  0  0  0
 14 16  1  0  0  0  0
 14 17  1  0  0  0  0
 17 18  1  0  0  0  0
 17 19  1  0  0  0  0
 17 20  1  0  0  0  0
 20 21  1  0  0  0  0
 20 22  1  0  0  0  0
 20 23  1  0  0  0  0
 23 24  1  0  0  0  0
 23 25  1  0  0  0  0
 26 27  2  0  0  0  0
 26 28  1  0  0  0  0
 28 29  1  0  0  0  0
 28 30  1  0  0  0  0
 30 31  1  0  0  0  0
 30 32  1  0  0  0  0
 30 33  1  0  0  0  0
M  END
$$$$

  -OEChem-01062216083D

 33 32  0     1  0  0  0  0  0999 V2000
   -3.3696   -2.4515    1.3383 H   0  0  0  0  0  0  0  0  0  0  0  0
   -3.4724   -1.4238    0.9792 C   0  0  0  0  0  0  0  0  0  0  0  0
   -3.8913   -0.8121    1.7820 H   0  0  0  0  0  0  0  0  0  0  0  0
   -4.1539   -1.4143    0.1255 H   0  0  0  0  0  0  0  0  0  0  0  0
   -2.1179   -0.8776    0.5702 C   0  0  0  0  0  0  0  0  0  0  0  0
   -1.1318   -1.5991    0.5939 O   0  0  0  0  0  0  0  0  0  0  0  0
   -2.0117    0.4083    0.0740 N   0  0  0  0  0  0  0  0  0  0  0  0
   -2.8628    0.9529    0.1693 H   0  0  0  0  0  0  0  0  0  0  0  0
   -0.7526    1.1660    0.1984 C   0  0  1  0  0  0  0  0  0  0  0  0
   -0.0310    0.7555   -0.5155 H   0  0  0  0  0  0  0  0  0  0  0  0
   -1.0379    2.6362   -0.1554 C   0  0  0  0  0  0  0  0  0  0  0  0
   -1.8589    3.0099    0.4662 H   0  0  0  0  0  0  0  0  0  0  0  0
   -0.1539    3.2420    0.0700 H   0  0  0  0  0  0  0  0  0  0  0  0
   -1.3811    2.8099   -1.6422 C   0  0  0  0  0  0  0  0  0  0  0  0
   -0.5538    2.4382   -2.2562 H   0  0  0  0  0  0  0  0  0  0  0  0
   -2.2736    2.2264   -1.8906 H   0  0  0  0  0  0  0  0  0  0  0  0
   -1.6341    4.2868   -1.9628 C   0  0  0  0  0  0  0  0  0  0  0  0
   -2.4487    4.6637   -1.3357 H   0  0  0  0  0  0  0  0  0  0  0  0
   -0.7363    4.8725   -1.7385 H   0  0  0  0  0  0  0  0  0  0  0  0
   -2.0003    4.4701   -3.4326 C   0  0  0  0  0  0  0  0  0  0  0  0
   -1.1808    4.1207   -4.0707 H   0  0  0  0  0  0  0  0  0  0  0  0
   -2.8935    3.8831   -3.6738 H   0  0  0  0  0  0  0  0  0  0  0  0
   -2.2531    5.8935   -3.6738 N   0  0  0  0  0  0  0  0  0  0  0  0
   -2.5002    6.0660   -4.6484 H   0  0  0  0  0  0  0  0  0  0  0  0
   -2.9745    6.2503   -3.0470 H   0  0  0  0  0  0  0  0  0  0  0  0
   -0.0942    1.0914    1.6016 C   0  0  0  0  0  0  0  0  0  0  0  0
   -0.7864    0.9387    2.6031 O   0  0  0  0  0  0  0  0  0  0  0  0
    1.2229    1.4832    1.7672 N   0  0  0  0  0  0  0  0  0  0  0  0
    1.7851    1.5959    0.9293 H   0  0  0  0  0  0  0  0  0  0  0  0
    1.8834    1.5284    3.0664 C   0  0  0  0  0  0  0  0  0  0  0  0
    1.8760    0.5382    3.5342 H   0  0  0  0  0  0  0  0  0  0  0  0
    2.9230    1.8496    2.9511 H   0  0  0  0  0  0  0  0  0  0  0  0
    1.3755    2.2353    3.7310 H   0  0  0  0  0  0  0  0  0  0  0  0
  1  2  1  0  0  0  0
  2  3  1  0  0  0  0
  2  4  1  0  0  0  0
  2  5  1  0  0  0  0
  5  6  2  0  0  0  0
  5  7  1  0  0  0  0
  7  8  1  0  0  0  0
  7  9  1  0  0  0  0
  9 10  1  0  0  0  0
  9 11  1  0  0  0  0
  9 26  1  0  0  0  0
 11 12  1  0  0  0  0
 11 13  1  0  0  0  0
 11 14  1  0  0  0  0
 14 15  1  0  0  0  0
 14 16  1  0  0  0  0
 14 17  1  0  0  0  0
 17 18  1  0  0  0  0
 17 19  1  0  0  0  0
 17 20  1  0  0  0  0
 20 21  1  0  0  0  0
 20 22  1  0  0  0  0
 20 23  1  0  0  0  0
 23 24  1  0  0  0  0
 23 25  1  0  0  0  0
 26 27  2  0  0  0  0
 26 28  1  0  0  0  0
 28 29  1  0  0  0  0
 28 30  1  0  0  0  0
 30 31  1  0  0  0  0
 30 32  1  0  0  0  0
 30 33  1  0  0  0  0
M  END
$$$$

  -OEChem-01062216083D

 33 32  0     1  0  0  0  0  0999 V2000
   -3.4757   -2.4298    1.2109 H   0  0  0  0  0  0  0  0  0  0  0  0
   -3.5240   -1.3714    0.9398 C   0  0  0  0  0  0  0  0  0  0  0  0
   -3.8314   -0.7990    1.8183 H   0  0  0  0  0  0  0  0  0  0  0  0
   -4.2642   -1.2421    0.1470 H   0  0  0  0  0  0  0  0  0  0  0  0
   -2.1647   -0.8939    0.4663 C   0  0  0  0  0  0  0  0  0  0  0  0
   -1.2560   -1.6940    0.3045 O   0  0  0  0  0  0  0  0  0  0  0  0
   -1.9991    0.4082    0.0324 N   0  0  0  0  0  0  0  0  0  0  0  0
   -2.8338    0.9714    0.1552 H   0  0  0  0  0  0  0  0  0  0  0  0
   -0.7283    1.1432    0.2093 C   0  0  1  0  0  0  0  0  0  0  0  0
   -0.1020    0.9390   -0.6646 H   0  0  0  0  0  0  0  0  0  0  0  0
   -1.0810    2.6450    0.2436 C   0  0  0  0  0  0  0  0  0  0  0  0
   -1.8376    2.8246    1.0151 H   0  0  0  0  0  0  0  0  0  0  0  0
   -0.1960    3.2294    0.5141 H   0  0  0  0  0  0  0  0  0  0  0  0
   -1.5841    3.1488   -1.1177 C   0  0  0  0  0  0  0  0  0  0  0  0
   -0.8198    2.9696   -1.8814 H   0  0  0  0  0  0  0  0  0  0  0  0
   -2.4867    2.6025   -1.4102 H   0  0  0  0  0  0  0  0  0  0  0  0
   -1.8987    4.6469   -1.0480 C   0  0  0  0  0  0  0  0  0  0  0  0
   -2.6496    4.8277   -0.2721 H   0  0  0  0  0  0  0  0  0  0  0  0
   -0.9943    5.2026   -0.7789 H   0  0  0  0  0  0  0  0  0  0  0  0
   -2.4228    5.1561   -2.3875 C   0  0  0  0  0  0  0  0  0  0  0  0
   -1.6686    5.0045   -3.1678 H   0  0  0  0  0  0  0  0  0  0  0  0
   -3.3248    4.6035   -2.6732 H   0  0  0  0  0  0  0  0  0  0  0  0
   -2.7282    6.5836   -2.2562 N   0  0  0  0  0  0  0  0  0  0  0  0
   -3.0683    6.9720   -3.1362 H   0  0  0  0  0  0  0  0  0  0  0  0
   -3.3958    6.7497   -1.5031 H   0  0  0  0  0  0  0  0  0  0  0  0
    0.1409    0.7812    1.4512 C   0  0  0  0  0  0  0  0  0  0  0  0
   -0.3579    0.2515    2.4382 O   0  0  0  0  0  0  0  0  0  0  0  0
    1.3429    1.4419    1.6494 N   0  0  0  0  0  0  0  0  0  0  0  0
    1.7378    1.9405    0.8583 H   0  0  0  0  0  0  0  0  0  0  0  0
    2.1285    1.3377    2.8740 C   0  0  0  0  0  0  0  0  0  0  0  0
    2.3750    0.2913    3.0836 H   0  0  0  0  0  0  0  0  0  0  0  0
    3.0624    1.8989    2.7736 H   0  0  0  0  0  0  0  0  0  0  0  0
    1.5700    1.7453    3.7231 H   0  0  0  0  0  0  0  0  0  0  0  0
  1  2  1  0  0  0  0
  2  3  1  0  0  0  0
  2  4  1  0  0  0  0
  2  5  1  0  0  0  0
  5  6  2  0  0  0  0
  5  7  1  0  0  0  0
  7  8  1  0  0  0  0
  7  9  1  0  0  0  0
  9 10  1  0  0  0  0
  9 11  1  0  0  0  0
  9 26  1  0  0  0  0
 11 12  1  0  0  0  0
 11 13  1  0  0  0  0
 11 14  1  0  0  0  0
 14 15  1  0  0  0  0
 14 16  1  0  0  0  0
 14 17  1  0  0  0  0
 17 18  1  0  0  0  0
 17 19  1  0  0  0  0
 17 20  1  0  0  0  0
 20 21  1  0  0  0  0
 20 22  1  0  0  0  0
 20 23  1  0  0  0  0
 23 24  1  0  0  0  0
 23 25  1  0  0  0  0
 26 27  2  0  0  0  0
 26 28  1  0  0  0  0
 28 29  1  0  0  0  0
 28 30  1  0  0  0  0
 30 31  1  0  0  0  0
 30 32  1  0  0  0  0
 30 33  1  0  0  0  0
M  END
$$$$

  -OEChem-01062216083D

 33 32  0     1  0  0  0  0  0999 V2000
   -3.4794   -2.3966    1.2167 H   0  0  0  0  0  0  0  0  0  0  0  0
   -3.5208   -1.3374    0.9472 C   0  0  0  0  0  0  0  0  0  0  0  0
   -3.8006   -0.7625    1.8332 H   0  0  0  0  0  0  0  0  0  0  0  0
   -4.2781   -1.1976    0.1725 H   0  0  0  0  0  0  0  0  0  0  0  0
   -2.1667   -0.8775    0.4412 C   0  0  0  0  0  0  0  0  0  0  0  0
   -1.2974   -1.6969    0.1885 O   0  0  0  0  0  0  0  0  0  0  0  0
   -1.9840    0.4329    0.0421 N   0  0  0  0  0  0  0  0  0  0  0  0
   -2.8142    0.9983    0.1818 H   0  0  0  0  0  0  0  0  0  0  0  0
   -0.7114    1.1639    0.2339 C   0  0  1  0  0  0  0  0  0  0  0  0
   -0.0856    0.9684   -0.6424 H   0  0  0  0  0  0  0  0  0  0  0  0
   -1.0886    2.6637    0.2583 C   0  0  0  0  0  0  0  0  0  0  0  0
   -1.8564    2.8350    1.0204 H   0  0  0  0  0  0  0  0  0  0  0  0
   -0.2200    3.2703    0.5299 H   0  0  0  0  0  0  0  0  0  0  0  0
   -1.5819    3.1540   -1.1124 C   0  0  0  0  0  0  0  0  0  0  0  0
   -0.8044    2.9836   -1.8648 H   0  0  0  0  0  0  0  0  0  0  0  0
   -2.4713    2.5927   -1.4161 H   0  0  0  0  0  0  0  0  0  0  0  0
   -1.9214    4.6474   -1.0551 C   0  0  0  0  0  0  0  0  0  0  0  0
   -2.6862    4.8200   -0.2907 H   0  0  0  0  0  0  0  0  0  0  0  0
   -1.0301    5.2196   -0.7767 H   0  0  0  0  0  0  0  0  0  0  0  0
   -2.4356    5.1406   -2.4046 C   0  0  0  0  0  0  0  0  0  0  0  0
   -1.6680    4.9979   -3.1733 H   0  0  0  0  0  0  0  0  0  0  0  0
   -3.3240    4.5716   -2.7008 H   0  0  0  0  0  0  0  0  0  0  0  0
   -2.7657    6.5636   -2.2861 N   0  0  0  0  0  0  0  0  0  0  0  0
   -3.0874    6.9443   -3.1763 H   0  0  0  0  0  0  0  0  0  0  0  0
   -3.4559    6.7221   -1.5521 H   0  0  0  0  0  0  0  0  0  0  0  0
    0.1808    0.7929    1.4647 C   0  0  0  0  0  0  0  0  0  0  0  0
   -0.1949    0.0111    2.3292 O   0  0  0  0  0  0  0  0  0  0  0  0
    1.2066    1.6460    1.8440 N   0  0  0  0  0  0  0  0  0  0  0  0
    1.4993    2.3491    1.1732 H   0  0  0  0  0  0  0  0  0  0  0  0
    1.9609    1.5102    3.0859 C   0  0  0  0  0  0  0  0  0  0  0  0
    2.4265    0.5208    3.1459 H   0  0  0  0  0  0  0  0  0  0  0  0
    2.7501    2.2666    3.1340 H   0  0  0  0  0  0  0  0  0  0  0  0
    1.3024    1.6430    3.9507 H   0  0  0  0  0  0  0  0  0  0  0  0
  1  2  1  0  0  0  0
  2  3  1  0  0  0  0
  2  4  1  0  0  0  0
  2  5  1  0  0  0  0
  5  6  2  0  0  0  0
  5  7  1  0  0  0  0
  7  8  1  0  0  0  0
  7  9  1  0  0  0  0
  9 10  1  0  0  0  0
  9 11  1  0  0  0  0
  9 26  1  0  0  0  0
 11 12  1  0  0  0  0
 11 13  1  0  0  0  0
 11 14  1  0  0  0  0
 14 15  1  0  0  0  0
 14 16  1  0  0  0  0
 14 17  1  0  0  0  0
 17 18  1  0  0  0  0
 17 19  1  0  0  0  0
 17 20  1  0  0  0  0
 20 21  1  0  0  0  0
 20 22  1  0  0  0  0
 20 23  1  0  0  0  0
 23 24  1  0  0  0  0
 23 25  1  0  0  0  0
 26 27  2  0  0  0  0
 26 28  1  0  0  0  0
 28 29  1  0  0  0  0
 28 30  1  0  0  0  0
 30 31  1  0  0  0  0
 30 32  1  0  0  0  0
 30 33  1  0  0  0  0
M  END
$$$$

  -OEChem-01062216083D

 33 32  0     1  0  0  0  0  0999 V2000
   -3.4483   -2.3883    1.2104 H   0  0  0  0  0  0  0  0  0  0  0  0
   -3.4818   -1.3168    0.9945 C   0  0  0  0  0  0  0  0  0  0  0  0
   -3.6809   -0.7800    1.9248 H   0  0  0  0  0  0  0  0  0  0  0  0
   -4.2894   -1.1227    0.2850 H   0  0  0  0  0  0  0  0  0  0  0  0
   -2.1558   -0.8646    0.4135 C   0  0  0  0  0  0  0  0  0  0  0  0
   -1.3363   -1.6919    0.0497 O   0  0  0  0  0  0  0  0  0  0  0  0
   -1.9753    0.4547    0.0455 N   0  0  0  0  0  0  0  0  0  0  0  0
   -2.8088    1.0089    0.2086 H   0  0  0  0  0  0  0  0  0  0  0  0
   -0.7149    1.2025    0.2603 C   0  0  1  0  0  0  0  0  0  0  0  0
   -0.0766    1.0164   -0.6094 H   0  0  0  0  0  0  0  0  0  0  0  0
   -1.1152    2.6975    0.2624 C   0  0  0  0  0  0  0  0  0  0  0  0
   -1.8994    2.8675    1.0082 H   0  0  0  0  0  0  0  0  0  0  0  0
   -0.2605    3.3215    0.5357 H   0  0  0  0  0  0  0  0  0  0  0  0
   -1.5846    3.1677   -1.1238 C   0  0  0  0  0  0  0  0  0  0  0  0
   -0.7883    3.0034   -1.8580 H   0  0  0  0  0  0  0  0  0  0  0  0
   -2.4591    2.5912   -1.4426 H   0  0  0  0  0  0  0  0  0  0  0  0
   -1.9468    4.6561   -1.0832 C   0  0  0  0  0  0  0  0  0  0  0  0
   -2.7298    4.8217   -0.3362 H   0  0  0  0  0  0  0  0  0  0  0  0
   -1.0699    5.2422   -0.7891 H   0  0  0  0  0  0  0  0  0  0  0  0
   -2.4387    5.1368   -2.4452 C   0  0  0  0  0  0  0  0  0  0  0  0
   -1.6534    5.0023   -3.1975 H   0  0  0  0  0  0  0  0  0  0  0  0
   -3.3126    4.5548   -2.7581 H   0  0  0  0  0  0  0  0  0  0  0  0
   -2.7902    6.5555   -2.3355 N   0  0  0  0  0  0  0  0  0  0  0  0
   -3.0981    6.9308   -3.2329 H   0  0  0  0  0  0  0  0  0  0  0  0
   -3.4985    6.7050   -1.6169 H   0  0  0  0  0  0  0  0  0  0  0  0
    0.1831    0.8303    1.4910 C   0  0  0  0  0  0  0  0  0  0  0  0
    0.0471   -0.2022    2.1307 O   0  0  0  0  0  0  0  0  0  0  0  0
    0.9745    1.7963    2.0958 N   0  0  0  0  0  0  0  0  0  0  0  0
    1.0869    2.6796    1.6095 H   0  0  0  0  0  0  0  0  0  0  0  0
    1.7367    1.5753    3.3210 C   0  0  0  0  0  0  0  0  0  0  0  0
    2.4425    0.7485    3.1891 H   0  0  0  0  0  0  0  0  0  0  0  0
    2.3032    2.4746    3.5815 H   0  0  0  0  0  0  0  0  0  0  0  0
    1.0655    1.3370    4.1530 H   0  0  0  0  0  0  0  0  0  0  0  0
  1  2  1  0  0  0  0
  2  3  1  0  0  0  0
  2  4  1  0  0  0  0
  2  5  1  0  0  0  0
  5  6  2  0  0  0  0
  5  7  1  0  0  0  0
  7  8  1  0  0  0  0
  7  9  1  0  0  0  0
  9 10  1  0  0  0  0
  9 11  1  0  0  0  0
  9 26  1  0  0  0  0
 11 12  1  0  0  0  0
 11 13  1  0  0  0  0
 11 14  1  0  0  0  0
 14 15  1  0  0  0  0
 14 16  1  0  0  0  0
 14 17  1  0  0  0  0
 17 18  1  0  0  0  0
 17 19  1  0  0  0  0
 17 20  1  0  0  0  0
 20 21  1  0  0  0  0
 20 22  1  0  0  0  0
 20 23  1  0  0  0  0
 23 24  1  0  0  0  0
 23 25  1  0  0  0  0
 26 27  2  0  0  0  0
 26 28  1  0  0  0  0
 28 29  1  0  0  0  0
 28 30  1  0  0  0  0
 30 31  1  0  0  0  0
 30 32  1  0  0  0  0
 30 33  1  0  0  0  0
M  END
$$$$

  -OEChem-01062216083D

 33 32  0     1  0  0  0  0  0999 V2000
   -3.4480   -2.3881    1.1875 H   0  0  0  0  0  0  0  0  0  0  0  0
   -3.4684   -1.3091    1.0102 C   0  0  0  0  0  0  0  0  0  0  0  0
   -3.6443   -0.8022    1.9617 H   0  0  0  0  0  0  0  0  0  0  0  0
   -4.2847   -1.0794    0.3216 H   0  0  0  0  0  0  0  0  0  0  0  0
   -2.1455   -0.8563    0.4217 C   0  0  0  0  0  0  0  0  0  0  0  0
   -1.3436   -1.6882    0.0351 O   0  0  0  0  0  0  0  0  0  0  0  0
   -1.9722    0.4668    0.0636 N   0  0  0  0  0  0  0  0  0  0  0  0
   -2.8160    1.0097    0.2109 H   0  0  0  0  0  0  0  0  0  0  0  0
   -0.7276    1.2367    0.2889 C   0  0  1  0  0  0  0  0  0  0  0  0
   -0.0756    1.0536   -0.5718 H   0  0  0  0  0  0  0  0  0  0  0  0
   -1.1351    2.7283    0.2741 C   0  0  0  0  0  0  0  0  0  0  0  0
   -1.9274    2.9046    1.0096 H   0  0  0  0  0  0  0  0  0  0  0  0
   -0.2794    3.3524    0.5471 H   0  0  0  0  0  0  0  0  0  0  0  0
   -1.5877    3.1831   -1.1224 C   0  0  0  0  0  0  0  0  0  0  0  0
   -0.7799    3.0165   -1.8433 H   0  0  0  0  0  0  0  0  0  0  0  0
   -2.4540    2.5978   -1.4474 H   0  0  0  0  0  0  0  0  0  0  0  0
   -1.9590    4.6694   -1.1024 C   0  0  0  0  0  0  0  0  0  0  0  0
   -2.7540    4.8381   -0.3689 H   0  0  0  0  0  0  0  0  0  0  0  0
   -1.0898    5.2639   -0.8019 H   0  0  0  0  0  0  0  0  0  0  0  0
   -2.4340    5.1319   -2.4765 C   0  0  0  0  0  0  0  0  0  0  0  0
   -1.6363    4.9946   -3.2152 H   0  0  0  0  0  0  0  0  0  0  0  0
   -3.2994    4.5410   -2.7965 H   0  0  0  0  0  0  0  0  0  0  0  0
   -2.7955    6.5494   -2.3871 N   0  0  0  0  0  0  0  0  0  0  0  0
   -3.0877    6.9144   -3.2940 H   0  0  0  0  0  0  0  0  0  0  0  0
   -3.5184    6.7015   -1.6839 H   0  0  0  0  0  0  0  0  0  0  0  0
    0.1572    0.8649    1.5270 C   0  0  0  0  0  0  0  0  0  0  0  0
    0.3723   -0.2845    1.8759 O   0  0  0  0  0  0  0  0  0  0  0  0
    0.6815    1.8520    2.3489 N   0  0  0  0  0  0  0  0  0  0  0  0
    0.5180    2.8182    2.0870 H   0  0  0  0  0  0  0  0  0  0  0  0
    1.4870    1.5773    3.5345 C   0  0  0  0  0  0  0  0  0  0  0  0
    2.3795    1.0017    3.2669 H   0  0  0  0  0  0  0  0  0  0  0  0
    1.8073    2.5143    4.0000 H   0  0  0  0  0  0  0  0  0  0  0  0
    0.9068    1.0073    4.2678 H   0  0  0  0  0  0  0  0  0  0  0  0
  1  2  1  0  0  0  0
  2  3  1  0  0  0  0
  2  4  1  0  0  0  0
  2  5  1  0  0  0  0
  5  6  2  0  0  0  0
  5  7  1  0  0  0  0
  7  8  1  0  0  0  0
  7  9  1  0  0  0  0
  9 10  1  0  0  0  0
  9 11  1  0  0  0  0
  9 26  1  0  0  0  0
 11 12  1  0  0  0  0
 11 13  1  0  0  0  0
 11 14  1  0  0  0  0
 14 15  1  0  0  0  0
 14 16  1  0  0  0  0
 14 17  1  0  0  0  0
 17 18  1  0  0  0  0
 17 19  1  0  0  0  0
 17 20  1  0  0  0  0
 20 21  1  0  0  0  0
 20 22  1  0  0  0  0
 20 23  1  0  0  0  0
 23 24  1  0  0  0  0
 23 25  1  0  0  0  0
 26 27  2  0  0  0  0
 26 28  1  0  0  0  0
 28 29  1  0  0  0  0
 28 30  1  0  0  0  0
 30 31  1  0  0  0  0
 30 32  1  0  0  0  0
 30 33  1  0  0  0  0
M  END
$$$$

  -OEChem-01062216083D

 33 32  0     1  0  0  0  0  0999 V2000
   -3.8005   -2.4033    0.7861 H   0  0  0  0  0  0  0  0  0  0  0  0
   -3.7149   -1.3820    0.4037 C   0  0  0  0  0  0  0  0  0  0  0  0
   -4.5580   -0.7951    0.7756 H   0  0  0  0  0  0  0  0  0  0  0  0
   -3.7523   -1.4141   -0.6876 H   0  0  0  0  0  0  0  0  0  0  0  0
   -2.4083   -0.7603    0.8619 C   0  0  0  0  0  0  0  0  0  0  0  0
   -1.7337   -1.3636    1.6720 O   0  0  0  0  0  0  0  0  0  0  0  0
   -2.0910    0.5083    0.4072 N   0  0  0  0  0  0  0  0  0  0  0  0
   -2.7647    0.8878   -0.2491 H   0  0  0  0  0  0  0  0  0  0  0  0
   -0.7961    1.2251    0.4842 C   0  0  1  0  0  0  0  0  0  0  0  0
   -0.2148    0.9488   -0.4021 H   0  0  0  0  0  0  0  0  0  0  0  0
   -1.1186    2.7340    0.3949 C   0  0  0  0  0  0  0  0  0  0  0  0
   -1.8450    3.0021    1.1696 H   0  0  0  0  0  0  0  0  0  0  0  0
   -0.2068    3.3144    0.5724 H   0  0  0  0  0  0  0  0  0  0  0  0
   -1.6523    3.1322   -0.9905 C   0  0  0  0  0  0  0  0  0  0  0  0
   -0.9140    2.8724   -1.7568 H   0  0  0  0  0  0  0  0  0  0  0  0
   -2.5744    2.5865   -1.2121 H   0  0  0  0  0  0  0  0  0  0  0  0
   -1.9340    4.6380   -1.0401 C   0  0  0  0  0  0  0  0  0  0  0  0
   -2.6577    4.9013   -0.2618 H   0  0  0  0  0  0  0  0  0  0  0  0
   -1.0109    5.1937   -0.8440 H   0  0  0  0  0  0  0  0  0  0  0  0
   -2.4877    5.0461   -2.4023 C   0  0  0  0  0  0  0  0  0  0  0  0
   -1.7593    4.8139   -3.1872 H   0  0  0  0  0  0  0  0  0  0  0  0
   -3.4086    4.4928   -2.6176 H   0  0  0  0  0  0  0  0  0  0  0  0
   -2.7586    6.4862   -2.3811 N   0  0  0  0  0  0  0  0  0  0  0  0
   -3.1075    6.8115   -3.2830 H   0  0  0  0  0  0  0  0  0  0  0  0
   -3.4055    6.7296   -1.6309 H   0  0  0  0  0  0  0  0  0  0  0  0
    0.1495    0.9047    1.6801 C   0  0  0  0  0  0  0  0  0  0  0  0
    0.8836   -0.0713    1.6020 O   0  0  0  0  0  0  0  0  0  0  0  0
    0.5351    1.8849    2.5828 N   0  0  0  0  0  0  0  0  0  0  0  0
   -0.0373    2.7210    2.6312 H   0  0  0  0  0  0  0  0  0  0  0  0
    1.5737    1.6873    3.5881 C   0  0  0  0  0  0  0  0  0  0  0  0
    2.5482    1.5479    3.1088 H   0  0  0  0  0  0  0  0  0  0  0  0
    1.6341    2.5584    4.2473 H   0  0  0  0  0  0  0  0  0  0  0  0
    1.3526    0.8060    4.1996 H   0  0  0  0  0  0  0  0  0  0  0  0
  1  2  1  0  0  0  0
  2  3  1  0  0  0  0
  2  4  1  0  0  0  0
  2  5  1  0  0  0  0
  5  6  2  0  0  0  0
  5  7  1  0  0  0  0
  7  8  1  0  0  0  0
  7  9  1  0  0  0  0
  9 10  1  0  0  0  0
  9 11  1  0  0  0  0
  9 26  1  0  0  0  0
 11 12  1  0  0  0  0
 11 13  1  0  0  0  0
 11 14  1  0  0  0  0
 14 15  1  0  0  0  0
 14 16  1  0  0  0  0
 14 17  1  0  0  0  0
 17 18  1  0  0  0  0
 17 19  1  0  0  0  0
 17 20  1  0  0  0  0
 20 21  1  0  0  0  0
 20 22  1  0  0  0  0
 20 23  1  0  0  0  0
 23 24  1  0  0  0  0
 23 25  1  0  0  0  0
 26 27  2  0  0  0  0
 26 28  1  0  0  0  0
 28 29  1  0  0  0  0
 28 30  1  0  0  0  0
 30 31  1  0  0  0  0
 30 32  1  0  0  0  0
 30 33  1  0  0  0  0
M  END
$$$$

  -OEChem-01062216083D

 33 32  0     1  0  0  0  0  0999 V2000
   -3.7689   -2.4214    0.8296 H   0  0  0  0  0  0  0  0  0  0  0  0
   -3.7040   -1.4006    0.4416 C   0  0  0  0  0  0  0  0  0  0  0  0
   -4.5302   -0.8149    0.8515 H   0  0  0  0  0  0  0  0  0  0  0  0
   -3.7920   -1.4348   -0.6469 H   0  0  0  0  0  0  0  0  0  0  0  0
   -2.3795   -0.7747    0.8369 C   0  0  0  0  0  0  0  0  0  0  0  0
   -1.6495   -1.3845    1.5932 O   0  0  0  0  0  0  0  0  0  0  0  0
   -2.0852    0.4959    0.3738 N   0  0  0  0  0  0  0  0  0  0  0  0
   -2.7796    0.8836   -0.2559 H   0  0  0  0  0  0  0  0  0  0  0  0
   -0.7956    1.2192    0.4472 C   0  0  1  0  0  0  0  0  0  0  0  0
   -0.2152    0.9481   -0.4414 H   0  0  0  0  0  0  0  0  0  0  0  0
   -1.1105    2.7283    0.3727 C   0  0  0  0  0  0  0  0  0  0  0  0
   -1.8354    2.9928    1.1499 H   0  0  0  0  0  0  0  0  0  0  0  0
   -0.1937    3.2983    0.5599 H   0  0  0  0  0  0  0  0  0  0  0  0
   -1.6499    3.1391   -1.0060 C   0  0  0  0  0  0  0  0  0  0  0  0
   -0.9169    2.8815   -1.7784 H   0  0  0  0  0  0  0  0  0  0  0  0
   -2.5760    2.5987   -1.2247 H   0  0  0  0  0  0  0  0  0  0  0  0
   -1.9249    4.6460   -1.0430 C   0  0  0  0  0  0  0  0  0  0  0  0
   -2.6431    4.9069   -0.2589 H   0  0  0  0  0  0  0  0  0  0  0  0
   -0.9978    5.1957   -0.8485 H   0  0  0  0  0  0  0  0  0  0  0  0
   -2.4840    5.0648   -2.3996 C   0  0  0  0  0  0  0  0  0  0  0  0
   -1.7604    4.8345   -3.1896 H   0  0  0  0  0  0  0  0  0  0  0  0
   -3.4081    4.5164   -2.6133 H   0  0  0  0  0  0  0  0  0  0  0  0
   -2.7492    6.5057   -2.3690 N   0  0  0  0  0  0  0  0  0  0  0  0
   -3.0946    6.8386   -3.2695 H   0  0  0  0  0  0  0  0  0  0  0  0
   -3.3967    6.7464   -1.6186 H   0  0  0  0  0  0  0  0  0  0  0  0
    0.1424    0.8994    1.6454 C   0  0  0  0  0  0  0  0  0  0  0  0
    1.0208    0.0594    1.4975 O   0  0  0  0  0  0  0  0  0  0  0  0
    0.2784    1.7780    2.7090 N   0  0  0  0  0  0  0  0  0  0  0  0
   -0.4525    2.4711    2.8301 H   0  0  0  0  0  0  0  0  0  0  0  0
    1.2471    1.5851    3.7818 C   0  0  0  0  0  0  0  0  0  0  0  0
    2.2682    1.6224    3.3876 H   0  0  0  0  0  0  0  0  0  0  0  0
    1.1398    2.3713    4.5350 H   0  0  0  0  0  0  0  0  0  0  0  0
    1.0919    0.6157    4.2673 H   0  0  0  0  0  0  0  0  0  0  0  0
  1  2  1  0  0  0  0
  2  3  1  0  0  0  0
  2  4  1  0  0  0  0
  2  5  1  0  0  0  0
  5  6  2  0  0  0  0
  5  7  1  0  0  0  0
  7  8  1  0  0  0  0
  7  9  1  0  0  0  0
  9 10  1  0  0  0  0
  9 11  1  0  0  0  0
  9 26  1  0  0  0  0
 11 12  1  0  0  0  0
 11 13  1  0  0  0  0
 11 14  1  0  0  0  0
 14 15  1  0  0  0  0
 14 16  1  0  0  0  0
 14 17  1  0  0  0  0
 17 18  1  0  0  0  0
 17 19  1  0  0  0  0
 17 20  1  0  0  0  0
 20 21  1  0  0  0  0
 20 22  1  0  0  0  0
 20 23  1  0  0  0  0
 23 24  1  0  0  0  0
 23 25  1  0  0  0  0
 26 27  2  0  0  0  0
 26 28  1  0  0  0  0
 28 29  1  0  0  0  0
 28 30  1  0  0  0  0
 30 31  1  0  0  0  0
 30 32  1  0  0  0  0
 30 33  1  0  0  0  0
M  END
$$$$

  -OEChem-01062216083D

 33 32  0     1  0  0  0  0  0999 V2000
   -3.7435   -2.4276    0.8788 H   0  0  0  0  0  0  0  0  0  0  0  0
   -3.6902   -1.4112    0.4783 C   0  0  0  0  0  0  0  0  0  0  0  0
   -4.4996   -0.8193    0.9123 H   0  0  0  0  0  0  0  0  0  0  0  0
   -3.8184   -1.4556   -0.6058 H   0  0  0  0  0  0  0  0  0  0  0  0
   -2.3498   -0.7858    0.8179 C   0  0  0  0  0  0  0  0  0  0  0  0
   -1.5782   -1.4011    1.5283 O   0  0  0  0  0  0  0  0  0  0  0  0
   -2.0726    0.4845    0.3440 N   0  0  0  0  0  0  0  0  0  0  0  0
   -2.7854    0.8785   -0.2610 H   0  0  0  0  0  0  0  0  0  0  0  0
   -0.7880    1.2152    0.4134 C   0  0  1  0  0  0  0  0  0  0  0  0
   -0.2069    0.9472   -0.4755 H   0  0  0  0  0  0  0  0  0  0  0  0
   -1.0993    2.7242    0.3519 C   0  0  0  0  0  0  0  0  0  0  0  0
   -1.8197    2.9857    1.1342 H   0  0  0  0  0  0  0  0  0  0  0  0
   -0.1785    3.2870    0.5436 H   0  0  0  0  0  0  0  0  0  0  0  0
   -1.6462    3.1455   -1.0207 C   0  0  0  0  0  0  0  0  0  0  0  0
   -0.9179    2.8915   -1.7987 H   0  0  0  0  0  0  0  0  0  0  0  0
   -2.5743    2.6079   -1.2372 H   0  0  0  0  0  0  0  0  0  0  0  0
   -1.9184    4.6533   -1.0467 C   0  0  0  0  0  0  0  0  0  0  0  0
   -2.6308    4.9114   -0.2564 H   0  0  0  0  0  0  0  0  0  0  0  0
   -0.9890    5.1997   -0.8542 H   0  0  0  0  0  0  0  0  0  0  0  0
   -2.4851    5.0812   -2.3975 C   0  0  0  0  0  0  0  0  0  0  0  0
   -1.7671    4.8538   -3.1934 H   0  0  0  0  0  0  0  0  0  0  0  0
   -3.4118    4.5359   -2.6082 H   0  0  0  0  0  0  0  0  0  0  0  0
   -2.7477    6.5225   -2.3580 N   0  0  0  0  0  0  0  0  0  0  0  0
   -3.1003    6.8603   -3.2539 H   0  0  0  0  0  0  0  0  0  0  0  0
   -3.3883    6.7610   -1.6010 H   0  0  0  0  0  0  0  0  0  0  0  0
    0.1426    0.9027    1.6155 C   0  0  0  0  0  0  0  0  0  0  0  0
    1.1503    0.2333    1.4268 O   0  0  0  0  0  0  0  0  0  0  0  0
    0.0436    1.6161    2.7989 N   0  0  0  0  0  0  0  0  0  0  0  0
   -0.8232    2.1191    2.9553 H   0  0  0  0  0  0  0  0  0  0  0  0
    0.9367    1.3945    3.9297 C   0  0  0  0  0  0  0  0  0  0  0  0
    1.9739    1.6013    3.6460 H   0  0  0  0  0  0  0  0  0  0  0  0
    0.6691    2.0550    4.7598 H   0  0  0  0  0  0  0  0  0  0  0  0
    0.8663    0.3572    4.2738 H   0  0  0  0  0  0  0  0  0  0  0  0
  1  2  1  0  0  0  0
  2  3  1  0  0  0  0
  2  4  1  0  0  0  0
  2  5  1  0  0  0  0
  5  6  2  0  0  0  0
  5  7  1  0  0  0  0
  7  8  1  0  0  0  0
  7  9  1  0  0  0  0
  9 10  1  0  0  0  0
  9 11  1  0  0  0  0
  9 26  1  0  0  0  0
 11 12  1  0  0  0  0
 11 13  1  0  0  0  0
 11 14  1  0  0  0  0
 14 15  1  0  0  0  0
 14 16  1  0  0  0  0
 14 17  1  0  0  0  0
 17 18  1  0  0  0  0
 17 19  1  0  0  0  0
 17 20  1  0  0  0  0
 20 21  1  0  0  0  0
 20 22  1  0  0  0  0
 20 23  1  0  0  0  0
 23 24  1  0  0  0  0
 23 25  1  0  0  0  0
 26 27  2  0  0  0  0
 26 28  1  0  0  0  0
 28 29  1  0  0  0  0
 28 30  1  0  0  0  0
 30 31  1  0  0  0  0
 30 32  1  0  0  0  0
 30 33  1  0  0  0  0
M  END
$$$$

  -OEChem-01062216083D

 33 32  0     1  0  0  0  0  0999 V2000
   -3.7321   -2.4334    0.9083 H   0  0  0  0  0  0  0  0  0  0  0  0
   -3.6856   -1.4204    0.4979 C   0  0  0  0  0  0  0  0  0  0  0  0
   -4.4843   -0.8234    0.9443 H   0  0  0  0  0  0  0  0  0  0  0  0
   -3.8378   -1.4735   -0.5827 H   0  0  0  0  0  0  0  0  0  0  0  0
   -2.3373   -0.7945    0.8027 C   0  0  0  0  0  0  0  0  0  0  0  0
   -1.5389   -1.4143    1.4796 O   0  0  0  0  0  0  0  0  0  0  0  0
   -2.0687    0.4752    0.3227 N   0  0  0  0  0  0  0  0  0  0  0  0
   -2.7952    0.8790   -0.2596 H   0  0  0  0  0  0  0  0  0  0  0  0
   -0.7872    1.2111    0.3925 C   0  0  1  0  0  0  0  0  0  0  0  0
   -0.2048    0.9450   -0.4964 H   0  0  0  0  0  0  0  0  0  0  0  0
   -1.0936    2.7200    0.3423 C   0  0  0  0  0  0  0  0  0  0  0  0
   -1.8108    2.9786    1.1283 H   0  0  0  0  0  0  0  0  0  0  0  0
   -0.1712    3.2786    0.5380 H   0  0  0  0  0  0  0  0  0  0  0  0
   -1.6430    3.1501   -1.0263 C   0  0  0  0  0  0  0  0  0  0  0  0
   -0.9179    2.8979   -1.8078 H   0  0  0  0  0  0  0  0  0  0  0  0
   -2.5730    2.6157   -1.2430 H   0  0  0  0  0  0  0  0  0  0  0  0
   -1.9116    4.6584   -1.0450 C   0  0  0  0  0  0  0  0  0  0  0  0
   -2.6216    4.9147   -0.2520 H   0  0  0  0  0  0  0  0  0  0  0  0
   -0.9808    5.2025   -0.8529 H   0  0  0  0  0  0  0  0  0  0  0  0
   -2.4806    5.0910   -2.3932 C   0  0  0  0  0  0  0  0  0  0  0  0
   -1.7651    4.8641   -3.1915 H   0  0  0  0  0  0  0  0  0  0  0  0
   -3.4084    4.5475   -2.6030 H   0  0  0  0  0  0  0  0  0  0  0  0
   -2.7406    6.5325   -2.3494 N   0  0  0  0  0  0  0  0  0  0  0  0
   -3.0991    6.8725   -3.2420 H   0  0  0  0  0  0  0  0  0  0  0  0
   -3.3748    6.7706   -1.5869 H   0  0  0  0  0  0  0  0  0  0  0  0
    0.1389    0.9074    1.5971 C   0  0  0  0  0  0  0  0  0  0  0  0
    1.2601    0.4609    1.3900 O   0  0  0  0  0  0  0  0  0  0  0  0
   -0.1622    1.3979    2.8562 N   0  0  0  0  0  0  0  0  0  0  0  0
   -1.1288    1.6634    3.0124 H   0  0  0  0  0  0  0  0  0  0  0  0
    0.6842    1.1444    4.0153 C   0  0  0  0  0  0  0  0  0  0  0  0
    1.6906    1.5434    3.8513 H   0  0  0  0  0  0  0  0  0  0  0  0
    0.2644    1.6266    4.9029 H   0  0  0  0  0  0  0  0  0  0  0  0
    0.7585    0.0684    4.2051 H   0  0  0  0  0  0  0  0  0  0  0  0
  1  2  1  0  0  0  0
  2  3  1  0  0  0  0
  2  4  1  0  0  0  0
  2  5  1  0  0  0  0
  5  6  2  0  0  0  0
  5  7  1  0  0  0  0
  7  8  1  0  0  0  0
  7  9  1  0  0  0  0
  9 10  1  0  0  0  0
  9 11  1  0  0  0  0
  9 26  1  0  0  0  0
 11 12  1  0  0  0  0
 11 13  1  0  0  0  0
 11 14  1  0  0  0  0
 14 15  1  0  0  0  0
 14 16  1  0  0  0  0
 14 17  1  0  0  0  0
 17 18  1  0  0  0  0
 17 19  1  0  0  0  0
 17 20  1  0  0  0  0
 20 21  1  0  0  0  0
 20 22  1  0  0  0  0
 20 23  1  0  0  0  0
 23 24  1  0  0  0  0
 23 25  1  0  0  0  0
 26 27  2  0  0  0  0
 26 28  1  0  0  0  0
 28 29  1  0  0  0  0
 28 30  1  0  0  0  0
 30 31  1  0  0  0  0
 30 32  1  0  0  0  0
 30 33  1  0  0  0  0
M  END
$$$$

  -OEChem-01062216083D

 33 32  0     1  0  0  0  0  0999 V2000
   -3.7432   -2.4288    0.9184 H   0  0  0  0  0  0  0  0  0  0  0  0
   -3.6950   -1.4180    0.5028 C   0  0  0  0  0  0  0  0  0  0  0  0
   -4.4839   -0.8132    0.9563 H   0  0  0  0  0  0  0  0  0  0  0  0
   -3.8611   -1.4748   -0.5757 H   0  0  0  0  0  0  0  0  0  0  0  0
   -2.3384   -0.8006    0.7876 C   0  0  0  0  0  0  0  0  0  0  0  0
   -1.5305   -1.4249    1.4496 O   0  0  0  0  0  0  0  0  0  0  0  0
   -2.0663    0.4659    0.3027 N   0  0  0  0  0  0  0  0  0  0  0  0
   -2.7969    0.8783   -0.2686 H   0  0  0  0  0  0  0  0  0  0  0  0
   -0.7857    1.2030    0.3790 C   0  0  1  0  0  0  0  0  0  0  0  0
   -0.1975    0.9380   -0.5063 H   0  0  0  0  0  0  0  0  0  0  0  0
   -1.0931    2.7109    0.3355 C   0  0  0  0  0  0  0  0  0  0  0  0
   -1.8110    2.9640    1.1229 H   0  0  0  0  0  0  0  0  0  0  0  0
   -0.1714    3.2691    0.5364 H   0  0  0  0  0  0  0  0  0  0  0  0
   -1.6398    3.1476   -1.0319 C   0  0  0  0  0  0  0  0  0  0  0  0
   -0.9122    2.9007   -1.8125 H   0  0  0  0  0  0  0  0  0  0  0  0
   -2.5684    2.6134   -1.2546 H   0  0  0  0  0  0  0  0  0  0  0  0
   -1.9091    4.6559   -1.0424 C   0  0  0  0  0  0  0  0  0  0  0  0
   -2.6206    4.9066   -0.2491 H   0  0  0  0  0  0  0  0  0  0  0  0
   -0.9786    5.1986   -0.8451 H   0  0  0  0  0  0  0  0  0  0  0  0
   -2.4756    5.0976   -2.3888 C   0  0  0  0  0  0  0  0  0  0  0  0
   -1.7583    4.8764   -3.1872 H   0  0  0  0  0  0  0  0  0  0  0  0
   -3.4027    4.5552   -2.6043 H   0  0  0  0  0  0  0  0  0  0  0  0
   -2.7362    6.5388   -2.3360 N   0  0  0  0  0  0  0  0  0  0  0  0
   -3.0976    6.8836   -3.2255 H   0  0  0  0  0  0  0  0  0  0  0  0
   -3.3680    6.7722   -1.5702 H   0  0  0  0  0  0  0  0  0  0  0  0
    0.1337    0.9123    1.5900 C   0  0  0  0  0  0  0  0  0  0  0  0
    1.3273    0.7174    1.3985 O   0  0  0  0  0  0  0  0  0  0  0  0
   -0.3160    1.1375    2.8790 N   0  0  0  0  0  0  0  0  0  0  0  0
   -1.3242    1.1399    2.9937 H   0  0  0  0  0  0  0  0  0  0  0  0
    0.5076    0.8524    4.0470 C   0  0  0  0  0  0  0  0  0  0  0  0
    1.4342    1.4354    4.0164 H   0  0  0  0  0  0  0  0  0  0  0  0
   -0.0320    1.1132    4.9624 H   0  0  0  0  0  0  0  0  0  0  0  0
    0.7623   -0.2121    4.0831 H   0  0  0  0  0  0  0  0  0  0  0  0
  1  2  1  0  0  0  0
  2  3  1  0  0  0  0
  2  4  1  0  0  0  0
  2  5  1  0  0  0  0
  5  6  2  0  0  0  0
  5  7  1  0  0  0  0
  7  8  1  0  0  0  0
  7  9  1  0  0  0  0
  9 10  1  0  0  0  0
  9 11  1  0  0  0  0
  9 26  1  0  0  0  0
 11 12  1  0  0  0  0
 11 13  1  0  0  0  0
 11 14  1  0  0  0  0
 14 15  1  0  0  0  0
 14 16  1  0  0  0  0
 14 17  1  0  0  0  0
 17 18  1  0  0  0  0
 17 19  1  0  0  0  0
 17 20  1  0  0  0  0
 20 21  1  0  0  0  0
 20 22  1  0  0  0  0
 20 23  1  0  0  0  0
 23 24  1  0  0  0  0
 23 25  1  0  0  0  0
 26 27  2  0  0  0  0
 26 28  1  0  0  0  0
 28 29  1  0  0  0  0
 28 30  1  0  0  0  0
 30 31  1  0  0  0  0
 30 32  1  0  0  0  0
 30 33  1  0  0  0  0
M  END
$$$$

  -OEChem-01062216083D

 33 32  0     1  0  0  0  0  0999 V2000
   -3.7996   -2.4155    0.8797 H   0  0  0  0  0  0  0  0  0  0  0  0
   -3.7355   -1.4020    0.4733 C   0  0  0  0  0  0  0  0  0  0  0  0
   -4.5122   -0.7882    0.9355 H   0  0  0  0  0  0  0  0  0  0  0  0
   -3.9076   -1.4459   -0.6048 H   0  0  0  0  0  0  0  0  0  0  0  0
   -2.3673   -0.8103    0.7564 C   0  0  0  0  0  0  0  0  0  0  0  0
   -1.5643   -1.4550    1.4046 O   0  0  0  0  0  0  0  0  0  0  0  0
   -2.0735    0.4549    0.2821 N   0  0  0  0  0  0  0  0  0  0  0  0
   -2.8057    0.8925   -0.2683 H   0  0  0  0  0  0  0  0  0  0  0  0
   -0.7906    1.1887    0.3797 C   0  0  1  0  0  0  0  0  0  0  0  0
   -0.1924    0.9281   -0.5000 H   0  0  0  0  0  0  0  0  0  0  0  0
   -1.1044    2.6960    0.3412 C   0  0  0  0  0  0  0  0  0  0  0  0
   -1.8310    2.9404    1.1233 H   0  0  0  0  0  0  0  0  0  0  0  0
   -0.1880    3.2579    0.5555 H   0  0  0  0  0  0  0  0  0  0  0  0
   -1.6363    3.1406   -1.0301 C   0  0  0  0  0  0  0  0  0  0  0  0
   -0.8979    2.9016   -1.8032 H   0  0  0  0  0  0  0  0  0  0  0  0
   -2.5600    2.6043   -1.2675 H   0  0  0  0  0  0  0  0  0  0  0  0
   -1.9125    4.6481   -1.0348 C   0  0  0  0  0  0  0  0  0  0  0  0
   -2.6348    4.8913   -0.2490 H   0  0  0  0  0  0  0  0  0  0  0  0
   -0.9869    5.1937   -0.8228 H   0  0  0  0  0  0  0  0  0  0  0  0
   -2.4642    5.0960   -2.3853 C   0  0  0  0  0  0  0  0  0  0  0  0
   -1.7366    4.8825   -3.1765 H   0  0  0  0  0  0  0  0  0  0  0  0
   -3.3867    4.5514   -2.6150 H   0  0  0  0  0  0  0  0  0  0  0  0
   -2.7321    6.5358   -2.3273 N   0  0  0  0  0  0  0  0  0  0  0  0
   -3.0875    6.8842   -3.2179 H   0  0  0  0  0  0  0  0  0  0  0  0
   -3.3706    6.7628   -1.5652 H   0  0  0  0  0  0  0  0  0  0  0  0
    0.1268    0.9108    1.5970 C   0  0  0  0  0  0  0  0  0  0  0  0
    1.3406    0.9812    1.4487 O   0  0  0  0  0  0  0  0  0  0  0  0
   -0.3938    0.8392    2.8766 N   0  0  0  0  0  0  0  0  0  0  0  0
   -1.3674    0.5534    2.9175 H   0  0  0  0  0  0  0  0  0  0  0  0
    0.4429    0.5521    4.0349 C   0  0  0  0  0  0  0  0  0  0  0  0
    1.2272    1.3090    4.1408 H   0  0  0  0  0  0  0  0  0  0  0  0
   -0.1615    0.5550    4.9467 H   0  0  0  0  0  0  0  0  0  0  0  0
    0.9136   -0.4312    3.9315 H   0  0  0  0  0  0  0  0  0  0  0  0
  1  2  1  0  0  0  0
  2  3  1  0  0  0  0
  2  4  1  0  0  0  0
  2  5  1  0  0  0  0
  5  6  2  0  0  0  0
  5  7  1  0  0  0  0
  7  8  1  0  0  0  0
  7  9  1  0  0  0  0
  9 10  1  0  0  0  0
  9 11  1  0  0  0  0
  9 26  1  0  0  0  0
 11 12  1  0  0  0  0
 11 13  1  0  0  0  0
 11 14  1  0  0  0  0
 14 15  1  0  0  0  0
 14 16  1  0  0  0  0
 14 17  1  0  0  0  0
 17 18  1  0  0  0  0
 17 19  1  0  0  0  0
 17 20  1  0  0  0  0
 20 21  1  0  0  0  0
 20 22  1  0  0  0  0
 20 23  1  0  0  0  0
 23 24  1  0  0  0  0
 23 25  1  0  0  0  0
 26 27  2  0  0  0  0
 26 28  1  0  0  0  0
 28 29  1  0  0  0  0
 28 30  1  0  0  0  0
 30 31  1  0  0  0  0
 30 32  1  0  0  0  0
 30 33  1  0  0  0  0
M  END
$$$$

  -OEChem-01062216083D

 33 32  0     1  0  0  0  0  0999 V2000
   -3.8981   -2.3821    0.8093 H   0  0  0  0  0  0  0  0  0  0  0  0
   -3.8036   -1.3626    0.4244 C   0  0  0  0  0  0  0  0  0  0  0  0
   -4.5539   -0.7331    0.9090 H   0  0  0  0  0  0  0  0  0  0  0  0
   -3.9894   -1.3768   -0.6524 H   0  0  0  0  0  0  0  0  0  0  0  0
   -2.4131   -0.8231    0.7045 C   0  0  0  0  0  0  0  0  0  0  0  0
   -1.6226   -1.5113    1.3233 O   0  0  0  0  0  0  0  0  0  0  0  0
   -2.0839    0.4425    0.2572 N   0  0  0  0  0  0  0  0  0  0  0  0
   -2.8187    0.9209   -0.2546 H   0  0  0  0  0  0  0  0  0  0  0  0
   -0.7977    1.1688    0.3873 C   0  0  1  0  0  0  0  0  0  0  0  0
   -0.1886    0.9179   -0.4875 H   0  0  0  0  0  0  0  0  0  0  0  0
   -1.1236    2.6752    0.3543 C   0  0  0  0  0  0  0  0  0  0  0  0
   -1.8659    2.9074    1.1255 H   0  0  0  0  0  0  0  0  0  0  0  0
   -0.2179    3.2464    0.5891 H   0  0  0  0  0  0  0  0  0  0  0  0
   -1.6319    3.1274   -1.0237 C   0  0  0  0  0  0  0  0  0  0  0  0
   -0.8751    2.9019   -1.7827 H   0  0  0  0  0  0  0  0  0  0  0  0
   -2.5456    2.5857   -1.2860 H   0  0  0  0  0  0  0  0  0  0  0  0
   -1.9206    4.6325   -1.0222 C   0  0  0  0  0  0  0  0  0  0  0  0
   -2.6604    4.8635   -0.2488 H   0  0  0  0  0  0  0  0  0  0  0  0
   -1.0037    5.1836   -0.7879 H   0  0  0  0  0  0  0  0  0  0  0  0
   -2.4490    5.0866   -2.3801 C   0  0  0  0  0  0  0  0  0  0  0  0
   -1.7034    4.8860   -3.1577 H   0  0  0  0  0  0  0  0  0  0  0  0
   -3.3616    4.5357   -2.6334 H   0  0  0  0  0  0  0  0  0  0  0  0
   -2.7302    6.5237   -2.3165 N   0  0  0  0  0  0  0  0  0  0  0  0
   -3.0724    6.8757   -3.2108 H   0  0  0  0  0  0  0  0  0  0  0  0
   -3.3844    6.7394   -1.5644 H   0  0  0  0  0  0  0  0  0  0  0  0
    0.1214    0.8986    1.6090 C   0  0  0  0  0  0  0  0  0  0  0  0
    1.3016    1.2175    1.5291 O   0  0  0  0  0  0  0  0  0  0  0  0
   -0.3849    0.5214    2.8392 N   0  0  0  0  0  0  0  0  0  0  0  0
   -1.2428   -0.0230    2.7725 H   0  0  0  0  0  0  0  0  0  0  0  0
    0.4814    0.2569    3.9811 C   0  0  0  0  0  0  0  0  0  0  0  0
    1.0680    1.1464    4.2335 H   0  0  0  0  0  0  0  0  0  0  0  0
   -0.1189   -0.0171    4.8537 H   0  0  0  0  0  0  0  0  0  0  0  0
    1.1677   -0.5665    3.7573 H   0  0  0  0  0  0  0  0  0  0  0  0
  1  2  1  0  0  0  0
  2  3  1  0  0  0  0
  2  4  1  0  0  0  0
  2  5  1  0  0  0  0
  5  6  2  0  0  0  0
  5  7  1  0  0  0  0
  7  8  1  0  0  0  0
  7  9  1  0  0  0  0
  9 10  1  0  0  0  0
  9 11  1  0  0  0  0
  9 26  1  0  0  0  0
 11 12  1  0  0  0  0
 11 13  1  0  0  0  0
 11 14  1  0  0  0  0
 14 15  1  0  0  0  0
 14 16  1  0  0  0  0
 14 17  1  0  0  0  0
 17 18  1  0  0  0  0
 17 19  1  0  0  0  0
 17 20  1  0  0  0  0
 20 21  1  0  0  0  0
 20 22  1  0  0  0  0
 20 23  1  0  0  0  0
 23 24  1  0  0  0  0
 23 25  1  0  0  0  0
 26 27  2  0  0  0  0
 26 28  1  0  0  0  0
 28 29  1  0  0  0  0
 28 30  1  0  0  0  0
 30 31  1  0  0  0  0
 30 32  1  0  0  0  0
 30 33  1  0  0  0  0
M  END
$$$$

  -OEChem-01062216083D

 33 32  0     1  0  0  0  0  0999 V2000
   -3.9775   -2.3270    0.8028 H   0  0  0  0  0  0  0  0  0  0  0  0
   -3.8544   -1.3092    0.4212 C   0  0  0  0  0  0  0  0  0  0  0  0
   -4.5480   -0.6502    0.9492 H   0  0  0  0  0  0  0  0  0  0  0  0
   -4.0951   -1.3027   -0.6447 H   0  0  0  0  0  0  0  0  0  0  0  0
   -2.4276   -0.8389    0.6334 C   0  0  0  0  0  0  0  0  0  0  0  0
   -1.6219   -1.5979    1.1404 O   0  0  0  0  0  0  0  0  0  0  0  0
   -2.0750    0.4319    0.2210 N   0  0  0  0  0  0  0  0  0  0  0  0
   -2.8303    0.9637   -0.2003 H   0  0  0  0  0  0  0  0  0  0  0  0
   -0.7924    1.1582    0.3916 C   0  0  1  0  0  0  0  0  0  0  0  0
   -0.1658    0.9212   -0.4746 H   0  0  0  0  0  0  0  0  0  0  0  0
   -1.1434    2.6617    0.3584 C   0  0  0  0  0  0  0  0  0  0  0  0
   -1.9089    2.8761    1.1119 H   0  0  0  0  0  0  0  0  0  0  0  0
   -0.2567    3.2507    0.6184 H   0  0  0  0  0  0  0  0  0  0  0  0
   -1.6231    3.1177   -1.0298 C   0  0  0  0  0  0  0  0  0  0  0  0
   -0.8437    2.9112   -1.7715 H   0  0  0  0  0  0  0  0  0  0  0  0
   -2.5210    2.5646   -1.3213 H   0  0  0  0  0  0  0  0  0  0  0  0
   -1.9354    4.6183   -1.0207 C   0  0  0  0  0  0  0  0  0  0  0  0
   -2.6981    4.8290   -0.2643 H   0  0  0  0  0  0  0  0  0  0  0  0
   -1.0336    5.1810   -0.7567 H   0  0  0  0  0  0  0  0  0  0  0  0
   -2.4363    5.0815   -2.3860 C   0  0  0  0  0  0  0  0  0  0  0  0
   -1.6692    4.9018   -3.1476 H   0  0  0  0  0  0  0  0  0  0  0  0
   -3.3345    4.5210   -2.6683 H   0  0  0  0  0  0  0  0  0  0  0  0
   -2.7401    6.5133   -2.3102 N   0  0  0  0  0  0  0  0  0  0  0  0
   -3.0711    6.8717   -3.2061 H   0  0  0  0  0  0  0  0  0  0  0  0
   -3.4107    6.7101   -1.5673 H   0  0  0  0  0  0  0  0  0  0  0  0
    0.1193    0.8881    1.6246 C   0  0  0  0  0  0  0  0  0  0  0  0
    1.2324    1.3999    1.6445 O   0  0  0  0  0  0  0  0  0  0  0  0
   -0.3109    0.2202    2.7560 N   0  0  0  0  0  0  0  0  0  0  0  0
   -1.0648   -0.4433    2.5775 H   0  0  0  0  0  0  0  0  0  0  0  0
    0.5746   -0.0667    3.8778 C   0  0  0  0  0  0  0  0  0  0  0  0
    0.9747    0.8612    4.2995 H   0  0  0  0  0  0  0  0  0  0  0  0
    0.0259   -0.5925    4.6649 H   0  0  0  0  0  0  0  0  0  0  0  0
    1.4101   -0.6968    3.5551 H   0  0  0  0  0  0  0  0  0  0  0  0
  1  2  1  0  0  0  0
  2  3  1  0  0  0  0
  2  4  1  0  0  0  0
  2  5  1  0  0  0  0
  5  6  2  0  0  0  0
  5  7  1  0  0  0  0
  7  8  1  0  0  0  0
  7  9  1  0  0  0  0
  9 10  1  0  0  0  0
  9 11  1  0  0  0  0
  9 26  1  0  0  0  0
 11 12  1  0  0  0  0
 11 13  1  0  0  0  0
 11 14  1  0  0  0  0
 14 15  1  0  0  0  0
 14 16  1  0  0  0  0
 14 17  1  0  0  0  0
 17 18  1  0  0  0  0
 17 19  1  0  0  0  0
 17 20  1  0  0  0  0
 20 21  1  0  0  0  0
 20 22  1  0  0  0  0
 20 23  1  0  0  0  0
 23 24  1  0  0  0  0
 23 25  1  0  0  0  0
 26 27  2  0  0  0  0
 26 28  1  0  0  0  0
 28 29  1  0  0  0  0
 28 30  1  0  0  0  0
 30 31  1  0  0  0  0
 30 32  1  0  0  0  0
 30 33  1  0  0  0  0
M  END
$$$$

  -OEChem-01062216083D

 33 32  0     1  0  0  0  0  0999 V2000
   -4.0307   -2.2849    0.8041 H   0  0  0  0  0  0  0  0  0  0  0  0
   -3.8933   -1.2658    0.4309 C   0  0  0  0  0  0  0  0  0  0  0  0
   -4.5322   -0.5927    1.0079 H   0  0  0  0  0  0  0  0  0  0  0  0
   -4.1937   -1.2331   -0.6193 H   0  0  0  0  0  0  0  0  0  0  0  0
   -2.4407   -0.8496    0.5684 C   0  0  0  0  0  0  0  0  0  0  0  0
   -1.6234   -1.6697    0.9462 O   0  0  0  0  0  0  0  0  0  0  0  0
   -2.0737    0.4280    0.1918 N   0  0  0  0  0  0  0  0  0  0  0  0
   -2.8452    0.9997   -0.1380 H   0  0  0  0  0  0  0  0  0  0  0  0
   -0.7923    1.1502    0.3945 C   0  0  1  0  0  0  0  0  0  0  0  0
   -0.1557    0.9262   -0.4674 H   0  0  0  0  0  0  0  0  0  0  0  0
   -1.1596    2.6527    0.3658 C   0  0  0  0  0  0  0  0  0  0  0  0
   -1.9409    2.8530    1.1067 H   0  0  0  0  0  0  0  0  0  0  0  0
   -0.2879    3.2552    0.6436 H   0  0  0  0  0  0  0  0  0  0  0  0
   -1.6167    3.1137   -1.0279 C   0  0  0  0  0  0  0  0  0  0  0  0
   -0.8207    2.9211   -1.7552 H   0  0  0  0  0  0  0  0  0  0  0  0
   -2.5027    2.5537   -1.3416 H   0  0  0  0  0  0  0  0  0  0  0  0
   -1.9455    4.6105   -1.0142 C   0  0  0  0  0  0  0  0  0  0  0  0
   -2.7254    4.8080   -0.2717 H   0  0  0  0  0  0  0  0  0  0  0  0
   -1.0554    5.1815   -0.7287 H   0  0  0  0  0  0  0  0  0  0  0  0
   -2.4237    5.0751   -2.3869 C   0  0  0  0  0  0  0  0  0  0  0  0
   -1.6390    4.9079   -3.1335 H   0  0  0  0  0  0  0  0  0  0  0  0
   -3.3091    4.5057   -2.6898 H   0  0  0  0  0  0  0  0  0  0  0  0
   -2.7457    6.5028   -2.3114 N   0  0  0  0  0  0  0  0  0  0  0  0
   -3.0619    6.8608   -3.2128 H   0  0  0  0  0  0  0  0  0  0  0  0
   -3.4343    6.6885   -1.5823 H   0  0  0  0  0  0  0  0  0  0  0  0
    0.1176    0.8668    1.6313 C   0  0  0  0  0  0  0  0  0  0  0  0
    1.1371    1.5329    1.7687 O   0  0  0  0  0  0  0  0  0  0  0  0
   -0.1749   -0.0517    2.6217 N   0  0  0  0  0  0  0  0  0  0  0  0
   -0.8404   -0.7754    2.3482 H   0  0  0  0  0  0  0  0  0  0  0  0
    0.7358   -0.3528    3.7196 C   0  0  0  0  0  0  0  0  0  0  0  0
    0.9421    0.5486    4.3062 H   0  0  0  0  0  0  0  0  0  0  0  0
    0.2903   -1.0997    4.3832 H   0  0  0  0  0  0  0  0  0  0  0  0
    1.6816   -0.7486    3.3356 H   0  0  0  0  0  0  0  0  0  0  0  0
  1  2  1  0  0  0  0
  2  3  1  0  0  0  0
  2  4  1  0  0  0  0
  2  5  1  0  0  0  0
  5  6  2  0  0  0  0
  5  7  1  0  0  0  0
  7  8  1  0  0  0  0
  7  9  1  0  0  0  0
  9 10  1  0  0  0  0
  9 11  1  0  0  0  0
  9 26  1  0  0  0  0
 11 12  1  0  0  0  0
 11 13  1  0  0  0  0
 11 14  1  0  0  0  0
 14 15  1  0  0  0  0
 14 16  1  0  0  0  0
 14 17  1  0  0  0  0
 17 18  1  0  0  0  0
 17 19  1  0  0  0  0
 17 20  1  0  0  0  0
 20 21  1  0  0  0  0
 20 22  1  0  0  0  0
 20 23  1  0  0  0  0
 23 24  1  0  0  0  0
 23 25  1  0  0  0  0
 26 27  2  0  0  0  0
 26 28  1  0  0  0  0
 28 29  1  0  0  0  0
 28 30  1  0  0  0  0
 30 31  1  0  0  0  0
 30 32  1  0  0  0  0
 30 33  1  0  0  0  0
M  END
$$$$

  -OEChem-01062216083D

 33 32  0     1  0  0  0  0  0999 V2000
   -4.0735   -2.2239    0.9268 H   0  0  0  0  0  0  0  0  0  0  0  0
   -3.9352   -1.1948    0.5827 C   0  0  0  0  0  0  0  0  0  0  0  0
   -4.4867   -0.5264    1.2485 H   0  0  0  0  0  0  0  0  0  0  0  0
   -4.3383   -1.1055   -0.4291 H   0  0  0  0  0  0  0  0  0  0  0  0
   -2.4612   -0.8344    0.5880 C   0  0  0  0  0  0  0  0  0  0  0  0
   -1.6399   -1.7029    0.8231 O   0  0  0  0  0  0  0  0  0  0  0  0
   -2.0844    0.4405    0.2130 N   0  0  0  0  0  0  0  0  0  0  0  0
   -2.8688    1.0439   -0.0144 H   0  0  0  0  0  0  0  0  0  0  0  0
   -0.7915    1.1484    0.3954 C   0  0  1  0  0  0  0  0  0  0  0  0
   -0.1703    0.9117   -0.4742 H   0  0  0  0  0  0  0  0  0  0  0  0
   -1.1537    2.6537    0.3467 C   0  0  0  0  0  0  0  0  0  0  0  0
   -1.9262    2.8701    1.0920 H   0  0  0  0  0  0  0  0  0  0  0  0
   -0.2786    3.2603    0.6023 H   0  0  0  0  0  0  0  0  0  0  0  0
   -1.6210    3.0934   -1.0516 C   0  0  0  0  0  0  0  0  0  0  0  0
   -0.8313    2.8856   -1.7819 H   0  0  0  0  0  0  0  0  0  0  0  0
   -2.5114    2.5313   -1.3494 H   0  0  0  0  0  0  0  0  0  0  0  0
   -1.9446    4.5914   -1.0603 C   0  0  0  0  0  0  0  0  0  0  0  0
   -2.7179    4.8030   -0.3149 H   0  0  0  0  0  0  0  0  0  0  0  0
   -1.0502    5.1637   -0.7909 H   0  0  0  0  0  0  0  0  0  0  0  0
   -2.4330    5.0370   -2.4359 C   0  0  0  0  0  0  0  0  0  0  0  0
   -1.6559    4.8552   -3.1868 H   0  0  0  0  0  0  0  0  0  0  0  0
   -3.3238    4.4670   -2.7225 H   0  0  0  0  0  0  0  0  0  0  0  0
   -2.7487    6.4672   -2.3780 N   0  0  0  0  0  0  0  0  0  0  0  0
   -3.0752    6.8130   -3.2806 H   0  0  0  0  0  0  0  0  0  0  0  0
   -3.4266    6.6666   -1.6426 H   0  0  0  0  0  0  0  0  0  0  0  0
    0.1380    0.8462    1.6180 C   0  0  0  0  0  0  0  0  0  0  0  0
    1.0417    1.6306    1.8821 O   0  0  0  0  0  0  0  0  0  0  0  0
    0.0203   -0.2561    2.4430 N   0  0  0  0  0  0  0  0  0  0  0  0
   -0.5797   -1.0047    2.0942 H   0  0  0  0  0  0  0  0  0  0  0  0
    0.9734   -0.5809    3.4975 C   0  0  0  0  0  0  0  0  0  0  0  0
    1.0325    0.2335    4.2269 H   0  0  0  0  0  0  0  0  0  0  0  0
    0.6595   -1.4893    4.0206 H   0  0  0  0  0  0  0  0  0  0  0  0
    1.9692   -0.7499    3.0748 H   0  0  0  0  0  0  0  0  0  0  0  0
  1  2  1  0  0  0  0
  2  3  1  0  0  0  0
  2  4  1  0  0  0  0
  2  5  1  0  0  0  0
  5  6  2  0  0  0  0
  5  7  1  0  0  0  0
  7  8  1  0  0  0  0
  7  9  1  0  0  0  0
  9 10  1  0  0  0  0
  9 11  1  0  0  0  0
  9 26  1  0  0  0  0
 11 12  1  0  0  0  0
 11 13  1  0  0  0  0
 11 14  1  0  0  0  0
 14 15  1  0  0  0  0
 14 16  1  0  0  0  0
 14 17  1  0  0  0  0
 17 18  1  0  0  0  0
 17 19  1  0  0  0  0
 17 20  1  0  0  0  0
 20 21  1  0  0  0  0
 20 22  1  0  0  0  0
 20 23  1  0  0  0  0
 23 24  1  0  0  0  0
 23 25  1  0  0  0  0
 26 27  2  0  0  0  0
 26 28  1  0  0  0  0
 28 29  1  0  0  0  0
 28 30  1  0  0  0  0
 30 31  1  0  0  0  0
 30 32  1  0  0  0  0
 30 33  1  0  0  0  0
M  END
$$$$

  -OEChem-01062216083D

 33 32  0     1  0  0  0  0  0999 V2000
   -3.5539   -2.3199    1.3028 H   0  0  0  0  0  0  0  0  0  0  0  0
   -3.5190   -1.2673    1.0071 C   0  0  0  0  0  0  0  0  0  0  0  0
   -3.8627   -0.6561    1.8449 H   0  0  0  0  0  0  0  0  0  0  0  0
   -4.1881   -1.1188    0.1559 H   0  0  0  0  0  0  0  0  0  0  0  0
   -2.1026   -0.8783    0.6269 C   0  0  0  0  0  0  0  0  0  0  0  0
   -1.2530   -1.7442    0.5334 O   0  0  0  0  0  0  0  0  0  0  0  0
   -1.8494    0.4118    0.2097 N   0  0  0  0  0  0  0  0  0  0  0  0
   -2.6716    1.0066    0.2139 H   0  0  0  0  0  0  0  0  0  0  0  0
   -0.5592    1.1408    0.2013 C   0  0  1  0  0  0  0  0  0  0  0  0
   -0.0836    0.9184   -0.7593 H   0  0  0  0  0  0  0  0  0  0  0  0
   -0.9500    2.6395    0.2239 C   0  0  0  0  0  0  0  0  0  0  0  0
   -1.6053    2.8362    1.0790 H   0  0  0  0  0  0  0  0  0  0  0  0
   -0.0569    3.2602    0.3514 H   0  0  0  0  0  0  0  0  0  0  0  0
   -1.6311    3.0803   -1.0828 C   0  0  0  0  0  0  0  0  0  0  0  0
   -0.9584    2.8915   -1.9264 H   0  0  0  0  0  0  0  0  0  0  0  0
   -2.5464    2.5034   -1.2469 H   0  0  0  0  0  0  0  0  0  0  0  0
   -1.9784    4.5720   -1.0296 C   0  0  0  0  0  0  0  0  0  0  0  0
   -2.6330    4.7667   -0.1740 H   0  0  0  0  0  0  0  0  0  0  0  0
   -1.0638    5.1593   -0.8954 H   0  0  0  0  0  0  0  0  0  0  0  0
   -2.6768    5.0138   -2.3127 C   0  0  0  0  0  0  0  0  0  0  0  0
   -2.0182    4.8497   -3.1731 H   0  0  0  0  0  0  0  0  0  0  0  0
   -3.5896    4.4275   -2.4663 H   0  0  0  0  0  0  0  0  0  0  0  0
   -3.0067    6.4375   -2.1994 N   0  0  0  0  0  0  0  0  0  0  0  0
   -3.4588    6.7827   -3.0463 H   0  0  0  0  0  0  0  0  0  0  0  0
   -3.5828    6.6191   -1.3776 H   0  0  0  0  0  0  0  0  0  0  0  0
    0.5769    0.8719    1.2474 C   0  0  0  0  0  0  0  0  0  0  0  0
    1.5461    1.6162    1.2580 O   0  0  0  0  0  0  0  0  0  0  0  0
    0.8948   -0.2840    1.9189 N   0  0  0  0  0  0  0  0  0  0  0  0
    1.8888   -0.2908    2.1311 H   0  0  0  0  0  0  0  0  0  0  0  0
    0.0539   -0.7460    3.0161 C   0  0  0  0  0  0  0  0  0  0  0  0
   -0.9133   -0.2344    3.0258 H   0  0  0  0  0  0  0  0  0  0  0  0
   -0.1190   -1.8238    2.9326 H   0  0  0  0  0  0  0  0  0  0  0  0
    0.5486   -0.5478    3.9720 H   0  0  0  0  0  0  0  0  0  0  0  0
  1  2  1  0  0  0  0
  2  3  1  0  0  0  0
  2  4  1  0  0  0  0
  2  5  1  0  0  0  0
  5  6  2  0  0  0  0
  5  7  1  0  0  0  0
  7  8  1  0  0  0  0
  7  9  1  0  0  0  0
  9 10  1  0  0  0  0
  9 11  1  0  0  0  0
  9 26  1  0  0  0  0
 11 12  1  0  0  0  0
 11 13  1  0  0  0  0
 11 14  1  0  0  0  0
 14 15  1  0  0  0  0
 14 16  1  0  0  0  0
 14 17  1  0  0  0  0
 17 18  1  0  0  0  0
 17 19  1  0  0  0  0
 17 20  1  0  0  0  0
 20 21  1  0  0  0  0
 20 22  1  0  0  0  0
 20 23  1  0  0  0  0
 23 24  1  0  0  0  0
 23 25  1  0  0  0  0
 26 27  2  0  0  0  0
 26 28  1  0  0  0  0
 28 29  1  0  0  0  0
 28 30  1  0  0  0  0
 30 31  1  0  0  0  0
 30 32  1  0  0  0  0
 30 33  1  0  0  0  0
M  END
$$$$

  -OEChem-01062216083D

 33 32  0     1  0  0  0  0  0999 V2000
   -3.9145   -2.2869    0.9698 H   0  0  0  0  0  0  0  0  0  0  0  0
   -3.8245   -1.2509    0.6307 C   0  0  0  0  0  0  0  0  0  0  0  0
   -4.3208   -0.6016    1.3561 H   0  0  0  0  0  0  0  0  0  0  0  0
   -4.3220   -1.1532   -0.3373 H   0  0  0  0  0  0  0  0  0  0  0  0
   -2.3621   -0.8663    0.5039 C   0  0  0  0  0  0  0  0  0  0  0  0
   -1.5133   -1.7385    0.5655 O   0  0  0  0  0  0  0  0  0  0  0  0
   -2.0394    0.4352    0.1700 N   0  0  0  0  0  0  0  0  0  0  0  0
   -2.8531    1.0354    0.0753 H   0  0  0  0  0  0  0  0  0  0  0  0
   -0.7614    1.1669    0.3567 C   0  0  1  0  0  0  0  0  0  0  0  0
   -0.1451    0.9607   -0.5239 H   0  0  0  0  0  0  0  0  0  0  0  0
   -1.1306    2.6705    0.3365 C   0  0  0  0  0  0  0  0  0  0  0  0
   -1.8964    2.8735    1.0926 H   0  0  0  0  0  0  0  0  0  0  0  0
   -0.2516    3.2727    0.5907 H   0  0  0  0  0  0  0  0  0  0  0  0
   -1.6073    3.1293   -1.0515 C   0  0  0  0  0  0  0  0  0  0  0  0
   -0.8212    2.9374   -1.7896 H   0  0  0  0  0  0  0  0  0  0  0  0
   -2.4962    2.5659   -1.3520 H   0  0  0  0  0  0  0  0  0  0  0  0
   -1.9388    4.6256   -1.0360 C   0  0  0  0  0  0  0  0  0  0  0  0
   -2.7090    4.8222   -0.2833 H   0  0  0  0  0  0  0  0  0  0  0  0
   -1.0463    5.1985   -0.7629 H   0  0  0  0  0  0  0  0  0  0  0  0
   -2.4367    5.0886   -2.4024 C   0  0  0  0  0  0  0  0  0  0  0  0
   -1.6632    4.9219   -3.1605 H   0  0  0  0  0  0  0  0  0  0  0  0
   -3.3258    4.5179   -2.6923 H   0  0  0  0  0  0  0  0  0  0  0  0
   -2.7593    6.5161   -2.3215 N   0  0  0  0  0  0  0  0  0  0  0  0
   -3.0967    6.8723   -3.2158 H   0  0  0  0  0  0  0  0  0  0  0  0
   -3.4318    6.7009   -1.5773 H   0  0  0  0  0  0  0  0  0  0  0  0
    0.1739    0.8078    1.5598 C   0  0  0  0  0  0  0  0  0  0  0  0
    0.6729    1.6975    2.2391 O   0  0  0  0  0  0  0  0  0  0  0  0
    0.4847   -0.4873    1.9236 N   0  0  0  0  0  0  0  0  0  0  0  0
    0.0119   -1.2315    1.4059 H   0  0  0  0  0  0  0  0  0  0  0  0
    1.3297   -0.8463    3.0554 C   0  0  0  0  0  0  0  0  0  0  0  0
    0.8937   -0.4812    3.9909 H   0  0  0  0  0  0  0  0  0  0  0  0
    1.4285   -1.9339    3.1204 H   0  0  0  0  0  0  0  0  0  0  0  0
    2.3295   -0.4154    2.9388 H   0  0  0  0  0  0  0  0  0  0  0  0
  1  2  1  0  0  0  0
  2  3  1  0  0  0  0
  2  4  1  0  0  0  0
  2  5  1  0  0  0  0
  5  6  2  0  0  0  0
  5  7  1  0  0  0  0
  7  8  1  0  0  0  0
  7  9  1  0  0  0  0
  9 10  1  0  0  0  0
  9 11  1  0  0  0  0
  9 26  1  0  0  0  0
 11 12  1  0  0  0  0
 11 13  1  0  0  0  0
 11 14  1  0  0  0  0
 14 15  1  0  0  0  0
 14 16  1  0  0  0  0
 14 17  1  0  0  0  0
 17 18  1  0  0  0  0
 17 19  1  0  0  0  0
 17 20  1  0  0  0  0
 20 21  1  0  0  0  0
 20 22  1  0  0  0  0
 20 23  1  0  0  0  0
 23 24  1  0  0  0  0
 23 25  1  0  0  0  0
 26 27  2  0  0  0  0
 26 28  1  0  0  0  0
 28 29  1  0  0  0  0
 28 30  1  0  0  0  0
 30 31  1  0  0  0  0
 30 32  1  0  0  0  0
 30 33  1  0  0  0  0
M  END
$$$$

  -OEChem-01062216083D

 33 32  0     1  0  0  0  0  0999 V2000
   -3.7940   -2.3287    1.0239 H   0  0  0  0  0  0  0  0  0  0  0  0
   -3.7402   -1.2807    0.7147 C   0  0  0  0  0  0  0  0  0  0  0  0
   -4.2100   -0.6638    1.4847 H   0  0  0  0  0  0  0  0  0  0  0  0
   -4.2879   -1.1616   -0.2234 H   0  0  0  0  0  0  0  0  0  0  0  0
   -2.2933   -0.8643    0.5284 C   0  0  0  0  0  0  0  0  0  0  0  0
   -1.4188   -1.7120    0.5783 O   0  0  0  0  0  0  0  0  0  0  0  0
   -2.0112    0.4383    0.1644 N   0  0  0  0  0  0  0  0  0  0  0  0
   -2.8364    1.0269    0.1013 H   0  0  0  0  0  0  0  0  0  0  0  0
   -0.7365    1.1792    0.3186 C   0  0  1  0  0  0  0  0  0  0  0  0
   -0.1322    0.9727   -0.5702 H   0  0  0  0  0  0  0  0  0  0  0  0
   -1.0985    2.6826    0.3054 C   0  0  0  0  0  0  0  0  0  0  0  0
   -1.8473    2.8893    1.0775 H   0  0  0  0  0  0  0  0  0  0  0  0
   -0.2085    3.2752    0.5448 H   0  0  0  0  0  0  0  0  0  0  0  0
   -1.6056    3.1425   -1.0708 C   0  0  0  0  0  0  0  0  0  0  0  0
   -0.8389    2.9458   -1.8279 H   0  0  0  0  0  0  0  0  0  0  0  0
   -2.5041    2.5826   -1.3480 H   0  0  0  0  0  0  0  0  0  0  0  0
   -1.9291    4.6404   -1.0488 C   0  0  0  0  0  0  0  0  0  0  0  0
   -2.6797    4.8421   -0.2778 H   0  0  0  0  0  0  0  0  0  0  0  0
   -1.0276    5.2092   -0.7979 H   0  0  0  0  0  0  0  0  0  0  0  0
   -2.4568    5.1035   -2.4036 C   0  0  0  0  0  0  0  0  0  0  0  0
   -1.7014    4.9315   -3.1788 H   0  0  0  0  0  0  0  0  0  0  0  0
   -3.3548    4.5361   -2.6717 H   0  0  0  0  0  0  0  0  0  0  0  0
   -2.7713    6.5326   -2.3191 N   0  0  0  0  0  0  0  0  0  0  0  0
   -3.1266    6.8883   -3.2067 H   0  0  0  0  0  0  0  0  0  0  0  0
   -3.4270    6.7217   -1.5611 H   0  0  0  0  0  0  0  0  0  0  0  0
    0.1997    0.8168    1.5156 C   0  0  0  0  0  0  0  0  0  0  0  0
    0.4977    1.6648    2.3491 O   0  0  0  0  0  0  0  0  0  0  0  0
    0.7315   -0.4473    1.6795 N   0  0  0  0  0  0  0  0  0  0  0  0
    0.2873   -1.1811    1.1218 H   0  0  0  0  0  0  0  0  0  0  0  0
    1.5115   -0.8494    2.8432 C   0  0  0  0  0  0  0  0  0  0  0  0
    0.9042   -0.7877    3.7521 H   0  0  0  0  0  0  0  0  0  0  0  0
    1.8568   -1.8810    2.7248 H   0  0  0  0  0  0  0  0  0  0  0  0
    2.3885   -0.2043    2.9598 H   0  0  0  0  0  0  0  0  0  0  0  0
  1  2  1  0  0  0  0
  2  3  1  0  0  0  0
  2  4  1  0  0  0  0
  2  5  1  0  0  0  0
  5  6  2  0  0  0  0
  5  7  1  0  0  0  0
  7  8  1  0  0  0  0
  7  9  1  0  0  0  0
  9 10  1  0  0  0  0
  9 11  1  0  0  0  0
  9 26  1  0  0  0  0
 11 12  1  0  0  0  0
 11 13  1  0  0  0  0
 11 14  1  0  0  0  0
 14 15  1  0  0  0  0
 14 16  1  0  0  0  0
 14 17  1  0  0  0  0
 17 18  1  0  0  0  0
 17 19  1  0  0  0  0
 17 20  1  0  0  0  0
 20 21  1  0  0  0  0
 20 22  1  0  0  0  0
 20 23  1  0  0  0  0
 23 24  1  0  0  0  0
 23 25  1  0  0  0  0
 26 27  2  0  0  0  0
 26 28  1  0  0  0  0
 28 29  1  0  0  0  0
 28 30  1  0  0  0  0
 30 31  1  0  0  0  0
 30 32  1  0  0  0  0
 30 33  1  0  0  0  0
M  END
$$$$

  -OEChem-01062216083D

 33 32  0     1  0  0  0  0  0999 V2000
   -3.6495   -2.3754    1.1329 H   0  0  0  0  0  0  0  0  0  0  0  0
   -3.6505   -1.3396    0.7814 C   0  0  0  0  0  0  0  0  0  0  0  0
   -4.1339   -0.7150    1.5365 H   0  0  0  0  0  0  0  0  0  0  0  0
   -4.2208   -1.2840   -0.1490 H   0  0  0  0  0  0  0  0  0  0  0  0
   -2.2280   -0.8664    0.5479 C   0  0  0  0  0  0  0  0  0  0  0  0
   -1.3131   -1.6722    0.5946 O   0  0  0  0  0  0  0  0  0  0  0  0
   -2.0016    0.4372    0.1487 N   0  0  0  0  0  0  0  0  0  0  0  0
   -2.8408    1.0081    0.1158 H   0  0  0  0  0  0  0  0  0  0  0  0
   -0.7368    1.1924    0.2903 C   0  0  1  0  0  0  0  0  0  0  0  0
   -0.1268    0.9857   -0.5949 H   0  0  0  0  0  0  0  0  0  0  0  0
   -1.0886    2.6960    0.2825 C   0  0  0  0  0  0  0  0  0  0  0  0
   -1.8312    2.9055    1.0600 H   0  0  0  0  0  0  0  0  0  0  0  0
   -0.1904    3.2769    0.5211 H   0  0  0  0  0  0  0  0  0  0  0  0
   -1.6056    3.1607   -1.0880 C   0  0  0  0  0  0  0  0  0  0  0  0
   -0.8480    2.9594   -1.8527 H   0  0  0  0  0  0  0  0  0  0  0  0
   -2.5102    2.6065   -1.3562 H   0  0  0  0  0  0  0  0  0  0  0  0
   -1.9193    4.6605   -1.0613 C   0  0  0  0  0  0  0  0  0  0  0  0
   -2.6615    4.8656   -0.2831 H   0  0  0  0  0  0  0  0  0  0  0  0
   -1.0115    5.2227   -0.8181 H   0  0  0  0  0  0  0  0  0  0  0  0
   -2.4570    5.1304   -2.4099 C   0  0  0  0  0  0  0  0  0  0  0  0
   -1.7120    4.9554   -3.1941 H   0  0  0  0  0  0  0  0  0  0  0  0
   -3.3624    4.5708   -2.6695 H   0  0  0  0  0  0  0  0  0  0  0  0
   -2.7599    6.5614   -2.3166 N   0  0  0  0  0  0  0  0  0  0  0  0
   -3.1343    6.9203   -3.1950 H   0  0  0  0  0  0  0  0  0  0  0  0
   -3.3956    6.7543   -1.5426 H   0  0  0  0  0  0  0  0  0  0  0  0
    0.1730    0.8289    1.5014 C   0  0  0  0  0  0  0  0  0  0  0  0
    0.2715    1.5905    2.4573 O   0  0  0  0  0  0  0  0  0  0  0  0
    0.9250   -0.3302    1.5048 N   0  0  0  0  0  0  0  0  0  0  0  0
    0.5632   -1.0609    0.8876 H   0  0  0  0  0  0  0  0  0  0  0  0
    1.7109   -0.7535    2.6570 C   0  0  0  0  0  0  0  0  0  0  0  0
    1.0592   -0.9427    3.5162 H   0  0  0  0  0  0  0  0  0  0  0  0
    2.2557   -1.6729    2.4230 H   0  0  0  0  0  0  0  0  0  0  0  0
    2.4395    0.0171    2.9297 H   0  0  0  0  0  0  0  0  0  0  0  0
  1  2  1  0  0  0  0
  2  3  1  0  0  0  0
  2  4  1  0  0  0  0
  2  5  1  0  0  0  0
  5  6  2  0  0  0  0
  5  7  1  0  0  0  0
  7  8  1  0  0  0  0
  7  9  1  0  0  0  0
  9 10  1  0  0  0  0
  9 11  1  0  0  0  0
  9 26  1  0  0  0  0
 11 12  1  0  0  0  0
 11 13  1  0  0  0  0
 11 14  1  0  0  0  0
 14 15  1  0  0  0  0
 14 16  1  0  0  0  0
 14 17  1  0  0  0  0
 17 18  1  0  0  0  0
 17 19  1  0  0  0  0
 17 20  1  0  0  0  0
 20 21  1  0  0  0  0
 20 22  1  0  0  0  0
 20 23  1  0  0  0  0
 23 24  1  0  0  0  0
 23 25  1  0  0  0  0
 26 27  2  0  0  0  0
 26 28  1  0  0  0  0
 28 29  1  0  0  0  0
 28 30  1  0  0  0  0
 30 31  1  0  0  0  0
 30 32  1  0  0  0  0
 30 33  1  0  0  0  0
M  END
$$$$

  -OEChem-01062216083D

 33 32  0     1  0  0  0  0  0999 V2000
   -3.5300   -2.4069    1.1783 H   0  0  0  0  0  0  0  0  0  0  0  0
   -3.5679   -1.3674    0.8402 C   0  0  0  0  0  0  0  0  0  0  0  0
   -4.0336   -0.7618    1.6216 H   0  0  0  0  0  0  0  0  0  0  0  0
   -4.1757   -1.3132   -0.0661 H   0  0  0  0  0  0  0  0  0  0  0  0
   -2.1668   -0.8593    0.5576 C   0  0  0  0  0  0  0  0  0  0  0  0
   -1.2214   -1.6304    0.6082 O   0  0  0  0  0  0  0  0  0  0  0  0
   -1.9854    0.4401    0.1234 N   0  0  0  0  0  0  0  0  0  0  0  0
   -2.8338    0.9980    0.1198 H   0  0  0  0  0  0  0  0  0  0  0  0
   -0.7271    1.2025    0.2564 C   0  0  1  0  0  0  0  0  0  0  0  0
   -0.1113    0.9977   -0.6251 H   0  0  0  0  0  0  0  0  0  0  0  0
   -1.0771    2.7049    0.2578 C   0  0  0  0  0  0  0  0  0  0  0  0
   -1.8172    2.9101    1.0389 H   0  0  0  0  0  0  0  0  0  0  0  0
   -0.1773    3.2817    0.4994 H   0  0  0  0  0  0  0  0  0  0  0  0
   -1.6050    3.1759   -1.1062 C   0  0  0  0  0  0  0  0  0  0  0  0
   -0.8541    2.9767   -1.8784 H   0  0  0  0  0  0  0  0  0  0  0  0
   -2.5127    2.6233   -1.3683 H   0  0  0  0  0  0  0  0  0  0  0  0
   -1.9169    4.6761   -1.0709 C   0  0  0  0  0  0  0  0  0  0  0  0
   -2.6526    4.8790   -0.2859 H   0  0  0  0  0  0  0  0  0  0  0  0
   -1.0068    5.2368   -0.8329 H   0  0  0  0  0  0  0  0  0  0  0  0
   -2.4654    5.1515   -2.4135 C   0  0  0  0  0  0  0  0  0  0  0  0
   -1.7270    4.9787   -3.2044 H   0  0  0  0  0  0  0  0  0  0  0  0
   -3.3733    4.5931   -2.6671 H   0  0  0  0  0  0  0  0  0  0  0  0
   -2.7668    6.5822   -2.3142 N   0  0  0  0  0  0  0  0  0  0  0  0
   -3.1465    6.9434   -3.1893 H   0  0  0  0  0  0  0  0  0  0  0  0
   -3.3977    6.7735   -1.5358 H   0  0  0  0  0  0  0  0  0  0  0  0
    0.1512    0.8374    1.4856 C   0  0  0  0  0  0  0  0  0  0  0  0
    0.0480    1.4695    2.5311 O   0  0  0  0  0  0  0  0  0  0  0  0
    1.1125   -0.1507    1.3868 N   0  0  0  0  0  0  0  0  0  0  0  0
    0.9131   -0.8454    0.6673 H   0  0  0  0  0  0  0  0  0  0  0  0
    1.8900   -0.5914    2.5382 C   0  0  0  0  0  0  0  0  0  0  0  0
    1.2336   -1.0279    3.2983 H   0  0  0  0  0  0  0  0  0  0  0  0
    2.6194   -1.3473    2.2323 H   0  0  0  0  0  0  0  0  0  0  0  0
    2.4329    0.2501    2.9810 H   0  0  0  0  0  0  0  0  0  0  0  0
  1  2  1  0  0  0  0
  2  3  1  0  0  0  0
  2  4  1  0  0  0  0
  2  5  1  0  0  0  0
  5  6  2  0  0  0  0
  5  7  1  0  0  0  0
  7  8  1  0  0  0  0
  7  9  1  0  0  0  0
  9 10  1  0  0  0  0
  9 11  1  0  0  0  0
  9 26  1  0  0  0  0
 11 12  1  0  0  0  0
 11 13  1  0  0  0  0
 11 14  1  0  0  0  0
 14 15  1  0  0  0  0
 14 16  1  0  0  0  0
 14 17  1  0  0  0  0
 17 18  1  0  0  0  0
 17 19  1  0  0  0  0
 17 20  1  0  0  0  0
 20 21  1  0  0  0  0
 20 22  1  0  0  0  0
 20 23  1  0  0  0  0
 23 24  1  0  0  0  0
 23 25  1  0  0  0  0
 26 27  2  0  0  0  0
 26 28  1  0  0  0  0
 28 29  1  0  0  0  0
 28 30  1  0  0  0  0
 30 31  1  0  0  0  0
 30 32  1  0  0  0  0
 30 33  1  0  0  0  0
M  END
$$$$

  -OEChem-01062216083D

 33 32  0     1  0  0  0  0  0999 V2000
   -3.4673   -2.3995    1.2632 H   0  0  0  0  0  0  0  0  0  0  0  0
   -3.5296   -1.3809    0.8700 C   0  0  0  0  0  0  0  0  0  0  0  0
   -4.0128   -0.7465    1.6170 H   0  0  0  0  0  0  0  0  0  0  0  0
   -4.1346   -1.3898   -0.0397 H   0  0  0  0  0  0  0  0  0  0  0  0
   -2.1401   -0.8547    0.5646 C   0  0  0  0  0  0  0  0  0  0  0  0
   -1.1800   -1.6072    0.6208 O   0  0  0  0  0  0  0  0  0  0  0  0
   -1.9827    0.4400    0.1070 N   0  0  0  0  0  0  0  0  0  0  0  0
   -2.8350    0.9916    0.1177 H   0  0  0  0  0  0  0  0  0  0  0  0
   -0.7270    1.2051    0.2341 C   0  0  1  0  0  0  0  0  0  0  0  0
   -0.1096    0.9989   -0.6455 H   0  0  0  0  0  0  0  0  0  0  0  0
   -1.0720    2.7067    0.2436 C   0  0  0  0  0  0  0  0  0  0  0  0
   -1.8084    2.9106    1.0286 H   0  0  0  0  0  0  0  0  0  0  0  0
   -0.1693    3.2789    0.4851 H   0  0  0  0  0  0  0  0  0  0  0  0
   -1.6071    3.1826   -1.1155 C   0  0  0  0  0  0  0  0  0  0  0  0
   -0.8624    2.9832   -1.8932 H   0  0  0  0  0  0  0  0  0  0  0  0
   -2.5182    2.6328   -1.3721 H   0  0  0  0  0  0  0  0  0  0  0  0
   -1.9148    4.6831   -1.0741 C   0  0  0  0  0  0  0  0  0  0  0  0
   -2.6454    4.8855   -0.2841 H   0  0  0  0  0  0  0  0  0  0  0  0
   -1.0018    5.2410   -0.8404 H   0  0  0  0  0  0  0  0  0  0  0  0
   -2.4703    5.1624   -2.4122 C   0  0  0  0  0  0  0  0  0  0  0  0
   -1.7370    4.9892   -3.2076 H   0  0  0  0  0  0  0  0  0  0  0  0
   -3.3808    4.6064   -2.6618 H   0  0  0  0  0  0  0  0  0  0  0  0
   -2.7680    6.5939   -2.3088 N   0  0  0  0  0  0  0  0  0  0  0  0
   -3.1580    6.9558   -3.1793 H   0  0  0  0  0  0  0  0  0  0  0  0
   -3.3903    6.7847   -1.5234 H   0  0  0  0  0  0  0  0  0  0  0  0
    0.1351    0.8443    1.4731 C   0  0  0  0  0  0  0  0  0  0  0  0
   -0.1535    1.3004    2.5741 O   0  0  0  0  0  0  0  0  0  0  0  0
    1.2839    0.0885    1.3285 N   0  0  0  0  0  0  0  0  0  0  0  0
    1.3173   -0.4829    0.4878 H   0  0  0  0  0  0  0  0  0  0  0  0
    2.0697   -0.3521    2.4744 C   0  0  0  0  0  0  0  0  0  0  0  0
    1.4689   -0.9962    3.1249 H   0  0  0  0  0  0  0  0  0  0  0  0
    2.9443   -0.9164    2.1372 H   0  0  0  0  0  0  0  0  0  0  0  0
    2.4191    0.5082    3.0548 H   0  0  0  0  0  0  0  0  0  0  0  0
  1  2  1  0  0  0  0
  2  3  1  0  0  0  0
  2  4  1  0  0  0  0
  2  5  1  0  0  0  0
  5  6  2  0  0  0  0
  5  7  1  0  0  0  0
  7  8  1  0  0  0  0
  7  9  1  0  0  0  0
  9 10  1  0  0  0  0
  9 11  1  0  0  0  0
  9 26  1  0  0  0  0
 11 12  1  0  0  0  0
 11 13  1  0  0  0  0
 11 14  1  0  0  0  0
 14 15  1  0  0  0  0
 14 16  1  0  0  0  0
 14 17  1  0  0  0  0
 17 18  1  0  0  0  0
 17 19  1  0  0  0  0
 17 20  1  0  0  0  0
 20 21  1  0  0  0  0
 20 22  1  0  0  0  0
 20 23  1  0  0  0  0
 23 24  1  0  0  0  0
 23 25  1  0  0  0  0
 26 27  2  0  0  0  0
 26 28  1  0  0  0  0
 28 29  1  0  0  0  0
 28 30  1  0  0  0  0
 30 31  1  0  0  0  0
 30 32  1  0  0  0  0
 30 33  1  0  0  0  0
M  END
$$$$

  -OEChem-01062216083D

 33 32  0     1  0  0  0  0  0999 V2000
   -3.4317   -2.4136    1.2772 H   0  0  0  0  0  0  0  0  0  0  0  0
   -3.5046   -1.3873    0.9061 C   0  0  0  0  0  0  0  0  0  0  0  0
   -3.9559   -0.7654    1.6832 H   0  0  0  0  0  0  0  0  0  0  0  0
   -4.1441   -1.3763    0.0202 H   0  0  0  0  0  0  0  0  0  0  0  0
   -2.1256   -0.8597    0.5581 C   0  0  0  0  0  0  0  0  0  0  0  0
   -1.1608   -1.6080    0.5918 O   0  0  0  0  0  0  0  0  0  0  0  0
   -1.9843    0.4319    0.0864 N   0  0  0  0  0  0  0  0  0  0  0  0
   -2.8379    0.9797    0.1261 H   0  0  0  0  0  0  0  0  0  0  0  0
   -0.7317    1.2005    0.2166 C   0  0  1  0  0  0  0  0  0  0  0  0
   -0.1114    0.9912   -0.6600 H   0  0  0  0  0  0  0  0  0  0  0  0
   -1.0749    2.7012    0.2305 C   0  0  0  0  0  0  0  0  0  0  0  0
   -1.8119    2.9029    1.0157 H   0  0  0  0  0  0  0  0  0  0  0  0
   -0.1718    3.2712    0.4743 H   0  0  0  0  0  0  0  0  0  0  0  0
   -1.6086    3.1827   -1.1270 C   0  0  0  0  0  0  0  0  0  0  0  0
   -0.8631    2.9860   -1.9048 H   0  0  0  0  0  0  0  0  0  0  0  0
   -2.5202    2.6351   -1.3867 H   0  0  0  0  0  0  0  0  0  0  0  0
   -1.9142    4.6836   -1.0788 C   0  0  0  0  0  0  0  0  0  0  0  0
   -2.6444    4.8836   -0.2877 H   0  0  0  0  0  0  0  0  0  0  0  0
   -1.0002    5.2384   -0.8425 H   0  0  0  0  0  0  0  0  0  0  0  0
   -2.4686    5.1714   -2.4141 C   0  0  0  0  0  0  0  0  0  0  0  0
   -1.7349    5.0013   -3.2100 H   0  0  0  0  0  0  0  0  0  0  0  0
   -3.3803    4.6190   -2.6674 H   0  0  0  0  0  0  0  0  0  0  0  0
   -2.7631    6.6028   -2.3012 N   0  0  0  0  0  0  0  0  0  0  0  0
   -3.1369    6.9748   -3.1744 H   0  0  0  0  0  0  0  0  0  0  0  0
   -3.3981    6.7878   -1.5246 H   0  0  0  0  0  0  0  0  0  0  0  0
    0.1191    0.8485    1.4642 C   0  0  0  0  0  0  0  0  0  0  0  0
   -0.3151    1.0985    2.5836 O   0  0  0  0  0  0  0  0  0  0  0  0
    1.4096    0.3708    1.3235 N   0  0  0  0  0  0  0  0  0  0  0  0
    1.6475   -0.0041    0.4099 H   0  0  0  0  0  0  0  0  0  0  0  0
    2.2092   -0.0548    2.4653 C   0  0  0  0  0  0  0  0  0  0  0  0
    1.7240   -0.8911    2.9796 H   0  0  0  0  0  0  0  0  0  0  0  0
    3.2003   -0.3782    2.1332 H   0  0  0  0  0  0  0  0  0  0  0  0
    2.3368    0.7699    3.1745 H   0  0  0  0  0  0  0  0  0  0  0  0
  1  2  1  0  0  0  0
  2  3  1  0  0  0  0
  2  4  1  0  0  0  0
  2  5  1  0  0  0  0
  5  6  2  0  0  0  0
  5  7  1  0  0  0  0
  7  8  1  0  0  0  0
  7  9  1  0  0  0  0
  9 10  1  0  0  0  0
  9 11  1  0  0  0  0
  9 26  1  0  0  0  0
 11 12  1  0  0  0  0
 11 13  1  0  0  0  0
 11 14  1  0  0  0  0
 14 15  1  0  0  0  0
 14 16  1  0  0  0  0
 14 17  1  0  0  0  0
 17 18  1  0  0  0  0
 17 19  1  0  0  0  0
 17 20  1  0  0  0  0
 20 21  1  0  0  0  0
 20 22  1  0  0  0  0
 20 23  1  0  0  0  0
 23 24  1  0  0  0  0
 23 25  1  0  0  0  0
 26 27  2  0  0  0  0
 26 28  1  0  0  0  0
 28 29  1  0  0  0  0
 28 30  1  0  0  0  0
 30 31  1  0  0  0  0
 30 32  1  0  0  0  0
 30 33  1  0  0  0  0
M  END
$$$$

  -OEChem-01062216083D

 33 32  0     1  0  0  0  0  0999 V2000
   -3.4273   -2.4292    1.2609 H   0  0  0  0  0  0  0  0  0  0  0  0
   -3.5018   -1.3920    0.9225 C   0  0  0  0  0  0  0  0  0  0  0  0
   -3.9173   -0.7878    1.7326 H   0  0  0  0  0  0  0  0  0  0  0  0
   -4.1724   -1.3491    0.0613 H   0  0  0  0  0  0  0  0  0  0  0  0
   -2.1299   -0.8692    0.5406 C   0  0  0  0  0  0  0  0  0  0  0  0
   -1.1686   -1.6230    0.5379 O   0  0  0  0  0  0  0  0  0  0  0  0
   -1.9932    0.4226    0.0668 N   0  0  0  0  0  0  0  0  0  0  0  0
   -2.8448    0.9708    0.1326 H   0  0  0  0  0  0  0  0  0  0  0  0
   -0.7393    1.1884    0.2068 C   0  0  1  0  0  0  0  0  0  0  0  0
   -0.1151    0.9774   -0.6668 H   0  0  0  0  0  0  0  0  0  0  0  0
   -1.0787    2.6892    0.2288 C   0  0  0  0  0  0  0  0  0  0  0  0
   -1.8184    2.8869    1.0124 H   0  0  0  0  0  0  0  0  0  0  0  0
   -0.1756    3.2566    0.4793 H   0  0  0  0  0  0  0  0  0  0  0  0
   -1.6058    3.1781   -1.1285 C   0  0  0  0  0  0  0  0  0  0  0  0
   -0.8584    2.9822   -1.9047 H   0  0  0  0  0  0  0  0  0  0  0  0
   -2.5177    2.6335   -1.3937 H   0  0  0  0  0  0  0  0  0  0  0  0
   -1.9088    4.6793   -1.0759 C   0  0  0  0  0  0  0  0  0  0  0  0
   -2.6424    4.8776   -0.2877 H   0  0  0  0  0  0  0  0  0  0  0  0
   -0.9953    5.2321   -0.8331 H   0  0  0  0  0  0  0  0  0  0  0  0
   -2.4567    5.1718   -2.4124 C   0  0  0  0  0  0  0  0  0  0  0  0
   -1.7203    5.0027   -3.2061 H   0  0  0  0  0  0  0  0  0  0  0  0
   -3.3688    4.6219   -2.6703 H   0  0  0  0  0  0  0  0  0  0  0  0
   -2.7496    6.6033   -2.2970 N   0  0  0  0  0  0  0  0  0  0  0  0
   -3.1287    6.9760   -3.1677 H   0  0  0  0  0  0  0  0  0  0  0  0
   -3.3795    6.7885   -1.5164 H   0  0  0  0  0  0  0  0  0  0  0  0
    0.1042    0.8375    1.4595 C   0  0  0  0  0  0  0  0  0  0  0  0
   -0.4135    0.8912    2.5703 O   0  0  0  0  0  0  0  0  0  0  0  0
    1.4722    0.6576    1.3586 N   0  0  0  0  0  0  0  0  0  0  0  0
    1.8443    0.5003    0.4271 H   0  0  0  0  0  0  0  0  0  0  0  0
    2.3012    0.3014    2.5036 C   0  0  0  0  0  0  0  0  0  0  0  0
    1.9836   -0.6606    2.9196 H   0  0  0  0  0  0  0  0  0  0  0  0
    3.3498    0.2206    2.2014 H   0  0  0  0  0  0  0  0  0  0  0  0
    2.2263    1.0650    3.2850 H   0  0  0  0  0  0  0  0  0  0  0  0
  1  2  1  0  0  0  0
  2  3  1  0  0  0  0
  2  4  1  0  0  0  0
  2  5  1  0  0  0  0
  5  6  2  0  0  0  0
  5  7  1  0  0  0  0
  7  8  1  0  0  0  0
  7  9  1  0  0  0  0
  9 10  1  0  0  0  0
  9 11  1  0  0  0  0
  9 26  1  0  0  0  0
 11 12  1  0  0  0  0
 11 13  1  0  0  0  0
 11 14  1  0  0  0  0
 14 15  1  0  0  0  0
 14 16  1  0  0  0  0
 14 17  1  0  0  0  0
 17 18  1  0  0  0  0
 17 19  1  0  0  0  0
 17 20  1  0  0  0  0
 20 21  1  0  0  0  0
 20 22  1  0  0  0  0
 20 23  1  0  0  0  0
 23 24  1  0  0  0  0
 23 25  1  0  0  0  0
 26 27  2  0  0  0  0
 26 28  1  0  0  0  0
 28 29  1  0  0  0  0
 28 30  1  0  0  0  0
 30 31  1  0  0  0  0
 30 32  1  0  0  0  0
 30 33  1  0  0  0  0
M  END
$$$$

  -OEChem-01062216083D

 33 32  0     1  0  0  0  0  0999 V2000
   -3.4412   -2.4429    1.2388 H   0  0  0  0  0  0  0  0  0  0  0  0
   -3.5094   -1.3958    0.9310 C   0  0  0  0  0  0  0  0  0  0  0  0
   -3.8846   -0.8077    1.7722 H   0  0  0  0  0  0  0  0  0  0  0  0
   -4.2091   -1.3175    0.0957 H   0  0  0  0  0  0  0  0  0  0  0  0
   -2.1428   -0.8851    0.5160 C   0  0  0  0  0  0  0  0  0  0  0  0
   -1.1907   -1.6496    0.4750 O   0  0  0  0  0  0  0  0  0  0  0  0
   -2.0025    0.4083    0.0479 N   0  0  0  0  0  0  0  0  0  0  0  0
   -2.8498    0.9602    0.1319 H   0  0  0  0  0  0  0  0  0  0  0  0
   -0.7452    1.1665    0.2019 C   0  0  1  0  0  0  0  0  0  0  0  0
   -0.1170    0.9554   -0.6687 H   0  0  0  0  0  0  0  0  0  0  0  0
   -1.0831    2.6676    0.2305 C   0  0  0  0  0  0  0  0  0  0  0  0
   -1.8282    2.8602    1.0102 H   0  0  0  0  0  0  0  0  0  0  0  0
   -0.1824    3.2342    0.4910 H   0  0  0  0  0  0  0  0  0  0  0  0
   -1.5997    3.1660   -1.1276 C   0  0  0  0  0  0  0  0  0  0  0  0
   -0.8470    2.9741   -1.8998 H   0  0  0  0  0  0  0  0  0  0  0  0
   -2.5104    2.6243   -1.4031 H   0  0  0  0  0  0  0  0  0  0  0  0
   -1.9010    4.6674   -1.0666 C   0  0  0  0  0  0  0  0  0  0  0  0
   -2.6407    4.8601   -0.2828 H   0  0  0  0  0  0  0  0  0  0  0  0
   -0.9888    5.2173   -0.8125 H   0  0  0  0  0  0  0  0  0  0  0  0
   -2.4385    5.1717   -2.4030 C   0  0  0  0  0  0  0  0  0  0  0  0
   -1.6971    5.0074   -3.1930 H   0  0  0  0  0  0  0  0  0  0  0  0
   -3.3493    4.6253   -2.6722 H   0  0  0  0  0  0  0  0  0  0  0  0
   -2.7297    6.6029   -2.2782 N   0  0  0  0  0  0  0  0  0  0  0  0
   -3.0959    6.9845   -3.1506 H   0  0  0  0  0  0  0  0  0  0  0  0
   -3.3702    6.7824   -1.5049 H   0  0  0  0  0  0  0  0  0  0  0  0
    0.0978    0.8157    1.4560 C   0  0  0  0  0  0  0  0  0  0  0  0
   -0.4545    0.6867    2.5438 O   0  0  0  0  0  0  0  0  0  0  0  0
    1.4756    0.9391    1.4220 N   0  0  0  0  0  0  0  0  0  0  0  0
    1.9126    0.9990    0.5077 H   0  0  0  0  0  0  0  0  0  0  0  0
    2.3200    0.6890    2.5840 C   0  0  0  0  0  0  0  0  0  0  0  0
    2.1895   -0.3392    2.9379 H   0  0  0  0  0  0  0  0  0  0  0  0
    3.3730    0.8359    2.3254 H   0  0  0  0  0  0  0  0  0  0  0  0
    2.0659    1.3764    3.3979 H   0  0  0  0  0  0  0  0  0  0  0  0
  1  2  1  0  0  0  0
  2  3  1  0  0  0  0
  2  4  1  0  0  0  0
  2  5  1  0  0  0  0
  5  6  2  0  0  0  0
  5  7  1  0  0  0  0
  7  8  1  0  0  0  0
  7  9  1  0  0  0  0
  9 10  1  0  0  0  0
  9 11  1  0  0  0  0
  9 26  1  0  0  0  0
 11 12  1  0  0  0  0
 11 13  1  0  0  0  0
 11 14  1  0  0  0  0
 14 15  1  0  0  0  0
 14 16  1  0  0  0  0
 14 17  1  0  0  0  0
 17 18  1  0  0  0  0
 17 19  1  0  0  0  0
 17 20  1  0  0  0  0
 20 21  1  0  0  0  0
 20 22  1  0  0  0  0
 20 23  1  0  0  0  0
 23 24  1  0  0  0  0
 23 25  1  0  0  0  0
 26 27  2  0  0  0  0
 26 28  1  0  0  0  0
 28 29  1  0  0  0  0
 28 30  1  0  0  0  0
 30 31  1  0  0  0  0
 30 32  1  0  0  0  0
 30 33  1  0  0  0  0
M  END
$$$$

  -OEChem-01062216083D

 33 32  0     1  0  0  0  0  0999 V2000
   -3.4525   -2.4365    1.2468 H   0  0  0  0  0  0  0  0  0  0  0  0
   -3.5181   -1.3904    0.9348 C   0  0  0  0  0  0  0  0  0  0  0  0
   -3.8681   -0.7944    1.7810 H   0  0  0  0  0  0  0  0  0  0  0  0
   -4.2356   -1.3094    0.1151 H   0  0  0  0  0  0  0  0  0  0  0  0
   -2.1559   -0.8963    0.4866 C   0  0  0  0  0  0  0  0  0  0  0  0
   -1.2208   -1.6773    0.3943 O   0  0  0  0  0  0  0  0  0  0  0  0
   -2.0052    0.4006    0.0310 N   0  0  0  0  0  0  0  0  0  0  0  0
   -2.8466    0.9581    0.1347 H   0  0  0  0  0  0  0  0  0  0  0  0
   -0.7409    1.1465    0.1975 C   0  0  1  0  0  0  0  0  0  0  0  0
   -0.1123    0.9393   -0.6740 H   0  0  0  0  0  0  0  0  0  0  0  0
   -1.0810    2.6480    0.2355 C   0  0  0  0  0  0  0  0  0  0  0  0
   -1.8300    2.8341    1.0131 H   0  0  0  0  0  0  0  0  0  0  0  0
   -0.1846    3.2178    0.5027 H   0  0  0  0  0  0  0  0  0  0  0  0
   -1.5908    3.1553   -1.1213 C   0  0  0  0  0  0  0  0  0  0  0  0
   -0.8335    2.9708   -1.8905 H   0  0  0  0  0  0  0  0  0  0  0  0
   -2.4992    2.6151   -1.4065 H   0  0  0  0  0  0  0  0  0  0  0  0
   -1.8941    4.6554   -1.0505 C   0  0  0  0  0  0  0  0  0  0  0  0
   -2.6374    4.8428   -0.2687 H   0  0  0  0  0  0  0  0  0  0  0  0
   -0.9833    5.2048   -0.7892 H   0  0  0  0  0  0  0  0  0  0  0  0
   -2.4247    5.1661   -2.3869 C   0  0  0  0  0  0  0  0  0  0  0  0
   -1.6765    5.0090   -3.1717 H   0  0  0  0  0  0  0  0  0  0  0  0
   -3.3317    4.6188   -2.6667 H   0  0  0  0  0  0  0  0  0  0  0  0
   -2.7192    6.5956   -2.2548 N   0  0  0  0  0  0  0  0  0  0  0  0
   -3.0630    6.9859   -3.1324 H   0  0  0  0  0  0  0  0  0  0  0  0
   -3.3802    6.7665   -1.4968 H   0  0  0  0  0  0  0  0  0  0  0  0
    0.1091    0.7899    1.4481 C   0  0  0  0  0  0  0  0  0  0  0  0
   -0.4406    0.4747    2.4987 O   0  0  0  0  0  0  0  0  0  0  0  0
    1.4302    1.1990    1.5121 N   0  0  0  0  0  0  0  0  0  0  0  0
    1.8755    1.4765    0.6431 H   0  0  0  0  0  0  0  0  0  0  0  0
    2.2539    1.0549    2.7066 C   0  0  0  0  0  0  0  0  0  0  0  0
    2.3133    0.0032    3.0064 H   0  0  0  0  0  0  0  0  0  0  0  0
    3.2676    1.4177    2.5128 H   0  0  0  0  0  0  0  0  0  0  0  0
    1.8325    1.6343    3.5348 H   0  0  0  0  0  0  0  0  0  0  0  0
  1  2  1  0  0  0  0
  2  3  1  0  0  0  0
  2  4  1  0  0  0  0
  2  5  1  0  0  0  0
  5  6  2  0  0  0  0
  5  7  1  0  0  0  0
  7  8  1  0  0  0  0
  7  9  1  0  0  0  0
  9 10  1  0  0  0  0
  9 11  1  0  0  0  0
  9 26  1  0  0  0  0
 11 12  1  0  0  0  0
 11 13  1  0  0  0  0
 11 14  1  0  0  0  0
 14 15  1  0  0  0  0
 14 16  1  0  0  0  0
 14 17  1  0  0  0  0
 17 18  1  0  0  0  0
 17 19  1  0  0  0  0
 17 20  1  0  0  0  0
 20 21  1  0  0  0  0
 20 22  1  0  0  0  0
 20 23  1  0  0  0  0
 23 24  1  0  0  0  0
 23 25  1  0  0  0  0
 26 27  2  0  0  0  0
 26 28  1  0  0  0  0
 28 29  1  0  0  0  0
 28 30  1  0  0  0  0
 30 31  1  0  0  0  0
 30 32  1  0  0  0  0
 30 33  1  0  0  0  0
M  END
$$$$

  -OEChem-01062216083D

 33 32  0     1  0  0  0  0  0999 V2000
   -3.5891   -2.3522    1.1855 H   0  0  0  0  0  0  0  0  0  0  0  0
   -3.5872   -1.2880    0.9336 C   0  0  0  0  0  0  0  0  0  0  0  0
   -3.8216   -0.7153    1.8338 H   0  0  0  0  0  0  0  0  0  0  0  0
   -4.3533   -1.1021    0.1774 H   0  0  0  0  0  0  0  0  0  0  0  0
   -2.2237   -0.8834    0.4060 C   0  0  0  0  0  0  0  0  0  0  0  0
   -1.4102   -1.7426    0.1054 O   0  0  0  0  0  0  0  0  0  0  0  0
   -1.9937    0.4207    0.0091 N   0  0  0  0  0  0  0  0  0  0  0  0
   -2.8081    1.0091    0.1472 H   0  0  0  0  0  0  0  0  0  0  0  0
   -0.7068    1.1269    0.2083 C   0  0  1  0  0  0  0  0  0  0  0  0
   -0.1975    1.1491   -0.7602 H   0  0  0  0  0  0  0  0  0  0  0  0
   -1.0633    2.5703    0.6273 C   0  0  0  0  0  0  0  0  0  0  0  0
   -1.7278    2.5428    1.4979 H   0  0  0  0  0  0  0  0  0  0  0  0
   -0.1586    3.1077    0.9281 H   0  0  0  0  0  0  0  0  0  0  0  0
   -1.7215    3.3573   -0.5170 C   0  0  0  0  0  0  0  0  0  0  0  0
   -1.0481    3.3834   -1.3802 H   0  0  0  0  0  0  0  0  0  0  0  0
   -2.6487    2.8660   -0.8285 H   0  0  0  0  0  0  0  0  0  0  0  0
   -2.0350    4.7883   -0.0679 C   0  0  0  0  0  0  0  0  0  0  0  0
   -2.6932    4.7616    0.8064 H   0  0  0  0  0  0  0  0  0  0  0  0
   -1.1089    5.2956    0.2221 H   0  0  0  0  0  0  0  0  0  0  0  0
   -2.7116    5.5760   -1.1863 C   0  0  0  0  0  0  0  0  0  0  0  0
   -2.0512    5.6336   -2.0589 H   0  0  0  0  0  0  0  0  0  0  0  0
   -3.6374    5.0763   -1.4924 H   0  0  0  0  0  0  0  0  0  0  0  0
   -3.0070    6.9236   -0.6918 N   0  0  0  0  0  0  0  0  0  0  0  0
   -3.4450    7.4960   -1.4139 H   0  0  0  0  0  0  0  0  0  0  0  0
   -3.5863    6.8898    0.1471 H   0  0  0  0  0  0  0  0  0  0  0  0
    0.3371    0.5383    1.2072 C   0  0  0  0  0  0  0  0  0  0  0  0
   -0.0080   -0.1764    2.1405 O   0  0  0  0  0  0  0  0  0  0  0  0
    1.5422    1.2023    1.3799 N   0  0  0  0  0  0  0  0  0  0  0  0
    1.8130    1.8703    0.6654 H   0  0  0  0  0  0  0  0  0  0  0  0
    2.4901    0.8967    2.4465 C   0  0  0  0  0  0  0  0  0  0  0  0
    2.7639   -0.1634    2.4236 H   0  0  0  0  0  0  0  0  0  0  0  0
    3.4009    1.4907    2.3258 H   0  0  0  0  0  0  0  0  0  0  0  0
    2.0538    1.1270    3.4240 H   0  0  0  0  0  0  0  0  0  0  0  0
  1  2  1  0  0  0  0
  2  3  1  0  0  0  0
  2  4  1  0  0  0  0
  2  5  1  0  0  0  0
  5  6  2  0  0  0  0
  5  7  1  0  0  0  0
  7  8  1  0  0  0  0
  7  9  1  0  0  0  0
  9 10  1  0  0  0  0
  9 11  1  0  0  0  0
  9 26  1  0  0  0  0
 11 12  1  0  0  0  0
 11 13  1  0  0  0  0
 11 14  1  0  0  0  0
 14 15  1  0  0  0  0
 14 16  1  0  0  0  0
 14 17  1  0  0  0  0
 17 18  1  0  0  0  0
 17 19  1  0  0  0  0
 17 20  1  0  0  0  0
 20 21  1  0  0  0  0
 20 22  1  0  0  0  0
 20 23  1  0  0  0  0
 23 24  1  0  0  0  0
 23 25  1  0  0  0  0
 26 27  2  0  0  0  0
 26 28  1  0  0  0  0
 28 29  1  0  0  0  0
 28 30  1  0  0  0  0
 30 31  1  0  0  0  0
 30 32  1  0  0  0  0
 30 33  1  0  0  0  0
M  END
$$$$

  -OEChem-01062216083D

 33 32  0     1  0  0  0  0  0999 V2000
   -3.5714   -2.3138    1.1975 H   0  0  0  0  0  0  0  0  0  0  0  0
   -3.5543   -1.2435    0.9728 C   0  0  0  0  0  0  0  0  0  0  0  0
   -3.7133   -0.6896    1.9008 H   0  0  0  0  0  0  0  0  0  0  0  0
   -4.3612   -1.0151    0.2727 H   0  0  0  0  0  0  0  0  0  0  0  0
   -2.2156   -0.8638    0.3689 C   0  0  0  0  0  0  0  0  0  0  0  0
   -1.4719   -1.7363   -0.0485 O   0  0  0  0  0  0  0  0  0  0  0  0
   -1.9675    0.4463    0.0070 N   0  0  0  0  0  0  0  0  0  0  0  0
   -2.7769    1.0354    0.1686 H   0  0  0  0  0  0  0  0  0  0  0  0
   -0.6816    1.1500    0.2298 C   0  0  1  0  0  0  0  0  0  0  0  0
   -0.1649    1.1846   -0.7343 H   0  0  0  0  0  0  0  0  0  0  0  0
   -1.0745    2.5904    0.6396 C   0  0  0  0  0  0  0  0  0  0  0  0
   -1.7571    2.5532    1.4957 H   0  0  0  0  0  0  0  0  0  0  0  0
   -0.1916    3.1534    0.9546 H   0  0  0  0  0  0  0  0  0  0  0  0
   -1.7194    3.3656   -0.5215 C   0  0  0  0  0  0  0  0  0  0  0  0
   -1.0252    3.4034   -1.3678 H   0  0  0  0  0  0  0  0  0  0  0  0
   -2.6298    2.8588   -0.8567 H   0  0  0  0  0  0  0  0  0  0  0  0
   -2.0690    4.7914   -0.0809 C   0  0  0  0  0  0  0  0  0  0  0  0
   -2.7477    4.7535    0.7774 H   0  0  0  0  0  0  0  0  0  0  0  0
   -1.1594    5.3155    0.2308 H   0  0  0  0  0  0  0  0  0  0  0  0
   -2.7326    5.5669   -1.2155 C   0  0  0  0  0  0  0  0  0  0  0  0
   -2.0518    5.6364   -2.0713 H   0  0  0  0  0  0  0  0  0  0  0  0
   -3.6417    5.0510   -1.5443 H   0  0  0  0  0  0  0  0  0  0  0  0
   -3.0633    6.9090   -0.7282 N   0  0  0  0  0  0  0  0  0  0  0  0
   -3.4978    7.4721   -1.4598 H   0  0  0  0  0  0  0  0  0  0  0  0
   -3.6590    6.8646    0.0986 H   0  0  0  0  0  0  0  0  0  0  0  0
    0.3764    0.5598    1.2230 C   0  0  0  0  0  0  0  0  0  0  0  0
    0.1514   -0.4123    1.9300 O   0  0  0  0  0  0  0  0  0  0  0  0
    1.4242    1.3607    1.6540 N   0  0  0  0  0  0  0  0  0  0  0  0
    1.6056    2.2114    1.1311 H   0  0  0  0  0  0  0  0  0  0  0  0
    2.3446    0.9924    2.7258 C   0  0  0  0  0  0  0  0  0  0  0  0
    2.8344    0.0390    2.5008 H   0  0  0  0  0  0  0  0  0  0  0  0
    3.1169    1.7588    2.8406 H   0  0  0  0  0  0  0  0  0  0  0  0
    1.8088    0.8974    3.6762 H   0  0  0  0  0  0  0  0  0  0  0  0
  1  2  1  0  0  0  0
  2  3  1  0  0  0  0
  2  4  1  0  0  0  0
  2  5  1  0  0  0  0
  5  6  2  0  0  0  0
  5  7  1  0  0  0  0
  7  8  1  0  0  0  0
  7  9  1  0  0  0  0
  9 10  1  0  0  0  0
  9 11  1  0  0  0  0
  9 26  1  0  0  0  0
 11 12  1  0  0  0  0
 11 13  1  0  0  0  0
 11 14  1  0  0  0  0
 14 15  1  0  0  0  0
 14 16  1  0  0  0  0
 14 17  1  0  0  0  0
 17 18  1  0  0  0  0
 17 19  1  0  0  0  0
 17 20  1  0  0  0  0
 20 21  1  0  0  0  0
 20 22  1  0  0  0  0
 20 23  1  0  0  0  0
 23 24  1  0  0  0  0
 23 25  1  0  0  0  0
 26 27  2  0  0  0  0
 26 28  1  0  0  0  0
 28 29  1  0  0  0  0
 28 30  1  0  0  0  0
 30 31  1  0  0  0  0
 30 32  1  0  0  0  0
 30 33  1  0  0  0  0
M  END
$$$$

  -OEChem-01062216083D

 33 32  0     1  0  0  0  0  0999 V2000
   -3.5536   -2.4984    0.9782 H   0  0  0  0  0  0  0  0  0  0  0  0
   -3.4603   -1.5661    0.4139 C   0  0  0  0  0  0  0  0  0  0  0  0
   -4.4448   -1.0987    0.3367 H   0  0  0  0  0  0  0  0  0  0  0  0
   -3.0923   -1.8006   -0.5877 H   0  0  0  0  0  0  0  0  0  0  0  0
   -2.4935   -0.6309    1.1156 C   0  0  0  0  0  0  0  0  0  0  0  0
   -2.2069   -0.8398    2.2819 O   0  0  0  0  0  0  0  0  0  0  0  0
   -2.1995    0.5946    0.5467 N   0  0  0  0  0  0  0  0  0  0  0  0
   -2.7362    0.7514   -0.2993 H   0  0  0  0  0  0  0  0  0  0  0  0
   -0.8569    1.2241    0.5135 C   0  0  1  0  0  0  0  0  0  0  0  0
   -0.4505    1.1098   -0.4962 H   0  0  0  0  0  0  0  0  0  0  0  0
   -1.0984    2.7285    0.7816 C   0  0  0  0  0  0  0  0  0  0  0  0
   -1.6581    2.8457    1.7165 H   0  0  0  0  0  0  0  0  0  0  0  0
   -0.1443    3.2501    0.8963 H   0  0  0  0  0  0  0  0  0  0  0  0
   -1.8457    3.4137   -0.3736 C   0  0  0  0  0  0  0  0  0  0  0  0
   -1.2770    3.2973   -1.3024 H   0  0  0  0  0  0  0  0  0  0  0  0
   -2.8261    2.9484   -0.5153 H   0  0  0  0  0  0  0  0  0  0  0  0
   -2.0366    4.9038   -0.0698 C   0  0  0  0  0  0  0  0  0  0  0  0
   -2.5914    5.0172    0.8674 H   0  0  0  0  0  0  0  0  0  0  0  0
   -1.0604    5.3840    0.0554 H   0  0  0  0  0  0  0  0  0  0  0  0
   -2.7985    5.6003   -1.1933 C   0  0  0  0  0  0  0  0  0  0  0  0
   -2.2416    5.5179   -2.1332 H   0  0  0  0  0  0  0  0  0  0  0  0
   -3.7771    5.1284   -1.3344 H   0  0  0  0  0  0  0  0  0  0  0  0
   -2.9672    7.0106   -0.8317 N   0  0  0  0  0  0  0  0  0  0  0  0
   -3.4683    7.5225   -1.5581 H   0  0  0  0  0  0  0  0  0  0  0  0
   -3.4356    7.1060    0.0697 H   0  0  0  0  0  0  0  0  0  0  0  0
    0.2480    0.6449    1.4502 C   0  0  0  0  0  0  0  0  0  0  0  0
    0.5225   -0.5455    1.3570 O   0  0  0  0  0  0  0  0  0  0  0  0
    1.2566    1.4471    1.9633 N   0  0  0  0  0  0  0  0  0  0  0  0
    1.0690    2.4423    2.0206 H   0  0  0  0  0  0  0  0  0  0  0  0
    2.4206    0.9205    2.6682 C   0  0  0  0  0  0  0  0  0  0  0  0
    3.0389    0.3206    1.9924 H   0  0  0  0  0  0  0  0  0  0  0  0
    3.0307    1.7415    3.0564 H   0  0  0  0  0  0  0  0  0  0  0  0
    2.1079    0.2932    3.5097 H   0  0  0  0  0  0  0  0  0  0  0  0
  1  2  1  0  0  0  0
  2  3  1  0  0  0  0
  2  4  1  0  0  0  0
  2  5  1  0  0  0  0
  5  6  2  0  0  0  0
  5  7  1  0  0  0  0
  7  8  1  0  0  0  0
  7  9  1  0  0  0  0
  9 10  1  0  0  0  0
  9 11  1  0  0  0  0
  9 26  1  0  0  0  0
 11 12  1  0  0  0  0
 11 13  1  0  0  0  0
 11 14  1  0  0  0  0
 14 15  1  0  0  0  0
 14 16  1  0  0  0  0
 14 17  1  0  0  0  0
 17 18  1  0  0  0  0
 17 19  1  0  0  0  0
 17 20  1  0  0  0  0
 20 21  1  0  0  0  0
 20 22  1  0  0  0  0
 20 23  1  0  0  0  0
 23 24  1  0  0  0  0
 23 25  1  0  0  0  0
 26 27  2  0  0  0  0
 26 28  1  0  0  0  0
 28 29  1  0  0  0  0
 28 30  1  0  0  0  0
 30 31  1  0  0  0  0
 30 32  1  0  0  0  0
 30 33  1  0  0  0  0
M  END
$$$$

  -OEChem-01062216083D

 33 32  0     1  0  0  0  0  0999 V2000
   -3.6065   -2.4862    0.9309 H   0  0  0  0  0  0  0  0  0  0  0  0
   -3.5410   -1.5194    0.4236 C   0  0  0  0  0  0  0  0  0  0  0  0
   -4.5076   -1.0155    0.4961 H   0  0  0  0  0  0  0  0  0  0  0  0
   -3.3030   -1.6937   -0.6284 H   0  0  0  0  0  0  0  0  0  0  0  0
   -2.4622   -0.6678    1.0659 C   0  0  0  0  0  0  0  0  0  0  0  0
   -2.0316   -0.9889    2.1595 O   0  0  0  0  0  0  0  0  0  0  0  0
   -2.1741    0.5733    0.5258 N   0  0  0  0  0  0  0  0  0  0  0  0
   -2.7514    0.7857   -0.2806 H   0  0  0  0  0  0  0  0  0  0  0  0
   -0.8437    1.2274    0.5050 C   0  0  1  0  0  0  0  0  0  0  0  0
   -0.4333    1.1245   -0.5045 H   0  0  0  0  0  0  0  0  0  0  0  0
   -1.0931    2.7284    0.7766 C   0  0  0  0  0  0  0  0  0  0  0  0
   -1.6584    2.8423    1.7083 H   0  0  0  0  0  0  0  0  0  0  0  0
   -0.1383    3.2495    0.8959 H   0  0  0  0  0  0  0  0  0  0  0  0
   -1.8375    3.4101   -0.3820 C   0  0  0  0  0  0  0  0  0  0  0  0
   -1.2621    3.2979   -1.3072 H   0  0  0  0  0  0  0  0  0  0  0  0
   -2.8140    2.9383   -0.5298 H   0  0  0  0  0  0  0  0  0  0  0  0
   -2.0395    4.8990   -0.0803 C   0  0  0  0  0  0  0  0  0  0  0  0
   -2.6002    5.0103    0.8536 H   0  0  0  0  0  0  0  0  0  0  0  0
   -1.0671    5.3856    0.0495 H   0  0  0  0  0  0  0  0  0  0  0  0
   -2.7992    5.5871   -1.2105 C   0  0  0  0  0  0  0  0  0  0  0  0
   -2.2343    5.5068   -2.1460 H   0  0  0  0  0  0  0  0  0  0  0  0
   -3.7727    5.1062   -1.3581 H   0  0  0  0  0  0  0  0  0  0  0  0
   -2.9817    6.9973   -0.8554 N   0  0  0  0  0  0  0  0  0  0  0  0
   -3.4721    7.5051   -1.5920 H   0  0  0  0  0  0  0  0  0  0  0  0
   -3.4662    7.0927    0.0372 H   0  0  0  0  0  0  0  0  0  0  0  0
    0.2616    0.6425    1.4339 C   0  0  0  0  0  0  0  0  0  0  0  0
    0.6942   -0.4734    1.1709 O   0  0  0  0  0  0  0  0  0  0  0  0
    1.0729    1.4505    2.2155 N   0  0  0  0  0  0  0  0  0  0  0  0
    0.7169    2.3737    2.4400 H   0  0  0  0  0  0  0  0  0  0  0  0
    2.2057    0.9394    2.9791 C   0  0  0  0  0  0  0  0  0  0  0  0
    2.9777    0.5509    2.3067 H   0  0  0  0  0  0  0  0  0  0  0  0
    2.6454    1.7380    3.5840 H   0  0  0  0  0  0  0  0  0  0  0  0
    1.8841    0.1348    3.6490 H   0  0  0  0  0  0  0  0  0  0  0  0
  1  2  1  0  0  0  0
  2  3  1  0  0  0  0
  2  4  1  0  0  0  0
  2  5  1  0  0  0  0
  5  6  2  0  0  0  0
  5  7  1  0  0  0  0
  7  8  1  0  0  0  0
  7  9  1  0  0  0  0
  9 10  1  0  0  0  0
  9 11  1  0  0  0  0
  9 26  1  0  0  0  0
 11 12  1  0  0  0  0
 11 13  1  0  0  0  0
 11 14  1  0  0  0  0
 14 15  1  0  0  0  0
 14 16  1  0  0  0  0
 14 17  1  0  0  0  0
 17 18  1  0  0  0  0
 17 19  1  0  0  0  0
 17 20  1  0  0  0  0
 20 21  1  0  0  0  0
 20 22  1  0  0  0  0
 20 23  1  0  0  0  0
 23 24  1  0  0  0  0
 23 25  1  0  0  0  0
 26 27  2  0  0  0  0
 26 28  1  0  0  0  0
 28 29  1  0  0  0  0
 28 30  1  0  0  0  0
 30 31  1  0  0  0  0
 30 32  1  0  0  0  0
 30 33  1  0  0  0  0
M  END
$$$$

  -OEChem-01062216083D

 33 32  0     1  0  0  0  0  0999 V2000
   -3.6789   -2.4595    0.8974 H   0  0  0  0  0  0  0  0  0  0  0  0
   -3.6184   -1.4685    0.4383 C   0  0  0  0  0  0  0  0  0  0  0  0
   -4.5456   -0.9277    0.6423 H   0  0  0  0  0  0  0  0  0  0  0  0
   -3.5033   -1.5909   -0.6412 H   0  0  0  0  0  0  0  0  0  0  0  0
   -2.4361   -0.7038    1.0041 C   0  0  0  0  0  0  0  0  0  0  0  0
   -1.8919   -1.1254    2.0085 O   0  0  0  0  0  0  0  0  0  0  0  0
   -2.1394    0.5435    0.4818 N   0  0  0  0  0  0  0  0  0  0  0  0
   -2.7504    0.8070   -0.2840 H   0  0  0  0  0  0  0  0  0  0  0  0
   -0.8196    1.2176    0.4804 C   0  0  1  0  0  0  0  0  0  0  0  0
   -0.3971    1.1273   -0.5258 H   0  0  0  0  0  0  0  0  0  0  0  0
   -1.0839    2.7130    0.7624 C   0  0  0  0  0  0  0  0  0  0  0  0
   -1.6591    2.8159    1.6892 H   0  0  0  0  0  0  0  0  0  0  0  0
   -0.1298    3.2342    0.8967 H   0  0  0  0  0  0  0  0  0  0  0  0
   -1.8238    3.3991   -0.3964 C   0  0  0  0  0  0  0  0  0  0  0  0
   -1.2394    3.3000   -1.3173 H   0  0  0  0  0  0  0  0  0  0  0  0
   -2.7944    2.9199   -0.5576 H   0  0  0  0  0  0  0  0  0  0  0  0
   -2.0417    4.8833   -0.0840 C   0  0  0  0  0  0  0  0  0  0  0  0
   -2.6109    4.9820    0.8459 H   0  0  0  0  0  0  0  0  0  0  0  0
   -1.0745    5.3767    0.0580 H   0  0  0  0  0  0  0  0  0  0  0  0
   -2.7976    5.5743   -1.2152 C   0  0  0  0  0  0  0  0  0  0  0  0
   -2.2248    5.5062   -2.1471 H   0  0  0  0  0  0  0  0  0  0  0  0
   -3.7659    5.0868   -1.3737 H   0  0  0  0  0  0  0  0  0  0  0  0
   -2.9963    6.9796   -0.8507 N   0  0  0  0  0  0  0  0  0  0  0  0
   -3.4928    7.4863   -1.5839 H   0  0  0  0  0  0  0  0  0  0  0  0
   -3.4816    7.0636    0.0427 H   0  0  0  0  0  0  0  0  0  0  0  0
    0.2807    0.6433    1.4183 C   0  0  0  0  0  0  0  0  0  0  0  0
    0.8765   -0.3621    1.0504 O   0  0  0  0  0  0  0  0  0  0  0  0
    0.8600    1.3963    2.4275 N   0  0  0  0  0  0  0  0  0  0  0  0
    0.3338    2.2002    2.7540 H   0  0  0  0  0  0  0  0  0  0  0  0
    1.9569    0.9024    3.2516 C   0  0  0  0  0  0  0  0  0  0  0  0
    2.8453    0.7199    2.6379 H   0  0  0  0  0  0  0  0  0  0  0  0
    2.2140    1.6377    4.0200 H   0  0  0  0  0  0  0  0  0  0  0  0
    1.6727   -0.0322    3.7470 H   0  0  0  0  0  0  0  0  0  0  0  0
  1  2  1  0  0  0  0
  2  3  1  0  0  0  0
  2  4  1  0  0  0  0
  2  5  1  0  0  0  0
  5  6  2  0  0  0  0
  5  7  1  0  0  0  0
  7  8  1  0  0  0  0
  7  9  1  0  0  0  0
  9 10  1  0  0  0  0
  9 11  1  0  0  0  0
  9 26  1  0  0  0  0
 11 12  1  0  0  0  0
 11 13  1  0  0  0  0
 11 14  1  0  0  0  0
 14 15  1  0  0  0  0
 14 16  1  0  0  0  0
 14 17  1  0  0  0  0
 17 18  1  0  0  0  0
 17 19  1  0  0  0  0
 17 20  1  0  0  0  0
 20 21  1  0  0  0  0
 20 22  1  0  0  0  0
 20 23  1  0  0  0  0
 23 24  1  0  0  0  0
 23 25  1  0  0  0  0
 26 27  2  0  0  0  0
 26 28  1  0  0  0  0
 28 29  1  0  0  0  0
 28 30  1  0  0  0  0
 30 31  1  0  0  0  0
 30 32  1  0  0  0  0
 30 33  1  0  0  0  0
M  END
$$$$

  -OEChem-01062216083D

 33 32  0     1  0  0  0  0  0999 V2000
   -3.7208   -2.4493    0.8908 H   0  0  0  0  0  0  0  0  0  0  0  0
   -3.6600   -1.4482    0.4543 C   0  0  0  0  0  0  0  0  0  0  0  0
   -4.5486   -0.8825    0.7446 H   0  0  0  0  0  0  0  0  0  0  0  0
   -3.6332   -1.5436   -0.6338 H   0  0  0  0  0  0  0  0  0  0  0  0
   -2.4105   -0.7400    0.9448 C   0  0  0  0  0  0  0  0  0  0  0  0
   -1.7717   -1.2419    1.8514 O   0  0  0  0  0  0  0  0  0  0  0  0
   -2.1187    0.5166    0.4413 N   0  0  0  0  0  0  0  0  0  0  0  0
   -2.7672    0.8290   -0.2738 H   0  0  0  0  0  0  0  0  0  0  0  0
   -0.8099    1.2108    0.4590 C   0  0  1  0  0  0  0  0  0  0  0  0
   -0.3818    1.1338   -0.5460 H   0  0  0  0  0  0  0  0  0  0  0  0
   -1.0806    2.7014    0.7539 C   0  0  0  0  0  0  0  0  0  0  0  0
   -1.6663    2.7941    1.6751 H   0  0  0  0  0  0  0  0  0  0  0  0
   -0.1268    3.2188    0.9077 H   0  0  0  0  0  0  0  0  0  0  0  0
   -1.8138    3.3959   -0.4033 C   0  0  0  0  0  0  0  0  0  0  0  0
   -1.2201    3.3073   -1.3196 H   0  0  0  0  0  0  0  0  0  0  0  0
   -2.7807    2.9136   -0.5772 H   0  0  0  0  0  0  0  0  0  0  0  0
   -2.0401    4.8770   -0.0806 C   0  0  0  0  0  0  0  0  0  0  0  0
   -2.6175    4.9668    0.8452 H   0  0  0  0  0  0  0  0  0  0  0  0
   -1.0760    5.3734    0.0733 H   0  0  0  0  0  0  0  0  0  0  0  0
   -2.7898    5.5722   -1.2137 C   0  0  0  0  0  0  0  0  0  0  0  0
   -2.2077    5.5129   -2.1405 H   0  0  0  0  0  0  0  0  0  0  0  0
   -3.7540    5.0804   -1.3846 H   0  0  0  0  0  0  0  0  0  0  0  0
   -2.9988    6.9745   -0.8424 N   0  0  0  0  0  0  0  0  0  0  0  0
   -3.4839    7.4857   -1.5802 H   0  0  0  0  0  0  0  0  0  0  0  0
   -3.4998    7.0503    0.0428 H   0  0  0  0  0  0  0  0  0  0  0  0
    0.2926    0.6500    1.3990 C   0  0  0  0  0  0  0  0  0  0  0  0
    1.0552   -0.1989    0.9534 O   0  0  0  0  0  0  0  0  0  0  0  0
    0.6297    1.2773    2.5875 N   0  0  0  0  0  0  0  0  0  0  0  0
   -0.0650    1.9061    2.9768 H   0  0  0  0  0  0  0  0  0  0  0  0
    1.6852    0.7832    3.4631 C   0  0  0  0  0  0  0  0  0  0  0  0
    2.6502    0.7950    2.9456 H   0  0  0  0  0  0  0  0  0  0  0  0
    1.7645    1.4140    4.3537 H   0  0  0  0  0  0  0  0  0  0  0  0
    1.4684   -0.2424    3.7805 H   0  0  0  0  0  0  0  0  0  0  0  0
  1  2  1  0  0  0  0
  2  3  1  0  0  0  0
  2  4  1  0  0  0  0
  2  5  1  0  0  0  0
  5  6  2  0  0  0  0
  5  7  1  0  0  0  0
  7  8  1  0  0  0  0
  7  9  1  0  0  0  0
  9 10  1  0  0  0  0
  9 11  1  0  0  0  0
  9 26  1  0  0  0  0
 11 12  1  0  0  0  0
 11 13  1  0  0  0  0
 11 14  1  0  0  0  0
 14 15  1  0  0  0  0
 14 16  1  0  0  0  0
 14 17  1  0  0  0  0
 17 18  1  0  0  0  0
 17 19  1  0  0  0  0
 17 20  1  0  0  0  0
 20 21  1  0  0  0  0
 20 22  1  0  0  0  0
 20 23  1  0  0  0  0
 23 24  1  0  0  0  0
 23 25  1  0  0  0  0
 26 27  2  0  0  0  0
 26 28  1  0  0  0  0
 28 29  1  0  0  0  0
 28 30  1  0  0  0  0
 30 31  1  0  0  0  0
 30 32  1  0  0  0  0
 30 33  1  0  0  0  0
M  END
$$$$

  -OEChem-01062216083D

 33 32  0     1  0  0  0  0  0999 V2000
   -3.7476   -2.4360    0.8894 H   0  0  0  0  0  0  0  0  0  0  0  0
   -3.6860   -1.4275    0.4702 C   0  0  0  0  0  0  0  0  0  0  0  0
   -4.5397   -0.8458    0.8257 H   0  0  0  0  0  0  0  0  0  0  0  0
   -3.7275   -1.4989   -0.6193 H   0  0  0  0  0  0  0  0  0  0  0  0
   -2.3912   -0.7619    0.8981 C   0  0  0  0  0  0  0  0  0  0  0  0
   -1.6939   -1.3172    1.7269 O   0  0  0  0  0  0  0  0  0  0  0  0
   -2.0987    0.4979    0.4035 N   0  0  0  0  0  0  0  0  0  0  0  0
   -2.7737    0.8461   -0.2694 H   0  0  0  0  0  0  0  0  0  0  0  0
   -0.7980    1.2055    0.4374 C   0  0  1  0  0  0  0  0  0  0  0  0
   -0.3614    1.1376   -0.5648 H   0  0  0  0  0  0  0  0  0  0  0  0
   -1.0769    2.6910    0.7433 C   0  0  0  0  0  0  0  0  0  0  0  0
   -1.6711    2.7733    1.6595 H   0  0  0  0  0  0  0  0  0  0  0  0
   -0.1256    3.2071    0.9147 H   0  0  0  0  0  0  0  0  0  0  0  0
   -1.8053    3.3926   -0.4126 C   0  0  0  0  0  0  0  0  0  0  0  0
   -1.2060    3.3141   -1.3261 H   0  0  0  0  0  0  0  0  0  0  0  0
   -2.7692    2.9083   -0.5970 H   0  0  0  0  0  0  0  0  0  0  0  0
   -2.0398    4.8696   -0.0785 C   0  0  0  0  0  0  0  0  0  0  0  0
   -2.6237    4.9485    0.8443 H   0  0  0  0  0  0  0  0  0  0  0  0
   -1.0788    5.3684    0.0863 H   0  0  0  0  0  0  0  0  0  0  0  0
   -2.7846    5.5711   -1.2105 C   0  0  0  0  0  0  0  0  0  0  0  0
   -2.1957    5.5215   -2.1332 H   0  0  0  0  0  0  0  0  0  0  0  0
   -3.7451    5.0765   -1.3929 H   0  0  0  0  0  0  0  0  0  0  0  0
   -3.0024    6.9694   -0.8300 N   0  0  0  0  0  0  0  0  0  0  0  0
   -3.4779    7.4858   -1.5703 H   0  0  0  0  0  0  0  0  0  0  0  0
   -3.5147    7.0373    0.0493 H   0  0  0  0  0  0  0  0  0  0  0  0
    0.3011    0.6595    1.3869 C   0  0  0  0  0  0  0  0  0  0  0  0
    1.2174    0.0042    0.9059 O   0  0  0  0  0  0  0  0  0  0  0  0
    0.4089    1.0990    2.6957 N   0  0  0  0  0  0  0  0  0  0  0  0
   -0.4259    1.5174    3.0928 H   0  0  0  0  0  0  0  0  0  0  0  0
    1.4225    0.5841    3.6080 C   0  0  0  0  0  0  0  0  0  0  0  0
    2.4264    0.7830    3.2182 H   0  0  0  0  0  0  0  0  0  0  0  0
    1.3314    1.0667    4.5856 H   0  0  0  0  0  0  0  0  0  0  0  0
    1.3040   -0.4967    3.7401 H   0  0  0  0  0  0  0  0  0  0  0  0
  1  2  1  0  0  0  0
  2  3  1  0  0  0  0
  2  4  1  0  0  0  0
  2  5  1  0  0  0  0
  5  6  2  0  0  0  0
  5  7  1  0  0  0  0
  7  8  1  0  0  0  0
  7  9  1  0  0  0  0
  9 10  1  0  0  0  0
  9 11  1  0  0  0  0
  9 26  1  0  0  0  0
 11 12  1  0  0  0  0
 11 13  1  0  0  0  0
 11 14  1  0  0  0  0
 14 15  1  0  0  0  0
 14 16  1  0  0  0  0
 14 17  1  0  0  0  0
 17 18  1  0  0  0  0
 17 19  1  0  0  0  0
 17 20  1  0  0  0  0
 20 21  1  0  0  0  0
 20 22  1  0  0  0  0
 20 23  1  0  0  0  0
 23 24  1  0  0  0  0
 23 25  1  0  0  0  0
 26 27  2  0  0  0  0
 26 28  1  0  0  0  0
 28 29  1  0  0  0  0
 28 30  1  0  0  0  0
 30 31  1  0  0  0  0
 30 32  1  0  0  0  0
 30 33  1  0  0  0  0
M  END
$$$$

  -OEChem-01062216083D

 33 32  0     1  0  0  0  0  0999 V2000
   -3.7882   -2.4177    0.8915 H   0  0  0  0  0  0  0  0  0  0  0  0
   -3.7160   -1.4086    0.4752 C   0  0  0  0  0  0  0  0  0  0  0  0
   -4.5431   -0.8084    0.8617 H   0  0  0  0  0  0  0  0  0  0  0  0
   -3.7966   -1.4729   -0.6125 H   0  0  0  0  0  0  0  0  0  0  0  0
   -2.3913   -0.7769    0.8613 C   0  0  0  0  0  0  0  0  0  0  0  0
   -1.6641   -1.3666    1.6390 O   0  0  0  0  0  0  0  0  0  0  0  0
   -2.0898    0.4816    0.3703 N   0  0  0  0  0  0  0  0  0  0  0  0
   -2.7805    0.8589   -0.2708 H   0  0  0  0  0  0  0  0  0  0  0  0
   -0.7922    1.1943    0.4197 C   0  0  1  0  0  0  0  0  0  0  0  0
   -0.3477    1.1323   -0.5795 H   0  0  0  0  0  0  0  0  0  0  0  0
   -1.0748    2.6753    0.7370 C   0  0  0  0  0  0  0  0  0  0  0  0
   -1.6735    2.7485    1.6512 H   0  0  0  0  0  0  0  0  0  0  0  0
   -0.1246    3.1898    0.9210 H   0  0  0  0  0  0  0  0  0  0  0  0
   -1.7969    3.3854   -0.4180 C   0  0  0  0  0  0  0  0  0  0  0  0
   -1.1901    3.3161   -1.3273 H   0  0  0  0  0  0  0  0  0  0  0  0
   -2.7582    2.9006   -0.6139 H   0  0  0  0  0  0  0  0  0  0  0  0
   -2.0365    4.8590   -0.0735 C   0  0  0  0  0  0  0  0  0  0  0  0
   -2.6262    4.9292    0.8463 H   0  0  0  0  0  0  0  0  0  0  0  0
   -1.0775    5.3583    0.1014 H   0  0  0  0  0  0  0  0  0  0  0  0
   -2.7752    5.5687   -1.2046 C   0  0  0  0  0  0  0  0  0  0  0  0
   -2.1802    5.5287   -2.1241 H   0  0  0  0  0  0  0  0  0  0  0  0
   -3.7339    5.0744   -1.3977 H   0  0  0  0  0  0  0  0  0  0  0  0
   -2.9976    6.9632   -0.8125 N   0  0  0  0  0  0  0  0  0  0  0  0
   -3.4703    7.4859   -1.5502 H   0  0  0  0  0  0  0  0  0  0  0  0
   -3.5143    7.0218    0.0650 H   0  0  0  0  0  0  0  0  0  0  0  0
    0.3018    0.6645    1.3816 C   0  0  0  0  0  0  0  0  0  0  0  0
    1.3529    0.2505    0.9083 O   0  0  0  0  0  0  0  0  0  0  0  0
    0.2099    0.8708    2.7471 N   0  0  0  0  0  0  0  0  0  0  0  0
   -0.7309    1.0222    3.0971 H   0  0  0  0  0  0  0  0  0  0  0  0
    1.2043    0.3464    3.6747 C   0  0  0  0  0  0  0  0  0  0  0  0
    2.1968    0.7474    3.4431 H   0  0  0  0  0  0  0  0  0  0  0  0
    0.9507    0.6299    4.7004 H   0  0  0  0  0  0  0  0  0  0  0  0
    1.2427   -0.7465    3.6139 H   0  0  0  0  0  0  0  0  0  0  0  0
  1  2  1  0  0  0  0
  2  3  1  0  0  0  0
  2  4  1  0  0  0  0
  2  5  1  0  0  0  0
  5  6  2  0  0  0  0
  5  7  1  0  0  0  0
  7  8  1  0  0  0  0
  7  9  1  0  0  0  0
  9 10  1  0  0  0  0
  9 11  1  0  0  0  0
  9 26  1  0  0  0  0
 11 12  1  0  0  0  0
 11 13  1  0  0  0  0
 11 14  1  0  0  0  0
 14 15  1  0  0  0  0
 14 16  1  0  0  0  0
 14 17  1  0  0  0  0
 17 18  1  0  0  0  0
 17 19  1  0  0  0  0
 17 20  1  0  0  0  0
 20 21  1  0  0  0  0
 20 22  1  0  0  0  0
 20 23  1  0  0  0  0
 23 24  1  0  0  0  0
 23 25  1  0  0  0  0
 26 27  2  0  0  0  0
 26 28  1  0  0  0  0
 28 29  1  0  0  0  0
 28 30  1  0  0  0  0
 30 31  1  0  0  0  0
 30 32  1  0  0  0  0
 30 33  1  0  0  0  0
M  END
$$$$

  -OEChem-01062216083D

 33 32  0     1  0  0  0  0  0999 V2000
   -3.8605   -2.3913    0.8687 H   0  0  0  0  0  0  0  0  0  0  0  0
   -3.7692   -1.3800    0.4619 C   0  0  0  0  0  0  0  0  0  0  0  0
   -4.5667   -0.7598    0.8783 H   0  0  0  0  0  0  0  0  0  0  0  0
   -3.8820   -1.4285   -0.6239 H   0  0  0  0  0  0  0  0  0  0  0  0
   -2.4157   -0.7935    0.8182 C   0  0  0  0  0  0  0  0  0  0  0  0
   -1.6778   -1.4231    1.5531 O   0  0  0  0  0  0  0  0  0  0  0  0
   -2.0887    0.4614    0.3361 N   0  0  0  0  0  0  0  0  0  0  0  0
   -2.7893    0.8750   -0.2709 H   0  0  0  0  0  0  0  0  0  0  0  0
   -0.7906    1.1733    0.4074 C   0  0  1  0  0  0  0  0  0  0  0  0
   -0.3337    1.1166   -0.5866 H   0  0  0  0  0  0  0  0  0  0  0  0
   -1.0799    2.6505    0.7340 C   0  0  0  0  0  0  0  0  0  0  0  0
   -1.6868    2.7138    1.6436 H   0  0  0  0  0  0  0  0  0  0  0  0
   -0.1328    3.1649    0.9335 H   0  0  0  0  0  0  0  0  0  0  0  0
   -1.7891    3.3716   -0.4222 C   0  0  0  0  0  0  0  0  0  0  0  0
   -1.1716    3.3125   -1.3250 H   0  0  0  0  0  0  0  0  0  0  0  0
   -2.7474    2.8880   -0.6346 H   0  0  0  0  0  0  0  0  0  0  0  0
   -2.0345    4.8413   -0.0649 C   0  0  0  0  0  0  0  0  0  0  0  0
   -2.6346    4.9009    0.8488 H   0  0  0  0  0  0  0  0  0  0  0  0
   -1.0782    5.3393    0.1266 H   0  0  0  0  0  0  0  0  0  0  0  0
   -2.7607    5.5635   -1.1963 C   0  0  0  0  0  0  0  0  0  0  0  0
   -2.1559    5.5344   -2.1096 H   0  0  0  0  0  0  0  0  0  0  0  0
   -3.7168    5.0710   -1.4050 H   0  0  0  0  0  0  0  0  0  0  0  0
   -2.9891    6.9534   -0.7915 N   0  0  0  0  0  0  0  0  0  0  0  0
   -3.4587    7.4824   -1.5264 H   0  0  0  0  0  0  0  0  0  0  0  0
   -3.5110    7.0018    0.0834 H   0  0  0  0  0  0  0  0  0  0  0  0
    0.2995    0.6622    1.3839 C   0  0  0  0  0  0  0  0  0  0  0  0
    1.4436    0.5265    0.9679 O   0  0  0  0  0  0  0  0  0  0  0  0
    0.0623    0.5990    2.7455 N   0  0  0  0  0  0  0  0  0  0  0  0
   -0.9142    0.4580    2.9891 H   0  0  0  0  0  0  0  0  0  0  0  0
    1.0628    0.0932    3.6764 C   0  0  0  0  0  0  0  0  0  0  0  0
    1.9737    0.6994    3.6307 H   0  0  0  0  0  0  0  0  0  0  0  0
    0.6775    0.1289    4.6998 H   0  0  0  0  0  0  0  0  0  0  0  0
    1.3169   -0.9446    3.4360 H   0  0  0  0  0  0  0  0  0  0  0  0
  1  2  1  0  0  0  0
  2  3  1  0  0  0  0
  2  4  1  0  0  0  0
  2  5  1  0  0  0  0
  5  6  2  0  0  0  0
  5  7  1  0  0  0  0
  7  8  1  0  0  0  0
  7  9  1  0  0  0  0
  9 10  1  0  0  0  0
  9 11  1  0  0  0  0
  9 26  1  0  0  0  0
 11 12  1  0  0  0  0
 11 13  1  0  0  0  0
 11 14  1  0  0  0  0
 14 15  1  0  0  0  0
 14 16  1  0  0  0  0
 14 17  1  0  0  0  0
 17 18  1  0  0  0  0
 17 19  1  0  0  0  0
 17 20  1  0  0  0  0
 20 21  1  0  0  0  0
 20 22  1  0  0  0  0
 20 23  1  0  0  0  0
 23 24  1  0  0  0  0
 23 25  1  0  0  0  0
 26 27  2  0  0  0  0
 26 28  1  0  0  0  0
 28 29  1  0  0  0  0
 28 30  1  0  0  0  0
 30 31  1  0  0  0  0
 30 32  1  0  0  0  0
 30 33  1  0  0  0  0
M  END
$$$$

  -OEChem-01062216083D

 33 32  0     1  0  0  0  0  0999 V2000
   -3.9881   -2.3359    0.8083 H   0  0  0  0  0  0  0  0  0  0  0  0
   -3.8580   -1.3205    0.4234 C   0  0  0  0  0  0  0  0  0  0  0  0
   -4.6129   -0.6736    0.8768 H   0  0  0  0  0  0  0  0  0  0  0  0
   -4.0026   -1.3360   -0.6596 H   0  0  0  0  0  0  0  0  0  0  0  0
   -2.4686   -0.8084    0.7553 C   0  0  0  0  0  0  0  0  0  0  0  0
   -1.7317   -1.5034    1.4295 O   0  0  0  0  0  0  0  0  0  0  0  0
   -2.0987    0.4450    0.3028 N   0  0  0  0  0  0  0  0  0  0  0  0
   -2.8069    0.9158   -0.2516 H   0  0  0  0  0  0  0  0  0  0  0  0
   -0.7950    1.1454    0.4093 C   0  0  1  0  0  0  0  0  0  0  0  0
   -0.3242    1.0985   -0.5786 H   0  0  0  0  0  0  0  0  0  0  0  0
   -1.0963    2.6184    0.7469 C   0  0  0  0  0  0  0  0  0  0  0  0
   -1.7228    2.6686    1.6439 H   0  0  0  0  0  0  0  0  0  0  0  0
   -0.1566    3.1349    0.9737 H   0  0  0  0  0  0  0  0  0  0  0  0
   -1.7809    3.3521   -0.4168 C   0  0  0  0  0  0  0  0  0  0  0  0
   -1.1408    3.3058   -1.3045 H   0  0  0  0  0  0  0  0  0  0  0  0
   -2.7322    2.8691   -0.6588 H   0  0  0  0  0  0  0  0  0  0  0  0
   -2.0401    4.8170   -0.0500 C   0  0  0  0  0  0  0  0  0  0  0  0
   -2.6625    4.8658    0.8493 H   0  0  0  0  0  0  0  0  0  0  0  0
   -1.0903    5.3163    0.1690 H   0  0  0  0  0  0  0  0  0  0  0  0
   -2.7420    5.5466   -1.1921 C   0  0  0  0  0  0  0  0  0  0  0  0
   -2.1151    5.5278   -2.0906 H   0  0  0  0  0  0  0  0  0  0  0  0
   -3.6906    5.0519   -1.4283 H   0  0  0  0  0  0  0  0  0  0  0  0
   -2.9864    6.9317   -0.7808 N   0  0  0  0  0  0  0  0  0  0  0  0
   -3.4455    7.4635   -1.5205 H   0  0  0  0  0  0  0  0  0  0  0  0
   -3.5246    6.9702    0.0847 H   0  0  0  0  0  0  0  0  0  0  0  0
    0.2976    0.6465    1.3927 C   0  0  0  0  0  0  0  0  0  0  0  0
    1.4709    0.7906    1.0712 O   0  0  0  0  0  0  0  0  0  0  0  0
    0.0013    0.2840    2.6938 N   0  0  0  0  0  0  0  0  0  0  0  0
   -0.9251   -0.1283    2.7945 H   0  0  0  0  0  0  0  0  0  0  0  0
    1.0305   -0.1671    3.6226 C   0  0  0  0  0  0  0  0  0  0  0  0
    1.7890    0.6100    3.7635 H   0  0  0  0  0  0  0  0  0  0  0  0
    0.5857   -0.3929    4.5964 H   0  0  0  0  0  0  0  0  0  0  0  0
    1.5183   -1.0718    3.2447 H   0  0  0  0  0  0  0  0  0  0  0  0
  1  2  1  0  0  0  0
  2  3  1  0  0  0  0
  2  4  1  0  0  0  0
  2  5  1  0  0  0  0
  5  6  2  0  0  0  0
  5  7  1  0  0  0  0
  7  8  1  0  0  0  0
  7  9  1  0  0  0  0
  9 10  1  0  0  0  0
  9 11  1  0  0  0  0
  9 26  1  0  0  0  0
 11 12  1  0  0  0  0
 11 13  1  0  0  0  0
 11 14  1  0  0  0  0
 14 15  1  0  0  0  0
 14 16  1  0  0  0  0
 14 17  1  0  0  0  0
 17 18  1  0  0  0  0
 17 19  1  0  0  0  0
 17 20  1  0  0  0  0
 20 21  1  0  0  0  0
 20 22  1  0  0  0  0
 20 23  1  0  0  0  0
 23 24  1  0  0  0  0
 23 25  1  0  0  0  0
 26 27  2  0  0  0  0
 26 28  1  0  0  0  0
 28 29  1  0  0  0  0
 28 30  1  0  0  0  0
 30 31  1  0  0  0  0
 30 32  1  0  0  0  0
 30 33  1  0  0  0  0
M  END
$$$$

  -OEChem-01062216083D

 33 32  0     1  0  0  0  0  0999 V2000
   -4.1043   -2.2569    0.7869 H   0  0  0  0  0  0  0  0  0  0  0  0
   -3.9319   -1.2422    0.4166 C   0  0  0  0  0  0  0  0  0  0  0  0
   -4.6223   -0.5621    0.9215 H   0  0  0  0  0  0  0  0  0  0  0  0
   -4.1312   -1.2228   -0.6575 H   0  0  0  0  0  0  0  0  0  0  0  0
   -2.4990   -0.8218    0.6847 C   0  0  0  0  0  0  0  0  0  0  0  0
   -1.7532   -1.6036    1.2440 O   0  0  0  0  0  0  0  0  0  0  0  0
   -2.0921    0.4312    0.2652 N   0  0  0  0  0  0  0  0  0  0  0  0
   -2.8159    0.9627   -0.2081 H   0  0  0  0  0  0  0  0  0  0  0  0
   -0.7882    1.1267    0.4109 C   0  0  1  0  0  0  0  0  0  0  0  0
   -0.2986    1.0911   -0.5681 H   0  0  0  0  0  0  0  0  0  0  0  0
   -1.1136    2.5951    0.7543 C   0  0  0  0  0  0  0  0  0  0  0  0
   -1.7637    2.6294    1.6352 H   0  0  0  0  0  0  0  0  0  0  0  0
   -0.1871    3.1218    1.0110 H   0  0  0  0  0  0  0  0  0  0  0  0
   -1.7729    3.3353   -0.4203 C   0  0  0  0  0  0  0  0  0  0  0  0
   -1.1085    3.3042   -1.2905 H   0  0  0  0  0  0  0  0  0  0  0  0
   -2.7129    2.8473   -0.6946 H   0  0  0  0  0  0  0  0  0  0  0  0
   -2.0551    4.7937   -0.0440 C   0  0  0  0  0  0  0  0  0  0  0  0
   -2.7021    4.8262    0.8386 H   0  0  0  0  0  0  0  0  0  0  0  0
   -1.1161    5.2984    0.2068 H   0  0  0  0  0  0  0  0  0  0  0  0
   -2.7323    5.5316   -1.1957 C   0  0  0  0  0  0  0  0  0  0  0  0
   -2.0803    5.5297   -2.0765 H   0  0  0  0  0  0  0  0  0  0  0  0
   -3.6695    5.0319   -1.4647 H   0  0  0  0  0  0  0  0  0  0  0  0
   -2.9999    6.9098   -0.7751 N   0  0  0  0  0  0  0  0  0  0  0  0
   -3.4389    7.4483   -1.5220 H   0  0  0  0  0  0  0  0  0  0  0  0
   -3.5649    6.9343    0.0737 H   0  0  0  0  0  0  0  0  0  0  0  0
    0.3023    0.6412    1.4074 C   0  0  0  0  0  0  0  0  0  0  0  0
    1.4574    0.9968    1.2059 O   0  0  0  0  0  0  0  0  0  0  0  0
    0.0138   -0.0082    2.5926 N   0  0  0  0  0  0  0  0  0  0  0  0
   -0.8530   -0.5462    2.5631 H   0  0  0  0  0  0  0  0  0  0  0  0
    1.0548   -0.4741    3.5000 C   0  0  0  0  0  0  0  0  0  0  0  0
    1.6661    0.3652    3.8475 H   0  0  0  0  0  0  0  0  0  0  0  0
    0.6039   -0.9553    4.3730 H   0  0  0  0  0  0  0  0  0  0  0  0
    1.7033   -1.2000    2.9986 H   0  0  0  0  0  0  0  0  0  0  0  0
  1  2  1  0  0  0  0
  2  3  1  0  0  0  0
  2  4  1  0  0  0  0
  2  5  1  0  0  0  0
  5  6  2  0  0  0  0
  5  7  1  0  0  0  0
  7  8  1  0  0  0  0
  7  9  1  0  0  0  0
  9 10  1  0  0  0  0
  9 11  1  0  0  0  0
  9 26  1  0  0  0  0
 11 12  1  0  0  0  0
 11 13  1  0  0  0  0
 11 14  1  0  0  0  0
 14 15  1  0  0  0  0
 14 16  1  0  0  0  0
 14 17  1  0  0  0  0
 17 18  1  0  0  0  0
 17 19  1  0  0  0  0
 17 20  1  0  0  0  0
 20 21  1  0  0  0  0
 20 22  1  0  0  0  0
 20 23  1  0  0  0  0
 23 24  1  0  0  0  0
 23 25  1  0  0  0  0
 26 27  2  0  0  0  0
 26 28  1  0  0  0  0
 28 29  1  0  0  0  0
 28 30  1  0  0  0  0
 30 31  1  0  0  0  0
 30 32  1  0  0  0  0
 30 33  1  0  0  0  0
M  END
$$$$

  -OEChem-01062216083D

 33 32  0     1  0  0  0  0  0999 V2000
   -4.1938   -2.1762    0.8115 H   0  0  0  0  0  0  0  0  0  0  0  0
   -3.9902   -1.1706    0.4320 C   0  0  0  0  0  0  0  0  0  0  0  0
   -4.6096   -0.4574    0.9811 H   0  0  0  0  0  0  0  0  0  0  0  0
   -4.2561   -1.1352   -0.6273 H   0  0  0  0  0  0  0  0  0  0  0  0
   -2.5222   -0.8295    0.6107 C   0  0  0  0  0  0  0  0  0  0  0  0
   -1.7706   -1.6882    1.0330 O   0  0  0  0  0  0  0  0  0  0  0  0
   -2.0871    0.4257    0.2279 N   0  0  0  0  0  0  0  0  0  0  0  0
   -2.8262    1.0121   -0.1465 H   0  0  0  0  0  0  0  0  0  0  0  0
   -0.7823    1.1127    0.4129 C   0  0  1  0  0  0  0  0  0  0  0  0
   -0.2741    1.0901   -0.5567 H   0  0  0  0  0  0  0  0  0  0  0  0
   -1.1329    2.5775    0.7592 C   0  0  0  0  0  0  0  0  0  0  0  0
   -1.8076    2.5979    1.6217 H   0  0  0  0  0  0  0  0  0  0  0  0
   -0.2225    3.1159    1.0462 H   0  0  0  0  0  0  0  0  0  0  0  0
   -1.7656    3.3242   -0.4270 C   0  0  0  0  0  0  0  0  0  0  0  0
   -1.0752    3.3091   -1.2772 H   0  0  0  0  0  0  0  0  0  0  0  0
   -2.6926    2.8316   -0.7354 H   0  0  0  0  0  0  0  0  0  0  0  0
   -2.0716    4.7758   -0.0425 C   0  0  0  0  0  0  0  0  0  0  0  0
   -2.7428    4.7924    0.8222 H   0  0  0  0  0  0  0  0  0  0  0  0
   -1.1444    5.2856    0.2403 H   0  0  0  0  0  0  0  0  0  0  0  0
   -2.7227    5.5227   -1.2032 C   0  0  0  0  0  0  0  0  0  0  0  0
   -2.0472    5.5374   -2.0659 H   0  0  0  0  0  0  0  0  0  0  0  0
   -3.6481    5.0191   -1.5038 H   0  0  0  0  0  0  0  0  0  0  0  0
   -3.0134    6.8930   -0.7720 N   0  0  0  0  0  0  0  0  0  0  0  0
   -3.4397    7.4367   -1.5225 H   0  0  0  0  0  0  0  0  0  0  0  0
   -3.5987    6.9014    0.0632 H   0  0  0  0  0  0  0  0  0  0  0  0
    0.3037    0.6251    1.4198 C   0  0  0  0  0  0  0  0  0  0  0  0
    1.4124    1.1427    1.3525 O   0  0  0  0  0  0  0  0  0  0  0  0
    0.0832   -0.2810    2.4390 N   0  0  0  0  0  0  0  0  0  0  0  0
   -0.7297   -0.8835    2.3037 H   0  0  0  0  0  0  0  0  0  0  0  0
    1.1448   -0.7687    3.3107 C   0  0  0  0  0  0  0  0  0  0  0  0
    1.6109    0.0620    3.8509 H   0  0  0  0  0  0  0  0  0  0  0  0
    0.7359   -1.4693    4.0446 H   0  0  0  0  0  0  0  0  0  0  0  0
    1.9131   -1.2856    2.7265 H   0  0  0  0  0  0  0  0  0  0  0  0
  1  2  1  0  0  0  0
  2  3  1  0  0  0  0
  2  4  1  0  0  0  0
  2  5  1  0  0  0  0
  5  6  2  0  0  0  0
  5  7  1  0  0  0  0
  7  8  1  0  0  0  0
  7  9  1  0  0  0  0
  9 10  1  0  0  0  0
  9 11  1  0  0  0  0
  9 26  1  0  0  0  0
 11 12  1  0  0  0  0
 11 13  1  0  0  0  0
 11 14  1  0  0  0  0
 14 15  1  0  0  0  0
 14 16  1  0  0  0  0
 14 17  1  0  0  0  0
 17 18  1  0  0  0  0
 17 19  1  0  0  0  0
 17 20  1  0  0  0  0
 20 21  1  0  0  0  0
 20 22  1  0  0  0  0
 20 23  1  0  0  0  0
 23 24  1  0  0  0  0
 23 25  1  0  0  0  0
 26 27  2  0  0  0  0
 26 28  1  0  0  0  0
 28 29  1  0  0  0  0
 28 30  1  0  0  0  0
 30 31  1  0  0  0  0
 30 32  1  0  0  0  0
 30 33  1  0  0  0  0
M  END
$$$$

  -OEChem-01062216083D

 33 32  0     1  0  0  0  0  0999 V2000
   -3.7608   -2.2600    1.0265 H   0  0  0  0  0  0  0  0  0  0  0  0
   -3.6645   -1.2178    0.7088 C   0  0  0  0  0  0  0  0  0  0  0  0
   -4.1894   -0.5834    1.4272 H   0  0  0  0  0  0  0  0  0  0  0  0
   -4.1261   -1.1041   -0.2752 H   0  0  0  0  0  0  0  0  0  0  0  0
   -2.2007   -0.8250    0.6422 C   0  0  0  0  0  0  0  0  0  0  0  0
   -1.3549   -1.6983    0.6589 O   0  0  0  0  0  0  0  0  0  0  0  0
   -1.8751    0.4712    0.3007 N   0  0  0  0  0  0  0  0  0  0  0  0
   -2.7000    1.0300    0.1092 H   0  0  0  0  0  0  0  0  0  0  0  0
   -0.7095    1.2832    0.7280 C   0  0  1  0  0  0  0  0  0  0  0  0
   -0.0123    1.2972   -0.1152 H   0  0  0  0  0  0  0  0  0  0  0  0
   -1.2801    2.7111    0.9200 C   0  0  0  0  0  0  0  0  0  0  0  0
   -2.1233    2.6805    1.6182 H   0  0  0  0  0  0  0  0  0  0  0  0
   -0.5197    3.3648    1.3597 H   0  0  0  0  0  0  0  0  0  0  0  0
   -1.7094    3.3471   -0.4135 C   0  0  0  0  0  0  0  0  0  0  0  0
   -0.8499    3.3867   -1.0914 H   0  0  0  0  0  0  0  0  0  0  0  0
   -2.4866    2.7428   -0.8910 H   0  0  0  0  0  0  0  0  0  0  0  0
   -2.2443    4.7649   -0.1852 C   0  0  0  0  0  0  0  0  0  0  0  0
   -3.0898    4.7306    0.5095 H   0  0  0  0  0  0  0  0  0  0  0  0
   -1.4630    5.3868    0.2644 H   0  0  0  0  0  0  0  0  0  0  0  0
   -2.6952    5.3941   -1.5008 C   0  0  0  0  0  0  0  0  0  0  0  0
   -1.8495    5.4590   -2.1948 H   0  0  0  0  0  0  0  0  0  0  0  0
   -3.4713    4.7772   -1.9671 H   0  0  0  0  0  0  0  0  0  0  0  0
   -3.2179    6.7347   -1.2224 N   0  0  0  0  0  0  0  0  0  0  0  0
   -3.5241    7.1991   -2.0775 H   0  0  0  0  0  0  0  0  0  0  0  0
   -3.9706    6.7021   -0.5351 H   0  0  0  0  0  0  0  0  0  0  0  0
    0.1917    0.8869    1.9467 C   0  0  0  0  0  0  0  0  0  0  0  0
    0.9373    1.7172    2.4455 O   0  0  0  0  0  0  0  0  0  0  0  0
    0.0689   -0.2032    2.7738 N   0  0  0  0  0  0  0  0  0  0  0  0
    0.2412    0.1019    3.7275 H   0  0  0  0  0  0  0  0  0  0  0  0
    0.8920   -1.3628    2.4444 C   0  0  0  0  0  0  0  0  0  0  0  0
    1.8388   -1.3188    2.9920 H   0  0  0  0  0  0  0  0  0  0  0  0
    0.3709   -2.2850    2.7203 H   0  0  0  0  0  0  0  0  0  0  0  0
    1.1208   -1.4033    1.3736 H   0  0  0  0  0  0  0  0  0  0  0  0
  1  2  1  0  0  0  0
  2  3  1  0  0  0  0
  2  4  1  0  0  0  0
  2  5  1  0  0  0  0
  5  6  2  0  0  0  0
  5  7  1  0  0  0  0
  7  8  1  0  0  0  0
  7  9  1  0  0  0  0
  9 10  1  0  0  0  0
  9 11  1  0  0  0  0
  9 26  1  0  0  0  0
 11 12  1  0  0  0  0
 11 13  1  0  0  0  0
 11 14  1  0  0  0  0
 14 15  1  0  0  0  0
 14 16  1  0  0  0  0
 14 17  1  0  0  0  0
 17 18  1  0  0  0  0
 17 19  1  0  0  0  0
 17 20  1  0  0  0  0
 20 21  1  0  0  0  0
 20 22  1  0  0  0  0
 20 23  1  0  0  0  0
 23 24  1  0  0  0  0
 23 25  1  0  0  0  0
 26 27  2  0  0  0  0
 26 28  1  0  0  0  0
 28 29  1  0  0  0  0
 28 30  1  0  0  0  0
 30 31  1  0  0  0  0
 30 32  1  0  0  0  0
 30 33  1  0  0  0  0
M  END
$$$$

  -OEChem-01062216083D

 33 32  0     1  0  0  0  0  0999 V2000
   -3.6117   -2.3182    1.2690 H   0  0  0  0  0  0  0  0  0  0  0  0
   -3.5572   -1.2767    0.9395 C   0  0  0  0  0  0  0  0  0  0  0  0
   -3.9023   -0.6337    1.7526 H   0  0  0  0  0  0  0  0  0  0  0  0
   -4.2139   -1.1464    0.0758 H   0  0  0  0  0  0  0  0  0  0  0  0
   -2.1306   -0.9217    0.5643 C   0  0  0  0  0  0  0  0  0  0  0  0
   -1.3118   -1.8141    0.4588 O   0  0  0  0  0  0  0  0  0  0  0  0
   -1.8526    0.3669    0.1562 N   0  0  0  0  0  0  0  0  0  0  0  0
   -2.6758    0.9597    0.1437 H   0  0  0  0  0  0  0  0  0  0  0  0
   -0.5713    1.1160    0.1671 C   0  0  1  0  0  0  0  0  0  0  0  0
   -0.2195    1.1308   -0.8696 H   0  0  0  0  0  0  0  0  0  0  0  0
   -0.9602    2.5553    0.5814 C   0  0  0  0  0  0  0  0  0  0  0  0
   -1.5101    2.5288    1.5281 H   0  0  0  0  0  0  0  0  0  0  0  0
   -0.0569    3.1521    0.7485 H   0  0  0  0  0  0  0  0  0  0  0  0
   -1.7938    3.2669   -0.4979 C   0  0  0  0  0  0  0  0  0  0  0  0
   -1.2248    3.3000   -1.4335 H   0  0  0  0  0  0  0  0  0  0  0  0
   -2.7210    2.7176   -0.6873 H   0  0  0  0  0  0  0  0  0  0  0  0
   -2.1357    4.6948   -0.0581 C   0  0  0  0  0  0  0  0  0  0  0  0
   -2.6847    4.6660    0.8886 H   0  0  0  0  0  0  0  0  0  0  0  0
   -1.2135    5.2628    0.1040 H   0  0  0  0  0  0  0  0  0  0  0  0
   -2.9834    5.3997   -1.1135 C   0  0  0  0  0  0  0  0  0  0  0  0
   -2.4319    5.4591   -2.0586 H   0  0  0  0  0  0  0  0  0  0  0  0
   -3.9064    4.8374   -1.2932 H   0  0  0  0  0  0  0  0  0  0  0  0
   -3.3014    6.7479   -0.6346 N   0  0  0  0  0  0  0  0  0  0  0  0
   -3.8550    7.2641   -1.3186 H   0  0  0  0  0  0  0  0  0  0  0  0
   -3.7730    6.7175    0.2691 H   0  0  0  0  0  0  0  0  0  0  0  0
    0.7020    0.6960    0.9749 C   0  0  0  0  0  0  0  0  0  0  0  0
    1.7187    1.3544    0.8120 O   0  0  0  0  0  0  0  0  0  0  0  0
    1.0184   -0.4951    1.5808 N   0  0  0  0  0  0  0  0  0  0  0  0
    2.0277   -0.5923    1.6496 H   0  0  0  0  0  0  0  0  0  0  0  0
    0.2894   -0.9280    2.7664 C   0  0  0  0  0  0  0  0  0  0  0  0
    0.8778   -0.7137    3.6639 H   0  0  0  0  0  0  0  0  0  0  0  0
   -0.6707   -0.4115    2.8604 H   0  0  0  0  0  0  0  0  0  0  0  0
    0.1031   -2.0059    2.7216 H   0  0  0  0  0  0  0  0  0  0  0  0
  1  2  1  0  0  0  0
  2  3  1  0  0  0  0
  2  4  1  0  0  0  0
  2  5  1  0  0  0  0
  5  6  2  0  0  0  0
  5  7  1  0  0  0  0
  7  8  1  0  0  0  0
  7  9  1  0  0  0  0
  9 10  1  0  0  0  0
  9 11  1  0  0  0  0
  9 26  1  0  0  0  0
 11 12  1  0  0  0  0
 11 13  1  0  0  0  0
 11 14  1  0  0  0  0
 14 15  1  0  0  0  0
 14 16  1  0  0  0  0
 14 17  1  0  0  0  0
 17 18  1  0  0  0  0
 17 19  1  0  0  0  0
 17 20  1  0  0  0  0
 20 21  1  0  0  0  0
 20 22  1  0  0  0  0
 20 23  1  0  0  0  0
 23 24  1  0  0  0  0
 23 25  1  0  0  0  0
 26 27  2  0  0  0  0
 26 28  1  0  0  0  0
 28 29  1  0  0  0  0
 28 30  1  0  0  0  0
 30 31  1  0  0  0  0
 30 32  1  0  0  0  0
 30 33  1  0  0  0  0
M  END
$$$$

  -OEChem-01062216083D

 33 32  0     1  0  0  0  0  0999 V2000
   -4.1658   -2.1422    0.8206 H   0  0  0  0  0  0  0  0  0  0  0  0
   -3.9663   -1.1151    0.5017 C   0  0  0  0  0  0  0  0  0  0  0  0
   -4.4684   -0.4321    1.1912 H   0  0  0  0  0  0  0  0  0  0  0  0
   -4.3719   -0.9737   -0.5030 H   0  0  0  0  0  0  0  0  0  0  0  0
   -2.4727   -0.8468    0.4994 C   0  0  0  0  0  0  0  0  0  0  0  0
   -1.7154   -1.7853    0.6592 O   0  0  0  0  0  0  0  0  0  0  0  0
   -2.0394    0.4299    0.1911 N   0  0  0  0  0  0  0  0  0  0  0  0
   -2.8101    1.0643    0.0065 H   0  0  0  0  0  0  0  0  0  0  0  0
   -0.7351    1.1186    0.3880 C   0  0  1  0  0  0  0  0  0  0  0  0
   -0.2396    1.1320   -0.5876 H   0  0  0  0  0  0  0  0  0  0  0  0
   -1.1251    2.5755    0.7530 C   0  0  0  0  0  0  0  0  0  0  0  0
   -1.8009    2.5694    1.6148 H   0  0  0  0  0  0  0  0  0  0  0  0
   -0.2370    3.1467    1.0423 H   0  0  0  0  0  0  0  0  0  0  0  0
   -1.7686    3.3212   -0.4294 C   0  0  0  0  0  0  0  0  0  0  0  0
   -1.0724    3.3342   -1.2749 H   0  0  0  0  0  0  0  0  0  0  0  0
   -2.6811    2.8107   -0.7517 H   0  0  0  0  0  0  0  0  0  0  0  0
   -2.1139    4.7602   -0.0310 C   0  0  0  0  0  0  0  0  0  0  0  0
   -2.7920    4.7503    0.8283 H   0  0  0  0  0  0  0  0  0  0  0  0
   -1.2029    5.2909    0.2652 H   0  0  0  0  0  0  0  0  0  0  0  0
   -2.7750    5.5004   -1.1903 C   0  0  0  0  0  0  0  0  0  0  0  0
   -2.0931    5.5402   -2.0471 H   0  0  0  0  0  0  0  0  0  0  0  0
   -3.6842    4.9752   -1.5027 H   0  0  0  0  0  0  0  0  0  0  0  0
   -3.1052    6.8589   -0.7507 N   0  0  0  0  0  0  0  0  0  0  0  0
   -3.5454    7.3951   -1.4986 H   0  0  0  0  0  0  0  0  0  0  0  0
   -3.6917    6.8451    0.0837 H   0  0  0  0  0  0  0  0  0  0  0  0
    0.3791    0.5720    1.3465 C   0  0  0  0  0  0  0  0  0  0  0  0
    1.1745    1.3542    1.8538 O   0  0  0  0  0  0  0  0  0  0  0  0
    0.5877   -0.7620    1.6320 N   0  0  0  0  0  0  0  0  0  0  0  0
   -0.0816   -1.4244    1.2370 H   0  0  0  0  0  0  0  0  0  0  0  0
    1.6174   -1.2648    2.5329 C   0  0  0  0  0  0  0  0  0  0  0  0
    1.4831   -0.8504    3.5374 H   0  0  0  0  0  0  0  0  0  0  0  0
    1.5586   -2.3556    2.5979 H   0  0  0  0  0  0  0  0  0  0  0  0
    2.6132   -0.9933    2.1674 H   0  0  0  0  0  0  0  0  0  0  0  0
  1  2  1  0  0  0  0
  2  3  1  0  0  0  0
  2  4  1  0  0  0  0
  2  5  1  0  0  0  0
  5  6  2  0  0  0  0
  5  7  1  0  0  0  0
  7  8  1  0  0  0  0
  7  9  1  0  0  0  0
  9 10  1  0  0  0  0
  9 11  1  0  0  0  0
  9 26  1  0  0  0  0
 11 12  1  0  0  0  0
 11 13  1  0  0  0  0
 11 14  1  0  0  0  0
 14 15  1  0  0  0  0
 14 16  1  0  0  0  0
 14 17  1  0  0  0  0
 17 18  1  0  0  0  0
 17 19  1  0  0  0  0
 17 20  1  0  0  0  0
 20 21  1  0  0  0  0
 20 22  1  0  0  0  0
 20 23  1  0  0  0  0
 23 24  1  0  0  0  0
 23 25  1  0  0  0  0
 26 27  2  0  0  0  0
 26 28  1  0  0  0  0
 28 29  1  0  0  0  0
 28 30  1  0  0  0  0
 30 31  1  0  0  0  0
 30 32  1  0  0  0  0
 30 33  1  0  0  0  0
M  END
$$$$

  -OEChem-01062216083D

 33 32  0     1  0  0  0  0  0999 V2000
   -4.1133   -2.1561    0.9371 H   0  0  0  0  0  0  0  0  0  0  0  0
   -3.9407   -1.1219    0.6251 C   0  0  0  0  0  0  0  0  0  0  0  0
   -4.4165   -0.4552    1.3486 H   0  0  0  0  0  0  0  0  0  0  0  0
   -4.3962   -0.9697   -0.3565 H   0  0  0  0  0  0  0  0  0  0  0  0
   -2.4517   -0.8366    0.5567 C   0  0  0  0  0  0  0  0  0  0  0  0
   -1.6758   -1.7633    0.6958 O   0  0  0  0  0  0  0  0  0  0  0  0
   -2.0435    0.4409    0.2191 N   0  0  0  0  0  0  0  0  0  0  0  0
   -2.8236    1.0734    0.0707 H   0  0  0  0  0  0  0  0  0  0  0  0
   -0.7316    1.1261    0.3615 C   0  0  1  0  0  0  0  0  0  0  0  0
   -0.2690    1.1244   -0.6303 H   0  0  0  0  0  0  0  0  0  0  0  0
   -1.0834    2.5926    0.7202 C   0  0  0  0  0  0  0  0  0  0  0  0
   -1.7242    2.6110    1.6083 H   0  0  0  0  0  0  0  0  0  0  0  0
   -0.1719    3.1487    0.9639 H   0  0  0  0  0  0  0  0  0  0  0  0
   -1.7587    3.3307   -0.4484 C   0  0  0  0  0  0  0  0  0  0  0  0
   -1.0950    3.3200   -1.3196 H   0  0  0  0  0  0  0  0  0  0  0  0
   -2.6905    2.8296   -0.7274 H   0  0  0  0  0  0  0  0  0  0  0  0
   -2.0656    4.7806   -0.0590 C   0  0  0  0  0  0  0  0  0  0  0  0
   -2.7111    4.7940    0.8252 H   0  0  0  0  0  0  0  0  0  0  0  0
   -1.1353    5.2998    0.1947 H   0  0  0  0  0  0  0  0  0  0  0  0
   -2.7582    5.5160   -1.2028 C   0  0  0  0  0  0  0  0  0  0  0  0
   -2.1093    5.5324   -2.0857 H   0  0  0  0  0  0  0  0  0  0  0  0
   -3.6874    5.0022   -1.4727 H   0  0  0  0  0  0  0  0  0  0  0  0
   -3.0489    6.8856   -0.7697 N   0  0  0  0  0  0  0  0  0  0  0  0
   -3.5138    7.4176   -1.5056 H   0  0  0  0  0  0  0  0  0  0  0  0
   -3.5987    6.8926    0.0893 H   0  0  0  0  0  0  0  0  0  0  0  0
    0.3979    0.5560    1.2856 C   0  0  0  0  0  0  0  0  0  0  0  0
    1.0538    1.3113    1.9941 O   0  0  0  0  0  0  0  0  0  0  0  0
    0.7599   -0.7761    1.3128 N   0  0  0  0  0  0  0  0  0  0  0  0
    0.0945   -1.4206    0.8807 H   0  0  0  0  0  0  0  0  0  0  0  0
    1.7493   -1.3282    2.2303 C   0  0  0  0  0  0  0  0  0  0  0  0
    1.4293   -1.1876    3.2678 H   0  0  0  0  0  0  0  0  0  0  0  0
    1.8743   -2.3995    2.0472 H   0  0  0  0  0  0  0  0  0  0  0  0
    2.7191   -0.8397    2.0897 H   0  0  0  0  0  0  0  0  0  0  0  0
  1  2  1  0  0  0  0
  2  3  1  0  0  0  0
  2  4  1  0  0  0  0
  2  5  1  0  0  0  0
  5  6  2  0  0  0  0
  5  7  1  0  0  0  0
  7  8  1  0  0  0  0
  7  9  1  0  0  0  0
  9 10  1  0  0  0  0
  9 11  1  0  0  0  0
  9 26  1  0  0  0  0
 11 12  1  0  0  0  0
 11 13  1  0  0  0  0
 11 14  1  0  0  0  0
 14 15  1  0  0  0  0
 14 16  1  0  0  0  0
 14 17  1  0  0  0  0
 17 18  1  0  0  0  0
 17 19  1  0  0  0  0
 17 20  1  0  0  0  0
 20 21  1  0  0  0  0
 20 22  1  0  0  0  0
 20 23  1  0  0  0  0
 23 24  1  0  0  0  0
 23 25  1  0  0  0  0
 26 27  2  0  0  0  0
 26 28  1  0  0  0  0
 28 29  1  0  0  0  0
 28 30  1  0  0  0  0
 30 31  1  0  0  0  0
 30 32  1  0  0  0  0
 30 33  1  0  0  0  0
M  END
$$$$

  -OEChem-01062216083D

 33 32  0     1  0  0  0  0  0999 V2000
   -3.9551   -2.2203    1.0383 H   0  0  0  0  0  0  0  0  0  0  0  0
   -3.8393   -1.1889    0.6928 C   0  0  0  0  0  0  0  0  0  0  0  0
   -4.3161   -0.5225    1.4157 H   0  0  0  0  0  0  0  0  0  0  0  0
   -4.3365   -1.0832   -0.2746 H   0  0  0  0  0  0  0  0  0  0  0  0
   -2.3679   -0.8437    0.5607 C   0  0  0  0  0  0  0  0  0  0  0  0
   -1.5446   -1.7351    0.6598 O   0  0  0  0  0  0  0  0  0  0  0  0
   -2.0199    0.4454    0.2017 N   0  0  0  0  0  0  0  0  0  0  0  0
   -2.8217    1.0596    0.0992 H   0  0  0  0  0  0  0  0  0  0  0  0
   -0.7223    1.1524    0.3406 C   0  0  1  0  0  0  0  0  0  0  0  0
   -0.2523    1.1545   -0.6475 H   0  0  0  0  0  0  0  0  0  0  0  0
   -1.0720    2.6160    0.7013 C   0  0  0  0  0  0  0  0  0  0  0  0
   -1.7089    2.6337    1.5923 H   0  0  0  0  0  0  0  0  0  0  0  0
   -0.1551    3.1647    0.9429 H   0  0  0  0  0  0  0  0  0  0  0  0
   -1.7554    3.3535   -0.4625 C   0  0  0  0  0  0  0  0  0  0  0  0
   -1.0990    3.3426   -1.3394 H   0  0  0  0  0  0  0  0  0  0  0  0
   -2.6885    2.8508   -0.7340 H   0  0  0  0  0  0  0  0  0  0  0  0
   -2.0602    4.8032   -0.0699 C   0  0  0  0  0  0  0  0  0  0  0  0
   -2.6993    4.8154    0.8191 H   0  0  0  0  0  0  0  0  0  0  0  0
   -1.1282    5.3221    0.1779 H   0  0  0  0  0  0  0  0  0  0  0  0
   -2.7607    5.5400   -1.2078 C   0  0  0  0  0  0  0  0  0  0  0  0
   -2.1184    5.5581   -2.0955 H   0  0  0  0  0  0  0  0  0  0  0  0
   -3.6918    5.0264   -1.4716 H   0  0  0  0  0  0  0  0  0  0  0  0
   -3.0481    6.9085   -0.7698 N   0  0  0  0  0  0  0  0  0  0  0  0
   -3.5328    7.4373   -1.4949 H   0  0  0  0  0  0  0  0  0  0  0  0
   -3.5776    6.9138    0.1019 H   0  0  0  0  0  0  0  0  0  0  0  0
    0.3852    0.5726    1.2784 C   0  0  0  0  0  0  0  0  0  0  0  0
    0.8573    1.2539    2.1819 O   0  0  0  0  0  0  0  0  0  0  0  0
    0.9264   -0.6826    1.0770 N   0  0  0  0  0  0  0  0  0  0  0  0
    0.3178   -1.3197    0.5585 H   0  0  0  0  0  0  0  0  0  0  0  0
    1.9018   -1.2789    1.9816 C   0  0  0  0  0  0  0  0  0  0  0  0
    1.4739   -1.3970    2.9823 H   0  0  0  0  0  0  0  0  0  0  0  0
    2.2023   -2.2641    1.6128 H   0  0  0  0  0  0  0  0  0  0  0  0
    2.7961   -0.6511    2.0514 H   0  0  0  0  0  0  0  0  0  0  0  0
  1  2  1  0  0  0  0
  2  3  1  0  0  0  0
  2  4  1  0  0  0  0
  2  5  1  0  0  0  0
  5  6  2  0  0  0  0
  5  7  1  0  0  0  0
  7  8  1  0  0  0  0
  7  9  1  0  0  0  0
  9 10  1  0  0  0  0
  9 11  1  0  0  0  0
  9 26  1  0  0  0  0
 11 12  1  0  0  0  0
 11 13  1  0  0  0  0
 11 14  1  0  0  0  0
 14 15  1  0  0  0  0
 14 16  1  0  0  0  0
 14 17  1  0  0  0  0
 17 18  1  0  0  0  0
 17 19  1  0  0  0  0
 17 20  1  0  0  0  0
 20 21  1  0  0  0  0
 20 22  1  0  0  0  0
 20 23  1  0  0  0  0
 23 24  1  0  0  0  0
 23 25  1  0  0  0  0
 26 27  2  0  0  0  0
 26 28  1  0  0  0  0
 28 29  1  0  0  0  0
 28 30  1  0  0  0  0
 30 31  1  0  0  0  0
 30 32  1  0  0  0  0
 30 33  1  0  0  0  0
M  END
$$$$

  -OEChem-01062216083D

 33 32  0     1  0  0  0  0  0999 V2000
   -3.7746   -2.2994    1.1102 H   0  0  0  0  0  0  0  0  0  0  0  0
   -3.7268   -1.2619    0.7674 C   0  0  0  0  0  0  0  0  0  0  0  0
   -4.1837   -0.6221    1.5263 H   0  0  0  0  0  0  0  0  0  0  0  0
   -4.2903   -1.1724   -0.1644 H   0  0  0  0  0  0  0  0  0  0  0  0
   -2.2832   -0.8519    0.5435 C   0  0  0  0  0  0  0  0  0  0  0  0
   -1.4109   -1.7023    0.5812 O   0  0  0  0  0  0  0  0  0  0  0  0
   -2.0044    0.4468    0.1596 N   0  0  0  0  0  0  0  0  0  0  0  0
   -2.8268    1.0404    0.1140 H   0  0  0  0  0  0  0  0  0  0  0  0
   -0.7225    1.1744    0.3084 C   0  0  1  0  0  0  0  0  0  0  0  0
   -0.2362    1.1842   -0.6719 H   0  0  0  0  0  0  0  0  0  0  0  0
   -1.0702    2.6338    0.6787 C   0  0  0  0  0  0  0  0  0  0  0  0
   -1.7105    2.6451    1.5676 H   0  0  0  0  0  0  0  0  0  0  0  0
   -0.1497    3.1723    0.9304 H   0  0  0  0  0  0  0  0  0  0  0  0
   -1.7528    3.3798   -0.4790 C   0  0  0  0  0  0  0  0  0  0  0  0
   -1.0973    3.3742   -1.3563 H   0  0  0  0  0  0  0  0  0  0  0  0
   -2.6865    2.8785   -0.7522 H   0  0  0  0  0  0  0  0  0  0  0  0
   -2.0562    4.8274   -0.0767 C   0  0  0  0  0  0  0  0  0  0  0  0
   -2.6952    4.8345    0.8122 H   0  0  0  0  0  0  0  0  0  0  0  0
   -1.1236    5.3441    0.1743 H   0  0  0  0  0  0  0  0  0  0  0  0
   -2.7564    5.5721   -1.2099 C   0  0  0  0  0  0  0  0  0  0  0  0
   -2.1144    5.5946   -2.0976 H   0  0  0  0  0  0  0  0  0  0  0  0
   -3.6879    5.0607   -1.4765 H   0  0  0  0  0  0  0  0  0  0  0  0
   -3.0429    6.9387   -0.7642 N   0  0  0  0  0  0  0  0  0  0  0  0
   -3.5212    7.4736   -1.4893 H   0  0  0  0  0  0  0  0  0  0  0  0
   -3.5791    6.9393    0.1036 H   0  0  0  0  0  0  0  0  0  0  0  0
    0.3492    0.5834    1.2731 C   0  0  0  0  0  0  0  0  0  0  0  0
    0.6201    1.1465    2.3282 O   0  0  0  0  0  0  0  0  0  0  0  0
    1.0896   -0.5249    0.9067 N   0  0  0  0  0  0  0  0  0  0  0  0
    0.5991   -1.1420    0.2581 H   0  0  0  0  0  0  0  0  0  0  0  0
    2.0538   -1.1460    1.8065 C   0  0  0  0  0  0  0  0  0  0  0  0
    1.5528   -1.5163    2.7071 H   0  0  0  0  0  0  0  0  0  0  0  0
    2.5438   -1.9886    1.3092 H   0  0  0  0  0  0  0  0  0  0  0  0
    2.8243   -0.4263    2.1020 H   0  0  0  0  0  0  0  0  0  0  0  0
  1  2  1  0  0  0  0
  2  3  1  0  0  0  0
  2  4  1  0  0  0  0
  2  5  1  0  0  0  0
  5  6  2  0  0  0  0
  5  7  1  0  0  0  0
  7  8  1  0  0  0  0
  7  9  1  0  0  0  0
  9 10  1  0  0  0  0
  9 11  1  0  0  0  0
  9 26  1  0  0  0  0
 11 12  1  0  0  0  0
 11 13  1  0  0  0  0
 11 14  1  0  0  0  0
 14 15  1  0  0  0  0
 14 16  1  0  0  0  0
 14 17  1  0  0  0  0
 17 18  1  0  0  0  0
 17 19  1  0  0  0  0
 17 20  1  0  0  0  0
 20 21  1  0  0  0  0
 20 22  1  0  0  0  0
 20 23  1  0  0  0  0
 23 24  1  0  0  0  0
 23 25  1  0  0  0  0
 26 27  2  0  0  0  0
 26 28  1  0  0  0  0
 28 29  1  0  0  0  0
 28 30  1  0  0  0  0
 30 31  1  0  0  0  0
 30 32  1  0  0  0  0
 30 33  1  0  0  0  0
M  END
$$$$

  -OEChem-01062216083D

 33 32  0     1  0  0  0  0  0999 V2000
   -3.6550   -2.3278    1.1826 H   0  0  0  0  0  0  0  0  0  0  0  0
   -3.6477   -1.2984    0.8130 C   0  0  0  0  0  0  0  0  0  0  0  0
   -4.1066   -0.6535    1.5664 H   0  0  0  0  0  0  0  0  0  0  0  0
   -4.2340   -1.2495   -0.1075 H   0  0  0  0  0  0  0  0  0  0  0  0
   -2.2236   -0.8502    0.5440 C   0  0  0  0  0  0  0  0  0  0  0  0
   -1.3227   -1.6722    0.5652 O   0  0  0  0  0  0  0  0  0  0  0  0
   -1.9903    0.4481    0.1294 N   0  0  0  0  0  0  0  0  0  0  0  0
   -2.8243    1.0267    0.1123 H   0  0  0  0  0  0  0  0  0  0  0  0
   -0.7181    1.1881    0.2755 C   0  0  1  0  0  0  0  0  0  0  0  0
   -0.2243    1.2003   -0.7009 H   0  0  0  0  0  0  0  0  0  0  0  0
   -1.0635    2.6437    0.6537 C   0  0  0  0  0  0  0  0  0  0  0  0
   -1.7006    2.6507    1.5449 H   0  0  0  0  0  0  0  0  0  0  0  0
   -0.1398    3.1759    0.9072 H   0  0  0  0  0  0  0  0  0  0  0  0
   -1.7545    3.3947   -0.4954 C   0  0  0  0  0  0  0  0  0  0  0  0
   -1.1053    3.3931   -1.3776 H   0  0  0  0  0  0  0  0  0  0  0  0
   -2.6898    2.8934   -0.7632 H   0  0  0  0  0  0  0  0  0  0  0  0
   -2.0554    4.8402   -0.0843 C   0  0  0  0  0  0  0  0  0  0  0  0
   -2.6870    4.8428    0.8099 H   0  0  0  0  0  0  0  0  0  0  0  0
   -1.1210    5.3552    0.1619 H   0  0  0  0  0  0  0  0  0  0  0  0
   -2.7641    5.5923   -1.2075 C   0  0  0  0  0  0  0  0  0  0  0  0
   -2.1294    5.6206   -2.1002 H   0  0  0  0  0  0  0  0  0  0  0  0
   -3.6983    5.0835   -1.4699 H   0  0  0  0  0  0  0  0  0  0  0  0
   -3.0460    6.9559   -0.7499 N   0  0  0  0  0  0  0  0  0  0  0  0
   -3.5286    7.4973   -1.4673 H   0  0  0  0  0  0  0  0  0  0  0  0
   -3.5750    6.9509    0.1222 H   0  0  0  0  0  0  0  0  0  0  0  0
    0.3273    0.5952    1.2621 C   0  0  0  0  0  0  0  0  0  0  0  0
    0.3945    1.0036    2.4164 O   0  0  0  0  0  0  0  0  0  0  0  0
    1.2683   -0.3122    0.8110 N   0  0  0  0  0  0  0  0  0  0  0  0
    0.9761   -0.8424   -0.0070 H   0  0  0  0  0  0  0  0  0  0  0  0
    2.2175   -0.9520    1.7134 C   0  0  0  0  0  0  0  0  0  0  0  0
    1.6886   -1.5476    2.4650 H   0  0  0  0  0  0  0  0  0  0  0  0
    2.8842   -1.6133    1.1516 H   0  0  0  0  0  0  0  0  0  0  0  0
    2.8291   -0.2008    2.2243 H   0  0  0  0  0  0  0  0  0  0  0  0
  1  2  1  0  0  0  0
  2  3  1  0  0  0  0
  2  4  1  0  0  0  0
  2  5  1  0  0  0  0
  5  6  2  0  0  0  0
  5  7  1  0  0  0  0
  7  8  1  0  0  0  0
  7  9  1  0  0  0  0
  9 10  1  0  0  0  0
  9 11  1  0  0  0  0
  9 26  1  0  0  0  0
 11 12  1  0  0  0  0
 11 13  1  0  0  0  0
 11 14  1  0  0  0  0
 14 15  1  0  0  0  0
 14 16  1  0  0  0  0
 14 17  1  0  0  0  0
 17 18  1  0  0  0  0
 17 19  1  0  0  0  0
 17 20  1  0  0  0  0
 20 21  1  0  0  0  0
 20 22  1  0  0  0  0
 20 23  1  0  0  0  0
 23 24  1  0  0  0  0
 23 25  1  0  0  0  0
 26 27  2  0  0  0  0
 26 28  1  0  0  0  0
 28 29  1  0  0  0  0
 28 30  1  0  0  0  0
 30 31  1  0  0  0  0
 30 32  1  0  0  0  0
 30 33  1  0  0  0  0
M  END
$$$$

  -OEChem-01062216083D

 33 32  0     1  0  0  0  0  0999 V2000
   -3.5740   -2.3560    1.2034 H   0  0  0  0  0  0  0  0  0  0  0  0
   -3.5924   -1.3176    0.8609 C   0  0  0  0  0  0  0  0  0  0  0  0
   -4.0126   -0.6955    1.6549 H   0  0  0  0  0  0  0  0  0  0  0  0
   -4.2289   -1.2494   -0.0245 H   0  0  0  0  0  0  0  0  0  0  0  0
   -2.1871   -0.8530    0.5285 C   0  0  0  0  0  0  0  0  0  0  0  0
   -1.2731   -1.6615    0.5167 O   0  0  0  0  0  0  0  0  0  0  0  0
   -1.9853    0.4450    0.0951 N   0  0  0  0  0  0  0  0  0  0  0  0
   -2.8255    1.0141    0.1162 H   0  0  0  0  0  0  0  0  0  0  0  0
   -0.7199    1.1943    0.2461 C   0  0  1  0  0  0  0  0  0  0  0  0
   -0.2205    1.2088   -0.7272 H   0  0  0  0  0  0  0  0  0  0  0  0
   -1.0637    2.6462    0.6331 C   0  0  0  0  0  0  0  0  0  0  0  0
   -1.7017    2.6469    1.5239 H   0  0  0  0  0  0  0  0  0  0  0  0
   -0.1395    3.1749    0.8925 H   0  0  0  0  0  0  0  0  0  0  0  0
   -1.7560    3.4031   -0.5110 C   0  0  0  0  0  0  0  0  0  0  0  0
   -1.1079    3.4064   -1.3941 H   0  0  0  0  0  0  0  0  0  0  0  0
   -2.6912    2.9029   -0.7808 H   0  0  0  0  0  0  0  0  0  0  0  0
   -2.0555    4.8460   -0.0903 C   0  0  0  0  0  0  0  0  0  0  0  0
   -2.6867    4.8431    0.8044 H   0  0  0  0  0  0  0  0  0  0  0  0
   -1.1208    5.3594    0.1586 H   0  0  0  0  0  0  0  0  0  0  0  0
   -2.7655    5.6047   -1.2079 C   0  0  0  0  0  0  0  0  0  0  0  0
   -2.1321    5.6378   -2.1014 H   0  0  0  0  0  0  0  0  0  0  0  0
   -3.7001    5.0974   -1.4719 H   0  0  0  0  0  0  0  0  0  0  0  0
   -3.0464    6.9656   -0.7421 N   0  0  0  0  0  0  0  0  0  0  0  0
   -3.5293    7.5108   -1.4564 H   0  0  0  0  0  0  0  0  0  0  0  0
   -3.5765    6.9550    0.1294 H   0  0  0  0  0  0  0  0  0  0  0  0
    0.3088    0.6059    1.2489 C   0  0  0  0  0  0  0  0  0  0  0  0
    0.1879    0.8241    2.4496 O   0  0  0  0  0  0  0  0  0  0  0  0
    1.4348   -0.0511    0.7871 N   0  0  0  0  0  0  0  0  0  0  0  0
    1.3688   -0.4107   -0.1607 H   0  0  0  0  0  0  0  0  0  0  0  0
    2.3733   -0.7019    1.6928 C   0  0  0  0  0  0  0  0  0  0  0  0
    1.8739   -1.5025    2.2488 H   0  0  0  0  0  0  0  0  0  0  0  0
    3.2035   -1.1360    1.1277 H   0  0  0  0  0  0  0  0  0  0  0  0
    2.7842    0.0203    2.4062 H   0  0  0  0  0  0  0  0  0  0  0  0
  1  2  1  0  0  0  0
  2  3  1  0  0  0  0
  2  4  1  0  0  0  0
  2  5  1  0  0  0  0
  5  6  2  0  0  0  0
  5  7  1  0  0  0  0
  7  8  1  0  0  0  0
  7  9  1  0  0  0  0
  9 10  1  0  0  0  0
  9 11  1  0  0  0  0
  9 26  1  0  0  0  0
 11 12  1  0  0  0  0
 11 13  1  0  0  0  0
 11 14  1  0  0  0  0
 14 15  1  0  0  0  0
 14 16  1  0  0  0  0
 14 17  1  0  0  0  0
 17 18  1  0  0  0  0
 17 19  1  0  0  0  0
 17 20  1  0  0  0  0
 20 21  1  0  0  0  0
 20 22  1  0  0  0  0
 20 23  1  0  0  0  0
 23 24  1  0  0  0  0
 23 25  1  0  0  0  0
 26 27  2  0  0  0  0
 26 28  1  0  0  0  0
 28 29  1  0  0  0  0
 28 30  1  0  0  0  0
 30 31  1  0  0  0  0
 30 32  1  0  0  0  0
 30 33  1  0  0  0  0
M  END
$$$$

  -OEChem-01062216083D

 33 32  0     1  0  0  0  0  0999 V2000
   -3.5546   -2.3615    1.2143 H   0  0  0  0  0  0  0  0  0  0  0  0
   -3.5800   -1.3212    0.8779 C   0  0  0  0  0  0  0  0  0  0  0  0
   -3.9785   -0.7027    1.6855 H   0  0  0  0  0  0  0  0  0  0  0  0
   -4.2384   -1.2471    0.0093 H   0  0  0  0  0  0  0  0  0  0  0  0
   -2.1826   -0.8568    0.5131 C   0  0  0  0  0  0  0  0  0  0  0  0
   -1.2707   -1.6670    0.4673 O   0  0  0  0  0  0  0  0  0  0  0  0
   -1.9888    0.4403    0.0732 N   0  0  0  0  0  0  0  0  0  0  0  0
   -2.8283    1.0086    0.1170 H   0  0  0  0  0  0  0  0  0  0  0  0
   -0.7241    1.1883    0.2311 C   0  0  1  0  0  0  0  0  0  0  0  0
   -0.2213    1.2025   -0.7404 H   0  0  0  0  0  0  0  0  0  0  0  0
   -1.0645    2.6373    0.6275 C   0  0  0  0  0  0  0  0  0  0  0  0
   -1.7036    2.6341    1.5175 H   0  0  0  0  0  0  0  0  0  0  0  0
   -0.1395    3.1624    0.8907 H   0  0  0  0  0  0  0  0  0  0  0  0
   -1.7542    3.4011   -0.5132 C   0  0  0  0  0  0  0  0  0  0  0  0
   -1.1057    3.4072   -1.3956 H   0  0  0  0  0  0  0  0  0  0  0  0
   -2.6900    2.9036   -0.7854 H   0  0  0  0  0  0  0  0  0  0  0  0
   -2.0528    4.8428   -0.0881 C   0  0  0  0  0  0  0  0  0  0  0  0
   -2.6847    4.8384    0.8061 H   0  0  0  0  0  0  0  0  0  0  0  0
   -1.1178    5.3549    0.1626 H   0  0  0  0  0  0  0  0  0  0  0  0
   -2.7604    5.6041   -1.2055 C   0  0  0  0  0  0  0  0  0  0  0  0
   -2.1255    5.6385   -2.0978 H   0  0  0  0  0  0  0  0  0  0  0  0
   -3.6949    5.0978   -1.4712 H   0  0  0  0  0  0  0  0  0  0  0  0
   -3.0421    6.9644   -0.7385 N   0  0  0  0  0  0  0  0  0  0  0  0
   -3.5245    7.5099   -1.4530 H   0  0  0  0  0  0  0  0  0  0  0  0
   -3.5736    6.9526    0.1321 H   0  0  0  0  0  0  0  0  0  0  0  0
    0.2950    0.6009    1.2428 C   0  0  0  0  0  0  0  0  0  0  0  0
    0.0426    0.6313    2.4427 O   0  0  0  0  0  0  0  0  0  0  0  0
    1.5576    0.2191    0.8257 N   0  0  0  0  0  0  0  0  0  0  0  0
    1.6711    0.0582   -0.1702 H   0  0  0  0  0  0  0  0  0  0  0  0
    2.5253   -0.3864    1.7323 C   0  0  0  0  0  0  0  0  0  0  0  0
    2.1321   -1.3242    2.1394 H   0  0  0  0  0  0  0  0  0  0  0  0
    3.4575   -0.6015    1.2012 H   0  0  0  0  0  0  0  0  0  0  0  0
    2.7510    0.2917    2.5621 H   0  0  0  0  0  0  0  0  0  0  0  0
  1  2  1  0  0  0  0
  2  3  1  0  0  0  0
  2  4  1  0  0  0  0
  2  5  1  0  0  0  0
  5  6  2  0  0  0  0
  5  7  1  0  0  0  0
  7  8  1  0  0  0  0
  7  9  1  0  0  0  0
  9 10  1  0  0  0  0
  9 11  1  0  0  0  0
  9 26  1  0  0  0  0
 11 12  1  0  0  0  0
 11 13  1  0  0  0  0
 11 14  1  0  0  0  0
 14 15  1  0  0  0  0
 14 16  1  0  0  0  0
 14 17  1  0  0  0  0
 17 18  1  0  0  0  0
 17 19  1  0  0  0  0
 17 20  1  0  0  0  0
 20 21  1  0  0  0  0
 20 22  1  0  0  0  0
 20 23  1  0  0  0  0
 23 24  1  0  0  0  0
 23 25  1  0  0  0  0
 26 27  2  0  0  0  0
 26 28  1  0  0  0  0
 28 29  1  0  0  0  0
 28 30  1  0  0  0  0
 30 31  1  0  0  0  0
 30 32  1  0  0  0  0
 30 33  1  0  0  0  0
M  END
$$$$

  -OEChem-01062216083D

 33 32  0     1  0  0  0  0  0999 V2000
   -3.5486   -2.3763    1.1976 H   0  0  0  0  0  0  0  0  0  0  0  0
   -3.5731   -1.3238    0.9015 C   0  0  0  0  0  0  0  0  0  0  0  0
   -3.9145   -0.7289    1.7522 H   0  0  0  0  0  0  0  0  0  0  0  0
   -4.2766   -1.2058    0.0740 H   0  0  0  0  0  0  0  0  0  0  0  0
   -2.1891   -0.8698    0.4780 C   0  0  0  0  0  0  0  0  0  0  0  0
   -1.2883   -1.6874    0.3752 O   0  0  0  0  0  0  0  0  0  0  0  0
   -1.9986    0.4282    0.0401 N   0  0  0  0  0  0  0  0  0  0  0  0
   -2.8351    0.9977    0.1129 H   0  0  0  0  0  0  0  0  0  0  0  0
   -0.7318    1.1698    0.2139 C   0  0  1  0  0  0  0  0  0  0  0  0
   -0.2226    1.1855   -0.7542 H   0  0  0  0  0  0  0  0  0  0  0  0
   -1.0702    2.6158    0.6212 C   0  0  0  0  0  0  0  0  0  0  0  0
   -1.7165    2.6051    1.5059 H   0  0  0  0  0  0  0  0  0  0  0  0
   -0.1463    3.1358    0.8971 H   0  0  0  0  0  0  0  0  0  0  0  0
   -1.7486    3.3919   -0.5180 C   0  0  0  0  0  0  0  0  0  0  0  0
   -1.0925    3.4036   -1.3950 H   0  0  0  0  0  0  0  0  0  0  0  0
   -2.6835    2.8990   -0.8030 H   0  0  0  0  0  0  0  0  0  0  0  0
   -2.0468    4.8312   -0.0837 C   0  0  0  0  0  0  0  0  0  0  0  0
   -2.6870    4.8205    0.8045 H   0  0  0  0  0  0  0  0  0  0  0  0
   -1.1129    5.3386    0.1800 H   0  0  0  0  0  0  0  0  0  0  0  0
   -2.7431    5.6045   -1.2003 C   0  0  0  0  0  0  0  0  0  0  0  0
   -2.1003    5.6455   -2.0867 H   0  0  0  0  0  0  0  0  0  0  0  0
   -3.6765    5.1032   -1.4793 H   0  0  0  0  0  0  0  0  0  0  0  0
   -3.0243    6.9615   -0.7234 N   0  0  0  0  0  0  0  0  0  0  0  0
   -3.4898    7.5179   -1.4405 H   0  0  0  0  0  0  0  0  0  0  0  0
   -3.5719    6.9440    0.1370 H   0  0  0  0  0  0  0  0  0  0  0  0
    0.2797    0.5816    1.2325 C   0  0  0  0  0  0  0  0  0  0  0  0
   -0.0584    0.4353    2.4025 O   0  0  0  0  0  0  0  0  0  0  0  0
    1.6218    0.4893    0.9082 N   0  0  0  0  0  0  0  0  0  0  0  0
    1.8572    0.5252   -0.0786 H   0  0  0  0  0  0  0  0  0  0  0  0
    2.6193   -0.0233    1.8399 C   0  0  0  0  0  0  0  0  0  0  0  0
    2.3823   -1.0540    2.1242 H   0  0  0  0  0  0  0  0  0  0  0  0
    3.6112   -0.0092    1.3781 H   0  0  0  0  0  0  0  0  0  0  0  0
    2.6528    0.5927    2.7448 H   0  0  0  0  0  0  0  0  0  0  0  0
  1  2  1  0  0  0  0
  2  3  1  0  0  0  0
  2  4  1  0  0  0  0
  2  5  1  0  0  0  0
  5  6  2  0  0  0  0
  5  7  1  0  0  0  0
  7  8  1  0  0  0  0
  7  9  1  0  0  0  0
  9 10  1  0  0  0  0
  9 11  1  0  0  0  0
  9 26  1  0  0  0  0
 11 12  1  0  0  0  0
 11 13  1  0  0  0  0
 11 14  1  0  0  0  0
 14 15  1  0  0  0  0
 14 16  1  0  0  0  0
 14 17  1  0  0  0  0
 17 18  1  0  0  0  0
 17 19  1  0  0  0  0
 17 20  1  0  0  0  0
 20 21  1  0  0  0  0
 20 22  1  0  0  0  0
 20 23  1  0  0  0  0
 23 24  1  0  0  0  0
 23 25  1  0  0  0  0
 26 27  2  0  0  0  0
 26 28  1  0  0  0  0
 28 29  1  0  0  0  0
 28 30  1  0  0  0  0
 30 31  1  0  0  0  0
 30 32  1  0  0  0  0
 30 33  1  0  0  0  0
M  END
$$$$

  -OEChem-01062216083D

 33 32  0     1  0  0  0  0  0999 V2000
   -3.5532   -2.3722    1.2229 H   0  0  0  0  0  0  0  0  0  0  0  0
   -3.5794   -1.3234    0.9137 C   0  0  0  0  0  0  0  0  0  0  0  0
   -3.8929   -0.7156    1.7661 H   0  0  0  0  0  0  0  0  0  0  0  0
   -4.3043   -1.2108    0.1041 H   0  0  0  0  0  0  0  0  0  0  0  0
   -2.2047   -0.8847    0.4467 C   0  0  0  0  0  0  0  0  0  0  0  0
   -1.3230   -1.7145    0.2891 O   0  0  0  0  0  0  0  0  0  0  0  0
   -2.0074    0.4138    0.0138 N   0  0  0  0  0  0  0  0  0  0  0  0
   -2.8376    0.9888    0.1093 H   0  0  0  0  0  0  0  0  0  0  0  0
   -0.7350    1.1438    0.1979 C   0  0  1  0  0  0  0  0  0  0  0  0
   -0.2228    1.1600   -0.7687 H   0  0  0  0  0  0  0  0  0  0  0  0
   -1.0697    2.5883    0.6151 C   0  0  0  0  0  0  0  0  0  0  0  0
   -1.7196    2.5725    1.4971 H   0  0  0  0  0  0  0  0  0  0  0  0
   -0.1460    3.1044    0.8997 H   0  0  0  0  0  0  0  0  0  0  0  0
   -1.7397    3.3768   -0.5205 C   0  0  0  0  0  0  0  0  0  0  0  0
   -1.0800    3.3926   -1.3944 H   0  0  0  0  0  0  0  0  0  0  0  0
   -2.6755    2.8906   -0.8135 H   0  0  0  0  0  0  0  0  0  0  0  0
   -2.0332    4.8135   -0.0745 C   0  0  0  0  0  0  0  0  0  0  0  0
   -2.6772    4.7980    0.8108 H   0  0  0  0  0  0  0  0  0  0  0  0
   -1.0979    5.3143    0.1975 H   0  0  0  0  0  0  0  0  0  0  0  0
   -2.7214    5.5996   -1.1873 C   0  0  0  0  0  0  0  0  0  0  0  0
   -2.0749    5.6446   -2.0708 H   0  0  0  0  0  0  0  0  0  0  0  0
   -3.6560    5.1054   -1.4747 H   0  0  0  0  0  0  0  0  0  0  0  0
   -2.9986    6.9538   -0.7000 N   0  0  0  0  0  0  0  0  0  0  0  0
   -3.4536    7.5200   -1.4164 H   0  0  0  0  0  0  0  0  0  0  0  0
   -3.5555    6.9313    0.1543 H   0  0  0  0  0  0  0  0  0  0  0  0
    0.2771    0.5549    1.2173 C   0  0  0  0  0  0  0  0  0  0  0  0
   -0.1050    0.2408    2.3399 O   0  0  0  0  0  0  0  0  0  0  0  0
    1.6344    0.7448    1.0221 N   0  0  0  0  0  0  0  0  0  0  0  0
    1.9389    0.9939    0.0864 H   0  0  0  0  0  0  0  0  0  0  0  0
    2.6395    0.3512    2.0024 C   0  0  0  0  0  0  0  0  0  0  0  0
    2.5737   -0.7225    2.2082 H   0  0  0  0  0  0  0  0  0  0  0  0
    3.6428    0.5712    1.6253 H   0  0  0  0  0  0  0  0  0  0  0  0
    2.4958    0.8994    2.9394 H   0  0  0  0  0  0  0  0  0  0  0  0
  1  2  1  0  0  0  0
  2  3  1  0  0  0  0
  2  4  1  0  0  0  0
  2  5  1  0  0  0  0
  5  6  2  0  0  0  0
  5  7  1  0  0  0  0
  7  8  1  0  0  0  0
  7  9  1  0  0  0  0
  9 10  1  0  0  0  0
  9 11  1  0  0  0  0
  9 26  1  0  0  0  0
 11 12  1  0  0  0  0
 11 13  1  0  0  0  0
 11 14  1  0  0  0  0
 14 15  1  0  0  0  0
 14 16  1  0  0  0  0
 14 17  1  0  0  0  0
 17 18  1  0  0  0  0
 17 19  1  0  0  0  0
 17 20  1  0  0  0  0
 20 21  1  0  0  0  0
 20 22  1  0  0  0  0
 20 23  1  0  0  0  0
 23 24  1  0  0  0  0
 23 25  1  0  0  0  0
 26 27  2  0  0  0  0
 26 28  1  0  0  0  0
 28 29  1  0  0  0  0
 28 30  1  0  0  0  0
 30 31  1  0  0  0  0
 30 32  1  0  0  0  0
 30 33  1  0  0  0  0
M  END
$$$$

  -OEChem-01062216083D

 33 32  0     1  0  0  0  0  0999 V2000
   -3.5638   -2.3567    1.2365 H   0  0  0  0  0  0  0  0  0  0  0  0
   -3.5848   -1.3078    0.9281 C   0  0  0  0  0  0  0  0  0  0  0  0
   -3.8619   -0.6960    1.7898 H   0  0  0  0  0  0  0  0  0  0  0  0
   -4.3331   -1.1841    0.1421 H   0  0  0  0  0  0  0  0  0  0  0  0
   -2.2185   -0.8903    0.4187 C   0  0  0  0  0  0  0  0  0  0  0  0
   -1.3658   -1.7362    0.1991 O   0  0  0  0  0  0  0  0  0  0  0  0
   -2.0065    0.4093   -0.0031 N   0  0  0  0  0  0  0  0  0  0  0  0
   -2.8281    0.9924    0.1142 H   0  0  0  0  0  0  0  0  0  0  0  0
   -0.7258    1.1245    0.1899 C   0  0  1  0  0  0  0  0  0  0  0  0
   -0.2131    1.1428   -0.7765 H   0  0  0  0  0  0  0  0  0  0  0  0
   -1.0649    2.5672    0.6141 C   0  0  0  0  0  0  0  0  0  0  0  0
   -1.7210    2.5446    1.4914 H   0  0  0  0  0  0  0  0  0  0  0  0
   -0.1468    3.0871    0.9079 H   0  0  0  0  0  0  0  0  0  0  0  0
   -1.7279    3.3623   -0.5209 C   0  0  0  0  0  0  0  0  0  0  0  0
   -1.0627    3.3847   -1.3905 H   0  0  0  0  0  0  0  0  0  0  0  0
   -2.6617    2.8780   -0.8239 H   0  0  0  0  0  0  0  0  0  0  0  0
   -2.0249    4.7951   -0.0662 C   0  0  0  0  0  0  0  0  0  0  0  0
   -2.6752    4.7725    0.8144 H   0  0  0  0  0  0  0  0  0  0  0  0
   -1.0917    5.2942    0.2152 H   0  0  0  0  0  0  0  0  0  0  0  0
   -2.7059    5.5887   -1.1775 C   0  0  0  0  0  0  0  0  0  0  0  0
   -2.0526    5.6407   -2.0556 H   0  0  0  0  0  0  0  0  0  0  0  0
   -3.6379    5.0958   -1.4751 H   0  0  0  0  0  0  0  0  0  0  0  0
   -2.9869    6.9389   -0.6817 N   0  0  0  0  0  0  0  0  0  0  0  0
   -3.4354    7.5111   -1.3975 H   0  0  0  0  0  0  0  0  0  0  0  0
   -3.5510    6.9098    0.1676 H   0  0  0  0  0  0  0  0  0  0  0  0
    0.2953    0.5360    1.2039 C   0  0  0  0  0  0  0  0  0  0  0  0
   -0.0937    0.0403    2.2559 O   0  0  0  0  0  0  0  0  0  0  0  0
    1.6049    0.9861    1.1721 N   0  0  0  0  0  0  0  0  0  0  0  0
    1.9199    1.4460    0.3239 H   0  0  0  0  0  0  0  0  0  0  0  0
    2.5855    0.6753    2.2062 C   0  0  0  0  0  0  0  0  0  0  0  0
    2.6914   -0.4087    2.3207 H   0  0  0  0  0  0  0  0  0  0  0  0
    3.5616    1.0918    1.9398 H   0  0  0  0  0  0  0  0  0  0  0  0
    2.2780    1.1028    3.1663 H   0  0  0  0  0  0  0  0  0  0  0  0
  1  2  1  0  0  0  0
  2  3  1  0  0  0  0
  2  4  1  0  0  0  0
  2  5  1  0  0  0  0
  5  6  2  0  0  0  0
  5  7  1  0  0  0  0
  7  8  1  0  0  0  0
  7  9  1  0  0  0  0
  9 10  1  0  0  0  0
  9 11  1  0  0  0  0
  9 26  1  0  0  0  0
 11 12  1  0  0  0  0
 11 13  1  0  0  0  0
 11 14  1  0  0  0  0
 14 15  1  0  0  0  0
 14 16  1  0  0  0  0
 14 17  1  0  0  0  0
 17 18  1  0  0  0  0
 17 19  1  0  0  0  0
 17 20  1  0  0  0  0
 20 21  1  0  0  0  0
 20 22  1  0  0  0  0
 20 23  1  0  0  0  0
 23 24  1  0  0  0  0
 23 25  1  0  0  0  0
 26 27  2  0  0  0  0
 26 28  1  0  0  0  0
 28 29  1  0  0  0  0
 28 30  1  0  0  0  0
 30 31  1  0  0  0  0
 30 32  1  0  0  0  0
 30 33  1  0  0  0  0
M  END
$$$$

  -OEChem-01062216083D

 33 32  0     1  0  0  0  0  0999 V2000
   -4.2276   -2.1106    0.9611 H   0  0  0  0  0  0  0  0  0  0  0  0
   -3.9646   -1.1232    0.5699 C   0  0  0  0  0  0  0  0  0  0  0  0
   -4.5742   -0.3724    1.0782 H   0  0  0  0  0  0  0  0  0  0  0  0
   -4.1831   -1.1017   -0.5003 H   0  0  0  0  0  0  0  0  0  0  0  0
   -2.4911   -0.8414    0.8037 C   0  0  0  0  0  0  0  0  0  0  0  0
   -1.8398   -1.7099    1.3417 O   0  0  0  0  0  0  0  0  0  0  0  0
   -2.0077    0.3827    0.3669 N   0  0  0  0  0  0  0  0  0  0  0  0
   -2.7294    0.9488   -0.0647 H   0  0  0  0  0  0  0  0  0  0  0  0
   -0.6725    1.0359    0.4360 C   0  0  1  0  0  0  0  0  0  0  0  0
   -0.3672    1.2126   -0.5994 H   0  0  0  0  0  0  0  0  0  0  0  0
   -0.9528    2.3978    1.1199 C   0  0  0  0  0  0  0  0  0  0  0  0
   -1.4702    2.2215    2.0699 H   0  0  0  0  0  0  0  0  0  0  0  0
   -0.0158    2.9096    1.3570 H   0  0  0  0  0  0  0  0  0  0  0  0
   -1.7845    3.3432    0.2362 C   0  0  0  0  0  0  0  0  0  0  0  0
   -1.2620    3.5171   -0.7104 H   0  0  0  0  0  0  0  0  0  0  0  0
   -2.7560    2.8937    0.0093 H   0  0  0  0  0  0  0  0  0  0  0  0
   -2.0080    4.6799    0.9519 C   0  0  0  0  0  0  0  0  0  0  0  0
   -2.5142    4.5033    1.9067 H   0  0  0  0  0  0  0  0  0  0  0  0
   -1.0430    5.1521    1.1642 H   0  0  0  0  0  0  0  0  0  0  0  0
   -2.8527    5.6229    0.0996 C   0  0  0  0  0  0  0  0  0  0  0  0
   -2.3446    5.8301   -0.8490 H   0  0  0  0  0  0  0  0  0  0  0  0
   -3.8206    5.1616   -0.1257 H   0  0  0  0  0  0  0  0  0  0  0  0
   -3.0514    6.8699    0.8431 N   0  0  0  0  0  0  0  0  0  0  0  0
   -3.6068    7.5374    0.3072 H   0  0  0  0  0  0  0  0  0  0  0  0
   -3.4747    6.6928    1.7543 H   0  0  0  0  0  0  0  0  0  0  0  0
    0.6040    0.4090    1.0878 C   0  0  0  0  0  0  0  0  0  0  0  0
    0.6774   -0.6903    1.6048 O   0  0  0  0  0  0  0  0  0  0  0  0
    1.7807    1.1449    1.0712 N   0  0  0  0  0  0  0  0  0  0  0  0
    1.7534    2.0650    0.6446 H   0  0  0  0  0  0  0  0  0  0  0  0
    3.0385    0.6770    1.6450 C   0  0  0  0  0  0  0  0  0  0  0  0
    3.3509   -0.2598    1.1714 H   0  0  0  0  0  0  0  0  0  0  0  0
    3.8255    1.4211    1.4900 H   0  0  0  0  0  0  0  0  0  0  0  0
    2.9289    0.5083    2.7216 H   0  0  0  0  0  0  0  0  0  0  0  0
  1  2  1  0  0  0  0
  2  3  1  0  0  0  0
  2  4  1  0  0  0  0
  2  5  1  0  0  0  0
  5  6  2  0  0  0  0
  5  7  1  0  0  0  0
  7  8  1  0  0  0  0
  7  9  1  0  0  0  0
  9 10  1  0  0  0  0
  9 11  1  0  0  0  0
  9 26  1  0  0  0  0
 11 12  1  0  0  0  0
 11 13  1  0  0  0  0
 11 14  1  0  0  0  0
 14 15  1  0  0  0  0
 14 16  1  0  0  0  0
 14 17  1  0  0  0  0
 17 18  1  0  0  0  0
 17 19  1  0  0  0  0
 17 20  1  0  0  0  0
 20 21  1  0  0  0  0
 20 22  1  0  0  0  0
 20 23  1  0  0  0  0
 23 24  1  0  0  0  0
 23 25  1  0  0  0  0
 26 27  2  0  0  0  0
 26 28  1  0  0  0  0
 28 29  1  0  0  0  0
 28 30  1  0  0  0  0
 30 31  1  0  0  0  0
 30 32  1  0  0  0  0
 30 33  1  0  0  0  0
M  END
$$$$

  -OEChem-01062216083D

 33 32  0     1  0  0  0  0  0999 V2000
   -3.4965   -2.5422    1.0173 H   0  0  0  0  0  0  0  0  0  0  0  0
   -3.4545   -1.5985    0.4660 C   0  0  0  0  0  0  0  0  0  0  0  0
   -4.4493   -1.1472    0.4568 H   0  0  0  0  0  0  0  0  0  0  0  0
   -3.1434   -1.8085   -0.5600 H   0  0  0  0  0  0  0  0  0  0  0  0
   -2.4631   -0.6591    1.1253 C   0  0  0  0  0  0  0  0  0  0  0  0
   -2.1253   -0.8577    2.2807 O   0  0  0  0  0  0  0  0  0  0  0  0
   -2.1809    0.5611    0.5403 N   0  0  0  0  0  0  0  0  0  0  0  0
   -2.7231    0.7092   -0.3039 H   0  0  0  0  0  0  0  0  0  0  0  0
   -0.8374    1.1884    0.5006 C   0  0  1  0  0  0  0  0  0  0  0  0
   -0.5507    1.3166   -0.5476 H   0  0  0  0  0  0  0  0  0  0  0  0
   -1.0180    2.5825    1.1446 C   0  0  0  0  0  0  0  0  0  0  0  0
   -1.4717    2.4657    2.1354 H   0  0  0  0  0  0  0  0  0  0  0  0
   -0.0486    3.0688    1.2815 H   0  0  0  0  0  0  0  0  0  0  0  0
   -1.8790    3.5140    0.2772 C   0  0  0  0  0  0  0  0  0  0  0  0
   -1.4217    3.6253   -0.7116 H   0  0  0  0  0  0  0  0  0  0  0  0
   -2.8769    3.0846    0.1429 H   0  0  0  0  0  0  0  0  0  0  0  0
   -2.0093    4.8887    0.9414 C   0  0  0  0  0  0  0  0  0  0  0  0
   -2.4529    4.7730    1.9357 H   0  0  0  0  0  0  0  0  0  0  0  0
   -1.0175    5.3366    1.0638 H   0  0  0  0  0  0  0  0  0  0  0  0
   -2.8821    5.8185    0.1042 C   0  0  0  0  0  0  0  0  0  0  0  0
   -2.4368    5.9630   -0.8864 H   0  0  0  0  0  0  0  0  0  0  0  0
   -3.8772    5.3801   -0.0301 H   0  0  0  0  0  0  0  0  0  0  0  0
   -2.9884    7.1043    0.7989 N   0  0  0  0  0  0  0  0  0  0  0  0
   -3.5638    7.7630    0.2739 H   0  0  0  0  0  0  0  0  0  0  0  0
   -3.3479    6.9816    1.7458 H   0  0  0  0  0  0  0  0  0  0  0  0
    0.3614    0.4296    1.1499 C   0  0  0  0  0  0  0  0  0  0  0  0
    0.4730   -0.7783    0.9772 O   0  0  0  0  0  0  0  0  0  0  0  0
    1.5477    1.0960    1.4185 N   0  0  0  0  0  0  0  0  0  0  0  0
    1.5027    2.1058    1.5057 H   0  0  0  0  0  0  0  0  0  0  0  0
    2.7824    0.4200    1.8038 C   0  0  0  0  0  0  0  0  0  0  0  0
    3.1491   -0.2054    0.9831 H   0  0  0  0  0  0  0  0  0  0  0  0
    3.5550    1.1546    2.0500 H   0  0  0  0  0  0  0  0  0  0  0  0
    2.6145   -0.2131    2.6816 H   0  0  0  0  0  0  0  0  0  0  0  0
  1  2  1  0  0  0  0
  2  3  1  0  0  0  0
  2  4  1  0  0  0  0
  2  5  1  0  0  0  0
  5  6  2  0  0  0  0
  5  7  1  0  0  0  0
  7  8  1  0  0  0  0
  7  9  1  0  0  0  0
  9 10  1  0  0  0  0
  9 11  1  0  0  0  0
  9 26  1  0  0  0  0
 11 12  1  0  0  0  0
 11 13  1  0  0  0  0
 11 14  1  0  0  0  0
 14 15  1  0  0  0  0
 14 16  1  0  0  0  0
 14 17  1  0  0  0  0
 17 18  1  0  0  0  0
 17 19  1  0  0  0  0
 17 20  1  0  0  0  0
 20 21  1  0  0  0  0
 20 22  1  0  0  0  0
 20 23  1  0  0  0  0
 23 24  1  0  0  0  0
 23 25  1  0  0  0  0
 26 27  2  0  0  0  0
 26 28  1  0  0  0  0
 28 29  1  0  0  0  0
 28 30  1  0  0  0  0
 30 31  1  0  0  0  0
 30 32  1  0  0  0  0
 30 33  1  0  0  0  0
M  END
$$$$

  -OEChem-01062216083D

 33 32  0     1  0  0  0  0  0999 V2000
   -3.4994   -2.5364    1.0068 H   0  0  0  0  0  0  0  0  0  0  0  0
   -3.4689   -1.5799    0.4774 C   0  0  0  0  0  0  0  0  0  0  0  0
   -4.4541   -1.1114    0.5357 H   0  0  0  0  0  0  0  0  0  0  0  0
   -3.2202   -1.7691   -0.5696 H   0  0  0  0  0  0  0  0  0  0  0  0
   -2.4251   -0.6741    1.1025 C   0  0  0  0  0  0  0  0  0  0  0  0
   -1.9984   -0.9315    2.2163 O   0  0  0  0  0  0  0  0  0  0  0  0
   -2.1655    0.5602    0.5342 N   0  0  0  0  0  0  0  0  0  0  0  0
   -2.7354    0.7316   -0.2872 H   0  0  0  0  0  0  0  0  0  0  0  0
   -0.8327    1.2083    0.4893 C   0  0  1  0  0  0  0  0  0  0  0  0
   -0.5509    1.3419   -0.5596 H   0  0  0  0  0  0  0  0  0  0  0  0
   -1.0147    2.6027    1.1321 C   0  0  0  0  0  0  0  0  0  0  0  0
   -1.4546    2.4883    2.1292 H   0  0  0  0  0  0  0  0  0  0  0  0
   -0.0449    3.0942    1.2491 H   0  0  0  0  0  0  0  0  0  0  0  0
   -1.8886    3.5273    0.2702 C   0  0  0  0  0  0  0  0  0  0  0  0
   -1.4403    3.6383   -0.7227 H   0  0  0  0  0  0  0  0  0  0  0  0
   -2.8847    3.0908    0.1457 H   0  0  0  0  0  0  0  0  0  0  0  0
   -2.0221    4.9044    0.9298 C   0  0  0  0  0  0  0  0  0  0  0  0
   -2.4562    4.7909    1.9285 H   0  0  0  0  0  0  0  0  0  0  0  0
   -1.0323    5.3596    1.0414 H   0  0  0  0  0  0  0  0  0  0  0  0
   -2.9083    5.8240    0.0948 C   0  0  0  0  0  0  0  0  0  0  0  0
   -2.4717    5.9660   -0.9001 H   0  0  0  0  0  0  0  0  0  0  0  0
   -3.9012    5.3777   -0.0299 H   0  0  0  0  0  0  0  0  0  0  0  0
   -3.0199    7.1138    0.7815 N   0  0  0  0  0  0  0  0  0  0  0  0
   -3.6021    7.7649    0.2544 H   0  0  0  0  0  0  0  0  0  0  0  0
   -3.3744    6.9955    1.7307 H   0  0  0  0  0  0  0  0  0  0  0  0
    0.3613    0.4309    1.1225 C   0  0  0  0  0  0  0  0  0  0  0  0
    0.5664   -0.7182    0.7475 O   0  0  0  0  0  0  0  0  0  0  0  0
    1.4396    1.0883    1.6944 N   0  0  0  0  0  0  0  0  0  0  0  0
    1.2834    2.0415    2.0051 H   0  0  0  0  0  0  0  0  0  0  0  0
    2.6418    0.3993    2.1510 C   0  0  0  0  0  0  0  0  0  0  0  0
    3.1664   -0.0578    1.3054 H   0  0  0  0  0  0  0  0  0  0  0  0
    3.3214    1.1059    2.6368 H   0  0  0  0  0  0  0  0  0  0  0  0
    2.3835   -0.3844    2.8713 H   0  0  0  0  0  0  0  0  0  0  0  0
  1  2  1  0  0  0  0
  2  3  1  0  0  0  0
  2  4  1  0  0  0  0
  2  5  1  0  0  0  0
  5  6  2  0  0  0  0
  5  7  1  0  0  0  0
  7  8  1  0  0  0  0
  7  9  1  0  0  0  0
  9 10  1  0  0  0  0
  9 11  1  0  0  0  0
  9 26  1  0  0  0  0
 11 12  1  0  0  0  0
 11 13  1  0  0  0  0
 11 14  1  0  0  0  0
 14 15  1  0  0  0  0
 14 16  1  0  0  0  0
 14 17  1  0  0  0  0
 17 18  1  0  0  0  0
 17 19  1  0  0  0  0
 17 20  1  0  0  0  0
 20 21  1  0  0  0  0
 20 22  1  0  0  0  0
 20 23  1  0  0  0  0
 23 24  1  0  0  0  0
 23 25  1  0  0  0  0
 26 27  2  0  0  0  0
 26 28  1  0  0  0  0
 28 29  1  0  0  0  0
 28 30  1  0  0  0  0
 30 31  1  0  0  0  0
 30 32  1  0  0  0  0
 30 33  1  0  0  0  0
M  END
$$$$

  -OEChem-01062216083D

 33 32  0     1  0  0  0  0  0999 V2000
   -3.5056   -2.5315    1.0027 H   0  0  0  0  0  0  0  0  0  0  0  0
   -3.4887   -1.5644    0.4921 C   0  0  0  0  0  0  0  0  0  0  0  0
   -4.4626   -1.0836    0.6104 H   0  0  0  0  0  0  0  0  0  0  0  0
   -3.2979   -1.7346   -0.5701 H   0  0  0  0  0  0  0  0  0  0  0  0
   -2.4013   -0.6857    1.0800 C   0  0  0  0  0  0  0  0  0  0  0  0
   -1.9067   -0.9870    2.1538 O   0  0  0  0  0  0  0  0  0  0  0  0
   -2.1544    0.5556    0.5202 N   0  0  0  0  0  0  0  0  0  0  0  0
   -2.7448    0.7453   -0.2827 H   0  0  0  0  0  0  0  0  0  0  0  0
   -0.8298    1.2186    0.4745 C   0  0  1  0  0  0  0  0  0  0  0  0
   -0.5502    1.3555   -0.5748 H   0  0  0  0  0  0  0  0  0  0  0  0
   -1.0129    2.6116    1.1168 C   0  0  0  0  0  0  0  0  0  0  0  0
   -1.4468    2.4990    2.1167 H   0  0  0  0  0  0  0  0  0  0  0  0
   -0.0403    3.1014    1.2249 H   0  0  0  0  0  0  0  0  0  0  0  0
   -1.8939    3.5311    0.2572 C   0  0  0  0  0  0  0  0  0  0  0  0
   -1.4504    3.6430   -0.7379 H   0  0  0  0  0  0  0  0  0  0  0  0
   -2.8887    3.0905    0.1369 H   0  0  0  0  0  0  0  0  0  0  0  0
   -2.0281    4.9073    0.9178 C   0  0  0  0  0  0  0  0  0  0  0  0
   -2.4561    4.7922    1.9189 H   0  0  0  0  0  0  0  0  0  0  0  0
   -1.0388    5.3649    1.0235 H   0  0  0  0  0  0  0  0  0  0  0  0
   -2.9206    5.8263    0.0893 C   0  0  0  0  0  0  0  0  0  0  0  0
   -2.4888    5.9712   -0.9073 H   0  0  0  0  0  0  0  0  0  0  0  0
   -3.9135    5.3787   -0.0313 H   0  0  0  0  0  0  0  0  0  0  0  0
   -3.0298    7.1141    0.7807 N   0  0  0  0  0  0  0  0  0  0  0  0
   -3.6115    7.7685    0.2569 H   0  0  0  0  0  0  0  0  0  0  0  0
   -3.3832    6.9925    1.7299 H   0  0  0  0  0  0  0  0  0  0  0  0
    0.3621    0.4380    1.1018 C   0  0  0  0  0  0  0  0  0  0  0  0
    0.6774   -0.6284    0.5857 O   0  0  0  0  0  0  0  0  0  0  0  0
    1.2868    1.0382    1.9410 N   0  0  0  0  0  0  0  0  0  0  0  0
    0.9904    1.8895    2.4070 H   0  0  0  0  0  0  0  0  0  0  0  0
    2.4516    0.3335    2.4632 C   0  0  0  0  0  0  0  0  0  0  0  0
    3.1224    0.0442    1.6474 H   0  0  0  0  0  0  0  0  0  0  0  0
    3.0052    0.9777    3.1526 H   0  0  0  0  0  0  0  0  0  0  0  0
    2.1433   -0.5683    3.0032 H   0  0  0  0  0  0  0  0  0  0  0  0
  1  2  1  0  0  0  0
  2  3  1  0  0  0  0
  2  4  1  0  0  0  0
  2  5  1  0  0  0  0
  5  6  2  0  0  0  0
  5  7  1  0  0  0  0
  7  8  1  0  0  0  0
  7  9  1  0  0  0  0
  9 10  1  0  0  0  0
  9 11  1  0  0  0  0
  9 26  1  0  0  0  0
 11 12  1  0  0  0  0
 11 13  1  0  0  0  0
 11 14  1  0  0  0  0
 14 15  1  0  0  0  0
 14 16  1  0  0  0  0
 14 17  1  0  0  0  0
 17 18  1  0  0  0  0
 17 19  1  0  0  0  0
 17 20  1  0  0  0  0
 20 21  1  0  0  0  0
 20 22  1  0  0  0  0
 20 23  1  0  0  0  0
 23 24  1  0  0  0  0
 23 25  1  0  0  0  0
 26 27  2  0  0  0  0
 26 28  1  0  0  0  0
 28 29  1  0  0  0  0
 28 30  1  0  0  0  0
 30 31  1  0  0  0  0
 30 32  1  0  0  0  0
 30 33  1  0  0  0  0
M  END
$$$$

  -OEChem-01062216083D

 33 32  0     1  0  0  0  0  0999 V2000
   -3.5531   -2.5176    0.9891 H   0  0  0  0  0  0  0  0  0  0  0  0
   -3.5301   -1.5416    0.4959 C   0  0  0  0  0  0  0  0  0  0  0  0
   -4.4820   -1.0344    0.6704 H   0  0  0  0  0  0  0  0  0  0  0  0
   -3.3964   -1.6958   -0.5777 H   0  0  0  0  0  0  0  0  0  0  0  0
   -2.3886   -0.7075    1.0464 C   0  0  0  0  0  0  0  0  0  0  0  0
   -1.8280   -1.0676    2.0680 O   0  0  0  0  0  0  0  0  0  0  0  0
   -2.1408    0.5396    0.4993 N   0  0  0  0  0  0  0  0  0  0  0  0
   -2.7537    0.7596   -0.2789 H   0  0  0  0  0  0  0  0  0  0  0  0
   -0.8241    1.2175    0.4618 C   0  0  1  0  0  0  0  0  0  0  0  0
   -0.5458    1.3603   -0.5872 H   0  0  0  0  0  0  0  0  0  0  0  0
   -1.0097    2.6070    1.1071 C   0  0  0  0  0  0  0  0  0  0  0  0
   -1.4442    2.4920    2.1063 H   0  0  0  0  0  0  0  0  0  0  0  0
   -0.0337    3.0917    1.2166 H   0  0  0  0  0  0  0  0  0  0  0  0
   -1.8921    3.5276    0.2508 C   0  0  0  0  0  0  0  0  0  0  0  0
   -1.4473    3.6435   -0.7433 H   0  0  0  0  0  0  0  0  0  0  0  0
   -2.8858    3.0846    0.1287 H   0  0  0  0  0  0  0  0  0  0  0  0
   -2.0292    4.9019    0.9149 C   0  0  0  0  0  0  0  0  0  0  0  0
   -2.4574    4.7832    1.9157 H   0  0  0  0  0  0  0  0  0  0  0  0
   -1.0408    5.3606    1.0225 H   0  0  0  0  0  0  0  0  0  0  0  0
   -2.9234    5.8211    0.0883 C   0  0  0  0  0  0  0  0  0  0  0  0
   -2.4912    5.9697   -0.9076 H   0  0  0  0  0  0  0  0  0  0  0  0
   -3.9154    5.3722   -0.0343 H   0  0  0  0  0  0  0  0  0  0  0  0
   -3.0349    7.1064    0.7836 N   0  0  0  0  0  0  0  0  0  0  0  0
   -3.6159    7.7619    0.2607 H   0  0  0  0  0  0  0  0  0  0  0  0
   -3.3897    6.9818    1.7320 H   0  0  0  0  0  0  0  0  0  0  0  0
    0.3735    0.4481    1.0871 C   0  0  0  0  0  0  0  0  0  0  0  0
    0.8230   -0.5075    0.4650 O   0  0  0  0  0  0  0  0  0  0  0  0
    1.1081    0.9452    2.1512 N   0  0  0  0  0  0  0  0  0  0  0  0
    0.6587    1.6625    2.7115 H   0  0  0  0  0  0  0  0  0  0  0  0
    2.2361    0.2246    2.7282 C   0  0  0  0  0  0  0  0  0  0  0  0
    3.0299    0.0967    1.9848 H   0  0  0  0  0  0  0  0  0  0  0  0
    2.6459    0.7803    3.5769 H   0  0  0  0  0  0  0  0  0  0  0  0
    1.9190   -0.7632    3.0796 H   0  0  0  0  0  0  0  0  0  0  0  0
  1  2  1  0  0  0  0
  2  3  1  0  0  0  0
  2  4  1  0  0  0  0
  2  5  1  0  0  0  0
  5  6  2  0  0  0  0
  5  7  1  0  0  0  0
  7  8  1  0  0  0  0
  7  9  1  0  0  0  0
  9 10  1  0  0  0  0
  9 11  1  0  0  0  0
  9 26  1  0  0  0  0
 11 12  1  0  0  0  0
 11 13  1  0  0  0  0
 11 14  1  0  0  0  0
 14 15  1  0  0  0  0
 14 16  1  0  0  0  0
 14 17  1  0  0  0  0
 17 18  1  0  0  0  0
 17 19  1  0  0  0  0
 17 20  1  0  0  0  0
 20 21  1  0  0  0  0
 20 22  1  0  0  0  0
 20 23  1  0  0  0  0
 23 24  1  0  0  0  0
 23 25  1  0  0  0  0
 26 27  2  0  0  0  0
 26 28  1  0  0  0  0
 28 29  1  0  0  0  0
 28 30  1  0  0  0  0
 30 31  1  0  0  0  0
 30 32  1  0  0  0  0
 30 33  1  0  0  0  0
M  END
$$$$

  -OEChem-01062216083D

 33 32  0     1  0  0  0  0  0999 V2000
   -3.6097   -2.4991    0.9692 H   0  0  0  0  0  0  0  0  0  0  0  0
   -3.5795   -1.5124    0.4980 C   0  0  0  0  0  0  0  0  0  0  0  0
   -4.5027   -0.9790    0.7364 H   0  0  0  0  0  0  0  0  0  0  0  0
   -3.5093   -1.6449   -0.5843 H   0  0  0  0  0  0  0  0  0  0  0  0
   -2.3825   -0.7292    1.0042 C   0  0  0  0  0  0  0  0  0  0  0  0
   -1.7648   -1.1501    1.9674 O   0  0  0  0  0  0  0  0  0  0  0  0
   -2.1255    0.5223    0.4712 N   0  0  0  0  0  0  0  0  0  0  0  0
   -2.7609    0.7812   -0.2766 H   0  0  0  0  0  0  0  0  0  0  0  0
   -0.8146    1.2108    0.4503 C   0  0  1  0  0  0  0  0  0  0  0  0
   -0.5317    1.3619   -0.5965 H   0  0  0  0  0  0  0  0  0  0  0  0
   -1.0062    2.5957    1.1026 C   0  0  0  0  0  0  0  0  0  0  0  0
   -1.4519    2.4746    2.0960 H   0  0  0  0  0  0  0  0  0  0  0  0
   -0.0290    3.0750    1.2284 H   0  0  0  0  0  0  0  0  0  0  0  0
   -1.8841    3.5200    0.2462 C   0  0  0  0  0  0  0  0  0  0  0  0
   -1.4324    3.6421   -0.7443 H   0  0  0  0  0  0  0  0  0  0  0  0
   -2.8760    3.0762    0.1147 H   0  0  0  0  0  0  0  0  0  0  0  0
   -2.0283    4.8903    0.9167 C   0  0  0  0  0  0  0  0  0  0  0  0
   -2.4633    4.7660    1.9137 H   0  0  0  0  0  0  0  0  0  0  0  0
   -1.0413    5.3502    1.0335 H   0  0  0  0  0  0  0  0  0  0  0  0
   -2.9186    5.8119    0.0882 C   0  0  0  0  0  0  0  0  0  0  0  0
   -2.4795    5.9661   -0.9039 H   0  0  0  0  0  0  0  0  0  0  0  0
   -3.9082    5.3609   -0.0440 H   0  0  0  0  0  0  0  0  0  0  0  0
   -3.0392    7.0944    0.7871 N   0  0  0  0  0  0  0  0  0  0  0  0
   -3.6167    7.7507    0.2614 H   0  0  0  0  0  0  0  0  0  0  0  0
   -3.4014    6.9663    1.7320 H   0  0  0  0  0  0  0  0  0  0  0  0
    0.3882    0.4573    1.0800 C   0  0  0  0  0  0  0  0  0  0  0  0
    0.9962   -0.3427    0.3790 O   0  0  0  0  0  0  0  0  0  0  0  0
    0.9096    0.7993    2.3164 N   0  0  0  0  0  0  0  0  0  0  0  0
    0.2916    1.3270    2.9246 H   0  0  0  0  0  0  0  0  0  0  0  0
    2.0098    0.0645    2.9273 C   0  0  0  0  0  0  0  0  0  0  0  0
    2.9017    0.1104    2.2935 H   0  0  0  0  0  0  0  0  0  0  0  0
    2.2579    0.4967    3.9012 H   0  0  0  0  0  0  0  0  0  0  0  0
    1.7337   -0.9853    3.0722 H   0  0  0  0  0  0  0  0  0  0  0  0
  1  2  1  0  0  0  0
  2  3  1  0  0  0  0
  2  4  1  0  0  0  0
  2  5  1  0  0  0  0
  5  6  2  0  0  0  0
  5  7  1  0  0  0  0
  7  8  1  0  0  0  0
  7  9  1  0  0  0  0
  9 10  1  0  0  0  0
  9 11  1  0  0  0  0
  9 26  1  0  0  0  0
 11 12  1  0  0  0  0
 11 13  1  0  0  0  0
 11 14  1  0  0  0  0
 14 15  1  0  0  0  0
 14 16  1  0  0  0  0
 14 17  1  0  0  0  0
 17 18  1  0  0  0  0
 17 19  1  0  0  0  0
 17 20  1  0  0  0  0
 20 21  1  0  0  0  0
 20 22  1  0  0  0  0
 20 23  1  0  0  0  0
 23 24  1  0  0  0  0
 23 25  1  0  0  0  0
 26 27  2  0  0  0  0
 26 28  1  0  0  0  0
 28 29  1  0  0  0  0
 28 30  1  0  0  0  0
 30 31  1  0  0  0  0
 30 32  1  0  0  0  0
 30 33  1  0  0  0  0
M  END
$$$$

  -OEChem-01062216083D

 33 32  0     1  0  0  0  0  0999 V2000
   -3.6865   -2.4713    0.9663 H   0  0  0  0  0  0  0  0  0  0  0  0
   -3.6351   -1.4831    0.5000 C   0  0  0  0  0  0  0  0  0  0  0  0
   -4.5267   -0.9157    0.7771 H   0  0  0  0  0  0  0  0  0  0  0  0
   -3.6130   -1.6104   -0.5851 H   0  0  0  0  0  0  0  0  0  0  0  0
   -2.3892   -0.7517    0.9636 C   0  0  0  0  0  0  0  0  0  0  0  0
   -1.7286   -1.2282    1.8698 O   0  0  0  0  0  0  0  0  0  0  0  0
   -2.1135    0.4992    0.4389 N   0  0  0  0  0  0  0  0  0  0  0  0
   -2.7705    0.7997   -0.2741 H   0  0  0  0  0  0  0  0  0  0  0  0
   -0.8065    1.1964    0.4361 C   0  0  1  0  0  0  0  0  0  0  0  0
   -0.5167    1.3519   -0.6085 H   0  0  0  0  0  0  0  0  0  0  0  0
   -1.0062    2.5770    1.0924 C   0  0  0  0  0  0  0  0  0  0  0  0
   -1.4611    2.4510    2.0807 H   0  0  0  0  0  0  0  0  0  0  0  0
   -0.0291    3.0525    1.2333 H   0  0  0  0  0  0  0  0  0  0  0  0
   -1.8775    3.5072    0.2355 C   0  0  0  0  0  0  0  0  0  0  0  0
   -1.4178    3.6375   -0.7500 H   0  0  0  0  0  0  0  0  0  0  0  0
   -2.8685    3.0651    0.0922 H   0  0  0  0  0  0  0  0  0  0  0  0
   -2.0250    4.8717    0.9175 C   0  0  0  0  0  0  0  0  0  0  0  0
   -2.4673    4.7385    1.9101 H   0  0  0  0  0  0  0  0  0  0  0  0
   -1.0383    5.3287    1.0460 H   0  0  0  0  0  0  0  0  0  0  0  0
   -2.9080    5.8031    0.0926 C   0  0  0  0  0  0  0  0  0  0  0  0
   -2.4613    5.9666   -0.8945 H   0  0  0  0  0  0  0  0  0  0  0  0
   -3.8976    5.3555   -0.0510 H   0  0  0  0  0  0  0  0  0  0  0  0
   -3.0311    7.0787    0.8037 N   0  0  0  0  0  0  0  0  0  0  0  0
   -3.6049    7.7412    0.2816 H   0  0  0  0  0  0  0  0  0  0  0  0
   -3.3982    6.9416    1.7454 H   0  0  0  0  0  0  0  0  0  0  0  0
    0.4016    0.4664    1.0801 C   0  0  0  0  0  0  0  0  0  0  0  0
    1.1842   -0.1248    0.3460 O   0  0  0  0  0  0  0  0  0  0  0  0
    0.7072    0.6115    2.4223 N   0  0  0  0  0  0  0  0  0  0  0  0
   -0.0696    0.8999    3.0095 H   0  0  0  0  0  0  0  0  0  0  0  0
    1.7917   -0.1310    3.0512 C   0  0  0  0  0  0  0  0  0  0  0  0
    2.7481    0.1069    2.5740 H   0  0  0  0  0  0  0  0  0  0  0  0
    1.8623    0.1299    4.1113 H   0  0  0  0  0  0  0  0  0  0  0  0
    1.6138   -1.2084    2.9682 H   0  0  0  0  0  0  0  0  0  0  0  0
  1  2  1  0  0  0  0
  2  3  1  0  0  0  0
  2  4  1  0  0  0  0
  2  5  1  0  0  0  0
  5  6  2  0  0  0  0
  5  7  1  0  0  0  0
  7  8  1  0  0  0  0
  7  9  1  0  0  0  0
  9 10  1  0  0  0  0
  9 11  1  0  0  0  0
  9 26  1  0  0  0  0
 11 12  1  0  0  0  0
 11 13  1  0  0  0  0
 11 14  1  0  0  0  0
 14 15  1  0  0  0  0
 14 16  1  0  0  0  0
 14 17  1  0  0  0  0
 17 18  1  0  0  0  0
 17 19  1  0  0  0  0
 17 20  1  0  0  0  0
 20 21  1  0  0  0  0
 20 22  1  0  0  0  0
 20 23  1  0  0  0  0
 23 24  1  0  0  0  0
 23 25  1  0  0  0  0
 26 27  2  0  0  0  0
 26 28  1  0  0  0  0
 28 29  1  0  0  0  0
 28 30  1  0  0  0  0
 30 31  1  0  0  0  0
 30 32  1  0  0  0  0
 30 33  1  0  0  0  0
M  END
$$$$

  -OEChem-01062216083D

 33 32  0     1  0  0  0  0  0999 V2000
   -3.8081   -2.4249    0.9227 H   0  0  0  0  0  0  0  0  0  0  0  0
   -3.7267   -1.4268    0.4828 C   0  0  0  0  0  0  0  0  0  0  0  0
   -4.5783   -0.8266    0.8115 H   0  0  0  0  0  0  0  0  0  0  0  0
   -3.7535   -1.5217   -0.6053 H   0  0  0  0  0  0  0  0  0  0  0  0
   -2.4292   -0.7695    0.9156 C   0  0  0  0  0  0  0  0  0  0  0  0
   -1.7492   -1.3131    1.7671 O   0  0  0  0  0  0  0  0  0  0  0  0
   -2.1126    0.4779    0.4075 N   0  0  0  0  0  0  0  0  0  0  0  0
   -2.7844    0.8335   -0.2653 H   0  0  0  0  0  0  0  0  0  0  0  0
   -0.8025    1.1704    0.4310 C   0  0  1  0  0  0  0  0  0  0  0  0
   -0.5013    1.3333   -0.6092 H   0  0  0  0  0  0  0  0  0  0  0  0
   -1.0081    2.5439    1.0984 C   0  0  0  0  0  0  0  0  0  0  0  0
   -1.4751    2.4095    2.0798 H   0  0  0  0  0  0  0  0  0  0  0  0
   -0.0314    3.0146    1.2584 H   0  0  0  0  0  0  0  0  0  0  0  0
   -1.8642    3.4843    0.2374 C   0  0  0  0  0  0  0  0  0  0  0  0
   -1.3894    3.6221   -0.7398 H   0  0  0  0  0  0  0  0  0  0  0  0
   -2.8536    3.0453    0.0752 H   0  0  0  0  0  0  0  0  0  0  0  0
   -2.0215    4.8437    0.9270 C   0  0  0  0  0  0  0  0  0  0  0  0
   -2.4793    4.7038    1.9114 H   0  0  0  0  0  0  0  0  0  0  0  0
   -1.0368    5.2995    1.0746 H   0  0  0  0  0  0  0  0  0  0  0  0
   -2.8906    5.7805    0.0933 C   0  0  0  0  0  0  0  0  0  0  0  0
   -2.4279    5.9493   -0.8855 H   0  0  0  0  0  0  0  0  0  0  0  0
   -3.8774    5.3333   -0.0687 H   0  0  0  0  0  0  0  0  0  0  0  0
   -3.0262    7.0523    0.8090 N   0  0  0  0  0  0  0  0  0  0  0  0
   -3.5981    7.7148    0.2846 H   0  0  0  0  0  0  0  0  0  0  0  0
   -3.4012    6.9093    1.7468 H   0  0  0  0  0  0  0  0  0  0  0  0
    0.4086    0.4601    1.0909 C   0  0  0  0  0  0  0  0  0  0  0  0
    1.3562    0.1417    0.3828 O   0  0  0  0  0  0  0  0  0  0  0  0
    0.5249    0.3617    2.4661 N   0  0  0  0  0  0  0  0  0  0  0  0
   -0.3664    0.3534    2.9559 H   0  0  0  0  0  0  0  0  0  0  0  0
    1.6387   -0.3355    3.0954 C   0  0  0  0  0  0  0  0  0  0  0  0
    2.5906    0.1233    2.8085 H   0  0  0  0  0  0  0  0  0  0  0  0
    1.5477   -0.2848    4.1845 H   0  0  0  0  0  0  0  0  0  0  0  0
    1.6491   -1.3885    2.7947 H   0  0  0  0  0  0  0  0  0  0  0  0
  1  2  1  0  0  0  0
  2  3  1  0  0  0  0
  2  4  1  0  0  0  0
  2  5  1  0  0  0  0
  5  6  2  0  0  0  0
  5  7  1  0  0  0  0
  7  8  1  0  0  0  0
  7  9  1  0  0  0  0
  9 10  1  0  0  0  0
  9 11  1  0  0  0  0
  9 26  1  0  0  0  0
 11 12  1  0  0  0  0
 11 13  1  0  0  0  0
 11 14  1  0  0  0  0
 14 15  1  0  0  0  0
 14 16  1  0  0  0  0
 14 17  1  0  0  0  0
 17 18  1  0  0  0  0
 17 19  1  0  0  0  0
 17 20  1  0  0  0  0
 20 21  1  0  0  0  0
 20 22  1  0  0  0  0
 20 23  1  0  0  0  0
 23 24  1  0  0  0  0
 23 25  1  0  0  0  0
 26 27  2  0  0  0  0
 26 28  1  0  0  0  0
 28 29  1  0  0  0  0
 28 30  1  0  0  0  0
 30 31  1  0  0  0  0
 30 32  1  0  0  0  0
 30 33  1  0  0  0  0
M  END
$$$$

  -OEChem-01062216083D

 33 32  0     1  0  0  0  0  0999 V2000
   -3.9664   -2.3557    0.8721 H   0  0  0  0  0  0  0  0  0  0  0  0
   -3.8394   -1.3495    0.4624 C   0  0  0  0  0  0  0  0  0  0  0  0
   -4.6342   -0.7083    0.8512 H   0  0  0  0  0  0  0  0  0  0  0  0
   -3.9214   -1.4028   -0.6260 H   0  0  0  0  0  0  0  0  0  0  0  0
   -2.4842   -0.7911    0.8550 C   0  0  0  0  0  0  0  0  0  0  0  0
   -1.7952   -1.4193    1.6374 O   0  0  0  0  0  0  0  0  0  0  0  0
   -2.1169    0.4518    0.3720 N   0  0  0  0  0  0  0  0  0  0  0  0
   -2.8014    0.8731   -0.2481 H   0  0  0  0  0  0  0  0  0  0  0  0
   -0.8020    1.1362    0.4280 C   0  0  1  0  0  0  0  0  0  0  0  0
   -0.4876    1.3064   -0.6072 H   0  0  0  0  0  0  0  0  0  0  0  0
   -1.0193    2.5027    1.1047 C   0  0  0  0  0  0  0  0  0  0  0  0
   -1.5068    2.3572    2.0748 H   0  0  0  0  0  0  0  0  0  0  0  0
   -0.0455    2.9698    1.2915 H   0  0  0  0  0  0  0  0  0  0  0  0
   -1.8545    3.4553    0.2359 C   0  0  0  0  0  0  0  0  0  0  0  0
   -1.3568    3.6034   -0.7285 H   0  0  0  0  0  0  0  0  0  0  0  0
   -2.8412    3.0217    0.0460 H   0  0  0  0  0  0  0  0  0  0  0  0
   -2.0234    4.8075    0.9366 C   0  0  0  0  0  0  0  0  0  0  0  0
   -2.5024    4.6588    1.9098 H   0  0  0  0  0  0  0  0  0  0  0  0
   -1.0404    5.2587    1.1091 H   0  0  0  0  0  0  0  0  0  0  0  0
   -2.8720    5.7555    0.0945 C   0  0  0  0  0  0  0  0  0  0  0  0
   -2.3879    5.9339   -0.8722 H   0  0  0  0  0  0  0  0  0  0  0  0
   -3.8563    5.3128   -0.0938 H   0  0  0  0  0  0  0  0  0  0  0  0
   -3.0199    7.0198    0.8208 N   0  0  0  0  0  0  0  0  0  0  0  0
   -3.5729    7.6915    0.2885 H   0  0  0  0  0  0  0  0  0  0  0  0
   -3.4209    6.8688    1.7465 H   0  0  0  0  0  0  0  0  0  0  0  0
    0.4170    0.4521    1.1029 C   0  0  0  0  0  0  0  0  0  0  0  0
    1.4776    0.4279    0.4902 O   0  0  0  0  0  0  0  0  0  0  0  0
    0.4033    0.0810    2.4347 N   0  0  0  0  0  0  0  0  0  0  0  0
   -0.5216   -0.1983    2.7619 H   0  0  0  0  0  0  0  0  0  0  0  0
    1.5498   -0.5582    3.0681 C   0  0  0  0  0  0  0  0  0  0  0  0
    2.4318    0.0883    3.0103 H   0  0  0  0  0  0  0  0  0  0  0  0
    1.3362   -0.7541    4.1231 H   0  0  0  0  0  0  0  0  0  0  0  0
    1.7769   -1.5096    2.5759 H   0  0  0  0  0  0  0  0  0  0  0  0
  1  2  1  0  0  0  0
  2  3  1  0  0  0  0
  2  4  1  0  0  0  0
  2  5  1  0  0  0  0
  5  6  2  0  0  0  0
  5  7  1  0  0  0  0
  7  8  1  0  0  0  0
  7  9  1  0  0  0  0
  9 10  1  0  0  0  0
  9 11  1  0  0  0  0
  9 26  1  0  0  0  0
 11 12  1  0  0  0  0
 11 13  1  0  0  0  0
 11 14  1  0  0  0  0
 14 15  1  0  0  0  0
 14 16  1  0  0  0  0
 14 17  1  0  0  0  0
 17 18  1  0  0  0  0
 17 19  1  0  0  0  0
 17 20  1  0  0  0  0
 20 21  1  0  0  0  0
 20 22  1  0  0  0  0
 20 23  1  0  0  0  0
 23 24  1  0  0  0  0
 23 25  1  0  0  0  0
 26 27  2  0  0  0  0
 26 28  1  0  0  0  0
 28 29  1  0  0  0  0
 28 30  1  0  0  0  0
 30 31  1  0  0  0  0
 30 32  1  0  0  0  0
 30 33  1  0  0  0  0
M  END
$$$$

  -OEChem-01062216083D

 33 32  0     1  0  0  0  0  0999 V2000
   -4.1295   -2.2577    0.8410 H   0  0  0  0  0  0  0  0  0  0  0  0
   -3.9484   -1.2509    0.4533 C   0  0  0  0  0  0  0  0  0  0  0  0
   -4.6727   -0.5664    0.9015 H   0  0  0  0  0  0  0  0  0  0  0  0
   -4.0889   -1.2635   -0.6303 H   0  0  0  0  0  0  0  0  0  0  0  0
   -2.5374   -0.8049    0.7895 C   0  0  0  0  0  0  0  0  0  0  0  0
   -1.8449   -1.5356    1.4721 O   0  0  0  0  0  0  0  0  0  0  0  0
   -2.1139    0.4311    0.3350 N   0  0  0  0  0  0  0  0  0  0  0  0
   -2.8117    0.9247   -0.2129 H   0  0  0  0  0  0  0  0  0  0  0  0
   -0.7929    1.1055    0.4240 C   0  0  1  0  0  0  0  0  0  0  0  0
   -0.4620    1.2833   -0.6048 H   0  0  0  0  0  0  0  0  0  0  0  0
   -1.0307    2.4662    1.1089 C   0  0  0  0  0  0  0  0  0  0  0  0
   -1.5376    2.3098    2.0672 H   0  0  0  0  0  0  0  0  0  0  0  0
   -0.0632    2.9358    1.3224 H   0  0  0  0  0  0  0  0  0  0  0  0
   -1.8462    3.4288    0.2308 C   0  0  0  0  0  0  0  0  0  0  0  0
   -1.3259    3.5874   -0.7199 H   0  0  0  0  0  0  0  0  0  0  0  0
   -2.8279    2.9975    0.0130 H   0  0  0  0  0  0  0  0  0  0  0  0
   -2.0345    4.7732    0.9424 C   0  0  0  0  0  0  0  0  0  0  0  0
   -2.5369    4.6125    1.9019 H   0  0  0  0  0  0  0  0  0  0  0  0
   -1.0568    5.2231    1.1446 H   0  0  0  0  0  0  0  0  0  0  0  0
   -2.8641    5.7307    0.0909 C   0  0  0  0  0  0  0  0  0  0  0  0
   -2.3566    5.9207   -0.8614 H   0  0  0  0  0  0  0  0  0  0  0  0
   -3.8431    5.2896   -0.1273 H   0  0  0  0  0  0  0  0  0  0  0  0
   -3.0318    6.9867    0.8275 N   0  0  0  0  0  0  0  0  0  0  0  0
   -3.5686    7.6656    0.2873 H   0  0  0  0  0  0  0  0  0  0  0  0
   -3.4586    6.8257    1.7398 H   0  0  0  0  0  0  0  0  0  0  0  0
    0.4339    0.4470    1.1152 C   0  0  0  0  0  0  0  0  0  0  0  0
    1.5396    0.6552    0.6305 O   0  0  0  0  0  0  0  0  0  0  0  0
    0.3608   -0.1954    2.3362 N   0  0  0  0  0  0  0  0  0  0  0  0
   -0.5549   -0.6045    2.5295 H   0  0  0  0  0  0  0  0  0  0  0  0
    1.5178   -0.8263    2.9583 C   0  0  0  0  0  0  0  0  0  0  0  0
    2.3063   -0.0889    3.1408 H   0  0  0  0  0  0  0  0  0  0  0  0
    1.2331   -1.2696    3.9173 H   0  0  0  0  0  0  0  0  0  0  0  0
    1.9159   -1.6166    2.3135 H   0  0  0  0  0  0  0  0  0  0  0  0
  1  2  1  0  0  0  0
  2  3  1  0  0  0  0
  2  4  1  0  0  0  0
  2  5  1  0  0  0  0
  5  6  2  0  0  0  0
  5  7  1  0  0  0  0
  7  8  1  0  0  0  0
  7  9  1  0  0  0  0
  9 10  1  0  0  0  0
  9 11  1  0  0  0  0
  9 26  1  0  0  0  0
 11 12  1  0  0  0  0
 11 13  1  0  0  0  0
 11 14  1  0  0  0  0
 14 15  1  0  0  0  0
 14 16  1  0  0  0  0
 14 17  1  0  0  0  0
 17 18  1  0  0  0  0
 17 19  1  0  0  0  0
 17 20  1  0  0  0  0
 20 21  1  0  0  0  0
 20 22  1  0  0  0  0
 20 23  1  0  0  0  0
 23 24  1  0  0  0  0
 23 25  1  0  0  0  0
 26 27  2  0  0  0  0
 26 28  1  0  0  0  0
 28 29  1  0  0  0  0
 28 30  1  0  0  0  0
 30 31  1  0  0  0  0
 30 32  1  0  0  0  0
 30 33  1  0  0  0  0
M  END
$$$$

  -OEChem-01062216083D

 33 32  0     1  0  0  0  0  0999 V2000
   -4.2771   -2.1568    0.8215 H   0  0  0  0  0  0  0  0  0  0  0  0
   -4.0459   -1.1549    0.4482 C   0  0  0  0  0  0  0  0  0  0  0  0
   -4.7110   -0.4375    0.9351 H   0  0  0  0  0  0  0  0  0  0  0  0
   -4.2227   -1.1346   -0.6300 H   0  0  0  0  0  0  0  0  0  0  0  0
   -2.5992   -0.8050    0.7444 C   0  0  0  0  0  0  0  0  0  0  0  0
   -1.9216   -1.6144    1.3477 O   0  0  0  0  0  0  0  0  0  0  0  0
   -2.1252    0.4210    0.3130 N   0  0  0  0  0  0  0  0  0  0  0  0
   -2.8239    0.9668   -0.1815 H   0  0  0  0  0  0  0  0  0  0  0  0
   -0.7944    1.0760    0.4229 C   0  0  1  0  0  0  0  0  0  0  0  0
   -0.4540    1.2581   -0.6019 H   0  0  0  0  0  0  0  0  0  0  0  0
   -1.0455    2.4333    1.1134 C   0  0  0  0  0  0  0  0  0  0  0  0
   -1.5704    2.2693    2.0607 H   0  0  0  0  0  0  0  0  0  0  0  0
   -0.0844    2.9045    1.3501 H   0  0  0  0  0  0  0  0  0  0  0  0
   -1.8430    3.4036    0.2274 C   0  0  0  0  0  0  0  0  0  0  0  0
   -1.3037    3.5695   -0.7114 H   0  0  0  0  0  0  0  0  0  0  0  0
   -2.8209    2.9761   -0.0140 H   0  0  0  0  0  0  0  0  0  0  0  0
   -2.0437    4.7420    0.9467 C   0  0  0  0  0  0  0  0  0  0  0  0
   -2.5638    4.5743    1.8953 H   0  0  0  0  0  0  0  0  0  0  0  0
   -1.0696    5.1899    1.1706 H   0  0  0  0  0  0  0  0  0  0  0  0
   -2.8556    5.7065    0.0870 C   0  0  0  0  0  0  0  0  0  0  0  0
   -2.3299    5.9035   -0.8541 H   0  0  0  0  0  0  0  0  0  0  0  0
   -3.8303    5.2679   -0.1529 H   0  0  0  0  0  0  0  0  0  0  0  0
   -3.0369    6.9567    0.8302 N   0  0  0  0  0  0  0  0  0  0  0  0
   -3.5612    7.6412    0.2851 H   0  0  0  0  0  0  0  0  0  0  0  0
   -3.4827    6.7890    1.7322 H   0  0  0  0  0  0  0  0  0  0  0  0
    0.4398    0.4310    1.1196 C   0  0  0  0  0  0  0  0  0  0  0  0
    1.5471    0.8180    0.7655 O   0  0  0  0  0  0  0  0  0  0  0  0
    0.3778   -0.4568    2.1750 N   0  0  0  0  0  0  0  0  0  0  0  0
   -0.5197   -0.9317    2.2863 H   0  0  0  0  0  0  0  0  0  0  0  0
    1.5559   -1.0825    2.7617 C   0  0  0  0  0  0  0  0  0  0  0  0
    2.2336   -0.3228    3.1653 H   0  0  0  0  0  0  0  0  0  0  0  0
    1.2599   -1.7487    3.5776 H   0  0  0  0  0  0  0  0  0  0  0  0
    2.0916   -1.6710    2.0096 H   0  0  0  0  0  0  0  0  0  0  0  0
  1  2  1  0  0  0  0
  2  3  1  0  0  0  0
  2  4  1  0  0  0  0
  2  5  1  0  0  0  0
  5  6  2  0  0  0  0
  5  7  1  0  0  0  0
  7  8  1  0  0  0  0
  7  9  1  0  0  0  0
  9 10  1  0  0  0  0
  9 11  1  0  0  0  0
  9 26  1  0  0  0  0
 11 12  1  0  0  0  0
 11 13  1  0  0  0  0
 11 14  1  0  0  0  0
 14 15  1  0  0  0  0
 14 16  1  0  0  0  0
 14 17  1  0  0  0  0
 17 18  1  0  0  0  0
 17 19  1  0  0  0  0
 17 20  1  0  0  0  0
 20 21  1  0  0  0  0
 20 22  1  0  0  0  0
 20 23  1  0  0  0  0
 23 24  1  0  0  0  0
 23 25  1  0  0  0  0
 26 27  2  0  0  0  0
 26 28  1  0  0  0  0
 28 29  1  0  0  0  0
 28 30  1  0  0  0  0
 30 31  1  0  0  0  0
 30 32  1  0  0  0  0
 30 33  1  0  0  0  0
M  END
$$$$

  -OEChem-01062216083D

 33 32  0     1  0  0  0  0  0999 V2000
   -4.2865   -2.1541    0.9106 H   0  0  0  0  0  0  0  0  0  0  0  0
   -4.0576   -1.1378    0.5768 C   0  0  0  0  0  0  0  0  0  0  0  0
   -4.6743   -0.4354    1.1429 H   0  0  0  0  0  0  0  0  0  0  0  0
   -4.3029   -1.0550   -0.4849 H   0  0  0  0  0  0  0  0  0  0  0  0
   -2.5879   -0.8304    0.7977 C   0  0  0  0  0  0  0  0  0  0  0  0
   -1.9001   -1.6717    1.3421 O   0  0  0  0  0  0  0  0  0  0  0  0
   -2.1093    0.3885    0.3519 N   0  0  0  0  0  0  0  0  0  0  0  0
   -2.8261    0.9510   -0.0956 H   0  0  0  0  0  0  0  0  0  0  0  0
   -0.7831    1.0573    0.4476 C   0  0  1  0  0  0  0  0  0  0  0  0
   -0.4483    1.2193   -0.5824 H   0  0  0  0  0  0  0  0  0  0  0  0
   -1.0694    2.4292    1.0998 C   0  0  0  0  0  0  0  0  0  0  0  0
   -1.6012    2.2789    2.0455 H   0  0  0  0  0  0  0  0  0  0  0  0
   -0.1240    2.9311    1.3353 H   0  0  0  0  0  0  0  0  0  0  0  0
   -1.8778    3.3592    0.1799 C   0  0  0  0  0  0  0  0  0  0  0  0
   -1.3307    3.5119   -0.7567 H   0  0  0  0  0  0  0  0  0  0  0  0
   -2.8443    2.9070   -0.0617 H   0  0  0  0  0  0  0  0  0  0  0  0
   -2.1138    4.7118    0.8602 C   0  0  0  0  0  0  0  0  0  0  0  0
   -2.6415    4.5589    1.8070 H   0  0  0  0  0  0  0  0  0  0  0  0
   -1.1520    5.1859    1.0825 H   0  0  0  0  0  0  0  0  0  0  0  0
   -2.9362    5.6348   -0.0344 C   0  0  0  0  0  0  0  0  0  0  0  0
   -2.4037    5.8175   -0.9745 H   0  0  0  0  0  0  0  0  0  0  0  0
   -3.8988    5.1693   -0.2734 H   0  0  0  0  0  0  0  0  0  0  0  0
   -3.1512    6.9002    0.6729 N   0  0  0  0  0  0  0  0  0  0  0  0
   -3.6891    7.5563    0.1066 H   0  0  0  0  0  0  0  0  0  0  0  0
   -3.5972    6.7467    1.5772 H   0  0  0  0  0  0  0  0  0  0  0  0
    0.4760    0.4578    1.1469 C   0  0  0  0  0  0  0  0  0  0  0  0
    1.5503    1.0007    0.9159 O   0  0  0  0  0  0  0  0  0  0  0  0
    0.4922   -0.6135    2.0168 N   0  0  0  0  0  0  0  0  0  0  0  0
   -0.3710   -1.1553    2.0763 H   0  0  0  0  0  0  0  0  0  0  0  0
    1.7113   -1.1955    2.5634 C   0  0  0  0  0  0  0  0  0  0  0  0
    2.2742   -0.4455    3.1286 H   0  0  0  0  0  0  0  0  0  0  0  0
    1.4642   -2.0211    3.2374 H   0  0  0  0  0  0  0  0  0  0  0  0
    2.3451   -1.5813    1.7584 H   0  0  0  0  0  0  0  0  0  0  0  0
  1  2  1  0  0  0  0
  2  3  1  0  0  0  0
  2  4  1  0  0  0  0
  2  5  1  0  0  0  0
  5  6  2  0  0  0  0
  5  7  1  0  0  0  0
  7  8  1  0  0  0  0
  7  9  1  0  0  0  0
  9 10  1  0  0  0  0
  9 11  1  0  0  0  0
  9 26  1  0  0  0  0
 11 12  1  0  0  0  0
 11 13  1  0  0  0  0
 11 14  1  0  0  0  0
 14 15  1  0  0  0  0
 14 16  1  0  0  0  0
 14 17  1  0  0  0  0
 17 18  1  0  0  0  0
 17 19  1  0  0  0  0
 17 20  1  0  0  0  0
 20 21  1  0  0  0  0
 20 22  1  0  0  0  0
 20 23  1  0  0  0  0
 23 24  1  0  0  0  0
 23 25  1  0  0  0  0
 26 27  2  0  0  0  0
 26 28  1  0  0  0  0
 28 29  1  0  0  0  0
 28 30  1  0  0  0  0
 30 31  1  0  0  0  0
 30 32  1  0  0  0  0
 30 33  1  0  0  0  0
M  END
$$$$

  -OEChem-01062216083D

 33 32  0     1  0  0  0  0  0999 V2000
   -3.7791   -2.2996    1.2255 H   0  0  0  0  0  0  0  0  0  0  0  0
   -3.6833   -1.2656    0.8822 C   0  0  0  0  0  0  0  0  0  0  0  0
   -4.0552   -0.6014    1.6659 H   0  0  0  0  0  0  0  0  0  0  0  0
   -4.2910   -1.1366   -0.0168 H   0  0  0  0  0  0  0  0  0  0  0  0
   -2.2314   -0.9484    0.5763 C   0  0  0  0  0  0  0  0  0  0  0  0
   -1.4336   -1.8636    0.5625 O   0  0  0  0  0  0  0  0  0  0  0  0
   -1.9173    0.3288    0.1530 N   0  0  0  0  0  0  0  0  0  0  0  0
   -2.7366    0.9219    0.0748 H   0  0  0  0  0  0  0  0  0  0  0  0
   -0.6322    1.0750    0.1217 C   0  0  1  0  0  0  0  0  0  0  0  0
   -0.4552    1.3124   -0.9325 H   0  0  0  0  0  0  0  0  0  0  0  0
   -0.9058    2.3887    0.8893 C   0  0  0  0  0  0  0  0  0  0  0  0
   -1.2994    2.1554    1.8846 H   0  0  0  0  0  0  0  0  0  0  0  0
    0.0332    2.9358    1.0312 H   0  0  0  0  0  0  0  0  0  0  0  0
   -1.8779    3.3147    0.1395 C   0  0  0  0  0  0  0  0  0  0  0  0
   -1.4668    3.5518   -0.8477 H   0  0  0  0  0  0  0  0  0  0  0  0
   -2.8413    2.8170   -0.0060 H   0  0  0  0  0  0  0  0  0  0  0  0
   -2.0966    4.6111    0.9273 C   0  0  0  0  0  0  0  0  0  0  0  0
   -2.4854    4.3749    1.9229 H   0  0  0  0  0  0  0  0  0  0  0  0
   -1.1414    5.1320    1.0532 H   0  0  0  0  0  0  0  0  0  0  0  0
   -3.0789    5.5283    0.2043 C   0  0  0  0  0  0  0  0  0  0  0  0
   -2.6855    5.7945   -0.7832 H   0  0  0  0  0  0  0  0  0  0  0  0
   -4.0377    5.0171    0.0627 H   0  0  0  0  0  0  0  0  0  0  0  0
   -3.2682    6.7375    1.0106 N   0  0  0  0  0  0  0  0  0  0  0  0
   -3.9075    7.3904    0.5569 H   0  0  0  0  0  0  0  0  0  0  0  0
   -3.5868    6.5085    1.9519 H   0  0  0  0  0  0  0  0  0  0  0  0
    0.7553    0.5417    0.6049 C   0  0  0  0  0  0  0  0  0  0  0  0
    1.7488    1.1372    0.2148 O   0  0  0  0  0  0  0  0  0  0  0  0
    1.1091   -0.6673    1.1499 N   0  0  0  0  0  0  0  0  0  0  0  0
    2.1015   -0.8390    1.0148 H   0  0  0  0  0  0  0  0  0  0  0  0
    0.6000   -1.0396    2.4643 C   0  0  0  0  0  0  0  0  0  0  0  0
    1.3178   -0.7518    3.2387 H   0  0  0  0  0  0  0  0  0  0  0  0
   -0.3518   -0.5448    2.6817 H   0  0  0  0  0  0  0  0  0  0  0  0
    0.4466   -2.1222    2.5148 H   0  0  0  0  0  0  0  0  0  0  0  0
  1  2  1  0  0  0  0
  2  3  1  0  0  0  0
  2  4  1  0  0  0  0
  2  5  1  0  0  0  0
  5  6  2  0  0  0  0
  5  7  1  0  0  0  0
  7  8  1  0  0  0  0
  7  9  1  0  0  0  0
  9 10  1  0  0  0  0
  9 11  1  0  0  0  0
  9 26  1  0  0  0  0
 11 12  1  0  0  0  0
 11 13  1  0  0  0  0
 11 14  1  0  0  0  0
 14 15  1  0  0  0  0
 14 16  1  0  0  0  0
 14 17  1  0  0  0  0
 17 18  1  0  0  0  0
 17 19  1  0  0  0  0
 17 20  1  0  0  0  0
 20 21  1  0  0  0  0
 20 22  1  0  0  0  0
 20 23  1  0  0  0  0
 23 24  1  0  0  0  0
 23 25  1  0  0  0  0
 26 27  2  0  0  0  0
 26 28  1  0  0  0  0
 28 29  1  0  0  0  0
 28 30  1  0  0  0  0
 30 31  1  0  0  0  0
 30 32  1  0  0  0  0
 30 33  1  0  0  0  0
M  END
$$$$

  -OEChem-01062216083D

 33 32  0     1  0  0  0  0  0999 V2000
   -3.9847   -2.1345    1.5070 H   0  0  0  0  0  0  0  0  0  0  0  0
   -3.8603   -1.1395    1.0697 C   0  0  0  0  0  0  0  0  0  0  0  0
   -4.2051   -0.3955    1.7917 H   0  0  0  0  0  0  0  0  0  0  0  0
   -4.4722   -1.0740    0.1667 H   0  0  0  0  0  0  0  0  0  0  0  0
   -2.4018   -0.8955    0.7265 C   0  0  0  0  0  0  0  0  0  0  0  0
   -1.6358   -1.8324    0.8010 O   0  0  0  0  0  0  0  0  0  0  0  0
   -2.0559    0.3523    0.2426 N   0  0  0  0  0  0  0  0  0  0  0  0
   -2.8581    0.9674    0.1594 H   0  0  0  0  0  0  0  0  0  0  0  0
   -0.7526    1.0370    0.0327 C   0  0  1  0  0  0  0  0  0  0  0  0
   -0.6999    1.2528   -1.0392 H   0  0  0  0  0  0  0  0  0  0  0  0
   -0.8913    2.3718    0.8048 C   0  0  0  0  0  0  0  0  0  0  0  0
   -1.1700    2.1643    1.8436 H   0  0  0  0  0  0  0  0  0  0  0  0
    0.0723    2.8930    0.8272 H   0  0  0  0  0  0  0  0  0  0  0  0
   -1.9159    3.3227    0.1626 C   0  0  0  0  0  0  0  0  0  0  0  0
   -1.6198    3.5354   -0.8704 H   0  0  0  0  0  0  0  0  0  0  0  0
   -2.9067    2.8592    0.1418 H   0  0  0  0  0  0  0  0  0  0  0  0
   -1.9909    4.6328    0.9543 C   0  0  0  0  0  0  0  0  0  0  0  0
   -2.2631    4.4182    1.9926 H   0  0  0  0  0  0  0  0  0  0  0  0
   -1.0092    5.1187    0.9562 H   0  0  0  0  0  0  0  0  0  0  0  0
   -3.0204    5.5818    0.3474 C   0  0  0  0  0  0  0  0  0  0  0  0
   -2.7428    5.8270   -0.6838 H   0  0  0  0  0  0  0  0  0  0  0  0
   -4.0076    5.1067    0.3307 H   0  0  0  0  0  0  0  0  0  0  0  0
   -3.0631    6.8019    1.1585 N   0  0  0  0  0  0  0  0  0  0  0  0
   -3.7284    7.4767    0.7807 H   0  0  0  0  0  0  0  0  0  0  0  0
   -3.2719    6.5898    2.1341 H   0  0  0  0  0  0  0  0  0  0  0  0
    0.6657    0.4535    0.3428 C   0  0  0  0  0  0  0  0  0  0  0  0
    1.6298    1.0990   -0.0430 O   0  0  0  0  0  0  0  0  0  0  0  0
    1.0556   -0.8361    0.5977 N   0  0  0  0  0  0  0  0  0  0  0  0
    1.9792   -0.9893    0.2034 H   0  0  0  0  0  0  0  0  0  0  0  0
    0.9373   -1.3185    1.9687 C   0  0  0  0  0  0  0  0  0  0  0  0
    0.1070   -0.8348    2.4938 H   0  0  0  0  0  0  0  0  0  0  0  0
    0.7643   -2.3993    1.9718 H   0  0  0  0  0  0  0  0  0  0  0  0
    1.8584   -1.1100    2.5216 H   0  0  0  0  0  0  0  0  0  0  0  0
  1  2  1  0  0  0  0
  2  3  1  0  0  0  0
  2  4  1  0  0  0  0
  2  5  1  0  0  0  0
  5  6  2  0  0  0  0
  5  7  1  0  0  0  0
  7  8  1  0  0  0  0
  7  9  1  0  0  0  0
  9 10  1  0  0  0  0
  9 11  1  0  0  0  0
  9 26  1  0  0  0  0
 11 12  1  0  0  0  0
 11 13  1  0  0  0  0
 11 14  1  0  0  0  0
 14 15  1  0  0  0  0
 14 16  1  0  0  0  0
 14 17  1  0  0  0  0
 17 18  1  0  0  0  0
 17 19  1  0  0  0  0
 17 20  1  0  0  0  0
 20 21  1  0  0  0  0
 20 22  1  0  0  0  0
 20 23  1  0  0  0  0
 23 24  1  0  0  0  0
 23 25  1  0  0  0  0
 26 27  2  0  0  0  0
 26 28  1  0  0  0  0
 28 29  1  0  0  0  0
 28 30  1  0  0  0  0
 30 31  1  0  0  0  0
 30 32  1  0  0  0  0
 30 33  1  0  0  0  0
M  END
$$$$

  -OEChem-01062216083D

 33 32  0     1  0  0  0  0  0999 V2000
   -4.2946   -2.1001    0.9200 H   0  0  0  0  0  0  0  0  0  0  0  0
   -4.0525   -1.1078    0.5280 C   0  0  0  0  0  0  0  0  0  0  0  0
   -4.6821   -0.3700    1.0313 H   0  0  0  0  0  0  0  0  0  0  0  0
   -4.2676   -1.0923   -0.5433 H   0  0  0  0  0  0  0  0  0  0  0  0
   -2.5879   -0.7902    0.7668 C   0  0  0  0  0  0  0  0  0  0  0  0
   -1.9027   -1.6246    1.3251 O   0  0  0  0  0  0  0  0  0  0  0  0
   -2.1148    0.4406    0.3466 N   0  0  0  0  0  0  0  0  0  0  0  0
   -2.8362    1.0161   -0.0763 H   0  0  0  0  0  0  0  0  0  0  0  0
   -0.7680    1.0743    0.3795 C   0  0  1  0  0  0  0  0  0  0  0  0
   -0.4860    1.2620   -0.6609 H   0  0  0  0  0  0  0  0  0  0  0  0
   -1.0054    2.4402    1.0756 C   0  0  0  0  0  0  0  0  0  0  0  0
   -1.4875    2.2745    2.0450 H   0  0  0  0  0  0  0  0  0  0  0  0
   -0.0515    2.9409    1.2700 H   0  0  0  0  0  0  0  0  0  0  0  0
   -1.8477    3.3994    0.2174 C   0  0  0  0  0  0  0  0  0  0  0  0
   -1.3470    3.5664   -0.7423 H   0  0  0  0  0  0  0  0  0  0  0  0
   -2.8310    2.9644    0.0164 H   0  0  0  0  0  0  0  0  0  0  0  0
   -2.0309    4.7397    0.9388 C   0  0  0  0  0  0  0  0  0  0  0  0
   -2.5119    4.5711    1.9076 H   0  0  0  0  0  0  0  0  0  0  0  0
   -1.0530    5.1970    1.1231 H   0  0  0  0  0  0  0  0  0  0  0  0
   -2.8854    5.6943    0.1098 C   0  0  0  0  0  0  0  0  0  0  0  0
   -2.4005    5.8919   -0.8528 H   0  0  0  0  0  0  0  0  0  0  0  0
   -3.8657    5.2468   -0.0877 H   0  0  0  0  0  0  0  0  0  0  0  0
   -3.0463    6.9455    0.8555 N   0  0  0  0  0  0  0  0  0  0  0  0
   -3.6153    7.6164    0.3392 H   0  0  0  0  0  0  0  0  0  0  0  0
   -3.4327    6.7753    1.7840 H   0  0  0  0  0  0  0  0  0  0  0  0
    0.5011    0.3689    0.9661 C   0  0  0  0  0  0  0  0  0  0  0  0
    1.4621    1.0486    1.3080 O   0  0  0  0  0  0  0  0  0  0  0  0
    0.6957   -0.9984    0.9554 N   0  0  0  0  0  0  0  0  0  0  0  0
   -0.1572   -1.5542    0.8769 H   0  0  0  0  0  0  0  0  0  0  0  0
    1.8742   -1.6452    1.5202 C   0  0  0  0  0  0  0  0  0  0  0  0
    1.9715   -1.4025    2.5835 H   0  0  0  0  0  0  0  0  0  0  0  0
    1.7918   -2.7315    1.4181 H   0  0  0  0  0  0  0  0  0  0  0  0
    2.7793   -1.3175    0.9981 H   0  0  0  0  0  0  0  0  0  0  0  0
  1  2  1  0  0  0  0
  2  3  1  0  0  0  0
  2  4  1  0  0  0  0
  2  5  1  0  0  0  0
  5  6  2  0  0  0  0
  5  7  1  0  0  0  0
  7  8  1  0  0  0  0
  7  9  1  0  0  0  0
  9 10  1  0  0  0  0
  9 11  1  0  0  0  0
  9 26  1  0  0  0  0
 11 12  1  0  0  0  0
 11 13  1  0  0  0  0
 11 14  1  0  0  0  0
 14 15  1  0  0  0  0
 14 16  1  0  0  0  0
 14 17  1  0  0  0  0
 17 18  1  0  0  0  0
 17 19  1  0  0  0  0
 17 20  1  0  0  0  0
 20 21  1  0  0  0  0
 20 22  1  0  0  0  0
 20 23  1  0  0  0  0
 23 24  1  0  0  0  0
 23 25  1  0  0  0  0
 26 27  2  0  0  0  0
 26 28  1  0  0  0  0
 28 29  1  0  0  0  0
 28 30  1  0  0  0  0
 30 31  1  0  0  0  0
 30 32  1  0  0  0  0
 30 33  1  0  0  0  0
M  END
$$$$

  -OEChem-01062216083D

 33 32  0     1  0  0  0  0  0999 V2000
   -4.1745   -2.1222    1.0298 H   0  0  0  0  0  0  0  0  0  0  0  0
   -3.9736   -1.1263    0.6241 C   0  0  0  0  0  0  0  0  0  0  0  0
   -4.5533   -0.3945    1.1923 H   0  0  0  0  0  0  0  0  0  0  0  0
   -4.2911   -1.1026   -0.4213 H   0  0  0  0  0  0  0  0  0  0  0  0
   -2.4931   -0.8079    0.7245 C   0  0  0  0  0  0  0  0  0  0  0  0
   -1.7412   -1.6739    1.1284 O   0  0  0  0  0  0  0  0  0  0  0  0
   -2.0669    0.4450    0.3205 N   0  0  0  0  0  0  0  0  0  0  0  0
   -2.8245    1.0438    0.0075 H   0  0  0  0  0  0  0  0  0  0  0  0
   -0.7355    1.1056    0.3727 C   0  0  1  0  0  0  0  0  0  0  0  0
   -0.4416    1.3055   -0.6619 H   0  0  0  0  0  0  0  0  0  0  0  0
   -0.9896    2.4657    1.0718 C   0  0  0  0  0  0  0  0  0  0  0  0
   -1.4728    2.2949    2.0398 H   0  0  0  0  0  0  0  0  0  0  0  0
   -0.0389    2.9729    1.2672 H   0  0  0  0  0  0  0  0  0  0  0  0
   -1.8362    3.4172    0.2090 C   0  0  0  0  0  0  0  0  0  0  0  0
   -1.3316    3.5906   -0.7475 H   0  0  0  0  0  0  0  0  0  0  0  0
   -2.8136    2.9717    0.0009 H   0  0  0  0  0  0  0  0  0  0  0  0
   -2.0389    4.7546    0.9298 C   0  0  0  0  0  0  0  0  0  0  0  0
   -2.5237    4.5801    1.8959 H   0  0  0  0  0  0  0  0  0  0  0  0
   -1.0671    5.2224    1.1201 H   0  0  0  0  0  0  0  0  0  0  0  0
   -2.8982    5.7010    0.0960 C   0  0  0  0  0  0  0  0  0  0  0  0
   -2.4098    5.9054   -0.8635 H   0  0  0  0  0  0  0  0  0  0  0  0
   -3.8723    5.2430   -0.1083 H   0  0  0  0  0  0  0  0  0  0  0  0
   -3.0764    6.9489    0.8435 N   0  0  0  0  0  0  0  0  0  0  0  0
   -3.6505    7.6144    0.3259 H   0  0  0  0  0  0  0  0  0  0  0  0
   -3.4662    6.7723    1.7695 H   0  0  0  0  0  0  0  0  0  0  0  0
    0.5169    0.3794    0.9656 C   0  0  0  0  0  0  0  0  0  0  0  0
    1.3593    1.0088    1.5959 O   0  0  0  0  0  0  0  0  0  0  0  0
    0.8205   -0.9315    0.6507 N   0  0  0  0  0  0  0  0  0  0  0  0
    0.0029   -1.4987    0.4202 H   0  0  0  0  0  0  0  0  0  0  0  0
    1.9743   -1.6282    1.2069 C   0  0  0  0  0  0  0  0  0  0  0  0
    1.9133   -1.6579    2.2997 H   0  0  0  0  0  0  0  0  0  0  0  0
    2.0090   -2.6557    0.8325 H   0  0  0  0  0  0  0  0  0  0  0  0
    2.9030   -1.1251    0.9182 H   0  0  0  0  0  0  0  0  0  0  0  0
  1  2  1  0  0  0  0
  2  3  1  0  0  0  0
  2  4  1  0  0  0  0
  2  5  1  0  0  0  0
  5  6  2  0  0  0  0
  5  7  1  0  0  0  0
  7  8  1  0  0  0  0
  7  9  1  0  0  0  0
  9 10  1  0  0  0  0
  9 11  1  0  0  0  0
  9 26  1  0  0  0  0
 11 12  1  0  0  0  0
 11 13  1  0  0  0  0
 11 14  1  0  0  0  0
 14 15  1  0  0  0  0
 14 16  1  0  0  0  0
 14 17  1  0  0  0  0
 17 18  1  0  0  0  0
 17 19  1  0  0  0  0
 17 20  1  0  0  0  0
 20 21  1  0  0  0  0
 20 22  1  0  0  0  0
 20 23  1  0  0  0  0
 23 24  1  0  0  0  0
 23 25  1  0  0  0  0
 26 27  2  0  0  0  0
 26 28  1  0  0  0  0
 28 29  1  0  0  0  0
 28 30  1  0  0  0  0
 30 31  1  0  0  0  0
 30 32  1  0  0  0  0
 30 33  1  0  0  0  0
M  END
$$$$

  -OEChem-01062216083D

 33 32  0     1  0  0  0  0  0999 V2000
   -4.0143   -2.1751    1.1143 H   0  0  0  0  0  0  0  0  0  0  0  0
   -3.8751   -1.1673    0.7129 C   0  0  0  0  0  0  0  0  0  0  0  0
   -4.3974   -0.4587    1.3601 H   0  0  0  0  0  0  0  0  0  0  0  0
   -4.3090   -1.1246   -0.2890 H   0  0  0  0  0  0  0  0  0  0  0  0
   -2.3975   -0.8263    0.6550 C   0  0  0  0  0  0  0  0  0  0  0  0
   -1.5860   -1.7049    0.8788 O   0  0  0  0  0  0  0  0  0  0  0  0
   -2.0300    0.4488    0.2631 N   0  0  0  0  0  0  0  0  0  0  0  0
   -2.8201    1.0596    0.0817 H   0  0  0  0  0  0  0  0  0  0  0  0
   -0.7167    1.1356    0.3531 C   0  0  1  0  0  0  0  0  0  0  0  0
   -0.3968    1.3527   -0.6706 H   0  0  0  0  0  0  0  0  0  0  0  0
   -0.9864    2.4849    1.0623 C   0  0  0  0  0  0  0  0  0  0  0  0
   -1.4815    2.3027    2.0224 H   0  0  0  0  0  0  0  0  0  0  0  0
   -0.0361    2.9874    1.2736 H   0  0  0  0  0  0  0  0  0  0  0  0
   -1.8255    3.4400    0.1971 C   0  0  0  0  0  0  0  0  0  0  0  0
   -1.3094    3.6251   -0.7510 H   0  0  0  0  0  0  0  0  0  0  0  0
   -2.7968    2.9901   -0.0287 H   0  0  0  0  0  0  0  0  0  0  0  0
   -2.0463    4.7697    0.9267 C   0  0  0  0  0  0  0  0  0  0  0  0
   -2.5446    4.5841    1.8837 H   0  0  0  0  0  0  0  0  0  0  0  0
   -1.0803    5.2414    1.1355 H   0  0  0  0  0  0  0  0  0  0  0  0
   -2.8988    5.7166    0.0868 C   0  0  0  0  0  0  0  0  0  0  0  0
   -2.3969    5.9309   -0.8634 H   0  0  0  0  0  0  0  0  0  0  0  0
   -3.8666    5.2539   -0.1358 H   0  0  0  0  0  0  0  0  0  0  0  0
   -3.0976    6.9583    0.8390 N   0  0  0  0  0  0  0  0  0  0  0  0
   -3.6706    7.6219    0.3176 H   0  0  0  0  0  0  0  0  0  0  0  0
   -3.4984    6.7730    1.7585 H   0  0  0  0  0  0  0  0  0  0  0  0
    0.5069    0.3902    0.9731 C   0  0  0  0  0  0  0  0  0  0  0  0
    1.1781    0.9068    1.8597 O   0  0  0  0  0  0  0  0  0  0  0  0
    0.9701   -0.7857    0.4125 N   0  0  0  0  0  0  0  0  0  0  0  0
    0.2312   -1.3394   -0.0216 H   0  0  0  0  0  0  0  0  0  0  0  0
    2.0954   -1.5221    0.9758 C   0  0  0  0  0  0  0  0  0  0  0  0
    1.8780   -1.8238    2.0057 H   0  0  0  0  0  0  0  0  0  0  0  0
    2.2900   -2.4214    0.3837 H   0  0  0  0  0  0  0  0  0  0  0  0
    2.9999   -0.9049    0.9718 H   0  0  0  0  0  0  0  0  0  0  0  0
  1  2  1  0  0  0  0
  2  3  1  0  0  0  0
  2  4  1  0  0  0  0
  2  5  1  0  0  0  0
  5  6  2  0  0  0  0
  5  7  1  0  0  0  0
  7  8  1  0  0  0  0
  7  9  1  0  0  0  0
  9 10  1  0  0  0  0
  9 11  1  0  0  0  0
  9 26  1  0  0  0  0
 11 12  1  0  0  0  0
 11 13  1  0  0  0  0
 11 14  1  0  0  0  0
 14 15  1  0  0  0  0
 14 16  1  0  0  0  0
 14 17  1  0  0  0  0
 17 18  1  0  0  0  0
 17 19  1  0  0  0  0
 17 20  1  0  0  0  0
 20 21  1  0  0  0  0
 20 22  1  0  0  0  0
 20 23  1  0  0  0  0
 23 24  1  0  0  0  0
 23 25  1  0  0  0  0
 26 27  2  0  0  0  0
 26 28  1  0  0  0  0
 28 29  1  0  0  0  0
 28 30  1  0  0  0  0
 30 31  1  0  0  0  0
 30 32  1  0  0  0  0
 30 33  1  0  0  0  0
M  END
$$$$

  -OEChem-01062216083D

 33 32  0     1  0  0  0  0  0999 V2000
   -3.8584   -2.2290    1.1740 H   0  0  0  0  0  0  0  0  0  0  0  0
   -3.7769   -1.2138    0.7749 C   0  0  0  0  0  0  0  0  0  0  0  0
   -4.2700   -0.5261    1.4662 H   0  0  0  0  0  0  0  0  0  0  0  0
   -4.2824   -1.1737   -0.1930 H   0  0  0  0  0  0  0  0  0  0  0  0
   -2.3175   -0.8317    0.6142 C   0  0  0  0  0  0  0  0  0  0  0  0
   -1.4662   -1.6932    0.7403 O   0  0  0  0  0  0  0  0  0  0  0  0
   -2.0066    0.4546    0.2100 N   0  0  0  0  0  0  0  0  0  0  0  0
   -2.8173    1.0568    0.1093 H   0  0  0  0  0  0  0  0  0  0  0  0
   -0.7085    1.1613    0.3209 C   0  0  1  0  0  0  0  0  0  0  0  0
   -0.3711    1.3886   -0.6948 H   0  0  0  0  0  0  0  0  0  0  0  0
   -0.9851    2.5016    1.0386 C   0  0  0  0  0  0  0  0  0  0  0  0
   -1.4868    2.3095    1.9934 H   0  0  0  0  0  0  0  0  0  0  0  0
   -0.0330    2.9963    1.2618 H   0  0  0  0  0  0  0  0  0  0  0  0
   -1.8234    3.4606    0.1784 C   0  0  0  0  0  0  0  0  0  0  0  0
   -1.3037    3.6554   -0.7659 H   0  0  0  0  0  0  0  0  0  0  0  0
   -2.7920    3.0088   -0.0554 H   0  0  0  0  0  0  0  0  0  0  0  0
   -2.0502    4.7823    0.9198 C   0  0  0  0  0  0  0  0  0  0  0  0
   -2.5520    4.5858    1.8730 H   0  0  0  0  0  0  0  0  0  0  0  0
   -1.0861    5.2540    1.1371 H   0  0  0  0  0  0  0  0  0  0  0  0
   -2.9022    5.7358    0.0869 C   0  0  0  0  0  0  0  0  0  0  0  0
   -2.3981    5.9612   -0.8596 H   0  0  0  0  0  0  0  0  0  0  0  0
   -3.8682    5.2730   -0.1432 H   0  0  0  0  0  0  0  0  0  0  0  0
   -3.1057    6.9690    0.8520 N   0  0  0  0  0  0  0  0  0  0  0  0
   -3.6871    7.6328    0.3403 H   0  0  0  0  0  0  0  0  0  0  0  0
   -3.4993    6.7716    1.7722 H   0  0  0  0  0  0  0  0  0  0  0  0
    0.4887    0.4065    0.9700 C   0  0  0  0  0  0  0  0  0  0  0  0
    0.9580    0.7680    2.0439 O   0  0  0  0  0  0  0  0  0  0  0  0
    1.1434   -0.5808    0.2560 N   0  0  0  0  0  0  0  0  0  0  0  0
    0.5523   -1.0545   -0.4237 H   0  0  0  0  0  0  0  0  0  0  0  0
    2.2325   -1.3560    0.8376 C   0  0  0  0  0  0  0  0  0  0  0  0
    1.8841   -1.9009    1.7214 H   0  0  0  0  0  0  0  0  0  0  0  0
    2.6102   -2.0796    0.1090 H   0  0  0  0  0  0  0  0  0  0  0  0
    3.0591   -0.6998    1.1304 H   0  0  0  0  0  0  0  0  0  0  0  0
  1  2  1  0  0  0  0
  2  3  1  0  0  0  0
  2  4  1  0  0  0  0
  2  5  1  0  0  0  0
  5  6  2  0  0  0  0
  5  7  1  0  0  0  0
  7  8  1  0  0  0  0
  7  9  1  0  0  0  0
  9 10  1  0  0  0  0
  9 11  1  0  0  0  0
  9 26  1  0  0  0  0
 11 12  1  0  0  0  0
 11 13  1  0  0  0  0
 11 14  1  0  0  0  0
 14 15  1  0  0  0  0
 14 16  1  0  0  0  0
 14 17  1  0  0  0  0
 17 18  1  0  0  0  0
 17 19  1  0  0  0  0
 17 20  1  0  0  0  0
 20 21  1  0  0  0  0
 20 22  1  0  0  0  0
 20 23  1  0  0  0  0
 23 24  1  0  0  0  0
 23 25  1  0  0  0  0
 26 27  2  0  0  0  0
 26 28  1  0  0  0  0
 28 29  1  0  0  0  0
 28 30  1  0  0  0  0
 30 31  1  0  0  0  0
 30 32  1  0  0  0  0
 30 33  1  0  0  0  0
M  END
$$$$

  -OEChem-01062216083D

 33 32  0     1  0  0  0  0  0999 V2000
   -3.7464   -2.2669    1.2130 H   0  0  0  0  0  0  0  0  0  0  0  0
   -3.7070   -1.2449    0.8249 C   0  0  0  0  0  0  0  0  0  0  0  0
   -4.1627   -0.5751    1.5580 H   0  0  0  0  0  0  0  0  0  0  0  0
   -4.2759   -1.1993   -0.1067 H   0  0  0  0  0  0  0  0  0  0  0  0
   -2.2669   -0.8380    0.5748 C   0  0  0  0  0  0  0  0  0  0  0  0
   -1.3970   -1.6903    0.6173 O   0  0  0  0  0  0  0  0  0  0  0  0
   -1.9971    0.4548    0.1603 N   0  0  0  0  0  0  0  0  0  0  0  0
   -2.8195    1.0483    0.1235 H   0  0  0  0  0  0  0  0  0  0  0  0
   -0.7099    1.1753    0.2899 C   0  0  1  0  0  0  0  0  0  0  0  0
   -0.3598    1.4100   -0.7199 H   0  0  0  0  0  0  0  0  0  0  0  0
   -0.9885    2.5077    1.0179 C   0  0  0  0  0  0  0  0  0  0  0  0
   -1.4968    2.3079    1.9676 H   0  0  0  0  0  0  0  0  0  0  0  0
   -0.0350    2.9942    1.2529 H   0  0  0  0  0  0  0  0  0  0  0  0
   -1.8240    3.4737    0.1640 C   0  0  0  0  0  0  0  0  0  0  0  0
   -1.3018    3.6770   -0.7769 H   0  0  0  0  0  0  0  0  0  0  0  0
   -2.7916    3.0227   -0.0761 H   0  0  0  0  0  0  0  0  0  0  0  0
   -2.0529    4.7889    0.9165 C   0  0  0  0  0  0  0  0  0  0  0  0
   -2.5563    4.5849    1.8673 H   0  0  0  0  0  0  0  0  0  0  0  0
   -1.0894    5.2592    1.1398 H   0  0  0  0  0  0  0  0  0  0  0  0
   -2.9026    5.7496    0.0896 C   0  0  0  0  0  0  0  0  0  0  0  0
   -2.3961    5.9832   -0.8535 H   0  0  0  0  0  0  0  0  0  0  0  0
   -3.8678    5.2887   -0.1471 H   0  0  0  0  0  0  0  0  0  0  0  0
   -3.1085    6.9762    0.8646 N   0  0  0  0  0  0  0  0  0  0  0  0
   -3.6789    7.6491    0.3522 H   0  0  0  0  0  0  0  0  0  0  0  0
   -3.5159    6.7718    1.7771 H   0  0  0  0  0  0  0  0  0  0  0  0
    0.4685    0.4181    0.9630 C   0  0  0  0  0  0  0  0  0  0  0  0
    0.7332    0.5987    2.1470 O   0  0  0  0  0  0  0  0  0  0  0  0
    1.3298   -0.3369    0.1876 N   0  0  0  0  0  0  0  0  0  0  0  0
    0.9402   -0.6589   -0.6936 H   0  0  0  0  0  0  0  0  0  0  0  0
    2.3971   -1.1331    0.7805 C   0  0  0  0  0  0  0  0  0  0  0  0
    1.9800   -1.8796    1.4649 H   0  0  0  0  0  0  0  0  0  0  0  0
    2.9590   -1.6526   -0.0012 H   0  0  0  0  0  0  0  0  0  0  0  0
    3.0914   -0.4937    1.3358 H   0  0  0  0  0  0  0  0  0  0  0  0
  1  2  1  0  0  0  0
  2  3  1  0  0  0  0
  2  4  1  0  0  0  0
  2  5  1  0  0  0  0
  5  6  2  0  0  0  0
  5  7  1  0  0  0  0
  7  8  1  0  0  0  0
  7  9  1  0  0  0  0
  9 10  1  0  0  0  0
  9 11  1  0  0  0  0
  9 26  1  0  0  0  0
 11 12  1  0  0  0  0
 11 13  1  0  0  0  0
 11 14  1  0  0  0  0
 14 15  1  0  0  0  0
 14 16  1  0  0  0  0
 14 17  1  0  0  0  0
 17 18  1  0  0  0  0
 17 19  1  0  0  0  0
 17 20  1  0  0  0  0
 20 21  1  0  0  0  0
 20 22  1  0  0  0  0
 20 23  1  0  0  0  0
 23 24  1  0  0  0  0
 23 25  1  0  0  0  0
 26 27  2  0  0  0  0
 26 28  1  0  0  0  0
 28 29  1  0  0  0  0
 28 30  1  0  0  0  0
 30 31  1  0  0  0  0
 30 32  1  0  0  0  0
 30 33  1  0  0  0  0
M  END
$$$$

  -OEChem-01062216083D

 33 32  0     1  0  0  0  0  0999 V2000
   -3.7026   -2.2818    1.2112 H   0  0  0  0  0  0  0  0  0  0  0  0
   -3.6749   -1.2445    0.8649 C   0  0  0  0  0  0  0  0  0  0  0  0
   -4.0736   -0.6026    1.6541 H   0  0  0  0  0  0  0  0  0  0  0  0
   -4.3022   -1.1527   -0.0249 H   0  0  0  0  0  0  0  0  0  0  0  0
   -2.2489   -0.8405    0.5397 C   0  0  0  0  0  0  0  0  0  0  0  0
   -1.3807   -1.6961    0.5132 O   0  0  0  0  0  0  0  0  0  0  0  0
   -1.9956    0.4529    0.1170 N   0  0  0  0  0  0  0  0  0  0  0  0
   -2.8198    1.0447    0.1231 H   0  0  0  0  0  0  0  0  0  0  0  0
   -0.7122    1.1749    0.2624 C   0  0  1  0  0  0  0  0  0  0  0  0
   -0.3523    1.4142   -0.7426 H   0  0  0  0  0  0  0  0  0  0  0  0
   -0.9939    2.5004    0.9991 C   0  0  0  0  0  0  0  0  0  0  0  0
   -1.5103    2.2923    1.9427 H   0  0  0  0  0  0  0  0  0  0  0  0
   -0.0408    2.9810    1.2473 H   0  0  0  0  0  0  0  0  0  0  0  0
   -1.8239    3.4746    0.1486 C   0  0  0  0  0  0  0  0  0  0  0  0
   -1.2965    3.6848   -0.7879 H   0  0  0  0  0  0  0  0  0  0  0  0
   -2.7905    3.0264   -0.1012 H   0  0  0  0  0  0  0  0  0  0  0  0
   -2.0563    4.7837    0.9110 C   0  0  0  0  0  0  0  0  0  0  0  0
   -2.5651    4.5715    1.8570 H   0  0  0  0  0  0  0  0  0  0  0  0
   -1.0935    5.2511    1.1436 H   0  0  0  0  0  0  0  0  0  0  0  0
   -2.9005    5.7528    0.0886 C   0  0  0  0  0  0  0  0  0  0  0  0
   -2.3895    5.9949   -0.8500 H   0  0  0  0  0  0  0  0  0  0  0  0
   -3.8651    5.2950   -0.1566 H   0  0  0  0  0  0  0  0  0  0  0  0
   -3.1086    6.9719    0.8747 N   0  0  0  0  0  0  0  0  0  0  0  0
   -3.6864    7.6450    0.3711 H   0  0  0  0  0  0  0  0  0  0  0  0
   -3.5093    6.7580    1.7880 H   0  0  0  0  0  0  0  0  0  0  0  0
    0.4523    0.4174    0.9564 C   0  0  0  0  0  0  0  0  0  0  0  0
    0.5407    0.4133    2.1797 O   0  0  0  0  0  0  0  0  0  0  0  0
    1.4996   -0.0830    0.2031 N   0  0  0  0  0  0  0  0  0  0  0  0
    1.3073   -0.2221   -0.7839 H   0  0  0  0  0  0  0  0  0  0  0  0
    2.5822   -0.8544    0.8014 C   0  0  0  0  0  0  0  0  0  0  0  0
    2.1880   -1.7579    1.2784 H   0  0  0  0  0  0  0  0  0  0  0  0
    3.3034   -1.1524    0.0346 H   0  0  0  0  0  0  0  0  0  0  0  0
    3.1082   -0.2586    1.5546 H   0  0  0  0  0  0  0  0  0  0  0  0
  1  2  1  0  0  0  0
  2  3  1  0  0  0  0
  2  4  1  0  0  0  0
  2  5  1  0  0  0  0
  5  6  2  0  0  0  0
  5  7  1  0  0  0  0
  7  8  1  0  0  0  0
  7  9  1  0  0  0  0
  9 10  1  0  0  0  0
  9 11  1  0  0  0  0
  9 26  1  0  0  0  0
 11 12  1  0  0  0  0
 11 13  1  0  0  0  0
 11 14  1  0  0  0  0
 14 15  1  0  0  0  0
 14 16  1  0  0  0  0
 14 17  1  0  0  0  0
 17 18  1  0  0  0  0
 17 19  1  0  0  0  0
 17 20  1  0  0  0  0
 20 21  1  0  0  0  0
 20 22  1  0  0  0  0
 20 23  1  0  0  0  0
 23 24  1  0  0  0  0
 23 25  1  0  0  0  0
 26 27  2  0  0  0  0
 26 28  1  0  0  0  0
 28 29  1  0  0  0  0
 28 30  1  0  0  0  0
 30 31  1  0  0  0  0
 30 32  1  0  0  0  0
 30 33  1  0  0  0  0
M  END
$$$$

  -OEChem-01062216083D

 33 32  0     1  0  0  0  0  0999 V2000
   -3.6772   -2.2830    1.2308 H   0  0  0  0  0  0  0  0  0  0  0  0
   -3.6581   -1.2408    0.8990 C   0  0  0  0  0  0  0  0  0  0  0  0
   -4.0013   -0.6068    1.7202 H   0  0  0  0  0  0  0  0  0  0  0  0
   -4.3358   -1.1281    0.0495 H   0  0  0  0  0  0  0  0  0  0  0  0
   -2.2494   -0.8478    0.4961 C   0  0  0  0  0  0  0  0  0  0  0  0
   -1.3957   -1.7122    0.3899 O   0  0  0  0  0  0  0  0  0  0  0  0
   -2.0041    0.4461    0.0717 N   0  0  0  0  0  0  0  0  0  0  0  0
   -2.8257    1.0392    0.1199 H   0  0  0  0  0  0  0  0  0  0  0  0
   -0.7201    1.1628    0.2345 C   0  0  1  0  0  0  0  0  0  0  0  0
   -0.3508    1.4063   -0.7659 H   0  0  0  0  0  0  0  0  0  0  0  0
   -1.0008    2.4808    0.9832 C   0  0  0  0  0  0  0  0  0  0  0  0
   -1.5241    2.2643    1.9211 H   0  0  0  0  0  0  0  0  0  0  0  0
   -0.0470    2.9536    1.2429 H   0  0  0  0  0  0  0  0  0  0  0  0
   -1.8208    3.4677    0.1381 C   0  0  0  0  0  0  0  0  0  0  0  0
   -1.2854    3.6870   -0.7917 H   0  0  0  0  0  0  0  0  0  0  0  0
   -2.7870    3.0258   -0.1243 H   0  0  0  0  0  0  0  0  0  0  0  0
   -2.0530    4.7696    0.9127 C   0  0  0  0  0  0  0  0  0  0  0  0
   -2.5699    4.5492    1.8523 H   0  0  0  0  0  0  0  0  0  0  0  0
   -1.0902    5.2304    1.1577 H   0  0  0  0  0  0  0  0  0  0  0  0
   -2.8877    5.7505    0.0938 C   0  0  0  0  0  0  0  0  0  0  0  0
   -2.3677    5.9998   -0.8379 H   0  0  0  0  0  0  0  0  0  0  0  0
   -3.8520    5.2991   -0.1644 H   0  0  0  0  0  0  0  0  0  0  0  0
   -3.0979    6.9634    0.8893 N   0  0  0  0  0  0  0  0  0  0  0  0
   -3.6545    7.6501    0.3800 H   0  0  0  0  0  0  0  0  0  0  0  0
   -3.5239    6.7446    1.7900 H   0  0  0  0  0  0  0  0  0  0  0  0
    0.4338    0.4034    0.9425 C   0  0  0  0  0  0  0  0  0  0  0  0
    0.3892    0.2261    2.1553 O   0  0  0  0  0  0  0  0  0  0  0  0
    1.6251    0.1716    0.2777 N   0  0  0  0  0  0  0  0  0  0  0  0
    1.5937    0.2146   -0.7359 H   0  0  0  0  0  0  0  0  0  0  0  0
    2.7420   -0.5261    0.9036 C   0  0  0  0  0  0  0  0  0  0  0  0
    2.4399   -1.5343    1.2067 H   0  0  0  0  0  0  0  0  0  0  0  0
    3.5777   -0.6090    0.2023 H   0  0  0  0  0  0  0  0  0  0  0  0
    3.0884    0.0184    1.7885 H   0  0  0  0  0  0  0  0  0  0  0  0
  1  2  1  0  0  0  0
  2  3  1  0  0  0  0
  2  4  1  0  0  0  0
  2  5  1  0  0  0  0
  5  6  2  0  0  0  0
  5  7  1  0  0  0  0
  7  8  1  0  0  0  0
  7  9  1  0  0  0  0
  9 10  1  0  0  0  0
  9 11  1  0  0  0  0
  9 26  1  0  0  0  0
 11 12  1  0  0  0  0
 11 13  1  0  0  0  0
 11 14  1  0  0  0  0
 14 15  1  0  0  0  0
 14 16  1  0  0  0  0
 14 17  1  0  0  0  0
 17 18  1  0  0  0  0
 17 19  1  0  0  0  0
 17 20  1  0  0  0  0
 20 21  1  0  0  0  0
 20 22  1  0  0  0  0
 20 23  1  0  0  0  0
 23 24  1  0  0  0  0
 23 25  1  0  0  0  0
 26 27  2  0  0  0  0
 26 28  1  0  0  0  0
 28 29  1  0  0  0  0
 28 30  1  0  0  0  0
 30 31  1  0  0  0  0
 30 32  1  0  0  0  0
 30 33  1  0  0  0  0
M  END
$$$$

  -OEChem-01062216083D

 33 32  0     1  0  0  0  0  0999 V2000
   -3.6621   -2.2841    1.2487 H   0  0  0  0  0  0  0  0  0  0  0  0
   -3.6502   -1.2398    0.9240 C   0  0  0  0  0  0  0  0  0  0  0  0
   -3.9489   -0.6097    1.7651 H   0  0  0  0  0  0  0  0  0  0  0  0
   -4.3656   -1.1145    0.1079 H   0  0  0  0  0  0  0  0  0  0  0  0
   -2.2581   -0.8566    0.4593 C   0  0  0  0  0  0  0  0  0  0  0  0
   -1.4261   -1.7297    0.2766 O   0  0  0  0  0  0  0  0  0  0  0  0
   -2.0139    0.4377    0.0364 N   0  0  0  0  0  0  0  0  0  0  0  0
   -2.8305    1.0339    0.1171 H   0  0  0  0  0  0  0  0  0  0  0  0
   -0.7270    1.1462    0.2126 C   0  0  1  0  0  0  0  0  0  0  0  0
   -0.3512    1.3906   -0.7852 H   0  0  0  0  0  0  0  0  0  0  0  0
   -1.0044    2.4587    0.9704 C   0  0  0  0  0  0  0  0  0  0  0  0
   -1.5346    2.2370    1.9032 H   0  0  0  0  0  0  0  0  0  0  0  0
   -0.0501    2.9249    1.2402 H   0  0  0  0  0  0  0  0  0  0  0  0
   -1.8140    3.4563    0.1280 C   0  0  0  0  0  0  0  0  0  0  0  0
   -1.2725    3.6800   -0.7973 H   0  0  0  0  0  0  0  0  0  0  0  0
   -2.7811    3.0220   -0.1434 H   0  0  0  0  0  0  0  0  0  0  0  0
   -2.0431    4.7525    0.9125 C   0  0  0  0  0  0  0  0  0  0  0  0
   -2.5669    4.5265    1.8471 H   0  0  0  0  0  0  0  0  0  0  0  0
   -1.0791    5.2055    1.1668 H   0  0  0  0  0  0  0  0  0  0  0  0
   -2.8676    5.7451    0.0975 C   0  0  0  0  0  0  0  0  0  0  0  0
   -2.3406    5.9998   -0.8288 H   0  0  0  0  0  0  0  0  0  0  0  0
   -3.8329    5.3015   -0.1704 H   0  0  0  0  0  0  0  0  0  0  0  0
   -3.0746    6.9517    0.9032 N   0  0  0  0  0  0  0  0  0  0  0  0
   -3.6257    7.6460    0.3981 H   0  0  0  0  0  0  0  0  0  0  0  0
   -3.5052    6.7265    1.8000 H   0  0  0  0  0  0  0  0  0  0  0  0
    0.4213    0.3863    0.9282 C   0  0  0  0  0  0  0  0  0  0  0  0
    0.2825    0.0450    2.0981 O   0  0  0  0  0  0  0  0  0  0  0  0
    1.7022    0.4227    0.4051 N   0  0  0  0  0  0  0  0  0  0  0  0
    1.7918    0.6627   -0.5769 H   0  0  0  0  0  0  0  0  0  0  0  0
    2.8432   -0.1863    1.0781 C   0  0  0  0  0  0  0  0  0  0  0  0
    2.6669   -1.2555    1.2371 H   0  0  0  0  0  0  0  0  0  0  0  0
    3.7464   -0.0704    0.4717 H   0  0  0  0  0  0  0  0  0  0  0  0
    3.0158    0.2912    2.0484 H   0  0  0  0  0  0  0  0  0  0  0  0
  1  2  1  0  0  0  0
  2  3  1  0  0  0  0
  2  4  1  0  0  0  0
  2  5  1  0  0  0  0
  5  6  2  0  0  0  0
  5  7  1  0  0  0  0
  7  8  1  0  0  0  0
  7  9  1  0  0  0  0
  9 10  1  0  0  0  0
  9 11  1  0  0  0  0
  9 26  1  0  0  0  0
 11 12  1  0  0  0  0
 11 13  1  0  0  0  0
 11 14  1  0  0  0  0
 14 15  1  0  0  0  0
 14 16  1  0  0  0  0
 14 17  1  0  0  0  0
 17 18  1  0  0  0  0
 17 19  1  0  0  0  0
 17 20  1  0  0  0  0
 20 21  1  0  0  0  0
 20 22  1  0  0  0  0
 20 23  1  0  0  0  0
 23 24  1  0  0  0  0
 23 25  1  0  0  0  0
 26 27  2  0  0  0  0
 26 28  1  0  0  0  0
 28 29  1  0  0  0  0
 28 30  1  0  0  0  0
 30 31  1  0  0  0  0
 30 32  1  0  0  0  0
 30 33  1  0  0  0  0
M  END
$$$$

  -OEChem-01062216083D

 33 32  0     1  0  0  0  0  0999 V2000
   -3.6627   -2.2673    1.2700 H   0  0  0  0  0  0  0  0  0  0  0  0
   -3.6488   -1.2217    0.9497 C   0  0  0  0  0  0  0  0  0  0  0  0
   -3.8925   -0.5909    1.8078 H   0  0  0  0  0  0  0  0  0  0  0  0
   -4.4019   -1.0792    0.1713 H   0  0  0  0  0  0  0  0  0  0  0  0
   -2.2751   -0.8614    0.4172 C   0  0  0  0  0  0  0  0  0  0  0  0
   -1.4804   -1.7482    0.1521 O   0  0  0  0  0  0  0  0  0  0  0  0
   -2.0203    0.4330    0.0035 N   0  0  0  0  0  0  0  0  0  0  0  0
   -2.8270    1.0368    0.1187 H   0  0  0  0  0  0  0  0  0  0  0  0
   -0.7257    1.1246    0.1922 C   0  0  1  0  0  0  0  0  0  0  0  0
   -0.3455    1.3734   -0.8031 H   0  0  0  0  0  0  0  0  0  0  0  0
   -1.0013    2.4290    0.9640 C   0  0  0  0  0  0  0  0  0  0  0  0
   -1.5400    2.1982    1.8898 H   0  0  0  0  0  0  0  0  0  0  0  0
   -0.0483    2.8889    1.2479 H   0  0  0  0  0  0  0  0  0  0  0  0
   -1.7996    3.4384    0.1253 C   0  0  0  0  0  0  0  0  0  0  0  0
   -1.2490    3.6676   -0.7932 H   0  0  0  0  0  0  0  0  0  0  0  0
   -2.7664    3.0113   -0.1588 H   0  0  0  0  0  0  0  0  0  0  0  0
   -2.0310    4.7292    0.9179 C   0  0  0  0  0  0  0  0  0  0  0  0
   -2.5643    4.4994    1.8463 H   0  0  0  0  0  0  0  0  0  0  0  0
   -1.0680    5.1776    1.1846 H   0  0  0  0  0  0  0  0  0  0  0  0
   -2.8447    5.7288    0.1009 C   0  0  0  0  0  0  0  0  0  0  0  0
   -2.3085    5.9862   -0.8196 H   0  0  0  0  0  0  0  0  0  0  0  0
   -3.8089    5.2896   -0.1782 H   0  0  0  0  0  0  0  0  0  0  0  0
   -3.0563    6.9313    0.9113 N   0  0  0  0  0  0  0  0  0  0  0  0
   -3.5987    7.6303    0.4034 H   0  0  0  0  0  0  0  0  0  0  0  0
   -3.4988    6.7028    1.8017 H   0  0  0  0  0  0  0  0  0  0  0  0
    0.4232    0.3630    0.9070 C   0  0  0  0  0  0  0  0  0  0  0  0
    0.2259   -0.1458    2.0052 O   0  0  0  0  0  0  0  0  0  0  0  0
    1.7348    0.6528    0.5699 N   0  0  0  0  0  0  0  0  0  0  0  0
    1.8976    1.1008   -0.3260 H   0  0  0  0  0  0  0  0  0  0  0  0
    2.8802    0.1406    1.3134 C   0  0  0  0  0  0  0  0  0  0  0  0
    2.8550   -0.9537    1.3503 H   0  0  0  0  0  0  0  0  0  0  0  0
    3.8128    0.4487    0.8314 H   0  0  0  0  0  0  0  0  0  0  0  0
    2.8766    0.5283    2.3375 H   0  0  0  0  0  0  0  0  0  0  0  0
  1  2  1  0  0  0  0
  2  3  1  0  0  0  0
  2  4  1  0  0  0  0
  2  5  1  0  0  0  0
  5  6  2  0  0  0  0
  5  7  1  0  0  0  0
  7  8  1  0  0  0  0
  7  9  1  0  0  0  0
  9 10  1  0  0  0  0
  9 11  1  0  0  0  0
  9 26  1  0  0  0  0
 11 12  1  0  0  0  0
 11 13  1  0  0  0  0
 11 14  1  0  0  0  0
 14 15  1  0  0  0  0
 14 16  1  0  0  0  0
 14 17  1  0  0  0  0
 17 18  1  0  0  0  0
 17 19  1  0  0  0  0
 17 20  1  0  0  0  0
 20 21  1  0  0  0  0
 20 22  1  0  0  0  0
 20 23  1  0  0  0  0
 23 24  1  0  0  0  0
 23 25  1  0  0  0  0
 26 27  2  0  0  0  0
 26 28  1  0  0  0  0
 28 29  1  0  0  0  0
 28 30  1  0  0  0  0
 30 31  1  0  0  0  0
 30 32  1  0  0  0  0
 30 33  1  0  0  0  0
M  END
$$$$

  -OEChem-01062216083D

 33 32  0     1  0  0  0  0  0999 V2000
   -3.6611   -2.2610    1.2587 H   0  0  0  0  0  0  0  0  0  0  0  0
   -3.6314   -1.2032    0.9819 C   0  0  0  0  0  0  0  0  0  0  0  0
   -3.8013   -0.6025    1.8786 H   0  0  0  0  0  0  0  0  0  0  0  0
   -4.4247   -1.0038    0.2578 H   0  0  0  0  0  0  0  0  0  0  0  0
   -2.2800   -0.8634    0.3826 C   0  0  0  0  0  0  0  0  0  0  0  0
   -1.5356   -1.7613    0.0249 O   0  0  0  0  0  0  0  0  0  0  0  0
   -2.0120    0.4318   -0.0186 N   0  0  0  0  0  0  0  0  0  0  0  0
   -2.8091    1.0415    0.1268 H   0  0  0  0  0  0  0  0  0  0  0  0
   -0.7112    1.1118    0.1787 C   0  0  1  0  0  0  0  0  0  0  0  0
   -0.3279    1.3642   -0.8144 H   0  0  0  0  0  0  0  0  0  0  0  0
   -0.9973    2.4130    0.9560 C   0  0  0  0  0  0  0  0  0  0  0  0
   -1.5445    2.1750    1.8749 H   0  0  0  0  0  0  0  0  0  0  0  0
   -0.0511    2.8780    1.2532 H   0  0  0  0  0  0  0  0  0  0  0  0
   -1.7895    3.4274    0.1157 C   0  0  0  0  0  0  0  0  0  0  0  0
   -1.2315    3.6634   -0.7967 H   0  0  0  0  0  0  0  0  0  0  0  0
   -2.7534    3.0013   -0.1797 H   0  0  0  0  0  0  0  0  0  0  0  0
   -2.0303    4.7127    0.9143 C   0  0  0  0  0  0  0  0  0  0  0  0
   -2.5715    4.4752    1.8361 H   0  0  0  0  0  0  0  0  0  0  0  0
   -1.0700    5.1600    1.1923 H   0  0  0  0  0  0  0  0  0  0  0  0
   -2.8377    5.7186    0.0983 C   0  0  0  0  0  0  0  0  0  0  0  0
   -2.2938    5.9848   -0.8149 H   0  0  0  0  0  0  0  0  0  0  0  0
   -3.7992    5.2818   -0.1933 H   0  0  0  0  0  0  0  0  0  0  0  0
   -3.0566    6.9137    0.9178 N   0  0  0  0  0  0  0  0  0  0  0  0
   -3.5859    7.6218    0.4085 H   0  0  0  0  0  0  0  0  0  0  0  0
   -3.5160    6.6785    1.7977 H   0  0  0  0  0  0  0  0  0  0  0  0
    0.4463    0.3530    0.8893 C   0  0  0  0  0  0  0  0  0  0  0  0
    0.2226   -0.3417    1.8738 O   0  0  0  0  0  0  0  0  0  0  0  0
    1.7322    0.8595    0.7841 N   0  0  0  0  0  0  0  0  0  0  0  0
    1.9202    1.5060    0.0247 H   0  0  0  0  0  0  0  0  0  0  0  0
    2.8492    0.3933    1.5989 C   0  0  0  0  0  0  0  0  0  0  0  0
    2.9649   -0.6919    1.5056 H   0  0  0  0  0  0  0  0  0  0  0  0
    3.7797    0.8686    1.2742 H   0  0  0  0  0  0  0  0  0  0  0  0
    2.6838    0.6407    2.6528 H   0  0  0  0  0  0  0  0  0  0  0  0
  1  2  1  0  0  0  0
  2  3  1  0  0  0  0
  2  4  1  0  0  0  0
  2  5  1  0  0  0  0
  5  6  2  0  0  0  0
  5  7  1  0  0  0  0
  7  8  1  0  0  0  0
  7  9  1  0  0  0  0
  9 10  1  0  0  0  0
  9 11  1  0  0  0  0
  9 26  1  0  0  0  0
 11 12  1  0  0  0  0
 11 13  1  0  0  0  0
 11 14  1  0  0  0  0
 14 15  1  0  0  0  0
 14 16  1  0  0  0  0
 14 17  1  0  0  0  0
 17 18  1  0  0  0  0
 17 19  1  0  0  0  0
 17 20  1  0  0  0  0
 20 21  1  0  0  0  0
 20 22  1  0  0  0  0
 20 23  1  0  0  0  0
 23 24  1  0  0  0  0
 23 25  1  0  0  0  0
 26 27  2  0  0  0  0
 26 28  1  0  0  0  0
 28 29  1  0  0  0  0
 28 30  1  0  0  0  0
 30 31  1  0  0  0  0
 30 32  1  0  0  0  0
 30 33  1  0  0  0  0
M  END
$$$$

  -OEChem-01062216083D

 33 32  0     1  0  0  0  0  0999 V2000
   -3.4863   -2.5637    1.0695 H   0  0  0  0  0  0  0  0  0  0  0  0
   -3.4421   -1.6385    0.4880 C   0  0  0  0  0  0  0  0  0  0  0  0
   -4.4308   -1.1739    0.4851 H   0  0  0  0  0  0  0  0  0  0  0  0
   -3.1540   -1.8843   -0.5368 H   0  0  0  0  0  0  0  0  0  0  0  0
   -2.4248   -0.6935    1.0977 C   0  0  0  0  0  0  0  0  0  0  0  0
   -2.0118   -0.8979    2.2282 O   0  0  0  0  0  0  0  0  0  0  0  0
   -2.1659    0.5246    0.4967 N   0  0  0  0  0  0  0  0  0  0  0  0
   -2.7112    0.6572   -0.3483 H   0  0  0  0  0  0  0  0  0  0  0  0
   -0.8271    1.1606    0.4587 C   0  0  1  0  0  0  0  0  0  0  0  0
   -0.6574    1.5351   -0.5551 H   0  0  0  0  0  0  0  0  0  0  0  0
   -0.8992    2.3581    1.4324 C   0  0  0  0  0  0  0  0  0  0  0  0
   -1.2400    2.0054    2.4126 H   0  0  0  0  0  0  0  0  0  0  0  0
    0.0945    2.7939    1.5704 H   0  0  0  0  0  0  0  0  0  0  0  0
   -1.8328    3.4663    0.9218 C   0  0  0  0  0  0  0  0  0  0  0  0
   -1.4905    3.8148   -0.0582 H   0  0  0  0  0  0  0  0  0  0  0  0
   -2.8489    3.0752    0.8072 H   0  0  0  0  0  0  0  0  0  0  0  0
   -1.8517    4.6401    1.9065 C   0  0  0  0  0  0  0  0  0  0  0  0
   -2.1785    4.2861    2.8898 H   0  0  0  0  0  0  0  0  0  0  0  0
   -0.8421    5.0501    2.0135 H   0  0  0  0  0  0  0  0  0  0  0  0
   -2.7934    5.7402    1.4275 C   0  0  0  0  0  0  0  0  0  0  0  0
   -2.4648    6.1216    0.4543 H   0  0  0  0  0  0  0  0  0  0  0  0
   -3.8078    5.3419    1.3127 H   0  0  0  0  0  0  0  0  0  0  0  0
   -2.7859    6.8197    2.4188 N   0  0  0  0  0  0  0  0  0  0  0  0
   -3.4160    7.5751    2.1486 H   0  0  0  0  0  0  0  0  0  0  0  0
   -3.0195    6.4662    3.3470 H   0  0  0  0  0  0  0  0  0  0  0  0
    0.4272    0.2948    0.7899 C   0  0  0  0  0  0  0  0  0  0  0  0
    0.4236   -0.9165    0.6063 O   0  0  0  0  0  0  0  0  0  0  0  0
    1.6779    0.8925    0.7595 N   0  0  0  0  0  0  0  0  0  0  0  0
    1.7116    1.9045    0.8275 H   0  0  0  0  0  0  0  0  0  0  0  0
    2.9313    0.1471    0.8183 C   0  0  0  0  0  0  0  0  0  0  0  0
    3.0477   -0.4787   -0.0728 H   0  0  0  0  0  0  0  0  0  0  0  0
    3.7798    0.8359    0.8689 H   0  0  0  0  0  0  0  0  0  0  0  0
    2.9537   -0.4947    1.7057 H   0  0  0  0  0  0  0  0  0  0  0  0
  1  2  1  0  0  0  0
  2  3  1  0  0  0  0
  2  4  1  0  0  0  0
  2  5  1  0  0  0  0
  5  6  2  0  0  0  0
  5  7  1  0  0  0  0
  7  8  1  0  0  0  0
  7  9  1  0  0  0  0
  9 10  1  0  0  0  0
  9 11  1  0  0  0  0
  9 26  1  0  0  0  0
 11 12  1  0  0  0  0
 11 13  1  0  0  0  0
 11 14  1  0  0  0  0
 14 15  1  0  0  0  0
 14 16  1  0  0  0  0
 14 17  1  0  0  0  0
 17 18  1  0  0  0  0
 17 19  1  0  0  0  0
 17 20  1  0  0  0  0
 20 21  1  0  0  0  0
 20 22  1  0  0  0  0
 20 23  1  0  0  0  0
 23 24  1  0  0  0  0
 23 25  1  0  0  0  0
 26 27  2  0  0  0  0
 26 28  1  0  0  0  0
 28 29  1  0  0  0  0
 28 30  1  0  0  0  0
 30 31  1  0  0  0  0
 30 32  1  0  0  0  0
 30 33  1  0  0  0  0
M  END
$$$$

  -OEChem-01062216083D

 33 32  0     1  0  0  0  0  0999 V2000
   -3.4686   -2.5489    1.0794 H   0  0  0  0  0  0  0  0  0  0  0  0
   -3.4348   -1.6186    0.5052 C   0  0  0  0  0  0  0  0  0  0  0  0
   -4.4174   -1.1431    0.5434 H   0  0  0  0  0  0  0  0  0  0  0  0
   -3.1896   -1.8571   -0.5323 H   0  0  0  0  0  0  0  0  0  0  0  0
   -2.3838   -0.6904    1.0836 C   0  0  0  0  0  0  0  0  0  0  0  0
   -1.8968   -0.9352    2.1763 O   0  0  0  0  0  0  0  0  0  0  0  0
   -2.1492    0.5394    0.4950 N   0  0  0  0  0  0  0  0  0  0  0  0
   -2.7148    0.6854   -0.3344 H   0  0  0  0  0  0  0  0  0  0  0  0
   -0.8180    1.1901    0.4502 C   0  0  1  0  0  0  0  0  0  0  0  0
   -0.6510    1.5707   -0.5618 H   0  0  0  0  0  0  0  0  0  0  0  0
   -0.8967    2.3866    1.4260 C   0  0  0  0  0  0  0  0  0  0  0  0
   -1.2250    2.0303    2.4094 H   0  0  0  0  0  0  0  0  0  0  0  0
    0.0905    2.8387    1.5524 H   0  0  0  0  0  0  0  0  0  0  0  0
   -1.8457    3.4839    0.9201 C   0  0  0  0  0  0  0  0  0  0  0  0
   -1.5134    3.8356   -0.0623 H   0  0  0  0  0  0  0  0  0  0  0  0
   -2.8580    3.0810    0.8123 H   0  0  0  0  0  0  0  0  0  0  0  0
   -1.8731    4.6585    1.9041 C   0  0  0  0  0  0  0  0  0  0  0  0
   -2.1900    4.3022    2.8898 H   0  0  0  0  0  0  0  0  0  0  0  0
   -0.8678    5.0810    2.0049 H   0  0  0  0  0  0  0  0  0  0  0  0
   -2.8306    5.7464    1.4276 C   0  0  0  0  0  0  0  0  0  0  0  0
   -2.5096    6.1295    0.4527 H   0  0  0  0  0  0  0  0  0  0  0  0
   -3.8403    5.3355    1.3172 H   0  0  0  0  0  0  0  0  0  0  0  0
   -2.8338    6.8292    2.4154 N   0  0  0  0  0  0  0  0  0  0  0  0
   -3.4703    7.5781    2.1416 H   0  0  0  0  0  0  0  0  0  0  0  0
   -3.0657    6.4768    3.3445 H   0  0  0  0  0  0  0  0  0  0  0  0
    0.4225    0.2977    0.7623 C   0  0  0  0  0  0  0  0  0  0  0  0
    0.4542   -0.8525    0.3380 O   0  0  0  0  0  0  0  0  0  0  0  0
    1.6520    0.8694    1.0506 N   0  0  0  0  0  0  0  0  0  0  0  0
    1.6520    1.8334    1.3668 H   0  0  0  0  0  0  0  0  0  0  0  0
    2.8852    0.0988    1.1692 C   0  0  0  0  0  0  0  0  0  0  0  0
    3.1498   -0.3524    0.2072 H   0  0  0  0  0  0  0  0  0  0  0  0
    3.7081    0.7476    1.4840 H   0  0  0  0  0  0  0  0  0  0  0  0
    2.7692   -0.6980    1.9118 H   0  0  0  0  0  0  0  0  0  0  0  0
  1  2  1  0  0  0  0
  2  3  1  0  0  0  0
  2  4  1  0  0  0  0
  2  5  1  0  0  0  0
  5  6  2  0  0  0  0
  5  7  1  0  0  0  0
  7  8  1  0  0  0  0
  7  9  1  0  0  0  0
  9 10  1  0  0  0  0
  9 11  1  0  0  0  0
  9 26  1  0  0  0  0
 11 12  1  0  0  0  0
 11 13  1  0  0  0  0
 11 14  1  0  0  0  0
 14 15  1  0  0  0  0
 14 16  1  0  0  0  0
 14 17  1  0  0  0  0
 17 18  1  0  0  0  0
 17 19  1  0  0  0  0
 17 20  1  0  0  0  0
 20 21  1  0  0  0  0
 20 22  1  0  0  0  0
 20 23  1  0  0  0  0
 23 24  1  0  0  0  0
 23 25  1  0  0  0  0
 26 27  2  0  0  0  0
 26 28  1  0  0  0  0
 28 29  1  0  0  0  0
 28 30  1  0  0  0  0
 30 31  1  0  0  0  0
 30 32  1  0  0  0  0
 30 33  1  0  0  0  0
M  END
$$$$

  -OEChem-01062216083D

 33 32  0     1  0  0  0  0  0999 V2000
   -3.4240   -2.5645    1.0350 H   0  0  0  0  0  0  0  0  0  0  0  0
   -3.4349   -1.6031    0.5140 C   0  0  0  0  0  0  0  0  0  0  0  0
   -4.4148   -1.1389    0.6466 H   0  0  0  0  0  0  0  0  0  0  0  0
   -3.2607   -1.7805   -0.5500 H   0  0  0  0  0  0  0  0  0  0  0  0
   -2.3517   -0.6991    1.0705 C   0  0  0  0  0  0  0  0  0  0  0  0
   -1.8050   -0.9884    2.1235 O   0  0  0  0  0  0  0  0  0  0  0  0
   -2.1351    0.5426    0.4998 N   0  0  0  0  0  0  0  0  0  0  0  0
   -2.7237    0.7104   -0.3095 H   0  0  0  0  0  0  0  0  0  0  0  0
   -0.8136    1.2102    0.4521 C   0  0  1  0  0  0  0  0  0  0  0  0
   -0.6536    1.5934   -0.5601 H   0  0  0  0  0  0  0  0  0  0  0  0
   -0.8930    2.4080    1.4255 C   0  0  0  0  0  0  0  0  0  0  0  0
   -1.2086    2.0533    2.4134 H   0  0  0  0  0  0  0  0  0  0  0  0
    0.0925    2.8695    1.5352 H   0  0  0  0  0  0  0  0  0  0  0  0
   -1.8545    3.4954    0.9213 C   0  0  0  0  0  0  0  0  0  0  0  0
   -1.5324    3.8446   -0.0653 H   0  0  0  0  0  0  0  0  0  0  0  0
   -2.8638    3.0831    0.8221 H   0  0  0  0  0  0  0  0  0  0  0  0
   -1.8870    4.6752    1.8985 C   0  0  0  0  0  0  0  0  0  0  0  0
   -2.1953    4.3218    2.8878 H   0  0  0  0  0  0  0  0  0  0  0  0
   -0.8851    5.1073    1.9909 H   0  0  0  0  0  0  0  0  0  0  0  0
   -2.8573    5.7519    1.4214 C   0  0  0  0  0  0  0  0  0  0  0  0
   -2.5455    6.1326    0.4424 H   0  0  0  0  0  0  0  0  0  0  0  0
   -3.8640    5.3316    1.3186 H   0  0  0  0  0  0  0  0  0  0  0  0
   -2.8647    6.8405    2.4028 N   0  0  0  0  0  0  0  0  0  0  0  0
   -3.5004    7.5877    2.1227 H   0  0  0  0  0  0  0  0  0  0  0  0
   -3.0984    6.4939    3.3334 H   0  0  0  0  0  0  0  0  0  0  0  0
    0.4211    0.3052    0.7431 C   0  0  0  0  0  0  0  0  0  0  0  0
    0.5168   -0.7570    0.1372 O   0  0  0  0  0  0  0  0  0  0  0  0
    1.5756    0.8019    1.3270 N   0  0  0  0  0  0  0  0  0  0  0  0
    1.4874    1.6641    1.8549 H   0  0  0  0  0  0  0  0  0  0  0  0
    2.7827    0.0025    1.5027 C   0  0  0  0  0  0  0  0  0  0  0  0
    3.1867   -0.3016    0.5313 H   0  0  0  0  0  0  0  0  0  0  0  0
    3.5477    0.5826    2.0273 H   0  0  0  0  0  0  0  0  0  0  0  0
    2.5640   -0.8955    2.0901 H   0  0  0  0  0  0  0  0  0  0  0  0
  1  2  1  0  0  0  0
  2  3  1  0  0  0  0
  2  4  1  0  0  0  0
  2  5  1  0  0  0  0
  5  6  2  0  0  0  0
  5  7  1  0  0  0  0
  7  8  1  0  0  0  0
  7  9  1  0  0  0  0
  9 10  1  0  0  0  0
  9 11  1  0  0  0  0
  9 26  1  0  0  0  0
 11 12  1  0  0  0  0
 11 13  1  0  0  0  0
 11 14  1  0  0  0  0
 14 15  1  0  0  0  0
 14 16  1  0  0  0  0
 14 17  1  0  0  0  0
 17 18  1  0  0  0  0
 17 19  1  0  0  0  0
 17 20  1  0  0  0  0
 20 21  1  0  0  0  0
 20 22  1  0  0  0  0
 20 23  1  0  0  0  0
 23 24  1  0  0  0  0
 23 25  1  0  0  0  0
 26 27  2  0  0  0  0
 26 28  1  0  0  0  0
 28 29  1  0  0  0  0
 28 30  1  0  0  0  0
 30 31  1  0  0  0  0
 30 32  1  0  0  0  0
 30 33  1  0  0  0  0
M  END
$$$$

  -OEChem-01062216083D

 33 32  0     1  0  0  0  0  0999 V2000
   -3.4213   -2.5636    1.0370 H   0  0  0  0  0  0  0  0  0  0  0  0
   -3.4357   -1.5999    0.5200 C   0  0  0  0  0  0  0  0  0  0  0  0
   -4.4075   -1.1273    0.6796 H   0  0  0  0  0  0  0  0  0  0  0  0
   -3.2916   -1.7750   -0.5489 H   0  0  0  0  0  0  0  0  0  0  0  0
   -2.3299   -0.7086    1.0528 C   0  0  0  0  0  0  0  0  0  0  0  0
   -1.7411   -1.0252    2.0747 O   0  0  0  0  0  0  0  0  0  0  0  0
   -2.1279    0.5403    0.4919 N   0  0  0  0  0  0  0  0  0  0  0  0
   -2.7320    0.7204   -0.3035 H   0  0  0  0  0  0  0  0  0  0  0  0
   -0.8153    1.2240    0.4436 C   0  0  1  0  0  0  0  0  0  0  0  0
   -0.6615    1.6105   -0.5686 H   0  0  0  0  0  0  0  0  0  0  0  0
   -0.8918    2.4216    1.4155 C   0  0  0  0  0  0  0  0  0  0  0  0
   -1.1969    2.0688    2.4072 H   0  0  0  0  0  0  0  0  0  0  0  0
    0.0952    2.8844    1.5113 H   0  0  0  0  0  0  0  0  0  0  0  0
   -1.8613    3.5035    0.9174 C   0  0  0  0  0  0  0  0  0  0  0  0
   -1.5472    3.8530   -0.0718 H   0  0  0  0  0  0  0  0  0  0  0  0
   -2.8691    3.0860    0.8256 H   0  0  0  0  0  0  0  0  0  0  0  0
   -1.8905    4.6840    1.8941 C   0  0  0  0  0  0  0  0  0  0  0  0
   -2.1890    4.3302    2.8864 H   0  0  0  0  0  0  0  0  0  0  0  0
   -0.8893    5.1197    1.9775 H   0  0  0  0  0  0  0  0  0  0  0  0
   -2.8688    5.7560    1.4235 C   0  0  0  0  0  0  0  0  0  0  0  0
   -2.5660    6.1361    0.4416 H   0  0  0  0  0  0  0  0  0  0  0  0
   -3.8746    5.3315    1.3288 H   0  0  0  0  0  0  0  0  0  0  0  0
   -2.8733    6.8458    2.4034 N   0  0  0  0  0  0  0  0  0  0  0  0
   -3.5127    7.5906    2.1261 H   0  0  0  0  0  0  0  0  0  0  0  0
   -3.1006    6.5003    3.3358 H   0  0  0  0  0  0  0  0  0  0  0  0
    0.4199    0.3200    0.7244 C   0  0  0  0  0  0  0  0  0  0  0  0
    0.6032   -0.6421   -0.0133 O   0  0  0  0  0  0  0  0  0  0  0  0
    1.4517    0.7020    1.5658 N   0  0  0  0  0  0  0  0  0  0  0  0
    1.2422    1.4389    2.2316 H   0  0  0  0  0  0  0  0  0  0  0  0
    2.6206   -0.1351    1.8075 C   0  0  0  0  0  0  0  0  0  0  0  0
    3.1766   -0.2956    0.8778 H   0  0  0  0  0  0  0  0  0  0  0  0
    3.2879    0.3464    2.5286 H   0  0  0  0  0  0  0  0  0  0  0  0
    2.3180   -1.1077    2.2104 H   0  0  0  0  0  0  0  0  0  0  0  0
  1  2  1  0  0  0  0
  2  3  1  0  0  0  0
  2  4  1  0  0  0  0
  2  5  1  0  0  0  0
  5  6  2  0  0  0  0
  5  7  1  0  0  0  0
  7  8  1  0  0  0  0
  7  9  1  0  0  0  0
  9 10  1  0  0  0  0
  9 11  1  0  0  0  0
  9 26  1  0  0  0  0
 11 12  1  0  0  0  0
 11 13  1  0  0  0  0
 11 14  1  0  0  0  0
 14 15  1  0  0  0  0
 14 16  1  0  0  0  0
 14 17  1  0  0  0  0
 17 18  1  0  0  0  0
 17 19  1  0  0  0  0
 17 20  1  0  0  0  0
 20 21  1  0  0  0  0
 20 22  1  0  0  0  0
 20 23  1  0  0  0  0
 23 24  1  0  0  0  0
 23 25  1  0  0  0  0
 26 27  2  0  0  0  0
 26 28  1  0  0  0  0
 28 29  1  0  0  0  0
 28 30  1  0  0  0  0
 30 31  1  0  0  0  0
 30 32  1  0  0  0  0
 30 33  1  0  0  0  0
M  END
$$$$

  -OEChem-01062216083D

 33 32  0     1  0  0  0  0  0999 V2000
   -3.4481   -2.5547    1.0259 H   0  0  0  0  0  0  0  0  0  0  0  0
   -3.4605   -1.5826    0.5247 C   0  0  0  0  0  0  0  0  0  0  0  0
   -4.4159   -1.0928    0.7271 H   0  0  0  0  0  0  0  0  0  0  0  0
   -3.3594   -1.7433   -0.5514 H   0  0  0  0  0  0  0  0  0  0  0  0
   -2.3172   -0.7223    1.0291 C   0  0  0  0  0  0  0  0  0  0  0  0
   -1.6868   -1.0777    2.0122 O   0  0  0  0  0  0  0  0  0  0  0  0
   -2.1143    0.5306    0.4775 N   0  0  0  0  0  0  0  0  0  0  0  0
   -2.7381    0.7355   -0.2963 H   0  0  0  0  0  0  0  0  0  0  0  0
   -0.8090    1.2271    0.4349 C   0  0  1  0  0  0  0  0  0  0  0  0
   -0.6572    1.6155   -0.5771 H   0  0  0  0  0  0  0  0  0  0  0  0
   -0.8876    2.4233    1.4064 C   0  0  0  0  0  0  0  0  0  0  0  0
   -1.1910    2.0702    2.3983 H   0  0  0  0  0  0  0  0  0  0  0  0
    0.1018    2.8838    1.4996 H   0  0  0  0  0  0  0  0  0  0  0  0
   -1.8615    3.5025    0.9118 C   0  0  0  0  0  0  0  0  0  0  0  0
   -1.5500    3.8547   -0.0775 H   0  0  0  0  0  0  0  0  0  0  0  0
   -2.8682    3.0823    0.8218 H   0  0  0  0  0  0  0  0  0  0  0  0
   -1.8916    4.6817    1.8897 C   0  0  0  0  0  0  0  0  0  0  0  0
   -2.1853    4.3267    2.8829 H   0  0  0  0  0  0  0  0  0  0  0  0
   -0.8918    5.1208    1.9700 H   0  0  0  0  0  0  0  0  0  0  0  0
   -2.8742    5.7515    1.4233 C   0  0  0  0  0  0  0  0  0  0  0  0
   -2.5750    6.1344    0.4413 H   0  0  0  0  0  0  0  0  0  0  0  0
   -3.8790    5.3244    1.3311 H   0  0  0  0  0  0  0  0  0  0  0  0
   -2.8776    6.8389    2.4060 N   0  0  0  0  0  0  0  0  0  0  0  0
   -3.5131    7.5872    2.1289 H   0  0  0  0  0  0  0  0  0  0  0  0
   -3.1081    6.4917    3.3372 H   0  0  0  0  0  0  0  0  0  0  0  0
    0.4320    0.3344    0.7149 C   0  0  0  0  0  0  0  0  0  0  0  0
    0.7355   -0.5021   -0.1279 O   0  0  0  0  0  0  0  0  0  0  0  0
    1.3000    0.5677    1.7682 N   0  0  0  0  0  0  0  0  0  0  0  0
    0.9375    1.1445    2.5209 H   0  0  0  0  0  0  0  0  0  0  0  0
    2.4275   -0.3090    2.0586 C   0  0  0  0  0  0  0  0  0  0  0  0
    3.1227   -0.3335    1.2131 H   0  0  0  0  0  0  0  0  0  0  0  0
    2.9689    0.0509    2.9387 H   0  0  0  0  0  0  0  0  0  0  0  0
    2.0780   -1.3276    2.2577 H   0  0  0  0  0  0  0  0  0  0  0  0
  1  2  1  0  0  0  0
  2  3  1  0  0  0  0
  2  4  1  0  0  0  0
  2  5  1  0  0  0  0
  5  6  2  0  0  0  0
  5  7  1  0  0  0  0
  7  8  1  0  0  0  0
  7  9  1  0  0  0  0
  9 10  1  0  0  0  0
  9 11  1  0  0  0  0
  9 26  1  0  0  0  0
 11 12  1  0  0  0  0
 11 13  1  0  0  0  0
 11 14  1  0  0  0  0
 14 15  1  0  0  0  0
 14 16  1  0  0  0  0
 14 17  1  0  0  0  0
 17 18  1  0  0  0  0
 17 19  1  0  0  0  0
 17 20  1  0  0  0  0
 20 21  1  0  0  0  0
 20 22  1  0  0  0  0
 20 23  1  0  0  0  0
 23 24  1  0  0  0  0
 23 25  1  0  0  0  0
 26 27  2  0  0  0  0
 26 28  1  0  0  0  0
 28 29  1  0  0  0  0
 28 30  1  0  0  0  0
 30 31  1  0  0  0  0
 30 32  1  0  0  0  0
 30 33  1  0  0  0  0
M  END
$$$$

  -OEChem-01062216083D

 33 32  0     1  0  0  0  0  0999 V2000
   -3.5011   -2.5378    1.0187 H   0  0  0  0  0  0  0  0  0  0  0  0
   -3.5024   -1.5603    0.5280 C   0  0  0  0  0  0  0  0  0  0  0  0
   -4.4373   -1.0473    0.7651 H   0  0  0  0  0  0  0  0  0  0  0  0
   -3.4395   -1.7121   -0.5522 H   0  0  0  0  0  0  0  0  0  0  0  0
   -2.3221   -0.7353    1.0055 C   0  0  0  0  0  0  0  0  0  0  0  0
   -1.6646   -1.1263    1.9565 O   0  0  0  0  0  0  0  0  0  0  0  0
   -2.1062    0.5179    0.4600 N   0  0  0  0  0  0  0  0  0  0  0  0
   -2.7448    0.7507   -0.2939 H   0  0  0  0  0  0  0  0  0  0  0  0
   -0.8036    1.2195    0.4288 C   0  0  1  0  0  0  0  0  0  0  0  0
   -0.6501    1.6109   -0.5821 H   0  0  0  0  0  0  0  0  0  0  0  0
   -0.8860    2.4132    1.4017 C   0  0  0  0  0  0  0  0  0  0  0  0
   -1.1976    2.0591    2.3906 H   0  0  0  0  0  0  0  0  0  0  0  0
    0.1062    2.8659    1.5035 H   0  0  0  0  0  0  0  0  0  0  0  0
   -1.8568    3.4949    0.9070 C   0  0  0  0  0  0  0  0  0  0  0  0
   -1.5408    3.8504   -0.0797 H   0  0  0  0  0  0  0  0  0  0  0  0
   -2.8639    3.0763    0.8111 H   0  0  0  0  0  0  0  0  0  0  0  0
   -1.8887    4.6706    1.8890 C   0  0  0  0  0  0  0  0  0  0  0  0
   -2.1869    4.3127    2.8798 H   0  0  0  0  0  0  0  0  0  0  0  0
   -0.8886    5.1079    1.9750 H   0  0  0  0  0  0  0  0  0  0  0  0
   -2.8683    5.7426    1.4219 C   0  0  0  0  0  0  0  0  0  0  0  0
   -2.5642    6.1280    0.4422 H   0  0  0  0  0  0  0  0  0  0  0  0
   -3.8730    5.3167    1.3240 H   0  0  0  0  0  0  0  0  0  0  0  0
   -2.8752    6.8278    2.4073 N   0  0  0  0  0  0  0  0  0  0  0  0
   -3.5087    7.5775    2.1293 H   0  0  0  0  0  0  0  0  0  0  0  0
   -3.1096    6.4790    3.3368 H   0  0  0  0  0  0  0  0  0  0  0  0
    0.4454    0.3440    0.7175 C   0  0  0  0  0  0  0  0  0  0  0  0
    0.9013   -0.3279   -0.2000 O   0  0  0  0  0  0  0  0  0  0  0  0
    1.1224    0.3935    1.9240 N   0  0  0  0  0  0  0  0  0  0  0  0
    0.5893    0.7695    2.7027 H   0  0  0  0  0  0  0  0  0  0  0  0
    2.2265   -0.5072    2.2294 C   0  0  0  0  0  0  0  0  0  0  0  0
    3.0405   -0.3761    1.5088 H   0  0  0  0  0  0  0  0  0  0  0  0
    2.6166   -0.2993    3.2301 H   0  0  0  0  0  0  0  0  0  0  0  0
    1.8898   -1.5488    2.1960 H   0  0  0  0  0  0  0  0  0  0  0  0
  1  2  1  0  0  0  0
  2  3  1  0  0  0  0
  2  4  1  0  0  0  0
  2  5  1  0  0  0  0
  5  6  2  0  0  0  0
  5  7  1  0  0  0  0
  7  8  1  0  0  0  0
  7  9  1  0  0  0  0
  9 10  1  0  0  0  0
  9 11  1  0  0  0  0
  9 26  1  0  0  0  0
 11 12  1  0  0  0  0
 11 13  1  0  0  0  0
 11 14  1  0  0  0  0
 14 15  1  0  0  0  0
 14 16  1  0  0  0  0
 14 17  1  0  0  0  0
 17 18  1  0  0  0  0
 17 19  1  0  0  0  0
 17 20  1  0  0  0  0
 20 21  1  0  0  0  0
 20 22  1  0  0  0  0
 20 23  1  0  0  0  0
 23 24  1  0  0  0  0
 23 25  1  0  0  0  0
 26 27  2  0  0  0  0
 26 28  1  0  0  0  0
 28 29  1  0  0  0  0
 28 30  1  0  0  0  0
 30 31  1  0  0  0  0
 30 32  1  0  0  0  0
 30 33  1  0  0  0  0
M  END
$$$$

  -OEChem-01062216083D

 33 32  0     1  0  0  0  0  0999 V2000
   -3.6047   -2.5019    1.0015 H   0  0  0  0  0  0  0  0  0  0  0  0
   -3.5818   -1.5179    0.5246 C   0  0  0  0  0  0  0  0  0  0  0  0
   -4.4912   -0.9744    0.7924 H   0  0  0  0  0  0  0  0  0  0  0  0
   -3.5513   -1.6558   -0.5590 H   0  0  0  0  0  0  0  0  0  0  0  0
   -2.3610   -0.7438    0.9841 C   0  0  0  0  0  0  0  0  0  0  0  0
   -1.6998   -1.1703    1.9163 O   0  0  0  0  0  0  0  0  0  0  0  0
   -2.1090    0.5033    0.4418 N   0  0  0  0  0  0  0  0  0  0  0  0
   -2.7520    0.7674   -0.2984 H   0  0  0  0  0  0  0  0  0  0  0  0
   -0.8016    1.1969    0.4257 C   0  0  1  0  0  0  0  0  0  0  0  0
   -0.6405    1.5906   -0.5833 H   0  0  0  0  0  0  0  0  0  0  0  0
   -0.8878    2.3861    1.4025 C   0  0  0  0  0  0  0  0  0  0  0  0
   -1.2128    2.0303    2.3866 H   0  0  0  0  0  0  0  0  0  0  0  0
    0.1078    2.8282    1.5194 H   0  0  0  0  0  0  0  0  0  0  0  0
   -1.8475    3.4750    0.9025 C   0  0  0  0  0  0  0  0  0  0  0  0
   -1.5186    3.8328   -0.0789 H   0  0  0  0  0  0  0  0  0  0  0  0
   -2.8554    3.0625    0.7932 H   0  0  0  0  0  0  0  0  0  0  0  0
   -1.8839    4.6466    1.8889 C   0  0  0  0  0  0  0  0  0  0  0  0
   -2.1947    4.2860    2.8750 H   0  0  0  0  0  0  0  0  0  0  0  0
   -0.8821    5.0776    1.9874 H   0  0  0  0  0  0  0  0  0  0  0  0
   -2.8530    5.7258    1.4162 C   0  0  0  0  0  0  0  0  0  0  0  0
   -2.5371    6.1138    0.4414 H   0  0  0  0  0  0  0  0  0  0  0  0
   -3.8589    5.3057    1.3062 H   0  0  0  0  0  0  0  0  0  0  0  0
   -2.8645    6.8063    2.4063 N   0  0  0  0  0  0  0  0  0  0  0  0
   -3.5019    7.5540    2.1321 H   0  0  0  0  0  0  0  0  0  0  0  0
   -3.0962    6.4522    3.3343 H   0  0  0  0  0  0  0  0  0  0  0  0
    0.4541    0.3385    0.7335 C   0  0  0  0  0  0  0  0  0  0  0  0
    1.0913   -0.1139   -0.2097 O   0  0  0  0  0  0  0  0  0  0  0  0
    0.9332    0.1725    2.0210 N   0  0  0  0  0  0  0  0  0  0  0  0
    0.2290    0.2907    2.7455 H   0  0  0  0  0  0  0  0  0  0  0  0
    2.0598   -0.7030    2.3170 C   0  0  0  0  0  0  0  0  0  0  0  0
    2.9531   -0.3766    1.7739 H   0  0  0  0  0  0  0  0  0  0  0  0
    2.2823   -0.6825    3.3879 H   0  0  0  0  0  0  0  0  0  0  0  0
    1.8285   -1.7339    2.0292 H   0  0  0  0  0  0  0  0  0  0  0  0
  1  2  1  0  0  0  0
  2  3  1  0  0  0  0
  2  4  1  0  0  0  0
  2  5  1  0  0  0  0
  5  6  2  0  0  0  0
  5  7  1  0  0  0  0
  7  8  1  0  0  0  0
  7  9  1  0  0  0  0
  9 10  1  0  0  0  0
  9 11  1  0  0  0  0
  9 26  1  0  0  0  0
 11 12  1  0  0  0  0
 11 13  1  0  0  0  0
 11 14  1  0  0  0  0
 14 15  1  0  0  0  0
 14 16  1  0  0  0  0
 14 17  1  0  0  0  0
 17 18  1  0  0  0  0
 17 19  1  0  0  0  0
 17 20  1  0  0  0  0
 20 21  1  0  0  0  0
 20 22  1  0  0  0  0
 20 23  1  0  0  0  0
 23 24  1  0  0  0  0
 23 25  1  0  0  0  0
 26 27  2  0  0  0  0
 26 28  1  0  0  0  0
 28 29  1  0  0  0  0
 28 30  1  0  0  0  0
 30 31  1  0  0  0  0
 30 32  1  0  0  0  0
 30 33  1  0  0  0  0
M  END
$$$$

  -OEChem-01062216083D

 33 32  0     1  0  0  0  0  0999 V2000
   -3.7692   -2.4526    0.9685 H   0  0  0  0  0  0  0  0  0  0  0  0
   -3.7012   -1.4628    0.5082 C   0  0  0  0  0  0  0  0  0  0  0  0
   -4.5727   -0.8749    0.8063 H   0  0  0  0  0  0  0  0  0  0  0  0
   -3.7029   -1.5821   -0.5780 H   0  0  0  0  0  0  0  0  0  0  0  0
   -2.4283   -0.7667    0.9526 C   0  0  0  0  0  0  0  0  0  0  0  0
   -1.7659   -1.2582    1.8501 O   0  0  0  0  0  0  0  0  0  0  0  0
   -2.1222    0.4739    0.4237 N   0  0  0  0  0  0  0  0  0  0  0  0
   -2.7813    0.7980   -0.2774 H   0  0  0  0  0  0  0  0  0  0  0  0
   -0.8078    1.1581    0.4247 C   0  0  1  0  0  0  0  0  0  0  0  0
   -0.6425    1.5541   -0.5828 H   0  0  0  0  0  0  0  0  0  0  0  0
   -0.8947    2.3441    1.4043 C   0  0  0  0  0  0  0  0  0  0  0  0
   -1.2307    1.9867    2.3838 H   0  0  0  0  0  0  0  0  0  0  0  0
    0.1039    2.7764    1.5341 H   0  0  0  0  0  0  0  0  0  0  0  0
   -1.8400    3.4443    0.8995 C   0  0  0  0  0  0  0  0  0  0  0  0
   -1.4981    3.8036   -0.0769 H   0  0  0  0  0  0  0  0  0  0  0  0
   -2.8507    3.0417    0.7781 H   0  0  0  0  0  0  0  0  0  0  0  0
   -1.8763    4.6125    1.8908 C   0  0  0  0  0  0  0  0  0  0  0  0
   -2.1999    4.2504    2.8721 H   0  0  0  0  0  0  0  0  0  0  0  0
   -0.8715    5.0338    2.0009 H   0  0  0  0  0  0  0  0  0  0  0  0
   -2.8309    5.7032    1.4138 C   0  0  0  0  0  0  0  0  0  0  0  0
   -2.5016    6.0927    0.4438 H   0  0  0  0  0  0  0  0  0  0  0  0
   -3.8395    5.2931    1.2918 H   0  0  0  0  0  0  0  0  0  0  0  0
   -2.8433    6.7801    2.4081 N   0  0  0  0  0  0  0  0  0  0  0  0
   -3.4687    7.5363    2.1293 H   0  0  0  0  0  0  0  0  0  0  0  0
   -3.0892    6.4254    3.3323 H   0  0  0  0  0  0  0  0  0  0  0  0
    0.4634    0.3273    0.7467 C   0  0  0  0  0  0  0  0  0  0  0  0
    1.2798    0.1452   -0.1481 O   0  0  0  0  0  0  0  0  0  0  0  0
    0.7686   -0.0780    2.0328 N   0  0  0  0  0  0  0  0  0  0  0  0
   -0.0560   -0.2178    2.6172 H   0  0  0  0  0  0  0  0  0  0  0  0
    1.9410   -0.8903    2.3316 C   0  0  0  0  0  0  0  0  0  0  0  0
    2.8559   -0.3734    2.0236 H   0  0  0  0  0  0  0  0  0  0  0  0
    2.0011   -1.0827    3.4070 H   0  0  0  0  0  0  0  0  0  0  0  0
    1.8845   -1.8505    1.8083 H   0  0  0  0  0  0  0  0  0  0  0  0
  1  2  1  0  0  0  0
  2  3  1  0  0  0  0
  2  4  1  0  0  0  0
  2  5  1  0  0  0  0
  5  6  2  0  0  0  0
  5  7  1  0  0  0  0
  7  8  1  0  0  0  0
  7  9  1  0  0  0  0
  9 10  1  0  0  0  0
  9 11  1  0  0  0  0
  9 26  1  0  0  0  0
 11 12  1  0  0  0  0
 11 13  1  0  0  0  0
 11 14  1  0  0  0  0
 14 15  1  0  0  0  0
 14 16  1  0  0  0  0
 14 17  1  0  0  0  0
 17 18  1  0  0  0  0
 17 19  1  0  0  0  0
 17 20  1  0  0  0  0
 20 21  1  0  0  0  0
 20 22  1  0  0  0  0
 20 23  1  0  0  0  0
 23 24  1  0  0  0  0
 23 25  1  0  0  0  0
 26 27  2  0  0  0  0
 26 28  1  0  0  0  0
 28 29  1  0  0  0  0
 28 30  1  0  0  0  0
 30 31  1  0  0  0  0
 30 32  1  0  0  0  0
 30 33  1  0  0  0  0
M  END
$$$$

  -OEChem-01062216083D

 33 32  0     1  0  0  0  0  0999 V2000
   -3.9670   -2.3618    0.9424 H   0  0  0  0  0  0  0  0  0  0  0  0
   -3.8369   -1.3704    0.4986 C   0  0  0  0  0  0  0  0  0  0  0  0
   -4.6517   -0.7244    0.8350 H   0  0  0  0  0  0  0  0  0  0  0  0
   -3.8809   -1.4661   -0.5890 H   0  0  0  0  0  0  0  0  0  0  0  0
   -2.5015   -0.7821    0.9148 C   0  0  0  0  0  0  0  0  0  0  0  0
   -1.8448   -1.3611    1.7611 O   0  0  0  0  0  0  0  0  0  0  0  0
   -2.1288    0.4471    0.4017 N   0  0  0  0  0  0  0  0  0  0  0  0
   -2.8005    0.8368   -0.2528 H   0  0  0  0  0  0  0  0  0  0  0  0
   -0.8054    1.1188    0.4207 C   0  0  1  0  0  0  0  0  0  0  0  0
   -0.6333    1.5163   -0.5852 H   0  0  0  0  0  0  0  0  0  0  0  0
   -0.9034    2.3008    1.4042 C   0  0  0  0  0  0  0  0  0  0  0  0
   -1.2534    1.9388    2.3772 H   0  0  0  0  0  0  0  0  0  0  0  0
    0.0946    2.7297    1.5513 H   0  0  0  0  0  0  0  0  0  0  0  0
   -1.8345    3.4096    0.8918 C   0  0  0  0  0  0  0  0  0  0  0  0
   -1.4749    3.7728   -0.0766 H   0  0  0  0  0  0  0  0  0  0  0  0
   -2.8456    3.0144    0.7523 H   0  0  0  0  0  0  0  0  0  0  0  0
   -1.8792    4.5711    1.8906 C   0  0  0  0  0  0  0  0  0  0  0  0
   -2.2198    4.2039    2.8642 H   0  0  0  0  0  0  0  0  0  0  0  0
   -0.8735    4.9858    2.0191 H   0  0  0  0  0  0  0  0  0  0  0  0
   -2.8199    5.6712    1.4070 C   0  0  0  0  0  0  0  0  0  0  0  0
   -2.4738    6.0651    0.4448 H   0  0  0  0  0  0  0  0  0  0  0  0
   -3.8290    5.2682    1.2669 H   0  0  0  0  0  0  0  0  0  0  0  0
   -2.8409    6.7409    2.4090 N   0  0  0  0  0  0  0  0  0  0  0  0
   -3.4603    7.5011    2.1280 H   0  0  0  0  0  0  0  0  0  0  0  0
   -3.0993    6.3799    3.3274 H   0  0  0  0  0  0  0  0  0  0  0  0
    0.4850    0.3232    0.7603 C   0  0  0  0  0  0  0  0  0  0  0  0
    1.4217    0.3868   -0.0262 O   0  0  0  0  0  0  0  0  0  0  0  0
    0.6734   -0.3287    1.9636 N   0  0  0  0  0  0  0  0  0  0  0  0
   -0.1964   -0.6078    2.4224 H   0  0  0  0  0  0  0  0  0  0  0  0
    1.8680   -1.1105    2.2546 C   0  0  0  0  0  0  0  0  0  0  0  0
    2.7631   -0.4827    2.1921 H   0  0  0  0  0  0  0  0  0  0  0  0
    1.8089   -1.5240    3.2659 H   0  0  0  0  0  0  0  0  0  0  0  0
    1.9663   -1.9384    1.5449 H   0  0  0  0  0  0  0  0  0  0  0  0
  1  2  1  0  0  0  0
  2  3  1  0  0  0  0
  2  4  1  0  0  0  0
  2  5  1  0  0  0  0
  5  6  2  0  0  0  0
  5  7  1  0  0  0  0
  7  8  1  0  0  0  0
  7  9  1  0  0  0  0
  9 10  1  0  0  0  0
  9 11  1  0  0  0  0
  9 26  1  0  0  0  0
 11 12  1  0  0  0  0
 11 13  1  0  0  0  0
 11 14  1  0  0  0  0
 14 15  1  0  0  0  0
 14 16  1  0  0  0  0
 14 17  1  0  0  0  0
 17 18  1  0  0  0  0
 17 19  1  0  0  0  0
 17 20  1  0  0  0  0
 20 21  1  0  0  0  0
 20 22  1  0  0  0  0
 20 23  1  0  0  0  0
 23 24  1  0  0  0  0
 23 25  1  0  0  0  0
 26 27  2  0  0  0  0
 26 28  1  0  0  0  0
 28 29  1  0  0  0  0
 28 30  1  0  0  0  0
 30 31  1  0  0  0  0
 30 32  1  0  0  0  0
 30 33  1  0  0  0  0
M  END
$$$$

  -OEChem-01062216083D

 33 32  0     1  0  0  0  0  0999 V2000
   -4.1474   -2.2707    0.9172 H   0  0  0  0  0  0  0  0  0  0  0  0
   -3.9613   -1.2804    0.4915 C   0  0  0  0  0  0  0  0  0  0  0  0
   -4.7209   -0.5892    0.8645 H   0  0  0  0  0  0  0  0  0  0  0  0
   -4.0411   -1.3480   -0.5962 H   0  0  0  0  0  0  0  0  0  0  0  0
   -2.5784   -0.7929    0.8834 C   0  0  0  0  0  0  0  0  0  0  0  0
   -1.9328   -1.4551    1.6742 O   0  0  0  0  0  0  0  0  0  0  0  0
   -2.1483    0.4271    0.3929 N   0  0  0  0  0  0  0  0  0  0  0  0
   -2.8260    0.8776   -0.2145 H   0  0  0  0  0  0  0  0  0  0  0  0
   -0.8136    1.0807    0.4278 C   0  0  1  0  0  0  0  0  0  0  0  0
   -0.6369    1.4808   -0.5764 H   0  0  0  0  0  0  0  0  0  0  0  0
   -0.9188    2.2606    1.4138 C   0  0  0  0  0  0  0  0  0  0  0  0
   -1.2858    1.8971    2.3799 H   0  0  0  0  0  0  0  0  0  0  0  0
    0.0788    2.6832    1.5798 H   0  0  0  0  0  0  0  0  0  0  0  0
   -1.8325    3.3791    0.8895 C   0  0  0  0  0  0  0  0  0  0  0  0
   -1.4528    3.7428   -0.0714 H   0  0  0  0  0  0  0  0  0  0  0  0
   -2.8443    2.9929    0.7316 H   0  0  0  0  0  0  0  0  0  0  0  0
   -1.8854    4.5382    1.8908 C   0  0  0  0  0  0  0  0  0  0  0  0
   -2.2452    4.1710    2.8573 H   0  0  0  0  0  0  0  0  0  0  0  0
   -0.8791    4.9443    2.0381 H   0  0  0  0  0  0  0  0  0  0  0  0
   -2.8088    5.6474    1.3950 C   0  0  0  0  0  0  0  0  0  0  0  0
   -2.4423    6.0422    0.4408 H   0  0  0  0  0  0  0  0  0  0  0  0
   -3.8185    5.2534    1.2354 H   0  0  0  0  0  0  0  0  0  0  0  0
   -2.8379    6.7136    2.4003 N   0  0  0  0  0  0  0  0  0  0  0  0
   -3.4395    7.4839    2.1083 H   0  0  0  0  0  0  0  0  0  0  0  0
   -3.1217    6.3536    3.3116 H   0  0  0  0  0  0  0  0  0  0  0  0
    0.4937    0.3105    0.7707 C   0  0  0  0  0  0  0  0  0  0  0  0
    1.4952    0.5879    0.1221 O   0  0  0  0  0  0  0  0  0  0  0  0
    0.6263   -0.5832    1.8145 N   0  0  0  0  0  0  0  0  0  0  0  0
   -0.2525   -0.9448    2.1916 H   0  0  0  0  0  0  0  0  0  0  0  0
    1.8475   -1.3340    2.0763 C   0  0  0  0  0  0  0  0  0  0  0  0
    2.6894   -0.6538    2.2427 H   0  0  0  0  0  0  0  0  0  0  0  0
    1.7239   -1.9521    2.9707 H   0  0  0  0  0  0  0  0  0  0  0  0
    2.0834   -1.9881    1.2306 H   0  0  0  0  0  0  0  0  0  0  0  0
  1  2  1  0  0  0  0
  2  3  1  0  0  0  0
  2  4  1  0  0  0  0
  2  5  1  0  0  0  0
  5  6  2  0  0  0  0
  5  7  1  0  0  0  0
  7  8  1  0  0  0  0
  7  9  1  0  0  0  0
  9 10  1  0  0  0  0
  9 11  1  0  0  0  0
  9 26  1  0  0  0  0
 11 12  1  0  0  0  0
 11 13  1  0  0  0  0
 11 14  1  0  0  0  0
 14 15  1  0  0  0  0
 14 16  1  0  0  0  0
 14 17  1  0  0  0  0
 17 18  1  0  0  0  0
 17 19  1  0  0  0  0
 17 20  1  0  0  0  0
 20 21  1  0  0  0  0
 20 22  1  0  0  0  0
 20 23  1  0  0  0  0
 23 24  1  0  0  0  0
 23 25  1  0  0  0  0
 26 27  2  0  0  0  0
 26 28  1  0  0  0  0
 28 29  1  0  0  0  0
 28 30  1  0  0  0  0
 30 31  1  0  0  0  0
 30 32  1  0  0  0  0
 30 33  1  0  0  0  0
M  END
$$$$

  -OEChem-01062216083D

 33 32  0     1  0  0  0  0  0999 V2000
   -4.2254   -2.2614    1.0067 H   0  0  0  0  0  0  0  0  0  0  0  0
   -4.0456   -1.2652    0.5924 C   0  0  0  0  0  0  0  0  0  0  0  0
   -4.7924   -0.5764    0.9946 H   0  0  0  0  0  0  0  0  0  0  0  0
   -4.1518   -1.3150   -0.4940 H   0  0  0  0  0  0  0  0  0  0  0  0
   -2.6520   -0.7891    0.9586 C   0  0  0  0  0  0  0  0  0  0  0  0
   -2.0185   -1.4290    1.7765 O   0  0  0  0  0  0  0  0  0  0  0  0
   -2.2093    0.4079    0.4253 N   0  0  0  0  0  0  0  0  0  0  0  0
   -2.8958    0.8491   -0.1792 H   0  0  0  0  0  0  0  0  0  0  0  0
   -0.8643    1.0421    0.3884 C   0  0  1  0  0  0  0  0  0  0  0  0
   -0.7276    1.4243   -0.6287 H   0  0  0  0  0  0  0  0  0  0  0  0
   -0.9277    2.2353    1.3634 C   0  0  0  0  0  0  0  0  0  0  0  0
   -1.2582    1.8845    2.3471 H   0  0  0  0  0  0  0  0  0  0  0  0
    0.0763    2.6578    1.4864 H   0  0  0  0  0  0  0  0  0  0  0  0
   -1.8551    3.3539    0.8641 C   0  0  0  0  0  0  0  0  0  0  0  0
   -1.5119    3.7065   -0.1144 H   0  0  0  0  0  0  0  0  0  0  0  0
   -2.8749    2.9736    0.7497 H   0  0  0  0  0  0  0  0  0  0  0  0
   -1.8602    4.5212    1.8572 C   0  0  0  0  0  0  0  0  0  0  0  0
   -2.1842    4.1636    2.8401 H   0  0  0  0  0  0  0  0  0  0  0  0
   -0.8460    4.9215    1.9612 H   0  0  0  0  0  0  0  0  0  0  0  0
   -2.7954    5.6324    1.3900 C   0  0  0  0  0  0  0  0  0  0  0  0
   -2.4661    6.0169    0.4182 H   0  0  0  0  0  0  0  0  0  0  0  0
   -3.8132    5.2433    1.2753 H   0  0  0  0  0  0  0  0  0  0  0  0
   -2.7776    6.7069    2.3866 N   0  0  0  0  0  0  0  0  0  0  0  0
   -3.3973    7.4719    2.1201 H   0  0  0  0  0  0  0  0  0  0  0  0
   -3.0119    6.3531    3.3142 H   0  0  0  0  0  0  0  0  0  0  0  0
    0.4615    0.2824    0.6915 C   0  0  0  0  0  0  0  0  0  0  0  0
    1.4748    0.6952    0.1404 O   0  0  0  0  0  0  0  0  0  0  0  0
    0.6000   -0.7915    1.5464 N   0  0  0  0  0  0  0  0  0  0  0  0
   -0.2605   -1.1704    1.9459 H   0  0  0  0  0  0  0  0  0  0  0  0
    1.8556   -1.4874    1.7944 C   0  0  0  0  0  0  0  0  0  0  0  0
    2.6004   -0.7993    2.2074 H   0  0  0  0  0  0  0  0  0  0  0  0
    1.6996   -2.2985    2.5120 H   0  0  0  0  0  0  0  0  0  0  0  0
    2.2460   -1.9163    0.8658 H   0  0  0  0  0  0  0  0  0  0  0  0
  1  2  1  0  0  0  0
  2  3  1  0  0  0  0
  2  4  1  0  0  0  0
  2  5  1  0  0  0  0
  5  6  2  0  0  0  0
  5  7  1  0  0  0  0
  7  8  1  0  0  0  0
  7  9  1  0  0  0  0
  9 10  1  0  0  0  0
  9 11  1  0  0  0  0
  9 26  1  0  0  0  0
 11 12  1  0  0  0  0
 11 13  1  0  0  0  0
 11 14  1  0  0  0  0
 14 15  1  0  0  0  0
 14 16  1  0  0  0  0
 14 17  1  0  0  0  0
 17 18  1  0  0  0  0
 17 19  1  0  0  0  0
 17 20  1  0  0  0  0
 20 21  1  0  0  0  0
 20 22  1  0  0  0  0
 20 23  1  0  0  0  0
 23 24  1  0  0  0  0
 23 25  1  0  0  0  0
 26 27  2  0  0  0  0
 26 28  1  0  0  0  0
 28 29  1  0  0  0  0
 28 30  1  0  0  0  0
 30 31  1  0  0  0  0
 30 32  1  0  0  0  0
 30 33  1  0  0  0  0
M  END
$$$$

  -OEChem-01062216083D

 33 32  0     1  0  0  0  0  0999 V2000
   -3.5971   -2.4570    1.2066 H   0  0  0  0  0  0  0  0  0  0  0  0
   -3.4597   -1.5272    0.6470 C   0  0  0  0  0  0  0  0  0  0  0  0
   -4.3596   -0.9165    0.7537 H   0  0  0  0  0  0  0  0  0  0  0  0
   -3.3138   -1.7711   -0.4079 H   0  0  0  0  0  0  0  0  0  0  0  0
   -2.2549   -0.7722    1.1765 C   0  0  0  0  0  0  0  0  0  0  0  0
   -1.7243   -1.1587    2.1999 O   0  0  0  0  0  0  0  0  0  0  0  0
   -1.9258    0.4396    0.6034 N   0  0  0  0  0  0  0  0  0  0  0  0
   -2.5698    0.7146   -0.1313 H   0  0  0  0  0  0  0  0  0  0  0  0
   -0.6327    1.1703    0.5854 C   0  0  1  0  0  0  0  0  0  0  0  0
   -0.4907    1.5322   -0.4375 H   0  0  0  0  0  0  0  0  0  0  0  0
   -0.8625    2.3860    1.5156 C   0  0  0  0  0  0  0  0  0  0  0  0
   -1.2112    2.0331    2.4929 H   0  0  0  0  0  0  0  0  0  0  0  0
    0.0818    2.9153    1.6811 H   0  0  0  0  0  0  0  0  0  0  0  0
   -1.8647    3.3943    0.9300 C   0  0  0  0  0  0  0  0  0  0  0  0
   -1.5041    3.7471   -0.0420 H   0  0  0  0  0  0  0  0  0  0  0  0
   -2.8364    2.9140    0.7788 H   0  0  0  0  0  0  0  0  0  0  0  0
   -2.0363    4.5875    1.8767 C   0  0  0  0  0  0  0  0  0  0  0  0
   -2.3774    4.2319    2.8544 H   0  0  0  0  0  0  0  0  0  0  0  0
   -1.0728    5.0891    2.0173 H   0  0  0  0  0  0  0  0  0  0  0  0
   -3.0475    5.5851    1.3188 C   0  0  0  0  0  0  0  0  0  0  0  0
   -2.7029    5.9672    0.3515 H   0  0  0  0  0  0  0  0  0  0  0  0
   -4.0151    5.0941    1.1664 H   0  0  0  0  0  0  0  0  0  0  0  0
   -3.1903    6.6901    2.2711 N   0  0  0  0  0  0  0  0  0  0  0  0
   -3.8607    7.3830    1.9388 H   0  0  0  0  0  0  0  0  0  0  0  0
   -3.4480    6.3470    3.1966 H   0  0  0  0  0  0  0  0  0  0  0  0
    0.7541    0.5377    0.9446 C   0  0  0  0  0  0  0  0  0  0  0  0
    1.7526    1.2332    0.8300 O   0  0  0  0  0  0  0  0  0  0  0  0
    1.0689   -0.6396    1.5789 N   0  0  0  0  0  0  0  0  0  0  0  0
    1.9999   -0.5714    1.9805 H   0  0  0  0  0  0  0  0  0  0  0  0
    0.8070   -1.9130    0.9194 C   0  0  0  0  0  0  0  0  0  0  0  0
    1.7291   -2.2972    0.4726 H   0  0  0  0  0  0  0  0  0  0  0  0
    0.4416   -2.6451    1.6466 H   0  0  0  0  0  0  0  0  0  0  0  0
    0.0637   -1.8109    0.1232 H   0  0  0  0  0  0  0  0  0  0  0  0
  1  2  1  0  0  0  0
  2  3  1  0  0  0  0
  2  4  1  0  0  0  0
  2  5  1  0  0  0  0
  5  6  2  0  0  0  0
  5  7  1  0  0  0  0
  7  8  1  0  0  0  0
  7  9  1  0  0  0  0
  9 10  1  0  0  0  0
  9 11  1  0  0  0  0
  9 26  1  0  0  0  0
 11 12  1  0  0  0  0
 11 13  1  0  0  0  0
 11 14  1  0  0  0  0
 14 15  1  0  0  0  0
 14 16  1  0  0  0  0
 14 17  1  0  0  0  0
 17 18  1  0  0  0  0
 17 19  1  0  0  0  0
 17 20  1  0  0  0  0
 20 21  1  0  0  0  0
 20 22  1  0  0  0  0
 20 23  1  0  0  0  0
 23 24  1  0  0  0  0
 23 25  1  0  0  0  0
 26 27  2  0  0  0  0
 26 28  1  0  0  0  0
 28 29  1  0  0  0  0
 28 30  1  0  0  0  0
 30 31  1  0  0  0  0
 30 32  1  0  0  0  0
 30 33  1  0  0  0  0
M  END
$$$$

  -OEChem-01062216083D

 33 32  0     1  0  0  0  0  0999 V2000
   -3.7134   -2.5934    1.2151 H   0  0  0  0  0  0  0  0  0  0  0  0
   -3.7421   -1.6151    0.7269 C   0  0  0  0  0  0  0  0  0  0  0  0
   -4.6058   -1.0599    1.1003 H   0  0  0  0  0  0  0  0  0  0  0  0
   -3.8499   -1.7656   -0.3500 H   0  0  0  0  0  0  0  0  0  0  0  0
   -2.4659   -0.8480    1.0196 C   0  0  0  0  0  0  0  0  0  0  0  0
   -1.7422   -1.2378    1.9146 O   0  0  0  0  0  0  0  0  0  0  0  0
   -2.2844    0.3890    0.4351 N   0  0  0  0  0  0  0  0  0  0  0  0
   -3.0778    0.6631   -0.1352 H   0  0  0  0  0  0  0  0  0  0  0  0
   -1.0225    1.0802    0.0700 C   0  0  1  0  0  0  0  0  0  0  0  0
   -1.1735    1.5007   -0.9294 H   0  0  0  0  0  0  0  0  0  0  0  0
   -0.8681    2.2385    1.0774 C   0  0  0  0  0  0  0  0  0  0  0  0
   -0.9170    1.8410    2.0972 H   0  0  0  0  0  0  0  0  0  0  0  0
    0.1169    2.7023    0.9533 H   0  0  0  0  0  0  0  0  0  0  0  0
   -1.9347    3.3283    0.8861 C   0  0  0  0  0  0  0  0  0  0  0  0
   -1.8761    3.7251   -0.1329 H   0  0  0  0  0  0  0  0  0  0  0  0
   -2.9331    2.9030    1.0284 H   0  0  0  0  0  0  0  0  0  0  0  0
   -1.7219    4.4648    1.8924 C   0  0  0  0  0  0  0  0  0  0  0  0
   -1.7620    4.0637    2.9104 H   0  0  0  0  0  0  0  0  0  0  0  0
   -0.7322    4.9094    1.7426 H   0  0  0  0  0  0  0  0  0  0  0  0
   -2.7885    5.5441    1.7314 C   0  0  0  0  0  0  0  0  0  0  0  0
   -2.7417    5.9717    0.7236 H   0  0  0  0  0  0  0  0  0  0  0  0
   -3.7848    5.1109    1.8719 H   0  0  0  0  0  0  0  0  0  0  0  0
   -2.5506    6.5898    2.7307 N   0  0  0  0  0  0  0  0  0  0  0  0
   -3.2469    7.3322    2.6646 H   0  0  0  0  0  0  0  0  0  0  0  0
   -2.5223    6.1986    3.6725 H   0  0  0  0  0  0  0  0  0  0  0  0
    0.3615    0.3652   -0.0212 C   0  0  0  0  0  0  0  0  0  0  0  0
    1.2052    0.8827   -0.7377 O   0  0  0  0  0  0  0  0  0  0  0  0
    0.6688   -0.9543    0.2038 N   0  0  0  0  0  0  0  0  0  0  0  0
    1.3378   -1.2530   -0.5005 H   0  0  0  0  0  0  0  0  0  0  0  0
    1.1094   -1.3103    1.5484 C   0  0  0  0  0  0  0  0  0  0  0  0
    0.7311   -0.6054    2.2968 H   0  0  0  0  0  0  0  0  0  0  0  0
    0.7547   -2.3129    1.8078 H   0  0  0  0  0  0  0  0  0  0  0  0
    2.2028   -1.3031    1.5984 H   0  0  0  0  0  0  0  0  0  0  0  0
  1  2  1  0  0  0  0
  2  3  1  0  0  0  0
  2  4  1  0  0  0  0
  2  5  1  0  0  0  0
  5  6  2  0  0  0  0
  5  7  1  0  0  0  0
  7  8  1  0  0  0  0
  7  9  1  0  0  0  0
  9 10  1  0  0  0  0
  9 11  1  0  0  0  0
  9 26  1  0  0  0  0
 11 12  1  0  0  0  0
 11 13  1  0  0  0  0
 11 14  1  0  0  0  0
 14 15  1  0  0  0  0
 14 16  1  0  0  0  0
 14 17  1  0  0  0  0
 17 18  1  0  0  0  0
 17 19  1  0  0  0  0
 17 20  1  0  0  0  0
 20 21  1  0  0  0  0
 20 22  1  0  0  0  0
 20 23  1  0  0  0  0
 23 24  1  0  0  0  0
 23 25  1  0  0  0  0
 26 27  2  0  0  0  0
 26 28  1  0  0  0  0
 28 29  1  0  0  0  0
 28 30  1  0  0  0  0
 30 31  1  0  0  0  0
 30 32  1  0  0  0  0
 30 33  1  0  0  0  0
M  END
$$$$

  -OEChem-01062216083D

 33 32  0     1  0  0  0  0  0999 V2000
   -4.2369   -2.1694    1.0156 H   0  0  0  0  0  0  0  0  0  0  0  0
   -4.0348   -1.1872    0.5787 C   0  0  0  0  0  0  0  0  0  0  0  0
   -4.7268   -0.4616    1.0130 H   0  0  0  0  0  0  0  0  0  0  0  0
   -4.2036   -1.2427   -0.4994 H   0  0  0  0  0  0  0  0  0  0  0  0
   -2.6021   -0.7728    0.8601 C   0  0  0  0  0  0  0  0  0  0  0  0
   -1.9143   -1.4934    1.5588 O   0  0  0  0  0  0  0  0  0  0  0  0
   -2.1612    0.4443    0.3732 N   0  0  0  0  0  0  0  0  0  0  0  0
   -2.8750    0.9559   -0.1363 H   0  0  0  0  0  0  0  0  0  0  0  0
   -0.8110    1.0688    0.3460 C   0  0  1  0  0  0  0  0  0  0  0  0
   -0.6697    1.4796   -0.6585 H   0  0  0  0  0  0  0  0  0  0  0  0
   -0.8977    2.2402    1.3553 C   0  0  0  0  0  0  0  0  0  0  0  0
   -1.2367    1.8599    2.3251 H   0  0  0  0  0  0  0  0  0  0  0  0
    0.0932    2.6802    1.5092 H   0  0  0  0  0  0  0  0  0  0  0  0
   -1.8314    3.3612    0.8699 C   0  0  0  0  0  0  0  0  0  0  0  0
   -1.4781    3.7397   -0.0954 H   0  0  0  0  0  0  0  0  0  0  0  0
   -2.8453    2.9737    0.7323 H   0  0  0  0  0  0  0  0  0  0  0  0
   -1.8665    4.5076    1.8868 C   0  0  0  0  0  0  0  0  0  0  0  0
   -2.2004    4.1267    2.8574 H   0  0  0  0  0  0  0  0  0  0  0  0
   -0.8597    4.9193    2.0146 H   0  0  0  0  0  0  0  0  0  0  0  0
   -2.8100    5.6145    1.4248 C   0  0  0  0  0  0  0  0  0  0  0  0
   -2.4705    6.0208    0.4654 H   0  0  0  0  0  0  0  0  0  0  0  0
   -3.8200    5.2130    1.2862 H   0  0  0  0  0  0  0  0  0  0  0  0
   -2.8259    6.6722    2.4394 N   0  0  0  0  0  0  0  0  0  0  0  0
   -3.4507    7.4333    2.1735 H   0  0  0  0  0  0  0  0  0  0  0  0
   -3.0735    6.2996    3.3561 H   0  0  0  0  0  0  0  0  0  0  0  0
    0.5036    0.2632    0.5995 C   0  0  0  0  0  0  0  0  0  0  0  0
    1.5619    0.8801    0.6409 O   0  0  0  0  0  0  0  0  0  0  0  0
    0.5907   -1.1155    0.5772 N   0  0  0  0  0  0  0  0  0  0  0  0
   -0.2860   -1.6015    0.7696 H   0  0  0  0  0  0  0  0  0  0  0  0
    1.8315   -1.8384    0.8300 C   0  0  0  0  0  0  0  0  0  0  0  0
    2.2185   -1.5978    1.8254 H   0  0  0  0  0  0  0  0  0  0  0  0
    1.6565   -2.9171    0.7766 H   0  0  0  0  0  0  0  0  0  0  0  0
    2.5882   -1.5755    0.0835 H   0  0  0  0  0  0  0  0  0  0  0  0
  1  2  1  0  0  0  0
  2  3  1  0  0  0  0
  2  4  1  0  0  0  0
  2  5  1  0  0  0  0
  5  6  2  0  0  0  0
  5  7  1  0  0  0  0
  7  8  1  0  0  0  0
  7  9  1  0  0  0  0
  9 10  1  0  0  0  0
  9 11  1  0  0  0  0
  9 26  1  0  0  0  0
 11 12  1  0  0  0  0
 11 13  1  0  0  0  0
 11 14  1  0  0  0  0
 14 15  1  0  0  0  0
 14 16  1  0  0  0  0
 14 17  1  0  0  0  0
 17 18  1  0  0  0  0
 17 19  1  0  0  0  0
 17 20  1  0  0  0  0
 20 21  1  0  0  0  0
 20 22  1  0  0  0  0
 20 23  1  0  0  0  0
 23 24  1  0  0  0  0
 23 25  1  0  0  0  0
 26 27  2  0  0  0  0
 26 28  1  0  0  0  0
 28 29  1  0  0  0  0
 28 30  1  0  0  0  0
 30 31  1  0  0  0  0
 30 32  1  0  0  0  0
 30 33  1  0  0  0  0
M  END
$$$$

  -OEChem-01062216083D

 33 32  0     1  0  0  0  0  0999 V2000
   -4.1474   -2.1820    1.0698 H   0  0  0  0  0  0  0  0  0  0  0  0
   -3.9713   -1.1917    0.6395 C   0  0  0  0  0  0  0  0  0  0  0  0
   -4.6283   -0.4729    1.1349 H   0  0  0  0  0  0  0  0  0  0  0  0
   -4.2134   -1.2248   -0.4255 H   0  0  0  0  0  0  0  0  0  0  0  0
   -2.5215   -0.7871    0.8317 C   0  0  0  0  0  0  0  0  0  0  0  0
   -1.7761   -1.5503    1.4167 O   0  0  0  0  0  0  0  0  0  0  0  0
   -2.1123    0.4474    0.3605 N   0  0  0  0  0  0  0  0  0  0  0  0
   -2.8563    0.9883   -0.0698 H   0  0  0  0  0  0  0  0  0  0  0  0
   -0.7728    1.0931    0.3478 C   0  0  1  0  0  0  0  0  0  0  0  0
   -0.6244    1.5084   -0.6535 H   0  0  0  0  0  0  0  0  0  0  0  0
   -0.8814    2.2652    1.3557 C   0  0  0  0  0  0  0  0  0  0  0  0
   -1.2202    1.8818    2.3244 H   0  0  0  0  0  0  0  0  0  0  0  0
    0.1015    2.7212    1.5132 H   0  0  0  0  0  0  0  0  0  0  0  0
   -1.8253    3.3753    0.8637 C   0  0  0  0  0  0  0  0  0  0  0  0
   -1.4705    3.7577   -0.0992 H   0  0  0  0  0  0  0  0  0  0  0  0
   -2.8340    2.9762    0.7201 H   0  0  0  0  0  0  0  0  0  0  0  0
   -1.8796    4.5210    1.8810 C   0  0  0  0  0  0  0  0  0  0  0  0
   -2.2143    4.1354    2.8496 H   0  0  0  0  0  0  0  0  0  0  0  0
   -0.8779    4.9437    2.0144 H   0  0  0  0  0  0  0  0  0  0  0  0
   -2.8323    5.6190    1.4162 C   0  0  0  0  0  0  0  0  0  0  0  0
   -2.4916    6.0316    0.4598 H   0  0  0  0  0  0  0  0  0  0  0  0
   -3.8374    5.2079    1.2718 H   0  0  0  0  0  0  0  0  0  0  0  0
   -2.8636    6.6736    2.4334 N   0  0  0  0  0  0  0  0  0  0  0  0
   -3.4964    7.4281    2.1678 H   0  0  0  0  0  0  0  0  0  0  0  0
   -3.1094    6.2961    3.3485 H   0  0  0  0  0  0  0  0  0  0  0  0
    0.5322    0.2705    0.5998 C   0  0  0  0  0  0  0  0  0  0  0  0
    1.5665    0.8574    0.8970 O   0  0  0  0  0  0  0  0  0  0  0  0
    0.6462   -1.0642    0.2573 N   0  0  0  0  0  0  0  0  0  0  0  0
   -0.2348   -1.5763    0.3112 H   0  0  0  0  0  0  0  0  0  0  0  0
    1.8696   -1.8281    0.4738 C   0  0  0  0  0  0  0  0  0  0  0  0
    2.1361   -1.8313    1.5359 H   0  0  0  0  0  0  0  0  0  0  0  0
    1.7293   -2.8629    0.1476 H   0  0  0  0  0  0  0  0  0  0  0  0
    2.6987   -1.3972   -0.0971 H   0  0  0  0  0  0  0  0  0  0  0  0
  1  2  1  0  0  0  0
  2  3  1  0  0  0  0
  2  4  1  0  0  0  0
  2  5  1  0  0  0  0
  5  6  2  0  0  0  0
  5  7  1  0  0  0  0
  7  8  1  0  0  0  0
  7  9  1  0  0  0  0
  9 10  1  0  0  0  0
  9 11  1  0  0  0  0
  9 26  1  0  0  0  0
 11 12  1  0  0  0  0
 11 13  1  0  0  0  0
 11 14  1  0  0  0  0
 14 15  1  0  0  0  0
 14 16  1  0  0  0  0
 14 17  1  0  0  0  0
 17 18  1  0  0  0  0
 17 19  1  0  0  0  0
 17 20  1  0  0  0  0
 20 21  1  0  0  0  0
 20 22  1  0  0  0  0
 20 23  1  0  0  0  0
 23 24  1  0  0  0  0
 23 25  1  0  0  0  0
 26 27  2  0  0  0  0
 26 28  1  0  0  0  0
 28 29  1  0  0  0  0
 28 30  1  0  0  0  0
 30 31  1  0  0  0  0
 30 32  1  0  0  0  0
 30 33  1  0  0  0  0
M  END
$$$$

  -OEChem-01062216083D

 33 32  0     1  0  0  0  0  0999 V2000
   -4.0512   -2.1833    1.1462 H   0  0  0  0  0  0  0  0  0  0  0  0
   -3.9019   -1.1913    0.7100 C   0  0  0  0  0  0  0  0  0  0  0  0
   -4.5067   -0.4707    1.2659 H   0  0  0  0  0  0  0  0  0  0  0  0
   -4.2345   -1.2119   -0.3305 H   0  0  0  0  0  0  0  0  0  0  0  0
   -2.4363   -0.8034    0.7800 C   0  0  0  0  0  0  0  0  0  0  0  0
   -1.6378   -1.6138    1.2107 O   0  0  0  0  0  0  0  0  0  0  0  0
   -2.0613    0.4502    0.3300 N   0  0  0  0  0  0  0  0  0  0  0  0
   -2.8360    1.0262    0.0158 H   0  0  0  0  0  0  0  0  0  0  0  0
   -0.7347    1.1186    0.3462 C   0  0  1  0  0  0  0  0  0  0  0  0
   -0.5718    1.5435   -0.6488 H   0  0  0  0  0  0  0  0  0  0  0  0
   -0.8666    2.2848    1.3567 C   0  0  0  0  0  0  0  0  0  0  0  0
   -1.2098    1.8950    2.3211 H   0  0  0  0  0  0  0  0  0  0  0  0
    0.1106    2.7506    1.5220 H   0  0  0  0  0  0  0  0  0  0  0  0
   -1.8156    3.3860    0.8563 C   0  0  0  0  0  0  0  0  0  0  0  0
   -1.4531    3.7759   -0.1009 H   0  0  0  0  0  0  0  0  0  0  0  0
   -2.8181    2.9769    0.6985 H   0  0  0  0  0  0  0  0  0  0  0  0
   -1.8934    4.5269    1.8770 C   0  0  0  0  0  0  0  0  0  0  0  0
   -2.2360    4.1336    2.8397 H   0  0  0  0  0  0  0  0  0  0  0  0
   -0.8978    4.9583    2.0250 H   0  0  0  0  0  0  0  0  0  0  0  0
   -2.8511    5.6173    1.4053 C   0  0  0  0  0  0  0  0  0  0  0  0
   -2.5035    6.0369    0.4548 H   0  0  0  0  0  0  0  0  0  0  0  0
   -3.8502    5.1968    1.2466 H   0  0  0  0  0  0  0  0  0  0  0  0
   -2.9048    6.6678    2.4260 N   0  0  0  0  0  0  0  0  0  0  0  0
   -3.5412    7.4177    2.1561 H   0  0  0  0  0  0  0  0  0  0  0  0
   -3.1569    6.2848    3.3370 H   0  0  0  0  0  0  0  0  0  0  0  0
    0.5551    0.2783    0.6068 C   0  0  0  0  0  0  0  0  0  0  0  0
    1.5139    0.7696    1.1917 O   0  0  0  0  0  0  0  0  0  0  0  0
    0.7480   -0.9334   -0.0320 N   0  0  0  0  0  0  0  0  0  0  0  0
   -0.1200   -1.4429   -0.1915 H   0  0  0  0  0  0  0  0  0  0  0  0
    1.9496   -1.7337    0.1736 C   0  0  0  0  0  0  0  0  0  0  0  0
    2.0548   -2.0018    1.2303 H   0  0  0  0  0  0  0  0  0  0  0  0
    1.8941   -2.6544   -0.4148 H   0  0  0  0  0  0  0  0  0  0  0  0
    2.8397   -1.1783   -0.1398 H   0  0  0  0  0  0  0  0  0  0  0  0
  1  2  1  0  0  0  0
  2  3  1  0  0  0  0
  2  4  1  0  0  0  0
  2  5  1  0  0  0  0
  5  6  2  0  0  0  0
  5  7  1  0  0  0  0
  7  8  1  0  0  0  0
  7  9  1  0  0  0  0
  9 10  1  0  0  0  0
  9 11  1  0  0  0  0
  9 26  1  0  0  0  0
 11 12  1  0  0  0  0
 11 13  1  0  0  0  0
 11 14  1  0  0  0  0
 14 15  1  0  0  0  0
 14 16  1  0  0  0  0
 14 17  1  0  0  0  0
 17 18  1  0  0  0  0
 17 19  1  0  0  0  0
 17 20  1  0  0  0  0
 20 21  1  0  0  0  0
 20 22  1  0  0  0  0
 20 23  1  0  0  0  0
 23 24  1  0  0  0  0
 23 25  1  0  0  0  0
 26 27  2  0  0  0  0
 26 28  1  0  0  0  0
 28 29  1  0  0  0  0
 28 30  1  0  0  0  0
 30 31  1  0  0  0  0
 30 32  1  0  0  0  0
 30 33  1  0  0  0  0
M  END
$$$$

  -OEChem-01062216083D

 33 32  0     1  0  0  0  0  0999 V2000
   -3.9343   -2.2078    1.1949 H   0  0  0  0  0  0  0  0  0  0  0  0
   -3.8226   -1.2089    0.7633 C   0  0  0  0  0  0  0  0  0  0  0  0
   -4.3902   -0.5003    1.3712 H   0  0  0  0  0  0  0  0  0  0  0  0
   -4.2285   -1.2169   -0.2512 H   0  0  0  0  0  0  0  0  0  0  0  0
   -2.3580   -0.8127    0.7351 C   0  0  0  0  0  0  0  0  0  0  0  0
   -1.5234   -1.6357    1.0612 O   0  0  0  0  0  0  0  0  0  0  0  0
   -2.0228    0.4553    0.2927 N   0  0  0  0  0  0  0  0  0  0  0  0
   -2.8200    1.0405    0.0635 H   0  0  0  0  0  0  0  0  0  0  0  0
   -0.7100    1.1454    0.3339 C   0  0  1  0  0  0  0  0  0  0  0  0
   -0.5332    1.5789   -0.6551 H   0  0  0  0  0  0  0  0  0  0  0  0
   -0.8565    2.3040    1.3484 C   0  0  0  0  0  0  0  0  0  0  0  0
   -1.2021    1.9076    2.3094 H   0  0  0  0  0  0  0  0  0  0  0  0
    0.1200    2.7707    1.5182 H   0  0  0  0  0  0  0  0  0  0  0  0
   -1.8106    3.3996    0.8470 C   0  0  0  0  0  0  0  0  0  0  0  0
   -1.4455    3.7965   -0.1063 H   0  0  0  0  0  0  0  0  0  0  0  0
   -2.8084    2.9826    0.6820 H   0  0  0  0  0  0  0  0  0  0  0  0
   -1.9035    4.5346    1.8722 C   0  0  0  0  0  0  0  0  0  0  0  0
   -2.2487    4.1346    2.8311 H   0  0  0  0  0  0  0  0  0  0  0  0
   -0.9123    4.9736    2.0277 H   0  0  0  0  0  0  0  0  0  0  0  0
   -2.8665    5.6200    1.4004 C   0  0  0  0  0  0  0  0  0  0  0  0
   -2.5174    6.0478    0.4539 H   0  0  0  0  0  0  0  0  0  0  0  0
   -3.8617    5.1929    1.2351 H   0  0  0  0  0  0  0  0  0  0  0  0
   -2.9322    6.6629    2.4279 N   0  0  0  0  0  0  0  0  0  0  0  0
   -3.5751    7.4087    2.1616 H   0  0  0  0  0  0  0  0  0  0  0  0
   -3.1830    6.2708    3.3356 H   0  0  0  0  0  0  0  0  0  0  0  0
    0.5653    0.2939    0.6107 C   0  0  0  0  0  0  0  0  0  0  0  0
    1.3883    0.6304    1.4550 O   0  0  0  0  0  0  0  0  0  0  0  0
    0.8963   -0.7337   -0.2546 N   0  0  0  0  0  0  0  0  0  0  0  0
    0.0965   -1.1555   -0.7189 H   0  0  0  0  0  0  0  0  0  0  0  0
    2.0601   -1.5834   -0.0325 C   0  0  0  0  0  0  0  0  0  0  0  0
    1.9737   -2.1058    0.9261 H   0  0  0  0  0  0  0  0  0  0  0  0
    2.1408   -2.3288   -0.8292 H   0  0  0  0  0  0  0  0  0  0  0  0
    2.9774   -0.9854   -0.0277 H   0  0  0  0  0  0  0  0  0  0  0  0
  1  2  1  0  0  0  0
  2  3  1  0  0  0  0
  2  4  1  0  0  0  0
  2  5  1  0  0  0  0
  5  6  2  0  0  0  0
  5  7  1  0  0  0  0
  7  8  1  0  0  0  0
  7  9  1  0  0  0  0
  9 10  1  0  0  0  0
  9 11  1  0  0  0  0
  9 26  1  0  0  0  0
 11 12  1  0  0  0  0
 11 13  1  0  0  0  0
 11 14  1  0  0  0  0
 14 15  1  0  0  0  0
 14 16  1  0  0  0  0
 14 17  1  0  0  0  0
 17 18  1  0  0  0  0
 17 19  1  0  0  0  0
 17 20  1  0  0  0  0
 20 21  1  0  0  0  0
 20 22  1  0  0  0  0
 20 23  1  0  0  0  0
 23 24  1  0  0  0  0
 23 25  1  0  0  0  0
 26 27  2  0  0  0  0
 26 28  1  0  0  0  0
 28 29  1  0  0  0  0
 28 30  1  0  0  0  0
 30 31  1  0  0  0  0
 30 32  1  0  0  0  0
 30 33  1  0  0  0  0
M  END
$$$$

  -OEChem-01062216083D

 33 32  0     1  0  0  0  0  0999 V2000
   -3.8566   -2.2244    1.2280 H   0  0  0  0  0  0  0  0  0  0  0  0
   -3.7716   -1.2206    0.8012 C   0  0  0  0  0  0  0  0  0  0  0  0
   -4.3075   -0.5208    1.4467 H   0  0  0  0  0  0  0  0  0  0  0  0
   -4.2311   -1.2193   -0.1901 H   0  0  0  0  0  0  0  0  0  0  0  0
   -2.3117   -0.8189    0.6983 C   0  0  0  0  0  0  0  0  0  0  0  0
   -1.4583   -1.6521    0.9405 O   0  0  0  0  0  0  0  0  0  0  0  0
   -2.0034    0.4573    0.2577 N   0  0  0  0  0  0  0  0  0  0  0  0
   -2.8135    1.0464    0.0933 H   0  0  0  0  0  0  0  0  0  0  0  0
   -0.6995    1.1599    0.3204 C   0  0  1  0  0  0  0  0  0  0  0  0
   -0.5116    1.6032   -0.6619 H   0  0  0  0  0  0  0  0  0  0  0  0
   -0.8532    2.3100    1.3408 C   0  0  0  0  0  0  0  0  0  0  0  0
   -1.2046    1.9067    2.2968 H   0  0  0  0  0  0  0  0  0  0  0  0
    0.1252    2.7706    1.5184 H   0  0  0  0  0  0  0  0  0  0  0  0
   -1.8070    3.4071    0.8424 C   0  0  0  0  0  0  0  0  0  0  0  0
   -1.4377    3.8109   -0.1063 H   0  0  0  0  0  0  0  0  0  0  0  0
   -2.8028    2.9885    0.6689 H   0  0  0  0  0  0  0  0  0  0  0  0
   -1.9091    4.5363    1.8731 C   0  0  0  0  0  0  0  0  0  0  0  0
   -2.2585    4.1306    2.8282 H   0  0  0  0  0  0  0  0  0  0  0  0
   -0.9200    4.9775    2.0360 H   0  0  0  0  0  0  0  0  0  0  0  0
   -2.8731    5.6204    1.3992 C   0  0  0  0  0  0  0  0  0  0  0  0
   -2.5191    6.0529    0.4567 H   0  0  0  0  0  0  0  0  0  0  0  0
   -3.8656    5.1908    1.2246 H   0  0  0  0  0  0  0  0  0  0  0  0
   -2.9508    6.6599    2.4291 N   0  0  0  0  0  0  0  0  0  0  0  0
   -3.5895    7.4070    2.1568 H   0  0  0  0  0  0  0  0  0  0  0  0
   -3.2139    6.2652    3.3323 H   0  0  0  0  0  0  0  0  0  0  0  0
    0.5658    0.3044    0.6159 C   0  0  0  0  0  0  0  0  0  0  0  0
    1.2221    0.4626    1.6397 O   0  0  0  0  0  0  0  0  0  0  0  0
    1.0812   -0.4985   -0.3863 N   0  0  0  0  0  0  0  0  0  0  0  0
    0.4162   -0.7695   -1.1039 H   0  0  0  0  0  0  0  0  0  0  0  0
    2.2248   -1.3738   -0.1611 C   0  0  0  0  0  0  0  0  0  0  0  0
    2.0049   -2.0913    0.6366 H   0  0  0  0  0  0  0  0  0  0  0  0
    2.4610   -1.9291   -1.0737 H   0  0  0  0  0  0  0  0  0  0  0  0
    3.1060   -0.7894    0.1233 H   0  0  0  0  0  0  0  0  0  0  0  0
  1  2  1  0  0  0  0
  2  3  1  0  0  0  0
  2  4  1  0  0  0  0
  2  5  1  0  0  0  0
  5  6  2  0  0  0  0
  5  7  1  0  0  0  0
  7  8  1  0  0  0  0
  7  9  1  0  0  0  0
  9 10  1  0  0  0  0
  9 11  1  0  0  0  0
  9 26  1  0  0  0  0
 11 12  1  0  0  0  0
 11 13  1  0  0  0  0
 11 14  1  0  0  0  0
 14 15  1  0  0  0  0
 14 16  1  0  0  0  0
 14 17  1  0  0  0  0
 17 18  1  0  0  0  0
 17 19  1  0  0  0  0
 17 20  1  0  0  0  0
 20 21  1  0  0  0  0
 20 22  1  0  0  0  0
 20 23  1  0  0  0  0
 23 24  1  0  0  0  0
 23 25  1  0  0  0  0
 26 27  2  0  0  0  0
 26 28  1  0  0  0  0
 28 29  1  0  0  0  0
 28 30  1  0  0  0  0
 30 31  1  0  0  0  0
 30 32  1  0  0  0  0
 30 33  1  0  0  0  0
M  END
$$$$

  -OEChem-01062216083D

 33 32  0     1  0  0  0  0  0999 V2000
   -3.8358   -2.2163    1.2622 H   0  0  0  0  0  0  0  0  0  0  0  0
   -3.7625   -1.2083    0.8437 C   0  0  0  0  0  0  0  0  0  0  0  0
   -4.2441   -0.5093    1.5316 H   0  0  0  0  0  0  0  0  0  0  0  0
   -4.2851   -1.1861   -0.1156 H   0  0  0  0  0  0  0  0  0  0  0  0
   -2.3062   -0.8276    0.6510 C   0  0  0  0  0  0  0  0  0  0  0  0
   -1.4530   -1.6835    0.7958 O   0  0  0  0  0  0  0  0  0  0  0  0
   -2.0064    0.4517    0.2139 N   0  0  0  0  0  0  0  0  0  0  0  0
   -2.8189    1.0516    0.1168 H   0  0  0  0  0  0  0  0  0  0  0  0
   -0.7048    1.1531    0.3015 C   0  0  1  0  0  0  0  0  0  0  0  0
   -0.5039    1.6035   -0.6749 H   0  0  0  0  0  0  0  0  0  0  0  0
   -0.8636    2.2956    1.3284 C   0  0  0  0  0  0  0  0  0  0  0  0
   -1.2296    1.8868    2.2767 H   0  0  0  0  0  0  0  0  0  0  0  0
    0.1173    2.7442    1.5222 H   0  0  0  0  0  0  0  0  0  0  0  0
   -1.8065    3.4012    0.8293 C   0  0  0  0  0  0  0  0  0  0  0  0
   -1.4263    3.8104   -0.1127 H   0  0  0  0  0  0  0  0  0  0  0  0
   -2.8027    2.9884    0.6428 H   0  0  0  0  0  0  0  0  0  0  0  0
   -1.9125    4.5220    1.8687 C   0  0  0  0  0  0  0  0  0  0  0  0
   -2.2747    4.1094    2.8160 H   0  0  0  0  0  0  0  0  0  0  0  0
   -0.9230    4.9560    2.0467 H   0  0  0  0  0  0  0  0  0  0  0  0
   -2.8656    5.6155    1.3954 C   0  0  0  0  0  0  0  0  0  0  0  0
   -2.4992    6.0543    0.4606 H   0  0  0  0  0  0  0  0  0  0  0  0
   -3.8586    5.1927    1.2073 H   0  0  0  0  0  0  0  0  0  0  0  0
   -2.9471    6.6465    2.4339 N   0  0  0  0  0  0  0  0  0  0  0  0
   -3.5795    7.3996    2.1624 H   0  0  0  0  0  0  0  0  0  0  0  0
   -3.2205    6.2456    3.3313 H   0  0  0  0  0  0  0  0  0  0  0  0
    0.5534    0.2975    0.6183 C   0  0  0  0  0  0  0  0  0  0  0  0
    1.0422    0.2839    1.7430 O   0  0  0  0  0  0  0  0  0  0  0  0
    1.2741   -0.2557   -0.4254 N   0  0  0  0  0  0  0  0  0  0  0  0
    0.7696   -0.3717   -1.2984 H   0  0  0  0  0  0  0  0  0  0  0  0
    2.4487   -1.0888   -0.1992 C   0  0  0  0  0  0  0  0  0  0  0  0
    2.1855   -1.9624    0.4067 H   0  0  0  0  0  0  0  0  0  0  0  0
    2.8555   -1.4367   -1.1534 H   0  0  0  0  0  0  0  0  0  0  0  0
    3.2276   -0.5210    0.3204 H   0  0  0  0  0  0  0  0  0  0  0  0
  1  2  1  0  0  0  0
  2  3  1  0  0  0  0
  2  4  1  0  0  0  0
  2  5  1  0  0  0  0
  5  6  2  0  0  0  0
  5  7  1  0  0  0  0
  7  8  1  0  0  0  0
  7  9  1  0  0  0  0
  9 10  1  0  0  0  0
  9 11  1  0  0  0  0
  9 26  1  0  0  0  0
 11 12  1  0  0  0  0
 11 13  1  0  0  0  0
 11 14  1  0  0  0  0
 14 15  1  0  0  0  0
 14 16  1  0  0  0  0
 14 17  1  0  0  0  0
 17 18  1  0  0  0  0
 17 19  1  0  0  0  0
 17 20  1  0  0  0  0
 20 21  1  0  0  0  0
 20 22  1  0  0  0  0
 20 23  1  0  0  0  0
 23 24  1  0  0  0  0
 23 25  1  0  0  0  0
 26 27  2  0  0  0  0
 26 28  1  0  0  0  0
 28 29  1  0  0  0  0
 28 30  1  0  0  0  0
 30 31  1  0  0  0  0
 30 32  1  0  0  0  0
 30 33  1  0  0  0  0
M  END
$$$$

  -OEChem-01062216083D

 33 32  0     1  0  0  0  0  0999 V2000
   -3.8212   -2.2149    1.2789 H   0  0  0  0  0  0  0  0  0  0  0  0
   -3.7571   -1.1972    0.8829 C   0  0  0  0  0  0  0  0  0  0  0  0
   -4.1814   -0.5091    1.6179 H   0  0  0  0  0  0  0  0  0  0  0  0
   -4.3382   -1.1403   -0.0406 H   0  0  0  0  0  0  0  0  0  0  0  0
   -2.3095   -0.8354    0.6081 C   0  0  0  0  0  0  0  0  0  0  0  0
   -1.4662   -1.7123    0.6549 O   0  0  0  0  0  0  0  0  0  0  0  0
   -2.0150    0.4448    0.1711 N   0  0  0  0  0  0  0  0  0  0  0  0
   -2.8268    1.0516    0.1254 H   0  0  0  0  0  0  0  0  0  0  0  0
   -0.7137    1.1432    0.2773 C   0  0  1  0  0  0  0  0  0  0  0  0
   -0.5045    1.5983   -0.6950 H   0  0  0  0  0  0  0  0  0  0  0  0
   -0.8735    2.2784    1.3096 C   0  0  0  0  0  0  0  0  0  0  0  0
   -1.2497    1.8652    2.2521 H   0  0  0  0  0  0  0  0  0  0  0  0
    0.1099    2.7173    1.5136 H   0  0  0  0  0  0  0  0  0  0  0  0
   -1.8071    3.3927    0.8117 C   0  0  0  0  0  0  0  0  0  0  0  0
   -1.4184    3.8077   -0.1244 H   0  0  0  0  0  0  0  0  0  0  0  0
   -2.8045    2.9873    0.6154 H   0  0  0  0  0  0  0  0  0  0  0  0
   -1.9127    4.5054    1.8597 C   0  0  0  0  0  0  0  0  0  0  0  0
   -2.2820    4.0870    2.8017 H   0  0  0  0  0  0  0  0  0  0  0  0
   -0.9212    4.9316    2.0463 H   0  0  0  0  0  0  0  0  0  0  0  0
   -2.8560    5.6097    1.3918 C   0  0  0  0  0  0  0  0  0  0  0  0
   -2.4822    6.0554    0.4631 H   0  0  0  0  0  0  0  0  0  0  0  0
   -3.8512    5.1956    1.1951 H   0  0  0  0  0  0  0  0  0  0  0  0
   -2.9348    6.6299    2.4408 N   0  0  0  0  0  0  0  0  0  0  0  0
   -3.5670    7.3861    2.1780 H   0  0  0  0  0  0  0  0  0  0  0  0
   -3.2076    6.2199    3.3344 H   0  0  0  0  0  0  0  0  0  0  0  0
    0.5410    0.2904    0.6127 C   0  0  0  0  0  0  0  0  0  0  0  0
    0.8705    0.1002    1.7787 O   0  0  0  0  0  0  0  0  0  0  0  0
    1.4528   -0.0037   -0.3863 N   0  0  0  0  0  0  0  0  0  0  0  0
    1.1147    0.0634   -1.3408 H   0  0  0  0  0  0  0  0  0  0  0  0
    2.6611   -0.7801   -0.1354 C   0  0  0  0  0  0  0  0  0  0  0  0
    2.4059   -1.7637    0.2736 H   0  0  0  0  0  0  0  0  0  0  0  0
    3.2178   -0.9249   -1.0660 H   0  0  0  0  0  0  0  0  0  0  0  0
    3.3100   -0.2600    0.5769 H   0  0  0  0  0  0  0  0  0  0  0  0
  1  2  1  0  0  0  0
  2  3  1  0  0  0  0
  2  4  1  0  0  0  0
  2  5  1  0  0  0  0
  5  6  2  0  0  0  0
  5  7  1  0  0  0  0
  7  8  1  0  0  0  0
  7  9  1  0  0  0  0
  9 10  1  0  0  0  0
  9 11  1  0  0  0  0
  9 26  1  0  0  0  0
 11 12  1  0  0  0  0
 11 13  1  0  0  0  0
 11 14  1  0  0  0  0
 14 15  1  0  0  0  0
 14 16  1  0  0  0  0
 14 17  1  0  0  0  0
 17 18  1  0  0  0  0
 17 19  1  0  0  0  0
 17 20  1  0  0  0  0
 20 21  1  0  0  0  0
 20 22  1  0  0  0  0
 20 23  1  0  0  0  0
 23 24  1  0  0  0  0
 23 25  1  0  0  0  0
 26 27  2  0  0  0  0
 26 28  1  0  0  0  0
 28 29  1  0  0  0  0
 28 30  1  0  0  0  0
 30 31  1  0  0  0  0
 30 32  1  0  0  0  0
 30 33  1  0  0  0  0
M  END
$$$$

  -OEChem-01062216083D

 33 32  0     1  0  0  0  0  0999 V2000
   -3.8037   -2.2044    1.3015 H   0  0  0  0  0  0  0  0  0  0  0  0
   -3.7457   -1.1762    0.9329 C   0  0  0  0  0  0  0  0  0  0  0  0
   -4.0855   -0.5028    1.7232 H   0  0  0  0  0  0  0  0  0  0  0  0
   -4.4024   -1.0743    0.0656 H   0  0  0  0  0  0  0  0  0  0  0  0
   -2.3172   -0.8416    0.5471 C   0  0  0  0  0  0  0  0  0  0  0  0
   -1.5000   -1.7415    0.4739 O   0  0  0  0  0  0  0  0  0  0  0  0
   -2.0254    0.4392    0.1114 N   0  0  0  0  0  0  0  0  0  0  0  0
   -2.8318    1.0543    0.1280 H   0  0  0  0  0  0  0  0  0  0  0  0
   -0.7219    1.1291    0.2400 C   0  0  1  0  0  0  0  0  0  0  0  0
   -0.5005    1.5886   -0.7274 H   0  0  0  0  0  0  0  0  0  0  0  0
   -0.8844    2.2540    1.2824 C   0  0  0  0  0  0  0  0  0  0  0  0
   -1.2741    1.8326    2.2160 H   0  0  0  0  0  0  0  0  0  0  0  0
    0.1001    2.6813    1.5033 H   0  0  0  0  0  0  0  0  0  0  0  0
   -1.8046    3.3813    0.7899 C   0  0  0  0  0  0  0  0  0  0  0  0
   -1.4034    3.8047   -0.1372 H   0  0  0  0  0  0  0  0  0  0  0  0
   -2.8030    2.9865    0.5784 H   0  0  0  0  0  0  0  0  0  0  0  0
   -1.9104    4.4813    1.8517 C   0  0  0  0  0  0  0  0  0  0  0  0
   -2.2916    4.0536    2.7847 H   0  0  0  0  0  0  0  0  0  0  0  0
   -0.9173    4.8968    2.0530 H   0  0  0  0  0  0  0  0  0  0  0  0
   -2.8406    5.5996    1.3908 C   0  0  0  0  0  0  0  0  0  0  0  0
   -2.4559    6.0544    0.4713 H   0  0  0  0  0  0  0  0  0  0  0  0
   -3.8370    5.1959    1.1803 H   0  0  0  0  0  0  0  0  0  0  0  0
   -2.9204    6.6067    2.4525 N   0  0  0  0  0  0  0  0  0  0  0  0
   -3.5459    7.3702    2.1945 H   0  0  0  0  0  0  0  0  0  0  0  0
   -3.2031    6.1871    3.3385 H   0  0  0  0  0  0  0  0  0  0  0  0
    0.5271    0.2769    0.5948 C   0  0  0  0  0  0  0  0  0  0  0  0
    0.7172   -0.0795    1.7527 O   0  0  0  0  0  0  0  0  0  0  0  0
    1.5993    0.2389   -0.2801 N   0  0  0  0  0  0  0  0  0  0  0  0
    1.4108    0.4825   -1.2469 H   0  0  0  0  0  0  0  0  0  0  0  0
    2.8408   -0.4606    0.0295 C   0  0  0  0  0  0  0  0  0  0  0  0
    2.6422   -1.5168    0.2407 H   0  0  0  0  0  0  0  0  0  0  0  0
    3.5308   -0.3998   -0.8173 H   0  0  0  0  0  0  0  0  0  0  0  0
    3.3264   -0.0119    0.9025 H   0  0  0  0  0  0  0  0  0  0  0  0
  1  2  1  0  0  0  0
  2  3  1  0  0  0  0
  2  4  1  0  0  0  0
  2  5  1  0  0  0  0
  5  6  2  0  0  0  0
  5  7  1  0  0  0  0
  7  8  1  0  0  0  0
  7  9  1  0  0  0  0
  9 10  1  0  0  0  0
  9 11  1  0  0  0  0
  9 26  1  0  0  0  0
 11 12  1  0  0  0  0
 11 13  1  0  0  0  0
 11 14  1  0  0  0  0
 14 15  1  0  0  0  0
 14 16  1  0  0  0  0
 14 17  1  0  0  0  0
 17 18  1  0  0  0  0
 17 19  1  0  0  0  0
 17 20  1  0  0  0  0
 20 21  1  0  0  0  0
 20 22  1  0  0  0  0
 20 23  1  0  0  0  0
 23 24  1  0  0  0  0
 23 25  1  0  0  0  0
 26 27  2  0  0  0  0
 26 28  1  0  0  0  0
 28 29  1  0  0  0  0
 28 30  1  0  0  0  0
 30 31  1  0  0  0  0
 30 32  1  0  0  0  0
 30 33  1  0  0  0  0
M  END
$$$$

  -OEChem-01062216083D

 33 32  0     1  0  0  0  0  0999 V2000
   -3.7667   -2.1813    1.3534 H   0  0  0  0  0  0  0  0  0  0  0  0
   -3.7189   -1.1483    0.9972 C   0  0  0  0  0  0  0  0  0  0  0  0
   -3.9661   -0.4814    1.8266 H   0  0  0  0  0  0  0  0  0  0  0  0
   -4.4512   -1.0157    0.1974 H   0  0  0  0  0  0  0  0  0  0  0  0
   -2.3251   -0.8406    0.4833 C   0  0  0  0  0  0  0  0  0  0  0  0
   -1.5575   -1.7608    0.2632 O   0  0  0  0  0  0  0  0  0  0  0  0
   -2.0332    0.4413    0.0535 N   0  0  0  0  0  0  0  0  0  0  0  0
   -2.8293    1.0643    0.1344 H   0  0  0  0  0  0  0  0  0  0  0  0
   -0.7244    1.1165    0.2027 C   0  0  1  0  0  0  0  0  0  0  0  0
   -0.4913    1.5817   -0.7593 H   0  0  0  0  0  0  0  0  0  0  0  0
   -0.8884    2.2271    1.2595 C   0  0  0  0  0  0  0  0  0  0  0  0
   -1.2909    1.7956    2.1827 H   0  0  0  0  0  0  0  0  0  0  0  0
    0.0969    2.6435    1.4975 H   0  0  0  0  0  0  0  0  0  0  0  0
   -1.7952    3.3679    0.7725 C   0  0  0  0  0  0  0  0  0  0  0  0
   -1.3809    3.8007   -0.1442 H   0  0  0  0  0  0  0  0  0  0  0  0
   -2.7940    2.9838    0.5450 H   0  0  0  0  0  0  0  0  0  0  0  0
   -1.9062    4.4556    1.8459 C   0  0  0  0  0  0  0  0  0  0  0  0
   -2.3019    4.0197    2.7693 H   0  0  0  0  0  0  0  0  0  0  0  0
   -0.9132    4.8627    2.0641 H   0  0  0  0  0  0  0  0  0  0  0  0
   -2.8243    5.5839    1.3846 C   0  0  0  0  0  0  0  0  0  0  0  0
   -2.4251    6.0458    0.4747 H   0  0  0  0  0  0  0  0  0  0  0  0
   -3.8205    5.1885    1.1569 H   0  0  0  0  0  0  0  0  0  0  0  0
   -2.9124    6.5810    2.4548 N   0  0  0  0  0  0  0  0  0  0  0  0
   -3.5200    7.3569    2.1910 H   0  0  0  0  0  0  0  0  0  0  0  0
   -3.2211    6.1566    3.3298 H   0  0  0  0  0  0  0  0  0  0  0  0
    0.5176    0.2588    0.5680 C   0  0  0  0  0  0  0  0  0  0  0  0
    0.5900   -0.2671    1.6733 O   0  0  0  0  0  0  0  0  0  0  0  0
    1.7037    0.4594   -0.1184 N   0  0  0  0  0  0  0  0  0  0  0  0
    1.6433    0.8963   -1.0322 H   0  0  0  0  0  0  0  0  0  0  0  0
    2.9613   -0.1672    0.2726 C   0  0  0  0  0  0  0  0  0  0  0  0
    2.8505   -1.2562    0.3129 H   0  0  0  0  0  0  0  0  0  0  0  0
    3.7459    0.0744   -0.4507 H   0  0  0  0  0  0  0  0  0  0  0  0
    3.2774    0.1916    1.2578 H   0  0  0  0  0  0  0  0  0  0  0  0
  1  2  1  0  0  0  0
  2  3  1  0  0  0  0
  2  4  1  0  0  0  0
  2  5  1  0  0  0  0
  5  6  2  0  0  0  0
  5  7  1  0  0  0  0
  7  8  1  0  0  0  0
  7  9  1  0  0  0  0
  9 10  1  0  0  0  0
  9 11  1  0  0  0  0
  9 26  1  0  0  0  0
 11 12  1  0  0  0  0
 11 13  1  0  0  0  0
 11 14  1  0  0  0  0
 14 15  1  0  0  0  0
 14 16  1  0  0  0  0
 14 17  1  0  0  0  0
 17 18  1  0  0  0  0
 17 19  1  0  0  0  0
 17 20  1  0  0  0  0
 20 21  1  0  0  0  0
 20 22  1  0  0  0  0
 20 23  1  0  0  0  0
 23 24  1  0  0  0  0
 23 25  1  0  0  0  0
 26 27  2  0  0  0  0
 26 28  1  0  0  0  0
 28 29  1  0  0  0  0
 28 30  1  0  0  0  0
 30 31  1  0  0  0  0
 30 32  1  0  0  0  0
 30 33  1  0  0  0  0
M  END
$$$$

  -OEChem-01062216083D

 33 32  0     1  0  0  0  0  0999 V2000
   -3.7549   -2.1721    1.3493 H   0  0  0  0  0  0  0  0  0  0  0  0
   -3.6846   -1.1187    1.0638 C   0  0  0  0  0  0  0  0  0  0  0  0
   -3.8147   -0.5052    1.9585 H   0  0  0  0  0  0  0  0  0  0  0  0
   -4.4811   -0.8916    0.3515 H   0  0  0  0  0  0  0  0  0  0  0  0
   -2.3309   -0.8398    0.4384 C   0  0  0  0  0  0  0  0  0  0  0  0
   -1.6297   -1.7744    0.0922 O   0  0  0  0  0  0  0  0  0  0  0  0
   -2.0326    0.4407    0.0114 N   0  0  0  0  0  0  0  0  0  0  0  0
   -2.8170    1.0704    0.1387 H   0  0  0  0  0  0  0  0  0  0  0  0
   -0.7184    1.1030    0.1736 C   0  0  1  0  0  0  0  0  0  0  0  0
   -0.4757    1.5704   -0.7851 H   0  0  0  0  0  0  0  0  0  0  0  0
   -0.8882    2.2041    1.2390 C   0  0  0  0  0  0  0  0  0  0  0  0
   -1.3019    1.7657    2.1541 H   0  0  0  0  0  0  0  0  0  0  0  0
    0.0950    2.6167    1.4918 H   0  0  0  0  0  0  0  0  0  0  0  0
   -1.7853    3.3522    0.7514 C   0  0  0  0  0  0  0  0  0  0  0  0
   -1.3603    3.7898   -0.1582 H   0  0  0  0  0  0  0  0  0  0  0  0
   -2.7834    2.9739    0.5099 H   0  0  0  0  0  0  0  0  0  0  0  0
   -1.9041    4.4318    1.8321 C   0  0  0  0  0  0  0  0  0  0  0  0
   -2.3115    3.9906    2.7476 H   0  0  0  0  0  0  0  0  0  0  0  0
   -0.9123    4.8340    2.0640 H   0  0  0  0  0  0  0  0  0  0  0  0
   -2.8130    5.5668    1.3691 C   0  0  0  0  0  0  0  0  0  0  0  0
   -2.4013    6.0341    0.4674 H   0  0  0  0  0  0  0  0  0  0  0  0
   -3.8079    5.1768    1.1266 H   0  0  0  0  0  0  0  0  0  0  0  0
   -2.9097    6.5561    2.4458 N   0  0  0  0  0  0  0  0  0  0  0  0
   -3.5044    7.3404    2.1775 H   0  0  0  0  0  0  0  0  0  0  0  0
   -3.2400    6.1279    3.3109 H   0  0  0  0  0  0  0  0  0  0  0  0
    0.5241    0.2489    0.5481 C   0  0  0  0  0  0  0  0  0  0  0  0
    0.5102   -0.4494    1.5550 O   0  0  0  0  0  0  0  0  0  0  0  0
    1.7694    0.6603    0.1012 N   0  0  0  0  0  0  0  0  0  0  0  0
    1.7959    1.2906   -0.6936 H   0  0  0  0  0  0  0  0  0  0  0  0
    3.0215    0.0809    0.5753 C   0  0  0  0  0  0  0  0  0  0  0  0
    3.0274   -1.0024    0.4149 H   0  0  0  0  0  0  0  0  0  0  0  0
    3.8681    0.5148    0.0349 H   0  0  0  0  0  0  0  0  0  0  0  0
    3.1552    0.2796    1.6439 H   0  0  0  0  0  0  0  0  0  0  0  0
  1  2  1  0  0  0  0
  2  3  1  0  0  0  0
  2  4  1  0  0  0  0
  2  5  1  0  0  0  0
  5  6  2  0  0  0  0
  5  7  1  0  0  0  0
  7  8  1  0  0  0  0
  7  9  1  0  0  0  0
  9 10  1  0  0  0  0
  9 11  1  0  0  0  0
  9 26  1  0  0  0  0
 11 12  1  0  0  0  0
 11 13  1  0  0  0  0
 11 14  1  0  0  0  0
 14 15  1  0  0  0  0
 14 16  1  0  0  0  0
 14 17  1  0  0  0  0
 17 18  1  0  0  0  0
 17 19  1  0  0  0  0
 17 20  1  0  0  0  0
 20 21  1  0  0  0  0
 20 22  1  0  0  0  0
 20 23  1  0  0  0  0
 23 24  1  0  0  0  0
 23 25  1  0  0  0  0
 26 27  2  0  0  0  0
 26 28  1  0  0  0  0
 28 29  1  0  0  0  0
 28 30  1  0  0  0  0
 30 31  1  0  0  0  0
 30 32  1  0  0  0  0
 30 33  1  0  0  0  0
M  END
$$$$

  -OEChem-01062216083D

 33 32  0     1  0  0  0  0  0999 V2000
   -3.5386   -2.5647    1.0869 H   0  0  0  0  0  0  0  0  0  0  0  0
   -3.4358   -1.6681    0.4690 C   0  0  0  0  0  0  0  0  0  0  0  0
   -4.4153   -1.1962    0.3627 H   0  0  0  0  0  0  0  0  0  0  0  0
   -3.0681   -1.9642   -0.5162 H   0  0  0  0  0  0  0  0  0  0  0  0
   -2.4599   -0.7033    1.1153 C   0  0  0  0  0  0  0  0  0  0  0  0
   -2.1308   -0.8685    2.2785 O   0  0  0  0  0  0  0  0  0  0  0  0
   -2.1853    0.5074    0.5078 N   0  0  0  0  0  0  0  0  0  0  0  0
   -2.7206    0.6290   -0.3450 H   0  0  0  0  0  0  0  0  0  0  0  0
   -0.8438    1.1380    0.4642 C   0  0  1  0  0  0  0  0  0  0  0  0
   -0.6886    1.5073   -0.5538 H   0  0  0  0  0  0  0  0  0  0  0  0
   -0.8985    2.3382    1.4321 C   0  0  0  0  0  0  0  0  0  0  0  0
   -1.2367    1.9915    2.4155 H   0  0  0  0  0  0  0  0  0  0  0  0
    0.1037    2.7587    1.5624 H   0  0  0  0  0  0  0  0  0  0  0  0
   -1.8251    3.4536    0.9250 C   0  0  0  0  0  0  0  0  0  0  0  0
   -1.4878    3.7959   -0.0589 H   0  0  0  0  0  0  0  0  0  0  0  0
   -2.8458    3.0715    0.8198 H   0  0  0  0  0  0  0  0  0  0  0  0
   -1.8255    4.6302    1.9065 C   0  0  0  0  0  0  0  0  0  0  0  0
   -2.1475    4.2826    2.8936 H   0  0  0  0  0  0  0  0  0  0  0  0
   -0.8112    5.0309    2.0042 H   0  0  0  0  0  0  0  0  0  0  0  0
   -2.7606    5.7373    1.4301 C   0  0  0  0  0  0  0  0  0  0  0  0
   -2.4345    6.1119    0.4535 H   0  0  0  0  0  0  0  0  0  0  0  0
   -3.7792    5.3479    1.3229 H   0  0  0  0  0  0  0  0  0  0  0  0
   -2.7375    6.8212    2.4165 N   0  0  0  0  0  0  0  0  0  0  0  0
   -3.3678    7.5780    2.1506 H   0  0  0  0  0  0  0  0  0  0  0  0
   -2.9616    6.4725    3.3491 H   0  0  0  0  0  0  0  0  0  0  0  0
    0.4335    0.3066    0.7948 C   0  0  0  0  0  0  0  0  0  0  0  0
    0.4220   -0.9090    0.9292 O   0  0  0  0  0  0  0  0  0  0  0  0
    1.6587    0.8502    0.4394 N   0  0  0  0  0  0  0  0  0  0  0  0
    1.6894    1.8471    0.2510 H   0  0  0  0  0  0  0  0  0  0  0  0
    2.9159    0.1098    0.4816 C   0  0  0  0  0  0  0  0  0  0  0  0
    2.9012   -0.7118   -0.2421 H   0  0  0  0  0  0  0  0  0  0  0  0
    3.7530    0.7706    0.2369 H   0  0  0  0  0  0  0  0  0  0  0  0
    3.0836   -0.3042    1.4816 H   0  0  0  0  0  0  0  0  0  0  0  0
  1  2  1  0  0  0  0
  2  3  1  0  0  0  0
  2  4  1  0  0  0  0
  2  5  1  0  0  0  0
  5  6  2  0  0  0  0
  5  7  1  0  0  0  0
  7  8  1  0  0  0  0
  7  9  1  0  0  0  0
  9 10  1  0  0  0  0
  9 11  1  0  0  0  0
  9 26  1  0  0  0  0
 11 12  1  0  0  0  0
 11 13  1  0  0  0  0
 11 14  1  0  0  0  0
 14 15  1  0  0  0  0
 14 16  1  0  0  0  0
 14 17  1  0  0  0  0
 17 18  1  0  0  0  0
 17 19  1  0  0  0  0
 17 20  1  0  0  0  0
 20 21  1  0  0  0  0
 20 22  1  0  0  0  0
 20 23  1  0  0  0  0
 23 24  1  0  0  0  0
 23 25  1  0  0  0  0
 26 27  2  0  0  0  0
 26 28  1  0  0  0  0
 28 29  1  0  0  0  0
 28 30  1  0  0  0  0
 30 31  1  0  0  0  0
 30 32  1  0  0  0  0
 30 33  1  0  0  0  0
M  END
$$$$

  -OEChem-01062216083D

 33 32  0     1  0  0  0  0  0999 V2000
   -3.4485   -2.5816    1.0543 H   0  0  0  0  0  0  0  0  0  0  0  0
   -3.4249   -1.6496    0.4829 C   0  0  0  0  0  0  0  0  0  0  0  0
   -4.4040   -1.1698    0.5468 H   0  0  0  0  0  0  0  0  0  0  0  0
   -3.2057   -1.8862   -0.5610 H   0  0  0  0  0  0  0  0  0  0  0  0
   -2.3551   -0.7284    1.0375 C   0  0  0  0  0  0  0  0  0  0  0  0
   -1.7910   -1.0145    2.0825 O   0  0  0  0  0  0  0  0  0  0  0  0
   -2.1435    0.5107    0.4576 N   0  0  0  0  0  0  0  0  0  0  0  0
   -2.7113    0.6586   -0.3702 H   0  0  0  0  0  0  0  0  0  0  0  0
   -0.8191    1.1734    0.4325 C   0  0  1  0  0  0  0  0  0  0  0  0
   -0.7606    1.7833   -0.4738 H   0  0  0  0  0  0  0  0  0  0  0  0
   -0.7465    2.1078    1.6607 C   0  0  0  0  0  0  0  0  0  0  0  0
   -0.9660    1.5357    2.5691 H   0  0  0  0  0  0  0  0  0  0  0  0
    0.2646    2.5109    1.7666 H   0  0  0  0  0  0  0  0  0  0  0  0
   -1.7189    3.2903    1.5414 C   0  0  0  0  0  0  0  0  0  0  0  0
   -1.4969    3.8614    0.6338 H   0  0  0  0  0  0  0  0  0  0  0  0
   -2.7464    2.9200    1.4670 H   0  0  0  0  0  0  0  0  0  0  0  0
   -1.5966    4.2034    2.7658 C   0  0  0  0  0  0  0  0  0  0  0  0
   -1.8036    3.6262    3.6730 H   0  0  0  0  0  0  0  0  0  0  0  0
   -0.5753    4.5911    2.8379 H   0  0  0  0  0  0  0  0  0  0  0  0
   -2.5733    5.3717    2.6769 C   0  0  0  0  0  0  0  0  0  0  0  0
   -2.3629    5.9734    1.7858 H   0  0  0  0  0  0  0  0  0  0  0  0
   -3.6001    4.9968    2.6004 H   0  0  0  0  0  0  0  0  0  0  0  0
   -2.4245    6.1911    3.8828 N   0  0  0  0  0  0  0  0  0  0  0  0
   -3.0756    6.9762    3.8796 H   0  0  0  0  0  0  0  0  0  0  0  0
   -2.5396    5.6269    4.7249 H   0  0  0  0  0  0  0  0  0  0  0  0
    0.4322    0.2465    0.3899 C   0  0  0  0  0  0  0  0  0  0  0  0
    0.3498   -0.8957   -0.0480 O   0  0  0  0  0  0  0  0  0  0  0  0
    1.6955    0.8159    0.3701 N   0  0  0  0  0  0  0  0  0  0  0  0
    1.7757    1.7803    0.6763 H   0  0  0  0  0  0  0  0  0  0  0  0
    2.9171    0.0578    0.1222 C   0  0  0  0  0  0  0  0  0  0  0  0
    2.9120   -0.3562   -0.8916 H   0  0  0  0  0  0  0  0  0  0  0  0
    3.7920    0.7064    0.2258 H   0  0  0  0  0  0  0  0  0  0  0  0
    3.0102   -0.7653    0.8387 H   0  0  0  0  0  0  0  0  0  0  0  0
  1  2  1  0  0  0  0
  2  3  1  0  0  0  0
  2  4  1  0  0  0  0
  2  5  1  0  0  0  0
  5  6  2  0  0  0  0
  5  7  1  0  0  0  0
  7  8  1  0  0  0  0
  7  9  1  0  0  0  0
  9 10  1  0  0  0  0
  9 11  1  0  0  0  0
  9 26  1  0  0  0  0
 11 12  1  0  0  0  0
 11 13  1  0  0  0  0
 11 14  1  0  0  0  0
 14 15  1  0  0  0  0
 14 16  1  0  0  0  0
 14 17  1  0  0  0  0
 17 18  1  0  0  0  0
 17 19  1  0  0  0  0
 17 20  1  0  0  0  0
 20 21  1  0  0  0  0
 20 22  1  0  0  0  0
 20 23  1  0  0  0  0
 23 24  1  0  0  0  0
 23 25  1  0  0  0  0
 26 27  2  0  0  0  0
 26 28  1  0  0  0  0
 28 29  1  0  0  0  0
 28 30  1  0  0  0  0
 30 31  1  0  0  0  0
 30 32  1  0  0  0  0
 30 33  1  0  0  0  0
M  END
$$$$

  -OEChem-01062216083D

 33 32  0     1  0  0  0  0  0999 V2000
   -3.4008   -2.5790    1.0350 H   0  0  0  0  0  0  0  0  0  0  0  0
   -3.4176   -1.6223    0.5055 C   0  0  0  0  0  0  0  0  0  0  0  0
   -4.3896   -1.1484    0.6607 H   0  0  0  0  0  0  0  0  0  0  0  0
   -3.2742   -1.8112   -0.5611 H   0  0  0  0  0  0  0  0  0  0  0  0
   -2.3116   -0.7226    1.0230 C   0  0  0  0  0  0  0  0  0  0  0  0
   -1.6891   -1.0426    2.0244 O   0  0  0  0  0  0  0  0  0  0  0  0
   -2.1197    0.5261    0.4569 N   0  0  0  0  0  0  0  0  0  0  0  0
   -2.7081    0.6896   -0.3535 H   0  0  0  0  0  0  0  0  0  0  0  0
   -0.8037    1.2039    0.4261 C   0  0  1  0  0  0  0  0  0  0  0  0
   -0.7495    1.8194   -0.4769 H   0  0  0  0  0  0  0  0  0  0  0  0
   -0.7374    2.1344    1.6592 C   0  0  0  0  0  0  0  0  0  0  0  0
   -0.9417    1.5556    2.5668 H   0  0  0  0  0  0  0  0  0  0  0  0
    0.2658    2.5575    1.7585 H   0  0  0  0  0  0  0  0  0  0  0  0
   -1.7268    3.3039    1.5473 C   0  0  0  0  0  0  0  0  0  0  0  0
   -1.5159    3.8799    0.6401 H   0  0  0  0  0  0  0  0  0  0  0  0
   -2.7495    2.9196    1.4750 H   0  0  0  0  0  0  0  0  0  0  0  0
   -1.6163    4.2179    2.7727 C   0  0  0  0  0  0  0  0  0  0  0  0
   -1.8123    3.6374    3.6801 H   0  0  0  0  0  0  0  0  0  0  0  0
   -0.6010    4.6219    2.8430 H   0  0  0  0  0  0  0  0  0  0  0  0
   -2.6126    5.3702    2.6835 C   0  0  0  0  0  0  0  0  0  0  0  0
   -2.4104    5.9731    1.7914 H   0  0  0  0  0  0  0  0  0  0  0  0
   -3.6330    4.9788    2.6063 H   0  0  0  0  0  0  0  0  0  0  0  0
   -2.4807    6.1961    3.8872 N   0  0  0  0  0  0  0  0  0  0  0  0
   -3.1384    6.9758    3.8752 H   0  0  0  0  0  0  0  0  0  0  0  0
   -2.5978    5.6351    4.7313 H   0  0  0  0  0  0  0  0  0  0  0  0
    0.4335    0.2597    0.3595 C   0  0  0  0  0  0  0  0  0  0  0  0
    0.3586   -0.7847   -0.2797 O   0  0  0  0  0  0  0  0  0  0  0  0
    1.7060    0.7327    0.6368 N   0  0  0  0  0  0  0  0  0  0  0  0
    1.7733    1.5993    1.1605 H   0  0  0  0  0  0  0  0  0  0  0  0
    2.9119   -0.0676    0.4565 C   0  0  0  0  0  0  0  0  0  0  0  0
    3.0421   -0.3332   -0.5978 H   0  0  0  0  0  0  0  0  0  0  0  0
    3.7913    0.4963    0.7812 H   0  0  0  0  0  0  0  0  0  0  0  0
    2.8525   -0.9878    1.0472 H   0  0  0  0  0  0  0  0  0  0  0  0
  1  2  1  0  0  0  0
  2  3  1  0  0  0  0
  2  4  1  0  0  0  0
  2  5  1  0  0  0  0
  5  6  2  0  0  0  0
  5  7  1  0  0  0  0
  7  8  1  0  0  0  0
  7  9  1  0  0  0  0
  9 10  1  0  0  0  0
  9 11  1  0  0  0  0
  9 26  1  0  0  0  0
 11 12  1  0  0  0  0
 11 13  1  0  0  0  0
 11 14  1  0  0  0  0
 14 15  1  0  0  0  0
 14 16  1  0  0  0  0
 14 17  1  0  0  0  0
 17 18  1  0  0  0  0
 17 19  1  0  0  0  0
 17 20  1  0  0  0  0
 20 21  1  0  0  0  0
 20 22  1  0  0  0  0
 20 23  1  0  0  0  0
 23 24  1  0  0  0  0
 23 25  1  0  0  0  0
 26 27  2  0  0  0  0
 26 28  1  0  0  0  0
 28 29  1  0  0  0  0
 28 30  1  0  0  0  0
 30 31  1  0  0  0  0
 30 32  1  0  0  0  0
 30 33  1  0  0  0  0
M  END
$$$$

  -OEChem-01062216083D

 33 32  0     1  0  0  0  0  0999 V2000
   -3.3630   -2.5800    1.0256 H   0  0  0  0  0  0  0  0  0  0  0  0
   -3.3956   -1.6150    0.5120 C   0  0  0  0  0  0  0  0  0  0  0  0
   -4.3639   -1.1456    0.7009 H   0  0  0  0  0  0  0  0  0  0  0  0
   -3.2807   -1.7861   -0.5611 H   0  0  0  0  0  0  0  0  0  0  0  0
   -2.2777   -0.7211    1.0130 C   0  0  0  0  0  0  0  0  0  0  0  0
   -1.6165   -1.0620    1.9822 O   0  0  0  0  0  0  0  0  0  0  0  0
   -2.1045    0.5350    0.4578 N   0  0  0  0  0  0  0  0  0  0  0  0
   -2.7100    0.7097   -0.3378 H   0  0  0  0  0  0  0  0  0  0  0  0
   -0.7981    1.2292    0.4251 C   0  0  1  0  0  0  0  0  0  0  0  0
   -0.7507    1.8455   -0.4775 H   0  0  0  0  0  0  0  0  0  0  0  0
   -0.7357    2.1609    1.6565 C   0  0  0  0  0  0  0  0  0  0  0  0
   -0.9273    1.5816    2.5666 H   0  0  0  0  0  0  0  0  0  0  0  0
    0.2630    2.5984    1.7439 H   0  0  0  0  0  0  0  0  0  0  0  0
   -1.7389    3.3187    1.5470 C   0  0  0  0  0  0  0  0  0  0  0  0
   -1.5394    3.8955    0.6379 H   0  0  0  0  0  0  0  0  0  0  0  0
   -2.7573    2.9223    1.4803 H   0  0  0  0  0  0  0  0  0  0  0  0
   -1.6319    4.2344    2.7712 C   0  0  0  0  0  0  0  0  0  0  0  0
   -1.8171    3.6523    3.6798 H   0  0  0  0  0  0  0  0  0  0  0  0
   -0.6209    4.6497    2.8359 H   0  0  0  0  0  0  0  0  0  0  0  0
   -2.6401    5.3763    2.6884 C   0  0  0  0  0  0  0  0  0  0  0  0
   -2.4499    5.9825    1.7957 H   0  0  0  0  0  0  0  0  0  0  0  0
   -3.6571    4.9746    2.6175 H   0  0  0  0  0  0  0  0  0  0  0  0
   -2.5070    6.2012    3.8927 N   0  0  0  0  0  0  0  0  0  0  0  0
   -3.1625    6.9826    3.8810 H   0  0  0  0  0  0  0  0  0  0  0  0
   -2.6256    5.6397    4.7363 H   0  0  0  0  0  0  0  0  0  0  0  0
    0.4320    0.2786    0.3429 C   0  0  0  0  0  0  0  0  0  0  0  0
    0.3970   -0.6532   -0.4541 O   0  0  0  0  0  0  0  0  0  0  0  0
    1.6599    0.6107    0.8912 N   0  0  0  0  0  0  0  0  0  0  0  0
    1.6627    1.3406    1.5964 H   0  0  0  0  0  0  0  0  0  0  0  0
    2.8357   -0.2440    0.7740 C   0  0  0  0  0  0  0  0  0  0  0  0
    3.1198   -0.3650   -0.2767 H   0  0  0  0  0  0  0  0  0  0  0  0
    3.6803    0.1995    1.3100 H   0  0  0  0  0  0  0  0  0  0  0  0
    2.6345   -1.2327    1.2003 H   0  0  0  0  0  0  0  0  0  0  0  0
  1  2  1  0  0  0  0
  2  3  1  0  0  0  0
  2  4  1  0  0  0  0
  2  5  1  0  0  0  0
  5  6  2  0  0  0  0
  5  7  1  0  0  0  0
  7  8  1  0  0  0  0
  7  9  1  0  0  0  0
  9 10  1  0  0  0  0
  9 11  1  0  0  0  0
  9 26  1  0  0  0  0
 11 12  1  0  0  0  0
 11 13  1  0  0  0  0
 11 14  1  0  0  0  0
 14 15  1  0  0  0  0
 14 16  1  0  0  0  0
 14 17  1  0  0  0  0
 17 18  1  0  0  0  0
 17 19  1  0  0  0  0
 17 20  1  0  0  0  0
 20 21  1  0  0  0  0
 20 22  1  0  0  0  0
 20 23  1  0  0  0  0
 23 24  1  0  0  0  0
 23 25  1  0  0  0  0
 26 27  2  0  0  0  0
 26 28  1  0  0  0  0
 28 29  1  0  0  0  0
 28 30  1  0  0  0  0
 30 31  1  0  0  0  0
 30 32  1  0  0  0  0
 30 33  1  0  0  0  0
M  END
$$$$

  -OEChem-01062216083D

 33 32  0     1  0  0  0  0  0999 V2000
   -3.3430   -2.5851    1.0244 H   0  0  0  0  0  0  0  0  0  0  0  0
   -3.3822   -1.6191    0.5129 C   0  0  0  0  0  0  0  0  0  0  0  0
   -4.3469   -1.1492    0.7180 H   0  0  0  0  0  0  0  0  0  0  0  0
   -3.2850   -1.7884   -0.5623 H   0  0  0  0  0  0  0  0  0  0  0  0
   -2.2557   -0.7267    0.9983 C   0  0  0  0  0  0  0  0  0  0  0  0
   -1.5664   -1.0818    1.9425 O   0  0  0  0  0  0  0  0  0  0  0  0
   -2.0958    0.5349    0.4518 N   0  0  0  0  0  0  0  0  0  0  0  0
   -2.7130    0.7195   -0.3326 H   0  0  0  0  0  0  0  0  0  0  0  0
   -0.7979    1.2436    0.4221 C   0  0  1  0  0  0  0  0  0  0  0  0
   -0.7552    1.8611   -0.4804 H   0  0  0  0  0  0  0  0  0  0  0  0
   -0.7353    2.1771    1.6509 C   0  0  0  0  0  0  0  0  0  0  0  0
   -0.9181    1.5983    2.5631 H   0  0  0  0  0  0  0  0  0  0  0  0
    0.2627    2.6198    1.7277 H   0  0  0  0  0  0  0  0  0  0  0  0
   -1.7456    3.3286    1.5465 C   0  0  0  0  0  0  0  0  0  0  0  0
   -1.5533    3.9067    0.6365 H   0  0  0  0  0  0  0  0  0  0  0  0
   -2.7622    2.9267    1.4852 H   0  0  0  0  0  0  0  0  0  0  0  0
   -1.6358    4.2449    2.7698 C   0  0  0  0  0  0  0  0  0  0  0  0
   -1.8123    3.6619    3.6795 H   0  0  0  0  0  0  0  0  0  0  0  0
   -0.6262    4.6653    2.8280 H   0  0  0  0  0  0  0  0  0  0  0  0
   -2.6506    5.3811    2.6931 C   0  0  0  0  0  0  0  0  0  0  0  0
   -2.4686    5.9881    1.7993 H   0  0  0  0  0  0  0  0  0  0  0  0
   -3.6660    4.9744    2.6281 H   0  0  0  0  0  0  0  0  0  0  0  0
   -2.5142    6.2064    3.8965 N   0  0  0  0  0  0  0  0  0  0  0  0
   -3.1666    6.9903    3.8839 H   0  0  0  0  0  0  0  0  0  0  0  0
   -2.6345    5.6465    4.7407 H   0  0  0  0  0  0  0  0  0  0  0  0
    0.4323    0.2965    0.3330 C   0  0  0  0  0  0  0  0  0  0  0  0
    0.4717   -0.5114   -0.5888 O   0  0  0  0  0  0  0  0  0  0  0  0
    1.5615    0.4614    1.1171 N   0  0  0  0  0  0  0  0  0  0  0  0
    1.4508    1.0355    1.9471 H   0  0  0  0  0  0  0  0  0  0  0  0
    2.6989   -0.4482    1.0557 C   0  0  0  0  0  0  0  0  0  0  0  0
    3.1438   -0.4410    0.0550 H   0  0  0  0  0  0  0  0  0  0  0  0
    3.4655   -0.1436    1.7747 H   0  0  0  0  0  0  0  0  0  0  0  0
    2.3842   -1.4698    1.2944 H   0  0  0  0  0  0  0  0  0  0  0  0
  1  2  1  0  0  0  0
  2  3  1  0  0  0  0
  2  4  1  0  0  0  0
  2  5  1  0  0  0  0
  5  6  2  0  0  0  0
  5  7  1  0  0  0  0
  7  8  1  0  0  0  0
  7  9  1  0  0  0  0
  9 10  1  0  0  0  0
  9 11  1  0  0  0  0
  9 26  1  0  0  0  0
 11 12  1  0  0  0  0
 11 13  1  0  0  0  0
 11 14  1  0  0  0  0
 14 15  1  0  0  0  0
 14 16  1  0  0  0  0
 14 17  1  0  0  0  0
 17 18  1  0  0  0  0
 17 19  1  0  0  0  0
 17 20  1  0  0  0  0
 20 21  1  0  0  0  0
 20 22  1  0  0  0  0
 20 23  1  0  0  0  0
 23 24  1  0  0  0  0
 23 25  1  0  0  0  0
 26 27  2  0  0  0  0
 26 28  1  0  0  0  0
 28 29  1  0  0  0  0
 28 30  1  0  0  0  0
 30 31  1  0  0  0  0
 30 32  1  0  0  0  0
 30 33  1  0  0  0  0
M  END
$$$$

  -OEChem-01062216083D

 33 32  0     1  0  0  0  0  0999 V2000
   -3.3780   -2.5649    1.0200 H   0  0  0  0  0  0  0  0  0  0  0  0
   -3.4148   -1.5892    0.5274 C   0  0  0  0  0  0  0  0  0  0  0  0
   -4.3580   -1.1003    0.7824 H   0  0  0  0  0  0  0  0  0  0  0  0
   -3.3691   -1.7414   -0.5538 H   0  0  0  0  0  0  0  0  0  0  0  0
   -2.2474   -0.7325    0.9799 C   0  0  0  0  0  0  0  0  0  0  0  0
   -1.5349   -1.1160    1.8951 O   0  0  0  0  0  0  0  0  0  0  0  0
   -2.0778    0.5297    0.4393 N   0  0  0  0  0  0  0  0  0  0  0  0
   -2.7100    0.7377   -0.3273 H   0  0  0  0  0  0  0  0  0  0  0  0
   -0.7844    1.2449    0.4172 C   0  0  1  0  0  0  0  0  0  0  0  0
   -0.7419    1.8645   -0.4839 H   0  0  0  0  0  0  0  0  0  0  0  0
   -0.7265    2.1756    1.6470 C   0  0  0  0  0  0  0  0  0  0  0  0
   -0.9110    1.5960    2.5582 H   0  0  0  0  0  0  0  0  0  0  0  0
    0.2737    2.6150    1.7242 H   0  0  0  0  0  0  0  0  0  0  0  0
   -1.7404    3.3234    1.5424 C   0  0  0  0  0  0  0  0  0  0  0  0
   -1.5490    3.9029    0.6331 H   0  0  0  0  0  0  0  0  0  0  0  0
   -2.7552    2.9178    1.4789 H   0  0  0  0  0  0  0  0  0  0  0  0
   -1.6367    4.2387    2.7667 C   0  0  0  0  0  0  0  0  0  0  0  0
   -1.8120    3.6546    3.6761 H   0  0  0  0  0  0  0  0  0  0  0  0
   -0.6290    4.6630    2.8267 H   0  0  0  0  0  0  0  0  0  0  0  0
   -2.6565    5.3706    2.6875 C   0  0  0  0  0  0  0  0  0  0  0  0
   -2.4749    5.9782    1.7941 H   0  0  0  0  0  0  0  0  0  0  0  0
   -3.6698    4.9593    2.6197 H   0  0  0  0  0  0  0  0  0  0  0  0
   -2.5287    6.1973    3.8909 N   0  0  0  0  0  0  0  0  0  0  0  0
   -3.1911    6.9729    3.8790 H   0  0  0  0  0  0  0  0  0  0  0  0
   -2.6414    5.6358    4.7351 H   0  0  0  0  0  0  0  0  0  0  0  0
    0.4510    0.3071    0.3344 C   0  0  0  0  0  0  0  0  0  0  0  0
    0.6025   -0.3543   -0.6864 O   0  0  0  0  0  0  0  0  0  0  0  0
    1.4355    0.2798    1.3074 N   0  0  0  0  0  0  0  0  0  0  0  0
    1.1780    0.6789    2.2052 H   0  0  0  0  0  0  0  0  0  0  0  0
    2.5400   -0.6701    1.2728 C   0  0  0  0  0  0  0  0  0  0  0  0
    3.1296   -0.5409    0.3591 H   0  0  0  0  0  0  0  0  0  0  0  0
    3.1987   -0.5143    2.1324 H   0  0  0  0  0  0  0  0  0  0  0  0
    2.1614   -1.6972    1.3060 H   0  0  0  0  0  0  0  0  0  0  0  0
  1  2  1  0  0  0  0
  2  3  1  0  0  0  0
  2  4  1  0  0  0  0
  2  5  1  0  0  0  0
  5  6  2  0  0  0  0
  5  7  1  0  0  0  0
  7  8  1  0  0  0  0
  7  9  1  0  0  0  0
  9 10  1  0  0  0  0
  9 11  1  0  0  0  0
  9 26  1  0  0  0  0
 11 12  1  0  0  0  0
 11 13  1  0  0  0  0
 11 14  1  0  0  0  0
 14 15  1  0  0  0  0
 14 16  1  0  0  0  0
 14 17  1  0  0  0  0
 17 18  1  0  0  0  0
 17 19  1  0  0  0  0
 17 20  1  0  0  0  0
 20 21  1  0  0  0  0
 20 22  1  0  0  0  0
 20 23  1  0  0  0  0
 23 24  1  0  0  0  0
 23 25  1  0  0  0  0
 26 27  2  0  0  0  0
 26 28  1  0  0  0  0
 28 29  1  0  0  0  0
 28 30  1  0  0  0  0
 30 31  1  0  0  0  0
 30 32  1  0  0  0  0
 30 33  1  0  0  0  0
M  END
$$$$

  -OEChem-01062216083D

 33 32  0     1  0  0  0  0  0999 V2000
   -3.4209   -2.5564    1.0149 H   0  0  0  0  0  0  0  0  0  0  0  0
   -3.4485   -1.5766    0.5296 C   0  0  0  0  0  0  0  0  0  0  0  0
   -4.3803   -1.0745    0.8002 H   0  0  0  0  0  0  0  0  0  0  0  0
   -3.4191   -1.7216   -0.5531 H   0  0  0  0  0  0  0  0  0  0  0  0
   -2.2623   -0.7415    0.9723 C   0  0  0  0  0  0  0  0  0  0  0  0
   -1.5442   -1.1440    1.8745 O   0  0  0  0  0  0  0  0  0  0  0  0
   -2.0776    0.5192    0.4338 N   0  0  0  0  0  0  0  0  0  0  0  0
   -2.7180    0.7475   -0.3206 H   0  0  0  0  0  0  0  0  0  0  0  0
   -0.7836    1.2330    0.4194 C   0  0  1  0  0  0  0  0  0  0  0  0
   -0.7394    1.8532   -0.4818 H   0  0  0  0  0  0  0  0  0  0  0  0
   -0.7270    2.1644    1.6480 C   0  0  0  0  0  0  0  0  0  0  0  0
   -0.9201    1.5869    2.5586 H   0  0  0  0  0  0  0  0  0  0  0  0
    0.2778    2.5934    1.7293 H   0  0  0  0  0  0  0  0  0  0  0  0
   -1.7361    3.3164    1.5409 C   0  0  0  0  0  0  0  0  0  0  0  0
   -1.5389    3.8955    0.6326 H   0  0  0  0  0  0  0  0  0  0  0  0
   -2.7522    2.9144    1.4735 H   0  0  0  0  0  0  0  0  0  0  0  0
   -1.6326    4.2318    2.7654 C   0  0  0  0  0  0  0  0  0  0  0  0
   -1.8134    3.6486    3.6744 H   0  0  0  0  0  0  0  0  0  0  0  0
   -0.6235    4.6525    2.8281 H   0  0  0  0  0  0  0  0  0  0  0  0
   -2.6479    5.3676    2.6826 C   0  0  0  0  0  0  0  0  0  0  0  0
   -2.4609    5.9745    1.7897 H   0  0  0  0  0  0  0  0  0  0  0  0
   -3.6626    4.9602    2.6113 H   0  0  0  0  0  0  0  0  0  0  0  0
   -2.5206    6.1945    3.8860 N   0  0  0  0  0  0  0  0  0  0  0  0
   -3.1783    6.9741    3.8713 H   0  0  0  0  0  0  0  0  0  0  0  0
   -2.6380    5.6345    4.7305 H   0  0  0  0  0  0  0  0  0  0  0  0
    0.4595    0.3071    0.3467 C   0  0  0  0  0  0  0  0  0  0  0  0
    0.7611   -0.1695   -0.7409 O   0  0  0  0  0  0  0  0  0  0  0  0
    1.2675    0.0653    1.4437 N   0  0  0  0  0  0  0  0  0  0  0  0
    0.8285    0.2446    2.3431 H   0  0  0  0  0  0  0  0  0  0  0  0
    2.3614   -0.8967    1.4047 C   0  0  0  0  0  0  0  0  0  0  0  0
    3.0882   -0.6216    0.6332 H   0  0  0  0  0  0  0  0  0  0  0  0
    2.8773   -0.9203    2.3693 H   0  0  0  0  0  0  0  0  0  0  0  0
    1.9798   -1.9002    1.1888 H   0  0  0  0  0  0  0  0  0  0  0  0
  1  2  1  0  0  0  0
  2  3  1  0  0  0  0
  2  4  1  0  0  0  0
  2  5  1  0  0  0  0
  5  6  2  0  0  0  0
  5  7  1  0  0  0  0
  7  8  1  0  0  0  0
  7  9  1  0  0  0  0
  9 10  1  0  0  0  0
  9 11  1  0  0  0  0
  9 26  1  0  0  0  0
 11 12  1  0  0  0  0
 11 13  1  0  0  0  0
 11 14  1  0  0  0  0
 14 15  1  0  0  0  0
 14 16  1  0  0  0  0
 14 17  1  0  0  0  0
 17 18  1  0  0  0  0
 17 19  1  0  0  0  0
 17 20  1  0  0  0  0
 20 21  1  0  0  0  0
 20 22  1  0  0  0  0
 20 23  1  0  0  0  0
 23 24  1  0  0  0  0
 23 25  1  0  0  0  0
 26 27  2  0  0  0  0
 26 28  1  0  0  0  0
 28 29  1  0  0  0  0
 28 30  1  0  0  0  0
 30 31  1  0  0  0  0
 30 32  1  0  0  0  0
 30 33  1  0  0  0  0
M  END
$$$$

  -OEChem-01062216083D

 33 32  0     1  0  0  0  0  0999 V2000
   -3.5250   -2.5336    1.0094 H   0  0  0  0  0  0  0  0  0  0  0  0
   -3.5257   -1.5514    0.5282 C   0  0  0  0  0  0  0  0  0  0  0  0
   -4.4402   -1.0224    0.8067 H   0  0  0  0  0  0  0  0  0  0  0  0
   -3.5080   -1.6926   -0.5552 H   0  0  0  0  0  0  0  0  0  0  0  0
   -2.3117   -0.7545    0.9663 C   0  0  0  0  0  0  0  0  0  0  0  0
   -1.6034   -1.1809    1.8648 O   0  0  0  0  0  0  0  0  0  0  0  0
   -2.0907    0.4995    0.4269 N   0  0  0  0  0  0  0  0  0  0  0  0
   -2.7393    0.7581   -0.3105 H   0  0  0  0  0  0  0  0  0  0  0  0
   -0.7908    1.2045    0.4196 C   0  0  1  0  0  0  0  0  0  0  0  0
   -0.7428    1.8241   -0.4819 H   0  0  0  0  0  0  0  0  0  0  0  0
   -0.7326    2.1363    1.6466 C   0  0  0  0  0  0  0  0  0  0  0  0
   -0.9364    1.5615    2.5566 H   0  0  0  0  0  0  0  0  0  0  0  0
    0.2771    2.5524    1.7343 H   0  0  0  0  0  0  0  0  0  0  0  0
   -1.7310    3.2972    1.5353 C   0  0  0  0  0  0  0  0  0  0  0  0
   -1.5247    3.8750    0.6282 H   0  0  0  0  0  0  0  0  0  0  0  0
   -2.7508    2.9057    1.4631 H   0  0  0  0  0  0  0  0  0  0  0  0
   -1.6233    4.2110    2.7606 C   0  0  0  0  0  0  0  0  0  0  0  0
   -1.8119    3.6291    3.6686 H   0  0  0  0  0  0  0  0  0  0  0  0
   -0.6104    4.6219    2.8270 H   0  0  0  0  0  0  0  0  0  0  0  0
   -2.6275    5.3567    2.6759 C   0  0  0  0  0  0  0  0  0  0  0  0
   -2.4323    5.9622    1.7836 H   0  0  0  0  0  0  0  0  0  0  0  0
   -3.6455    4.9586    2.6017 H   0  0  0  0  0  0  0  0  0  0  0  0
   -2.4966    6.1816    3.8804 N   0  0  0  0  0  0  0  0  0  0  0  0
   -3.1483    6.9662    3.8655 H   0  0  0  0  0  0  0  0  0  0  0  0
   -2.6196    5.6217    4.7242 H   0  0  0  0  0  0  0  0  0  0  0  0
    0.4648    0.2950    0.3657 C   0  0  0  0  0  0  0  0  0  0  0  0
    0.9543    0.0461   -0.7291 O   0  0  0  0  0  0  0  0  0  0  0  0
    1.0845   -0.1722    1.5103 N   0  0  0  0  0  0  0  0  0  0  0  0
    0.4655   -0.2290    2.3181 H   0  0  0  0  0  0  0  0  0  0  0  0
    2.2077   -1.0992    1.4604 C   0  0  0  0  0  0  0  0  0  0  0  0
    3.0407   -0.6639    0.8985 H   0  0  0  0  0  0  0  0  0  0  0  0
    2.5562   -1.3226    2.4731 H   0  0  0  0  0  0  0  0  0  0  0  0
    1.9092   -2.0366    0.9796 H   0  0  0  0  0  0  0  0  0  0  0  0
  1  2  1  0  0  0  0
  2  3  1  0  0  0  0
  2  4  1  0  0  0  0
  2  5  1  0  0  0  0
  5  6  2  0  0  0  0
  5  7  1  0  0  0  0
  7  8  1  0  0  0  0
  7  9  1  0  0  0  0
  9 10  1  0  0  0  0
  9 11  1  0  0  0  0
  9 26  1  0  0  0  0
 11 12  1  0  0  0  0
 11 13  1  0  0  0  0
 11 14  1  0  0  0  0
 14 15  1  0  0  0  0
 14 16  1  0  0  0  0
 14 17  1  0  0  0  0
 17 18  1  0  0  0  0
 17 19  1  0  0  0  0
 17 20  1  0  0  0  0
 20 21  1  0  0  0  0
 20 22  1  0  0  0  0
 20 23  1  0  0  0  0
 23 24  1  0  0  0  0
 23 25  1  0  0  0  0
 26 27  2  0  0  0  0
 26 28  1  0  0  0  0
 28 29  1  0  0  0  0
 28 30  1  0  0  0  0
 30 31  1  0  0  0  0
 30 32  1  0  0  0  0
 30 33  1  0  0  0  0
M  END
$$$$

  -OEChem-01062216083D

 33 32  0     1  0  0  0  0  0999 V2000
   -3.6874   -2.4795    1.0059 H   0  0  0  0  0  0  0  0  0  0  0  0
   -3.6428   -1.4953    0.5307 C   0  0  0  0  0  0  0  0  0  0  0  0
   -4.5238   -0.9207    0.8264 H   0  0  0  0  0  0  0  0  0  0  0  0
   -3.6499   -1.6303   -0.5537 H   0  0  0  0  0  0  0  0  0  0  0  0
   -2.3818   -0.7664    0.9557 C   0  0  0  0  0  0  0  0  0  0  0  0
   -1.6930   -1.2350    1.8471 O   0  0  0  0  0  0  0  0  0  0  0  0
   -2.1052    0.4759    0.4155 N   0  0  0  0  0  0  0  0  0  0  0  0
   -2.7634    0.7752   -0.2978 H   0  0  0  0  0  0  0  0  0  0  0  0
   -0.7964    1.1685    0.4104 C   0  0  1  0  0  0  0  0  0  0  0  0
   -0.7481    1.7881   -0.4912 H   0  0  0  0  0  0  0  0  0  0  0  0
   -0.7369    2.0971    1.6388 C   0  0  0  0  0  0  0  0  0  0  0  0
   -0.9464    1.5211    2.5467 H   0  0  0  0  0  0  0  0  0  0  0  0
    0.2760    2.5046    1.7316 H   0  0  0  0  0  0  0  0  0  0  0  0
   -1.7252    3.2667    1.5269 C   0  0  0  0  0  0  0  0  0  0  0  0
   -1.5102    3.8452    0.6222 H   0  0  0  0  0  0  0  0  0  0  0  0
   -2.7478    2.8836    1.4501 H   0  0  0  0  0  0  0  0  0  0  0  0
   -1.6151    4.1764    2.7551 C   0  0  0  0  0  0  0  0  0  0  0  0
   -1.8127    3.5937    3.6608 H   0  0  0  0  0  0  0  0  0  0  0  0
   -0.5990    4.5785    2.8273 H   0  0  0  0  0  0  0  0  0  0  0  0
   -2.6097    5.3298    2.6679 C   0  0  0  0  0  0  0  0  0  0  0  0
   -2.4056    5.9353    1.7778 H   0  0  0  0  0  0  0  0  0  0  0  0
   -3.6303    4.9397    2.5876 H   0  0  0  0  0  0  0  0  0  0  0  0
   -2.4785    6.1518    3.8744 N   0  0  0  0  0  0  0  0  0  0  0  0
   -3.1284    6.9378    3.8603 H   0  0  0  0  0  0  0  0  0  0  0  0
   -2.6035    5.5905    4.7169 H   0  0  0  0  0  0  0  0  0  0  0  0
    0.4791    0.2855    0.3768 C   0  0  0  0  0  0  0  0  0  0  0  0
    1.1430    0.2645   -0.6519 O   0  0  0  0  0  0  0  0  0  0  0  0
    0.9320   -0.4057    1.4845 N   0  0  0  0  0  0  0  0  0  0  0  0
    0.2003   -0.6138    2.1673 H   0  0  0  0  0  0  0  0  0  0  0  0
    2.0834   -1.2970    1.4348 C   0  0  0  0  0  0  0  0  0  0  0  0
    2.9772   -0.7515    1.1148 H   0  0  0  0  0  0  0  0  0  0  0  0
    2.2748   -1.7191    2.4259 H   0  0  0  0  0  0  0  0  0  0  0  0
    1.9020   -2.1191    0.7346 H   0  0  0  0  0  0  0  0  0  0  0  0
  1  2  1  0  0  0  0
  2  3  1  0  0  0  0
  2  4  1  0  0  0  0
  2  5  1  0  0  0  0
  5  6  2  0  0  0  0
  5  7  1  0  0  0  0
  7  8  1  0  0  0  0
  7  9  1  0  0  0  0
  9 10  1  0  0  0  0
  9 11  1  0  0  0  0
  9 26  1  0  0  0  0
 11 12  1  0  0  0  0
 11 13  1  0  0  0  0
 11 14  1  0  0  0  0
 14 15  1  0  0  0  0
 14 16  1  0  0  0  0
 14 17  1  0  0  0  0
 17 18  1  0  0  0  0
 17 19  1  0  0  0  0
 17 20  1  0  0  0  0
 20 21  1  0  0  0  0
 20 22  1  0  0  0  0
 20 23  1  0  0  0  0
 23 24  1  0  0  0  0
 23 25  1  0  0  0  0
 26 27  2  0  0  0  0
 26 28  1  0  0  0  0
 28 29  1  0  0  0  0
 28 30  1  0  0  0  0
 30 31  1  0  0  0  0
 30 32  1  0  0  0  0
 30 33  1  0  0  0  0
M  END
$$$$

  -OEChem-01062216083D

 33 32  0     1  0  0  0  0  0999 V2000
   -3.8593   -2.4130    0.9996 H   0  0  0  0  0  0  0  0  0  0  0  0
   -3.7638   -1.4296    0.5302 C   0  0  0  0  0  0  0  0  0  0  0  0
   -4.6093   -0.8090    0.8374 H   0  0  0  0  0  0  0  0  0  0  0  0
   -3.7879   -1.5563   -0.5550 H   0  0  0  0  0  0  0  0  0  0  0  0
   -2.4607   -0.7748    0.9486 C   0  0  0  0  0  0  0  0  0  0  0  0
   -1.7962   -1.2898    1.8312 O   0  0  0  0  0  0  0  0  0  0  0  0
   -2.1258    0.4537    0.4102 N   0  0  0  0  0  0  0  0  0  0  0  0
   -2.7901    0.7946   -0.2785 H   0  0  0  0  0  0  0  0  0  0  0  0
   -0.8062    1.1309    0.4042 C   0  0  1  0  0  0  0  0  0  0  0  0
   -0.7584    1.7495   -0.4982 H   0  0  0  0  0  0  0  0  0  0  0  0
   -0.7468    2.0578    1.6334 C   0  0  0  0  0  0  0  0  0  0  0  0
   -0.9635    1.4810    2.5391 H   0  0  0  0  0  0  0  0  0  0  0  0
    0.2684    2.4584    1.7324 H   0  0  0  0  0  0  0  0  0  0  0  0
   -1.7245    3.2362    1.5179 C   0  0  0  0  0  0  0  0  0  0  0  0
   -1.4990    3.8139    0.6152 H   0  0  0  0  0  0  0  0  0  0  0  0
   -2.7501    2.8627    1.4357 H   0  0  0  0  0  0  0  0  0  0  0  0
   -1.6129    4.1428    2.7481 C   0  0  0  0  0  0  0  0  0  0  0  0
   -1.8186    3.5604    3.6522 H   0  0  0  0  0  0  0  0  0  0  0  0
   -0.5939    4.5361    2.8244 H   0  0  0  0  0  0  0  0  0  0  0  0
   -2.5967    5.3055    2.6589 C   0  0  0  0  0  0  0  0  0  0  0  0
   -2.3834    5.9109    1.7709 H   0  0  0  0  0  0  0  0  0  0  0  0
   -3.6208    4.9250    2.5738 H   0  0  0  0  0  0  0  0  0  0  0  0
   -2.4639    6.1238    3.8676 N   0  0  0  0  0  0  0  0  0  0  0  0
   -3.1060    6.9162    3.8519 H   0  0  0  0  0  0  0  0  0  0  0  0
   -2.5982    5.5621    4.7084 H   0  0  0  0  0  0  0  0  0  0  0  0
    0.4898    0.2748    0.3857 C   0  0  0  0  0  0  0  0  0  0  0  0
    1.2843    0.4569   -0.5281 O   0  0  0  0  0  0  0  0  0  0  0  0
    0.8179   -0.6335    1.3727 N   0  0  0  0  0  0  0  0  0  0  0  0
    0.0402   -0.9167    1.9740 H   0  0  0  0  0  0  0  0  0  0  0  0
    1.9908   -1.4952    1.3083 C   0  0  0  0  0  0  0  0  0  0  0  0
    2.9037   -0.8958    1.2291 H   0  0  0  0  0  0  0  0  0  0  0  0
    2.0587   -2.1061    2.2133 H   0  0  0  0  0  0  0  0  0  0  0  0
    1.9291   -2.1612    0.4416 H   0  0  0  0  0  0  0  0  0  0  0  0
  1  2  1  0  0  0  0
  2  3  1  0  0  0  0
  2  4  1  0  0  0  0
  2  5  1  0  0  0  0
  5  6  2  0  0  0  0
  5  7  1  0  0  0  0
  7  8  1  0  0  0  0
  7  9  1  0  0  0  0
  9 10  1  0  0  0  0
  9 11  1  0  0  0  0
  9 26  1  0  0  0  0
 11 12  1  0  0  0  0
 11 13  1  0  0  0  0
 11 14  1  0  0  0  0
 14 15  1  0  0  0  0
 14 16  1  0  0  0  0
 14 17  1  0  0  0  0
 17 18  1  0  0  0  0
 17 19  1  0  0  0  0
 17 20  1  0  0  0  0
 20 21  1  0  0  0  0
 20 22  1  0  0  0  0
 20 23  1  0  0  0  0
 23 24  1  0  0  0  0
 23 25  1  0  0  0  0
 26 27  2  0  0  0  0
 26 28  1  0  0  0  0
 28 29  1  0  0  0  0
 28 30  1  0  0  0  0
 30 31  1  0  0  0  0
 30 32  1  0  0  0  0
 30 33  1  0  0  0  0
M  END
$$$$

  -OEChem-01062216083D

 33 32  0     1  0  0  0  0  0999 V2000
   -4.0050   -2.3593    1.0016 H   0  0  0  0  0  0  0  0  0  0  0  0
   -3.8700   -1.3817    0.5299 C   0  0  0  0  0  0  0  0  0  0  0  0
   -4.6880   -0.7267    0.8391 H   0  0  0  0  0  0  0  0  0  0  0  0
   -3.9030   -1.5090   -0.5547 H   0  0  0  0  0  0  0  0  0  0  0  0
   -2.5399   -0.7794    0.9427 C   0  0  0  0  0  0  0  0  0  0  0  0
   -1.8919   -1.3263    1.8178 O   0  0  0  0  0  0  0  0  0  0  0  0
   -2.1652    0.4380    0.4054 N   0  0  0  0  0  0  0  0  0  0  0  0
   -2.8333    0.8088   -0.2636 H   0  0  0  0  0  0  0  0  0  0  0  0
   -0.8342    1.0958    0.3907 C   0  0  1  0  0  0  0  0  0  0  0  0
   -0.7895    1.7135   -0.5124 H   0  0  0  0  0  0  0  0  0  0  0  0
   -0.7644    2.0216    1.6204 C   0  0  0  0  0  0  0  0  0  0  0  0
   -0.9858    1.4455    2.5254 H   0  0  0  0  0  0  0  0  0  0  0  0
    0.2548    2.4120    1.7201 H   0  0  0  0  0  0  0  0  0  0  0  0
   -1.7276    3.2125    1.5085 C   0  0  0  0  0  0  0  0  0  0  0  0
   -1.4965    3.7893    0.6066 H   0  0  0  0  0  0  0  0  0  0  0  0
   -2.7579    2.8523    1.4270 H   0  0  0  0  0  0  0  0  0  0  0  0
   -1.6031    4.1151    2.7410 C   0  0  0  0  0  0  0  0  0  0  0  0
   -1.8159    3.5337    3.6439 H   0  0  0  0  0  0  0  0  0  0  0  0
   -0.5790    4.4953    2.8182 H   0  0  0  0  0  0  0  0  0  0  0  0
   -2.5720    5.2905    2.6562 C   0  0  0  0  0  0  0  0  0  0  0  0
   -2.3512    5.8953    1.7698 H   0  0  0  0  0  0  0  0  0  0  0  0
   -3.6009    4.9237    2.5713 H   0  0  0  0  0  0  0  0  0  0  0  0
   -2.4270    6.1038    3.8669 N   0  0  0  0  0  0  0  0  0  0  0  0
   -3.0585    6.9046    3.8540 H   0  0  0  0  0  0  0  0  0  0  0  0
   -2.5671    5.5417    4.7065 H   0  0  0  0  0  0  0  0  0  0  0  0
    0.4729    0.2535    0.3695 C   0  0  0  0  0  0  0  0  0  0  0  0
    1.3620    0.6105   -0.3931 O   0  0  0  0  0  0  0  0  0  0  0  0
    0.7101   -0.8493    1.1647 N   0  0  0  0  0  0  0  0  0  0  0  0
   -0.0779   -1.1809    1.7257 H   0  0  0  0  0  0  0  0  0  0  0  0
    1.9224   -1.6546    1.1058 C   0  0  0  0  0  0  0  0  0  0  0  0
    2.8041   -1.0361    1.3032 H   0  0  0  0  0  0  0  0  0  0  0  0
    1.8839   -2.4478    1.8583 H   0  0  0  0  0  0  0  0  0  0  0  0
    2.0275   -2.1162    0.1188 H   0  0  0  0  0  0  0  0  0  0  0  0
  1  2  1  0  0  0  0
  2  3  1  0  0  0  0
  2  4  1  0  0  0  0
  2  5  1  0  0  0  0
  5  6  2  0  0  0  0
  5  7  1  0  0  0  0
  7  8  1  0  0  0  0
  7  9  1  0  0  0  0
  9 10  1  0  0  0  0
  9 11  1  0  0  0  0
  9 26  1  0  0  0  0
 11 12  1  0  0  0  0
 11 13  1  0  0  0  0
 11 14  1  0  0  0  0
 14 15  1  0  0  0  0
 14 16  1  0  0  0  0
 14 17  1  0  0  0  0
 17 18  1  0  0  0  0
 17 19  1  0  0  0  0
 17 20  1  0  0  0  0
 20 21  1  0  0  0  0
 20 22  1  0  0  0  0
 20 23  1  0  0  0  0
 23 24  1  0  0  0  0
 23 25  1  0  0  0  0
 26 27  2  0  0  0  0
 26 28  1  0  0  0  0
 28 29  1  0  0  0  0
 28 30  1  0  0  0  0
 30 31  1  0  0  0  0
 30 32  1  0  0  0  0
 30 33  1  0  0  0  0
M  END
$$$$

  -OEChem-01062216083D

 33 32  0     1  0  0  0  0  0999 V2000
   -3.2394   -1.7948   -0.5177 H   0  0  0  0  0  0  0  0  0  0  0  0
   -3.3601   -1.5897    0.5487 C   0  0  0  0  0  0  0  0  0  0  0  0
   -4.2789   -1.0188    0.7034 H   0  0  0  0  0  0  0  0  0  0  0  0
   -3.4426   -2.5411    1.0819 H   0  0  0  0  0  0  0  0  0  0  0  0
   -2.1699   -0.8035    1.0654 C   0  0  0  0  0  0  0  0  0  0  0  0
   -1.5995   -1.1853    2.0701 O   0  0  0  0  0  0  0  0  0  0  0  0
   -1.8769    0.4205    0.4997 N   0  0  0  0  0  0  0  0  0  0  0  0
   -2.5118    0.6836   -0.2473 H   0  0  0  0  0  0  0  0  0  0  0  0
   -0.5959    1.1676    0.5246 C   0  0  1  0  0  0  0  0  0  0  0  0
   -0.5590    1.7656   -0.3913 H   0  0  0  0  0  0  0  0  0  0  0  0
   -0.6913    2.1251    1.7338 C   0  0  0  0  0  0  0  0  0  0  0  0
   -0.9243    1.5498    2.6366 H   0  0  0  0  0  0  0  0  0  0  0  0
    0.2781    2.6084    1.8977 H   0  0  0  0  0  0  0  0  0  0  0  0
   -1.7401    3.2288    1.5276 C   0  0  0  0  0  0  0  0  0  0  0  0
   -1.4953    3.8052    0.6293 H   0  0  0  0  0  0  0  0  0  0  0  0
   -2.7295    2.7826    1.3870 H   0  0  0  0  0  0  0  0  0  0  0  0
   -1.7745    4.1614    2.7436 C   0  0  0  0  0  0  0  0  0  0  0  0
   -2.0009    3.5795    3.6431 H   0  0  0  0  0  0  0  0  0  0  0  0
   -0.7922    4.6261    2.8803 H   0  0  0  0  0  0  0  0  0  0  0  0
   -2.8275    5.2515    2.5699 C   0  0  0  0  0  0  0  0  0  0  0  0
   -2.5989    5.8585    1.6867 H   0  0  0  0  0  0  0  0  0  0  0  0
   -3.8153    4.7998    2.4269 H   0  0  0  0  0  0  0  0  0  0  0  0
   -2.8281    6.0927    3.7703 N   0  0  0  0  0  0  0  0  0  0  0  0
   -3.5355    6.8247    3.7108 H   0  0  0  0  0  0  0  0  0  0  0  0
   -2.9542    5.5303    4.6120 H   0  0  0  0  0  0  0  0  0  0  0  0
    0.8033    0.4729    0.5844 C   0  0  0  0  0  0  0  0  0  0  0  0
    1.7834    1.1583    0.3343 O   0  0  0  0  0  0  0  0  0  0  0  0
    1.1856   -0.7246    1.1417 N   0  0  0  0  0  0  0  0  0  0  0  0
    2.1705   -0.6840    1.3895 H   0  0  0  0  0  0  0  0  0  0  0  0
    0.7903   -1.9842    0.5244 C   0  0  0  0  0  0  0  0  0  0  0  0
    1.6549   -2.4467    0.0389 H   0  0  0  0  0  0  0  0  0  0  0  0
    0.4108   -2.6752    1.2836 H   0  0  0  0  0  0  0  0  0  0  0  0
    0.0173   -1.8363   -0.2356 H   0  0  0  0  0  0  0  0  0  0  0  0
  1  2  1  0  0  0  0
  2  3  1  0  0  0  0
  2  4  1  0  0  0  0
  2  5  1  0  0  0  0
  5  6  2  0  0  0  0
  5  7  1  0  0  0  0
  7  8  1  0  0  0  0
  7  9  1  0  0  0  0
  9 10  1  0  0  0  0
  9 11  1  0  0  0  0
  9 26  1  0  0  0  0
 11 12  1  0  0  0  0
 11 13  1  0  0  0  0
 11 14  1  0  0  0  0
 14 15  1  0  0  0  0
 14 16  1  0  0  0  0
 14 17  1  0  0  0  0
 17 18  1  0  0  0  0
 17 19  1  0  0  0  0
 17 20  1  0  0  0  0
 20 21  1  0  0  0  0
 20 22  1  0  0  0  0
 20 23  1  0  0  0  0
 23 24  1  0  0  0  0
 23 25  1  0  0  0  0
 26 27  2  0  0  0  0
 26 28  1  0  0  0  0
 28 29  1  0  0  0  0
 28 30  1  0  0  0  0
 30 31  1  0  0  0  0
 30 32  1  0  0  0  0
 30 33  1  0  0  0  0
M  END
$$$$

  -OEChem-01062216083D

 33 32  0     1  0  0  0  0  0999 V2000
   -3.7044   -2.6076    0.9813 H   0  0  0  0  0  0  0  0  0  0  0  0
   -3.7237   -1.6182    0.5156 C   0  0  0  0  0  0  0  0  0  0  0  0
   -4.6136   -1.0845    0.8576 H   0  0  0  0  0  0  0  0  0  0  0  0
   -3.7751   -1.7436   -0.5686 H   0  0  0  0  0  0  0  0  0  0  0  0
   -2.4766   -0.8398    0.8910 C   0  0  0  0  0  0  0  0  0  0  0  0
   -1.7852   -1.2408    1.8077 O   0  0  0  0  0  0  0  0  0  0  0  0
   -2.2832    0.4136    0.3468 N   0  0  0  0  0  0  0  0  0  0  0  0
   -3.0319    0.6823   -0.2840 H   0  0  0  0  0  0  0  0  0  0  0  0
   -1.0062    1.1284    0.1045 C   0  0  1  0  0  0  0  0  0  0  0  0
   -1.1683    1.7867   -0.7552 H   0  0  0  0  0  0  0  0  0  0  0  0
   -0.7376    2.0028    1.3455 C   0  0  0  0  0  0  0  0  0  0  0  0
   -0.7605    1.3786    2.2457 H   0  0  0  0  0  0  0  0  0  0  0  0
    0.2658    2.4372    1.2718 H   0  0  0  0  0  0  0  0  0  0  0  0
   -1.7492    3.1503    1.4801 C   0  0  0  0  0  0  0  0  0  0  0  0
   -1.7176    3.7760    0.5819 H   0  0  0  0  0  0  0  0  0  0  0  0
   -2.7615    2.7450    1.5767 H   0  0  0  0  0  0  0  0  0  0  0  0
   -1.4248    4.0027    2.7119 C   0  0  0  0  0  0  0  0  0  0  0  0
   -1.4391    3.3721    3.6068 H   0  0  0  0  0  0  0  0  0  0  0  0
   -0.4200    4.4268    2.6139 H   0  0  0  0  0  0  0  0  0  0  0  0
   -2.4358    5.1337    2.8738 C   0  0  0  0  0  0  0  0  0  0  0  0
   -2.4129    5.7872    1.9944 H   0  0  0  0  0  0  0  0  0  0  0  0
   -3.4472    4.7226    2.9664 H   0  0  0  0  0  0  0  0  0  0  0  0
   -2.0917    5.8987    4.0759 N   0  0  0  0  0  0  0  0  0  0  0  0
   -2.7452    6.6671    4.2265 H   0  0  0  0  0  0  0  0  0  0  0  0
   -2.0454    5.2929    4.8954 H   0  0  0  0  0  0  0  0  0  0  0  0
    0.3177    0.3696   -0.2145 C   0  0  0  0  0  0  0  0  0  0  0  0
    1.0596    0.8780   -1.0410 O   0  0  0  0  0  0  0  0  0  0  0  0
    0.6171   -0.9618   -0.0545 N   0  0  0  0  0  0  0  0  0  0  0  0
    1.2645   -1.2420   -0.7864 H   0  0  0  0  0  0  0  0  0  0  0  0
    1.0363   -1.4145    1.2672 C   0  0  0  0  0  0  0  0  0  0  0  0
    0.7149   -0.7223    2.0527 H   0  0  0  0  0  0  0  0  0  0  0  0
    0.6139   -2.4015    1.4802 H   0  0  0  0  0  0  0  0  0  0  0  0
    2.1276   -1.4863    1.3084 H   0  0  0  0  0  0  0  0  0  0  0  0
  1  2  1  0  0  0  0
  2  3  1  0  0  0  0
  2  4  1  0  0  0  0
  2  5  1  0  0  0  0
  5  6  2  0  0  0  0
  5  7  1  0  0  0  0
  7  8  1  0  0  0  0
  7  9  1  0  0  0  0
  9 10  1  0  0  0  0
  9 11  1  0  0  0  0
  9 26  1  0  0  0  0
 11 12  1  0  0  0  0
 11 13  1  0  0  0  0
 11 14  1  0  0  0  0
 14 15  1  0  0  0  0
 14 16  1  0  0  0  0
 14 17  1  0  0  0  0
 17 18  1  0  0  0  0
 17 19  1  0  0  0  0
 17 20  1  0  0  0  0
 20 21  1  0  0  0  0
 20 22  1  0  0  0  0
 20 23  1  0  0  0  0
 23 24  1  0  0  0  0
 23 25  1  0  0  0  0
 26 27  2  0  0  0  0
 26 28  1  0  0  0  0
 28 29  1  0  0  0  0
 28 30  1  0  0  0  0
 30 31  1  0  0  0  0
 30 32  1  0  0  0  0
 30 33  1  0  0  0  0
M  END
$$$$

  -OEChem-01062216083D

 33 32  0     1  0  0  0  0  0999 V2000
   -4.1180   -2.2614    1.0843 H   0  0  0  0  0  0  0  0  0  0  0  0
   -3.9750   -1.2776    0.6279 C   0  0  0  0  0  0  0  0  0  0  0  0
   -4.7049   -0.5838    1.0522 H   0  0  0  0  0  0  0  0  0  0  0  0
   -4.1448   -1.3634   -0.4482 H   0  0  0  0  0  0  0  0  0  0  0  0
   -2.5681   -0.7758    0.8943 C   0  0  0  0  0  0  0  0  0  0  0  0
   -1.8356   -1.4259    1.6188 O   0  0  0  0  0  0  0  0  0  0  0  0
   -2.1853    0.4435    0.3678 N   0  0  0  0  0  0  0  0  0  0  0  0
   -2.9101    0.9069   -0.1721 H   0  0  0  0  0  0  0  0  0  0  0  0
   -0.8460    1.0850    0.3202 C   0  0  1  0  0  0  0  0  0  0  0  0
   -0.8169    1.7111   -0.5771 H   0  0  0  0  0  0  0  0  0  0  0  0
   -0.7631    1.9951    1.5662 C   0  0  0  0  0  0  0  0  0  0  0  0
   -0.9726    1.4040    2.4644 H   0  0  0  0  0  0  0  0  0  0  0  0
    0.2536    2.3907    1.6669 H   0  0  0  0  0  0  0  0  0  0  0  0
   -1.7278    3.1883    1.4816 C   0  0  0  0  0  0  0  0  0  0  0  0
   -1.5041    3.7777    0.5861 H   0  0  0  0  0  0  0  0  0  0  0  0
   -2.7595    2.8308    1.4048 H   0  0  0  0  0  0  0  0  0  0  0  0
   -1.5928    4.0747    2.7249 C   0  0  0  0  0  0  0  0  0  0  0  0
   -1.7961    3.4809    3.6220 H   0  0  0  0  0  0  0  0  0  0  0  0
   -0.5683    4.4547    2.7974 H   0  0  0  0  0  0  0  0  0  0  0  0
   -2.5636    5.2504    2.6642 C   0  0  0  0  0  0  0  0  0  0  0  0
   -2.3515    5.8670    1.7837 H   0  0  0  0  0  0  0  0  0  0  0  0
   -3.5927    4.8832    2.5831 H   0  0  0  0  0  0  0  0  0  0  0  0
   -2.4102    6.0493    3.8834 N   0  0  0  0  0  0  0  0  0  0  0  0
   -3.0478    6.8454    3.8889 H   0  0  0  0  0  0  0  0  0  0  0  0
   -2.5348    5.4757    4.7177 H   0  0  0  0  0  0  0  0  0  0  0  0
    0.4613    0.2390    0.2426 C   0  0  0  0  0  0  0  0  0  0  0  0
    1.5130    0.8370    0.0483 O   0  0  0  0  0  0  0  0  0  0  0  0
    0.5024   -1.1420    0.2124 N   0  0  0  0  0  0  0  0  0  0  0  0
   -0.3189   -1.6019    0.6080 H   0  0  0  0  0  0  0  0  0  0  0  0
    1.7488   -1.8975    0.1735 C   0  0  0  0  0  0  0  0  0  0  0  0
    2.3597   -1.6740    1.0543 H   0  0  0  0  0  0  0  0  0  0  0  0
    1.5382   -2.9710    0.1597 H   0  0  0  0  0  0  0  0  0  0  0  0
    2.3215   -1.6480   -0.7260 H   0  0  0  0  0  0  0  0  0  0  0  0
  1  2  1  0  0  0  0
  2  3  1  0  0  0  0
  2  4  1  0  0  0  0
  2  5  1  0  0  0  0
  5  6  2  0  0  0  0
  5  7  1  0  0  0  0
  7  8  1  0  0  0  0
  7  9  1  0  0  0  0
  9 10  1  0  0  0  0
  9 11  1  0  0  0  0
  9 26  1  0  0  0  0
 11 12  1  0  0  0  0
 11 13  1  0  0  0  0
 11 14  1  0  0  0  0
 14 15  1  0  0  0  0
 14 16  1  0  0  0  0
 14 17  1  0  0  0  0
 17 18  1  0  0  0  0
 17 19  1  0  0  0  0
 17 20  1  0  0  0  0
 20 21  1  0  0  0  0
 20 22  1  0  0  0  0
 20 23  1  0  0  0  0
 23 24  1  0  0  0  0
 23 25  1  0  0  0  0
 26 27  2  0  0  0  0
 26 28  1  0  0  0  0
 28 29  1  0  0  0  0
 28 30  1  0  0  0  0
 30 31  1  0  0  0  0
 30 32  1  0  0  0  0
 30 33  1  0  0  0  0
M  END
$$$$

  -OEChem-01062216083D

 33 32  0     1  0  0  0  0  0999 V2000
   -4.0793   -2.2300    1.1468 H   0  0  0  0  0  0  0  0  0  0  0  0
   -3.9429   -1.2453    0.6906 C   0  0  0  0  0  0  0  0  0  0  0  0
   -4.6217   -0.5382    1.1734 H   0  0  0  0  0  0  0  0  0  0  0  0
   -4.1928   -1.3135   -0.3710 H   0  0  0  0  0  0  0  0  0  0  0  0
   -2.5074   -0.7833    0.8598 C   0  0  0  0  0  0  0  0  0  0  0  0
   -1.7260   -1.4897    1.4709 O   0  0  0  0  0  0  0  0  0  0  0  0
   -2.1389    0.4474    0.3495 N   0  0  0  0  0  0  0  0  0  0  0  0
   -2.8911    0.9545   -0.1070 H   0  0  0  0  0  0  0  0  0  0  0  0
   -0.8056    1.1013    0.3159 C   0  0  1  0  0  0  0  0  0  0  0  0
   -0.7708    1.7307   -0.5785 H   0  0  0  0  0  0  0  0  0  0  0  0
   -0.7462    2.0096    1.5665 C   0  0  0  0  0  0  0  0  0  0  0  0
   -0.9590    1.4133    2.4605 H   0  0  0  0  0  0  0  0  0  0  0  0
    0.2629    2.4195    1.6822 H   0  0  0  0  0  0  0  0  0  0  0  0
   -1.7227    3.1927    1.4745 C   0  0  0  0  0  0  0  0  0  0  0  0
   -1.4961    3.7870    0.5830 H   0  0  0  0  0  0  0  0  0  0  0  0
   -2.7495    2.8250    1.3859 H   0  0  0  0  0  0  0  0  0  0  0  0
   -1.6096    4.0759    2.7223 C   0  0  0  0  0  0  0  0  0  0  0  0
   -1.8163    3.4766    3.6151 H   0  0  0  0  0  0  0  0  0  0  0  0
   -0.5897    4.4662    2.8064 H   0  0  0  0  0  0  0  0  0  0  0  0
   -2.5916    5.2421    2.6563 C   0  0  0  0  0  0  0  0  0  0  0  0
   -2.3773    5.8648    1.7806 H   0  0  0  0  0  0  0  0  0  0  0  0
   -3.6163    4.8652    2.5645 H   0  0  0  0  0  0  0  0  0  0  0  0
   -2.4574    6.0368    3.8805 N   0  0  0  0  0  0  0  0  0  0  0  0
   -3.1038    6.8258    3.8849 H   0  0  0  0  0  0  0  0  0  0  0  0
   -2.5817    5.4578    4.7111 H   0  0  0  0  0  0  0  0  0  0  0  0
    0.4960    0.2463    0.2332 C   0  0  0  0  0  0  0  0  0  0  0  0
    1.5774    0.8224    0.2617 O   0  0  0  0  0  0  0  0  0  0  0  0
    0.4993   -1.0929   -0.1105 N   0  0  0  0  0  0  0  0  0  0  0  0
   -0.3518   -1.5876    0.1581 H   0  0  0  0  0  0  0  0  0  0  0  0
    1.7260   -1.8765   -0.2001 C   0  0  0  0  0  0  0  0  0  0  0  0
    2.2473   -1.8832    0.7628 H   0  0  0  0  0  0  0  0  0  0  0  0
    1.4935   -2.9091   -0.4773 H   0  0  0  0  0  0  0  0  0  0  0  0
    2.3949   -1.4595   -0.9604 H   0  0  0  0  0  0  0  0  0  0  0  0
  1  2  1  0  0  0  0
  2  3  1  0  0  0  0
  2  4  1  0  0  0  0
  2  5  1  0  0  0  0
  5  6  2  0  0  0  0
  5  7  1  0  0  0  0
  7  8  1  0  0  0  0
  7  9  1  0  0  0  0
  9 10  1  0  0  0  0
  9 11  1  0  0  0  0
  9 26  1  0  0  0  0
 11 12  1  0  0  0  0
 11 13  1  0  0  0  0
 11 14  1  0  0  0  0
 14 15  1  0  0  0  0
 14 16  1  0  0  0  0
 14 17  1  0  0  0  0
 17 18  1  0  0  0  0
 17 19  1  0  0  0  0
 17 20  1  0  0  0  0
 20 21  1  0  0  0  0
 20 22  1  0  0  0  0
 20 23  1  0  0  0  0
 23 24  1  0  0  0  0
 23 25  1  0  0  0  0
 26 27  2  0  0  0  0
 26 28  1  0  0  0  0
 28 29  1  0  0  0  0
 28 30  1  0  0  0  0
 30 31  1  0  0  0  0
 30 32  1  0  0  0  0
 30 33  1  0  0  0  0
M  END
$$$$

  -OEChem-01062216083D

 33 32  0     1  0  0  0  0  0999 V2000
   -4.0006   -2.2099    1.2115 H   0  0  0  0  0  0  0  0  0  0  0  0
   -3.8817   -1.2235    0.7538 C   0  0  0  0  0  0  0  0  0  0  0  0
   -4.5101   -0.5097    1.2921 H   0  0  0  0  0  0  0  0  0  0  0  0
   -4.2105   -1.2770   -0.2869 H   0  0  0  0  0  0  0  0  0  0  0  0
   -2.4297   -0.7881    0.8178 C   0  0  0  0  0  0  0  0  0  0  0  0
   -1.6066   -1.5432    1.3016 O   0  0  0  0  0  0  0  0  0  0  0  0
   -2.0830    0.4574    0.3269 N   0  0  0  0  0  0  0  0  0  0  0  0
   -2.8611    1.0060   -0.0264 H   0  0  0  0  0  0  0  0  0  0  0  0
   -0.7563    1.1239    0.3156 C   0  0  1  0  0  0  0  0  0  0  0  0
   -0.7105    1.7602   -0.5735 H   0  0  0  0  0  0  0  0  0  0  0  0
   -0.7245    2.0259    1.5729 C   0  0  0  0  0  0  0  0  0  0  0  0
   -0.9421    1.4224    2.4610 H   0  0  0  0  0  0  0  0  0  0  0  0
    0.2768    2.4492    1.7047 H   0  0  0  0  0  0  0  0  0  0  0  0
   -1.7125    3.1990    1.4710 C   0  0  0  0  0  0  0  0  0  0  0  0
   -1.4773    3.7999    0.5862 H   0  0  0  0  0  0  0  0  0  0  0  0
   -2.7340    2.8212    1.3641 H   0  0  0  0  0  0  0  0  0  0  0  0
   -1.6293    4.0778    2.7239 C   0  0  0  0  0  0  0  0  0  0  0  0
   -1.8438    3.4720    3.6102 H   0  0  0  0  0  0  0  0  0  0  0  0
   -0.6153    4.4785    2.8267 H   0  0  0  0  0  0  0  0  0  0  0  0
   -2.6229    5.2333    2.6468 C   0  0  0  0  0  0  0  0  0  0  0  0
   -2.4002    5.8619    1.7773 H   0  0  0  0  0  0  0  0  0  0  0  0
   -3.6414    4.8457    2.5353 H   0  0  0  0  0  0  0  0  0  0  0  0
   -2.5178    6.0244    3.8761 N   0  0  0  0  0  0  0  0  0  0  0  0
   -3.1692    6.8094    3.8704 H   0  0  0  0  0  0  0  0  0  0  0  0
   -2.6543    5.4414    4.7022 H   0  0  0  0  0  0  0  0  0  0  0  0
    0.5333    0.2512    0.2303 C   0  0  0  0  0  0  0  0  0  0  0  0
    1.6203    0.7412    0.5143 O   0  0  0  0  0  0  0  0  0  0  0  0
    0.5312   -0.9694   -0.4203 N   0  0  0  0  0  0  0  0  0  0  0  0
   -0.3570   -1.4625   -0.3455 H   0  0  0  0  0  0  0  0  0  0  0  0
    1.7321   -1.7872   -0.5443 C   0  0  0  0  0  0  0  0  0  0  0  0
    2.1241   -2.0448    0.4452 H   0  0  0  0  0  0  0  0  0  0  0  0
    1.5027   -2.7137   -1.0794 H   0  0  0  0  0  0  0  0  0  0  0  0
    2.5072   -1.2514   -1.1021 H   0  0  0  0  0  0  0  0  0  0  0  0
  1  2  1  0  0  0  0
  2  3  1  0  0  0  0
  2  4  1  0  0  0  0
  2  5  1  0  0  0  0
  5  6  2  0  0  0  0
  5  7  1  0  0  0  0
  7  8  1  0  0  0  0
  7  9  1  0  0  0  0
  9 10  1  0  0  0  0
  9 11  1  0  0  0  0
  9 26  1  0  0  0  0
 11 12  1  0  0  0  0
 11 13  1  0  0  0  0
 11 14  1  0  0  0  0
 14 15  1  0  0  0  0
 14 16  1  0  0  0  0
 14 17  1  0  0  0  0
 17 18  1  0  0  0  0
 17 19  1  0  0  0  0
 17 20  1  0  0  0  0
 20 21  1  0  0  0  0
 20 22  1  0  0  0  0
 20 23  1  0  0  0  0
 23 24  1  0  0  0  0
 23 25  1  0  0  0  0
 26 27  2  0  0  0  0
 26 28  1  0  0  0  0
 28 29  1  0  0  0  0
 28 30  1  0  0  0  0
 30 31  1  0  0  0  0
 30 32  1  0  0  0  0
 30 33  1  0  0  0  0
M  END
$$$$

  -OEChem-01062216083D

 33 32  0     1  0  0  0  0  0999 V2000
   -3.8763   -2.2541    1.2191 H   0  0  0  0  0  0  0  0  0  0  0  0
   -3.7913   -1.2595    0.7717 C   0  0  0  0  0  0  0  0  0  0  0  0
   -4.4145   -0.5654    1.3407 H   0  0  0  0  0  0  0  0  0  0  0  0
   -4.1531   -1.3053   -0.2583 H   0  0  0  0  0  0  0  0  0  0  0  0
   -2.3462   -0.7974    0.7945 C   0  0  0  0  0  0  0  0  0  0  0  0
   -1.4920   -1.5493    1.2249 O   0  0  0  0  0  0  0  0  0  0  0  0
   -2.0400    0.4629    0.3125 N   0  0  0  0  0  0  0  0  0  0  0  0
   -2.8400    1.0138    0.0166 H   0  0  0  0  0  0  0  0  0  0  0  0
   -0.7276    1.1543    0.3140 C   0  0  1  0  0  0  0  0  0  0  0  0
   -0.6809    1.7936   -0.5727 H   0  0  0  0  0  0  0  0  0  0  0  0
   -0.7068    2.0567    1.5708 C   0  0  0  0  0  0  0  0  0  0  0  0
   -0.9137    1.4503    2.4594 H   0  0  0  0  0  0  0  0  0  0  0  0
    0.2890    2.4939    1.6983 H   0  0  0  0  0  0  0  0  0  0  0  0
   -1.7104    3.2165    1.4705 C   0  0  0  0  0  0  0  0  0  0  0  0
   -1.4861    3.8208    0.5854 H   0  0  0  0  0  0  0  0  0  0  0  0
   -2.7267    2.8246    1.3657 H   0  0  0  0  0  0  0  0  0  0  0  0
   -1.6365    4.0957    2.7239 C   0  0  0  0  0  0  0  0  0  0  0  0
   -1.8408    3.4869    3.6106 H   0  0  0  0  0  0  0  0  0  0  0  0
   -0.6277    4.5100    2.8244 H   0  0  0  0  0  0  0  0  0  0  0  0
   -2.6450    5.2386    2.6502 C   0  0  0  0  0  0  0  0  0  0  0  0
   -2.4331    5.8713    1.7809 H   0  0  0  0  0  0  0  0  0  0  0  0
   -3.6589    4.8383    2.5415 H   0  0  0  0  0  0  0  0  0  0  0  0
   -2.5461    6.0289    3.8805 N   0  0  0  0  0  0  0  0  0  0  0  0
   -3.2091    6.8041    3.8801 H   0  0  0  0  0  0  0  0  0  0  0  0
   -2.6696    5.4425    4.7060 H   0  0  0  0  0  0  0  0  0  0  0  0
    0.5509    0.2685    0.2248 C   0  0  0  0  0  0  0  0  0  0  0  0
    1.5940    0.6029    0.7748 O   0  0  0  0  0  0  0  0  0  0  0  0
    0.6013   -0.7703   -0.6880 N   0  0  0  0  0  0  0  0  0  0  0  0
   -0.3054   -1.1643   -0.9207 H   0  0  0  0  0  0  0  0  0  0  0  0
    1.7612   -1.6466   -0.8012 C   0  0  0  0  0  0  0  0  0  0  0  0
    1.9439   -2.1621    0.1476 H   0  0  0  0  0  0  0  0  0  0  0  0
    1.5917   -2.3976   -1.5784 H   0  0  0  0  0  0  0  0  0  0  0  0
    2.6542   -1.0717   -1.0683 H   0  0  0  0  0  0  0  0  0  0  0  0
  1  2  1  0  0  0  0
  2  3  1  0  0  0  0
  2  4  1  0  0  0  0
  2  5  1  0  0  0  0
  5  6  2  0  0  0  0
  5  7  1  0  0  0  0
  7  8  1  0  0  0  0
  7  9  1  0  0  0  0
  9 10  1  0  0  0  0
  9 11  1  0  0  0  0
  9 26  1  0  0  0  0
 11 12  1  0  0  0  0
 11 13  1  0  0  0  0
 11 14  1  0  0  0  0
 14 15  1  0  0  0  0
 14 16  1  0  0  0  0
 14 17  1  0  0  0  0
 17 18  1  0  0  0  0
 17 19  1  0  0  0  0
 17 20  1  0  0  0  0
 20 21  1  0  0  0  0
 20 22  1  0  0  0  0
 20 23  1  0  0  0  0
 23 24  1  0  0  0  0
 23 25  1  0  0  0  0
 26 27  2  0  0  0  0
 26 28  1  0  0  0  0
 28 29  1  0  0  0  0
 28 30  1  0  0  0  0
 30 31  1  0  0  0  0
 30 32  1  0  0  0  0
 30 33  1  0  0  0  0
M  END
$$$$

  -OEChem-01062216083D

 33 32  0     1  0  0  0  0  0999 V2000
   -3.8099   -2.2718    1.2302 H   0  0  0  0  0  0  0  0  0  0  0  0
   -3.7398   -1.2749    0.7850 C   0  0  0  0  0  0  0  0  0  0  0  0
   -4.3534   -0.5862    1.3708 H   0  0  0  0  0  0  0  0  0  0  0  0
   -4.1242   -1.3184   -0.2369 H   0  0  0  0  0  0  0  0  0  0  0  0
   -2.2970   -0.8055    0.7776 C   0  0  0  0  0  0  0  0  0  0  0  0
   -1.4297   -1.5596    1.1766 O   0  0  0  0  0  0  0  0  0  0  0  0
   -2.0116    0.4618    0.2996 N   0  0  0  0  0  0  0  0  0  0  0  0
   -2.8234    1.0145    0.0425 H   0  0  0  0  0  0  0  0  0  0  0  0
   -0.7091    1.1681    0.3168 C   0  0  1  0  0  0  0  0  0  0  0  0
   -0.6557    1.8098   -0.5674 H   0  0  0  0  0  0  0  0  0  0  0  0
   -0.6979    2.0705    1.5723 C   0  0  0  0  0  0  0  0  0  0  0  0
   -0.9015    1.4629    2.4609 H   0  0  0  0  0  0  0  0  0  0  0  0
    0.2970    2.5116    1.6972 H   0  0  0  0  0  0  0  0  0  0  0  0
   -1.7085    3.2233    1.4700 C   0  0  0  0  0  0  0  0  0  0  0  0
   -1.4861    3.8293    0.5856 H   0  0  0  0  0  0  0  0  0  0  0  0
   -2.7218    2.8237    1.3637 H   0  0  0  0  0  0  0  0  0  0  0  0
   -1.6426    4.1025    2.7239 C   0  0  0  0  0  0  0  0  0  0  0  0
   -1.8449    3.4920    3.6099 H   0  0  0  0  0  0  0  0  0  0  0  0
   -0.6367    4.5231    2.8269 H   0  0  0  0  0  0  0  0  0  0  0  0
   -2.6582    5.2390    2.6489 C   0  0  0  0  0  0  0  0  0  0  0  0
   -2.4486    5.8733    1.7806 H   0  0  0  0  0  0  0  0  0  0  0  0
   -3.6695    4.8325    2.5378 H   0  0  0  0  0  0  0  0  0  0  0  0
   -2.5674    6.0301    3.8795 N   0  0  0  0  0  0  0  0  0  0  0  0
   -3.2327    6.8032    3.8756 H   0  0  0  0  0  0  0  0  0  0  0  0
   -2.6926    5.4438    4.7050 H   0  0  0  0  0  0  0  0  0  0  0  0
    0.5618    0.2736    0.2382 C   0  0  0  0  0  0  0  0  0  0  0  0
    1.5078    0.4248    1.0031 O   0  0  0  0  0  0  0  0  0  0  0  0
    0.7336   -0.5429   -0.8660 N   0  0  0  0  0  0  0  0  0  0  0  0
   -0.1162   -0.7781   -1.3682 H   0  0  0  0  0  0  0  0  0  0  0  0
    1.8756   -1.4392   -1.0001 C   0  0  0  0  0  0  0  0  0  0  0  0
    1.8957   -2.1582   -0.1743 H   0  0  0  0  0  0  0  0  0  0  0  0
    1.8130   -1.9923   -1.9420 H   0  0  0  0  0  0  0  0  0  0  0  0
    2.8124   -0.8722   -0.9964 H   0  0  0  0  0  0  0  0  0  0  0  0
  1  2  1  0  0  0  0
  2  3  1  0  0  0  0
  2  4  1  0  0  0  0
  2  5  1  0  0  0  0
  5  6  2  0  0  0  0
  5  7  1  0  0  0  0
  7  8  1  0  0  0  0
  7  9  1  0  0  0  0
  9 10  1  0  0  0  0
  9 11  1  0  0  0  0
  9 26  1  0  0  0  0
 11 12  1  0  0  0  0
 11 13  1  0  0  0  0
 11 14  1  0  0  0  0
 14 15  1  0  0  0  0
 14 16  1  0  0  0  0
 14 17  1  0  0  0  0
 17 18  1  0  0  0  0
 17 19  1  0  0  0  0
 17 20  1  0  0  0  0
 20 21  1  0  0  0  0
 20 22  1  0  0  0  0
 20 23  1  0  0  0  0
 23 24  1  0  0  0  0
 23 25  1  0  0  0  0
 26 27  2  0  0  0  0
 26 28  1  0  0  0  0
 28 29  1  0  0  0  0
 28 30  1  0  0  0  0
 30 31  1  0  0  0  0
 30 32  1  0  0  0  0
 30 33  1  0  0  0  0
M  END
$$$$

  -OEChem-01062216083D

 33 32  0     1  0  0  0  0  0999 V2000
   -3.8122   -2.2669    1.2460 H   0  0  0  0  0  0  0  0  0  0  0  0
   -3.7420   -1.2687    0.8036 C   0  0  0  0  0  0  0  0  0  0  0  0
   -4.3368   -0.5774    1.4054 H   0  0  0  0  0  0  0  0  0  0  0  0
   -4.1484   -1.3040   -0.2099 H   0  0  0  0  0  0  0  0  0  0  0  0
   -2.2947   -0.8138    0.7662 C   0  0  0  0  0  0  0  0  0  0  0  0
   -1.4266   -1.5854    1.1271 O   0  0  0  0  0  0  0  0  0  0  0  0
   -2.0089    0.4544    0.2904 N   0  0  0  0  0  0  0  0  0  0  0  0
   -2.8230    1.0158    0.0617 H   0  0  0  0  0  0  0  0  0  0  0  0
   -0.7071    1.1603    0.3187 C   0  0  1  0  0  0  0  0  0  0  0  0
   -0.6494    1.8059   -0.5625 H   0  0  0  0  0  0  0  0  0  0  0  0
   -0.6972    2.0605    1.5740 C   0  0  0  0  0  0  0  0  0  0  0  0
   -0.9076    1.4526    2.4610 H   0  0  0  0  0  0  0  0  0  0  0  0
    0.3013    2.4935    1.7020 H   0  0  0  0  0  0  0  0  0  0  0  0
   -1.7045    3.2162    1.4685 C   0  0  0  0  0  0  0  0  0  0  0  0
   -1.4776    3.8224    0.5853 H   0  0  0  0  0  0  0  0  0  0  0  0
   -2.7184    2.8194    1.3576 H   0  0  0  0  0  0  0  0  0  0  0  0
   -1.6425    4.0958    2.7220 C   0  0  0  0  0  0  0  0  0  0  0  0
   -1.8499    3.4866    3.6077 H   0  0  0  0  0  0  0  0  0  0  0  0
   -0.6362    4.5148    2.8295 H   0  0  0  0  0  0  0  0  0  0  0  0
   -2.6563    5.2333    2.6395 C   0  0  0  0  0  0  0  0  0  0  0  0
   -2.4419    5.8653    1.7705 H   0  0  0  0  0  0  0  0  0  0  0  0
   -3.6669    4.8264    2.5242 H   0  0  0  0  0  0  0  0  0  0  0  0
   -2.5721    6.0269    3.8686 N   0  0  0  0  0  0  0  0  0  0  0  0
   -3.2451    6.7933    3.8638 H   0  0  0  0  0  0  0  0  0  0  0  0
   -2.6913    5.4403    4.6948 H   0  0  0  0  0  0  0  0  0  0  0  0
    0.5634    0.2660    0.2510 C   0  0  0  0  0  0  0  0  0  0  0  0
    1.3881    0.2431    1.1577 O   0  0  0  0  0  0  0  0  0  0  0  0
    0.9078   -0.3036   -0.9622 N   0  0  0  0  0  0  0  0  0  0  0  0
    0.1605   -0.3844   -1.6434 H   0  0  0  0  0  0  0  0  0  0  0  0
    2.0780   -1.1592   -1.1188 C   0  0  0  0  0  0  0  0  0  0  0  0
    2.0061   -2.0292   -0.4575 H   0  0  0  0  0  0  0  0  0  0  0  0
    2.1531   -1.5123   -2.1516 H   0  0  0  0  0  0  0  0  0  0  0  0
    2.9925   -0.6076   -0.8767 H   0  0  0  0  0  0  0  0  0  0  0  0
  1  2  1  0  0  0  0
  2  3  1  0  0  0  0
  2  4  1  0  0  0  0
  2  5  1  0  0  0  0
  5  6  2  0  0  0  0
  5  7  1  0  0  0  0
  7  8  1  0  0  0  0
  7  9  1  0  0  0  0
  9 10  1  0  0  0  0
  9 11  1  0  0  0  0
  9 26  1  0  0  0  0
 11 12  1  0  0  0  0
 11 13  1  0  0  0  0
 11 14  1  0  0  0  0
 14 15  1  0  0  0  0
 14 16  1  0  0  0  0
 14 17  1  0  0  0  0
 17 18  1  0  0  0  0
 17 19  1  0  0  0  0
 17 20  1  0  0  0  0
 20 21  1  0  0  0  0
 20 22  1  0  0  0  0
 20 23  1  0  0  0  0
 23 24  1  0  0  0  0
 23 25  1  0  0  0  0
 26 27  2  0  0  0  0
 26 28  1  0  0  0  0
 28 29  1  0  0  0  0
 28 30  1  0  0  0  0
 30 31  1  0  0  0  0
 30 32  1  0  0  0  0
 30 33  1  0  0  0  0
M  END
$$$$

  -OEChem-01062216083D

 33 32  0     1  0  0  0  0  0999 V2000
   -3.8436   -2.2530    1.2700 H   0  0  0  0  0  0  0  0  0  0  0  0
   -3.7677   -1.2558    0.8263 C   0  0  0  0  0  0  0  0  0  0  0  0
   -4.3336   -0.5542    1.4439 H   0  0  0  0  0  0  0  0  0  0  0  0
   -4.2010   -1.2829   -0.1763 H   0  0  0  0  0  0  0  0  0  0  0  0
   -2.3139   -0.8267    0.7526 C   0  0  0  0  0  0  0  0  0  0  0  0
   -1.4517   -1.6211    1.0751 O   0  0  0  0  0  0  0  0  0  0  0  0
   -2.0199    0.4398    0.2771 N   0  0  0  0  0  0  0  0  0  0  0  0
   -2.8327    1.0126    0.0744 H   0  0  0  0  0  0  0  0  0  0  0  0
   -0.7157    1.1402    0.3125 C   0  0  1  0  0  0  0  0  0  0  0  0
   -0.6564    1.7885   -0.5664 H   0  0  0  0  0  0  0  0  0  0  0  0
   -0.7034    2.0394    1.5677 C   0  0  0  0  0  0  0  0  0  0  0  0
   -0.9219    1.4329    2.4537 H   0  0  0  0  0  0  0  0  0  0  0  0
    0.2991    2.4619    1.6990 H   0  0  0  0  0  0  0  0  0  0  0  0
   -1.7027    3.2010    1.4608 C   0  0  0  0  0  0  0  0  0  0  0  0
   -1.4700    3.8064    0.5785 H   0  0  0  0  0  0  0  0  0  0  0  0
   -2.7184    2.8101    1.3471 H   0  0  0  0  0  0  0  0  0  0  0  0
   -1.6381    4.0792    2.7149 C   0  0  0  0  0  0  0  0  0  0  0  0
   -1.8520    3.4705    3.5996 H   0  0  0  0  0  0  0  0  0  0  0  0
   -0.6296    4.4914    2.8254 H   0  0  0  0  0  0  0  0  0  0  0  0
   -2.6449    5.2230    2.6298 C   0  0  0  0  0  0  0  0  0  0  0  0
   -2.4244    5.8538    1.7615 H   0  0  0  0  0  0  0  0  0  0  0  0
   -3.6578    4.8228    2.5117 H   0  0  0  0  0  0  0  0  0  0  0  0
   -2.5589    6.0156    3.8594 N   0  0  0  0  0  0  0  0  0  0  0  0
   -3.2278    6.7856    3.8538 H   0  0  0  0  0  0  0  0  0  0  0  0
   -2.6827    5.4295    4.6852 H   0  0  0  0  0  0  0  0  0  0  0  0
    0.5597    0.2525    0.2548 C   0  0  0  0  0  0  0  0  0  0  0  0
    1.2555    0.0621    1.2460 O   0  0  0  0  0  0  0  0  0  0  0  0
    1.0967   -0.0591   -0.9824 N   0  0  0  0  0  0  0  0  0  0  0  0
    0.4770    0.0274   -1.7810 H   0  0  0  0  0  0  0  0  0  0  0  0
    2.3198   -0.8382   -1.1343 C   0  0  0  0  0  0  0  0  0  0  0  0
    2.2103   -1.8177   -0.6565 H   0  0  0  0  0  0  0  0  0  0  0  0
    2.5414   -0.9911   -2.1947 H   0  0  0  0  0  0  0  0  0  0  0  0
    3.1670   -0.3156   -0.6774 H   0  0  0  0  0  0  0  0  0  0  0  0
  1  2  1  0  0  0  0
  2  3  1  0  0  0  0
  2  4  1  0  0  0  0
  2  5  1  0  0  0  0
  5  6  2  0  0  0  0
  5  7  1  0  0  0  0
  7  8  1  0  0  0  0
  7  9  1  0  0  0  0
  9 10  1  0  0  0  0
  9 11  1  0  0  0  0
  9 26  1  0  0  0  0
 11 12  1  0  0  0  0
 11 13  1  0  0  0  0
 11 14  1  0  0  0  0
 14 15  1  0  0  0  0
 14 16  1  0  0  0  0
 14 17  1  0  0  0  0
 17 18  1  0  0  0  0
 17 19  1  0  0  0  0
 17 20  1  0  0  0  0
 20 21  1  0  0  0  0
 20 22  1  0  0  0  0
 20 23  1  0  0  0  0
 23 24  1  0  0  0  0
 23 25  1  0  0  0  0
 26 27  2  0  0  0  0
 26 28  1  0  0  0  0
 28 29  1  0  0  0  0
 28 30  1  0  0  0  0
 30 31  1  0  0  0  0
 30 32  1  0  0  0  0
 30 33  1  0  0  0  0
M  END
$$$$

  -OEChem-01062216083D

 33 32  0     1  0  0  0  0  0999 V2000
   -3.8899   -2.2359    1.2907 H   0  0  0  0  0  0  0  0  0  0  0  0
   -3.8019   -1.2408    0.8452 C   0  0  0  0  0  0  0  0  0  0  0  0
   -4.3428   -0.5282    1.4725 H   0  0  0  0  0  0  0  0  0  0  0  0
   -4.2532   -1.2601   -0.1496 H   0  0  0  0  0  0  0  0  0  0  0  0
   -2.3417   -0.8406    0.7447 C   0  0  0  0  0  0  0  0  0  0  0  0
   -1.4915   -1.6592    1.0345 O   0  0  0  0  0  0  0  0  0  0  0  0
   -2.0346    0.4206    0.2639 N   0  0  0  0  0  0  0  0  0  0  0  0
   -2.8443    1.0035    0.0791 H   0  0  0  0  0  0  0  0  0  0  0  0
   -0.7272    1.1149    0.2984 C   0  0  1  0  0  0  0  0  0  0  0  0
   -0.6712    1.7616   -0.5818 H   0  0  0  0  0  0  0  0  0  0  0  0
   -0.7086    2.0147    1.5520 C   0  0  0  0  0  0  0  0  0  0  0  0
   -0.9305    1.4103    2.4386 H   0  0  0  0  0  0  0  0  0  0  0  0
    0.2980    2.4279    1.6822 H   0  0  0  0  0  0  0  0  0  0  0  0
   -1.7020    3.1820    1.4463 C   0  0  0  0  0  0  0  0  0  0  0  0
   -1.4678    3.7854    0.5631 H   0  0  0  0  0  0  0  0  0  0  0  0
   -2.7204    2.7972    1.3347 H   0  0  0  0  0  0  0  0  0  0  0  0
   -1.6293    4.0596    2.7003 C   0  0  0  0  0  0  0  0  0  0  0  0
   -1.8444    3.4519    3.5854 H   0  0  0  0  0  0  0  0  0  0  0  0
   -0.6180    4.4656    2.8086 H   0  0  0  0  0  0  0  0  0  0  0  0
   -2.6288    5.2096    2.6198 C   0  0  0  0  0  0  0  0  0  0  0  0
   -2.4088    5.8404    1.7514 H   0  0  0  0  0  0  0  0  0  0  0  0
   -3.6447    4.8156    2.5057 H   0  0  0  0  0  0  0  0  0  0  0  0
   -2.5316    5.9983    3.8510 N   0  0  0  0  0  0  0  0  0  0  0  0
   -3.2031    6.7660    3.8555 H   0  0  0  0  0  0  0  0  0  0  0  0
   -2.6443    5.4089    4.6760 H   0  0  0  0  0  0  0  0  0  0  0  0
    0.5566    0.2384    0.2515 C   0  0  0  0  0  0  0  0  0  0  0  0
    1.1273   -0.1120    1.2781 O   0  0  0  0  0  0  0  0  0  0  0  0
    1.2787    0.1803   -0.9288 N   0  0  0  0  0  0  0  0  0  0  0  0
    0.7942    0.4450   -1.7798 H   0  0  0  0  0  0  0  0  0  0  0  0
    2.5605   -0.5060   -1.0406 C   0  0  0  0  0  0  0  0  0  0  0  0
    2.4570   -1.5581   -0.7545 H   0  0  0  0  0  0  0  0  0  0  0  0
    2.9261   -0.4607   -2.0708 H   0  0  0  0  0  0  0  0  0  0  0  0
    3.3050   -0.0356   -0.3896 H   0  0  0  0  0  0  0  0  0  0  0  0
  1  2  1  0  0  0  0
  2  3  1  0  0  0  0
  2  4  1  0  0  0  0
  2  5  1  0  0  0  0
  5  6  2  0  0  0  0
  5  7  1  0  0  0  0
  7  8  1  0  0  0  0
  7  9  1  0  0  0  0
  9 10  1  0  0  0  0
  9 11  1  0  0  0  0
  9 26  1  0  0  0  0
 11 12  1  0  0  0  0
 11 13  1  0  0  0  0
 11 14  1  0  0  0  0
 14 15  1  0  0  0  0
 14 16  1  0  0  0  0
 14 17  1  0  0  0  0
 17 18  1  0  0  0  0
 17 19  1  0  0  0  0
 17 20  1  0  0  0  0
 20 21  1  0  0  0  0
 20 22  1  0  0  0  0
 20 23  1  0  0  0  0
 23 24  1  0  0  0  0
 23 25  1  0  0  0  0
 26 27  2  0  0  0  0
 26 28  1  0  0  0  0
 28 29  1  0  0  0  0
 28 30  1  0  0  0  0
 30 31  1  0  0  0  0
 30 32  1  0  0  0  0
 30 33  1  0  0  0  0
M  END
$$$$

  -OEChem-01062216083D

 33 32  0     1  0  0  0  0  0999 V2000
   -3.9500   -2.1991    1.3319 H   0  0  0  0  0  0  0  0  0  0  0  0
   -3.8456   -1.2076    0.8817 C   0  0  0  0  0  0  0  0  0  0  0  0
   -4.3354   -0.4768    1.5294 H   0  0  0  0  0  0  0  0  0  0  0  0
   -4.3372   -1.2108   -0.0940 H   0  0  0  0  0  0  0  0  0  0  0  0
   -2.3775   -0.8575    0.7224 C   0  0  0  0  0  0  0  0  0  0  0  0
   -1.5475   -1.7133    0.9552 O   0  0  0  0  0  0  0  0  0  0  0  0
   -2.0503    0.3974    0.2384 N   0  0  0  0  0  0  0  0  0  0  0  0
   -2.8537    0.9957    0.0784 H   0  0  0  0  0  0  0  0  0  0  0  0
   -0.7367    1.0811    0.2726 C   0  0  1  0  0  0  0  0  0  0  0  0
   -0.6839    1.7264   -0.6087 H   0  0  0  0  0  0  0  0  0  0  0  0
   -0.7122    1.9779    1.5278 C   0  0  0  0  0  0  0  0  0  0  0  0
   -0.9407    1.3729    2.4128 H   0  0  0  0  0  0  0  0  0  0  0  0
    0.2979    2.3815    1.6615 H   0  0  0  0  0  0  0  0  0  0  0  0
   -1.6966    3.1527    1.4242 C   0  0  0  0  0  0  0  0  0  0  0  0
   -1.4565    3.7564    0.5426 H   0  0  0  0  0  0  0  0  0  0  0  0
   -2.7180    2.7768    1.3113 H   0  0  0  0  0  0  0  0  0  0  0  0
   -1.6168    4.0257    2.6809 C   0  0  0  0  0  0  0  0  0  0  0  0
   -1.8376    3.4166    3.5638 H   0  0  0  0  0  0  0  0  0  0  0  0
   -0.6023    4.4231    2.7905 H   0  0  0  0  0  0  0  0  0  0  0  0
   -2.6062    5.1848    2.6064 C   0  0  0  0  0  0  0  0  0  0  0  0
   -2.3806    5.8185    1.7413 H   0  0  0  0  0  0  0  0  0  0  0  0
   -3.6262    4.8012    2.4920 H   0  0  0  0  0  0  0  0  0  0  0  0
   -2.4986    5.9654    3.8421 N   0  0  0  0  0  0  0  0  0  0  0  0
   -3.1580    6.7435    3.8501 H   0  0  0  0  0  0  0  0  0  0  0  0
   -2.6221    5.3733    4.6637 H   0  0  0  0  0  0  0  0  0  0  0  0
    0.5576    0.2195    0.2358 C   0  0  0  0  0  0  0  0  0  0  0  0
    1.0130   -0.2842    1.2556 O   0  0  0  0  0  0  0  0  0  0  0  0
    1.4445    0.4049   -0.8128 N   0  0  0  0  0  0  0  0  0  0  0  0
    1.0930    0.8598   -1.6485 H   0  0  0  0  0  0  0  0  0  0  0  0
    2.7837   -0.1728   -0.8408 C   0  0  0  0  0  0  0  0  0  0  0  0
    2.7347   -1.2605   -0.7233 H   0  0  0  0  0  0  0  0  0  0  0  0
    3.2726    0.0502   -1.7938 H   0  0  0  0  0  0  0  0  0  0  0  0
    3.3957    0.2415   -0.0326 H   0  0  0  0  0  0  0  0  0  0  0  0
  1  2  1  0  0  0  0
  2  3  1  0  0  0  0
  2  4  1  0  0  0  0
  2  5  1  0  0  0  0
  5  6  2  0  0  0  0
  5  7  1  0  0  0  0
  7  8  1  0  0  0  0
  7  9  1  0  0  0  0
  9 10  1  0  0  0  0
  9 11  1  0  0  0  0
  9 26  1  0  0  0  0
 11 12  1  0  0  0  0
 11 13  1  0  0  0  0
 11 14  1  0  0  0  0
 14 15  1  0  0  0  0
 14 16  1  0  0  0  0
 14 17  1  0  0  0  0
 17 18  1  0  0  0  0
 17 19  1  0  0  0  0
 17 20  1  0  0  0  0
 20 21  1  0  0  0  0
 20 22  1  0  0  0  0
 20 23  1  0  0  0  0
 23 24  1  0  0  0  0
 23 25  1  0  0  0  0
 26 27  2  0  0  0  0
 26 28  1  0  0  0  0
 28 29  1  0  0  0  0
 28 30  1  0  0  0  0
 30 31  1  0  0  0  0
 30 32  1  0  0  0  0
 30 33  1  0  0  0  0
M  END
$$$$

  -OEChem-01062216083D

 33 32  0     1  0  0  0  0  0999 V2000
   -3.9674   -2.3475    1.1498 H   0  0  0  0  0  0  0  0  0  0  0  0
   -3.8356   -1.3783    0.6597 C   0  0  0  0  0  0  0  0  0  0  0  0
   -4.5777   -0.6811    1.0560 H   0  0  0  0  0  0  0  0  0  0  0  0
   -3.9973   -1.5046   -0.4134 H   0  0  0  0  0  0  0  0  0  0  0  0
   -2.4356   -0.8497    0.9151 C   0  0  0  0  0  0  0  0  0  0  0  0
   -1.7016   -1.4961    1.6327 O   0  0  0  0  0  0  0  0  0  0  0  0
   -2.0920    0.3747    0.3672 N   0  0  0  0  0  0  0  0  0  0  0  0
   -2.8411    0.8141   -0.1572 H   0  0  0  0  0  0  0  0  0  0  0  0
   -0.7777    1.0606    0.3189 C   0  0  1  0  0  0  0  0  0  0  0  0
   -0.7712    1.6762   -0.5846 H   0  0  0  0  0  0  0  0  0  0  0  0
   -0.7003    1.9901    1.5462 C   0  0  0  0  0  0  0  0  0  0  0  0
   -0.8879    1.4060    2.4546 H   0  0  0  0  0  0  0  0  0  0  0  0
    0.3128    2.3992    1.6266 H   0  0  0  0  0  0  0  0  0  0  0  0
   -1.6914    3.1604    1.4592 C   0  0  0  0  0  0  0  0  0  0  0  0
   -1.4948    3.7432    0.5533 H   0  0  0  0  0  0  0  0  0  0  0  0
   -2.7156    2.7781    1.4034 H   0  0  0  0  0  0  0  0  0  0  0  0
   -1.5544    4.0641    2.6894 C   0  0  0  0  0  0  0  0  0  0  0  0
   -1.7317    3.4761    3.5960 H   0  0  0  0  0  0  0  0  0  0  0  0
   -0.5367    4.4648    2.7416 H   0  0  0  0  0  0  0  0  0  0  0  0
   -2.5485    5.2201    2.6341 C   0  0  0  0  0  0  0  0  0  0  0  0
   -2.3667    5.8324    1.7439 H   0  0  0  0  0  0  0  0  0  0  0  0
   -3.5715    4.8317    2.5783 H   0  0  0  0  0  0  0  0  0  0  0  0
   -2.3847    6.0310    3.8438 N   0  0  0  0  0  0  0  0  0  0  0  0
   -3.0503    6.8035    3.8671 H   0  0  0  0  0  0  0  0  0  0  0  0
   -2.4628    5.4570    4.6837 H   0  0  0  0  0  0  0  0  0  0  0  0
    0.5397    0.2320    0.2721 C   0  0  0  0  0  0  0  0  0  0  0  0
    0.9087   -0.5017    1.1760 O   0  0  0  0  0  0  0  0  0  0  0  0
    1.5146    0.6193   -0.6348 N   0  0  0  0  0  0  0  0  0  0  0  0
    1.2661    1.3184   -1.3266 H   0  0  0  0  0  0  0  0  0  0  0  0
    2.8752    0.0912   -0.6303 C   0  0  0  0  0  0  0  0  0  0  0  0
    2.8625   -1.0004   -0.7171 H   0  0  0  0  0  0  0  0  0  0  0  0
    3.4425    0.4973   -1.4731 H   0  0  0  0  0  0  0  0  0  0  0  0
    3.3891    0.3647    0.2973 H   0  0  0  0  0  0  0  0  0  0  0  0
  1  2  1  0  0  0  0
  2  3  1  0  0  0  0
  2  4  1  0  0  0  0
  2  5  1  0  0  0  0
  5  6  2  0  0  0  0
  5  7  1  0  0  0  0
  7  8  1  0  0  0  0
  7  9  1  0  0  0  0
  9 10  1  0  0  0  0
  9 11  1  0  0  0  0
  9 26  1  0  0  0  0
 11 12  1  0  0  0  0
 11 13  1  0  0  0  0
 11 14  1  0  0  0  0
 14 15  1  0  0  0  0
 14 16  1  0  0  0  0
 14 17  1  0  0  0  0
 17 18  1  0  0  0  0
 17 19  1  0  0  0  0
 17 20  1  0  0  0  0
 20 21  1  0  0  0  0
 20 22  1  0  0  0  0
 20 23  1  0  0  0  0
 23 24  1  0  0  0  0
 23 25  1  0  0  0  0
 26 27  2  0  0  0  0
 26 28  1  0  0  0  0
 28 29  1  0  0  0  0
 28 30  1  0  0  0  0
 30 31  1  0  0  0  0
 30 32  1  0  0  0  0
 30 33  1  0  0  0  0
M  END
$$$$

  -OEChem-01062216083D

 33 32  0     1  0  0  0  0  0999 V2000
   -3.4269   -2.6435    0.9849 H   0  0  0  0  0  0  0  0  0  0  0  0
   -3.4228   -1.6950    0.4403 C   0  0  0  0  0  0  0  0  0  0  0  0
   -4.4215   -1.2548    0.4865 H   0  0  0  0  0  0  0  0  0  0  0  0
   -3.1625   -1.8933   -0.6020 H   0  0  0  0  0  0  0  0  0  0  0  0
   -2.4093   -0.7493    1.0559 C   0  0  0  0  0  0  0  0  0  0  0  0
   -1.9831   -0.9735    2.1769 O   0  0  0  0  0  0  0  0  0  0  0  0
   -2.1724    0.4800    0.4674 N   0  0  0  0  0  0  0  0  0  0  0  0
   -2.7286    0.6149   -0.3701 H   0  0  0  0  0  0  0  0  0  0  0  0
   -0.8466    1.1413    0.4297 C   0  0  1  0  0  0  0  0  0  0  0  0
   -0.8163    1.7470   -0.4805 H   0  0  0  0  0  0  0  0  0  0  0  0
   -0.7453    2.0820    1.6470 C   0  0  0  0  0  0  0  0  0  0  0  0
   -0.9512    1.5176    2.5635 H   0  0  0  0  0  0  0  0  0  0  0  0
    0.2759    2.4699    1.7261 H   0  0  0  0  0  0  0  0  0  0  0  0
   -1.7097    3.2724    1.5383 C   0  0  0  0  0  0  0  0  0  0  0  0
   -1.5012    3.8355    0.6228 H   0  0  0  0  0  0  0  0  0  0  0  0
   -2.7412    2.9090    1.4860 H   0  0  0  0  0  0  0  0  0  0  0  0
   -1.5587    4.1935    2.7536 C   0  0  0  0  0  0  0  0  0  0  0  0
   -1.7529    3.6244    3.6687 H   0  0  0  0  0  0  0  0  0  0  0  0
   -0.5331    4.5737    2.8035 H   0  0  0  0  0  0  0  0  0  0  0  0
   -2.5285    5.3689    2.6733 C   0  0  0  0  0  0  0  0  0  0  0  0
   -2.3316    5.9612    1.7728 H   0  0  0  0  0  0  0  0  0  0  0  0
   -3.5590    5.0004    2.6200 H   0  0  0  0  0  0  0  0  0  0  0  0
   -2.3537    6.1978    3.8695 N   0  0  0  0  0  0  0  0  0  0  0  0
   -3.0036    6.9838    3.8747 H   0  0  0  0  0  0  0  0  0  0  0  0
   -2.4518    5.6398    4.7181 H   0  0  0  0  0  0  0  0  0  0  0  0
    0.4417    0.2654    0.3920 C   0  0  0  0  0  0  0  0  0  0  0  0
    0.4493   -0.9440    0.5708 O   0  0  0  0  0  0  0  0  0  0  0  0
    1.5520    0.7909   -0.2497 N   0  0  0  0  0  0  0  0  0  0  0  0
    1.5531    1.7876   -0.4418 H   0  0  0  0  0  0  0  0  0  0  0  0
    2.7695    0.0290   -0.5081 C   0  0  0  0  0  0  0  0  0  0  0  0
    2.5579   -0.8178   -1.1693 H   0  0  0  0  0  0  0  0  0  0  0  0
    3.5185    0.6643   -0.9901 H   0  0  0  0  0  0  0  0  0  0  0  0
    3.1901   -0.3515    0.4288 H   0  0  0  0  0  0  0  0  0  0  0  0
  1  2  1  0  0  0  0
  2  3  1  0  0  0  0
  2  4  1  0  0  0  0
  2  5  1  0  0  0  0
  5  6  2  0  0  0  0
  5  7  1  0  0  0  0
  7  8  1  0  0  0  0
  7  9  1  0  0  0  0
  9 10  1  0  0  0  0
  9 11  1  0  0  0  0
  9 26  1  0  0  0  0
 11 12  1  0  0  0  0
 11 13  1  0  0  0  0
 11 14  1  0  0  0  0
 14 15  1  0  0  0  0
 14 16  1  0  0  0  0
 14 17  1  0  0  0  0
 17 18  1  0  0  0  0
 17 19  1  0  0  0  0
 17 20  1  0  0  0  0
 20 21  1  0  0  0  0
 20 22  1  0  0  0  0
 20 23  1  0  0  0  0
 23 24  1  0  0  0  0
 23 25  1  0  0  0  0
 26 27  2  0  0  0  0
 26 28  1  0  0  0  0
 28 29  1  0  0  0  0
 28 30  1  0  0  0  0
 30 31  1  0  0  0  0
 30 32  1  0  0  0  0
 30 33  1  0  0  0  0
M  END
$$$$

  -OEChem-01062216083D

 33 32  0     1  0  0  0  0  0999 V2000
   -3.4998   -2.5873    1.0529 H   0  0  0  0  0  0  0  0  0  0  0  0
   -3.4450   -1.6647    0.4681 C   0  0  0  0  0  0  0  0  0  0  0  0
   -4.4206   -1.1733    0.4896 H   0  0  0  0  0  0  0  0  0  0  0  0
   -3.1920   -1.9201   -0.5637 H   0  0  0  0  0  0  0  0  0  0  0  0
   -2.3854   -0.7457    1.0457 C   0  0  0  0  0  0  0  0  0  0  0  0
   -1.8777   -1.0101    2.1242 O   0  0  0  0  0  0  0  0  0  0  0  0
   -2.1558    0.4888    0.4643 N   0  0  0  0  0  0  0  0  0  0  0  0
   -2.7196    0.6374   -0.3659 H   0  0  0  0  0  0  0  0  0  0  0  0
   -0.8286    1.1468    0.4364 C   0  0  1  0  0  0  0  0  0  0  0  0
   -0.7826    1.7547   -0.4719 H   0  0  0  0  0  0  0  0  0  0  0  0
   -0.7424    2.0836    1.6597 C   0  0  0  0  0  0  0  0  0  0  0  0
   -0.9613    1.5160    2.5710 H   0  0  0  0  0  0  0  0  0  0  0  0
    0.2753    2.4750    1.7562 H   0  0  0  0  0  0  0  0  0  0  0  0
   -1.7074    3.2721    1.5421 C   0  0  0  0  0  0  0  0  0  0  0  0
   -1.4880    3.8381    0.6309 H   0  0  0  0  0  0  0  0  0  0  0  0
   -2.7377    2.9077    1.4753 H   0  0  0  0  0  0  0  0  0  0  0  0
   -1.5730    4.1896    2.7621 C   0  0  0  0  0  0  0  0  0  0  0  0
   -1.7783    3.6177    3.6730 H   0  0  0  0  0  0  0  0  0  0  0  0
   -0.5488    4.5715    2.8266 H   0  0  0  0  0  0  0  0  0  0  0  0
   -2.5440    5.3630    2.6710 C   0  0  0  0  0  0  0  0  0  0  0  0
   -2.3324    5.9578    1.7757 H   0  0  0  0  0  0  0  0  0  0  0  0
   -3.5730    4.9933    2.5996 H   0  0  0  0  0  0  0  0  0  0  0  0
   -2.3898    6.1917    3.8700 N   0  0  0  0  0  0  0  0  0  0  0  0
   -3.0346    6.9820    3.8589 H   0  0  0  0  0  0  0  0  0  0  0  0
   -2.5104    5.6361    4.7173 H   0  0  0  0  0  0  0  0  0  0  0  0
    0.4443    0.2495    0.3965 C   0  0  0  0  0  0  0  0  0  0  0  0
    0.3858   -0.9607    0.2191 O   0  0  0  0  0  0  0  0  0  0  0  0
    1.6483    0.8486    0.0599 N   0  0  0  0  0  0  0  0  0  0  0  0
    1.7053    1.8585    0.1459 H   0  0  0  0  0  0  0  0  0  0  0  0
    2.8731    0.1020   -0.2100 C   0  0  0  0  0  0  0  0  0  0  0  0
    2.7532   -0.5228   -1.1012 H   0  0  0  0  0  0  0  0  0  0  0  0
    3.7061    0.7905   -0.3810 H   0  0  0  0  0  0  0  0  0  0  0  0
    3.1252   -0.5409    0.6401 H   0  0  0  0  0  0  0  0  0  0  0  0
  1  2  1  0  0  0  0
  2  3  1  0  0  0  0
  2  4  1  0  0  0  0
  2  5  1  0  0  0  0
  5  6  2  0  0  0  0
  5  7  1  0  0  0  0
  7  8  1  0  0  0  0
  7  9  1  0  0  0  0
  9 10  1  0  0  0  0
  9 11  1  0  0  0  0
  9 26  1  0  0  0  0
 11 12  1  0  0  0  0
 11 13  1  0  0  0  0
 11 14  1  0  0  0  0
 14 15  1  0  0  0  0
 14 16  1  0  0  0  0
 14 17  1  0  0  0  0
 17 18  1  0  0  0  0
 17 19  1  0  0  0  0
 17 20  1  0  0  0  0
 20 21  1  0  0  0  0
 20 22  1  0  0  0  0
 20 23  1  0  0  0  0
 23 24  1  0  0  0  0
 23 25  1  0  0  0  0
 26 27  2  0  0  0  0
 26 28  1  0  0  0  0
 28 29  1  0  0  0  0
 28 30  1  0  0  0  0
 30 31  1  0  0  0  0
 30 32  1  0  0  0  0
 30 33  1  0  0  0  0
M  END
$$$$

  -OEChem-01062216083D

 33 32  0     1  0  0  0  0  0999 V2000
   -3.4223   -2.6162    0.9125 H   0  0  0  0  0  0  0  0  0  0  0  0
   -3.4521   -1.6256    0.4502 C   0  0  0  0  0  0  0  0  0  0  0  0
   -4.4003   -1.1455    0.7026 H   0  0  0  0  0  0  0  0  0  0  0  0
   -3.3848   -1.7442   -0.6339 H   0  0  0  0  0  0  0  0  0  0  0  0
   -2.2938   -0.7831    0.9491 C   0  0  0  0  0  0  0  0  0  0  0  0
   -1.5920   -1.2020    1.8567 O   0  0  0  0  0  0  0  0  0  0  0  0
   -2.1071    0.4881    0.4315 N   0  0  0  0  0  0  0  0  0  0  0  0
   -2.7111    0.6951   -0.3574 H   0  0  0  0  0  0  0  0  0  0  0  0
   -0.7989    1.1789    0.4380 C   0  0  1  0  0  0  0  0  0  0  0  0
   -0.8485    1.9920   -0.2920 H   0  0  0  0  0  0  0  0  0  0  0  0
   -0.5474    1.8073    1.8283 C   0  0  0  0  0  0  0  0  0  0  0  0
   -0.6416    1.0472    2.6101 H   0  0  0  0  0  0  0  0  0  0  0  0
    0.4725    2.1989    1.8802 H   0  0  0  0  0  0  0  0  0  0  0  0
   -1.5168    2.9644    2.1056 C   0  0  0  0  0  0  0  0  0  0  0  0
   -1.4135    3.7279    1.3276 H   0  0  0  0  0  0  0  0  0  0  0  0
   -2.5472    2.5946    2.0834 H   0  0  0  0  0  0  0  0  0  0  0  0
   -1.2316    3.5864    3.4766 C   0  0  0  0  0  0  0  0  0  0  0  0
   -1.3223    2.8187    4.2523 H   0  0  0  0  0  0  0  0  0  0  0  0
   -0.2075    3.9731    3.5017 H   0  0  0  0  0  0  0  0  0  0  0  0
   -2.2072    4.7219    3.7705 C   0  0  0  0  0  0  0  0  0  0  0  0
   -2.1090    5.5078    3.0134 H   0  0  0  0  0  0  0  0  0  0  0  0
   -3.2367    4.3483    3.7418 H   0  0  0  0  0  0  0  0  0  0  0  0
   -1.9057    5.2636    5.0985 N   0  0  0  0  0  0  0  0  0  0  0  0
   -2.5385    6.0264    5.3399 H   0  0  0  0  0  0  0  0  0  0  0  0
   -1.9333    4.5303    5.8075 H   0  0  0  0  0  0  0  0  0  0  0  0
    0.4027    0.2990   -0.0108 C   0  0  0  0  0  0  0  0  0  0  0  0
    0.2174   -0.7208   -0.6662 O   0  0  0  0  0  0  0  0  0  0  0  0
    1.6777    0.8403   -0.0399 N   0  0  0  0  0  0  0  0  0  0  0  0
    1.8318    1.6938    0.4873 H   0  0  0  0  0  0  0  0  0  0  0  0
    2.8346    0.1367   -0.5819 C   0  0  0  0  0  0  0  0  0  0  0  0
    2.6872   -0.0833   -1.6446 H   0  0  0  0  0  0  0  0  0  0  0  0
    3.7334    0.7522   -0.4797 H   0  0  0  0  0  0  0  0  0  0  0  0
    2.9958   -0.8044   -0.0456 H   0  0  0  0  0  0  0  0  0  0  0  0
  1  2  1  0  0  0  0
  2  3  1  0  0  0  0
  2  4  1  0  0  0  0
  2  5  1  0  0  0  0
  5  6  2  0  0  0  0
  5  7  1  0  0  0  0
  7  8  1  0  0  0  0
  7  9  1  0  0  0  0
  9 10  1  0  0  0  0
  9 11  1  0  0  0  0
  9 26  1  0  0  0  0
 11 12  1  0  0  0  0
 11 13  1  0  0  0  0
 11 14  1  0  0  0  0
 14 15  1  0  0  0  0
 14 16  1  0  0  0  0
 14 17  1  0  0  0  0
 17 18  1  0  0  0  0
 17 19  1  0  0  0  0
 17 20  1  0  0  0  0
 20 21  1  0  0  0  0
 20 22  1  0  0  0  0
 20 23  1  0  0  0  0
 23 24  1  0  0  0  0
 23 25  1  0  0  0  0
 26 27  2  0  0  0  0
 26 28  1  0  0  0  0
 28 29  1  0  0  0  0
 28 30  1  0  0  0  0
 30 31  1  0  0  0  0
 30 32  1  0  0  0  0
 30 33  1  0  0  0  0
M  END
$$$$

  -OEChem-01062216083D

 33 32  0     1  0  0  0  0  0999 V2000
   -3.4030   -2.5894    0.9563 H   0  0  0  0  0  0  0  0  0  0  0  0
   -3.4243   -1.6108    0.4685 C   0  0  0  0  0  0  0  0  0  0  0  0
   -4.3663   -1.1146    0.7127 H   0  0  0  0  0  0  0  0  0  0  0  0
   -3.3637   -1.7574   -0.6126 H   0  0  0  0  0  0  0  0  0  0  0  0
   -2.2541   -0.7684    0.9399 C   0  0  0  0  0  0  0  0  0  0  0  0
   -1.5142   -1.1996    1.8111 O   0  0  0  0  0  0  0  0  0  0  0  0
   -2.0855    0.5077    0.4286 N   0  0  0  0  0  0  0  0  0  0  0  0
   -2.7028    0.7209   -0.3485 H   0  0  0  0  0  0  0  0  0  0  0  0
   -0.7857    1.2131    0.4336 C   0  0  1  0  0  0  0  0  0  0  0  0
   -0.8366    2.0279   -0.2946 H   0  0  0  0  0  0  0  0  0  0  0  0
   -0.5453    1.8389    1.8279 C   0  0  0  0  0  0  0  0  0  0  0  0
   -0.6291    1.0739    2.6063 H   0  0  0  0  0  0  0  0  0  0  0  0
    0.4667    2.2493    1.8821 H   0  0  0  0  0  0  0  0  0  0  0  0
   -1.5305    2.9824    2.1096 C   0  0  0  0  0  0  0  0  0  0  0  0
   -1.4362    3.7517    1.3361 H   0  0  0  0  0  0  0  0  0  0  0  0
   -2.5563    2.6000    2.0840 H   0  0  0  0  0  0  0  0  0  0  0  0
   -1.2543    3.6001    3.4844 C   0  0  0  0  0  0  0  0  0  0  0  0
   -1.3357    2.8271    4.2554 H   0  0  0  0  0  0  0  0  0  0  0  0
   -0.2352    3.9995    3.5126 H   0  0  0  0  0  0  0  0  0  0  0  0
   -2.2436    4.7217    3.7853 C   0  0  0  0  0  0  0  0  0  0  0  0
   -2.1555    5.5143    3.0339 H   0  0  0  0  0  0  0  0  0  0  0  0
   -3.2686    4.3356    3.7547 H   0  0  0  0  0  0  0  0  0  0  0  0
   -1.9479    5.2575    5.1170 N   0  0  0  0  0  0  0  0  0  0  0  0
   -2.5950    6.0052    5.3675 H   0  0  0  0  0  0  0  0  0  0  0  0
   -1.9576    4.5177    5.8195 H   0  0  0  0  0  0  0  0  0  0  0  0
    0.4029    0.3225   -0.0289 C   0  0  0  0  0  0  0  0  0  0  0  0
    0.2069   -0.5687   -0.8489 O   0  0  0  0  0  0  0  0  0  0  0  0
    1.7150    0.7011    0.2019 N   0  0  0  0  0  0  0  0  0  0  0  0
    1.8722    1.4253    0.8951 H   0  0  0  0  0  0  0  0  0  0  0  0
    2.8602   -0.0612   -0.2817 C   0  0  0  0  0  0  0  0  0  0  0  0
    2.8616   -0.0980   -1.3762 H   0  0  0  0  0  0  0  0  0  0  0  0
    3.7929    0.4059    0.0486 H   0  0  0  0  0  0  0  0  0  0  0  0
    2.8294   -1.0851    0.1059 H   0  0  0  0  0  0  0  0  0  0  0  0
  1  2  1  0  0  0  0
  2  3  1  0  0  0  0
  2  4  1  0  0  0  0
  2  5  1  0  0  0  0
  5  6  2  0  0  0  0
  5  7  1  0  0  0  0
  7  8  1  0  0  0  0
  7  9  1  0  0  0  0
  9 10  1  0  0  0  0
  9 11  1  0  0  0  0
  9 26  1  0  0  0  0
 11 12  1  0  0  0  0
 11 13  1  0  0  0  0
 11 14  1  0  0  0  0
 14 15  1  0  0  0  0
 14 16  1  0  0  0  0
 14 17  1  0  0  0  0
 17 18  1  0  0  0  0
 17 19  1  0  0  0  0
 17 20  1  0  0  0  0
 20 21  1  0  0  0  0
 20 22  1  0  0  0  0
 20 23  1  0  0  0  0
 23 24  1  0  0  0  0
 23 25  1  0  0  0  0
 26 27  2  0  0  0  0
 26 28  1  0  0  0  0
 28 29  1  0  0  0  0
 28 30  1  0  0  0  0
 30 31  1  0  0  0  0
 30 32  1  0  0  0  0
 30 33  1  0  0  0  0
M  END
$$$$

  -OEChem-01062216083D

 33 32  0     1  0  0  0  0  0999 V2000
   -3.3676   -2.5895    0.9461 H   0  0  0  0  0  0  0  0  0  0  0  0
   -3.4037   -1.6031    0.4749 C   0  0  0  0  0  0  0  0  0  0  0  0
   -4.3391   -1.1124    0.7538 H   0  0  0  0  0  0  0  0  0  0  0  0
   -3.3741   -1.7320   -0.6099 H   0  0  0  0  0  0  0  0  0  0  0  0
   -2.2228   -0.7651    0.9272 C   0  0  0  0  0  0  0  0  0  0  0  0
   -1.4559   -1.2078    1.7689 O   0  0  0  0  0  0  0  0  0  0  0  0
   -2.0674    0.5161    0.4259 N   0  0  0  0  0  0  0  0  0  0  0  0
   -2.6941    0.7371   -0.3417 H   0  0  0  0  0  0  0  0  0  0  0  0
   -0.7761    1.2349    0.4371 C   0  0  1  0  0  0  0  0  0  0  0  0
   -0.8292    2.0506   -0.2898 H   0  0  0  0  0  0  0  0  0  0  0  0
   -0.5418    1.8614    1.8320 C   0  0  0  0  0  0  0  0  0  0  0  0
   -0.6154    1.0941    2.6095 H   0  0  0  0  0  0  0  0  0  0  0  0
    0.4647    2.2866    1.8819 H   0  0  0  0  0  0  0  0  0  0  0  0
   -1.5380    2.9945    2.1145 C   0  0  0  0  0  0  0  0  0  0  0  0
   -1.4508    3.7651    1.3413 H   0  0  0  0  0  0  0  0  0  0  0  0
   -2.5598    2.6020    2.0884 H   0  0  0  0  0  0  0  0  0  0  0  0
   -1.2681    3.6136    3.4903 C   0  0  0  0  0  0  0  0  0  0  0  0
   -1.3422    2.8389    4.2605 H   0  0  0  0  0  0  0  0  0  0  0  0
   -0.2529    4.0229    3.5190 H   0  0  0  0  0  0  0  0  0  0  0  0
   -2.2681    4.7252    3.7930 C   0  0  0  0  0  0  0  0  0  0  0  0
   -2.1869    5.5191    3.0423 H   0  0  0  0  0  0  0  0  0  0  0  0
   -3.2892    4.3297    3.7615 H   0  0  0  0  0  0  0  0  0  0  0  0
   -1.9778    5.2626    5.1255 N   0  0  0  0  0  0  0  0  0  0  0  0
   -2.6271    6.0093    5.3735 H   0  0  0  0  0  0  0  0  0  0  0  0
   -1.9876    4.5236    5.8289 H   0  0  0  0  0  0  0  0  0  0  0  0
    0.4057    0.3416   -0.0336 C   0  0  0  0  0  0  0  0  0  0  0  0
    0.2364   -0.4026   -0.9939 O   0  0  0  0  0  0  0  0  0  0  0  0
    1.6967    0.5214    0.4338 N   0  0  0  0  0  0  0  0  0  0  0  0
    1.8026    1.0696    1.2816 H   0  0  0  0  0  0  0  0  0  0  0  0
    2.8194   -0.2981   -0.0072 C   0  0  0  0  0  0  0  0  0  0  0  0
    2.9714   -0.1930   -1.0866 H   0  0  0  0  0  0  0  0  0  0  0  0
    3.7369    0.0133    0.5012 H   0  0  0  0  0  0  0  0  0  0  0  0
    2.6362   -1.3533    0.2217 H   0  0  0  0  0  0  0  0  0  0  0  0
  1  2  1  0  0  0  0
  2  3  1  0  0  0  0
  2  4  1  0  0  0  0
  2  5  1  0  0  0  0
  5  6  2  0  0  0  0
  5  7  1  0  0  0  0
  7  8  1  0  0  0  0
  7  9  1  0  0  0  0
  9 10  1  0  0  0  0
  9 11  1  0  0  0  0
  9 26  1  0  0  0  0
 11 12  1  0  0  0  0
 11 13  1  0  0  0  0
 11 14  1  0  0  0  0
 14 15  1  0  0  0  0
 14 16  1  0  0  0  0
 14 17  1  0  0  0  0
 17 18  1  0  0  0  0
 17 19  1  0  0  0  0
 17 20  1  0  0  0  0
 20 21  1  0  0  0  0
 20 22  1  0  0  0  0
 20 23  1  0  0  0  0
 23 24  1  0  0  0  0
 23 25  1  0  0  0  0
 26 27  2  0  0  0  0
 26 28  1  0  0  0  0
 28 29  1  0  0  0  0
 28 30  1  0  0  0  0
 30 31  1  0  0  0  0
 30 32  1  0  0  0  0
 30 33  1  0  0  0  0
M  END
$$$$

  -OEChem-01062216083D

 33 32  0     1  0  0  0  0  0999 V2000
   -3.3479   -2.5891    0.9384 H   0  0  0  0  0  0  0  0  0  0  0  0
   -3.3936   -1.5969    0.4807 C   0  0  0  0  0  0  0  0  0  0  0  0
   -4.3236   -1.1104    0.7835 H   0  0  0  0  0  0  0  0  0  0  0  0
   -3.3848   -1.7121   -0.6059 H   0  0  0  0  0  0  0  0  0  0  0  0
   -2.2047   -0.7641    0.9204 C   0  0  0  0  0  0  0  0  0  0  0  0
   -1.4170   -1.2188    1.7361 O   0  0  0  0  0  0  0  0  0  0  0  0
   -2.0542    0.5196    0.4255 N   0  0  0  0  0  0  0  0  0  0  0  0
   -2.6942    0.7554   -0.3267 H   0  0  0  0  0  0  0  0  0  0  0  0
   -0.7680    1.2454    0.4408 C   0  0  1  0  0  0  0  0  0  0  0  0
   -0.8238    2.0624   -0.2851 H   0  0  0  0  0  0  0  0  0  0  0  0
   -0.5376    1.8723    1.8348 C   0  0  0  0  0  0  0  0  0  0  0  0
   -0.6096    1.1047    2.6120 H   0  0  0  0  0  0  0  0  0  0  0  0
    0.4686    2.3004    1.8814 H   0  0  0  0  0  0  0  0  0  0  0  0
   -1.5393    3.0005    2.1170 C   0  0  0  0  0  0  0  0  0  0  0  0
   -1.4534    3.7722    1.3446 H   0  0  0  0  0  0  0  0  0  0  0  0
   -2.5595    2.6044    2.0887 H   0  0  0  0  0  0  0  0  0  0  0  0
   -1.2740    3.6210    3.4927 C   0  0  0  0  0  0  0  0  0  0  0  0
   -1.3467    2.8464    4.2630 H   0  0  0  0  0  0  0  0  0  0  0  0
   -0.2607    4.0345    3.5240 H   0  0  0  0  0  0  0  0  0  0  0  0
   -2.2804    4.7277    3.7930 C   0  0  0  0  0  0  0  0  0  0  0  0
   -2.2017    5.5218    3.0421 H   0  0  0  0  0  0  0  0  0  0  0  0
   -3.3000    4.3273    3.7598 H   0  0  0  0  0  0  0  0  0  0  0  0
   -1.9953    5.2676    5.1254 N   0  0  0  0  0  0  0  0  0  0  0  0
   -2.6483    6.0120    5.3707 H   0  0  0  0  0  0  0  0  0  0  0  0
   -2.0040    4.5294    5.8293 H   0  0  0  0  0  0  0  0  0  0  0  0
    0.4132    0.3554   -0.0328 C   0  0  0  0  0  0  0  0  0  0  0  0
    0.3081   -0.2293   -1.1054 O   0  0  0  0  0  0  0  0  0  0  0  0
    1.6266    0.3157    0.6321 N   0  0  0  0  0  0  0  0  0  0  0  0
    1.6289    0.6777    1.5808 H   0  0  0  0  0  0  0  0  0  0  0  0
    2.7189   -0.5598    0.2259 C   0  0  0  0  0  0  0  0  0  0  0  0
    3.0343   -0.3313   -0.7976 H   0  0  0  0  0  0  0  0  0  0  0  0
    3.5783   -0.4230    0.8890 H   0  0  0  0  0  0  0  0  0  0  0  0
    2.4065   -1.6083    0.2733 H   0  0  0  0  0  0  0  0  0  0  0  0
  1  2  1  0  0  0  0
  2  3  1  0  0  0  0
  2  4  1  0  0  0  0
  2  5  1  0  0  0  0
  5  6  2  0  0  0  0
  5  7  1  0  0  0  0
  7  8  1  0  0  0  0
  7  9  1  0  0  0  0
  9 10  1  0  0  0  0
  9 11  1  0  0  0  0
  9 26  1  0  0  0  0
 11 12  1  0  0  0  0
 11 13  1  0  0  0  0
 11 14  1  0  0  0  0
 14 15  1  0  0  0  0
 14 16  1  0  0  0  0
 14 17  1  0  0  0  0
 17 18  1  0  0  0  0
 17 19  1  0  0  0  0
 17 20  1  0  0  0  0
 20 21  1  0  0  0  0
 20 22  1  0  0  0  0
 20 23  1  0  0  0  0
 23 24  1  0  0  0  0
 23 25  1  0  0  0  0
 26 27  2  0  0  0  0
 26 28  1  0  0  0  0
 28 29  1  0  0  0  0
 28 30  1  0  0  0  0
 30 31  1  0  0  0  0
 30 32  1  0  0  0  0
 30 33  1  0  0  0  0
M  END
$$$$

  -OEChem-01062216083D

 33 32  0     1  0  0  0  0  0999 V2000
   -3.3607   -2.5777    0.9499 H   0  0  0  0  0  0  0  0  0  0  0  0
   -3.4040   -1.5844    0.4943 C   0  0  0  0  0  0  0  0  0  0  0  0
   -4.3219   -1.0879    0.8177 H   0  0  0  0  0  0  0  0  0  0  0  0
   -3.4199   -1.6981   -0.5925 H   0  0  0  0  0  0  0  0  0  0  0  0
   -2.1968   -0.7659    0.9104 C   0  0  0  0  0  0  0  0  0  0  0  0
   -1.3983   -1.2311    1.7097 O   0  0  0  0  0  0  0  0  0  0  0  0
   -2.0411    0.5170    0.4159 N   0  0  0  0  0  0  0  0  0  0  0  0
   -2.6917    0.7686   -0.3222 H   0  0  0  0  0  0  0  0  0  0  0  0
   -0.7584    1.2473    0.4387 C   0  0  1  0  0  0  0  0  0  0  0  0
   -0.8122    2.0640   -0.2880 H   0  0  0  0  0  0  0  0  0  0  0  0
   -0.5330    1.8748    1.8324 C   0  0  0  0  0  0  0  0  0  0  0  0
   -0.6083    1.1074    2.6096 H   0  0  0  0  0  0  0  0  0  0  0  0
    0.4753    2.2996    1.8792 H   0  0  0  0  0  0  0  0  0  0  0  0
   -1.5375    3.0007    2.1134 C   0  0  0  0  0  0  0  0  0  0  0  0
   -1.4524    3.7728    1.3414 H   0  0  0  0  0  0  0  0  0  0  0  0
   -2.5568    2.6023    2.0831 H   0  0  0  0  0  0  0  0  0  0  0  0
   -1.2754    3.6209    3.4900 C   0  0  0  0  0  0  0  0  0  0  0  0
   -1.3464    2.8455    4.2598 H   0  0  0  0  0  0  0  0  0  0  0  0
   -0.2630    4.0372    3.5216 H   0  0  0  0  0  0  0  0  0  0  0  0
   -2.2846    4.7254    3.7897 C   0  0  0  0  0  0  0  0  0  0  0  0
   -2.2068    5.5203    3.0395 H   0  0  0  0  0  0  0  0  0  0  0  0
   -3.3030    4.3226    3.7542 H   0  0  0  0  0  0  0  0  0  0  0  0
   -2.0028    5.2650    5.1232 N   0  0  0  0  0  0  0  0  0  0  0  0
   -2.6585    6.0069    5.3686 H   0  0  0  0  0  0  0  0  0  0  0  0
   -2.0091    4.5264    5.8268 H   0  0  0  0  0  0  0  0  0  0  0  0
    0.4275    0.3615   -0.0243 C   0  0  0  0  0  0  0  0  0  0  0  0
    0.4289   -0.0478   -1.1795 O   0  0  0  0  0  0  0  0  0  0  0  0
    1.5114    0.0883    0.7914 N   0  0  0  0  0  0  0  0  0  0  0  0
    1.3634    0.2502    1.7836 H   0  0  0  0  0  0  0  0  0  0  0  0
    2.5743   -0.8285    0.3990 C   0  0  0  0  0  0  0  0  0  0  0  0
    3.0545   -0.4875   -0.5241 H   0  0  0  0  0  0  0  0  0  0  0  0
    3.3356   -0.8811    1.1831 H   0  0  0  0  0  0  0  0  0  0  0  0
    2.1717   -1.8338    0.2364 H   0  0  0  0  0  0  0  0  0  0  0  0
  1  2  1  0  0  0  0
  2  3  1  0  0  0  0
  2  4  1  0  0  0  0
  2  5  1  0  0  0  0
  5  6  2  0  0  0  0
  5  7  1  0  0  0  0
  7  8  1  0  0  0  0
  7  9  1  0  0  0  0
  9 10  1  0  0  0  0
  9 11  1  0  0  0  0
  9 26  1  0  0  0  0
 11 12  1  0  0  0  0
 11 13  1  0  0  0  0
 11 14  1  0  0  0  0
 14 15  1  0  0  0  0
 14 16  1  0  0  0  0
 14 17  1  0  0  0  0
 17 18  1  0  0  0  0
 17 19  1  0  0  0  0
 17 20  1  0  0  0  0
 20 21  1  0  0  0  0
 20 22  1  0  0  0  0
 20 23  1  0  0  0  0
 23 24  1  0  0  0  0
 23 25  1  0  0  0  0
 26 27  2  0  0  0  0
 26 28  1  0  0  0  0
 28 29  1  0  0  0  0
 28 30  1  0  0  0  0
 30 31  1  0  0  0  0
 30 32  1  0  0  0  0
 30 33  1  0  0  0  0
M  END
$$$$

  -OEChem-01062216083D

 33 32  0     1  0  0  0  0  0999 V2000
   -3.4096   -2.5597    0.9672 H   0  0  0  0  0  0  0  0  0  0  0  0
   -3.4415   -1.5653    0.5128 C   0  0  0  0  0  0  0  0  0  0  0  0
   -4.3416   -1.0496    0.8558 H   0  0  0  0  0  0  0  0  0  0  0  0
   -3.4834   -1.6776   -0.5735 H   0  0  0  0  0  0  0  0  0  0  0  0
   -2.2091   -0.7728    0.9044 C   0  0  0  0  0  0  0  0  0  0  0  0
   -1.4080   -1.2520    1.6928 O   0  0  0  0  0  0  0  0  0  0  0  0
   -2.0361    0.5064    0.4071 N   0  0  0  0  0  0  0  0  0  0  0  0
   -2.6983    0.7805   -0.3127 H   0  0  0  0  0  0  0  0  0  0  0  0
   -0.7528    1.2347    0.4356 C   0  0  1  0  0  0  0  0  0  0  0  0
   -0.8045    2.0508   -0.2921 H   0  0  0  0  0  0  0  0  0  0  0  0
   -0.5308    1.8626    1.8285 C   0  0  0  0  0  0  0  0  0  0  0  0
   -0.6140    1.0968    2.6065 H   0  0  0  0  0  0  0  0  0  0  0  0
    0.4815    2.2779    1.8778 H   0  0  0  0  0  0  0  0  0  0  0  0
   -1.5328    2.9910    2.1064 C   0  0  0  0  0  0  0  0  0  0  0  0
   -1.4423    3.7624    1.3344 H   0  0  0  0  0  0  0  0  0  0  0  0
   -2.5532    2.5950    2.0730 H   0  0  0  0  0  0  0  0  0  0  0  0
   -1.2721    3.6105    3.4835 C   0  0  0  0  0  0  0  0  0  0  0  0
   -1.3468    2.8355    4.2532 H   0  0  0  0  0  0  0  0  0  0  0  0
   -0.2586    4.0236    3.5168 H   0  0  0  0  0  0  0  0  0  0  0  0
   -2.2785    4.7178    3.7809 C   0  0  0  0  0  0  0  0  0  0  0  0
   -2.1962    5.5124    3.0311 H   0  0  0  0  0  0  0  0  0  0  0  0
   -3.2984    4.3189    3.7433 H   0  0  0  0  0  0  0  0  0  0  0  0
   -1.9972    5.2561    5.1149 N   0  0  0  0  0  0  0  0  0  0  0  0
   -2.6488    6.0019    5.3588 H   0  0  0  0  0  0  0  0  0  0  0  0
   -2.0080    4.5179    5.8187 H   0  0  0  0  0  0  0  0  0  0  0  0
    0.4434    0.3569   -0.0109 C   0  0  0  0  0  0  0  0  0  0  0  0
    0.5974    0.1486   -1.2082 O   0  0  0  0  0  0  0  0  0  0  0  0
    1.3575   -0.1516    0.8940 N   0  0  0  0  0  0  0  0  0  0  0  0
    1.0219   -0.1979    1.8536 H   0  0  0  0  0  0  0  0  0  0  0  0
    2.4102   -1.0785    0.4991 C   0  0  0  0  0  0  0  0  0  0  0  0
    3.0519   -0.6270   -0.2648 H   0  0  0  0  0  0  0  0  0  0  0  0
    3.0318   -1.3339    1.3626 H   0  0  0  0  0  0  0  0  0  0  0  0
    1.9770   -2.0002    0.0968 H   0  0  0  0  0  0  0  0  0  0  0  0
  1  2  1  0  0  0  0
  2  3  1  0  0  0  0
  2  4  1  0  0  0  0
  2  5  1  0  0  0  0
  5  6  2  0  0  0  0
  5  7  1  0  0  0  0
  7  8  1  0  0  0  0
  7  9  1  0  0  0  0
  9 10  1  0  0  0  0
  9 11  1  0  0  0  0
  9 26  1  0  0  0  0
 11 12  1  0  0  0  0
 11 13  1  0  0  0  0
 11 14  1  0  0  0  0
 14 15  1  0  0  0  0
 14 16  1  0  0  0  0
 14 17  1  0  0  0  0
 17 18  1  0  0  0  0
 17 19  1  0  0  0  0
 17 20  1  0  0  0  0
 20 21  1  0  0  0  0
 20 22  1  0  0  0  0
 20 23  1  0  0  0  0
 23 24  1  0  0  0  0
 23 25  1  0  0  0  0
 26 27  2  0  0  0  0
 26 28  1  0  0  0  0
 28 29  1  0  0  0  0
 28 30  1  0  0  0  0
 30 31  1  0  0  0  0
 30 32  1  0  0  0  0
 30 33  1  0  0  0  0
M  END
$$$$

  -OEChem-01062216083D

 33 32  0     1  0  0  0  0  0999 V2000
   -3.5019   -2.5378    0.9784 H   0  0  0  0  0  0  0  0  0  0  0  0
   -3.5130   -1.5410    0.5282 C   0  0  0  0  0  0  0  0  0  0  0  0
   -4.3936   -1.0021    0.8857 H   0  0  0  0  0  0  0  0  0  0  0  0
   -3.5739   -1.6478   -0.5576 H   0  0  0  0  0  0  0  0  0  0  0  0
   -2.2538   -0.7837    0.9050 C   0  0  0  0  0  0  0  0  0  0  0  0
   -1.4641   -1.2823    1.6929 O   0  0  0  0  0  0  0  0  0  0  0  0
   -2.0479    0.4881    0.4012 N   0  0  0  0  0  0  0  0  0  0  0  0
   -2.7221    0.7910   -0.2958 H   0  0  0  0  0  0  0  0  0  0  0  0
   -0.7579    1.2076    0.4301 C   0  0  1  0  0  0  0  0  0  0  0  0
   -0.8072    2.0230   -0.2991 H   0  0  0  0  0  0  0  0  0  0  0  0
   -0.5345    1.8353    1.8216 C   0  0  0  0  0  0  0  0  0  0  0  0
   -0.6246    1.0713    2.6005 H   0  0  0  0  0  0  0  0  0  0  0  0
    0.4823    2.2400    1.8719 H   0  0  0  0  0  0  0  0  0  0  0  0
   -1.5278    2.9717    2.0969 C   0  0  0  0  0  0  0  0  0  0  0  0
   -1.4304    3.7414    1.3242 H   0  0  0  0  0  0  0  0  0  0  0  0
   -2.5514    2.5843    2.0631 H   0  0  0  0  0  0  0  0  0  0  0  0
   -1.2633    3.5891    3.4739 C   0  0  0  0  0  0  0  0  0  0  0  0
   -1.3461    2.8147    4.2433 H   0  0  0  0  0  0  0  0  0  0  0  0
   -0.2459    3.9924    3.5090 H   0  0  0  0  0  0  0  0  0  0  0  0
   -2.2601    4.7051    3.7704 C   0  0  0  0  0  0  0  0  0  0  0  0
   -2.1676    5.4990    3.0209 H   0  0  0  0  0  0  0  0  0  0  0  0
   -3.2837    4.3166    3.7306 H   0  0  0  0  0  0  0  0  0  0  0  0
   -1.9761    5.2412    5.1047 N   0  0  0  0  0  0  0  0  0  0  0  0
   -2.6133    6.0015    5.3425 H   0  0  0  0  0  0  0  0  0  0  0  0
   -2.0075    4.5051    5.8102 H   0  0  0  0  0  0  0  0  0  0  0  0
    0.4540    0.3422    0.0045 C   0  0  0  0  0  0  0  0  0  0  0  0
    0.7954    0.3505   -1.1714 O   0  0  0  0  0  0  0  0  0  0  0  0
    1.1805   -0.3941    0.9213 N   0  0  0  0  0  0  0  0  0  0  0  0
    0.6644   -0.6198    1.7723 H   0  0  0  0  0  0  0  0  0  0  0  0
    2.2529   -1.2956    0.5219 C   0  0  0  0  0  0  0  0  0  0  0  0
    3.0310   -0.7494   -0.0216 H   0  0  0  0  0  0  0  0  0  0  0  0
    2.7082   -1.7533    1.4052 H   0  0  0  0  0  0  0  0  0  0  0  0
    1.8643   -2.0909   -0.1228 H   0  0  0  0  0  0  0  0  0  0  0  0
  1  2  1  0  0  0  0
  2  3  1  0  0  0  0
  2  4  1  0  0  0  0
  2  5  1  0  0  0  0
  5  6  2  0  0  0  0
  5  7  1  0  0  0  0
  7  8  1  0  0  0  0
  7  9  1  0  0  0  0
  9 10  1  0  0  0  0
  9 11  1  0  0  0  0
  9 26  1  0  0  0  0
 11 12  1  0  0  0  0
 11 13  1  0  0  0  0
 11 14  1  0  0  0  0
 14 15  1  0  0  0  0
 14 16  1  0  0  0  0
 14 17  1  0  0  0  0
 17 18  1  0  0  0  0
 17 19  1  0  0  0  0
 17 20  1  0  0  0  0
 20 21  1  0  0  0  0
 20 22  1  0  0  0  0
 20 23  1  0  0  0  0
 23 24  1  0  0  0  0
 23 25  1  0  0  0  0
 26 27  2  0  0  0  0
 26 28  1  0  0  0  0
 28 29  1  0  0  0  0
 28 30  1  0  0  0  0
 30 31  1  0  0  0  0
 30 32  1  0  0  0  0
 30 33  1  0  0  0  0
M  END
$$$$

  -OEChem-01062216083D

 33 32  0     1  0  0  0  0  0999 V2000
   -3.6463   -2.4878    0.9986 H   0  0  0  0  0  0  0  0  0  0  0  0
   -3.6148   -1.4926    0.5460 C   0  0  0  0  0  0  0  0  0  0  0  0
   -4.4656   -0.9125    0.9115 H   0  0  0  0  0  0  0  0  0  0  0  0
   -3.6926   -1.5988   -0.5388 H   0  0  0  0  0  0  0  0  0  0  0  0
   -2.3173   -0.7947    0.9078 C   0  0  0  0  0  0  0  0  0  0  0  0
   -1.5504   -1.3262    1.6954 O   0  0  0  0  0  0  0  0  0  0  0  0
   -2.0627    0.4651    0.3969 N   0  0  0  0  0  0  0  0  0  0  0  0
   -2.7502    0.8046   -0.2696 H   0  0  0  0  0  0  0  0  0  0  0  0
   -0.7649    1.1749    0.4188 C   0  0  1  0  0  0  0  0  0  0  0  0
   -0.8162    1.9885   -0.3123 H   0  0  0  0  0  0  0  0  0  0  0  0
   -0.5397    1.8024    1.8090 C   0  0  0  0  0  0  0  0  0  0  0  0
   -0.6342    1.0374    2.5866 H   0  0  0  0  0  0  0  0  0  0  0  0
    0.4801    2.1994    1.8600 H   0  0  0  0  0  0  0  0  0  0  0  0
   -1.5253    2.9465    2.0843 C   0  0  0  0  0  0  0  0  0  0  0  0
   -1.4202    3.7161    1.3124 H   0  0  0  0  0  0  0  0  0  0  0  0
   -2.5519    2.5677    2.0488 H   0  0  0  0  0  0  0  0  0  0  0  0
   -1.2576    3.5627    3.4614 C   0  0  0  0  0  0  0  0  0  0  0  0
   -1.3446    2.7893    4.2314 H   0  0  0  0  0  0  0  0  0  0  0  0
   -0.2378    3.9601    3.4957 H   0  0  0  0  0  0  0  0  0  0  0  0
   -2.2469    4.6856    3.7578 C   0  0  0  0  0  0  0  0  0  0  0  0
   -2.1512    5.4785    3.0078 H   0  0  0  0  0  0  0  0  0  0  0  0
   -3.2726    4.3022    3.7189 H   0  0  0  0  0  0  0  0  0  0  0  0
   -1.9599    5.2203    5.0919 N   0  0  0  0  0  0  0  0  0  0  0  0
   -2.6040    5.9723    5.3366 H   0  0  0  0  0  0  0  0  0  0  0  0
   -1.9775    4.4816    5.7951 H   0  0  0  0  0  0  0  0  0  0  0  0
    0.4686    0.3275    0.0151 C   0  0  0  0  0  0  0  0  0  0  0  0
    0.9841    0.5281   -1.0770 O   0  0  0  0  0  0  0  0  0  0  0  0
    1.0217   -0.6166    0.8587 N   0  0  0  0  0  0  0  0  0  0  0  0
    0.3975   -0.9330    1.6047 H   0  0  0  0  0  0  0  0  0  0  0  0
    2.1115   -1.4962    0.4570 C   0  0  0  0  0  0  0  0  0  0  0  0
    2.9812   -0.9100    0.1425 H   0  0  0  0  0  0  0  0  0  0  0  0
    2.4111   -2.1319    1.2958 H   0  0  0  0  0  0  0  0  0  0  0  0
    1.7993   -2.1381   -0.3732 H   0  0  0  0  0  0  0  0  0  0  0  0
  1  2  1  0  0  0  0
  2  3  1  0  0  0  0
  2  4  1  0  0  0  0
  2  5  1  0  0  0  0
  5  6  2  0  0  0  0
  5  7  1  0  0  0  0
  7  8  1  0  0  0  0
  7  9  1  0  0  0  0
  9 10  1  0  0  0  0
  9 11  1  0  0  0  0
  9 26  1  0  0  0  0
 11 12  1  0  0  0  0
 11 13  1  0  0  0  0
 11 14  1  0  0  0  0
 14 15  1  0  0  0  0
 14 16  1  0  0  0  0
 14 17  1  0  0  0  0
 17 18  1  0  0  0  0
 17 19  1  0  0  0  0
 17 20  1  0  0  0  0
 20 21  1  0  0  0  0
 20 22  1  0  0  0  0
 20 23  1  0  0  0  0
 23 24  1  0  0  0  0
 23 25  1  0  0  0  0
 26 27  2  0  0  0  0
 26 28  1  0  0  0  0
 28 29  1  0  0  0  0
 28 30  1  0  0  0  0
 30 31  1  0  0  0  0
 30 32  1  0  0  0  0
 30 33  1  0  0  0  0
M  END
$$$$

  -OEChem-01062216083D

 33 32  0     1  0  0  0  0  0999 V2000
   -3.7832   -2.4379    1.0130 H   0  0  0  0  0  0  0  0  0  0  0  0
   -3.7161   -1.4439    0.5616 C   0  0  0  0  0  0  0  0  0  0  0  0
   -4.5427   -0.8324    0.9318 H   0  0  0  0  0  0  0  0  0  0  0  0
   -3.8028   -1.5456   -0.5229 H   0  0  0  0  0  0  0  0  0  0  0  0
   -2.3912   -0.7960    0.9174 C   0  0  0  0  0  0  0  0  0  0  0  0
   -1.6500   -1.3524    1.7112 O   0  0  0  0  0  0  0  0  0  0  0  0
   -2.0912    0.4494    0.3965 N   0  0  0  0  0  0  0  0  0  0  0  0
   -2.7821    0.8117   -0.2541 H   0  0  0  0  0  0  0  0  0  0  0  0
   -0.7825    1.1440    0.4047 C   0  0  1  0  0  0  0  0  0  0  0  0
   -0.8342    1.9571   -0.3269 H   0  0  0  0  0  0  0  0  0  0  0  0
   -0.5498    1.7672    1.7949 C   0  0  0  0  0  0  0  0  0  0  0  0
   -0.6485    1.0009    2.5711 H   0  0  0  0  0  0  0  0  0  0  0  0
    0.4733    2.1559    1.8459 H   0  0  0  0  0  0  0  0  0  0  0  0
   -1.5240    2.9197    2.0728 C   0  0  0  0  0  0  0  0  0  0  0  0
   -1.4147    3.6883    1.3003 H   0  0  0  0  0  0  0  0  0  0  0  0
   -2.5537    2.5495    2.0405 H   0  0  0  0  0  0  0  0  0  0  0  0
   -1.2495    3.5319    3.4501 C   0  0  0  0  0  0  0  0  0  0  0  0
   -1.3443    2.7586    4.2193 H   0  0  0  0  0  0  0  0  0  0  0  0
   -0.2261    3.9199    3.4848 H   0  0  0  0  0  0  0  0  0  0  0  0
   -2.2290    4.6633    3.7459 C   0  0  0  0  0  0  0  0  0  0  0  0
   -2.1250    5.4553    2.9959 H   0  0  0  0  0  0  0  0  0  0  0  0
   -3.2580    4.2894    3.7063 H   0  0  0  0  0  0  0  0  0  0  0  0
   -1.9383    5.1958    5.0801 N   0  0  0  0  0  0  0  0  0  0  0  0
   -2.5668    5.9629    5.3184 H   0  0  0  0  0  0  0  0  0  0  0  0
   -1.9768    4.4598    5.7854 H   0  0  0  0  0  0  0  0  0  0  0  0
    0.4669    0.3111    0.0160 C   0  0  0  0  0  0  0  0  0  0  0  0
    1.1299    0.6746   -0.9469 O   0  0  0  0  0  0  0  0  0  0  0  0
    0.8684   -0.8129    0.7100 N   0  0  0  0  0  0  0  0  0  0  0  0
    0.1985   -1.1738    1.3941 H   0  0  0  0  0  0  0  0  0  0  0  0
    1.9816   -1.6592    0.3031 C   0  0  0  0  0  0  0  0  0  0  0  0
    2.9050   -1.0740    0.2391 H   0  0  0  0  0  0  0  0  0  0  0  0
    2.1314   -2.4593    1.0340 H   0  0  0  0  0  0  0  0  0  0  0  0
    1.7813   -2.1121   -0.6733 H   0  0  0  0  0  0  0  0  0  0  0  0
  1  2  1  0  0  0  0
  2  3  1  0  0  0  0
  2  4  1  0  0  0  0
  2  5  1  0  0  0  0
  5  6  2  0  0  0  0
  5  7  1  0  0  0  0
  7  8  1  0  0  0  0
  7  9  1  0  0  0  0
  9 10  1  0  0  0  0
  9 11  1  0  0  0  0
  9 26  1  0  0  0  0
 11 12  1  0  0  0  0
 11 13  1  0  0  0  0
 11 14  1  0  0  0  0
 14 15  1  0  0  0  0
 14 16  1  0  0  0  0
 14 17  1  0  0  0  0
 17 18  1  0  0  0  0
 17 19  1  0  0  0  0
 17 20  1  0  0  0  0
 20 21  1  0  0  0  0
 20 22  1  0  0  0  0
 20 23  1  0  0  0  0
 23 24  1  0  0  0  0
 23 25  1  0  0  0  0
 26 27  2  0  0  0  0
 26 28  1  0  0  0  0
 28 29  1  0  0  0  0
 28 30  1  0  0  0  0
 30 31  1  0  0  0  0
 30 32  1  0  0  0  0
 30 33  1  0  0  0  0
M  END
$$$$

  -OEChem-01062216083D

 33 32  0     1  0  0  0  0  0999 V2000
   -3.9051   -2.3945    1.0436 H   0  0  0  0  0  0  0  0  0  0  0  0
   -3.8101   -1.4079    0.5812 C   0  0  0  0  0  0  0  0  0  0  0  0
   -4.6117   -0.7661    0.9550 H   0  0  0  0  0  0  0  0  0  0  0  0
   -3.9140   -1.5168   -0.5011 H   0  0  0  0  0  0  0  0  0  0  0  0
   -2.4604   -0.8008    0.9153 C   0  0  0  0  0  0  0  0  0  0  0  0
   -1.7255   -1.3803    1.6979 O   0  0  0  0  0  0  0  0  0  0  0  0
   -2.1336    0.4354    0.3886 N   0  0  0  0  0  0  0  0  0  0  0  0
   -2.8354    0.8243   -0.2347 H   0  0  0  0  0  0  0  0  0  0  0  0
   -0.8162    1.1165    0.3803 C   0  0  1  0  0  0  0  0  0  0  0  0
   -0.8708    1.9275   -0.3534 H   0  0  0  0  0  0  0  0  0  0  0  0
   -0.5703    1.7389    1.7688 C   0  0  0  0  0  0  0  0  0  0  0  0
   -0.6692    0.9722    2.5443 H   0  0  0  0  0  0  0  0  0  0  0  0
    0.4564    2.1194    1.8135 H   0  0  0  0  0  0  0  0  0  0  0  0
   -1.5312    2.9015    2.0556 C   0  0  0  0  0  0  0  0  0  0  0  0
   -1.4184    3.6708    1.2846 H   0  0  0  0  0  0  0  0  0  0  0  0
   -2.5654    2.5433    2.0294 H   0  0  0  0  0  0  0  0  0  0  0  0
   -1.2393    3.5087    3.4318 C   0  0  0  0  0  0  0  0  0  0  0  0
   -1.3348    2.7347    4.2003 H   0  0  0  0  0  0  0  0  0  0  0  0
   -0.2117    3.8862    3.4581 H   0  0  0  0  0  0  0  0  0  0  0  0
   -2.2037    4.6502    3.7403 C   0  0  0  0  0  0  0  0  0  0  0  0
   -2.0997    5.4439    2.9922 H   0  0  0  0  0  0  0  0  0  0  0  0
   -3.2370    4.2874    3.7105 H   0  0  0  0  0  0  0  0  0  0  0  0
   -1.8925    5.1738    5.0736 N   0  0  0  0  0  0  0  0  0  0  0  0
   -2.5206    5.9355    5.3297 H   0  0  0  0  0  0  0  0  0  0  0  0
   -1.9146    4.4319    5.7733 H   0  0  0  0  0  0  0  0  0  0  0  0
    0.4393    0.2906   -0.0104 C   0  0  0  0  0  0  0  0  0  0  0  0
    1.2316    0.7893   -0.7992 O   0  0  0  0  0  0  0  0  0  0  0  0
    0.7069   -0.9760    0.4689 N   0  0  0  0  0  0  0  0  0  0  0  0
    0.0249   -1.3692    1.1219 H   0  0  0  0  0  0  0  0  0  0  0  0
    1.8725   -1.7661    0.0966 C   0  0  0  0  0  0  0  0  0  0  0  0
    2.7945   -1.2306    0.3457 H   0  0  0  0  0  0  0  0  0  0  0  0
    1.8691   -2.7178    0.6365 H   0  0  0  0  0  0  0  0  0  0  0  0
    1.8651   -1.9767   -0.9778 H   0  0  0  0  0  0  0  0  0  0  0  0
  1  2  1  0  0  0  0
  2  3  1  0  0  0  0
  2  4  1  0  0  0  0
  2  5  1  0  0  0  0
  5  6  2  0  0  0  0
  5  7  1  0  0  0  0
  7  8  1  0  0  0  0
  7  9  1  0  0  0  0
  9 10  1  0  0  0  0
  9 11  1  0  0  0  0
  9 26  1  0  0  0  0
 11 12  1  0  0  0  0
 11 13  1  0  0  0  0
 11 14  1  0  0  0  0
 14 15  1  0  0  0  0
 14 16  1  0  0  0  0
 14 17  1  0  0  0  0
 17 18  1  0  0  0  0
 17 19  1  0  0  0  0
 17 20  1  0  0  0  0
 20 21  1  0  0  0  0
 20 22  1  0  0  0  0
 20 23  1  0  0  0  0
 23 24  1  0  0  0  0
 23 25  1  0  0  0  0
 26 27  2  0  0  0  0
 26 28  1  0  0  0  0
 28 29  1  0  0  0  0
 28 30  1  0  0  0  0
 30 31  1  0  0  0  0
 30 32  1  0  0  0  0
 30 33  1  0  0  0  0
M  END
$$$$

  -OEChem-01062216083D

 33 32  0     1  0  0  0  0  0999 V2000
   -4.0036   -2.3274    0.9736 H   0  0  0  0  0  0  0  0  0  0  0  0
   -3.8803   -1.3356    0.5293 C   0  0  0  0  0  0  0  0  0  0  0  0
   -4.6510   -0.6728    0.9303 H   0  0  0  0  0  0  0  0  0  0  0  0
   -4.0064   -1.4186   -0.5531 H   0  0  0  0  0  0  0  0  0  0  0  0
   -2.5042   -0.7837    0.8512 C   0  0  0  0  0  0  0  0  0  0  0  0
   -1.7707   -1.4105    1.5975 O   0  0  0  0  0  0  0  0  0  0  0  0
   -2.1454    0.4521    0.3455 N   0  0  0  0  0  0  0  0  0  0  0  0
   -2.8471    0.8815   -0.2501 H   0  0  0  0  0  0  0  0  0  0  0  0
   -0.8166    1.1119    0.3568 C   0  0  1  0  0  0  0  0  0  0  0  0
   -0.8540    1.9334   -0.3660 H   0  0  0  0  0  0  0  0  0  0  0  0
   -0.5814    1.7095    1.7585 C   0  0  0  0  0  0  0  0  0  0  0  0
   -0.7009    0.9316    2.5199 H   0  0  0  0  0  0  0  0  0  0  0  0
    0.4493    2.0762    1.8245 H   0  0  0  0  0  0  0  0  0  0  0  0
   -1.5297    2.8813    2.0499 C   0  0  0  0  0  0  0  0  0  0  0  0
   -1.3959    3.6605    1.2920 H   0  0  0  0  0  0  0  0  0  0  0  0
   -2.5683    2.5385    2.0045 H   0  0  0  0  0  0  0  0  0  0  0  0
   -1.2490    3.4637    3.4391 C   0  0  0  0  0  0  0  0  0  0  0  0
   -1.3660    2.6803    4.1951 H   0  0  0  0  0  0  0  0  0  0  0  0
   -0.2169    3.8271    3.4855 H   0  0  0  0  0  0  0  0  0  0  0  0
   -2.2035    4.6135    3.7474 C   0  0  0  0  0  0  0  0  0  0  0  0
   -2.0767    5.4145    3.0107 H   0  0  0  0  0  0  0  0  0  0  0  0
   -3.2406    4.2641    3.6954 H   0  0  0  0  0  0  0  0  0  0  0  0
   -1.9104    5.1185    5.0917 N   0  0  0  0  0  0  0  0  0  0  0  0
   -2.5292    5.8898    5.3416 H   0  0  0  0  0  0  0  0  0  0  0  0
   -1.9606    4.3710    5.7839 H   0  0  0  0  0  0  0  0  0  0  0  0
    0.4411    0.2862   -0.0316 C   0  0  0  0  0  0  0  0  0  0  0  0
    1.3599    0.8757   -0.5863 O   0  0  0  0  0  0  0  0  0  0  0  0
    0.5725   -1.0727    0.1750 N   0  0  0  0  0  0  0  0  0  0  0  0
   -0.1406   -1.5039    0.7671 H   0  0  0  0  0  0  0  0  0  0  0  0
    1.7875   -1.8223   -0.1152 C   0  0  0  0  0  0  0  0  0  0  0  0
    2.6238   -1.4421    0.4805 H   0  0  0  0  0  0  0  0  0  0  0  0
    1.6423   -2.8799    0.1242 H   0  0  0  0  0  0  0  0  0  0  0  0
    2.0436   -1.7409   -1.1767 H   0  0  0  0  0  0  0  0  0  0  0  0
  1  2  1  0  0  0  0
  2  3  1  0  0  0  0
  2  4  1  0  0  0  0
  2  5  1  0  0  0  0
  5  6  2  0  0  0  0
  5  7  1  0  0  0  0
  7  8  1  0  0  0  0
  7  9  1  0  0  0  0
  9 10  1  0  0  0  0
  9 11  1  0  0  0  0
  9 26  1  0  0  0  0
 11 12  1  0  0  0  0
 11 13  1  0  0  0  0
 11 14  1  0  0  0  0
 14 15  1  0  0  0  0
 14 16  1  0  0  0  0
 14 17  1  0  0  0  0
 17 18  1  0  0  0  0
 17 19  1  0  0  0  0
 17 20  1  0  0  0  0
 20 21  1  0  0  0  0
 20 22  1  0  0  0  0
 20 23  1  0  0  0  0
 23 24  1  0  0  0  0
 23 25  1  0  0  0  0
 26 27  2  0  0  0  0
 26 28  1  0  0  0  0
 28 29  1  0  0  0  0
 28 30  1  0  0  0  0
 30 31  1  0  0  0  0
 30 32  1  0  0  0  0
 30 33  1  0  0  0  0
M  END
$$$$

  -OEChem-01062216083D

 33 32  0     1  0  0  0  0  0999 V2000
   -4.0087   -2.3157    1.1336 H   0  0  0  0  0  0  0  0  0  0  0  0
   -3.9057   -1.3297    0.6716 C   0  0  0  0  0  0  0  0  0  0  0  0
   -4.6350   -0.6529    1.1230 H   0  0  0  0  0  0  0  0  0  0  0  0
   -4.1142   -1.4197   -0.3973 H   0  0  0  0  0  0  0  0  0  0  0  0
   -2.5018   -0.7955    0.8844 C   0  0  0  0  0  0  0  0  0  0  0  0
   -1.7104   -1.4459    1.5460 O   0  0  0  0  0  0  0  0  0  0  0  0
   -2.1666    0.4380    0.3577 N   0  0  0  0  0  0  0  0  0  0  0  0
   -2.9094    0.8934   -0.1646 H   0  0  0  0  0  0  0  0  0  0  0  0
   -0.8423    1.1067    0.3254 C   0  0  1  0  0  0  0  0  0  0  0  0
   -0.9030    1.9217   -0.4030 H   0  0  0  0  0  0  0  0  0  0  0  0
   -0.5832    1.7142    1.7201 C   0  0  0  0  0  0  0  0  0  0  0  0
   -0.6793    0.9381    2.4869 H   0  0  0  0  0  0  0  0  0  0  0  0
    0.4448    2.0912    1.7653 H   0  0  0  0  0  0  0  0  0  0  0  0
   -1.5357    2.8790    2.0270 C   0  0  0  0  0  0  0  0  0  0  0  0
   -1.4239    3.6556    1.2629 H   0  0  0  0  0  0  0  0  0  0  0  0
   -2.5719    2.5272    2.0055 H   0  0  0  0  0  0  0  0  0  0  0  0
   -1.2304    3.4701    3.4076 C   0  0  0  0  0  0  0  0  0  0  0  0
   -1.3232    2.6890    4.1691 H   0  0  0  0  0  0  0  0  0  0  0  0
   -0.2007    3.8422    3.4301 H   0  0  0  0  0  0  0  0  0  0  0  0
   -2.1870    4.6129    3.7339 C   0  0  0  0  0  0  0  0  0  0  0  0
   -2.0845    5.4127    2.9920 H   0  0  0  0  0  0  0  0  0  0  0  0
   -3.2220    4.2547    3.7074 H   0  0  0  0  0  0  0  0  0  0  0  0
   -1.8670    5.1241    5.0697 N   0  0  0  0  0  0  0  0  0  0  0  0
   -2.4904    5.8863    5.3352 H   0  0  0  0  0  0  0  0  0  0  0  0
   -1.8872    4.3770    5.7639 H   0  0  0  0  0  0  0  0  0  0  0  0
    0.4135    0.2899   -0.0902 C   0  0  0  0  0  0  0  0  0  0  0  0
    1.3961    0.9117   -0.4749 O   0  0  0  0  0  0  0  0  0  0  0  0
    0.4540   -1.0898   -0.1513 N   0  0  0  0  0  0  0  0  0  0  0  0
   -0.2755   -1.5660    0.3821 H   0  0  0  0  0  0  0  0  0  0  0  0
    1.6599   -1.8378   -0.4830 C   0  0  0  0  0  0  0  0  0  0  0  0
    2.4524   -1.6306    0.2436 H   0  0  0  0  0  0  0  0  0  0  0  0
    1.4511   -2.9119   -0.4731 H   0  0  0  0  0  0  0  0  0  0  0  0
    2.0169   -1.5654   -1.4816 H   0  0  0  0  0  0  0  0  0  0  0  0
  1  2  1  0  0  0  0
  2  3  1  0  0  0  0
  2  4  1  0  0  0  0
  2  5  1  0  0  0  0
  5  6  2  0  0  0  0
  5  7  1  0  0  0  0
  7  8  1  0  0  0  0
  7  9  1  0  0  0  0
  9 10  1  0  0  0  0
  9 11  1  0  0  0  0
  9 26  1  0  0  0  0
 11 12  1  0  0  0  0
 11 13  1  0  0  0  0
 11 14  1  0  0  0  0
 14 15  1  0  0  0  0
 14 16  1  0  0  0  0
 14 17  1  0  0  0  0
 17 18  1  0  0  0  0
 17 19  1  0  0  0  0
 17 20  1  0  0  0  0
 20 21  1  0  0  0  0
 20 22  1  0  0  0  0
 20 23  1  0  0  0  0
 23 24  1  0  0  0  0
 23 25  1  0  0  0  0
 26 27  2  0  0  0  0
 26 28  1  0  0  0  0
 28 29  1  0  0  0  0
 28 30  1  0  0  0  0
 30 31  1  0  0  0  0
 30 32  1  0  0  0  0
 30 33  1  0  0  0  0
M  END
$$$$

  -OEChem-01062216083D

 33 32  0     1  0  0  0  0  0999 V2000
   -3.9925   -2.2841    1.1911 H   0  0  0  0  0  0  0  0  0  0  0  0
   -3.8967   -1.2966    0.7303 C   0  0  0  0  0  0  0  0  0  0  0  0
   -4.5790   -0.6073    1.2339 H   0  0  0  0  0  0  0  0  0  0  0  0
   -4.1771   -1.3725   -0.3230 H   0  0  0  0  0  0  0  0  0  0  0  0
   -2.4693   -0.7972    0.8531 C   0  0  0  0  0  0  0  0  0  0  0  0
   -1.6377   -1.4938    1.4089 O   0  0  0  0  0  0  0  0  0  0  0  0
   -2.1442    0.4432    0.3371 N   0  0  0  0  0  0  0  0  0  0  0  0
   -2.9131    0.9428   -0.0996 H   0  0  0  0  0  0  0  0  0  0  0  0
   -0.8216    1.1154    0.3126 C   0  0  1  0  0  0  0  0  0  0  0  0
   -0.8797    1.9324   -0.4135 H   0  0  0  0  0  0  0  0  0  0  0  0
   -0.5776    1.7186    1.7132 C   0  0  0  0  0  0  0  0  0  0  0  0
   -0.6788    0.9377    2.4742 H   0  0  0  0  0  0  0  0  0  0  0  0
    0.4474    2.1004    1.7736 H   0  0  0  0  0  0  0  0  0  0  0  0
   -1.5362    2.8789    2.0182 C   0  0  0  0  0  0  0  0  0  0  0  0
   -1.4200    3.6605    1.2600 H   0  0  0  0  0  0  0  0  0  0  0  0
   -2.5715    2.5252    1.9869 H   0  0  0  0  0  0  0  0  0  0  0  0
   -1.2429    3.4629    3.4045 C   0  0  0  0  0  0  0  0  0  0  0  0
   -1.3396    2.6774    4.1610 H   0  0  0  0  0  0  0  0  0  0  0  0
   -0.2145    3.8380    3.4374 H   0  0  0  0  0  0  0  0  0  0  0  0
   -2.2049    4.6013    3.7297 C   0  0  0  0  0  0  0  0  0  0  0  0
   -2.0964    5.4055    2.9935 H   0  0  0  0  0  0  0  0  0  0  0  0
   -3.2387    4.2412    3.6917 H   0  0  0  0  0  0  0  0  0  0  0  0
   -1.8967    5.1059    5.0709 N   0  0  0  0  0  0  0  0  0  0  0  0
   -2.5215    5.8678    5.3340 H   0  0  0  0  0  0  0  0  0  0  0  0
   -1.9233    4.3557    5.7617 H   0  0  0  0  0  0  0  0  0  0  0  0
    0.4323    0.2979   -0.1105 C   0  0  0  0  0  0  0  0  0  0  0  0
    1.4823    0.9027   -0.2920 O   0  0  0  0  0  0  0  0  0  0  0  0
    0.3822   -1.0366   -0.4672 N   0  0  0  0  0  0  0  0  0  0  0  0
   -0.3907   -1.5503   -0.0423 H   0  0  0  0  0  0  0  0  0  0  0  0
    1.5719   -1.7936   -0.8368 C   0  0  0  0  0  0  0  0  0  0  0  0
    2.2919   -1.8023   -0.0118 H   0  0  0  0  0  0  0  0  0  0  0  0
    1.3024   -2.8270   -1.0746 H   0  0  0  0  0  0  0  0  0  0  0  0
    2.0499   -1.3516   -1.7174 H   0  0  0  0  0  0  0  0  0  0  0  0
  1  2  1  0  0  0  0
  2  3  1  0  0  0  0
  2  4  1  0  0  0  0
  2  5  1  0  0  0  0
  5  6  2  0  0  0  0
  5  7  1  0  0  0  0
  7  8  1  0  0  0  0
  7  9  1  0  0  0  0
  9 10  1  0  0  0  0
  9 11  1  0  0  0  0
  9 26  1  0  0  0  0
 11 12  1  0  0  0  0
 11 13  1  0  0  0  0
 11 14  1  0  0  0  0
 14 15  1  0  0  0  0
 14 16  1  0  0  0  0
 14 17  1  0  0  0  0
 17 18  1  0  0  0  0
 17 19  1  0  0  0  0
 17 20  1  0  0  0  0
 20 21  1  0  0  0  0
 20 22  1  0  0  0  0
 20 23  1  0  0  0  0
 23 24  1  0  0  0  0
 23 25  1  0  0  0  0
 26 27  2  0  0  0  0
 26 28  1  0  0  0  0
 28 29  1  0  0  0  0
 28 30  1  0  0  0  0
 30 31  1  0  0  0  0
 30 32  1  0  0  0  0
 30 33  1  0  0  0  0
M  END
$$$$

  -OEChem-01062216083D

 33 32  0     1  0  0  0  0  0999 V2000
   -3.9258   -2.2631    1.2412 H   0  0  0  0  0  0  0  0  0  0  0  0
   -3.8468   -1.2724    0.7841 C   0  0  0  0  0  0  0  0  0  0  0  0
   -4.4878   -0.5800    1.3352 H   0  0  0  0  0  0  0  0  0  0  0  0
   -4.1929   -1.3344   -0.2505 H   0  0  0  0  0  0  0  0  0  0  0  0
   -2.4086   -0.7909    0.8224 C   0  0  0  0  0  0  0  0  0  0  0  0
   -1.5455   -1.5187    1.2794 O   0  0  0  0  0  0  0  0  0  0  0  0
   -2.1010    0.4570    0.3141 N   0  0  0  0  0  0  0  0  0  0  0  0
   -2.8917    0.9895   -0.0364 H   0  0  0  0  0  0  0  0  0  0  0  0
   -0.7832    1.1378    0.3016 C   0  0  1  0  0  0  0  0  0  0  0  0
   -0.8337    1.9570   -0.4220 H   0  0  0  0  0  0  0  0  0  0  0  0
   -0.5588    1.7337    1.7104 C   0  0  0  0  0  0  0  0  0  0  0  0
   -0.6600    0.9461    2.4647 H   0  0  0  0  0  0  0  0  0  0  0  0
    0.4608    2.1267    1.7864 H   0  0  0  0  0  0  0  0  0  0  0  0
   -1.5313    2.8837    2.0120 C   0  0  0  0  0  0  0  0  0  0  0  0
   -1.4148    3.6707    1.2595 H   0  0  0  0  0  0  0  0  0  0  0  0
   -2.5630    2.5206    1.9677 H   0  0  0  0  0  0  0  0  0  0  0  0
   -1.2591    3.4617    3.4052 C   0  0  0  0  0  0  0  0  0  0  0  0
   -1.3561    2.6704    4.1558 H   0  0  0  0  0  0  0  0  0  0  0  0
   -0.2349    3.8469    3.4507 H   0  0  0  0  0  0  0  0  0  0  0  0
   -2.2354    4.5893    3.7266 C   0  0  0  0  0  0  0  0  0  0  0  0
   -2.1283    5.3988    2.9959 H   0  0  0  0  0  0  0  0  0  0  0  0
   -3.2650    4.2183    3.6760 H   0  0  0  0  0  0  0  0  0  0  0  0
   -1.9479    5.0894    5.0741 N   0  0  0  0  0  0  0  0  0  0  0  0
   -2.5880    5.8387    5.3371 H   0  0  0  0  0  0  0  0  0  0  0  0
   -1.9684    4.3340    5.7593 H   0  0  0  0  0  0  0  0  0  0  0  0
    0.4612    0.3065   -0.1241 C   0  0  0  0  0  0  0  0  0  0  0  0
    1.5669    0.8341   -0.0967 O   0  0  0  0  0  0  0  0  0  0  0  0
    0.3387   -0.9132   -0.7645 N   0  0  0  0  0  0  0  0  0  0  0  0
   -0.4964   -1.4299   -0.4927 H   0  0  0  0  0  0  0  0  0  0  0  0
    1.4980   -1.6929   -1.1814 C   0  0  0  0  0  0  0  0  0  0  0  0
    2.1193   -1.9474   -0.3162 H   0  0  0  0  0  0  0  0  0  0  0  0
    1.1743   -2.6204   -1.6632 H   0  0  0  0  0  0  0  0  0  0  0  0
    2.1044   -1.1277   -1.8970 H   0  0  0  0  0  0  0  0  0  0  0  0
  1  2  1  0  0  0  0
  2  3  1  0  0  0  0
  2  4  1  0  0  0  0
  2  5  1  0  0  0  0
  5  6  2  0  0  0  0
  5  7  1  0  0  0  0
  7  8  1  0  0  0  0
  7  9  1  0  0  0  0
  9 10  1  0  0  0  0
  9 11  1  0  0  0  0
  9 26  1  0  0  0  0
 11 12  1  0  0  0  0
 11 13  1  0  0  0  0
 11 14  1  0  0  0  0
 14 15  1  0  0  0  0
 14 16  1  0  0  0  0
 14 17  1  0  0  0  0
 17 18  1  0  0  0  0
 17 19  1  0  0  0  0
 17 20  1  0  0  0  0
 20 21  1  0  0  0  0
 20 22  1  0  0  0  0
 20 23  1  0  0  0  0
 23 24  1  0  0  0  0
 23 25  1  0  0  0  0
 26 27  2  0  0  0  0
 26 28  1  0  0  0  0
 28 29  1  0  0  0  0
 28 30  1  0  0  0  0
 30 31  1  0  0  0  0
 30 32  1  0  0  0  0
 30 33  1  0  0  0  0
M  END
$$$$

  -OEChem-01062216083D

 33 32  0     1  0  0  0  0  0999 V2000
   -3.8294   -2.2727    1.2660 H   0  0  0  0  0  0  0  0  0  0  0  0
   -3.7745   -1.2773    0.8155 C   0  0  0  0  0  0  0  0  0  0  0  0
   -4.3907   -0.5925    1.4032 H   0  0  0  0  0  0  0  0  0  0  0  0
   -4.1683   -1.3298   -0.2025 H   0  0  0  0  0  0  0  0  0  0  0  0
   -2.3371   -0.7918    0.7930 C   0  0  0  0  0  0  0  0  0  0  0  0
   -1.4505   -1.5236    1.1938 O   0  0  0  0  0  0  0  0  0  0  0  0
   -2.0585    0.4679    0.2959 N   0  0  0  0  0  0  0  0  0  0  0  0
   -2.8671    1.0166    0.0188 H   0  0  0  0  0  0  0  0  0  0  0  0
   -0.7485    1.1616    0.2982 C   0  0  1  0  0  0  0  0  0  0  0  0
   -0.7953    1.9835   -0.4221 H   0  0  0  0  0  0  0  0  0  0  0  0
   -0.5418    1.7547    1.7118 C   0  0  0  0  0  0  0  0  0  0  0  0
   -0.6399    0.9626    2.4620 H   0  0  0  0  0  0  0  0  0  0  0  0
    0.4716    2.1608    1.7987 H   0  0  0  0  0  0  0  0  0  0  0  0
   -1.5284    2.8938    2.0098 C   0  0  0  0  0  0  0  0  0  0  0  0
   -1.4132    3.6850    1.2612 H   0  0  0  0  0  0  0  0  0  0  0  0
   -2.5558    2.5209    1.9557 H   0  0  0  0  0  0  0  0  0  0  0  0
   -1.2729    3.4686    3.4076 C   0  0  0  0  0  0  0  0  0  0  0  0
   -1.3674    2.6729    4.1537 H   0  0  0  0  0  0  0  0  0  0  0  0
   -0.2527    3.8628    3.4626 H   0  0  0  0  0  0  0  0  0  0  0  0
   -2.2621    4.5854    3.7277 C   0  0  0  0  0  0  0  0  0  0  0  0
   -2.1569    5.3995    3.0023 H   0  0  0  0  0  0  0  0  0  0  0  0
   -3.2881    4.2058    3.6673 H   0  0  0  0  0  0  0  0  0  0  0  0
   -1.9885    5.0808    5.0798 N   0  0  0  0  0  0  0  0  0  0  0  0
   -2.6398    5.8197    5.3444 H   0  0  0  0  0  0  0  0  0  0  0  0
   -2.0018    4.3209    5.7601 H   0  0  0  0  0  0  0  0  0  0  0  0
    0.4844    0.3179   -0.1367 C   0  0  0  0  0  0  0  0  0  0  0  0
    1.6189    0.7000    0.1254 O   0  0  0  0  0  0  0  0  0  0  0  0
    0.3393   -0.7176   -1.0431 N   0  0  0  0  0  0  0  0  0  0  0  0
   -0.5801   -1.1494   -1.0368 H   0  0  0  0  0  0  0  0  0  0  0  0
    1.4654   -1.5375   -1.4745 C   0  0  0  0  0  0  0  0  0  0  0  0
    1.9140   -2.0518   -0.6181 H   0  0  0  0  0  0  0  0  0  0  0  0
    1.1303   -2.2889   -2.1957 H   0  0  0  0  0  0  0  0  0  0  0  0
    2.2310   -0.9187   -1.9545 H   0  0  0  0  0  0  0  0  0  0  0  0
  1  2  1  0  0  0  0
  2  3  1  0  0  0  0
  2  4  1  0  0  0  0
  2  5  1  0  0  0  0
  5  6  2  0  0  0  0
  5  7  1  0  0  0  0
  7  8  1  0  0  0  0
  7  9  1  0  0  0  0
  9 10  1  0  0  0  0
  9 11  1  0  0  0  0
  9 26  1  0  0  0  0
 11 12  1  0  0  0  0
 11 13  1  0  0  0  0
 11 14  1  0  0  0  0
 14 15  1  0  0  0  0
 14 16  1  0  0  0  0
 14 17  1  0  0  0  0
 17 18  1  0  0  0  0
 17 19  1  0  0  0  0
 17 20  1  0  0  0  0
 20 21  1  0  0  0  0
 20 22  1  0  0  0  0
 20 23  1  0  0  0  0
 23 24  1  0  0  0  0
 23 25  1  0  0  0  0
 26 27  2  0  0  0  0
 26 28  1  0  0  0  0
 28 29  1  0  0  0  0
 28 30  1  0  0  0  0
 30 31  1  0  0  0  0
 30 32  1  0  0  0  0
 30 33  1  0  0  0  0
M  END
$$$$

  -OEChem-01062216083D

 33 32  0     1  0  0  0  0  0999 V2000
   -3.7364   -2.3062    1.2464 H   0  0  0  0  0  0  0  0  0  0  0  0
   -3.7021   -1.3057    0.8056 C   0  0  0  0  0  0  0  0  0  0  0  0
   -4.3281   -0.6384    1.4029 H   0  0  0  0  0  0  0  0  0  0  0  0
   -4.0992   -1.3562   -0.2110 H   0  0  0  0  0  0  0  0  0  0  0  0
   -2.2737   -0.7948    0.7814 C   0  0  0  0  0  0  0  0  0  0  0  0
   -1.3766   -1.5107    1.1860 O   0  0  0  0  0  0  0  0  0  0  0  0
   -2.0192    0.4741    0.2925 N   0  0  0  0  0  0  0  0  0  0  0  0
   -2.8380    1.0175    0.0370 H   0  0  0  0  0  0  0  0  0  0  0  0
   -0.7179    1.1816    0.3087 C   0  0  1  0  0  0  0  0  0  0  0  0
   -0.7619    2.0057   -0.4096 H   0  0  0  0  0  0  0  0  0  0  0  0
   -0.5225    1.7752    1.7234 C   0  0  0  0  0  0  0  0  0  0  0  0
   -0.6150    0.9814    2.4726 H   0  0  0  0  0  0  0  0  0  0  0  0
    0.4870    2.1910    1.8124 H   0  0  0  0  0  0  0  0  0  0  0  0
   -1.5219    2.9044    2.0168 C   0  0  0  0  0  0  0  0  0  0  0  0
   -1.4115    3.6967    1.2689 H   0  0  0  0  0  0  0  0  0  0  0  0
   -2.5451    2.5208    1.9572 H   0  0  0  0  0  0  0  0  0  0  0  0
   -1.2797    3.4821    3.4158 C   0  0  0  0  0  0  0  0  0  0  0  0
   -1.3711    2.6857    4.1616 H   0  0  0  0  0  0  0  0  0  0  0  0
   -0.2638    3.8868    3.4769 H   0  0  0  0  0  0  0  0  0  0  0  0
   -2.2823    4.5888    3.7296 C   0  0  0  0  0  0  0  0  0  0  0  0
   -2.1819    5.4039    3.0043 H   0  0  0  0  0  0  0  0  0  0  0  0
   -3.3040    4.1986    3.6641 H   0  0  0  0  0  0  0  0  0  0  0  0
   -2.0207    5.0869    5.0829 N   0  0  0  0  0  0  0  0  0  0  0  0
   -2.6791    5.8208    5.3441 H   0  0  0  0  0  0  0  0  0  0  0  0
   -2.0314    4.3269    5.7633 H   0  0  0  0  0  0  0  0  0  0  0  0
    0.5025    0.3242   -0.1307 C   0  0  0  0  0  0  0  0  0  0  0  0
    1.6167    0.5014    0.3479 O   0  0  0  0  0  0  0  0  0  0  0  0
    0.3917   -0.4770   -1.2535 N   0  0  0  0  0  0  0  0  0  0  0  0
   -0.5560   -0.7227   -1.5193 H   0  0  0  0  0  0  0  0  0  0  0  0
    1.4779   -1.3332   -1.7147 C   0  0  0  0  0  0  0  0  0  0  0  0
    1.7412   -2.0649   -0.9434 H   0  0  0  0  0  0  0  0  0  0  0  0
    1.1763   -1.8727   -2.6175 H   0  0  0  0  0  0  0  0  0  0  0  0
    2.3650   -0.7364   -1.9517 H   0  0  0  0  0  0  0  0  0  0  0  0
  1  2  1  0  0  0  0
  2  3  1  0  0  0  0
  2  4  1  0  0  0  0
  2  5  1  0  0  0  0
  5  6  2  0  0  0  0
  5  7  1  0  0  0  0
  7  8  1  0  0  0  0
  7  9  1  0  0  0  0
  9 10  1  0  0  0  0
  9 11  1  0  0  0  0
  9 26  1  0  0  0  0
 11 12  1  0  0  0  0
 11 13  1  0  0  0  0
 11 14  1  0  0  0  0
 14 15  1  0  0  0  0
 14 16  1  0  0  0  0
 14 17  1  0  0  0  0
 17 18  1  0  0  0  0
 17 19  1  0  0  0  0
 17 20  1  0  0  0  0
 20 21  1  0  0  0  0
 20 22  1  0  0  0  0
 20 23  1  0  0  0  0
 23 24  1  0  0  0  0
 23 25  1  0  0  0  0
 26 27  2  0  0  0  0
 26 28  1  0  0  0  0
 28 29  1  0  0  0  0
 28 30  1  0  0  0  0
 30 31  1  0  0  0  0
 30 32  1  0  0  0  0
 30 33  1  0  0  0  0
M  END
$$$$

  -OEChem-01062216083D

 33 32  0     1  0  0  0  0  0999 V2000
   -3.7163   -2.3252    1.2326 H   0  0  0  0  0  0  0  0  0  0  0  0
   -3.6825   -1.3261    0.7885 C   0  0  0  0  0  0  0  0  0  0  0  0
   -4.3220   -0.6609    1.3736 H   0  0  0  0  0  0  0  0  0  0  0  0
   -4.0639   -1.3829   -0.2338 H   0  0  0  0  0  0  0  0  0  0  0  0
   -2.2573   -0.8052    0.7836 C   0  0  0  0  0  0  0  0  0  0  0  0
   -1.3628   -1.5142    1.2052 O   0  0  0  0  0  0  0  0  0  0  0  0
   -2.0077    0.4652    0.2956 N   0  0  0  0  0  0  0  0  0  0  0  0
   -2.8286    1.0032    0.0364 H   0  0  0  0  0  0  0  0  0  0  0  0
   -0.7112    1.1783    0.3198 C   0  0  1  0  0  0  0  0  0  0  0  0
   -0.7532    2.0018   -0.3990 H   0  0  0  0  0  0  0  0  0  0  0  0
   -0.5199    1.7787    1.7314 C   0  0  0  0  0  0  0  0  0  0  0  0
   -0.6104    0.9878    2.4842 H   0  0  0  0  0  0  0  0  0  0  0  0
    0.4891    2.1967    1.8155 H   0  0  0  0  0  0  0  0  0  0  0  0
   -1.5219    2.9066    2.0197 C   0  0  0  0  0  0  0  0  0  0  0  0
   -1.4129    3.6970    1.2695 H   0  0  0  0  0  0  0  0  0  0  0  0
   -2.5441    2.5198    1.9615 H   0  0  0  0  0  0  0  0  0  0  0  0
   -1.2808    3.4891    3.4166 C   0  0  0  0  0  0  0  0  0  0  0  0
   -1.3707    2.6944    4.1643 H   0  0  0  0  0  0  0  0  0  0  0  0
   -0.2653    3.8948    3.4762 H   0  0  0  0  0  0  0  0  0  0  0  0
   -2.2842    4.5953    3.7296 C   0  0  0  0  0  0  0  0  0  0  0  0
   -2.1848    5.4093    3.0028 H   0  0  0  0  0  0  0  0  0  0  0  0
   -3.3058    4.2042    3.6667 H   0  0  0  0  0  0  0  0  0  0  0  0
   -2.0206    5.0960    5.0816 N   0  0  0  0  0  0  0  0  0  0  0  0
   -2.6791    5.8296    5.3423 H   0  0  0  0  0  0  0  0  0  0  0  0
   -2.0290    4.3373    5.7635 H   0  0  0  0  0  0  0  0  0  0  0  0
    0.5054    0.3134   -0.1135 C   0  0  0  0  0  0  0  0  0  0  0  0
    1.5512    0.2952    0.5249 O   0  0  0  0  0  0  0  0  0  0  0  0
    0.5064   -0.2350   -1.3842 N   0  0  0  0  0  0  0  0  0  0  0  0
   -0.3965   -0.3016   -1.8416 H   0  0  0  0  0  0  0  0  0  0  0  0
    1.6007   -1.0580   -1.8858 C   0  0  0  0  0  0  0  0  0  0  0  0
    1.7317   -1.9445   -1.2563 H   0  0  0  0  0  0  0  0  0  0  0  0
    1.3900   -1.3852   -2.9084 H   0  0  0  0  0  0  0  0  0  0  0  0
    2.5370   -0.4901   -1.8932 H   0  0  0  0  0  0  0  0  0  0  0  0
  1  2  1  0  0  0  0
  2  3  1  0  0  0  0
  2  4  1  0  0  0  0
  2  5  1  0  0  0  0
  5  6  2  0  0  0  0
  5  7  1  0  0  0  0
  7  8  1  0  0  0  0
  7  9  1  0  0  0  0
  9 10  1  0  0  0  0
  9 11  1  0  0  0  0
  9 26  1  0  0  0  0
 11 12  1  0  0  0  0
 11 13  1  0  0  0  0
 11 14  1  0  0  0  0
 14 15  1  0  0  0  0
 14 16  1  0  0  0  0
 14 17  1  0  0  0  0
 17 18  1  0  0  0  0
 17 19  1  0  0  0  0
 17 20  1  0  0  0  0
 20 21  1  0  0  0  0
 20 22  1  0  0  0  0
 20 23  1  0  0  0  0
 23 24  1  0  0  0  0
 23 25  1  0  0  0  0
 26 27  2  0  0  0  0
 26 28  1  0  0  0  0
 28 29  1  0  0  0  0
 28 30  1  0  0  0  0
 30 31  1  0  0  0  0
 30 32  1  0  0  0  0
 30 33  1  0  0  0  0
M  END
$$$$

  -OEChem-01062216083D

 33 32  0     1  0  0  0  0  0999 V2000
   -3.7313   -2.3430    1.2241 H   0  0  0  0  0  0  0  0  0  0  0  0
   -3.6932   -1.3473    0.7730 C   0  0  0  0  0  0  0  0  0  0  0  0
   -4.3496   -0.6812    1.3379 H   0  0  0  0  0  0  0  0  0  0  0  0
   -4.0503   -1.4151   -0.2574 H   0  0  0  0  0  0  0  0  0  0  0  0
   -2.2715   -0.8173    0.7959 C   0  0  0  0  0  0  0  0  0  0  0  0
   -1.3850   -1.5189    1.2445 O   0  0  0  0  0  0  0  0  0  0  0  0
   -2.0198    0.4501    0.3009 N   0  0  0  0  0  0  0  0  0  0  0  0
   -2.8383    0.9778    0.0144 H   0  0  0  0  0  0  0  0  0  0  0  0
   -0.7245    1.1642    0.3223 C   0  0  1  0  0  0  0  0  0  0  0  0
   -0.7680    1.9855   -0.3989 H   0  0  0  0  0  0  0  0  0  0  0  0
   -0.5277    1.7734    1.7285 C   0  0  0  0  0  0  0  0  0  0  0  0
   -0.6168    0.9872    2.4863 H   0  0  0  0  0  0  0  0  0  0  0  0
    0.4844    2.1864    1.8039 H   0  0  0  0  0  0  0  0  0  0  0  0
   -1.5259    2.9045    2.0173 C   0  0  0  0  0  0  0  0  0  0  0  0
   -1.4191    3.6916    1.2635 H   0  0  0  0  0  0  0  0  0  0  0  0
   -2.5496    2.5205    1.9659 H   0  0  0  0  0  0  0  0  0  0  0  0
   -1.2736    3.4908    3.4110 C   0  0  0  0  0  0  0  0  0  0  0  0
   -1.3619    2.6984    4.1612 H   0  0  0  0  0  0  0  0  0  0  0  0
   -0.2560    3.8923    3.4636 H   0  0  0  0  0  0  0  0  0  0  0  0
   -2.2710    4.6009    3.7284 C   0  0  0  0  0  0  0  0  0  0  0  0
   -2.1754    5.4131    2.9992 H   0  0  0  0  0  0  0  0  0  0  0  0
   -3.2938    4.2123    3.6743 H   0  0  0  0  0  0  0  0  0  0  0  0
   -1.9951    5.1035    5.0774 N   0  0  0  0  0  0  0  0  0  0  0  0
   -2.6551    5.8334    5.3454 H   0  0  0  0  0  0  0  0  0  0  0  0
   -1.9930    4.3444    5.7592 H   0  0  0  0  0  0  0  0  0  0  0  0
    0.4957    0.3005   -0.1032 C   0  0  0  0  0  0  0  0  0  0  0  0
    1.4422    0.0932    0.6469 O   0  0  0  0  0  0  0  0  0  0  0  0
    0.6592    0.0087   -1.4464 N   0  0  0  0  0  0  0  0  0  0  0  0
   -0.1545    0.1242   -2.0408 H   0  0  0  0  0  0  0  0  0  0  0  0
    1.7988   -0.7430   -1.9591 C   0  0  0  0  0  0  0  0  0  0  0  0
    1.8328   -1.7401   -1.5073 H   0  0  0  0  0  0  0  0  0  0  0  0
    1.7217   -0.8551   -3.0446 H   0  0  0  0  0  0  0  0  0  0  0  0
    2.7352   -0.2221   -1.7329 H   0  0  0  0  0  0  0  0  0  0  0  0
  1  2  1  0  0  0  0
  2  3  1  0  0  0  0
  2  4  1  0  0  0  0
  2  5  1  0  0  0  0
  5  6  2  0  0  0  0
  5  7  1  0  0  0  0
  7  8  1  0  0  0  0
  7  9  1  0  0  0  0
  9 10  1  0  0  0  0
  9 11  1  0  0  0  0
  9 26  1  0  0  0  0
 11 12  1  0  0  0  0
 11 13  1  0  0  0  0
 11 14  1  0  0  0  0
 14 15  1  0  0  0  0
 14 16  1  0  0  0  0
 14 17  1  0  0  0  0
 17 18  1  0  0  0  0
 17 19  1  0  0  0  0
 17 20  1  0  0  0  0
 20 21  1  0  0  0  0
 20 22  1  0  0  0  0
 20 23  1  0  0  0  0
 23 24  1  0  0  0  0
 23 25  1  0  0  0  0
 26 27  2  0  0  0  0
 26 28  1  0  0  0  0
 28 29  1  0  0  0  0
 28 30  1  0  0  0  0
 30 31  1  0  0  0  0
 30 32  1  0  0  0  0
 30 33  1  0  0  0  0
M  END
$$$$

  -OEChem-01062216083D

 33 32  0     1  0  0  0  0  0999 V2000
   -3.7670   -2.3467    1.2189 H   0  0  0  0  0  0  0  0  0  0  0  0
   -3.7185   -1.3509    0.7685 C   0  0  0  0  0  0  0  0  0  0  0  0
   -4.3780   -0.6817    1.3261 H   0  0  0  0  0  0  0  0  0  0  0  0
   -4.0634   -1.4166   -0.2661 H   0  0  0  0  0  0  0  0  0  0  0  0
   -2.2945   -0.8286    0.8085 C   0  0  0  0  0  0  0  0  0  0  0  0
   -1.4216   -1.5318    1.2786 O   0  0  0  0  0  0  0  0  0  0  0  0
   -2.0320    0.4348    0.3092 N   0  0  0  0  0  0  0  0  0  0  0  0
   -2.8448    0.9561   -0.0031 H   0  0  0  0  0  0  0  0  0  0  0  0
   -0.7348    1.1456    0.3217 C   0  0  1  0  0  0  0  0  0  0  0  0
   -0.7858    1.9682   -0.3972 H   0  0  0  0  0  0  0  0  0  0  0  0
   -0.5257    1.7558    1.7250 C   0  0  0  0  0  0  0  0  0  0  0  0
   -0.6151    0.9715    2.4851 H   0  0  0  0  0  0  0  0  0  0  0  0
    0.4900    2.1610    1.7931 H   0  0  0  0  0  0  0  0  0  0  0  0
   -1.5194    2.8897    2.0169 C   0  0  0  0  0  0  0  0  0  0  0  0
   -1.4177    3.6734    1.2592 H   0  0  0  0  0  0  0  0  0  0  0  0
   -2.5435    2.5055    1.9741 H   0  0  0  0  0  0  0  0  0  0  0  0
   -1.2599    3.4817    3.4066 C   0  0  0  0  0  0  0  0  0  0  0  0
   -1.3449    2.6933    4.1617 H   0  0  0  0  0  0  0  0  0  0  0  0
   -0.2423    3.8839    3.4522 H   0  0  0  0  0  0  0  0  0  0  0  0
   -2.2568    4.5937    3.7194 C   0  0  0  0  0  0  0  0  0  0  0  0
   -2.1629    5.4000    2.9838 H   0  0  0  0  0  0  0  0  0  0  0  0
   -3.2795    4.2041    3.6697 H   0  0  0  0  0  0  0  0  0  0  0  0
   -1.9811    5.1082    5.0637 N   0  0  0  0  0  0  0  0  0  0  0  0
   -2.6381    5.8439    5.3228 H   0  0  0  0  0  0  0  0  0  0  0  0
   -1.9847    4.3562    5.7533 H   0  0  0  0  0  0  0  0  0  0  0  0
    0.4912    0.2892   -0.1026 C   0  0  0  0  0  0  0  0  0  0  0  0
    1.3237   -0.1051    0.7049 O   0  0  0  0  0  0  0  0  0  0  0  0
    0.8364    0.2548   -1.4433 N   0  0  0  0  0  0  0  0  0  0  0  0
    0.1361    0.5613   -2.1101 H   0  0  0  0  0  0  0  0  0  0  0  0
    2.0286   -0.4222   -1.9410 C   0  0  0  0  0  0  0  0  0  0  0  0
    2.0038   -1.4846   -1.6761 H   0  0  0  0  0  0  0  0  0  0  0  0
    2.0856   -0.3374   -3.0304 H   0  0  0  0  0  0  0  0  0  0  0  0
    2.9312    0.0267   -1.5130 H   0  0  0  0  0  0  0  0  0  0  0  0
  1  2  1  0  0  0  0
  2  3  1  0  0  0  0
  2  4  1  0  0  0  0
  2  5  1  0  0  0  0
  5  6  2  0  0  0  0
  5  7  1  0  0  0  0
  7  8  1  0  0  0  0
  7  9  1  0  0  0  0
  9 10  1  0  0  0  0
  9 11  1  0  0  0  0
  9 26  1  0  0  0  0
 11 12  1  0  0  0  0
 11 13  1  0  0  0  0
 11 14  1  0  0  0  0
 14 15  1  0  0  0  0
 14 16  1  0  0  0  0
 14 17  1  0  0  0  0
 17 18  1  0  0  0  0
 17 19  1  0  0  0  0
 17 20  1  0  0  0  0
 20 21  1  0  0  0  0
 20 22  1  0  0  0  0
 20 23  1  0  0  0  0
 23 24  1  0  0  0  0
 23 25  1  0  0  0  0
 26 27  2  0  0  0  0
 26 28  1  0  0  0  0
 28 29  1  0  0  0  0
 28 30  1  0  0  0  0
 30 31  1  0  0  0  0
 30 32  1  0  0  0  0
 30 33  1  0  0  0  0
M  END
$$$$

  -OEChem-01062216083D

 33 32  0     1  0  0  0  0  0999 V2000
   -3.7803   -2.4003    1.1529 H   0  0  0  0  0  0  0  0  0  0  0  0
   -3.7272   -1.4043    0.7033 C   0  0  0  0  0  0  0  0  0  0  0  0
   -4.4488   -0.7545    1.2039 H   0  0  0  0  0  0  0  0  0  0  0  0
   -3.9881   -1.4829   -0.3547 H   0  0  0  0  0  0  0  0  0  0  0  0
   -2.3268   -0.8386    0.8531 C   0  0  0  0  0  0  0  0  0  0  0  0
   -1.4916   -1.4914    1.4464 O   0  0  0  0  0  0  0  0  0  0  0  0
   -2.0582    0.4165    0.3358 N   0  0  0  0  0  0  0  0  0  0  0  0
   -2.8483    0.8825   -0.0979 H   0  0  0  0  0  0  0  0  0  0  0  0
   -0.7627    1.1317    0.3253 C   0  0  1  0  0  0  0  0  0  0  0  0
   -0.8334    1.9491   -0.3975 H   0  0  0  0  0  0  0  0  0  0  0  0
   -0.5314    1.7542    1.7183 C   0  0  0  0  0  0  0  0  0  0  0  0
   -0.6092    0.9765    2.4864 H   0  0  0  0  0  0  0  0  0  0  0  0
    0.4860    2.1580    1.7660 H   0  0  0  0  0  0  0  0  0  0  0  0
   -1.5217    2.8887    2.0179 C   0  0  0  0  0  0  0  0  0  0  0  0
   -1.4345    3.6669    1.2525 H   0  0  0  0  0  0  0  0  0  0  0  0
   -2.5455    2.5021    1.9957 H   0  0  0  0  0  0  0  0  0  0  0  0
   -1.2376    3.4915    3.3979 C   0  0  0  0  0  0  0  0  0  0  0  0
   -1.3077    2.7085    4.1599 H   0  0  0  0  0  0  0  0  0  0  0  0
   -0.2198    3.8946    3.4218 H   0  0  0  0  0  0  0  0  0  0  0  0
   -2.2288    4.6051    3.7227 C   0  0  0  0  0  0  0  0  0  0  0  0
   -2.1507    5.4076    2.9807 H   0  0  0  0  0  0  0  0  0  0  0  0
   -3.2523    4.2145    3.6967 H   0  0  0  0  0  0  0  0  0  0  0  0
   -1.9243    5.1259    5.0582 N   0  0  0  0  0  0  0  0  0  0  0  0
   -2.5857    5.8513    5.3344 H   0  0  0  0  0  0  0  0  0  0  0  0
   -1.8973    4.3745    5.7479 H   0  0  0  0  0  0  0  0  0  0  0  0
    0.4769    0.2920   -0.0954 C   0  0  0  0  0  0  0  0  0  0  0  0
    1.1789   -0.2984    0.7147 O   0  0  0  0  0  0  0  0  0  0  0  0
    1.0069    0.4897   -1.3603 N   0  0  0  0  0  0  0  0  0  0  0  0
    0.4437    1.0027   -2.0300 H   0  0  0  0  0  0  0  0  0  0  0  0
    2.2445   -0.1335   -1.8165 C   0  0  0  0  0  0  0  0  0  0  0  0
    2.1550   -1.2247   -1.7913 H   0  0  0  0  0  0  0  0  0  0  0  0
    2.4660    0.1724   -2.8432 H   0  0  0  0  0  0  0  0  0  0  0  0
    3.0834    0.1661   -1.1791 H   0  0  0  0  0  0  0  0  0  0  0  0
  1  2  1  0  0  0  0
  2  3  1  0  0  0  0
  2  4  1  0  0  0  0
  2  5  1  0  0  0  0
  5  6  2  0  0  0  0
  5  7  1  0  0  0  0
  7  8  1  0  0  0  0
  7  9  1  0  0  0  0
  9 10  1  0  0  0  0
  9 11  1  0  0  0  0
  9 26  1  0  0  0  0
 11 12  1  0  0  0  0
 11 13  1  0  0  0  0
 11 14  1  0  0  0  0
 14 15  1  0  0  0  0
 14 16  1  0  0  0  0
 14 17  1  0  0  0  0
 17 18  1  0  0  0  0
 17 19  1  0  0  0  0
 17 20  1  0  0  0  0
 20 21  1  0  0  0  0
 20 22  1  0  0  0  0
 20 23  1  0  0  0  0
 23 24  1  0  0  0  0
 23 25  1  0  0  0  0
 26 27  2  0  0  0  0
 26 28  1  0  0  0  0
 28 29  1  0  0  0  0
 28 30  1  0  0  0  0
 30 31  1  0  0  0  0
 30 32  1  0  0  0  0
 30 33  1  0  0  0  0
M  END
$$$$

  -OEChem-01062216083D

 33 32  0     1  0  0  0  0  0999 V2000
   -3.7009   -2.5164    1.0195 H   0  0  0  0  0  0  0  0  0  0  0  0
   -3.6528   -1.5366    0.5357 C   0  0  0  0  0  0  0  0  0  0  0  0
   -4.5178   -0.9470    0.8484 H   0  0  0  0  0  0  0  0  0  0  0  0
   -3.6863   -1.6798   -0.5468 H   0  0  0  0  0  0  0  0  0  0  0  0
   -2.3708   -0.8245    0.9260 C   0  0  0  0  0  0  0  0  0  0  0  0
   -1.6688   -1.3166    1.7879 O   0  0  0  0  0  0  0  0  0  0  0  0
   -2.1166    0.4241    0.3845 N   0  0  0  0  0  0  0  0  0  0  0  0
   -2.8190    0.7367   -0.2775 H   0  0  0  0  0  0  0  0  0  0  0  0
   -0.8191    1.1370    0.3465 C   0  0  1  0  0  0  0  0  0  0  0  0
   -0.9098    1.9485   -0.3804 H   0  0  0  0  0  0  0  0  0  0  0  0
   -0.5436    1.7681    1.7264 C   0  0  0  0  0  0  0  0  0  0  0  0
   -0.6015    0.9997    2.5051 H   0  0  0  0  0  0  0  0  0  0  0  0
    0.4765    2.1668    1.7407 H   0  0  0  0  0  0  0  0  0  0  0  0
   -1.5202    2.9094    2.0435 C   0  0  0  0  0  0  0  0  0  0  0  0
   -1.4534    3.6803    1.2691 H   0  0  0  0  0  0  0  0  0  0  0  0
   -2.5453    2.5250    2.0539 H   0  0  0  0  0  0  0  0  0  0  0  0
   -1.1958    3.5236    3.4093 C   0  0  0  0  0  0  0  0  0  0  0  0
   -1.2482    2.7478    4.1802 H   0  0  0  0  0  0  0  0  0  0  0  0
   -0.1762    3.9230    3.4018 H   0  0  0  0  0  0  0  0  0  0  0  0
   -2.1742    4.6436    3.7496 C   0  0  0  0  0  0  0  0  0  0  0  0
   -2.1151    5.4385    2.9979 H   0  0  0  0  0  0  0  0  0  0  0  0
   -3.1988    4.2554    3.7552 H   0  0  0  0  0  0  0  0  0  0  0  0
   -1.8325    5.1768    5.0712 N   0  0  0  0  0  0  0  0  0  0  0  0
   -2.4882    5.9029    5.3589 H   0  0  0  0  0  0  0  0  0  0  0  0
   -1.7878    4.4307    5.7659 H   0  0  0  0  0  0  0  0  0  0  0  0
    0.4220    0.3039   -0.0805 C   0  0  0  0  0  0  0  0  0  0  0  0
    0.9092   -0.5827    0.6036 O   0  0  0  0  0  0  0  0  0  0  0  0
    1.1303    0.6991   -1.2040 N   0  0  0  0  0  0  0  0  0  0  0  0
    0.7806    1.4936   -1.7293 H   0  0  0  0  0  0  0  0  0  0  0  0
    2.3899    0.0867   -1.6135 C   0  0  0  0  0  0  0  0  0  0  0  0
    2.2659   -0.9930   -1.7490 H   0  0  0  0  0  0  0  0  0  0  0  0
    2.7297    0.5158   -2.5609 H   0  0  0  0  0  0  0  0  0  0  0  0
    3.1628    0.2595   -0.8572 H   0  0  0  0  0  0  0  0  0  0  0  0
  1  2  1  0  0  0  0
  2  3  1  0  0  0  0
  2  4  1  0  0  0  0
  2  5  1  0  0  0  0
  5  6  2  0  0  0  0
  5  7  1  0  0  0  0
  7  8  1  0  0  0  0
  7  9  1  0  0  0  0
  9 10  1  0  0  0  0
  9 11  1  0  0  0  0
  9 26  1  0  0  0  0
 11 12  1  0  0  0  0
 11 13  1  0  0  0  0
 11 14  1  0  0  0  0
 14 15  1  0  0  0  0
 14 16  1  0  0  0  0
 14 17  1  0  0  0  0
 17 18  1  0  0  0  0
 17 19  1  0  0  0  0
 17 20  1  0  0  0  0
 20 21  1  0  0  0  0
 20 22  1  0  0  0  0
 20 23  1  0  0  0  0
 23 24  1  0  0  0  0
 23 25  1  0  0  0  0
 26 27  2  0  0  0  0
 26 28  1  0  0  0  0
 28 29  1  0  0  0  0
 28 30  1  0  0  0  0
 30 31  1  0  0  0  0
 30 32  1  0  0  0  0
 30 33  1  0  0  0  0
M  END
$$$$

  -OEChem-01062216083D

 33 32  0     1  0  0  0  0  0999 V2000
   -3.4634   -2.6565    0.8766 H   0  0  0  0  0  0  0  0  0  0  0  0
   -3.4661   -1.6783    0.3874 C   0  0  0  0  0  0  0  0  0  0  0  0
   -4.4410   -1.2096    0.5392 H   0  0  0  0  0  0  0  0  0  0  0  0
   -3.2972   -1.8231   -0.6822 H   0  0  0  0  0  0  0  0  0  0  0  0
   -2.3720   -0.8037    0.9700 C   0  0  0  0  0  0  0  0  0  0  0  0
   -1.8243   -1.1495    2.0028 O   0  0  0  0  0  0  0  0  0  0  0  0
   -2.1544    0.4525    0.4285 N   0  0  0  0  0  0  0  0  0  0  0  0
   -2.7518    0.6421   -0.3692 H   0  0  0  0  0  0  0  0  0  0  0  0
   -0.8483    1.1514    0.4117 C   0  0  1  0  0  0  0  0  0  0  0  0
   -0.9324    1.9584   -0.3213 H   0  0  0  0  0  0  0  0  0  0  0  0
   -0.5622    1.7927    1.7842 C   0  0  0  0  0  0  0  0  0  0  0  0
   -0.6294    1.0380    2.5744 H   0  0  0  0  0  0  0  0  0  0  0  0
    0.4626    2.1785    1.7939 H   0  0  0  0  0  0  0  0  0  0  0  0
   -1.5213    2.9526    2.0847 C   0  0  0  0  0  0  0  0  0  0  0  0
   -1.4429    3.7131    1.3009 H   0  0  0  0  0  0  0  0  0  0  0  0
   -2.5520    2.5828    2.0983 H   0  0  0  0  0  0  0  0  0  0  0  0
   -1.1888    3.5783    3.4434 C   0  0  0  0  0  0  0  0  0  0  0  0
   -1.2550    2.8125    4.2233 H   0  0  0  0  0  0  0  0  0  0  0  0
   -0.1628    3.9607    3.4324 H   0  0  0  0  0  0  0  0  0  0  0  0
   -2.1490    4.7181    3.7695 C   0  0  0  0  0  0  0  0  0  0  0  0
   -2.0757    5.5031    3.0090 H   0  0  0  0  0  0  0  0  0  0  0  0
   -3.1798    4.3472    3.7792 H   0  0  0  0  0  0  0  0  0  0  0  0
   -1.7981    5.2599    5.0851 N   0  0  0  0  0  0  0  0  0  0  0  0
   -2.4387    6.0035    5.3620 H   0  0  0  0  0  0  0  0  0  0  0  0
   -1.7729    4.5215    5.7888 H   0  0  0  0  0  0  0  0  0  0  0  0
    0.3933    0.3164   -0.0130 C   0  0  0  0  0  0  0  0  0  0  0  0
    0.5293   -0.8726    0.2327 O   0  0  0  0  0  0  0  0  0  0  0  0
    1.2914    0.8825   -0.9032 N   0  0  0  0  0  0  0  0  0  0  0  0
    1.1912    1.8717   -1.1077 H   0  0  0  0  0  0  0  0  0  0  0  0
    2.4526    0.1736   -1.4306 C   0  0  0  0  0  0  0  0  0  0  0  0
    2.1391   -0.7167   -1.9858 H   0  0  0  0  0  0  0  0  0  0  0  0
    3.0161    0.8216   -2.1084 H   0  0  0  0  0  0  0  0  0  0  0  0
    3.1154   -0.1358   -0.6156 H   0  0  0  0  0  0  0  0  0  0  0  0
  1  2  1  0  0  0  0
  2  3  1  0  0  0  0
  2  4  1  0  0  0  0
  2  5  1  0  0  0  0
  5  6  2  0  0  0  0
  5  7  1  0  0  0  0
  7  8  1  0  0  0  0
  7  9  1  0  0  0  0
  9 10  1  0  0  0  0
  9 11  1  0  0  0  0
  9 26  1  0  0  0  0
 11 12  1  0  0  0  0
 11 13  1  0  0  0  0
 11 14  1  0  0  0  0
 14 15  1  0  0  0  0
 14 16  1  0  0  0  0
 14 17  1  0  0  0  0
 17 18  1  0  0  0  0
 17 19  1  0  0  0  0
 17 20  1  0  0  0  0
 20 21  1  0  0  0  0
 20 22  1  0  0  0  0
 20 23  1  0  0  0  0
 23 24  1  0  0  0  0
 23 25  1  0  0  0  0
 26 27  2  0  0  0  0
 26 28  1  0  0  0  0
 28 29  1  0  0  0  0
 28 30  1  0  0  0  0
 30 31  1  0  0  0  0
 30 32  1  0  0  0  0
 30 33  1  0  0  0  0
M  END
$$$$

  -OEChem-01062216083D

 33 32  0     1  0  0  0  0  0999 V2000
   -3.4550   -2.6525    0.8883 H   0  0  0  0  0  0  0  0  0  0  0  0
   -3.4672   -1.6704    0.4074 C   0  0  0  0  0  0  0  0  0  0  0  0
   -4.4367   -1.2002    0.5866 H   0  0  0  0  0  0  0  0  0  0  0  0
   -3.3248   -1.8069   -0.6671 H   0  0  0  0  0  0  0  0  0  0  0  0
   -2.3566   -0.8034    0.9694 C   0  0  0  0  0  0  0  0  0  0  0  0
   -1.7674   -1.1653    1.9749 O   0  0  0  0  0  0  0  0  0  0  0  0
   -2.1414    0.4557    0.4331 N   0  0  0  0  0  0  0  0  0  0  0  0
   -2.7299    0.6475   -0.3708 H   0  0  0  0  0  0  0  0  0  0  0  0
   -0.8291    1.1421    0.4320 C   0  0  1  0  0  0  0  0  0  0  0  0
   -0.8958    1.9475   -0.3047 H   0  0  0  0  0  0  0  0  0  0  0  0
   -0.5567    1.7824    1.8087 C   0  0  0  0  0  0  0  0  0  0  0  0
   -0.6432    1.0306    2.5995 H   0  0  0  0  0  0  0  0  0  0  0  0
    0.4704    2.1603    1.8354 H   0  0  0  0  0  0  0  0  0  0  0  0
   -1.5114    2.9501    2.0905 C   0  0  0  0  0  0  0  0  0  0  0  0
   -1.4132    3.7070    1.3056 H   0  0  0  0  0  0  0  0  0  0  0  0
   -2.5453    2.5892    2.0868 H   0  0  0  0  0  0  0  0  0  0  0  0
   -1.1976    3.5782    3.4522 C   0  0  0  0  0  0  0  0  0  0  0  0
   -1.2836    2.8167    4.2343 H   0  0  0  0  0  0  0  0  0  0  0  0
   -0.1692    3.9542    3.4586 H   0  0  0  0  0  0  0  0  0  0  0  0
   -2.1560    4.7252    3.7559 C   0  0  0  0  0  0  0  0  0  0  0  0
   -2.0640    5.5063    2.9933 H   0  0  0  0  0  0  0  0  0  0  0  0
   -3.1892    4.3609    3.7479 H   0  0  0  0  0  0  0  0  0  0  0  0
   -1.8249    5.2703    5.0753 N   0  0  0  0  0  0  0  0  0  0  0  0
   -2.4616    6.0235    5.3351 H   0  0  0  0  0  0  0  0  0  0  0  0
   -1.8217    4.5358    5.7838 H   0  0  0  0  0  0  0  0  0  0  0  0
    0.4071    0.2965    0.0119 C   0  0  0  0  0  0  0  0  0  0  0  0
    0.3671   -0.9187   -0.1265 O   0  0  0  0  0  0  0  0  0  0  0  0
    1.4644    0.9530   -0.5971 N   0  0  0  0  0  0  0  0  0  0  0  0
    1.4973    1.9641   -0.5124 H   0  0  0  0  0  0  0  0  0  0  0  0
    2.6106    0.2630   -1.1795 C   0  0  0  0  0  0  0  0  0  0  0  0
    2.2899   -0.3871   -2.0002 H   0  0  0  0  0  0  0  0  0  0  0  0
    3.3287    0.9878   -1.5746 H   0  0  0  0  0  0  0  0  0  0  0  0
    3.1152   -0.3475   -0.4232 H   0  0  0  0  0  0  0  0  0  0  0  0
  1  2  1  0  0  0  0
  2  3  1  0  0  0  0
  2  4  1  0  0  0  0
  2  5  1  0  0  0  0
  5  6  2  0  0  0  0
  5  7  1  0  0  0  0
  7  8  1  0  0  0  0
  7  9  1  0  0  0  0
  9 10  1  0  0  0  0
  9 11  1  0  0  0  0
  9 26  1  0  0  0  0
 11 12  1  0  0  0  0
 11 13  1  0  0  0  0
 11 14  1  0  0  0  0
 14 15  1  0  0  0  0
 14 16  1  0  0  0  0
 14 17  1  0  0  0  0
 17 18  1  0  0  0  0
 17 19  1  0  0  0  0
 17 20  1  0  0  0  0
 20 21  1  0  0  0  0
 20 22  1  0  0  0  0
 20 23  1  0  0  0  0
 23 24  1  0  0  0  0
 23 25  1  0  0  0  0
 26 27  2  0  0  0  0
 26 28  1  0  0  0  0
 28 29  1  0  0  0  0
 28 30  1  0  0  0  0
 30 31  1  0  0  0  0
 30 32  1  0  0  0  0
 30 33  1  0  0  0  0
M  END
$$$$

  -OEChem-01062216083D

 33 32  0     1  0  0  0  0  0999 V2000
   -3.4433   -2.6367    0.8986 H   0  0  0  0  0  0  0  0  0  0  0  0
   -3.4663   -1.6492    0.4295 C   0  0  0  0  0  0  0  0  0  0  0  0
   -4.4256   -1.1750    0.6491 H   0  0  0  0  0  0  0  0  0  0  0  0
   -3.3648   -1.7741   -0.6513 H   0  0  0  0  0  0  0  0  0  0  0  0
   -2.3295   -0.7956    0.9596 C   0  0  0  0  0  0  0  0  0  0  0  0
   -1.6796   -1.1888    1.9157 O   0  0  0  0  0  0  0  0  0  0  0  0
   -2.1262    0.4697    0.4330 N   0  0  0  0  0  0  0  0  0  0  0  0
   -2.7210    0.6705   -0.3641 H   0  0  0  0  0  0  0  0  0  0  0  0
   -0.8138    1.1543    0.4368 C   0  0  1  0  0  0  0  0  0  0  0  0
   -0.8692    1.9642   -0.2962 H   0  0  0  0  0  0  0  0  0  0  0  0
   -0.5502    1.7878    1.8206 C   0  0  0  0  0  0  0  0  0  0  0  0
   -0.6439    1.0329    2.6074 H   0  0  0  0  0  0  0  0  0  0  0  0
    0.4753    2.1680    1.8610 H   0  0  0  0  0  0  0  0  0  0  0  0
   -1.5094    2.9534    2.0983 C   0  0  0  0  0  0  0  0  0  0  0  0
   -1.4058    3.7129    1.3165 H   0  0  0  0  0  0  0  0  0  0  0  0
   -2.5425    2.5902    2.0841 H   0  0  0  0  0  0  0  0  0  0  0  0
   -1.2108    3.5797    3.4645 C   0  0  0  0  0  0  0  0  0  0  0  0
   -1.3022    2.8162    4.2441 H   0  0  0  0  0  0  0  0  0  0  0  0
   -0.1836    3.9584    3.4817 H   0  0  0  0  0  0  0  0  0  0  0  0
   -2.1758    4.7240    3.7602 C   0  0  0  0  0  0  0  0  0  0  0  0
   -2.0772    5.5066    2.9997 H   0  0  0  0  0  0  0  0  0  0  0  0
   -3.2082    4.3579    3.7404 H   0  0  0  0  0  0  0  0  0  0  0  0
   -1.8611    5.2688    5.0837 N   0  0  0  0  0  0  0  0  0  0  0  0
   -2.4923    6.0315    5.3291 H   0  0  0  0  0  0  0  0  0  0  0  0
   -1.8818    4.5368    5.7942 H   0  0  0  0  0  0  0  0  0  0  0  0
    0.4047    0.2911    0.0030 C   0  0  0  0  0  0  0  0  0  0  0  0
    0.2678   -0.8480   -0.4274 O   0  0  0  0  0  0  0  0  0  0  0  0
    1.5911    0.9330   -0.3131 N   0  0  0  0  0  0  0  0  0  0  0  0
    1.7036    1.8887    0.0105 H   0  0  0  0  0  0  0  0  0  0  0  0
    2.7456    0.2484   -0.8857 C   0  0  0  0  0  0  0  0  0  0  0  0
    2.4939   -0.1766   -1.8631 H   0  0  0  0  0  0  0  0  0  0  0  0
    3.5745    0.9501   -1.0184 H   0  0  0  0  0  0  0  0  0  0  0  0
    3.0778   -0.5594   -0.2251 H   0  0  0  0  0  0  0  0  0  0  0  0
  1  2  1  0  0  0  0
  2  3  1  0  0  0  0
  2  4  1  0  0  0  0
  2  5  1  0  0  0  0
  5  6  2  0  0  0  0
  5  7  1  0  0  0  0
  7  8  1  0  0  0  0
  7  9  1  0  0  0  0
  9 10  1  0  0  0  0
  9 11  1  0  0  0  0
  9 26  1  0  0  0  0
 11 12  1  0  0  0  0
 11 13  1  0  0  0  0
 11 14  1  0  0  0  0
 14 15  1  0  0  0  0
 14 16  1  0  0  0  0
 14 17  1  0  0  0  0
 17 18  1  0  0  0  0
 17 19  1  0  0  0  0
 17 20  1  0  0  0  0
 20 21  1  0  0  0  0
 20 22  1  0  0  0  0
 20 23  1  0  0  0  0
 23 24  1  0  0  0  0
 23 25  1  0  0  0  0
 26 27  2  0  0  0  0
 26 28  1  0  0  0  0
 28 29  1  0  0  0  0
 28 30  1  0  0  0  0
 30 31  1  0  0  0  0
 30 32  1  0  0  0  0
 30 33  1  0  0  0  0
M  END
$$$$

  -OEChem-01062216083D

 33 32  0     1  0  0  0  0  0999 V2000
   -3.5118   -2.6027    0.8146 H   0  0  0  0  0  0  0  0  0  0  0  0
   -3.5141   -1.5888    0.4047 C   0  0  0  0  0  0  0  0  0  0  0  0
   -4.4103   -1.0696    0.7519 H   0  0  0  0  0  0  0  0  0  0  0  0
   -3.5338   -1.6524   -0.6860 H   0  0  0  0  0  0  0  0  0  0  0  0
   -2.2730   -0.8413    0.8543 C   0  0  0  0  0  0  0  0  0  0  0  0
   -1.4914   -1.3898    1.6147 O   0  0  0  0  0  0  0  0  0  0  0  0
   -2.0723    0.4537    0.4057 N   0  0  0  0  0  0  0  0  0  0  0  0
   -2.7125    0.7396   -0.3284 H   0  0  0  0  0  0  0  0  0  0  0  0
   -0.7732    1.1587    0.4522 C   0  0  1  0  0  0  0  0  0  0  0  0
   -0.9110    2.1196   -0.0519 H   0  0  0  0  0  0  0  0  0  0  0  0
   -0.3290    1.4708    1.9018 C   0  0  0  0  0  0  0  0  0  0  0  0
   -0.3063    0.5632    2.5107 H   0  0  0  0  0  0  0  0  0  0  0  0
    0.6875    1.8741    1.8955 H   0  0  0  0  0  0  0  0  0  0  0  0
   -1.2483    2.5142    2.5498 C   0  0  0  0  0  0  0  0  0  0  0  0
   -1.2481    3.4312    1.9516 H   0  0  0  0  0  0  0  0  0  0  0  0
   -2.2733    2.1301    2.5809 H   0  0  0  0  0  0  0  0  0  0  0  0
   -0.7804    2.8303    3.9742 C   0  0  0  0  0  0  0  0  0  0  0  0
   -0.7707    1.9104    4.5681 H   0  0  0  0  0  0  0  0  0  0  0  0
    0.2396    3.2281    3.9496 H   0  0  0  0  0  0  0  0  0  0  0  0
   -1.7034    3.8491    4.6348 C   0  0  0  0  0  0  0  0  0  0  0  0
   -1.7032    4.7831    4.0621 H   0  0  0  0  0  0  0  0  0  0  0  0
   -2.7292    3.4653    4.6597 H   0  0  0  0  0  0  0  0  0  0  0  0
   -1.2240    4.0953    5.9977 N   0  0  0  0  0  0  0  0  0  0  0  0
   -1.8178    4.7674    6.4833 H   0  0  0  0  0  0  0  0  0  0  0  0
   -1.1549    3.2241    6.5242 H   0  0  0  0  0  0  0  0  0  0  0  0
    0.3344    0.4373   -0.3621 C   0  0  0  0  0  0  0  0  0  0  0  0
    0.0438   -0.4323   -1.1765 O   0  0  0  0  0  0  0  0  0  0  0  0
    1.6121    0.9682   -0.4181 N   0  0  0  0  0  0  0  0  0  0  0  0
    1.8484    1.6847    0.2611 H   0  0  0  0  0  0  0  0  0  0  0  0
    2.6772    0.4056   -1.2400 C   0  0  0  0  0  0  0  0  0  0  0  0
    2.3927    0.4151   -2.2975 H   0  0  0  0  0  0  0  0  0  0  0  0
    3.5935    0.9926   -1.1255 H   0  0  0  0  0  0  0  0  0  0  0  0
    2.8860   -0.6269   -0.9406 H   0  0  0  0  0  0  0  0  0  0  0  0
  1  2  1  0  0  0  0
  2  3  1  0  0  0  0
  2  4  1  0  0  0  0
  2  5  1  0  0  0  0
  5  6  2  0  0  0  0
  5  7  1  0  0  0  0
  7  8  1  0  0  0  0
  7  9  1  0  0  0  0
  9 10  1  0  0  0  0
  9 11  1  0  0  0  0
  9 26  1  0  0  0  0
 11 12  1  0  0  0  0
 11 13  1  0  0  0  0
 11 14  1  0  0  0  0
 14 15  1  0  0  0  0
 14 16  1  0  0  0  0
 14 17  1  0  0  0  0
 17 18  1  0  0  0  0
 17 19  1  0  0  0  0
 17 20  1  0  0  0  0
 20 21  1  0  0  0  0
 20 22  1  0  0  0  0
 20 23  1  0  0  0  0
 23 24  1  0  0  0  0
 23 25  1  0  0  0  0
 26 27  2  0  0  0  0
 26 28  1  0  0  0  0
 28 29  1  0  0  0  0
 28 30  1  0  0  0  0
 30 31  1  0  0  0  0
 30 32  1  0  0  0  0
 30 33  1  0  0  0  0
M  END
$$$$

  -OEChem-01062216083D

 33 32  0     1  0  0  0  0  0999 V2000
   -3.4772   -2.5899    0.8336 H   0  0  0  0  0  0  0  0  0  0  0  0
   -3.4854   -1.5775    0.4197 C   0  0  0  0  0  0  0  0  0  0  0  0
   -4.3750   -1.0562    0.7808 H   0  0  0  0  0  0  0  0  0  0  0  0
   -3.5257   -1.6447   -0.6703 H   0  0  0  0  0  0  0  0  0  0  0  0
   -2.2350   -0.8297    0.8432 C   0  0  0  0  0  0  0  0  0  0  0  0
   -1.4213   -1.3877    1.5622 O   0  0  0  0  0  0  0  0  0  0  0  0
   -2.0485    0.4705    0.4053 N   0  0  0  0  0  0  0  0  0  0  0  0
   -2.6964    0.7627   -0.3199 H   0  0  0  0  0  0  0  0  0  0  0  0
   -0.7566    1.1871    0.4584 C   0  0  1  0  0  0  0  0  0  0  0  0
   -0.8937    2.1497   -0.0426 H   0  0  0  0  0  0  0  0  0  0  0  0
   -0.3247    1.4968    1.9134 C   0  0  0  0  0  0  0  0  0  0  0  0
   -0.2957    0.5863    2.5177 H   0  0  0  0  0  0  0  0  0  0  0  0
    0.6856    1.9152    1.9159 H   0  0  0  0  0  0  0  0  0  0  0  0
   -1.2581    2.5285    2.5613 C   0  0  0  0  0  0  0  0  0  0  0  0
   -1.2626    3.4491    1.9683 H   0  0  0  0  0  0  0  0  0  0  0  0
   -2.2800    2.1356    2.5843 H   0  0  0  0  0  0  0  0  0  0  0  0
   -0.8012    2.8411    3.9902 C   0  0  0  0  0  0  0  0  0  0  0  0
   -0.7864    1.9178    4.5786 H   0  0  0  0  0  0  0  0  0  0  0  0
    0.2154    3.2475    3.9743 H   0  0  0  0  0  0  0  0  0  0  0  0
   -1.7374    3.8478    4.6519 C   0  0  0  0  0  0  0  0  0  0  0  0
   -1.7439    4.7855    4.0852 H   0  0  0  0  0  0  0  0  0  0  0  0
   -2.7595    3.4533    4.6699 H   0  0  0  0  0  0  0  0  0  0  0  0
   -1.2687    4.0915    6.0191 N   0  0  0  0  0  0  0  0  0  0  0  0
   -1.8699    4.7582    6.5033 H   0  0  0  0  0  0  0  0  0  0  0  0
   -1.1979    3.2186    6.5425 H   0  0  0  0  0  0  0  0  0  0  0  0
    0.3395    0.4617   -0.3684 C   0  0  0  0  0  0  0  0  0  0  0  0
    0.0177   -0.2318   -1.3277 O   0  0  0  0  0  0  0  0  0  0  0  0
    1.6798    0.7731   -0.2145 N   0  0  0  0  0  0  0  0  0  0  0  0
    1.9390    1.3070    0.6090 H   0  0  0  0  0  0  0  0  0  0  0  0
    2.7366    0.1513   -1.0037 C   0  0  0  0  0  0  0  0  0  0  0  0
    2.5899    0.3546   -2.0697 H   0  0  0  0  0  0  0  0  0  0  0  0
    3.7126    0.5486   -0.7092 H   0  0  0  0  0  0  0  0  0  0  0  0
    2.7422   -0.9328   -0.8491 H   0  0  0  0  0  0  0  0  0  0  0  0
  1  2  1  0  0  0  0
  2  3  1  0  0  0  0
  2  4  1  0  0  0  0
  2  5  1  0  0  0  0
  5  6  2  0  0  0  0
  5  7  1  0  0  0  0
  7  8  1  0  0  0  0
  7  9  1  0  0  0  0
  9 10  1  0  0  0  0
  9 11  1  0  0  0  0
  9 26  1  0  0  0  0
 11 12  1  0  0  0  0
 11 13  1  0  0  0  0
 11 14  1  0  0  0  0
 14 15  1  0  0  0  0
 14 16  1  0  0  0  0
 14 17  1  0  0  0  0
 17 18  1  0  0  0  0
 17 19  1  0  0  0  0
 17 20  1  0  0  0  0
 20 21  1  0  0  0  0
 20 22  1  0  0  0  0
 20 23  1  0  0  0  0
 23 24  1  0  0  0  0
 23 25  1  0  0  0  0
 26 27  2  0  0  0  0
 26 28  1  0  0  0  0
 28 29  1  0  0  0  0
 28 30  1  0  0  0  0
 30 31  1  0  0  0  0
 30 32  1  0  0  0  0
 30 33  1  0  0  0  0
M  END
$$$$

  -OEChem-01062216083D

 33 32  0     1  0  0  0  0  0999 V2000
   -3.4508   -2.5793    0.8434 H   0  0  0  0  0  0  0  0  0  0  0  0
   -3.4682   -1.5634    0.4391 C   0  0  0  0  0  0  0  0  0  0  0  0
   -4.3454   -1.0429    0.8307 H   0  0  0  0  0  0  0  0  0  0  0  0
   -3.5405   -1.6211   -0.6497 H   0  0  0  0  0  0  0  0  0  0  0  0
   -2.2047   -0.8221    0.8339 C   0  0  0  0  0  0  0  0  0  0  0  0
   -1.3674   -1.3891    1.5182 O   0  0  0  0  0  0  0  0  0  0  0  0
   -2.0260    0.4810    0.4033 N   0  0  0  0  0  0  0  0  0  0  0  0
   -2.6857    0.7860   -0.3059 H   0  0  0  0  0  0  0  0  0  0  0  0
   -0.7404    1.2055    0.4640 C   0  0  1  0  0  0  0  0  0  0  0  0
   -0.8778    2.1690   -0.0357 H   0  0  0  0  0  0  0  0  0  0  0  0
   -0.3186    1.5131    1.9216 C   0  0  0  0  0  0  0  0  0  0  0  0
   -0.2854    0.6005    2.5228 H   0  0  0  0  0  0  0  0  0  0  0  0
    0.6877    1.9421    1.9273 H   0  0  0  0  0  0  0  0  0  0  0  0
   -1.2626    2.5361    2.5668 C   0  0  0  0  0  0  0  0  0  0  0  0
   -1.2684    3.4583    1.9765 H   0  0  0  0  0  0  0  0  0  0  0  0
   -2.2818    2.1362    2.5826 H   0  0  0  0  0  0  0  0  0  0  0  0
   -0.8168    2.8474    3.9989 C   0  0  0  0  0  0  0  0  0  0  0  0
   -0.7991    1.9226    4.5848 H   0  0  0  0  0  0  0  0  0  0  0  0
    0.1969    3.2614    3.9896 H   0  0  0  0  0  0  0  0  0  0  0  0
   -1.7642    3.8457    4.6573 C   0  0  0  0  0  0  0  0  0  0  0  0
   -1.7723    4.7847    4.0928 H   0  0  0  0  0  0  0  0  0  0  0  0
   -2.7840    3.4453    4.6670 H   0  0  0  0  0  0  0  0  0  0  0  0
   -1.3056    4.0882    6.0280 N   0  0  0  0  0  0  0  0  0  0  0  0
   -1.9098    4.7555    6.5076 H   0  0  0  0  0  0  0  0  0  0  0  0
   -1.2410    3.2150    6.5515 H   0  0  0  0  0  0  0  0  0  0  0  0
    0.3505    0.4790   -0.3666 C   0  0  0  0  0  0  0  0  0  0  0  0
    0.0421   -0.0265   -1.4407 O   0  0  0  0  0  0  0  0  0  0  0  0
    1.6916    0.5420   -0.0290 N   0  0  0  0  0  0  0  0  0  0  0  0
    1.9124    0.8732    0.9050 H   0  0  0  0  0  0  0  0  0  0  0  0
    2.7334   -0.1371   -0.7899 C   0  0  0  0  0  0  0  0  0  0  0  0
    2.7416    0.2131   -1.8274 H   0  0  0  0  0  0  0  0  0  0  0  0
    3.7149    0.0661   -0.3512 H   0  0  0  0  0  0  0  0  0  0  0  0
    2.5670   -1.2195   -0.7838 H   0  0  0  0  0  0  0  0  0  0  0  0
  1  2  1  0  0  0  0
  2  3  1  0  0  0  0
  2  4  1  0  0  0  0
  2  5  1  0  0  0  0
  5  6  2  0  0  0  0
  5  7  1  0  0  0  0
  7  8  1  0  0  0  0
  7  9  1  0  0  0  0
  9 10  1  0  0  0  0
  9 11  1  0  0  0  0
  9 26  1  0  0  0  0
 11 12  1  0  0  0  0
 11 13  1  0  0  0  0
 11 14  1  0  0  0  0
 14 15  1  0  0  0  0
 14 16  1  0  0  0  0
 14 17  1  0  0  0  0
 17 18  1  0  0  0  0
 17 19  1  0  0  0  0
 17 20  1  0  0  0  0
 20 21  1  0  0  0  0
 20 22  1  0  0  0  0
 20 23  1  0  0  0  0
 23 24  1  0  0  0  0
 23 25  1  0  0  0  0
 26 27  2  0  0  0  0
 26 28  1  0  0  0  0
 28 29  1  0  0  0  0
 28 30  1  0  0  0  0
 30 31  1  0  0  0  0
 30 32  1  0  0  0  0
 30 33  1  0  0  0  0
M  END
$$$$

  -OEChem-01062216083D

 33 32  0     1  0  0  0  0  0999 V2000
   -3.4306   -2.5777    0.8467 H   0  0  0  0  0  0  0  0  0  0  0  0
   -3.4517   -1.5625    0.4407 C   0  0  0  0  0  0  0  0  0  0  0  0
   -4.3260   -1.0419    0.8382 H   0  0  0  0  0  0  0  0  0  0  0  0
   -3.5321   -1.6212   -0.6475 H   0  0  0  0  0  0  0  0  0  0  0  0
   -2.1861   -0.8196    0.8248 C   0  0  0  0  0  0  0  0  0  0  0  0
   -1.3364   -1.3884    1.4922 O   0  0  0  0  0  0  0  0  0  0  0  0
   -2.0125    0.4845    0.3969 N   0  0  0  0  0  0  0  0  0  0  0  0
   -2.6791    0.7972   -0.3027 H   0  0  0  0  0  0  0  0  0  0  0  0
   -0.7329    1.2172    0.4677 C   0  0  1  0  0  0  0  0  0  0  0  0
   -0.8714    2.1801   -0.0333 H   0  0  0  0  0  0  0  0  0  0  0  0
   -0.3172    1.5283    1.9256 C   0  0  0  0  0  0  0  0  0  0  0  0
   -0.2820    0.6157    2.5271 H   0  0  0  0  0  0  0  0  0  0  0  0
    0.6874    1.9626    1.9298 H   0  0  0  0  0  0  0  0  0  0  0  0
   -1.2677    2.5453    2.5705 C   0  0  0  0  0  0  0  0  0  0  0  0
   -1.2786    3.4677    1.9806 H   0  0  0  0  0  0  0  0  0  0  0  0
   -2.2849    2.1400    2.5847 H   0  0  0  0  0  0  0  0  0  0  0  0
   -0.8237    2.8575    4.0034 C   0  0  0  0  0  0  0  0  0  0  0  0
   -0.8012    1.9324    4.5888 H   0  0  0  0  0  0  0  0  0  0  0  0
    0.1876    3.2774    3.9947 H   0  0  0  0  0  0  0  0  0  0  0  0
   -1.7761    3.8497    4.6632 C   0  0  0  0  0  0  0  0  0  0  0  0
   -1.7899    4.7896    4.1002 H   0  0  0  0  0  0  0  0  0  0  0  0
   -2.7936    3.4434    4.6731 H   0  0  0  0  0  0  0  0  0  0  0  0
   -1.3173    4.0921    6.0339 N   0  0  0  0  0  0  0  0  0  0  0  0
   -1.9257    4.7532    6.5168 H   0  0  0  0  0  0  0  0  0  0  0  0
   -1.2432    3.2182    6.5551 H   0  0  0  0  0  0  0  0  0  0  0  0
    0.3603    0.4915   -0.3573 C   0  0  0  0  0  0  0  0  0  0  0  0
    0.1107    0.1785   -1.5161 O   0  0  0  0  0  0  0  0  0  0  0  0
    1.6408    0.2917    0.1281 N   0  0  0  0  0  0  0  0  0  0  0  0
    1.7648    0.4116    1.1291 H   0  0  0  0  0  0  0  0  0  0  0  0
    2.6561   -0.4494   -0.6100 C   0  0  0  0  0  0  0  0  0  0  0  0
    2.8503    0.0250   -1.5777 H   0  0  0  0  0  0  0  0  0  0  0  0
    3.5925   -0.4724   -0.0446 H   0  0  0  0  0  0  0  0  0  0  0  0
    2.3278   -1.4798   -0.7820 H   0  0  0  0  0  0  0  0  0  0  0  0
  1  2  1  0  0  0  0
  2  3  1  0  0  0  0
  2  4  1  0  0  0  0
  2  5  1  0  0  0  0
  5  6  2  0  0  0  0
  5  7  1  0  0  0  0
  7  8  1  0  0  0  0
  7  9  1  0  0  0  0
  9 10  1  0  0  0  0
  9 11  1  0  0  0  0
  9 26  1  0  0  0  0
 11 12  1  0  0  0  0
 11 13  1  0  0  0  0
 11 14  1  0  0  0  0
 14 15  1  0  0  0  0
 14 16  1  0  0  0  0
 14 17  1  0  0  0  0
 17 18  1  0  0  0  0
 17 19  1  0  0  0  0
 17 20  1  0  0  0  0
 20 21  1  0  0  0  0
 20 22  1  0  0  0  0
 20 23  1  0  0  0  0
 23 24  1  0  0  0  0
 23 25  1  0  0  0  0
 26 27  2  0  0  0  0
 26 28  1  0  0  0  0
 28 29  1  0  0  0  0
 28 30  1  0  0  0  0
 30 31  1  0  0  0  0
 30 32  1  0  0  0  0
 30 33  1  0  0  0  0
M  END
$$$$

  -OEChem-01062216083D

 33 32  0     1  0  0  0  0  0999 V2000
   -3.4357   -2.5678    0.8612 H   0  0  0  0  0  0  0  0  0  0  0  0
   -3.4562   -1.5516    0.4575 C   0  0  0  0  0  0  0  0  0  0  0  0
   -4.3177   -1.0246    0.8743 H   0  0  0  0  0  0  0  0  0  0  0  0
   -3.5601   -1.6072   -0.6289 H   0  0  0  0  0  0  0  0  0  0  0  0
   -2.1768   -0.8203    0.8173 C   0  0  0  0  0  0  0  0  0  0  0  0
   -1.3156   -1.3973    1.4632 O   0  0  0  0  0  0  0  0  0  0  0  0
   -1.9992    0.4829    0.3896 N   0  0  0  0  0  0  0  0  0  0  0  0
   -2.6827    0.8171   -0.2835 H   0  0  0  0  0  0  0  0  0  0  0  0
   -0.7222    1.2172    0.4678 C   0  0  1  0  0  0  0  0  0  0  0  0
   -0.8602    2.1802   -0.0335 H   0  0  0  0  0  0  0  0  0  0  0  0
   -0.3102    1.5281    1.9259 C   0  0  0  0  0  0  0  0  0  0  0  0
   -0.2789    0.6156    2.5278 H   0  0  0  0  0  0  0  0  0  0  0  0
    0.6969    1.9580    1.9289 H   0  0  0  0  0  0  0  0  0  0  0  0
   -1.2634    2.5436    2.5689 C   0  0  0  0  0  0  0  0  0  0  0  0
   -1.2736    3.4659    1.9786 H   0  0  0  0  0  0  0  0  0  0  0  0
   -2.2799    2.1367    2.5799 H   0  0  0  0  0  0  0  0  0  0  0  0
   -0.8248    2.8575    4.0033 C   0  0  0  0  0  0  0  0  0  0  0  0
   -0.8008    1.9331    4.5896 H   0  0  0  0  0  0  0  0  0  0  0  0
    0.1853    3.2801    3.9973 H   0  0  0  0  0  0  0  0  0  0  0  0
   -1.7819    3.8485    4.6586 C   0  0  0  0  0  0  0  0  0  0  0  0
   -1.7947    4.7875    4.0941 H   0  0  0  0  0  0  0  0  0  0  0  0
   -2.7988    3.4405    4.6643 H   0  0  0  0  0  0  0  0  0  0  0  0
   -1.3308    4.0945    6.0313 N   0  0  0  0  0  0  0  0  0  0  0  0
   -1.9437    4.7548    6.5095 H   0  0  0  0  0  0  0  0  0  0  0  0
   -1.2568    3.2220    6.5549 H   0  0  0  0  0  0  0  0  0  0  0  0
    0.3769    0.4937   -0.3472 C   0  0  0  0  0  0  0  0  0  0  0  0
    0.2287    0.3796   -1.5583 O   0  0  0  0  0  0  0  0  0  0  0  0
    1.5401    0.0290    0.2403 N   0  0  0  0  0  0  0  0  0  0  0  0
    1.5175   -0.0533    1.2532 H   0  0  0  0  0  0  0  0  0  0  0  0
    2.5285   -0.7544   -0.4900 C   0  0  0  0  0  0  0  0  0  0  0  0
    2.9071   -0.1907   -1.3490 H   0  0  0  0  0  0  0  0  0  0  0  0
    3.3737   -0.9971    0.1612 H   0  0  0  0  0  0  0  0  0  0  0  0
    2.0855   -1.6893   -0.8490 H   0  0  0  0  0  0  0  0  0  0  0  0
  1  2  1  0  0  0  0
  2  3  1  0  0  0  0
  2  4  1  0  0  0  0
  2  5  1  0  0  0  0
  5  6  2  0  0  0  0
  5  7  1  0  0  0  0
  7  8  1  0  0  0  0
  7  9  1  0  0  0  0
  9 10  1  0  0  0  0
  9 11  1  0  0  0  0
  9 26  1  0  0  0  0
 11 12  1  0  0  0  0
 11 13  1  0  0  0  0
 11 14  1  0  0  0  0
 14 15  1  0  0  0  0
 14 16  1  0  0  0  0
 14 17  1  0  0  0  0
 17 18  1  0  0  0  0
 17 19  1  0  0  0  0
 17 20  1  0  0  0  0
 20 21  1  0  0  0  0
 20 22  1  0  0  0  0
 20 23  1  0  0  0  0
 23 24  1  0  0  0  0
 23 25  1  0  0  0  0
 26 27  2  0  0  0  0
 26 28  1  0  0  0  0
 28 29  1  0  0  0  0
 28 30  1  0  0  0  0
 30 31  1  0  0  0  0
 30 32  1  0  0  0  0
 30 33  1  0  0  0  0
M  END
$$$$

  -OEChem-01062216083D

 33 32  0     1  0  0  0  0  0999 V2000
   -3.4713   -2.5445    0.9058 H   0  0  0  0  0  0  0  0  0  0  0  0
   -3.4863   -1.5290    0.4997 C   0  0  0  0  0  0  0  0  0  0  0  0
   -4.3213   -0.9837    0.9460 H   0  0  0  0  0  0  0  0  0  0  0  0
   -3.6313   -1.5858   -0.5820 H   0  0  0  0  0  0  0  0  0  0  0  0
   -2.1806   -0.8226    0.8109 C   0  0  0  0  0  0  0  0  0  0  0  0
   -1.3090   -1.4142    1.4300 O   0  0  0  0  0  0  0  0  0  0  0  0
   -1.9900    0.4766    0.3763 N   0  0  0  0  0  0  0  0  0  0  0  0
   -2.6947    0.8406   -0.2588 H   0  0  0  0  0  0  0  0  0  0  0  0
   -0.7109    1.2064    0.4594 C   0  0  1  0  0  0  0  0  0  0  0  0
   -0.8426    2.1692   -0.0444 H   0  0  0  0  0  0  0  0  0  0  0  0
   -0.3078    1.5164    1.9189 C   0  0  0  0  0  0  0  0  0  0  0  0
   -0.2870    0.6043    2.5217 H   0  0  0  0  0  0  0  0  0  0  0  0
    0.7041    1.9356    1.9266 H   0  0  0  0  0  0  0  0  0  0  0  0
   -1.2609    2.5361    2.5554 C   0  0  0  0  0  0  0  0  0  0  0  0
   -1.2627    3.4586    1.9652 H   0  0  0  0  0  0  0  0  0  0  0  0
   -2.2795    2.1346    2.5605 H   0  0  0  0  0  0  0  0  0  0  0  0
   -0.8282    2.8466    3.9918 C   0  0  0  0  0  0  0  0  0  0  0  0
   -0.8130    1.9211    4.5766 H   0  0  0  0  0  0  0  0  0  0  0  0
    0.1848    3.2626    3.9906 H   0  0  0  0  0  0  0  0  0  0  0  0
   -1.7820    3.8418    4.6456 C   0  0  0  0  0  0  0  0  0  0  0  0
   -1.7868    4.7822    4.0833 H   0  0  0  0  0  0  0  0  0  0  0  0
   -2.8015    3.4407    4.6470 H   0  0  0  0  0  0  0  0  0  0  0  0
   -1.3333    4.0816    6.0202 N   0  0  0  0  0  0  0  0  0  0  0  0
   -1.9396    4.7488    6.4972 H   0  0  0  0  0  0  0  0  0  0  0  0
   -1.2712    3.2078    6.5430 H   0  0  0  0  0  0  0  0  0  0  0  0
    0.3984    0.4818   -0.3375 C   0  0  0  0  0  0  0  0  0  0  0  0
    0.4056    0.5785   -1.5586 O   0  0  0  0  0  0  0  0  0  0  0  0
    1.3938   -0.2367    0.2985 N   0  0  0  0  0  0  0  0  0  0  0  0
    1.1762   -0.5134    1.2539 H   0  0  0  0  0  0  0  0  0  0  0  0
    2.3744   -1.0277   -0.4336 C   0  0  0  0  0  0  0  0  0  0  0  0
    2.9335   -0.3961   -1.1320 H   0  0  0  0  0  0  0  0  0  0  0  0
    3.0856   -1.4838    0.2615 H   0  0  0  0  0  0  0  0  0  0  0  0
    1.8783   -1.8240   -0.9982 H   0  0  0  0  0  0  0  0  0  0  0  0
  1  2  1  0  0  0  0
  2  3  1  0  0  0  0
  2  4  1  0  0  0  0
  2  5  1  0  0  0  0
  5  6  2  0  0  0  0
  5  7  1  0  0  0  0
  7  8  1  0  0  0  0
  7  9  1  0  0  0  0
  9 10  1  0  0  0  0
  9 11  1  0  0  0  0
  9 26  1  0  0  0  0
 11 12  1  0  0  0  0
 11 13  1  0  0  0  0
 11 14  1  0  0  0  0
 14 15  1  0  0  0  0
 14 16  1  0  0  0  0
 14 17  1  0  0  0  0
 17 18  1  0  0  0  0
 17 19  1  0  0  0  0
 17 20  1  0  0  0  0
 20 21  1  0  0  0  0
 20 22  1  0  0  0  0
 20 23  1  0  0  0  0
 23 24  1  0  0  0  0
 23 25  1  0  0  0  0
 26 27  2  0  0  0  0
 26 28  1  0  0  0  0
 28 29  1  0  0  0  0
 28 30  1  0  0  0  0
 30 31  1  0  0  0  0
 30 32  1  0  0  0  0
 30 33  1  0  0  0  0
M  END
$$$$

  -OEChem-01062216083D

 33 32  0     1  0  0  0  0  0999 V2000
   -3.5500   -2.5072    0.9610 H   0  0  0  0  0  0  0  0  0  0  0  0
   -3.5447   -1.4953    0.5461 C   0  0  0  0  0  0  0  0  0  0  0  0
   -4.3472   -0.9195    1.0135 H   0  0  0  0  0  0  0  0  0  0  0  0
   -3.7263   -1.5559   -0.5298 H   0  0  0  0  0  0  0  0  0  0  0  0
   -2.2073   -0.8291    0.8089 C   0  0  0  0  0  0  0  0  0  0  0  0
   -1.3373   -1.4419    1.4099 O   0  0  0  0  0  0  0  0  0  0  0  0
   -1.9918    0.4619    0.3610 N   0  0  0  0  0  0  0  0  0  0  0  0
   -2.7218    0.8619   -0.2216 H   0  0  0  0  0  0  0  0  0  0  0  0
   -0.7095    1.1889    0.4406 C   0  0  1  0  0  0  0  0  0  0  0  0
   -0.8390    2.1504   -0.0672 H   0  0  0  0  0  0  0  0  0  0  0  0
   -0.3084    1.4978    1.8997 C   0  0  0  0  0  0  0  0  0  0  0  0
   -0.2909    0.5849    2.5018 H   0  0  0  0  0  0  0  0  0  0  0  0
    0.7058    1.9115    1.9070 H   0  0  0  0  0  0  0  0  0  0  0  0
   -1.2583    2.5200    2.5369 C   0  0  0  0  0  0  0  0  0  0  0  0
   -1.2568    3.4431    1.9475 H   0  0  0  0  0  0  0  0  0  0  0  0
   -2.2783    2.1222    2.5412 H   0  0  0  0  0  0  0  0  0  0  0  0
   -0.8245    2.8270    3.9737 C   0  0  0  0  0  0  0  0  0  0  0  0
   -0.8122    1.9006    4.5568 H   0  0  0  0  0  0  0  0  0  0  0  0
    0.1900    3.2392    3.9731 H   0  0  0  0  0  0  0  0  0  0  0  0
   -1.7747    3.8243    4.6287 C   0  0  0  0  0  0  0  0  0  0  0  0
   -1.7762    4.7656    4.0679 H   0  0  0  0  0  0  0  0  0  0  0  0
   -2.7957    3.4267    4.6290 H   0  0  0  0  0  0  0  0  0  0  0  0
   -1.3248    4.0601    6.0037 N   0  0  0  0  0  0  0  0  0  0  0  0
   -1.9323    4.7237    6.4846 H   0  0  0  0  0  0  0  0  0  0  0  0
   -1.2580    3.1845    6.5229 H   0  0  0  0  0  0  0  0  0  0  0  0
    0.4162    0.4653   -0.3330 C   0  0  0  0  0  0  0  0  0  0  0  0
    0.6150    0.7561   -1.5058 O   0  0  0  0  0  0  0  0  0  0  0  0
    1.2164   -0.4755    0.2869 N   0  0  0  0  0  0  0  0  0  0  0  0
    0.8092   -0.8802    1.1310 H   0  0  0  0  0  0  0  0  0  0  0  0
    2.2062   -1.2616   -0.4376 C   0  0  0  0  0  0  0  0  0  0  0  0
    2.9286   -0.6058   -0.9352 H   0  0  0  0  0  0  0  0  0  0  0  0
    2.7517   -1.9101    0.2548 H   0  0  0  0  0  0  0  0  0  0  0  0
    1.7195   -1.8875   -1.1928 H   0  0  0  0  0  0  0  0  0  0  0  0
  1  2  1  0  0  0  0
  2  3  1  0  0  0  0
  2  4  1  0  0  0  0
  2  5  1  0  0  0  0
  5  6  2  0  0  0  0
  5  7  1  0  0  0  0
  7  8  1  0  0  0  0
  7  9  1  0  0  0  0
  9 10  1  0  0  0  0
  9 11  1  0  0  0  0
  9 26  1  0  0  0  0
 11 12  1  0  0  0  0
 11 13  1  0  0  0  0
 11 14  1  0  0  0  0
 14 15  1  0  0  0  0
 14 16  1  0  0  0  0
 14 17  1  0  0  0  0
 17 18  1  0  0  0  0
 17 19  1  0  0  0  0
 17 20  1  0  0  0  0
 20 21  1  0  0  0  0
 20 22  1  0  0  0  0
 20 23  1  0  0  0  0
 23 24  1  0  0  0  0
 23 25  1  0  0  0  0
 26 27  2  0  0  0  0
 26 28  1  0  0  0  0
 28 29  1  0  0  0  0
 28 30  1  0  0  0  0
 30 31  1  0  0  0  0
 30 32  1  0  0  0  0
 30 33  1  0  0  0  0
M  END
$$$$

  -OEChem-01062216083D

 33 32  0     1  0  0  0  0  0999 V2000
   -3.6527   -2.4704    0.9940 H   0  0  0  0  0  0  0  0  0  0  0  0
   -3.6179   -1.4616    0.5727 C   0  0  0  0  0  0  0  0  0  0  0  0
   -4.3982   -0.8577    1.0423 H   0  0  0  0  0  0  0  0  0  0  0  0
   -3.8096   -1.5225   -0.5014 H   0  0  0  0  0  0  0  0  0  0  0  0
   -2.2580   -0.8373    0.8214 C   0  0  0  0  0  0  0  0  0  0  0  0
   -1.4080   -1.4727    1.4264 O   0  0  0  0  0  0  0  0  0  0  0  0
   -2.0080    0.4426    0.3600 N   0  0  0  0  0  0  0  0  0  0  0  0
   -2.7483    0.8673   -0.1913 H   0  0  0  0  0  0  0  0  0  0  0  0
   -0.7198    1.1639    0.4264 C   0  0  1  0  0  0  0  0  0  0  0  0
   -0.8516    2.1235   -0.0843 H   0  0  0  0  0  0  0  0  0  0  0  0
   -0.3141    1.4724    1.8834 C   0  0  0  0  0  0  0  0  0  0  0  0
   -0.2990    0.5584    2.4842 H   0  0  0  0  0  0  0  0  0  0  0  0
    0.7023    1.8806    1.8881 H   0  0  0  0  0  0  0  0  0  0  0  0
   -1.2566    2.4999    2.5235 C   0  0  0  0  0  0  0  0  0  0  0  0
   -1.2521    3.4225    1.9336 H   0  0  0  0  0  0  0  0  0  0  0  0
   -2.2784    2.1070    2.5320 H   0  0  0  0  0  0  0  0  0  0  0  0
   -0.8174    2.8061    3.9589 C   0  0  0  0  0  0  0  0  0  0  0  0
   -0.8080    1.8803    4.5434 H   0  0  0  0  0  0  0  0  0  0  0  0
    0.1990    3.2137    3.9550 H   0  0  0  0  0  0  0  0  0  0  0  0
   -1.7617    3.8088    4.6145 C   0  0  0  0  0  0  0  0  0  0  0  0
   -1.7601    4.7492    4.0520 H   0  0  0  0  0  0  0  0  0  0  0  0
   -2.7842    3.4154    4.6181 H   0  0  0  0  0  0  0  0  0  0  0  0
   -1.3092    4.0458    5.9883 N   0  0  0  0  0  0  0  0  0  0  0  0
   -1.9144    4.7118    6.4685 H   0  0  0  0  0  0  0  0  0  0  0  0
   -1.2438    3.1710    6.5090 H   0  0  0  0  0  0  0  0  0  0  0  0
    0.4249    0.4474   -0.3272 C   0  0  0  0  0  0  0  0  0  0  0  0
    0.8062    0.8980   -1.3998 O   0  0  0  0  0  0  0  0  0  0  0  0
    1.0317   -0.6784    0.1946 N   0  0  0  0  0  0  0  0  0  0  0  0
    0.5092   -1.1382    0.9444 H   0  0  0  0  0  0  0  0  0  0  0  0
    2.0297   -1.4524   -0.5310 C   0  0  0  0  0  0  0  0  0  0  0  0
    2.8758   -0.8179   -0.8149 H   0  0  0  0  0  0  0  0  0  0  0  0
    2.4062   -2.2647    0.0979 H   0  0  0  0  0  0  0  0  0  0  0  0
    1.5940   -1.8853   -1.4373 H   0  0  0  0  0  0  0  0  0  0  0  0
  1  2  1  0  0  0  0
  2  3  1  0  0  0  0
  2  4  1  0  0  0  0
  2  5  1  0  0  0  0
  5  6  2  0  0  0  0
  5  7  1  0  0  0  0
  7  8  1  0  0  0  0
  7  9  1  0  0  0  0
  9 10  1  0  0  0  0
  9 11  1  0  0  0  0
  9 26  1  0  0  0  0
 11 12  1  0  0  0  0
 11 13  1  0  0  0  0
 11 14  1  0  0  0  0
 14 15  1  0  0  0  0
 14 16  1  0  0  0  0
 14 17  1  0  0  0  0
 17 18  1  0  0  0  0
 17 19  1  0  0  0  0
 17 20  1  0  0  0  0
 20 21  1  0  0  0  0
 20 22  1  0  0  0  0
 20 23  1  0  0  0  0
 23 24  1  0  0  0  0
 23 25  1  0  0  0  0
 26 27  2  0  0  0  0
 26 28  1  0  0  0  0
 28 29  1  0  0  0  0
 28 30  1  0  0  0  0
 30 31  1  0  0  0  0
 30 32  1  0  0  0  0
 30 33  1  0  0  0  0
M  END
$$$$

  -OEChem-01062216083D

 33 32  0     1  0  0  0  0  0999 V2000
   -3.7662   -2.4278    1.0295 H   0  0  0  0  0  0  0  0  0  0  0  0
   -3.7016   -1.4227    0.6029 C   0  0  0  0  0  0  0  0  0  0  0  0
   -4.4550   -0.7905    1.0792 H   0  0  0  0  0  0  0  0  0  0  0  0
   -3.9082   -1.4821   -0.4687 H   0  0  0  0  0  0  0  0  0  0  0  0
   -2.3185   -0.8437    0.8342 C   0  0  0  0  0  0  0  0  0  0  0  0
   -1.4886   -1.5031    1.4399 O   0  0  0  0  0  0  0  0  0  0  0  0
   -2.0336    0.4259    0.3644 N   0  0  0  0  0  0  0  0  0  0  0  0
   -2.7774    0.8727   -0.1641 H   0  0  0  0  0  0  0  0  0  0  0  0
   -0.7354    1.1354    0.4162 C   0  0  1  0  0  0  0  0  0  0  0  0
   -0.8663    2.0950   -0.0946 H   0  0  0  0  0  0  0  0  0  0  0  0
   -0.3222    1.4404    1.8709 C   0  0  0  0  0  0  0  0  0  0  0  0
   -0.3131    0.5247    2.4698 H   0  0  0  0  0  0  0  0  0  0  0  0
    0.6985    1.8390    1.8732 H   0  0  0  0  0  0  0  0  0  0  0  0
   -1.2533    2.4778    2.5129 C   0  0  0  0  0  0  0  0  0  0  0  0
   -1.2410    3.3994    1.9216 H   0  0  0  0  0  0  0  0  0  0  0  0
   -2.2789    2.0949    2.5238 H   0  0  0  0  0  0  0  0  0  0  0  0
   -0.8112    2.7846    3.9475 C   0  0  0  0  0  0  0  0  0  0  0  0
   -0.8089    1.8608    4.5354 H   0  0  0  0  0  0  0  0  0  0  0  0
    0.2084    3.1848    3.9429 H   0  0  0  0  0  0  0  0  0  0  0  0
   -1.7487    3.7975    4.5982 C   0  0  0  0  0  0  0  0  0  0  0  0
   -1.7393    4.7353    4.0318 H   0  0  0  0  0  0  0  0  0  0  0  0
   -2.7740    3.4114    4.6012 H   0  0  0  0  0  0  0  0  0  0  0  0
   -1.2976    4.0379    5.9719 N   0  0  0  0  0  0  0  0  0  0  0  0
   -1.9023    4.7062    6.4495 H   0  0  0  0  0  0  0  0  0  0  0  0
   -1.2340    3.1648    6.4957 H   0  0  0  0  0  0  0  0  0  0  0  0
    0.4227    0.4262   -0.3262 C   0  0  0  0  0  0  0  0  0  0  0  0
    0.9711    1.0036   -1.2560 O   0  0  0  0  0  0  0  0  0  0  0  0
    0.8459   -0.8415    0.0204 N   0  0  0  0  0  0  0  0  0  0  0  0
    0.2736   -1.3299    0.7144 H   0  0  0  0  0  0  0  0  0  0  0  0
    1.8607   -1.5863   -0.7120 C   0  0  0  0  0  0  0  0  0  0  0  0
    2.7898   -1.0101   -0.7744 H   0  0  0  0  0  0  0  0  0  0  0  0
    2.0751   -2.5305   -0.2025 H   0  0  0  0  0  0  0  0  0  0  0  0
    1.5137   -1.8085   -1.7262 H   0  0  0  0  0  0  0  0  0  0  0  0
  1  2  1  0  0  0  0
  2  3  1  0  0  0  0
  2  4  1  0  0  0  0
  2  5  1  0  0  0  0
  5  6  2  0  0  0  0
  5  7  1  0  0  0  0
  7  8  1  0  0  0  0
  7  9  1  0  0  0  0
  9 10  1  0  0  0  0
  9 11  1  0  0  0  0
  9 26  1  0  0  0  0
 11 12  1  0  0  0  0
 11 13  1  0  0  0  0
 11 14  1  0  0  0  0
 14 15  1  0  0  0  0
 14 16  1  0  0  0  0
 14 17  1  0  0  0  0
 17 18  1  0  0  0  0
 17 19  1  0  0  0  0
 17 20  1  0  0  0  0
 20 21  1  0  0  0  0
 20 22  1  0  0  0  0
 20 23  1  0  0  0  0
 23 24  1  0  0  0  0
 23 25  1  0  0  0  0
 26 27  2  0  0  0  0
 26 28  1  0  0  0  0
 28 29  1  0  0  0  0
 28 30  1  0  0  0  0
 30 31  1  0  0  0  0
 30 32  1  0  0  0  0
 30 33  1  0  0  0  0
M  END
$$$$

  -OEChem-01062216083D

 33 32  0     1  0  0  0  0  0999 V2000
   -3.8735   -2.3927    1.0827 H   0  0  0  0  0  0  0  0  0  0  0  0
   -3.7960   -1.3957    0.6398 C   0  0  0  0  0  0  0  0  0  0  0  0
   -4.5254   -0.7400    1.1213 H   0  0  0  0  0  0  0  0  0  0  0  0
   -4.0264   -1.4664   -0.4260 H   0  0  0  0  0  0  0  0  0  0  0  0
   -2.3961   -0.8440    0.8336 C   0  0  0  0  0  0  0  0  0  0  0  0
   -1.5648   -1.5199    1.4183 O   0  0  0  0  0  0  0  0  0  0  0  0
   -2.0979    0.4164    0.3476 N   0  0  0  0  0  0  0  0  0  0  0  0
   -2.8536    0.8797   -0.1489 H   0  0  0  0  0  0  0  0  0  0  0  0
   -0.7931    1.1182    0.3724 C   0  0  1  0  0  0  0  0  0  0  0  0
   -0.9284    2.0760   -0.1407 H   0  0  0  0  0  0  0  0  0  0  0  0
   -0.3584    1.4201    1.8211 C   0  0  0  0  0  0  0  0  0  0  0  0
   -0.3443    0.5027    2.4171 H   0  0  0  0  0  0  0  0  0  0  0  0
    0.6645    1.8127    1.8084 H   0  0  0  0  0  0  0  0  0  0  0  0
   -1.2699    2.4624    2.4827 C   0  0  0  0  0  0  0  0  0  0  0  0
   -1.2602    3.3868    1.8951 H   0  0  0  0  0  0  0  0  0  0  0  0
   -2.2985    2.0882    2.5118 H   0  0  0  0  0  0  0  0  0  0  0  0
   -0.7951    2.7562    3.9099 C   0  0  0  0  0  0  0  0  0  0  0  0
   -0.7888    1.8286    4.4916 H   0  0  0  0  0  0  0  0  0  0  0  0
    0.2279    3.1463    3.8857 H   0  0  0  0  0  0  0  0  0  0  0  0
   -1.7073    3.7734    4.5889 C   0  0  0  0  0  0  0  0  0  0  0  0
   -1.7013    4.7157    4.0296 H   0  0  0  0  0  0  0  0  0  0  0  0
   -2.7361    3.3979    4.6130 H   0  0  0  0  0  0  0  0  0  0  0  0
   -1.2224    3.9981    5.9536 N   0  0  0  0  0  0  0  0  0  0  0  0
   -1.8075    4.6704    6.4493 H   0  0  0  0  0  0  0  0  0  0  0  0
   -1.1578    3.1204    6.4695 H   0  0  0  0  0  0  0  0  0  0  0  0
    0.3676    0.4118   -0.3714 C   0  0  0  0  0  0  0  0  0  0  0  0
    1.0856    1.0770   -1.1065 O   0  0  0  0  0  0  0  0  0  0  0  0
    0.6179   -0.9397   -0.2417 N   0  0  0  0  0  0  0  0  0  0  0  0
    0.0335   -1.4454    0.4287 H   0  0  0  0  0  0  0  0  0  0  0  0
    1.7373   -1.6273   -0.8700 C   0  0  0  0  0  0  0  0  0  0  0  0
    2.6872   -1.1953   -0.5382 H   0  0  0  0  0  0  0  0  0  0  0  0
    1.7261   -2.6878   -0.6006 H   0  0  0  0  0  0  0  0  0  0  0  0
    1.6740   -1.5465   -1.9601 H   0  0  0  0  0  0  0  0  0  0  0  0
  1  2  1  0  0  0  0
  2  3  1  0  0  0  0
  2  4  1  0  0  0  0
  2  5  1  0  0  0  0
  5  6  2  0  0  0  0
  5  7  1  0  0  0  0
  7  8  1  0  0  0  0
  7  9  1  0  0  0  0
  9 10  1  0  0  0  0
  9 11  1  0  0  0  0
  9 26  1  0  0  0  0
 11 12  1  0  0  0  0
 11 13  1  0  0  0  0
 11 14  1  0  0  0  0
 14 15  1  0  0  0  0
 14 16  1  0  0  0  0
 14 17  1  0  0  0  0
 17 18  1  0  0  0  0
 17 19  1  0  0  0  0
 17 20  1  0  0  0  0
 20 21  1  0  0  0  0
 20 22  1  0  0  0  0
 20 23  1  0  0  0  0
 23 24  1  0  0  0  0
 23 25  1  0  0  0  0
 26 27  2  0  0  0  0
 26 28  1  0  0  0  0
 28 29  1  0  0  0  0
 28 30  1  0  0  0  0
 30 31  1  0  0  0  0
 30 32  1  0  0  0  0
 30 33  1  0  0  0  0
M  END
$$$$

  -OEChem-01062216083D

 33 32  0     1  0  0  0  0  0999 V2000
   -3.9214   -2.3559    1.1459 H   0  0  0  0  0  0  0  0  0  0  0  0
   -3.8423   -1.3599    0.7009 C   0  0  0  0  0  0  0  0  0  0  0  0
   -4.5314   -0.6887    1.2193 H   0  0  0  0  0  0  0  0  0  0  0  0
   -4.1268   -1.4228   -0.3523 H   0  0  0  0  0  0  0  0  0  0  0  0
   -2.4215   -0.8422    0.8246 C   0  0  0  0  0  0  0  0  0  0  0  0
   -1.5711   -1.5485    1.3412 O   0  0  0  0  0  0  0  0  0  0  0  0
   -2.1189    0.4165    0.3377 N   0  0  0  0  0  0  0  0  0  0  0  0
   -2.8928    0.9119   -0.0956 H   0  0  0  0  0  0  0  0  0  0  0  0
   -0.8092    1.1108    0.3497 C   0  0  1  0  0  0  0  0  0  0  0  0
   -0.9449    2.0702   -0.1604 H   0  0  0  0  0  0  0  0  0  0  0  0
   -0.3689    1.4050    1.7989 C   0  0  0  0  0  0  0  0  0  0  0  0
   -0.3601    0.4843    2.3897 H   0  0  0  0  0  0  0  0  0  0  0  0
    0.6565    1.7916    1.7875 H   0  0  0  0  0  0  0  0  0  0  0  0
   -1.2731    2.4503    2.4669 C   0  0  0  0  0  0  0  0  0  0  0  0
   -1.2593    3.3763    1.8824 H   0  0  0  0  0  0  0  0  0  0  0  0
   -2.3038    2.0829    2.4965 H   0  0  0  0  0  0  0  0  0  0  0  0
   -0.7949    2.7381    3.8943 C   0  0  0  0  0  0  0  0  0  0  0  0
   -0.7920    1.8092    4.4737 H   0  0  0  0  0  0  0  0  0  0  0  0
    0.2300    3.1232    3.8699 H   0  0  0  0  0  0  0  0  0  0  0  0
   -1.7015    3.7582    4.5768 C   0  0  0  0  0  0  0  0  0  0  0  0
   -1.6922    4.7014    4.0193 H   0  0  0  0  0  0  0  0  0  0  0  0
   -2.7322    3.3876    4.6010 H   0  0  0  0  0  0  0  0  0  0  0  0
   -1.2146    3.9782    5.9417 N   0  0  0  0  0  0  0  0  0  0  0  0
   -1.7959    4.6526    6.4390 H   0  0  0  0  0  0  0  0  0  0  0  0
   -1.1529    3.0996    6.4561 H   0  0  0  0  0  0  0  0  0  0  0  0
    0.3522    0.4120   -0.4027 C   0  0  0  0  0  0  0  0  0  0  0  0
    1.2043    1.1107   -0.9365 O   0  0  0  0  0  0  0  0  0  0  0  0
    0.4428   -0.9602   -0.5320 N   0  0  0  0  0  0  0  0  0  0  0  0
   -0.1765   -1.4989    0.0778 H   0  0  0  0  0  0  0  0  0  0  0  0
    1.5817   -1.6348   -1.1406 C   0  0  0  0  0  0  0  0  0  0  0  0
    2.5018   -1.4018   -0.5944 H   0  0  0  0  0  0  0  0  0  0  0  0
    1.4315   -2.7184   -1.1217 H   0  0  0  0  0  0  0  0  0  0  0  0
    1.7007   -1.3215   -2.1830 H   0  0  0  0  0  0  0  0  0  0  0  0
  1  2  1  0  0  0  0
  2  3  1  0  0  0  0
  2  4  1  0  0  0  0
  2  5  1  0  0  0  0
  5  6  2  0  0  0  0
  5  7  1  0  0  0  0
  7  8  1  0  0  0  0
  7  9  1  0  0  0  0
  9 10  1  0  0  0  0
  9 11  1  0  0  0  0
  9 26  1  0  0  0  0
 11 12  1  0  0  0  0
 11 13  1  0  0  0  0
 11 14  1  0  0  0  0
 14 15  1  0  0  0  0
 14 16  1  0  0  0  0
 14 17  1  0  0  0  0
 17 18  1  0  0  0  0
 17 19  1  0  0  0  0
 17 20  1  0  0  0  0
 20 21  1  0  0  0  0
 20 22  1  0  0  0  0
 20 23  1  0  0  0  0
 23 24  1  0  0  0  0
 23 25  1  0  0  0  0
 26 27  2  0  0  0  0
 26 28  1  0  0  0  0
 28 29  1  0  0  0  0
 28 30  1  0  0  0  0
 30 31  1  0  0  0  0
 30 32  1  0  0  0  0
 30 33  1  0  0  0  0
M  END
$$$$

  -OEChem-01062216083D

 33 32  0     1  0  0  0  0  0999 V2000
   -3.9153   -2.3198    1.2188 H   0  0  0  0  0  0  0  0  0  0  0  0
   -3.8451   -1.3245    0.7702 C   0  0  0  0  0  0  0  0  0  0  0  0
   -4.4880   -0.6415    1.3305 H   0  0  0  0  0  0  0  0  0  0  0  0
   -4.1954   -1.3790   -0.2635 H   0  0  0  0  0  0  0  0  0  0  0  0
   -2.4101   -0.8340    0.8065 C   0  0  0  0  0  0  0  0  0  0  0  0
   -1.5357   -1.5690    1.2339 O   0  0  0  0  0  0  0  0  0  0  0  0
   -2.1139    0.4252    0.3183 N   0  0  0  0  0  0  0  0  0  0  0  0
   -2.9063    0.9523   -0.0368 H   0  0  0  0  0  0  0  0  0  0  0  0
   -0.8032    1.1187    0.3285 C   0  0  1  0  0  0  0  0  0  0  0  0
   -0.9357    2.0788   -0.1805 H   0  0  0  0  0  0  0  0  0  0  0  0
   -0.3703    1.4048    1.7827 C   0  0  0  0  0  0  0  0  0  0  0  0
   -0.3643    0.4797    2.3674 H   0  0  0  0  0  0  0  0  0  0  0  0
    0.6547    1.7922    1.7810 H   0  0  0  0  0  0  0  0  0  0  0  0
   -1.2768    2.4468    2.4534 C   0  0  0  0  0  0  0  0  0  0  0  0
   -1.2604    3.3762    1.8744 H   0  0  0  0  0  0  0  0  0  0  0  0
   -2.3076    2.0795    2.4771 H   0  0  0  0  0  0  0  0  0  0  0  0
   -0.8057    2.7258    3.8850 C   0  0  0  0  0  0  0  0  0  0  0  0
   -0.8055    1.7934    4.4586 H   0  0  0  0  0  0  0  0  0  0  0  0
    0.2191    3.1112    3.8672 H   0  0  0  0  0  0  0  0  0  0  0  0
   -1.7150    3.7425    4.5696 C   0  0  0  0  0  0  0  0  0  0  0  0
   -1.7026    4.6890    4.0178 H   0  0  0  0  0  0  0  0  0  0  0  0
   -2.7458    3.3715    4.5865 H   0  0  0  0  0  0  0  0  0  0  0  0
   -1.2355    3.9545    5.9385 N   0  0  0  0  0  0  0  0  0  0  0  0
   -1.8214    4.6235    6.4380 H   0  0  0  0  0  0  0  0  0  0  0  0
   -1.1742    3.0722    6.4468 H   0  0  0  0  0  0  0  0  0  0  0  0
    0.3591    0.4209   -0.4257 C   0  0  0  0  0  0  0  0  0  0  0  0
    1.3200    1.0968   -0.7714 O   0  0  0  0  0  0  0  0  0  0  0  0
    0.3046   -0.9035   -0.8167 N   0  0  0  0  0  0  0  0  0  0  0  0
   -0.3685   -1.4694   -0.2969 H   0  0  0  0  0  0  0  0  0  0  0  0
    1.4236   -1.5863   -1.4532 C   0  0  0  0  0  0  0  0  0  0  0  0
    2.2987   -1.5837   -0.7950 H   0  0  0  0  0  0  0  0  0  0  0  0
    1.1558   -2.6245   -1.6719 H   0  0  0  0  0  0  0  0  0  0  0  0
    1.6888   -1.0942   -2.3947 H   0  0  0  0  0  0  0  0  0  0  0  0
  1  2  1  0  0  0  0
  2  3  1  0  0  0  0
  2  4  1  0  0  0  0
  2  5  1  0  0  0  0
  5  6  2  0  0  0  0
  5  7  1  0  0  0  0
  7  8  1  0  0  0  0
  7  9  1  0  0  0  0
  9 10  1  0  0  0  0
  9 11  1  0  0  0  0
  9 26  1  0  0  0  0
 11 12  1  0  0  0  0
 11 13  1  0  0  0  0
 11 14  1  0  0  0  0
 14 15  1  0  0  0  0
 14 16  1  0  0  0  0
 14 17  1  0  0  0  0
 17 18  1  0  0  0  0
 17 19  1  0  0  0  0
 17 20  1  0  0  0  0
 20 21  1  0  0  0  0
 20 22  1  0  0  0  0
 20 23  1  0  0  0  0
 23 24  1  0  0  0  0
 23 25  1  0  0  0  0
 26 27  2  0  0  0  0
 26 28  1  0  0  0  0
 28 29  1  0  0  0  0
 28 30  1  0  0  0  0
 30 31  1  0  0  0  0
 30 32  1  0  0  0  0
 30 33  1  0  0  0  0
M  END
$$$$

  -OEChem-01062216083D

 33 32  0     1  0  0  0  0  0999 V2000
   -3.8731   -2.2904    1.2927 H   0  0  0  0  0  0  0  0  0  0  0  0
   -3.8196   -1.2958    0.8405 C   0  0  0  0  0  0  0  0  0  0  0  0
   -4.4129   -0.6046    1.4440 H   0  0  0  0  0  0  0  0  0  0  0  0
   -4.2400   -1.3440   -0.1669 H   0  0  0  0  0  0  0  0  0  0  0  0
   -2.3785   -0.8258    0.7796 C   0  0  0  0  0  0  0  0  0  0  0  0
   -1.4829   -1.5866    1.1033 O   0  0  0  0  0  0  0  0  0  0  0  0
   -2.0960    0.4372    0.2948 N   0  0  0  0  0  0  0  0  0  0  0  0
   -2.9040    0.9951    0.0346 H   0  0  0  0  0  0  0  0  0  0  0  0
   -0.7852    1.1298    0.3133 C   0  0  1  0  0  0  0  0  0  0  0  0
   -0.9113    2.0912   -0.1943 H   0  0  0  0  0  0  0  0  0  0  0  0
   -0.3687    1.4085    1.7749 C   0  0  0  0  0  0  0  0  0  0  0  0
   -0.3706    0.4789    2.3530 H   0  0  0  0  0  0  0  0  0  0  0  0
    0.6560    1.7959    1.7902 H   0  0  0  0  0  0  0  0  0  0  0  0
   -1.2814    2.4473    2.4414 C   0  0  0  0  0  0  0  0  0  0  0  0
   -1.2564    3.3805    1.8689 H   0  0  0  0  0  0  0  0  0  0  0  0
   -2.3134    2.0823    2.4525 H   0  0  0  0  0  0  0  0  0  0  0  0
   -0.8227    2.7155    3.8788 C   0  0  0  0  0  0  0  0  0  0  0  0
   -0.8305    1.7790    4.4458 H   0  0  0  0  0  0  0  0  0  0  0  0
    0.2034    3.0981    3.8736 H   0  0  0  0  0  0  0  0  0  0  0  0
   -1.7360    3.7286    4.5618 C   0  0  0  0  0  0  0  0  0  0  0  0
   -1.7153    4.6792    4.0172 H   0  0  0  0  0  0  0  0  0  0  0  0
   -2.7680    3.3607    4.5667 H   0  0  0  0  0  0  0  0  0  0  0  0
   -1.2668    3.9287    5.9357 N   0  0  0  0  0  0  0  0  0  0  0  0
   -1.8545    4.5953    6.4360 H   0  0  0  0  0  0  0  0  0  0  0  0
   -1.2094    3.0428    6.4380 H   0  0  0  0  0  0  0  0  0  0  0  0
    0.3755    0.4289   -0.4418 C   0  0  0  0  0  0  0  0  0  0  0  0
    1.4279    1.0352   -0.6010 O   0  0  0  0  0  0  0  0  0  0  0  0
    0.2007   -0.7771   -1.0943 N   0  0  0  0  0  0  0  0  0  0  0  0
   -0.5457   -1.3503   -0.7018 H   0  0  0  0  0  0  0  0  0  0  0  0
    1.2924   -1.4635   -1.7739 C   0  0  0  0  0  0  0  0  0  0  0  0
    2.0937   -1.7033   -1.0672 H   0  0  0  0  0  0  0  0  0  0  0  0
    0.9315   -2.3951   -2.2200 H   0  0  0  0  0  0  0  0  0  0  0  0
    1.7029   -0.8365   -2.5724 H   0  0  0  0  0  0  0  0  0  0  0  0
  1  2  1  0  0  0  0
  2  3  1  0  0  0  0
  2  4  1  0  0  0  0
  2  5  1  0  0  0  0
  5  6  2  0  0  0  0
  5  7  1  0  0  0  0
  7  8  1  0  0  0  0
  7  9  1  0  0  0  0
  9 10  1  0  0  0  0
  9 11  1  0  0  0  0
  9 26  1  0  0  0  0
 11 12  1  0  0  0  0
 11 13  1  0  0  0  0
 11 14  1  0  0  0  0
 14 15  1  0  0  0  0
 14 16  1  0  0  0  0
 14 17  1  0  0  0  0
 17 18  1  0  0  0  0
 17 19  1  0  0  0  0
 17 20  1  0  0  0  0
 20 21  1  0  0  0  0
 20 22  1  0  0  0  0
 20 23  1  0  0  0  0
 23 24  1  0  0  0  0
 23 25  1  0  0  0  0
 26 27  2  0  0  0  0
 26 28  1  0  0  0  0
 28 29  1  0  0  0  0
 28 30  1  0  0  0  0
 30 31  1  0  0  0  0
 30 32  1  0  0  0  0
 30 33  1  0  0  0  0
M  END
$$$$

  -OEChem-01062216083D

 33 32  0     1  0  0  0  0  0999 V2000
   -3.7924   -2.2970    1.3090 H   0  0  0  0  0  0  0  0  0  0  0  0
   -3.7612   -1.2956    0.8695 C   0  0  0  0  0  0  0  0  0  0  0  0
   -4.3331   -0.6163    1.5062 H   0  0  0  0  0  0  0  0  0  0  0  0
   -4.2217   -1.3313   -0.1208 H   0  0  0  0  0  0  0  0  0  0  0  0
   -2.3254   -0.8185    0.7582 C   0  0  0  0  0  0  0  0  0  0  0  0
   -1.4143   -1.5794    1.0311 O   0  0  0  0  0  0  0  0  0  0  0  0
   -2.0647    0.4522    0.2811 N   0  0  0  0  0  0  0  0  0  0  0  0
   -2.8827    1.0211    0.0842 H   0  0  0  0  0  0  0  0  0  0  0  0
   -0.7568    1.1490    0.3091 C   0  0  1  0  0  0  0  0  0  0  0  0
   -0.8777    2.1124   -0.1954 H   0  0  0  0  0  0  0  0  0  0  0  0
   -0.3526    1.4208    1.7771 C   0  0  0  0  0  0  0  0  0  0  0  0
   -0.3552    0.4876    2.3491 H   0  0  0  0  0  0  0  0  0  0  0  0
    0.6697    1.8132    1.8068 H   0  0  0  0  0  0  0  0  0  0  0  0
   -1.2757    2.4526    2.4414 C   0  0  0  0  0  0  0  0  0  0  0  0
   -1.2495    3.3888    1.8738 H   0  0  0  0  0  0  0  0  0  0  0  0
   -2.3060    2.0831    2.4416 H   0  0  0  0  0  0  0  0  0  0  0  0
   -0.8329    2.7167    3.8849 C   0  0  0  0  0  0  0  0  0  0  0  0
   -0.8410    1.7778    4.4481 H   0  0  0  0  0  0  0  0  0  0  0  0
    0.1910    3.1051    3.8920 H   0  0  0  0  0  0  0  0  0  0  0  0
   -1.7591    3.7228    4.5622 C   0  0  0  0  0  0  0  0  0  0  0  0
   -1.7393    4.6753    4.0210 H   0  0  0  0  0  0  0  0  0  0  0  0
   -2.7884    3.3474    4.5544 H   0  0  0  0  0  0  0  0  0  0  0  0
   -1.3082    3.9221    5.9425 N   0  0  0  0  0  0  0  0  0  0  0  0
   -1.9155    4.5717    6.4419 H   0  0  0  0  0  0  0  0  0  0  0  0
   -1.2373    3.0335    6.4384 H   0  0  0  0  0  0  0  0  0  0  0  0
    0.3911    0.4385   -0.4577 C   0  0  0  0  0  0  0  0  0  0  0  0
    1.5220    0.9087   -0.4285 O   0  0  0  0  0  0  0  0  0  0  0  0
    0.1232   -0.5805   -1.3535 N   0  0  0  0  0  0  0  0  0  0  0  0
   -0.7340   -1.0898   -1.1548 H   0  0  0  0  0  0  0  0  0  0  0  0
    1.1782   -1.2870   -2.0696 C   0  0  0  0  0  0  0  0  0  0  0  0
    1.8571   -1.7774   -1.3640 H   0  0  0  0  0  0  0  0  0  0  0  0
    0.7444   -2.0500   -2.7227 H   0  0  0  0  0  0  0  0  0  0  0  0
    1.7550   -0.5924   -2.6894 H   0  0  0  0  0  0  0  0  0  0  0  0
  1  2  1  0  0  0  0
  2  3  1  0  0  0  0
  2  4  1  0  0  0  0
  2  5  1  0  0  0  0
  5  6  2  0  0  0  0
  5  7  1  0  0  0  0
  7  8  1  0  0  0  0
  7  9  1  0  0  0  0
  9 10  1  0  0  0  0
  9 11  1  0  0  0  0
  9 26  1  0  0  0  0
 11 12  1  0  0  0  0
 11 13  1  0  0  0  0
 11 14  1  0  0  0  0
 14 15  1  0  0  0  0
 14 16  1  0  0  0  0
 14 17  1  0  0  0  0
 17 18  1  0  0  0  0
 17 19  1  0  0  0  0
 17 20  1  0  0  0  0
 20 21  1  0  0  0  0
 20 22  1  0  0  0  0
 20 23  1  0  0  0  0
 23 24  1  0  0  0  0
 23 25  1  0  0  0  0
 26 27  2  0  0  0  0
 26 28  1  0  0  0  0
 28 29  1  0  0  0  0
 28 30  1  0  0  0  0
 30 31  1  0  0  0  0
 30 32  1  0  0  0  0
 30 33  1  0  0  0  0
M  END
$$$$

  -OEChem-01062216083D

 33 32  0     1  0  0  0  0  0999 V2000
   -3.7092   -2.3292    1.2791 H   0  0  0  0  0  0  0  0  0  0  0  0
   -3.6957   -1.3226    0.8512 C   0  0  0  0  0  0  0  0  0  0  0  0
   -4.2770   -0.6600    1.4967 H   0  0  0  0  0  0  0  0  0  0  0  0
   -4.1575   -1.3549   -0.1385 H   0  0  0  0  0  0  0  0  0  0  0  0
   -2.2678   -0.8213    0.7433 C   0  0  0  0  0  0  0  0  0  0  0  0
   -1.3465   -1.5656    1.0261 O   0  0  0  0  0  0  0  0  0  0  0  0
   -2.0298    0.4589    0.2771 N   0  0  0  0  0  0  0  0  0  0  0  0
   -2.8563    1.0246    0.1076 H   0  0  0  0  0  0  0  0  0  0  0  0
   -0.7278    1.1644    0.3190 C   0  0  1  0  0  0  0  0  0  0  0  0
   -0.8475    2.1287   -0.1837 H   0  0  0  0  0  0  0  0  0  0  0  0
   -0.3342    1.4371    1.7905 C   0  0  0  0  0  0  0  0  0  0  0  0
   -0.3325    0.5032    2.3614 H   0  0  0  0  0  0  0  0  0  0  0  0
    0.6838    1.8392    1.8280 H   0  0  0  0  0  0  0  0  0  0  0  0
   -1.2695    2.4613    2.4491 C   0  0  0  0  0  0  0  0  0  0  0  0
   -1.2465    3.3982    1.8825 H   0  0  0  0  0  0  0  0  0  0  0  0
   -2.2968    2.0839    2.4416 H   0  0  0  0  0  0  0  0  0  0  0  0
   -0.8384    2.7277    3.8957 C   0  0  0  0  0  0  0  0  0  0  0  0
   -0.8429    1.7882    4.4581 H   0  0  0  0  0  0  0  0  0  0  0  0
    0.1825    3.1242    3.9097 H   0  0  0  0  0  0  0  0  0  0  0  0
   -1.7768    3.7259    4.5675 C   0  0  0  0  0  0  0  0  0  0  0  0
   -1.7613    4.6788    4.0270 H   0  0  0  0  0  0  0  0  0  0  0  0
   -2.8030    3.3423    4.5532 H   0  0  0  0  0  0  0  0  0  0  0  0
   -1.3363    3.9273    5.9508 N   0  0  0  0  0  0  0  0  0  0  0  0
   -1.9532    4.5695    6.4480 H   0  0  0  0  0  0  0  0  0  0  0  0
   -1.2584    3.0385    6.4455 H   0  0  0  0  0  0  0  0  0  0  0  0
    0.4060    0.4445   -0.4601 C   0  0  0  0  0  0  0  0  0  0  0  0
    1.5827    0.7075   -0.2436 O   0  0  0  0  0  0  0  0  0  0  0  0
    0.0971   -0.3297   -1.5642 N   0  0  0  0  0  0  0  0  0  0  0  0
   -0.8627   -0.6567   -1.6054 H   0  0  0  0  0  0  0  0  0  0  0  0
    1.1076   -1.0623   -2.3174 C   0  0  0  0  0  0  0  0  0  0  0  0
    1.6164   -1.7853   -1.6709 H   0  0  0  0  0  0  0  0  0  0  0  0
    0.6423   -1.6038   -3.1463 H   0  0  0  0  0  0  0  0  0  0  0  0
    1.8523   -0.3746   -2.7317 H   0  0  0  0  0  0  0  0  0  0  0  0
  1  2  1  0  0  0  0
  2  3  1  0  0  0  0
  2  4  1  0  0  0  0
  2  5  1  0  0  0  0
  5  6  2  0  0  0  0
  5  7  1  0  0  0  0
  7  8  1  0  0  0  0
  7  9  1  0  0  0  0
  9 10  1  0  0  0  0
  9 11  1  0  0  0  0
  9 26  1  0  0  0  0
 11 12  1  0  0  0  0
 11 13  1  0  0  0  0
 11 14  1  0  0  0  0
 14 15  1  0  0  0  0
 14 16  1  0  0  0  0
 14 17  1  0  0  0  0
 17 18  1  0  0  0  0
 17 19  1  0  0  0  0
 17 20  1  0  0  0  0
 20 21  1  0  0  0  0
 20 22  1  0  0  0  0
 20 23  1  0  0  0  0
 23 24  1  0  0  0  0
 23 25  1  0  0  0  0
 26 27  2  0  0  0  0
 26 28  1  0  0  0  0
 28 29  1  0  0  0  0
 28 30  1  0  0  0  0
 30 31  1  0  0  0  0
 30 32  1  0  0  0  0
 30 33  1  0  0  0  0
M  END
$$$$

  -OEChem-01062216083D

 33 32  0     1  0  0  0  0  0999 V2000
   -3.6755   -2.3534    1.2468 H   0  0  0  0  0  0  0  0  0  0  0  0
   -3.6627   -1.3490    0.8134 C   0  0  0  0  0  0  0  0  0  0  0  0
   -4.2695   -0.6898    1.4386 H   0  0  0  0  0  0  0  0  0  0  0  0
   -4.0961   -1.3921   -0.1887 H   0  0  0  0  0  0  0  0  0  0  0  0
   -2.2389   -0.8304    0.7405 C   0  0  0  0  0  0  0  0  0  0  0  0
   -1.3179   -1.5618    1.0548 O   0  0  0  0  0  0  0  0  0  0  0  0
   -2.0089    0.4533    0.2792 N   0  0  0  0  0  0  0  0  0  0  0  0
   -2.8389    1.0114    0.1034 H   0  0  0  0  0  0  0  0  0  0  0  0
   -0.7124    1.1651    0.3320 C   0  0  1  0  0  0  0  0  0  0  0  0
   -0.8304    2.1284   -0.1726 H   0  0  0  0  0  0  0  0  0  0  0  0
   -0.3260    1.4457    1.8035 C   0  0  0  0  0  0  0  0  0  0  0  0
   -0.3205    0.5135    2.3775 H   0  0  0  0  0  0  0  0  0  0  0  0
    0.6897    1.8541    1.8407 H   0  0  0  0  0  0  0  0  0  0  0  0
   -1.2678    2.4673    2.4558 C   0  0  0  0  0  0  0  0  0  0  0  0
   -1.2490    3.4025    1.8865 H   0  0  0  0  0  0  0  0  0  0  0  0
   -2.2930    2.0839    2.4475 H   0  0  0  0  0  0  0  0  0  0  0  0
   -0.8393    2.7381    3.9021 C   0  0  0  0  0  0  0  0  0  0  0  0
   -0.8415    1.7992    4.4656 H   0  0  0  0  0  0  0  0  0  0  0  0
    0.1803    3.1374    3.9163 H   0  0  0  0  0  0  0  0  0  0  0  0
   -1.7809    3.7339    4.5725 C   0  0  0  0  0  0  0  0  0  0  0  0
   -1.7666    4.6864    4.0309 H   0  0  0  0  0  0  0  0  0  0  0  0
   -2.8062    3.3482    4.5576 H   0  0  0  0  0  0  0  0  0  0  0  0
   -1.3409    3.9381    5.9556 N   0  0  0  0  0  0  0  0  0  0  0  0
   -1.9596    4.5787    6.4524 H   0  0  0  0  0  0  0  0  0  0  0  0
   -1.2593    3.0502    6.4514 H   0  0  0  0  0  0  0  0  0  0  0  0
    0.4137    0.4353   -0.4484 C   0  0  0  0  0  0  0  0  0  0  0  0
    1.5821    0.4766   -0.0826 O   0  0  0  0  0  0  0  0  0  0  0  0
    0.1379   -0.0671   -1.7078 N   0  0  0  0  0  0  0  0  0  0  0  0
   -0.8442   -0.1961   -1.9267 H   0  0  0  0  0  0  0  0  0  0  0  0
    1.1286   -0.7782   -2.5066 C   0  0  0  0  0  0  0  0  0  0  0  0
    1.4785   -1.6699   -1.9759 H   0  0  0  0  0  0  0  0  0  0  0  0
    0.6927   -1.0899   -3.4605 H   0  0  0  0  0  0  0  0  0  0  0  0
    1.9886   -0.1329   -2.7156 H   0  0  0  0  0  0  0  0  0  0  0  0
  1  2  1  0  0  0  0
  2  3  1  0  0  0  0
  2  4  1  0  0  0  0
  2  5  1  0  0  0  0
  5  6  2  0  0  0  0
  5  7  1  0  0  0  0
  7  8  1  0  0  0  0
  7  9  1  0  0  0  0
  9 10  1  0  0  0  0
  9 11  1  0  0  0  0
  9 26  1  0  0  0  0
 11 12  1  0  0  0  0
 11 13  1  0  0  0  0
 11 14  1  0  0  0  0
 14 15  1  0  0  0  0
 14 16  1  0  0  0  0
 14 17  1  0  0  0  0
 17 18  1  0  0  0  0
 17 19  1  0  0  0  0
 17 20  1  0  0  0  0
 20 21  1  0  0  0  0
 20 22  1  0  0  0  0
 20 23  1  0  0  0  0
 23 24  1  0  0  0  0
 23 25  1  0  0  0  0
 26 27  2  0  0  0  0
 26 28  1  0  0  0  0
 28 29  1  0  0  0  0
 28 30  1  0  0  0  0
 30 31  1  0  0  0  0
 30 32  1  0  0  0  0
 30 33  1  0  0  0  0
M  END
$$$$

  -OEChem-01062216083D

 33 32  0     1  0  0  0  0  0999 V2000
   -3.6734   -2.3663    1.2287 H   0  0  0  0  0  0  0  0  0  0  0  0
   -3.6590   -1.3567    0.8075 C   0  0  0  0  0  0  0  0  0  0  0  0
   -4.2654   -0.7044    1.4402 H   0  0  0  0  0  0  0  0  0  0  0  0
   -4.0918   -1.3881   -0.1951 H   0  0  0  0  0  0  0  0  0  0  0  0
   -2.2342   -0.8392    0.7433 C   0  0  0  0  0  0  0  0  0  0  0  0
   -1.3188   -1.5680    1.0781 O   0  0  0  0  0  0  0  0  0  0  0  0
   -2.0011    0.4442    0.2825 N   0  0  0  0  0  0  0  0  0  0  0  0
   -2.8307    0.9997    0.0977 H   0  0  0  0  0  0  0  0  0  0  0  0
   -0.7053    1.1558    0.3369 C   0  0  1  0  0  0  0  0  0  0  0  0
   -0.8208    2.1202   -0.1661 H   0  0  0  0  0  0  0  0  0  0  0  0
   -0.3190    1.4391    1.8080 C   0  0  0  0  0  0  0  0  0  0  0  0
   -0.3139    0.5084    2.3847 H   0  0  0  0  0  0  0  0  0  0  0  0
    0.6977    1.8454    1.8424 H   0  0  0  0  0  0  0  0  0  0  0  0
   -1.2619    2.4623    2.4567 C   0  0  0  0  0  0  0  0  0  0  0  0
   -1.2420    3.3957    1.8846 H   0  0  0  0  0  0  0  0  0  0  0  0
   -2.2870    2.0787    2.4477 H   0  0  0  0  0  0  0  0  0  0  0  0
   -0.8374    2.7389    3.9029 C   0  0  0  0  0  0  0  0  0  0  0  0
   -0.8395    1.8025    4.4704 H   0  0  0  0  0  0  0  0  0  0  0  0
    0.1816    3.1397    3.9185 H   0  0  0  0  0  0  0  0  0  0  0  0
   -1.7826    3.7364    4.5660 C   0  0  0  0  0  0  0  0  0  0  0  0
   -1.7696    4.6867    4.0208 H   0  0  0  0  0  0  0  0  0  0  0  0
   -2.8068    3.3477    4.5508 H   0  0  0  0  0  0  0  0  0  0  0  0
   -1.3468    3.9467    5.9494 N   0  0  0  0  0  0  0  0  0  0  0  0
   -1.9669    4.5899    6.4413 H   0  0  0  0  0  0  0  0  0  0  0  0
   -1.2690    3.0604    6.4486 H   0  0  0  0  0  0  0  0  0  0  0  0
    0.4166    0.4202   -0.4432 C   0  0  0  0  0  0  0  0  0  0  0  0
    1.5295    0.2367    0.0344 O   0  0  0  0  0  0  0  0  0  0  0  0
    0.2431    0.1990   -1.7983 N   0  0  0  0  0  0  0  0  0  0  0  0
   -0.7050    0.2758   -2.1506 H   0  0  0  0  0  0  0  0  0  0  0  0
    1.2461   -0.4581   -2.6278 C   0  0  0  0  0  0  0  0  0  0  0  0
    1.4440   -1.4701   -2.2589 H   0  0  0  0  0  0  0  0  0  0  0  0
    0.8956   -0.5274   -3.6619 H   0  0  0  0  0  0  0  0  0  0  0  0
    2.1826    0.1097   -2.6199 H   0  0  0  0  0  0  0  0  0  0  0  0
  1  2  1  0  0  0  0
  2  3  1  0  0  0  0
  2  4  1  0  0  0  0
  2  5  1  0  0  0  0
  5  6  2  0  0  0  0
  5  7  1  0  0  0  0
  7  8  1  0  0  0  0
  7  9  1  0  0  0  0
  9 10  1  0  0  0  0
  9 11  1  0  0  0  0
  9 26  1  0  0  0  0
 11 12  1  0  0  0  0
 11 13  1  0  0  0  0
 11 14  1  0  0  0  0
 14 15  1  0  0  0  0
 14 16  1  0  0  0  0
 14 17  1  0  0  0  0
 17 18  1  0  0  0  0
 17 19  1  0  0  0  0
 17 20  1  0  0  0  0
 20 21  1  0  0  0  0
 20 22  1  0  0  0  0
 20 23  1  0  0  0  0
 23 24  1  0  0  0  0
 23 25  1  0  0  0  0
 26 27  2  0  0  0  0
 26 28  1  0  0  0  0
 28 29  1  0  0  0  0
 28 30  1  0  0  0  0
 30 31  1  0  0  0  0
 30 32  1  0  0  0  0
 30 33  1  0  0  0  0
M  END
$$$$

  -OEChem-01062216083D

 33 32  0     1  0  0  0  0  0999 V2000
   -3.6980   -2.3968    1.1871 H   0  0  0  0  0  0  0  0  0  0  0  0
   -3.6728   -1.3966    0.7448 C   0  0  0  0  0  0  0  0  0  0  0  0
   -4.3304   -0.7417    1.3210 H   0  0  0  0  0  0  0  0  0  0  0  0
   -4.0369   -1.4584   -0.2834 H   0  0  0  0  0  0  0  0  0  0  0  0
   -2.2555   -0.8550    0.7614 C   0  0  0  0  0  0  0  0  0  0  0  0
   -1.3537   -1.5638    1.1663 O   0  0  0  0  0  0  0  0  0  0  0  0
   -2.0185    0.4260    0.2954 N   0  0  0  0  0  0  0  0  0  0  0  0
   -2.8425    0.9553    0.0291 H   0  0  0  0  0  0  0  0  0  0  0  0
   -0.7279    1.1465    0.3438 C   0  0  1  0  0  0  0  0  0  0  0  0
   -0.8542    2.1084   -0.1613 H   0  0  0  0  0  0  0  0  0  0  0  0
   -0.3289    1.4449    1.8072 C   0  0  0  0  0  0  0  0  0  0  0  0
   -0.3139    0.5188    2.3909 H   0  0  0  0  0  0  0  0  0  0  0  0
    0.6876    1.8535    1.8244 H   0  0  0  0  0  0  0  0  0  0  0  0
   -1.2690    2.4675    2.4609 C   0  0  0  0  0  0  0  0  0  0  0  0
   -1.2638    3.3974    1.8829 H   0  0  0  0  0  0  0  0  0  0  0  0
   -2.2916    2.0769    2.4690 H   0  0  0  0  0  0  0  0  0  0  0  0
   -0.8237    2.7533    3.8990 C   0  0  0  0  0  0  0  0  0  0  0  0
   -0.8125    1.8192    4.4702 H   0  0  0  0  0  0  0  0  0  0  0  0
    0.1937    3.1584    3.8955 H   0  0  0  0  0  0  0  0  0  0  0  0
   -1.7600    3.7494    4.5757 C   0  0  0  0  0  0  0  0  0  0  0  0
   -1.7618    4.6983    4.0281 H   0  0  0  0  0  0  0  0  0  0  0  0
   -2.7826    3.3563    4.5808 H   0  0  0  0  0  0  0  0  0  0  0  0
   -1.2982    3.9640    5.9501 N   0  0  0  0  0  0  0  0  0  0  0  0
   -1.9185    4.5953    6.4569 H   0  0  0  0  0  0  0  0  0  0  0  0
   -1.1955    3.0776    6.4450 H   0  0  0  0  0  0  0  0  0  0  0  0
    0.4000    0.4150   -0.4318 C   0  0  0  0  0  0  0  0  0  0  0  0
    1.4167    0.0096    0.1173 O   0  0  0  0  0  0  0  0  0  0  0  0
    0.3848    0.4583   -1.8153 N   0  0  0  0  0  0  0  0  0  0  0  0
   -0.4792    0.7527   -2.2575 H   0  0  0  0  0  0  0  0  0  0  0  0
    1.4278   -0.1400   -2.6405 C   0  0  0  0  0  0  0  0  0  0  0  0
    1.4966   -1.2159   -2.4486 H   0  0  0  0  0  0  0  0  0  0  0  0
    1.2049    0.0105   -3.7009 H   0  0  0  0  0  0  0  0  0  0  0  0
    2.3986    0.3187   -2.4244 H   0  0  0  0  0  0  0  0  0  0  0  0
  1  2  1  0  0  0  0
  2  3  1  0  0  0  0
  2  4  1  0  0  0  0
  2  5  1  0  0  0  0
  5  6  2  0  0  0  0
  5  7  1  0  0  0  0
  7  8  1  0  0  0  0
  7  9  1  0  0  0  0
  9 10  1  0  0  0  0
  9 11  1  0  0  0  0
  9 26  1  0  0  0  0
 11 12  1  0  0  0  0
 11 13  1  0  0  0  0
 11 14  1  0  0  0  0
 14 15  1  0  0  0  0
 14 16  1  0  0  0  0
 14 17  1  0  0  0  0
 17 18  1  0  0  0  0
 17 19  1  0  0  0  0
 17 20  1  0  0  0  0
 20 21  1  0  0  0  0
 20 22  1  0  0  0  0
 20 23  1  0  0  0  0
 23 24  1  0  0  0  0
 23 25  1  0  0  0  0
 26 27  2  0  0  0  0
 26 28  1  0  0  0  0
 28 29  1  0  0  0  0
 28 30  1  0  0  0  0
 30 31  1  0  0  0  0
 30 32  1  0  0  0  0
 30 33  1  0  0  0  0
M  END
$$$$

  -OEChem-01062216083D

 33 32  0     1  0  0  0  0  0999 V2000
   -3.7215   -2.4314    1.1326 H   0  0  0  0  0  0  0  0  0  0  0  0
   -3.6879   -1.4285    0.6971 C   0  0  0  0  0  0  0  0  0  0  0  0
   -4.3832   -0.7861    1.2423 H   0  0  0  0  0  0  0  0  0  0  0  0
   -3.9989   -1.4896   -0.3485 H   0  0  0  0  0  0  0  0  0  0  0  0
   -2.2809   -0.8671    0.7880 C   0  0  0  0  0  0  0  0  0  0  0  0
   -1.4027   -1.5530    1.2747 O   0  0  0  0  0  0  0  0  0  0  0  0
   -2.0381    0.4104    0.3143 N   0  0  0  0  0  0  0  0  0  0  0  0
   -2.8497    0.9092   -0.0356 H   0  0  0  0  0  0  0  0  0  0  0  0
   -0.7494    1.1351    0.3470 C   0  0  1  0  0  0  0  0  0  0  0  0
   -0.8888    2.0959   -0.1564 H   0  0  0  0  0  0  0  0  0  0  0  0
   -0.3313    1.4412    1.8027 C   0  0  0  0  0  0  0  0  0  0  0  0
   -0.3065    0.5191    2.3924 H   0  0  0  0  0  0  0  0  0  0  0  0
    0.6850    1.8497    1.8015 H   0  0  0  0  0  0  0  0  0  0  0  0
   -1.2655    2.4638    2.4638 C   0  0  0  0  0  0  0  0  0  0  0  0
   -1.2692    3.3909    1.8813 H   0  0  0  0  0  0  0  0  0  0  0  0
   -2.2868    2.0702    2.4860 H   0  0  0  0  0  0  0  0  0  0  0  0
   -0.8049    2.7600    3.8949 C   0  0  0  0  0  0  0  0  0  0  0  0
   -0.7857    1.8295    4.4718 H   0  0  0  0  0  0  0  0  0  0  0  0
    0.2109    3.1685    3.8786 H   0  0  0  0  0  0  0  0  0  0  0  0
   -1.7388    3.7569    4.5739 C   0  0  0  0  0  0  0  0  0  0  0  0
   -1.7495    4.7023    4.0202 H   0  0  0  0  0  0  0  0  0  0  0  0
   -2.7598    3.3600    4.5919 H   0  0  0  0  0  0  0  0  0  0  0  0
   -1.2635    3.9824    5.9417 N   0  0  0  0  0  0  0  0  0  0  0  0
   -1.8864    4.6069    6.4536 H   0  0  0  0  0  0  0  0  0  0  0  0
   -1.1437    3.0989    6.4380 H   0  0  0  0  0  0  0  0  0  0  0  0
    0.3833    0.4123   -0.4296 C   0  0  0  0  0  0  0  0  0  0  0  0
    1.2723   -0.2115    0.1346 O   0  0  0  0  0  0  0  0  0  0  0  0
    0.5537    0.6997   -1.7734 N   0  0  0  0  0  0  0  0  0  0  0  0
   -0.1821    1.2202   -2.2382 H   0  0  0  0  0  0  0  0  0  0  0  0
    1.6463    0.1583   -2.5735 C   0  0  0  0  0  0  0  0  0  0  0  0
    1.6006   -0.9358   -2.5934 H   0  0  0  0  0  0  0  0  0  0  0  0
    1.5817    0.5270   -3.6016 H   0  0  0  0  0  0  0  0  0  0  0  0
    2.6129    0.4629   -2.1580 H   0  0  0  0  0  0  0  0  0  0  0  0
  1  2  1  0  0  0  0
  2  3  1  0  0  0  0
  2  4  1  0  0  0  0
  2  5  1  0  0  0  0
  5  6  2  0  0  0  0
  5  7  1  0  0  0  0
  7  8  1  0  0  0  0
  7  9  1  0  0  0  0
  9 10  1  0  0  0  0
  9 11  1  0  0  0  0
  9 26  1  0  0  0  0
 11 12  1  0  0  0  0
 11 13  1  0  0  0  0
 11 14  1  0  0  0  0
 14 15  1  0  0  0  0
 14 16  1  0  0  0  0
 14 17  1  0  0  0  0
 17 18  1  0  0  0  0
 17 19  1  0  0  0  0
 17 20  1  0  0  0  0
 20 21  1  0  0  0  0
 20 22  1  0  0  0  0
 20 23  1  0  0  0  0
 23 24  1  0  0  0  0
 23 25  1  0  0  0  0
 26 27  2  0  0  0  0
 26 28  1  0  0  0  0
 28 29  1  0  0  0  0
 28 30  1  0  0  0  0
 30 31  1  0  0  0  0
 30 32  1  0  0  0  0
 30 33  1  0  0  0  0
M  END
$$$$

  -OEChem-01062216083D

 33 32  0     1  0  0  0  0  0999 V2000
   -3.7281   -2.4841    1.0386 H   0  0  0  0  0  0  0  0  0  0  0  0
   -3.6887   -1.4758    0.6162 C   0  0  0  0  0  0  0  0  0  0  0  0
   -4.4427   -0.8584    1.1103 H   0  0  0  0  0  0  0  0  0  0  0  0
   -3.9138   -1.5342   -0.4513 H   0  0  0  0  0  0  0  0  0  0  0  0
   -2.3108   -0.8758    0.8253 C   0  0  0  0  0  0  0  0  0  0  0  0
   -1.4853   -1.5116    1.4519 O   0  0  0  0  0  0  0  0  0  0  0  0
   -2.0635    0.3988    0.3441 N   0  0  0  0  0  0  0  0  0  0  0  0
   -2.8364    0.8286   -0.1532 H   0  0  0  0  0  0  0  0  0  0  0  0
   -0.7761    1.1279    0.3573 C   0  0  1  0  0  0  0  0  0  0  0  0
   -0.9347    2.0875   -0.1424 H   0  0  0  0  0  0  0  0  0  0  0  0
   -0.3299    1.4397    1.8024 C   0  0  0  0  0  0  0  0  0  0  0  0
   -0.2898    0.5224    2.3975 H   0  0  0  0  0  0  0  0  0  0  0  0
    0.6855    1.8498    1.7796 H   0  0  0  0  0  0  0  0  0  0  0  0
   -1.2571    2.4619    2.4736 C   0  0  0  0  0  0  0  0  0  0  0  0
   -1.2765    3.3854    1.8857 H   0  0  0  0  0  0  0  0  0  0  0  0
   -2.2756    2.0621    2.5149 H   0  0  0  0  0  0  0  0  0  0  0  0
   -0.7763    2.7702    3.8952 C   0  0  0  0  0  0  0  0  0  0  0  0
   -0.7442    1.8444    4.4789 H   0  0  0  0  0  0  0  0  0  0  0  0
    0.2372    3.1839    3.8621 H   0  0  0  0  0  0  0  0  0  0  0  0
   -1.7082    3.7672    4.5768 C   0  0  0  0  0  0  0  0  0  0  0  0
   -1.7317    4.7068    4.0137 H   0  0  0  0  0  0  0  0  0  0  0  0
   -2.7264    3.3640    4.6097 H   0  0  0  0  0  0  0  0  0  0  0  0
   -1.2201    4.0101    5.9370 N   0  0  0  0  0  0  0  0  0  0  0  0
   -1.8356    4.6454    6.4445 H   0  0  0  0  0  0  0  0  0  0  0  0
   -1.1024    3.1331    6.4452 H   0  0  0  0  0  0  0  0  0  0  0  0
    0.3633    0.4210   -0.4237 C   0  0  0  0  0  0  0  0  0  0  0  0
    1.0702   -0.4435    0.0734 O   0  0  0  0  0  0  0  0  0  0  0  0
    0.7343    0.9211   -1.6611 N   0  0  0  0  0  0  0  0  0  0  0  0
    0.1765    1.6712   -2.0551 H   0  0  0  0  0  0  0  0  0  0  0  0
    1.8644    0.4070   -2.4269 C   0  0  0  0  0  0  0  0  0  0  0  0
    1.7141   -0.6508   -2.6667 H   0  0  0  0  0  0  0  0  0  0  0  0
    1.9719    0.9623   -3.3633 H   0  0  0  0  0  0  0  0  0  0  0  0
    2.7932    0.5102   -1.8559 H   0  0  0  0  0  0  0  0  0  0  0  0
  1  2  1  0  0  0  0
  2  3  1  0  0  0  0
  2  4  1  0  0  0  0
  2  5  1  0  0  0  0
  5  6  2  0  0  0  0
  5  7  1  0  0  0  0
  7  8  1  0  0  0  0
  7  9  1  0  0  0  0
  9 10  1  0  0  0  0
  9 11  1  0  0  0  0
  9 26  1  0  0  0  0
 11 12  1  0  0  0  0
 11 13  1  0  0  0  0
 11 14  1  0  0  0  0
 14 15  1  0  0  0  0
 14 16  1  0  0  0  0
 14 17  1  0  0  0  0
 17 18  1  0  0  0  0
 17 19  1  0  0  0  0
 17 20  1  0  0  0  0
 20 21  1  0  0  0  0
 20 22  1  0  0  0  0
 20 23  1  0  0  0  0
 23 24  1  0  0  0  0
 23 25  1  0  0  0  0
 26 27  2  0  0  0  0
 26 28  1  0  0  0  0
 28 29  1  0  0  0  0
 28 30  1  0  0  0  0
 30 31  1  0  0  0  0
 30 32  1  0  0  0  0
 30 33  1  0  0  0  0
M  END
$$$$

  -OEChem-01062216083D

 33 32  0     1  0  0  0  0  0999 V2000
   -3.6068   -2.6069    0.8306 H   0  0  0  0  0  0  0  0  0  0  0  0
   -3.5754   -1.6081    0.3856 C   0  0  0  0  0  0  0  0  0  0  0  0
   -4.4790   -1.0656    0.6731 H   0  0  0  0  0  0  0  0  0  0  0  0
   -3.5475   -1.7117   -0.7016 H   0  0  0  0  0  0  0  0  0  0  0  0
   -2.3457   -0.8605    0.8674 C   0  0  0  0  0  0  0  0  0  0  0  0
   -1.6579   -1.3673    1.7351 O   0  0  0  0  0  0  0  0  0  0  0  0
   -2.1178    0.4188    0.3852 N   0  0  0  0  0  0  0  0  0  0  0  0
   -2.7845    0.7126   -0.3210 H   0  0  0  0  0  0  0  0  0  0  0  0
   -0.8280    1.1461    0.4052 C   0  0  1  0  0  0  0  0  0  0  0  0
   -0.9970    2.1021   -0.0977 H   0  0  0  0  0  0  0  0  0  0  0  0
   -0.3485    1.4697    1.8362 C   0  0  0  0  0  0  0  0  0  0  0  0
   -0.2885    0.5614    2.4421 H   0  0  0  0  0  0  0  0  0  0  0  0
    0.6647    1.8821    1.7845 H   0  0  0  0  0  0  0  0  0  0  0  0
   -1.2587    2.5002    2.5172 C   0  0  0  0  0  0  0  0  0  0  0  0
   -1.2911    3.4178    1.9210 H   0  0  0  0  0  0  0  0  0  0  0  0
   -2.2765    2.1017    2.5837 H   0  0  0  0  0  0  0  0  0  0  0  0
   -0.7440    2.8198    3.9246 C   0  0  0  0  0  0  0  0  0  0  0  0
   -0.7003    1.8986    4.5148 H   0  0  0  0  0  0  0  0  0  0  0  0
    0.2694    3.2299    3.8637 H   0  0  0  0  0  0  0  0  0  0  0  0
   -1.6545    3.8252    4.6222 C   0  0  0  0  0  0  0  0  0  0  0  0
   -1.6893    4.7609    4.0534 H   0  0  0  0  0  0  0  0  0  0  0  0
   -2.6729    3.4262    4.6848 H   0  0  0  0  0  0  0  0  0  0  0  0
   -1.1291    4.0747    5.9674 N   0  0  0  0  0  0  0  0  0  0  0  0
   -1.7284    4.7159    6.4867 H   0  0  0  0  0  0  0  0  0  0  0  0
   -1.0025    3.2003    6.4780 H   0  0  0  0  0  0  0  0  0  0  0  0
    0.3115    0.4420   -0.3774 C   0  0  0  0  0  0  0  0  0  0  0  0
    0.6760   -0.6990   -0.1379 O   0  0  0  0  0  0  0  0  0  0  0  0
    0.9081    1.1026   -1.4390 N   0  0  0  0  0  0  0  0  0  0  0  0
    0.6373    2.0658   -1.6090 H   0  0  0  0  0  0  0  0  0  0  0  0
    1.9959    0.5306   -2.2253 C   0  0  0  0  0  0  0  0  0  0  0  0
    1.6814   -0.4117   -2.6863 H   0  0  0  0  0  0  0  0  0  0  0  0
    2.2933    1.2205   -3.0208 H   0  0  0  0  0  0  0  0  0  0  0  0
    2.8666    0.3379   -1.5896 H   0  0  0  0  0  0  0  0  0  0  0  0
  1  2  1  0  0  0  0
  2  3  1  0  0  0  0
  2  4  1  0  0  0  0
  2  5  1  0  0  0  0
  5  6  2  0  0  0  0
  5  7  1  0  0  0  0
  7  8  1  0  0  0  0
  7  9  1  0  0  0  0
  9 10  1  0  0  0  0
  9 11  1  0  0  0  0
  9 26  1  0  0  0  0
 11 12  1  0  0  0  0
 11 13  1  0  0  0  0
 11 14  1  0  0  0  0
 14 15  1  0  0  0  0
 14 16  1  0  0  0  0
 14 17  1  0  0  0  0
 17 18  1  0  0  0  0
 17 19  1  0  0  0  0
 17 20  1  0  0  0  0
 20 21  1  0  0  0  0
 20 22  1  0  0  0  0
 20 23  1  0  0  0  0
 23 24  1  0  0  0  0
 23 25  1  0  0  0  0
 26 27  2  0  0  0  0
 26 28  1  0  0  0  0
 28 29  1  0  0  0  0
 28 30  1  0  0  0  0
 30 31  1  0  0  0  0
 30 32  1  0  0  0  0
 30 33  1  0  0  0  0
M  END
$$$$

  -OEChem-01062216083D

 33 32  0     1  0  0  0  0  0999 V2000
   -3.5336   -2.6537    0.7541 H   0  0  0  0  0  0  0  0  0  0  0  0
   -3.5302   -1.6433    0.3350 C   0  0  0  0  0  0  0  0  0  0  0  0
   -4.4655   -1.1465    0.6029 H   0  0  0  0  0  0  0  0  0  0  0  0
   -3.4596   -1.7169   -0.7529 H   0  0  0  0  0  0  0  0  0  0  0  0
   -2.3498   -0.8584    0.8765 C   0  0  0  0  0  0  0  0  0  0  0  0
   -1.6923   -1.3381    1.7841 O   0  0  0  0  0  0  0  0  0  0  0  0
   -2.1277    0.4236    0.3985 N   0  0  0  0  0  0  0  0  0  0  0  0
   -2.7530    0.6822   -0.3576 H   0  0  0  0  0  0  0  0  0  0  0  0
   -0.8302    1.1368    0.4302 C   0  0  1  0  0  0  0  0  0  0  0  0
   -0.9927    2.0913   -0.0781 H   0  0  0  0  0  0  0  0  0  0  0  0
   -0.3506    1.4639    1.8602 C   0  0  0  0  0  0  0  0  0  0  0  0
   -0.3010    0.5606    2.4736 H   0  0  0  0  0  0  0  0  0  0  0  0
    0.6663    1.8674    1.8098 H   0  0  0  0  0  0  0  0  0  0  0  0
   -1.2521    2.5084    2.5301 C   0  0  0  0  0  0  0  0  0  0  0  0
   -1.2739    3.4219    1.9272 H   0  0  0  0  0  0  0  0  0  0  0  0
   -2.2740    2.1200    2.5960 H   0  0  0  0  0  0  0  0  0  0  0  0
   -0.7393    2.8330    3.9372 C   0  0  0  0  0  0  0  0  0  0  0  0
   -0.7063    1.9159    4.5345 H   0  0  0  0  0  0  0  0  0  0  0  0
    0.2783    3.2330    3.8770 H   0  0  0  0  0  0  0  0  0  0  0  0
   -1.6419    3.8528    4.6242 C   0  0  0  0  0  0  0  0  0  0  0  0
   -1.6644    4.7848    4.0487 H   0  0  0  0  0  0  0  0  0  0  0  0
   -2.6648    3.4648    4.6855 H   0  0  0  0  0  0  0  0  0  0  0  0
   -1.1188    4.1067    5.9696 N   0  0  0  0  0  0  0  0  0  0  0  0
   -1.7104    4.7628    6.4793 H   0  0  0  0  0  0  0  0  0  0  0  0
   -1.0105    3.2353    6.4893 H   0  0  0  0  0  0  0  0  0  0  0  0
    0.3111    0.4324   -0.3506 C   0  0  0  0  0  0  0  0  0  0  0  0
    0.3971   -0.7840   -0.4420 O   0  0  0  0  0  0  0  0  0  0  0  0
    1.1228    1.1942   -1.1747 N   0  0  0  0  0  0  0  0  0  0  0  0
    1.0581    2.2040   -1.0944 H   0  0  0  0  0  0  0  0  0  0  0  0
    2.1808    0.6252   -2.0023 C   0  0  0  0  0  0  0  0  0  0  0  0
    1.7624   -0.0787   -2.7295 H   0  0  0  0  0  0  0  0  0  0  0  0
    2.7011    1.4172   -2.5492 H   0  0  0  0  0  0  0  0  0  0  0  0
    2.9107    0.0967   -1.3800 H   0  0  0  0  0  0  0  0  0  0  0  0
  1  2  1  0  0  0  0
  2  3  1  0  0  0  0
  2  4  1  0  0  0  0
  2  5  1  0  0  0  0
  5  6  2  0  0  0  0
  5  7  1  0  0  0  0
  7  8  1  0  0  0  0
  7  9  1  0  0  0  0
  9 10  1  0  0  0  0
  9 11  1  0  0  0  0
  9 26  1  0  0  0  0
 11 12  1  0  0  0  0
 11 13  1  0  0  0  0
 11 14  1  0  0  0  0
 14 15  1  0  0  0  0
 14 16  1  0  0  0  0
 14 17  1  0  0  0  0
 17 18  1  0  0  0  0
 17 19  1  0  0  0  0
 17 20  1  0  0  0  0
 20 21  1  0  0  0  0
 20 22  1  0  0  0  0
 20 23  1  0  0  0  0
 23 24  1  0  0  0  0
 23 25  1  0  0  0  0
 26 27  2  0  0  0  0
 26 28  1  0  0  0  0
 28 29  1  0  0  0  0
 28 30  1  0  0  0  0
 30 31  1  0  0  0  0
 30 32  1  0  0  0  0
 30 33  1  0  0  0  0
M  END
$$$$

  -OEChem-01062216083D

 33 32  0     1  0  0  0  0  0999 V2000
   -3.5526   -2.6297    0.7975 H   0  0  0  0  0  0  0  0  0  0  0  0
   -3.5322   -1.6286    0.3580 C   0  0  0  0  0  0  0  0  0  0  0  0
   -4.4548   -1.1074    0.6237 H   0  0  0  0  0  0  0  0  0  0  0  0
   -3.4728   -1.7255   -0.7286 H   0  0  0  0  0  0  0  0  0  0  0  0
   -2.3307   -0.8581    0.8726 C   0  0  0  0  0  0  0  0  0  0  0  0
   -1.6365   -1.3589    1.7418 O   0  0  0  0  0  0  0  0  0  0  0  0
   -2.1089    0.4258    0.3998 N   0  0  0  0  0  0  0  0  0  0  0  0
   -2.7304    0.6878   -0.3582 H   0  0  0  0  0  0  0  0  0  0  0  0
   -0.8079    1.1315    0.4401 C   0  0  1  0  0  0  0  0  0  0  0  0
   -0.9586    2.0864   -0.0711 H   0  0  0  0  0  0  0  0  0  0  0  0
   -0.3425    1.4575    1.8760 C   0  0  0  0  0  0  0  0  0  0  0  0
   -0.3053    0.5551    2.4917 H   0  0  0  0  0  0  0  0  0  0  0  0
    0.6765    1.8565    1.8387 H   0  0  0  0  0  0  0  0  0  0  0  0
   -1.2473    2.5077    2.5333 C   0  0  0  0  0  0  0  0  0  0  0  0
   -1.2570    3.4209    1.9293 H   0  0  0  0  0  0  0  0  0  0  0  0
   -2.2718    2.1249    2.5874 H   0  0  0  0  0  0  0  0  0  0  0  0
   -0.7497    2.8313    3.9457 C   0  0  0  0  0  0  0  0  0  0  0  0
   -0.7285    1.9145    4.5440 H   0  0  0  0  0  0  0  0  0  0  0  0
    0.2704    3.2261    3.8964 H   0  0  0  0  0  0  0  0  0  0  0  0
   -1.6554    3.8567    4.6210 C   0  0  0  0  0  0  0  0  0  0  0  0
   -1.6673    4.7880    4.0442 H   0  0  0  0  0  0  0  0  0  0  0  0
   -2.6810    3.4738    4.6710 H   0  0  0  0  0  0  0  0  0  0  0  0
   -1.1468    4.1092    5.9722 N   0  0  0  0  0  0  0  0  0  0  0  0
   -1.7433    4.7660    6.4753 H   0  0  0  0  0  0  0  0  0  0  0  0
   -1.0463    3.2375    6.4931 H   0  0  0  0  0  0  0  0  0  0  0  0
    0.3301    0.4210   -0.3409 C   0  0  0  0  0  0  0  0  0  0  0  0
    0.2310   -0.7360   -0.7293 O   0  0  0  0  0  0  0  0  0  0  0  0
    1.3339    1.1937   -0.9014 N   0  0  0  0  0  0  0  0  0  0  0  0
    1.4118    2.1573   -0.5912 H   0  0  0  0  0  0  0  0  0  0  0  0
    2.3783    0.6485   -1.7619 C   0  0  0  0  0  0  0  0  0  0  0  0
    1.9409    0.2077   -2.6638 H   0  0  0  0  0  0  0  0  0  0  0  0
    3.0699    1.4400   -2.0660 H   0  0  0  0  0  0  0  0  0  0  0  0
    2.9463   -0.1238   -1.2327 H   0  0  0  0  0  0  0  0  0  0  0  0
  1  2  1  0  0  0  0
  2  3  1  0  0  0  0
  2  4  1  0  0  0  0
  2  5  1  0  0  0  0
  5  6  2  0  0  0  0
  5  7  1  0  0  0  0
  7  8  1  0  0  0  0
  7  9  1  0  0  0  0
  9 10  1  0  0  0  0
  9 11  1  0  0  0  0
  9 26  1  0  0  0  0
 11 12  1  0  0  0  0
 11 13  1  0  0  0  0
 11 14  1  0  0  0  0
 14 15  1  0  0  0  0
 14 16  1  0  0  0  0
 14 17  1  0  0  0  0
 17 18  1  0  0  0  0
 17 19  1  0  0  0  0
 17 20  1  0  0  0  0
 20 21  1  0  0  0  0
 20 22  1  0  0  0  0
 20 23  1  0  0  0  0
 23 24  1  0  0  0  0
 23 25  1  0  0  0  0
 26 27  2  0  0  0  0
 26 28  1  0  0  0  0
 28 29  1  0  0  0  0
 28 30  1  0  0  0  0
 30 31  1  0  0  0  0
 30 32  1  0  0  0  0
 30 33  1  0  0  0  0
M  END
$$$$

  -OEChem-01062216083D

 33 32  0     1  0  0  0  0  0999 V2000
   -3.5313   -2.6241    0.7945 H   0  0  0  0  0  0  0  0  0  0  0  0
   -3.5271   -1.6130    0.3774 C   0  0  0  0  0  0  0  0  0  0  0  0
   -4.4380   -1.0978    0.6905 H   0  0  0  0  0  0  0  0  0  0  0  0
   -3.5097   -1.6850   -0.7128 H   0  0  0  0  0  0  0  0  0  0  0  0
   -2.3067   -0.8533    0.8621 C   0  0  0  0  0  0  0  0  0  0  0  0
   -1.5656   -1.3800    1.6761 O   0  0  0  0  0  0  0  0  0  0  0  0
   -2.0959    0.4370    0.4031 N   0  0  0  0  0  0  0  0  0  0  0  0
   -2.7230    0.7093   -0.3469 H   0  0  0  0  0  0  0  0  0  0  0  0
   -0.7939    1.1384    0.4472 C   0  0  1  0  0  0  0  0  0  0  0  0
   -0.9367    2.0964   -0.0607 H   0  0  0  0  0  0  0  0  0  0  0  0
   -0.3363    1.4580    1.8894 C   0  0  0  0  0  0  0  0  0  0  0  0
   -0.3104    0.5543    2.5035 H   0  0  0  0  0  0  0  0  0  0  0  0
    0.6839    1.8535    1.8669 H   0  0  0  0  0  0  0  0  0  0  0  0
   -1.2446    2.5088    2.5409 C   0  0  0  0  0  0  0  0  0  0  0  0
   -1.2468    3.4230    1.9380 H   0  0  0  0  0  0  0  0  0  0  0  0
   -2.2706    2.1283    2.5846 H   0  0  0  0  0  0  0  0  0  0  0  0
   -0.7602    2.8298    3.9585 C   0  0  0  0  0  0  0  0  0  0  0  0
   -0.7477    1.9126    4.5563 H   0  0  0  0  0  0  0  0  0  0  0  0
    0.2610    3.2226    3.9209 H   0  0  0  0  0  0  0  0  0  0  0  0
   -1.6714    3.8559    4.6245 C   0  0  0  0  0  0  0  0  0  0  0  0
   -1.6745    4.7876    4.0479 H   0  0  0  0  0  0  0  0  0  0  0  0
   -2.6981    3.4753    4.6630 H   0  0  0  0  0  0  0  0  0  0  0  0
   -1.1768    4.1068    5.9812 N   0  0  0  0  0  0  0  0  0  0  0  0
   -1.7689    4.7760    6.4731 H   0  0  0  0  0  0  0  0  0  0  0  0
   -1.0979    3.2362    6.5075 H   0  0  0  0  0  0  0  0  0  0  0  0
    0.3286    0.4237   -0.3517 C   0  0  0  0  0  0  0  0  0  0  0  0
    0.1086   -0.6038   -0.9826 O   0  0  0  0  0  0  0  0  0  0  0  0
    1.4907    1.1163   -0.6486 N   0  0  0  0  0  0  0  0  0  0  0  0
    1.6689    1.9717   -0.1315 H   0  0  0  0  0  0  0  0  0  0  0  0
    2.5497    0.5756   -1.4935 C   0  0  0  0  0  0  0  0  0  0  0  0
    2.1708    0.3718   -2.5006 H   0  0  0  0  0  0  0  0  0  0  0  0
    3.3731    1.2916   -1.5736 H   0  0  0  0  0  0  0  0  0  0  0  0
    2.9394   -0.3557   -1.0691 H   0  0  0  0  0  0  0  0  0  0  0  0
  1  2  1  0  0  0  0
  2  3  1  0  0  0  0
  2  4  1  0  0  0  0
  2  5  1  0  0  0  0
  5  6  2  0  0  0  0
  5  7  1  0  0  0  0
  7  8  1  0  0  0  0
  7  9  1  0  0  0  0
  9 10  1  0  0  0  0
  9 11  1  0  0  0  0
  9 26  1  0  0  0  0
 11 12  1  0  0  0  0
 11 13  1  0  0  0  0
 11 14  1  0  0  0  0
 14 15  1  0  0  0  0
 14 16  1  0  0  0  0
 14 17  1  0  0  0  0
 17 18  1  0  0  0  0
 17 19  1  0  0  0  0
 17 20  1  0  0  0  0
 20 21  1  0  0  0  0
 20 22  1  0  0  0  0
 20 23  1  0  0  0  0
 23 24  1  0  0  0  0
 23 25  1  0  0  0  0
 26 27  2  0  0  0  0
 26 28  1  0  0  0  0
 28 29  1  0  0  0  0
 28 30  1  0  0  0  0
 30 31  1  0  0  0  0
 30 32  1  0  0  0  0
 30 33  1  0  0  0  0
M  END
$$$$

  -OEChem-01062216083D

 33 32  0     1  0  0  0  0  0999 V2000
   -3.6443   -2.5690    0.7126 H   0  0  0  0  0  0  0  0  0  0  0  0
   -3.5975   -1.5407    0.3435 C   0  0  0  0  0  0  0  0  0  0  0  0
   -4.4465   -0.9830    0.7454 H   0  0  0  0  0  0  0  0  0  0  0  0
   -3.6612   -1.5567   -0.7473 H   0  0  0  0  0  0  0  0  0  0  0  0
   -2.2973   -0.8882    0.7738 C   0  0  0  0  0  0  0  0  0  0  0  0
   -1.5083   -1.5349    1.4419 O   0  0  0  0  0  0  0  0  0  0  0  0
   -2.0509    0.4157    0.3792 N   0  0  0  0  0  0  0  0  0  0  0  0
   -2.7022    0.7606   -0.3195 H   0  0  0  0  0  0  0  0  0  0  0  0
   -0.7540    1.1249    0.4575 C   0  0  1  0  0  0  0  0  0  0  0  0
   -0.9562    2.1713    0.2113 H   0  0  0  0  0  0  0  0  0  0  0  0
   -0.1058    1.1296    1.8647 C   0  0  0  0  0  0  0  0  0  0  0  0
    0.0290    0.1179    2.2523 H   0  0  0  0  0  0  0  0  0  0  0  0
    0.8924    1.5722    1.8018 H   0  0  0  0  0  0  0  0  0  0  0  0
   -0.9272    1.9754    2.8461 C   0  0  0  0  0  0  0  0  0  0  0  0
   -1.0167    2.9997    2.4695 H   0  0  0  0  0  0  0  0  0  0  0  0
   -1.9355    1.5567    2.9330 H   0  0  0  0  0  0  0  0  0  0  0  0
   -0.2633    1.9931    4.2270 C   0  0  0  0  0  0  0  0  0  0  0  0
   -0.1656    0.9676    4.5981 H   0  0  0  0  0  0  0  0  0  0  0  0
    0.7411    2.4222    4.1501 H   0  0  0  0  0  0  0  0  0  0  0  0
   -1.0878    2.8122    5.2153 C   0  0  0  0  0  0  0  0  0  0  0  0
   -1.1760    3.8472    4.8670 H   0  0  0  0  0  0  0  0  0  0  0  0
   -2.0970    2.3936    5.2975 H   0  0  0  0  0  0  0  0  0  0  0  0
   -0.4210    2.7757    6.5200 N   0  0  0  0  0  0  0  0  0  0  0  0
   -0.9493    3.2963    7.2201 H   0  0  0  0  0  0  0  0  0  0  0  0
   -0.2647    1.8142    6.8234 H   0  0  0  0  0  0  0  0  0  0  0  0
    0.2252    0.6424   -0.6450 C   0  0  0  0  0  0  0  0  0  0  0  0
   -0.1742   -0.0538   -1.5723 O   0  0  0  0  0  0  0  0  0  0  0  0
    1.4963    1.1829   -0.7416 N   0  0  0  0  0  0  0  0  0  0  0  0
    1.8248    1.7450    0.0374 H   0  0  0  0  0  0  0  0  0  0  0  0
    2.4404    0.8250   -1.7937 C   0  0  0  0  0  0  0  0  0  0  0  0
    2.0261    1.0631   -2.7790 H   0  0  0  0  0  0  0  0  0  0  0  0
    3.3738    1.3820   -1.6694 H   0  0  0  0  0  0  0  0  0  0  0  0
    2.6672   -0.2457   -1.7565 H   0  0  0  0  0  0  0  0  0  0  0  0
  1  2  1  0  0  0  0
  2  3  1  0  0  0  0
  2  4  1  0  0  0  0
  2  5  1  0  0  0  0
  5  6  2  0  0  0  0
  5  7  1  0  0  0  0
  7  8  1  0  0  0  0
  7  9  1  0  0  0  0
  9 10  1  0  0  0  0
  9 11  1  0  0  0  0
  9 26  1  0  0  0  0
 11 12  1  0  0  0  0
 11 13  1  0  0  0  0
 11 14  1  0  0  0  0
 14 15  1  0  0  0  0
 14 16  1  0  0  0  0
 14 17  1  0  0  0  0
 17 18  1  0  0  0  0
 17 19  1  0  0  0  0
 17 20  1  0  0  0  0
 20 21  1  0  0  0  0
 20 22  1  0  0  0  0
 20 23  1  0  0  0  0
 23 24  1  0  0  0  0
 23 25  1  0  0  0  0
 26 27  2  0  0  0  0
 26 28  1  0  0  0  0
 28 29  1  0  0  0  0
 28 30  1  0  0  0  0
 30 31  1  0  0  0  0
 30 32  1  0  0  0  0
 30 33  1  0  0  0  0
M  END
$$$$

  -OEChem-01062216083D

 33 32  0     1  0  0  0  0  0999 V2000
   -3.6152   -2.5568    0.7327 H   0  0  0  0  0  0  0  0  0  0  0  0
   -3.5744   -1.5270    0.3666 C   0  0  0  0  0  0  0  0  0  0  0  0
   -4.4107   -0.9680    0.7928 H   0  0  0  0  0  0  0  0  0  0  0  0
   -3.6668   -1.5378   -0.7222 H   0  0  0  0  0  0  0  0  0  0  0  0
   -2.2607   -0.8812    0.7648 C   0  0  0  0  0  0  0  0  0  0  0  0
   -1.4428   -1.5417    1.3832 O   0  0  0  0  0  0  0  0  0  0  0  0
   -2.0233    0.4274    0.3825 N   0  0  0  0  0  0  0  0  0  0  0  0
   -2.6863    0.7861   -0.2983 H   0  0  0  0  0  0  0  0  0  0  0  0
   -0.7316    1.1440    0.4675 C   0  0  1  0  0  0  0  0  0  0  0  0
   -0.9340    2.1915    0.2251 H   0  0  0  0  0  0  0  0  0  0  0  0
   -0.0975    1.1450    1.8819 C   0  0  0  0  0  0  0  0  0  0  0  0
    0.0378    0.1320    2.2661 H   0  0  0  0  0  0  0  0  0  0  0  0
    0.8972    1.5965    1.8333 H   0  0  0  0  0  0  0  0  0  0  0  0
   -0.9333    1.9823    2.8585 C   0  0  0  0  0  0  0  0  0  0  0  0
   -1.0237    3.0080    2.4857 H   0  0  0  0  0  0  0  0  0  0  0  0
   -1.9403    1.5584    2.9333 H   0  0  0  0  0  0  0  0  0  0  0  0
   -0.2833    1.9959    4.2460 C   0  0  0  0  0  0  0  0  0  0  0  0
   -0.1844    0.9688    4.6125 H   0  0  0  0  0  0  0  0  0  0  0  0
    0.7200    2.4295    4.1808 H   0  0  0  0  0  0  0  0  0  0  0  0
   -1.1211    2.8063    5.2302 C   0  0  0  0  0  0  0  0  0  0  0  0
   -1.2093    3.8427    4.8860 H   0  0  0  0  0  0  0  0  0  0  0  0
   -2.1294    2.3833    5.3001 H   0  0  0  0  0  0  0  0  0  0  0  0
   -0.4676    2.7663    6.5414 N   0  0  0  0  0  0  0  0  0  0  0  0
   -0.9999    3.2901    7.2359 H   0  0  0  0  0  0  0  0  0  0  0  0
   -0.3204    1.8040    6.8467 H   0  0  0  0  0  0  0  0  0  0  0  0
    0.2376    0.6653   -0.6459 C   0  0  0  0  0  0  0  0  0  0  0  0
   -0.2129    0.1812   -1.6790 O   0  0  0  0  0  0  0  0  0  0  0  0
    1.5920    0.9488   -0.5969 N   0  0  0  0  0  0  0  0  0  0  0  0
    1.9606    1.3018    0.2806 H   0  0  0  0  0  0  0  0  0  0  0  0
    2.5317    0.5357   -1.6327 C   0  0  0  0  0  0  0  0  0  0  0  0
    2.2544    0.9701   -2.5991 H   0  0  0  0  0  0  0  0  0  0  0  0
    3.5425    0.8716   -1.3824 H   0  0  0  0  0  0  0  0  0  0  0  0
    2.5418   -0.5553   -1.7265 H   0  0  0  0  0  0  0  0  0  0  0  0
  1  2  1  0  0  0  0
  2  3  1  0  0  0  0
  2  4  1  0  0  0  0
  2  5  1  0  0  0  0
  5  6  2  0  0  0  0
  5  7  1  0  0  0  0
  7  8  1  0  0  0  0
  7  9  1  0  0  0  0
  9 10  1  0  0  0  0
  9 11  1  0  0  0  0
  9 26  1  0  0  0  0
 11 12  1  0  0  0  0
 11 13  1  0  0  0  0
 11 14  1  0  0  0  0
 14 15  1  0  0  0  0
 14 16  1  0  0  0  0
 14 17  1  0  0  0  0
 17 18  1  0  0  0  0
 17 19  1  0  0  0  0
 17 20  1  0  0  0  0
 20 21  1  0  0  0  0
 20 22  1  0  0  0  0
 20 23  1  0  0  0  0
 23 24  1  0  0  0  0
 23 25  1  0  0  0  0
 26 27  2  0  0  0  0
 26 28  1  0  0  0  0
 28 29  1  0  0  0  0
 28 30  1  0  0  0  0
 30 31  1  0  0  0  0
 30 32  1  0  0  0  0
 30 33  1  0  0  0  0
M  END
$$$$

  -OEChem-01062216083D

 33 32  0     1  0  0  0  0  0999 V2000
   -3.5907   -2.5514    0.7390 H   0  0  0  0  0  0  0  0  0  0  0  0
   -3.5578   -1.5187    0.3804 C   0  0  0  0  0  0  0  0  0  0  0  0
   -4.3813   -0.9620    0.8333 H   0  0  0  0  0  0  0  0  0  0  0  0
   -3.6798   -1.5202   -0.7055 H   0  0  0  0  0  0  0  0  0  0  0  0
   -2.2334   -0.8781    0.7510 C   0  0  0  0  0  0  0  0  0  0  0  0
   -1.3951   -1.5461    1.3332 O   0  0  0  0  0  0  0  0  0  0  0  0
   -2.0009    0.4336    0.3789 N   0  0  0  0  0  0  0  0  0  0  0  0
   -2.6733    0.8084   -0.2842 H   0  0  0  0  0  0  0  0  0  0  0  0
   -0.7136    1.1534    0.4774 C   0  0  1  0  0  0  0  0  0  0  0  0
   -0.9143    2.2014    0.2354 H   0  0  0  0  0  0  0  0  0  0  0  0
   -0.0902    1.1544    1.8966 C   0  0  0  0  0  0  0  0  0  0  0  0
    0.0460    0.1411    2.2808 H   0  0  0  0  0  0  0  0  0  0  0  0
    0.9020    1.6133    1.8538 H   0  0  0  0  0  0  0  0  0  0  0  0
   -0.9366    1.9871    2.8676 C   0  0  0  0  0  0  0  0  0  0  0  0
   -1.0278    3.0129    2.4958 H   0  0  0  0  0  0  0  0  0  0  0  0
   -1.9425    1.5595    2.9339 H   0  0  0  0  0  0  0  0  0  0  0  0
   -0.2967    2.0004    4.2595 C   0  0  0  0  0  0  0  0  0  0  0  0
   -0.1965    0.9733    4.6255 H   0  0  0  0  0  0  0  0  0  0  0  0
    0.7051    2.4388    4.2026 H   0  0  0  0  0  0  0  0  0  0  0  0
   -1.1447    2.8060    5.2384 C   0  0  0  0  0  0  0  0  0  0  0  0
   -1.2321    3.8426    4.8948 H   0  0  0  0  0  0  0  0  0  0  0  0
   -2.1530    2.3814    5.2993 H   0  0  0  0  0  0  0  0  0  0  0  0
   -0.5012    2.7662    6.5548 N   0  0  0  0  0  0  0  0  0  0  0  0
   -1.0323    3.3001    7.2428 H   0  0  0  0  0  0  0  0  0  0  0  0
   -0.3664    1.8041    6.8666 H   0  0  0  0  0  0  0  0  0  0  0  0
    0.2510    0.6747   -0.6372 C   0  0  0  0  0  0  0  0  0  0  0  0
   -0.1998    0.4215   -1.7493 O   0  0  0  0  0  0  0  0  0  0  0  0
    1.6244    0.6719   -0.4657 N   0  0  0  0  0  0  0  0  0  0  0  0
    1.9679    0.7832    0.4835 H   0  0  0  0  0  0  0  0  0  0  0  0
    2.5526    0.2157   -1.4928 C   0  0  0  0  0  0  0  0  0  0  0  0
    2.4349    0.8075   -2.4066 H   0  0  0  0  0  0  0  0  0  0  0  0
    3.5843    0.3232   -1.1446 H   0  0  0  0  0  0  0  0  0  0  0  0
    2.3727   -0.8383   -1.7289 H   0  0  0  0  0  0  0  0  0  0  0  0
  1  2  1  0  0  0  0
  2  3  1  0  0  0  0
  2  4  1  0  0  0  0
  2  5  1  0  0  0  0
  5  6  2  0  0  0  0
  5  7  1  0  0  0  0
  7  8  1  0  0  0  0
  7  9  1  0  0  0  0
  9 10  1  0  0  0  0
  9 11  1  0  0  0  0
  9 26  1  0  0  0  0
 11 12  1  0  0  0  0
 11 13  1  0  0  0  0
 11 14  1  0  0  0  0
 14 15  1  0  0  0  0
 14 16  1  0  0  0  0
 14 17  1  0  0  0  0
 17 18  1  0  0  0  0
 17 19  1  0  0  0  0
 17 20  1  0  0  0  0
 20 21  1  0  0  0  0
 20 22  1  0  0  0  0
 20 23  1  0  0  0  0
 23 24  1  0  0  0  0
 23 25  1  0  0  0  0
 26 27  2  0  0  0  0
 26 28  1  0  0  0  0
 28 29  1  0  0  0  0
 28 30  1  0  0  0  0
 30 31  1  0  0  0  0
 30 32  1  0  0  0  0
 30 33  1  0  0  0  0
M  END
$$$$

  -OEChem-01062216083D

 33 32  0     1  0  0  0  0  0999 V2000
   -3.5823   -2.5423    0.7591 H   0  0  0  0  0  0  0  0  0  0  0  0
   -3.5514   -1.5091    0.4016 C   0  0  0  0  0  0  0  0  0  0  0  0
   -4.3603   -0.9483    0.8757 H   0  0  0  0  0  0  0  0  0  0  0  0
   -3.7002   -1.5071   -0.6810 H   0  0  0  0  0  0  0  0  0  0  0  0
   -2.2141   -0.8774    0.7394 C   0  0  0  0  0  0  0  0  0  0  0  0
   -1.3568   -1.5549    1.2821 O   0  0  0  0  0  0  0  0  0  0  0  0
   -1.9829    0.4354    0.3716 N   0  0  0  0  0  0  0  0  0  0  0  0
   -2.6757    0.8345   -0.2557 H   0  0  0  0  0  0  0  0  0  0  0  0
   -0.6990    1.1579    0.4804 C   0  0  1  0  0  0  0  0  0  0  0  0
   -0.8992    2.2058    0.2374 H   0  0  0  0  0  0  0  0  0  0  0  0
   -0.0859    1.1606    1.9031 C   0  0  0  0  0  0  0  0  0  0  0  0
    0.0459    0.1470    2.2886 H   0  0  0  0  0  0  0  0  0  0  0  0
    0.9069    1.6199    1.8629 H   0  0  0  0  0  0  0  0  0  0  0  0
   -0.9392    1.9910    2.8701 C   0  0  0  0  0  0  0  0  0  0  0  0
   -1.0289    3.0170    2.4981 H   0  0  0  0  0  0  0  0  0  0  0  0
   -1.9454    1.5626    2.9301 H   0  0  0  0  0  0  0  0  0  0  0  0
   -0.3072    2.0047    4.2660 C   0  0  0  0  0  0  0  0  0  0  0  0
   -0.2076    0.9777    4.6320 H   0  0  0  0  0  0  0  0  0  0  0  0
    0.6944    2.4443    4.2151 H   0  0  0  0  0  0  0  0  0  0  0  0
   -1.1622    2.8081    5.2408 C   0  0  0  0  0  0  0  0  0  0  0  0
   -1.2508    3.8449    4.8978 H   0  0  0  0  0  0  0  0  0  0  0  0
   -2.1695    2.3803    5.2963 H   0  0  0  0  0  0  0  0  0  0  0  0
   -0.5253    2.7683    6.5604 N   0  0  0  0  0  0  0  0  0  0  0  0
   -1.0666    3.2910    7.2490 H   0  0  0  0  0  0  0  0  0  0  0  0
   -0.3789    1.8063    6.8670 H   0  0  0  0  0  0  0  0  0  0  0  0
    0.2700    0.6809   -0.6288 C   0  0  0  0  0  0  0  0  0  0  0  0
   -0.1308    0.6415   -1.7868 O   0  0  0  0  0  0  0  0  0  0  0  0
    1.5972    0.3868   -0.3701 N   0  0  0  0  0  0  0  0  0  0  0  0
    1.8558    0.2839    0.6068 H   0  0  0  0  0  0  0  0  0  0  0  0
    2.5087   -0.1234   -1.3867 C   0  0  0  0  0  0  0  0  0  0  0  0
    2.5798    0.5769   -2.2257 H   0  0  0  0  0  0  0  0  0  0  0  0
    3.5096   -0.2557   -0.9646 H   0  0  0  0  0  0  0  0  0  0  0  0
    2.1590   -1.0904   -1.7631 H   0  0  0  0  0  0  0  0  0  0  0  0
  1  2  1  0  0  0  0
  2  3  1  0  0  0  0
  2  4  1  0  0  0  0
  2  5  1  0  0  0  0
  5  6  2  0  0  0  0
  5  7  1  0  0  0  0
  7  8  1  0  0  0  0
  7  9  1  0  0  0  0
  9 10  1  0  0  0  0
  9 11  1  0  0  0  0
  9 26  1  0  0  0  0
 11 12  1  0  0  0  0
 11 13  1  0  0  0  0
 11 14  1  0  0  0  0
 14 15  1  0  0  0  0
 14 16  1  0  0  0  0
 14 17  1  0  0  0  0
 17 18  1  0  0  0  0
 17 19  1  0  0  0  0
 17 20  1  0  0  0  0
 20 21  1  0  0  0  0
 20 22  1  0  0  0  0
 20 23  1  0  0  0  0
 23 24  1  0  0  0  0
 23 25  1  0  0  0  0
 26 27  2  0  0  0  0
 26 28  1  0  0  0  0
 28 29  1  0  0  0  0
 28 30  1  0  0  0  0
 30 31  1  0  0  0  0
 30 32  1  0  0  0  0
 30 33  1  0  0  0  0
M  END
$$$$

  -OEChem-01062216083D

 33 32  0     1  0  0  0  0  0999 V2000
   -3.5800   -2.5282    0.7957 H   0  0  0  0  0  0  0  0  0  0  0  0
   -3.5527   -1.4959    0.4356 C   0  0  0  0  0  0  0  0  0  0  0  0
   -4.3391   -0.9278    0.9380 H   0  0  0  0  0  0  0  0  0  0  0  0
   -3.7406   -1.4940   -0.6409 H   0  0  0  0  0  0  0  0  0  0  0  0
   -2.1988   -0.8760    0.7257 C   0  0  0  0  0  0  0  0  0  0  0  0
   -1.3244   -1.5615    1.2308 O   0  0  0  0  0  0  0  0  0  0  0  0
   -1.9675    0.4361    0.3565 N   0  0  0  0  0  0  0  0  0  0  0  0
   -2.6819    0.8603   -0.2285 H   0  0  0  0  0  0  0  0  0  0  0  0
   -0.6864    1.1592    0.4758 C   0  0  1  0  0  0  0  0  0  0  0  0
   -0.8857    2.2075    0.2317 H   0  0  0  0  0  0  0  0  0  0  0  0
   -0.0814    1.1620    1.9006 C   0  0  0  0  0  0  0  0  0  0  0  0
    0.0455    0.1484    2.2871 H   0  0  0  0  0  0  0  0  0  0  0  0
    0.9137    1.6172    1.8599 H   0  0  0  0  0  0  0  0  0  0  0  0
   -0.9401    1.9907    2.8642 C   0  0  0  0  0  0  0  0  0  0  0  0
   -1.0291    3.0171    2.4927 H   0  0  0  0  0  0  0  0  0  0  0  0
   -1.9462    1.5618    2.9190 H   0  0  0  0  0  0  0  0  0  0  0  0
   -0.3142    2.0035    4.2627 C   0  0  0  0  0  0  0  0  0  0  0  0
   -0.2152    0.9761    4.6284 H   0  0  0  0  0  0  0  0  0  0  0  0
    0.6872    2.4441    4.2163 H   0  0  0  0  0  0  0  0  0  0  0  0
   -1.1736    2.8051    5.2354 C   0  0  0  0  0  0  0  0  0  0  0  0
   -1.2617    3.8424    4.8937 H   0  0  0  0  0  0  0  0  0  0  0  0
   -2.1810    2.3774    5.2869 H   0  0  0  0  0  0  0  0  0  0  0  0
   -0.5410    2.7631    6.5568 N   0  0  0  0  0  0  0  0  0  0  0  0
   -1.0828    3.2875    7.2438 H   0  0  0  0  0  0  0  0  0  0  0  0
   -0.3982    1.8008    6.8637 H   0  0  0  0  0  0  0  0  0  0  0  0
    0.2918    0.6810   -0.6214 C   0  0  0  0  0  0  0  0  0  0  0  0
   -0.0099    0.8529   -1.7966 O   0  0  0  0  0  0  0  0  0  0  0  0
    1.5100    0.1035   -0.3112 N   0  0  0  0  0  0  0  0  0  0  0  0
    1.6267   -0.1985    0.6524 H   0  0  0  0  0  0  0  0  0  0  0  0
    2.3993   -0.4535   -1.3226 C   0  0  0  0  0  0  0  0  0  0  0  0
    2.6737    0.3117   -2.0565 H   0  0  0  0  0  0  0  0  0  0  0  0
    3.3163   -0.8255   -0.8559 H   0  0  0  0  0  0  0  0  0  0  0  0
    1.9122   -1.2838   -1.8446 H   0  0  0  0  0  0  0  0  0  0  0  0
  1  2  1  0  0  0  0
  2  3  1  0  0  0  0
  2  4  1  0  0  0  0
  2  5  1  0  0  0  0
  5  6  2  0  0  0  0
  5  7  1  0  0  0  0
  7  8  1  0  0  0  0
  7  9  1  0  0  0  0
  9 10  1  0  0  0  0
  9 11  1  0  0  0  0
  9 26  1  0  0  0  0
 11 12  1  0  0  0  0
 11 13  1  0  0  0  0
 11 14  1  0  0  0  0
 14 15  1  0  0  0  0
 14 16  1  0  0  0  0
 14 17  1  0  0  0  0
 17 18  1  0  0  0  0
 17 19  1  0  0  0  0
 17 20  1  0  0  0  0
 20 21  1  0  0  0  0
 20 22  1  0  0  0  0
 20 23  1  0  0  0  0
 23 24  1  0  0  0  0
 23 25  1  0  0  0  0
 26 27  2  0  0  0  0
 26 28  1  0  0  0  0
 28 29  1  0  0  0  0
 28 30  1  0  0  0  0
 30 31  1  0  0  0  0
 30 32  1  0  0  0  0
 30 33  1  0  0  0  0
M  END
$$$$

  -OEChem-01062216083D

 33 32  0     1  0  0  0  0  0999 V2000
   -3.5965   -2.5045    0.8621 H   0  0  0  0  0  0  0  0  0  0  0  0
   -3.5680   -1.4759    0.4916 C   0  0  0  0  0  0  0  0  0  0  0  0
   -4.3208   -0.8898    1.0242 H   0  0  0  0  0  0  0  0  0  0  0  0
   -3.8053   -1.4796   -0.5752 H   0  0  0  0  0  0  0  0  0  0  0  0
   -2.1917   -0.8774    0.7139 C   0  0  0  0  0  0  0  0  0  0  0  0
   -1.2982   -1.5772    1.1641 O   0  0  0  0  0  0  0  0  0  0  0  0
   -1.9560    0.4323    0.3399 N   0  0  0  0  0  0  0  0  0  0  0  0
   -2.7020    0.8941   -0.1726 H   0  0  0  0  0  0  0  0  0  0  0  0
   -0.6734    1.1500    0.4656 C   0  0  1  0  0  0  0  0  0  0  0  0
   -0.8662    2.1990    0.2197 H   0  0  0  0  0  0  0  0  0  0  0  0
   -0.0754    1.1501    1.8924 C   0  0  0  0  0  0  0  0  0  0  0  0
    0.0405    0.1356    2.2811 H   0  0  0  0  0  0  0  0  0  0  0  0
    0.9251    1.5946    1.8542 H   0  0  0  0  0  0  0  0  0  0  0  0
   -0.9360    1.9828    2.8510 C   0  0  0  0  0  0  0  0  0  0  0  0
   -1.0183    3.0095    2.4785 H   0  0  0  0  0  0  0  0  0  0  0  0
   -1.9440    1.5581    2.9007 H   0  0  0  0  0  0  0  0  0  0  0  0
   -0.3185    1.9940    4.2528 C   0  0  0  0  0  0  0  0  0  0  0  0
   -0.2248    0.9665    4.6192 H   0  0  0  0  0  0  0  0  0  0  0  0
    0.6846    2.4311    4.2112 H   0  0  0  0  0  0  0  0  0  0  0  0
   -1.1813    2.8000    5.2189 C   0  0  0  0  0  0  0  0  0  0  0  0
   -1.2612    3.8372    4.8750 H   0  0  0  0  0  0  0  0  0  0  0  0
   -2.1912    2.3769    5.2629 H   0  0  0  0  0  0  0  0  0  0  0  0
   -0.5594    2.7581    6.5454 N   0  0  0  0  0  0  0  0  0  0  0  0
   -1.1045    3.2860    7.2270 H   0  0  0  0  0  0  0  0  0  0  0  0
   -0.4231    1.7959    6.8554 H   0  0  0  0  0  0  0  0  0  0  0  0
    0.3131    0.6673   -0.6180 C   0  0  0  0  0  0  0  0  0  0  0  0
    0.1677    1.0547   -1.7709 O   0  0  0  0  0  0  0  0  0  0  0  0
    1.3641   -0.1739   -0.3041 N   0  0  0  0  0  0  0  0  0  0  0  0
    1.2892   -0.6501    0.5925 H   0  0  0  0  0  0  0  0  0  0  0  0
    2.2433   -0.7433   -1.3167 C   0  0  0  0  0  0  0  0  0  0  0  0
    2.7149    0.0506   -1.9056 H   0  0  0  0  0  0  0  0  0  0  0  0
    3.0332   -1.3335   -0.8423 H   0  0  0  0  0  0  0  0  0  0  0  0
    1.6780   -1.3944   -1.9917 H   0  0  0  0  0  0  0  0  0  0  0  0
  1  2  1  0  0  0  0
  2  3  1  0  0  0  0
  2  4  1  0  0  0  0
  2  5  1  0  0  0  0
  5  6  2  0  0  0  0
  5  7  1  0  0  0  0
  7  8  1  0  0  0  0
  7  9  1  0  0  0  0
  9 10  1  0  0  0  0
  9 11  1  0  0  0  0
  9 26  1  0  0  0  0
 11 12  1  0  0  0  0
 11 13  1  0  0  0  0
 11 14  1  0  0  0  0
 14 15  1  0  0  0  0
 14 16  1  0  0  0  0
 14 17  1  0  0  0  0
 17 18  1  0  0  0  0
 17 19  1  0  0  0  0
 17 20  1  0  0  0  0
 20 21  1  0  0  0  0
 20 22  1  0  0  0  0
 20 23  1  0  0  0  0
 23 24  1  0  0  0  0
 23 25  1  0  0  0  0
 26 27  2  0  0  0  0
 26 28  1  0  0  0  0
 28 29  1  0  0  0  0
 28 30  1  0  0  0  0
 30 31  1  0  0  0  0
 30 32  1  0  0  0  0
 30 33  1  0  0  0  0
M  END
$$$$

  -OEChem-01062216083D

 33 32  0     1  0  0  0  0  0999 V2000
   -3.6141   -2.4789    0.9347 H   0  0  0  0  0  0  0  0  0  0  0  0
   -3.5872   -1.4552    0.5507 C   0  0  0  0  0  0  0  0  0  0  0  0
   -4.3045   -0.8512    1.1113 H   0  0  0  0  0  0  0  0  0  0  0  0
   -3.8753   -1.4670   -0.5033 H   0  0  0  0  0  0  0  0  0  0  0  0
   -2.1927   -0.8771    0.7003 C   0  0  0  0  0  0  0  0  0  0  0  0
   -1.2851   -1.5897    1.1020 O   0  0  0  0  0  0  0  0  0  0  0  0
   -1.9537    0.4283    0.3127 N   0  0  0  0  0  0  0  0  0  0  0  0
   -2.7295    0.9232   -0.1184 H   0  0  0  0  0  0  0  0  0  0  0  0
   -0.6711    1.1461    0.4433 C   0  0  1  0  0  0  0  0  0  0  0  0
   -0.8607    2.1947    0.1919 H   0  0  0  0  0  0  0  0  0  0  0  0
   -0.0793    1.1453    1.8719 C   0  0  0  0  0  0  0  0  0  0  0  0
    0.0337    0.1299    2.2592 H   0  0  0  0  0  0  0  0  0  0  0  0
    0.9230    1.5858    1.8351 H   0  0  0  0  0  0  0  0  0  0  0  0
   -0.9406    1.9771    2.8307 C   0  0  0  0  0  0  0  0  0  0  0  0
   -1.0199    3.0047    2.4605 H   0  0  0  0  0  0  0  0  0  0  0  0
   -1.9496    1.5547    2.8784 H   0  0  0  0  0  0  0  0  0  0  0  0
   -0.3232    1.9830    4.2330 C   0  0  0  0  0  0  0  0  0  0  0  0
   -0.2313    0.9541    4.5962 H   0  0  0  0  0  0  0  0  0  0  0  0
    0.6810    2.4180    4.1927 H   0  0  0  0  0  0  0  0  0  0  0  0
   -1.1829    2.7870    5.2035 C   0  0  0  0  0  0  0  0  0  0  0  0
   -1.2612    3.8258    4.8640 H   0  0  0  0  0  0  0  0  0  0  0  0
   -2.1933    2.3658    5.2476 H   0  0  0  0  0  0  0  0  0  0  0  0
   -0.5588    2.7383    6.5289 N   0  0  0  0  0  0  0  0  0  0  0  0
   -1.1034    3.2611    7.2147 H   0  0  0  0  0  0  0  0  0  0  0  0
   -0.4187    1.7746    6.8328 H   0  0  0  0  0  0  0  0  0  0  0  0
    0.3293    0.6534   -0.6215 C   0  0  0  0  0  0  0  0  0  0  0  0
    0.3874    1.2201   -1.7055 O   0  0  0  0  0  0  0  0  0  0  0  0
    1.1705   -0.4079   -0.3483 N   0  0  0  0  0  0  0  0  0  0  0  0
    0.8841   -0.9880    0.4412 H   0  0  0  0  0  0  0  0  0  0  0  0
    2.0474   -0.9941   -1.3527 C   0  0  0  0  0  0  0  0  0  0  0  0
    2.7170   -0.2338   -1.7683 H   0  0  0  0  0  0  0  0  0  0  0  0
    2.6598   -1.7824   -0.9046 H   0  0  0  0  0  0  0  0  0  0  0  0
    1.4593   -1.4289   -2.1676 H   0  0  0  0  0  0  0  0  0  0  0  0
  1  2  1  0  0  0  0
  2  3  1  0  0  0  0
  2  4  1  0  0  0  0
  2  5  1  0  0  0  0
  5  6  2  0  0  0  0
  5  7  1  0  0  0  0
  7  8  1  0  0  0  0
  7  9  1  0  0  0  0
  9 10  1  0  0  0  0
  9 11  1  0  0  0  0
  9 26  1  0  0  0  0
 11 12  1  0  0  0  0
 11 13  1  0  0  0  0
 11 14  1  0  0  0  0
 14 15  1  0  0  0  0
 14 16  1  0  0  0  0
 14 17  1  0  0  0  0
 17 18  1  0  0  0  0
 17 19  1  0  0  0  0
 17 20  1  0  0  0  0
 20 21  1  0  0  0  0
 20 22  1  0  0  0  0
 20 23  1  0  0  0  0
 23 24  1  0  0  0  0
 23 25  1  0  0  0  0
 26 27  2  0  0  0  0
 26 28  1  0  0  0  0
 28 29  1  0  0  0  0
 28 30  1  0  0  0  0
 30 31  1  0  0  0  0
 30 32  1  0  0  0  0
 30 33  1  0  0  0  0
M  END
$$$$

  -OEChem-01062216083D

 33 32  0     1  0  0  0  0  0999 V2000
   -3.6843   -2.4351    1.0167 H   0  0  0  0  0  0  0  0  0  0  0  0
   -3.6382   -1.4249    0.6000 C   0  0  0  0  0  0  0  0  0  0  0  0
   -4.3284   -0.7850    1.1548 H   0  0  0  0  0  0  0  0  0  0  0  0
   -3.9478   -1.4616   -0.4473 H   0  0  0  0  0  0  0  0  0  0  0  0
   -2.2263   -0.8800    0.7046 C   0  0  0  0  0  0  0  0  0  0  0  0
   -1.3263   -1.6120    1.0875 O   0  0  0  0  0  0  0  0  0  0  0  0
   -1.9689    0.4170    0.3001 N   0  0  0  0  0  0  0  0  0  0  0  0
   -2.7564    0.9323   -0.0834 H   0  0  0  0  0  0  0  0  0  0  0  0
   -0.6833    1.1348    0.4208 C   0  0  1  0  0  0  0  0  0  0  0  0
   -0.8740    2.1827    0.1664 H   0  0  0  0  0  0  0  0  0  0  0  0
   -0.0860    1.1301    1.8460 C   0  0  0  0  0  0  0  0  0  0  0  0
    0.0273    0.1123    2.2276 H   0  0  0  0  0  0  0  0  0  0  0  0
    0.9170    1.5687    1.8051 H   0  0  0  0  0  0  0  0  0  0  0  0
   -0.9404    1.9605    2.8120 C   0  0  0  0  0  0  0  0  0  0  0  0
   -1.0198    2.9889    2.4444 H   0  0  0  0  0  0  0  0  0  0  0  0
   -1.9499    1.5400    2.8630 H   0  0  0  0  0  0  0  0  0  0  0  0
   -0.3177    1.9634    4.2123 C   0  0  0  0  0  0  0  0  0  0  0  0
   -0.2243    0.9341    4.5740 H   0  0  0  0  0  0  0  0  0  0  0  0
    0.6863    2.3982    4.1691 H   0  0  0  0  0  0  0  0  0  0  0  0
   -1.1747    2.7673    5.1858 C   0  0  0  0  0  0  0  0  0  0  0  0
   -1.2537    3.8060    4.8466 H   0  0  0  0  0  0  0  0  0  0  0  0
   -2.1851    2.3464    5.2317 H   0  0  0  0  0  0  0  0  0  0  0  0
   -0.5503    2.7195    6.5110 N   0  0  0  0  0  0  0  0  0  0  0  0
   -1.0934    3.2449    7.1962 H   0  0  0  0  0  0  0  0  0  0  0  0
   -0.4110    1.7563    6.8167 H   0  0  0  0  0  0  0  0  0  0  0  0
    0.3349    0.6381   -0.6257 C   0  0  0  0  0  0  0  0  0  0  0  0
    0.5949    1.3322   -1.6001 O   0  0  0  0  0  0  0  0  0  0  0  0
    0.9564   -0.5842   -0.4596 N   0  0  0  0  0  0  0  0  0  0  0  0
    0.5373   -1.1934    0.2471 H   0  0  0  0  0  0  0  0  0  0  0  0
    1.8431   -1.1717   -1.4538 C   0  0  0  0  0  0  0  0  0  0  0  0
    2.6582   -0.4819   -1.6968 H   0  0  0  0  0  0  0  0  0  0  0  0
    2.2809   -2.0972   -1.0675 H   0  0  0  0  0  0  0  0  0  0  0  0
    1.2904   -1.4024   -2.3703 H   0  0  0  0  0  0  0  0  0  0  0  0
  1  2  1  0  0  0  0
  2  3  1  0  0  0  0
  2  4  1  0  0  0  0
  2  5  1  0  0  0  0
  5  6  2  0  0  0  0
  5  7  1  0  0  0  0
  7  8  1  0  0  0  0
  7  9  1  0  0  0  0
  9 10  1  0  0  0  0
  9 11  1  0  0  0  0
  9 26  1  0  0  0  0
 11 12  1  0  0  0  0
 11 13  1  0  0  0  0
 11 14  1  0  0  0  0
 14 15  1  0  0  0  0
 14 16  1  0  0  0  0
 14 17  1  0  0  0  0
 17 18  1  0  0  0  0
 17 19  1  0  0  0  0
 17 20  1  0  0  0  0
 20 21  1  0  0  0  0
 20 22  1  0  0  0  0
 20 23  1  0  0  0  0
 23 24  1  0  0  0  0
 23 25  1  0  0  0  0
 26 27  2  0  0  0  0
 26 28  1  0  0  0  0
 28 29  1  0  0  0  0
 28 30  1  0  0  0  0
 30 31  1  0  0  0  0
 30 32  1  0  0  0  0
 30 33  1  0  0  0  0
M  END
$$$$

  -OEChem-01062216083D

 33 32  0     1  0  0  0  0  0999 V2000
   -3.7570   -2.4048    1.0620 H   0  0  0  0  0  0  0  0  0  0  0  0
   -3.6928   -1.4013    0.6315 C   0  0  0  0  0  0  0  0  0  0  0  0
   -4.3690   -0.7411    1.1800 H   0  0  0  0  0  0  0  0  0  0  0  0
   -4.0058   -1.4457   -0.4145 H   0  0  0  0  0  0  0  0  0  0  0  0
   -2.2702   -0.8827    0.7235 C   0  0  0  0  0  0  0  0  0  0  0  0
   -1.3827   -1.6311    1.1021 O   0  0  0  0  0  0  0  0  0  0  0  0
   -1.9928    0.4048    0.3017 N   0  0  0  0  0  0  0  0  0  0  0  0
   -2.7829    0.9305   -0.0616 H   0  0  0  0  0  0  0  0  0  0  0  0
   -0.7020    1.1205    0.4057 C   0  0  1  0  0  0  0  0  0  0  0  0
   -0.8917    2.1672    0.1462 H   0  0  0  0  0  0  0  0  0  0  0  0
   -0.0993    1.1150    1.8272 C   0  0  0  0  0  0  0  0  0  0  0  0
    0.0117    0.0960    2.2062 H   0  0  0  0  0  0  0  0  0  0  0  0
    0.9054    1.5492    1.7814 H   0  0  0  0  0  0  0  0  0  0  0  0
   -0.9445    1.9494    2.7980 C   0  0  0  0  0  0  0  0  0  0  0  0
   -1.0219    2.9780    2.4305 H   0  0  0  0  0  0  0  0  0  0  0  0
   -1.9549    1.5323    2.8560 H   0  0  0  0  0  0  0  0  0  0  0  0
   -0.3144    1.9498    4.1947 C   0  0  0  0  0  0  0  0  0  0  0  0
   -0.2233    0.9203    4.5561 H   0  0  0  0  0  0  0  0  0  0  0  0
    0.6912    2.3809    4.1461 H   0  0  0  0  0  0  0  0  0  0  0  0
   -1.1630    2.7577    5.1719 C   0  0  0  0  0  0  0  0  0  0  0  0
   -1.2396    3.7970    4.8333 H   0  0  0  0  0  0  0  0  0  0  0  0
   -2.1748    2.3403    5.2234 H   0  0  0  0  0  0  0  0  0  0  0  0
   -0.5308    2.7063    6.4933 N   0  0  0  0  0  0  0  0  0  0  0  0
   -1.0695    3.2299    7.1833 H   0  0  0  0  0  0  0  0  0  0  0  0
   -0.3904    1.7421    6.7956 H   0  0  0  0  0  0  0  0  0  0  0  0
    0.3288    0.6198   -0.6279 C   0  0  0  0  0  0  0  0  0  0  0  0
    0.7794    1.3945   -1.4614 O   0  0  0  0  0  0  0  0  0  0  0  0
    0.7325   -0.7006   -0.6291 N   0  0  0  0  0  0  0  0  0  0  0  0
    0.2465   -1.3184    0.0265 H   0  0  0  0  0  0  0  0  0  0  0  0
    1.6262   -1.2771   -1.6234 C   0  0  0  0  0  0  0  0  0  0  0  0
    2.5618   -0.7106   -1.6747 H   0  0  0  0  0  0  0  0  0  0  0  0
    1.8649   -2.3116   -1.3589 H   0  0  0  0  0  0  0  0  0  0  0  0
    1.1539   -1.2695   -2.6109 H   0  0  0  0  0  0  0  0  0  0  0  0
  1  2  1  0  0  0  0
  2  3  1  0  0  0  0
  2  4  1  0  0  0  0
  2  5  1  0  0  0  0
  5  6  2  0  0  0  0
  5  7  1  0  0  0  0
  7  8  1  0  0  0  0
  7  9  1  0  0  0  0
  9 10  1  0  0  0  0
  9 11  1  0  0  0  0
  9 26  1  0  0  0  0
 11 12  1  0  0  0  0
 11 13  1  0  0  0  0
 11 14  1  0  0  0  0
 14 15  1  0  0  0  0
 14 16  1  0  0  0  0
 14 17  1  0  0  0  0
 17 18  1  0  0  0  0
 17 19  1  0  0  0  0
 17 20  1  0  0  0  0
 20 21  1  0  0  0  0
 20 22  1  0  0  0  0
 20 23  1  0  0  0  0
 23 24  1  0  0  0  0
 23 25  1  0  0  0  0
 26 27  2  0  0  0  0
 26 28  1  0  0  0  0
 28 29  1  0  0  0  0
 28 30  1  0  0  0  0
 30 31  1  0  0  0  0
 30 32  1  0  0  0  0
 30 33  1  0  0  0  0
M  END
$$$$

  -OEChem-01062216083D

 33 32  0     1  0  0  0  0  0999 V2000
   -3.8298   -2.3862    1.1266 H   0  0  0  0  0  0  0  0  0  0  0  0
   -3.7738   -1.3691    0.7284 C   0  0  0  0  0  0  0  0  0  0  0  0
   -4.3867   -0.7143    1.3525 H   0  0  0  0  0  0  0  0  0  0  0  0
   -4.1701   -1.3679   -0.2898 H   0  0  0  0  0  0  0  0  0  0  0  0
   -2.3355   -0.8869    0.7261 C   0  0  0  0  0  0  0  0  0  0  0  0
   -1.4446   -1.6574    1.0472 O   0  0  0  0  0  0  0  0  0  0  0  0
   -2.0522    0.3952    0.2914 N   0  0  0  0  0  0  0  0  0  0  0  0
   -2.8543    0.9444   -0.0042 H   0  0  0  0  0  0  0  0  0  0  0  0
   -0.7522    1.1011    0.3666 C   0  0  1  0  0  0  0  0  0  0  0  0
   -0.9412    2.1484    0.1081 H   0  0  0  0  0  0  0  0  0  0  0  0
   -0.1354    1.0896    1.7816 C   0  0  0  0  0  0  0  0  0  0  0  0
   -0.0325    0.0684    2.1581 H   0  0  0  0  0  0  0  0  0  0  0  0
    0.8738    1.5124    1.7261 H   0  0  0  0  0  0  0  0  0  0  0  0
   -0.9599    1.9334    2.7626 C   0  0  0  0  0  0  0  0  0  0  0  0
   -1.0274    2.9634    2.3969 H   0  0  0  0  0  0  0  0  0  0  0  0
   -1.9752    1.5302    2.8321 H   0  0  0  0  0  0  0  0  0  0  0  0
   -0.3131    1.9250    4.1518 C   0  0  0  0  0  0  0  0  0  0  0  0
   -0.2319    0.8938    4.5111 H   0  0  0  0  0  0  0  0  0  0  0  0
    0.6975    2.3423    4.0923 H   0  0  0  0  0  0  0  0  0  0  0  0
   -1.1390    2.7416    5.1411 C   0  0  0  0  0  0  0  0  0  0  0  0
   -1.2072    3.7825    4.8060 H   0  0  0  0  0  0  0  0  0  0  0  0
   -2.1551    2.3366    5.2048 H   0  0  0  0  0  0  0  0  0  0  0  0
   -0.4897    2.6800    6.4537 N   0  0  0  0  0  0  0  0  0  0  0  0
   -1.0139    3.2071    7.1520 H   0  0  0  0  0  0  0  0  0  0  0  0
   -0.3544    1.7136    6.7514 H   0  0  0  0  0  0  0  0  0  0  0  0
    0.2782    0.6062   -0.6725 C   0  0  0  0  0  0  0  0  0  0  0  0
    0.9311    1.4230   -1.3089 O   0  0  0  0  0  0  0  0  0  0  0  0
    0.4733   -0.7425   -0.8955 N   0  0  0  0  0  0  0  0  0  0  0  0
   -0.0329   -1.3785   -0.2741 H   0  0  0  0  0  0  0  0  0  0  0  0
    1.4877   -1.2780   -1.7921 C   0  0  0  0  0  0  0  0  0  0  0  0
    2.4858   -0.9597   -1.4738 H   0  0  0  0  0  0  0  0  0  0  0  0
    1.4542   -2.3717   -1.7885 H   0  0  0  0  0  0  0  0  0  0  0  0
    1.3159   -0.9299   -2.8157 H   0  0  0  0  0  0  0  0  0  0  0  0
  1  2  1  0  0  0  0
  2  3  1  0  0  0  0
  2  4  1  0  0  0  0
  2  5  1  0  0  0  0
  5  6  2  0  0  0  0
  5  7  1  0  0  0  0
  7  8  1  0  0  0  0
  7  9  1  0  0  0  0
  9 10  1  0  0  0  0
  9 11  1  0  0  0  0
  9 26  1  0  0  0  0
 11 12  1  0  0  0  0
 11 13  1  0  0  0  0
 11 14  1  0  0  0  0
 14 15  1  0  0  0  0
 14 16  1  0  0  0  0
 14 17  1  0  0  0  0
 17 18  1  0  0  0  0
 17 19  1  0  0  0  0
 17 20  1  0  0  0  0
 20 21  1  0  0  0  0
 20 22  1  0  0  0  0
 20 23  1  0  0  0  0
 23 24  1  0  0  0  0
 23 25  1  0  0  0  0
 26 27  2  0  0  0  0
 26 28  1  0  0  0  0
 28 29  1  0  0  0  0
 28 30  1  0  0  0  0
 30 31  1  0  0  0  0
 30 32  1  0  0  0  0
 30 33  1  0  0  0  0
M  END
$$$$

  -OEChem-01062216083D

 33 32  0     1  0  0  0  0  0999 V2000
   -3.8456   -2.3526    1.2200 H   0  0  0  0  0  0  0  0  0  0  0  0
   -3.7969   -1.3403    0.8086 C   0  0  0  0  0  0  0  0  0  0  0  0
   -4.3645   -0.6707    1.4595 H   0  0  0  0  0  0  0  0  0  0  0  0
   -4.2499   -1.3424   -0.1860 H   0  0  0  0  0  0  0  0  0  0  0  0
   -2.3538   -0.8805    0.7211 C   0  0  0  0  0  0  0  0  0  0  0  0
   -1.4554   -1.6694    0.9653 O   0  0  0  0  0  0  0  0  0  0  0  0
   -2.0741    0.3988    0.2777 N   0  0  0  0  0  0  0  0  0  0  0  0
   -2.8855    0.9662    0.0502 H   0  0  0  0  0  0  0  0  0  0  0  0
   -0.7710    1.1018    0.3408 C   0  0  1  0  0  0  0  0  0  0  0  0
   -0.9580    2.1491    0.0822 H   0  0  0  0  0  0  0  0  0  0  0  0
   -0.1537    1.0836    1.7559 C   0  0  0  0  0  0  0  0  0  0  0  0
   -0.0560    0.0598    2.1273 H   0  0  0  0  0  0  0  0  0  0  0  0
    0.8576    1.5019    1.7025 H   0  0  0  0  0  0  0  0  0  0  0  0
   -0.9725    1.9279    2.7416 C   0  0  0  0  0  0  0  0  0  0  0  0
   -1.0351    2.9598    2.3799 H   0  0  0  0  0  0  0  0  0  0  0  0
   -1.9900    1.5304    2.8117 H   0  0  0  0  0  0  0  0  0  0  0  0
   -0.3214    1.9097    4.1289 C   0  0  0  0  0  0  0  0  0  0  0  0
   -0.2439    0.8763    4.4826 H   0  0  0  0  0  0  0  0  0  0  0  0
    0.6909    2.3229    4.0670 H   0  0  0  0  0  0  0  0  0  0  0  0
   -1.1392    2.7258    5.1256 C   0  0  0  0  0  0  0  0  0  0  0  0
   -1.2034    3.7687    4.7955 H   0  0  0  0  0  0  0  0  0  0  0  0
   -2.1570    2.3258    5.1911 H   0  0  0  0  0  0  0  0  0  0  0  0
   -0.4864    2.6547    6.4359 N   0  0  0  0  0  0  0  0  0  0  0  0
   -1.0104    3.1733    7.1406 H   0  0  0  0  0  0  0  0  0  0  0  0
   -0.3459    1.6863    6.7243 H   0  0  0  0  0  0  0  0  0  0  0  0
    0.2636    0.6106   -0.6978 C   0  0  0  0  0  0  0  0  0  0  0  0
    1.0745    1.4059   -1.1545 O   0  0  0  0  0  0  0  0  0  0  0  0
    0.2661   -0.6950   -1.1492 N   0  0  0  0  0  0  0  0  0  0  0  0
   -0.2895   -1.3469   -0.5907 H   0  0  0  0  0  0  0  0  0  0  0  0
    1.2945   -1.2306   -2.0311 C   0  0  0  0  0  0  0  0  0  0  0  0
    2.2772   -1.1733   -1.5519 H   0  0  0  0  0  0  0  0  0  0  0  0
    1.0819   -2.2779   -2.2655 H   0  0  0  0  0  0  0  0  0  0  0  0
    1.3264   -0.6672   -2.9694 H   0  0  0  0  0  0  0  0  0  0  0  0
  1  2  1  0  0  0  0
  2  3  1  0  0  0  0
  2  4  1  0  0  0  0
  2  5  1  0  0  0  0
  5  6  2  0  0  0  0
  5  7  1  0  0  0  0
  7  8  1  0  0  0  0
  7  9  1  0  0  0  0
  9 10  1  0  0  0  0
  9 11  1  0  0  0  0
  9 26  1  0  0  0  0
 11 12  1  0  0  0  0
 11 13  1  0  0  0  0
 11 14  1  0  0  0  0
 14 15  1  0  0  0  0
 14 16  1  0  0  0  0
 14 17  1  0  0  0  0
 17 18  1  0  0  0  0
 17 19  1  0  0  0  0
 17 20  1  0  0  0  0
 20 21  1  0  0  0  0
 20 22  1  0  0  0  0
 20 23  1  0  0  0  0
 23 24  1  0  0  0  0
 23 25  1  0  0  0  0
 26 27  2  0  0  0  0
 26 28  1  0  0  0  0
 28 29  1  0  0  0  0
 28 30  1  0  0  0  0
 30 31  1  0  0  0  0
 30 32  1  0  0  0  0
 30 33  1  0  0  0  0
M  END
$$$$

  -OEChem-01062216083D

 33 32  0     1  0  0  0  0  0999 V2000
   -3.8212   -2.3301    1.2947 H   0  0  0  0  0  0  0  0  0  0  0  0
   -3.7861   -1.3237    0.8672 C   0  0  0  0  0  0  0  0  0  0  0  0
   -4.3235   -0.6430    1.5318 H   0  0  0  0  0  0  0  0  0  0  0  0
   -4.2807   -1.3376   -0.1072 H   0  0  0  0  0  0  0  0  0  0  0  0
   -2.3458   -0.8723    0.7128 C   0  0  0  0  0  0  0  0  0  0  0  0
   -1.4413   -1.6731    0.8794 O   0  0  0  0  0  0  0  0  0  0  0  0
   -2.0743    0.4075    0.2679 N   0  0  0  0  0  0  0  0  0  0  0  0
   -2.8908    0.9892    0.1033 H   0  0  0  0  0  0  0  0  0  0  0  0
   -0.7682    1.1068    0.3298 C   0  0  1  0  0  0  0  0  0  0  0  0
   -0.9496    2.1550    0.0722 H   0  0  0  0  0  0  0  0  0  0  0  0
   -0.1565    1.0806    1.7483 C   0  0  0  0  0  0  0  0  0  0  0  0
   -0.0656    0.0544    2.1150 H   0  0  0  0  0  0  0  0  0  0  0  0
    0.8577    1.4934    1.7033 H   0  0  0  0  0  0  0  0  0  0  0  0
   -0.9754    1.9251    2.7334 C   0  0  0  0  0  0  0  0  0  0  0  0
   -1.0316    2.9582    2.3744 H   0  0  0  0  0  0  0  0  0  0  0  0
   -1.9947    1.5315    2.7985 H   0  0  0  0  0  0  0  0  0  0  0  0
   -0.3307    1.8994    4.1233 C   0  0  0  0  0  0  0  0  0  0  0  0
   -0.2586    0.8648    4.4744 H   0  0  0  0  0  0  0  0  0  0  0  0
    0.6839    2.3080    4.0674 H   0  0  0  0  0  0  0  0  0  0  0  0
   -1.1501    2.7163    5.1180 C   0  0  0  0  0  0  0  0  0  0  0  0
   -1.2070    3.7602    4.7899 H   0  0  0  0  0  0  0  0  0  0  0  0
   -2.1703    2.3213    5.1770 H   0  0  0  0  0  0  0  0  0  0  0  0
   -0.5054    2.6395    6.4320 N   0  0  0  0  0  0  0  0  0  0  0  0
   -1.0299    3.1615    7.1339 H   0  0  0  0  0  0  0  0  0  0  0  0
   -0.3735    1.6700    6.7209 H   0  0  0  0  0  0  0  0  0  0  0  0
    0.2671    0.6163   -0.7100 C   0  0  0  0  0  0  0  0  0  0  0  0
    1.2073    1.3434   -1.0046 O   0  0  0  0  0  0  0  0  0  0  0  0
    0.0938   -0.5744   -1.3895 N   0  0  0  0  0  0  0  0  0  0  0  0
   -0.5397   -1.2310   -0.9315 H   0  0  0  0  0  0  0  0  0  0  0  0
    1.0905   -1.1079   -2.3083 C   0  0  0  0  0  0  0  0  0  0  0  0
    2.0366   -1.2848   -1.7862 H   0  0  0  0  0  0  0  0  0  0  0  0
    0.7436   -2.0554   -2.7314 H   0  0  0  0  0  0  0  0  0  0  0  0
    1.2673   -0.4076   -3.1314 H   0  0  0  0  0  0  0  0  0  0  0  0
  1  2  1  0  0  0  0
  2  3  1  0  0  0  0
  2  4  1  0  0  0  0
  2  5  1  0  0  0  0
  5  6  2  0  0  0  0
  5  7  1  0  0  0  0
  7  8  1  0  0  0  0
  7  9  1  0  0  0  0
  9 10  1  0  0  0  0
  9 11  1  0  0  0  0
  9 26  1  0  0  0  0
 11 12  1  0  0  0  0
 11 13  1  0  0  0  0
 11 14  1  0  0  0  0
 14 15  1  0  0  0  0
 14 16  1  0  0  0  0
 14 17  1  0  0  0  0
 17 18  1  0  0  0  0
 17 19  1  0  0  0  0
 17 20  1  0  0  0  0
 20 21  1  0  0  0  0
 20 22  1  0  0  0  0
 20 23  1  0  0  0  0
 23 24  1  0  0  0  0
 23 25  1  0  0  0  0
 26 27  2  0  0  0  0
 26 28  1  0  0  0  0
 28 29  1  0  0  0  0
 28 30  1  0  0  0  0
 30 31  1  0  0  0  0
 30 32  1  0  0  0  0
 30 33  1  0  0  0  0
M  END
$$$$

  -OEChem-01062216083D

 33 32  0     1  0  0  0  0  0999 V2000
   -3.7618   -2.3217    1.3493 H   0  0  0  0  0  0  0  0  0  0  0  0
   -3.7452   -1.3094    0.9350 C   0  0  0  0  0  0  0  0  0  0  0  0
   -4.2358   -0.6346    1.6407 H   0  0  0  0  0  0  0  0  0  0  0  0
   -4.2975   -1.3054   -0.0077 H   0  0  0  0  0  0  0  0  0  0  0  0
   -2.3140   -0.8648    0.6998 C   0  0  0  0  0  0  0  0  0  0  0  0
   -1.4051   -1.6705    0.8013 O   0  0  0  0  0  0  0  0  0  0  0  0
   -2.0604    0.4185    0.2550 N   0  0  0  0  0  0  0  0  0  0  0  0
   -2.8817    1.0088    0.1596 H   0  0  0  0  0  0  0  0  0  0  0  0
   -0.7541    1.1171    0.3170 C   0  0  1  0  0  0  0  0  0  0  0  0
   -0.9320    2.1663    0.0615 H   0  0  0  0  0  0  0  0  0  0  0  0
   -0.1534    1.0829    1.7415 C   0  0  0  0  0  0  0  0  0  0  0  0
   -0.0675    0.0544    2.1034 H   0  0  0  0  0  0  0  0  0  0  0  0
    0.8614    1.4945    1.7106 H   0  0  0  0  0  0  0  0  0  0  0  0
   -0.9793    1.9251    2.7233 C   0  0  0  0  0  0  0  0  0  0  0  0
   -1.0298    2.9600    2.3686 H   0  0  0  0  0  0  0  0  0  0  0  0
   -2.0003    1.5346    2.7782 H   0  0  0  0  0  0  0  0  0  0  0  0
   -0.3469    1.8921    4.1188 C   0  0  0  0  0  0  0  0  0  0  0  0
   -0.2794    0.8558    4.4658 H   0  0  0  0  0  0  0  0  0  0  0  0
    0.6686    2.2995    4.0733 H   0  0  0  0  0  0  0  0  0  0  0  0
   -1.1731    2.7060    5.1101 C   0  0  0  0  0  0  0  0  0  0  0  0
   -1.2267    3.7515    4.7865 H   0  0  0  0  0  0  0  0  0  0  0  0
   -2.1939    2.3111    5.1589 H   0  0  0  0  0  0  0  0  0  0  0  0
   -0.5384    2.6210    6.4283 N   0  0  0  0  0  0  0  0  0  0  0  0
   -1.0696    3.1358    7.1303 H   0  0  0  0  0  0  0  0  0  0  0  0
   -0.4048    1.6497    6.7104 H   0  0  0  0  0  0  0  0  0  0  0  0
    0.2747    0.6252   -0.7307 C   0  0  0  0  0  0  0  0  0  0  0  0
    1.3316    1.2288   -0.8670 O   0  0  0  0  0  0  0  0  0  0  0  0
   -0.0433   -0.3828   -1.6218 N   0  0  0  0  0  0  0  0  0  0  0  0
   -0.7905   -0.9971   -1.3039 H   0  0  0  0  0  0  0  0  0  0  0  0
    0.9202   -0.9177   -2.5756 C   0  0  0  0  0  0  0  0  0  0  0  0
    1.7710   -1.3641   -2.0501 H   0  0  0  0  0  0  0  0  0  0  0  0
    0.4496   -1.6872   -3.1952 H   0  0  0  0  0  0  0  0  0  0  0  0
    1.2895   -0.1246   -3.2343 H   0  0  0  0  0  0  0  0  0  0  0  0
  1  2  1  0  0  0  0
  2  3  1  0  0  0  0
  2  4  1  0  0  0  0
  2  5  1  0  0  0  0
  5  6  2  0  0  0  0
  5  7  1  0  0  0  0
  7  8  1  0  0  0  0
  7  9  1  0  0  0  0
  9 10  1  0  0  0  0
  9 11  1  0  0  0  0
  9 26  1  0  0  0  0
 11 12  1  0  0  0  0
 11 13  1  0  0  0  0
 11 14  1  0  0  0  0
 14 15  1  0  0  0  0
 14 16  1  0  0  0  0
 14 17  1  0  0  0  0
 17 18  1  0  0  0  0
 17 19  1  0  0  0  0
 17 20  1  0  0  0  0
 20 21  1  0  0  0  0
 20 22  1  0  0  0  0
 20 23  1  0  0  0  0
 23 24  1  0  0  0  0
 23 25  1  0  0  0  0
 26 27  2  0  0  0  0
 26 28  1  0  0  0  0
 28 29  1  0  0  0  0
 28 30  1  0  0  0  0
 30 31  1  0  0  0  0
 30 32  1  0  0  0  0
 30 33  1  0  0  0  0
M  END
$$$$

  -OEChem-01062216083D

 33 32  0     1  0  0  0  0  0999 V2000
   -3.7217   -2.3507    1.3146 H   0  0  0  0  0  0  0  0  0  0  0  0
   -3.7109   -1.3341    0.9110 C   0  0  0  0  0  0  0  0  0  0  0  0
   -4.2131   -0.6711    1.6196 H   0  0  0  0  0  0  0  0  0  0  0  0
   -4.2550   -1.3248   -0.0365 H   0  0  0  0  0  0  0  0  0  0  0  0
   -2.2817   -0.8750    0.6929 C   0  0  0  0  0  0  0  0  0  0  0  0
   -1.3671   -1.6705    0.8111 O   0  0  0  0  0  0  0  0  0  0  0  0
   -2.0393    0.4152    0.2607 N   0  0  0  0  0  0  0  0  0  0  0  0
   -2.8639    1.0036    0.1826 H   0  0  0  0  0  0  0  0  0  0  0  0
   -0.7344    1.1144    0.3288 C   0  0  1  0  0  0  0  0  0  0  0  0
   -0.9129    2.1637    0.0752 H   0  0  0  0  0  0  0  0  0  0  0  0
   -0.1395    1.0834    1.7576 C   0  0  0  0  0  0  0  0  0  0  0  0
   -0.0529    0.0558    2.1220 H   0  0  0  0  0  0  0  0  0  0  0  0
    0.8741    1.4976    1.7343 H   0  0  0  0  0  0  0  0  0  0  0  0
   -0.9717    1.9271    2.7328 C   0  0  0  0  0  0  0  0  0  0  0  0
   -1.0201    2.9610    2.3751 H   0  0  0  0  0  0  0  0  0  0  0  0
   -1.9927    1.5360    2.7826 H   0  0  0  0  0  0  0  0  0  0  0  0
   -0.3476    1.8991    4.1321 C   0  0  0  0  0  0  0  0  0  0  0  0
   -0.2809    0.8639    4.4823 H   0  0  0  0  0  0  0  0  0  0  0  0
    0.6679    2.3072    4.0910 H   0  0  0  0  0  0  0  0  0  0  0  0
   -1.1805    2.7149    5.1164 C   0  0  0  0  0  0  0  0  0  0  0  0
   -1.2338    3.7595    4.7896 H   0  0  0  0  0  0  0  0  0  0  0  0
   -2.2010    2.3189    5.1610 H   0  0  0  0  0  0  0  0  0  0  0  0
   -0.5530    2.6342    6.4384 N   0  0  0  0  0  0  0  0  0  0  0  0
   -1.0930    3.1431    7.1380 H   0  0  0  0  0  0  0  0  0  0  0  0
   -0.4125    1.6638    6.7199 H   0  0  0  0  0  0  0  0  0  0  0  0
    0.2820    0.6253   -0.7340 C   0  0  0  0  0  0  0  0  0  0  0  0
    1.4322    1.0456   -0.7265 O   0  0  0  0  0  0  0  0  0  0  0  0
   -0.1399   -0.1346   -1.8098 N   0  0  0  0  0  0  0  0  0  0  0  0
   -1.0271   -0.6106   -1.6752 H   0  0  0  0  0  0  0  0  0  0  0  0
    0.7806   -0.6600   -2.8107 C   0  0  0  0  0  0  0  0  0  0  0  0
    1.5081   -1.3334   -2.3455 H   0  0  0  0  0  0  0  0  0  0  0  0
    0.2299   -1.2164   -3.5750 H   0  0  0  0  0  0  0  0  0  0  0  0
    1.3206    0.1563   -3.3022 H   0  0  0  0  0  0  0  0  0  0  0  0
  1  2  1  0  0  0  0
  2  3  1  0  0  0  0
  2  4  1  0  0  0  0
  2  5  1  0  0  0  0
  5  6  2  0  0  0  0
  5  7  1  0  0  0  0
  7  8  1  0  0  0  0
  7  9  1  0  0  0  0
  9 10  1  0  0  0  0
  9 11  1  0  0  0  0
  9 26  1  0  0  0  0
 11 12  1  0  0  0  0
 11 13  1  0  0  0  0
 11 14  1  0  0  0  0
 14 15  1  0  0  0  0
 14 16  1  0  0  0  0
 14 17  1  0  0  0  0
 17 18  1  0  0  0  0
 17 19  1  0  0  0  0
 17 20  1  0  0  0  0
 20 21  1  0  0  0  0
 20 22  1  0  0  0  0
 20 23  1  0  0  0  0
 23 24  1  0  0  0  0
 23 25  1  0  0  0  0
 26 27  2  0  0  0  0
 26 28  1  0  0  0  0
 28 29  1  0  0  0  0
 28 30  1  0  0  0  0
 30 31  1  0  0  0  0
 30 32  1  0  0  0  0
 30 33  1  0  0  0  0
M  END
$$$$

  -OEChem-01062216083D

 33 32  0     1  0  0  0  0  0999 V2000
   -3.6856   -2.3769    1.2638 H   0  0  0  0  0  0  0  0  0  0  0  0
   -3.6759   -1.3588    0.8645 C   0  0  0  0  0  0  0  0  0  0  0  0
   -4.2023   -0.7042    1.5631 H   0  0  0  0  0  0  0  0  0  0  0  0
   -4.1969   -1.3524   -0.0959 H   0  0  0  0  0  0  0  0  0  0  0  0
   -2.2467   -0.8836    0.6832 C   0  0  0  0  0  0  0  0  0  0  0  0
   -1.3282   -1.6684    0.8361 O   0  0  0  0  0  0  0  0  0  0  0  0
   -2.0115    0.4124    0.2622 N   0  0  0  0  0  0  0  0  0  0  0  0
   -2.8395    0.9961    0.1879 H   0  0  0  0  0  0  0  0  0  0  0  0
   -0.7099    1.1155    0.3399 C   0  0  1  0  0  0  0  0  0  0  0  0
   -0.8876    2.1649    0.0873 H   0  0  0  0  0  0  0  0  0  0  0  0
   -0.1209    1.0884    1.7725 C   0  0  0  0  0  0  0  0  0  0  0  0
   -0.0299    0.0619    2.1388 H   0  0  0  0  0  0  0  0  0  0  0  0
    0.8902    1.5084    1.7543 H   0  0  0  0  0  0  0  0  0  0  0  0
   -0.9621    1.9301    2.7422 C   0  0  0  0  0  0  0  0  0  0  0  0
   -1.0160    2.9632    2.3831 H   0  0  0  0  0  0  0  0  0  0  0  0
   -1.9806    1.5316    2.7881 H   0  0  0  0  0  0  0  0  0  0  0  0
   -0.3456    1.9073    4.1450 C   0  0  0  0  0  0  0  0  0  0  0  0
   -0.2768    0.8729    4.4972 H   0  0  0  0  0  0  0  0  0  0  0  0
    0.6683    2.3197    4.1095 H   0  0  0  0  0  0  0  0  0  0  0  0
   -1.1876    2.7212    5.1232 C   0  0  0  0  0  0  0  0  0  0  0  0
   -1.2431    3.7648    4.7941 H   0  0  0  0  0  0  0  0  0  0  0  0
   -2.2069    2.3214    5.1623 H   0  0  0  0  0  0  0  0  0  0  0  0
   -0.5677    2.6464    6.4492 N   0  0  0  0  0  0  0  0  0  0  0  0
   -1.1141    3.1540    7.1448 H   0  0  0  0  0  0  0  0  0  0  0  0
   -0.4238    1.6772    6.7334 H   0  0  0  0  0  0  0  0  0  0  0  0
    0.2931    0.6223   -0.7344 C   0  0  0  0  0  0  0  0  0  0  0  0
    1.4967    0.8119   -0.6119 O   0  0  0  0  0  0  0  0  0  0  0  0
   -0.1807    0.1490   -1.9450 N   0  0  0  0  0  0  0  0  0  0  0  0
   -1.1572   -0.1268   -1.9532 H   0  0  0  0  0  0  0  0  0  0  0  0
    0.6956   -0.3637   -2.9910 C   0  0  0  0  0  0  0  0  0  0  0  0
    1.2662   -1.2233   -2.6241 H   0  0  0  0  0  0  0  0  0  0  0  0
    0.1058   -0.6813   -3.8559 H   0  0  0  0  0  0  0  0  0  0  0  0
    1.3966    0.4110   -3.3193 H   0  0  0  0  0  0  0  0  0  0  0  0
  1  2  1  0  0  0  0
  2  3  1  0  0  0  0
  2  4  1  0  0  0  0
  2  5  1  0  0  0  0
  5  6  2  0  0  0  0
  5  7  1  0  0  0  0
  7  8  1  0  0  0  0
  7  9  1  0  0  0  0
  9 10  1  0  0  0  0
  9 11  1  0  0  0  0
  9 26  1  0  0  0  0
 11 12  1  0  0  0  0
 11 13  1  0  0  0  0
 11 14  1  0  0  0  0
 14 15  1  0  0  0  0
 14 16  1  0  0  0  0
 14 17  1  0  0  0  0
 17 18  1  0  0  0  0
 17 19  1  0  0  0  0
 17 20  1  0  0  0  0
 20 21  1  0  0  0  0
 20 22  1  0  0  0  0
 20 23  1  0  0  0  0
 23 24  1  0  0  0  0
 23 25  1  0  0  0  0
 26 27  2  0  0  0  0
 26 28  1  0  0  0  0
 28 29  1  0  0  0  0
 28 30  1  0  0  0  0
 30 31  1  0  0  0  0
 30 32  1  0  0  0  0
 30 33  1  0  0  0  0
M  END
$$$$

  -OEChem-01062216083D

 33 32  0     1  0  0  0  0  0999 V2000
   -3.6763   -2.3936    1.2430 H   0  0  0  0  0  0  0  0  0  0  0  0
   -3.6648   -1.3698    0.8580 C   0  0  0  0  0  0  0  0  0  0  0  0
   -4.1876   -0.7236    1.5673 H   0  0  0  0  0  0  0  0  0  0  0  0
   -4.1881   -1.3486   -0.1008 H   0  0  0  0  0  0  0  0  0  0  0  0
   -2.2345   -0.8963    0.6797 C   0  0  0  0  0  0  0  0  0  0  0  0
   -1.3187   -1.6793    0.8542 O   0  0  0  0  0  0  0  0  0  0  0  0
   -1.9978    0.4005    0.2607 N   0  0  0  0  0  0  0  0  0  0  0  0
   -2.8264    0.9827    0.1849 H   0  0  0  0  0  0  0  0  0  0  0  0
   -0.6968    1.1025    0.3429 C   0  0  1  0  0  0  0  0  0  0  0  0
   -0.8719    2.1519    0.0889 H   0  0  0  0  0  0  0  0  0  0  0  0
   -0.1133    1.0808    1.7775 C   0  0  0  0  0  0  0  0  0  0  0  0
   -0.0242    0.0557    2.1478 H   0  0  0  0  0  0  0  0  0  0  0  0
    0.8977    1.5017    1.7603 H   0  0  0  0  0  0  0  0  0  0  0  0
   -0.9579    1.9267    2.7402 C   0  0  0  0  0  0  0  0  0  0  0  0
   -1.0088    2.9581    2.3764 H   0  0  0  0  0  0  0  0  0  0  0  0
   -1.9771    1.5304    2.7827 H   0  0  0  0  0  0  0  0  0  0  0  0
   -0.3469    1.9094    4.1453 C   0  0  0  0  0  0  0  0  0  0  0  0
   -0.2797    0.8763    4.5022 H   0  0  0  0  0  0  0  0  0  0  0  0
    0.6671    2.3218    4.1115 H   0  0  0  0  0  0  0  0  0  0  0  0
   -1.1923    2.7274    5.1167 C   0  0  0  0  0  0  0  0  0  0  0  0
   -1.2471    3.7696    4.7831 H   0  0  0  0  0  0  0  0  0  0  0  0
   -2.2116    2.3271    5.1539 H   0  0  0  0  0  0  0  0  0  0  0  0
   -0.5771    2.6572    6.4450 N   0  0  0  0  0  0  0  0  0  0  0  0
   -1.1270    3.1657    7.1372 H   0  0  0  0  0  0  0  0  0  0  0  0
   -0.4327    1.6889    6.7323 H   0  0  0  0  0  0  0  0  0  0  0  0
    0.3013    0.6029   -0.7329 C   0  0  0  0  0  0  0  0  0  0  0  0
    1.5059    0.5493   -0.5195 O   0  0  0  0  0  0  0  0  0  0  0  0
   -0.1434    0.4309   -2.0319 N   0  0  0  0  0  0  0  0  0  0  0  0
   -1.1486    0.3730   -2.1560 H   0  0  0  0  0  0  0  0  0  0  0  0
    0.7230   -0.0189   -3.1148 C   0  0  0  0  0  0  0  0  0  0  0  0
    1.1130   -1.0198   -2.9021 H   0  0  0  0  0  0  0  0  0  0  0  0
    0.1653   -0.0549   -4.0554 H   0  0  0  0  0  0  0  0  0  0  0  0
    1.5664    0.6680   -3.2419 H   0  0  0  0  0  0  0  0  0  0  0  0
  1  2  1  0  0  0  0
  2  3  1  0  0  0  0
  2  4  1  0  0  0  0
  2  5  1  0  0  0  0
  5  6  2  0  0  0  0
  5  7  1  0  0  0  0
  7  8  1  0  0  0  0
  7  9  1  0  0  0  0
  9 10  1  0  0  0  0
  9 11  1  0  0  0  0
  9 26  1  0  0  0  0
 11 12  1  0  0  0  0
 11 13  1  0  0  0  0
 11 14  1  0  0  0  0
 14 15  1  0  0  0  0
 14 16  1  0  0  0  0
 14 17  1  0  0  0  0
 17 18  1  0  0  0  0
 17 19  1  0  0  0  0
 17 20  1  0  0  0  0
 20 21  1  0  0  0  0
 20 22  1  0  0  0  0
 20 23  1  0  0  0  0
 23 24  1  0  0  0  0
 23 25  1  0  0  0  0
 26 27  2  0  0  0  0
 26 28  1  0  0  0  0
 28 29  1  0  0  0  0
 28 30  1  0  0  0  0
 30 31  1  0  0  0  0
 30 32  1  0  0  0  0
 30 33  1  0  0  0  0
M  END
$$$$

  -OEChem-01062216083D

 33 32  0     1  0  0  0  0  0999 V2000
   -3.6918   -2.4145    1.1855 H   0  0  0  0  0  0  0  0  0  0  0  0
   -3.6710   -1.3938    0.7925 C   0  0  0  0  0  0  0  0  0  0  0  0
   -4.2375   -0.7475    1.4671 H   0  0  0  0  0  0  0  0  0  0  0  0
   -4.1432   -1.3872   -0.1929 H   0  0  0  0  0  0  0  0  0  0  0  0
   -2.2381   -0.9063    0.6851 C   0  0  0  0  0  0  0  0  0  0  0  0
   -1.3276   -1.6799    0.9168 O   0  0  0  0  0  0  0  0  0  0  0  0
   -1.9966    0.3904    0.2676 N   0  0  0  0  0  0  0  0  0  0  0  0
   -2.8263    0.9613    0.1414 H   0  0  0  0  0  0  0  0  0  0  0  0
   -0.7001    1.0995    0.3501 C   0  0  1  0  0  0  0  0  0  0  0  0
   -0.8800    2.1482    0.0965 H   0  0  0  0  0  0  0  0  0  0  0  0
   -0.1107    1.0871    1.7818 C   0  0  0  0  0  0  0  0  0  0  0  0
   -0.0137    0.0638    2.1552 H   0  0  0  0  0  0  0  0  0  0  0  0
    0.8986    1.5123    1.7549 H   0  0  0  0  0  0  0  0  0  0  0  0
   -0.9553    1.9305    2.7470 C   0  0  0  0  0  0  0  0  0  0  0  0
   -1.0156    2.9608    2.3812 H   0  0  0  0  0  0  0  0  0  0  0  0
   -1.9715    1.5270    2.7965 H   0  0  0  0  0  0  0  0  0  0  0  0
   -0.3352    1.9202    4.1483 C   0  0  0  0  0  0  0  0  0  0  0  0
   -0.2590    0.8883    4.5066 H   0  0  0  0  0  0  0  0  0  0  0  0
    0.6761    2.3383    4.1069 H   0  0  0  0  0  0  0  0  0  0  0  0
   -1.1786    2.7350    5.1249 C   0  0  0  0  0  0  0  0  0  0  0  0
   -1.2427    3.7767    4.7907 H   0  0  0  0  0  0  0  0  0  0  0  0
   -2.1947    2.3281    5.1704 H   0  0  0  0  0  0  0  0  0  0  0  0
   -0.5537    2.6709    6.4487 N   0  0  0  0  0  0  0  0  0  0  0  0
   -1.1033    3.1750    7.1442 H   0  0  0  0  0  0  0  0  0  0  0  0
   -0.4006    1.7036    6.7351 H   0  0  0  0  0  0  0  0  0  0  0  0
    0.2952    0.5981   -0.7267 C   0  0  0  0  0  0  0  0  0  0  0  0
    1.4493    0.2914   -0.4560 O   0  0  0  0  0  0  0  0  0  0  0  0
   -0.0542    0.7187   -2.0603 N   0  0  0  0  0  0  0  0  0  0  0  0
   -1.0323    0.8975   -2.2599 H   0  0  0  0  0  0  0  0  0  0  0  0
    0.8208    0.3083   -3.1520 C   0  0  0  0  0  0  0  0  0  0  0  0
    1.0471   -0.7608   -3.0799 H   0  0  0  0  0  0  0  0  0  0  0  0
    0.3376    0.4972   -4.1153 H   0  0  0  0  0  0  0  0  0  0  0  0
    1.7603    0.8701   -3.1221 H   0  0  0  0  0  0  0  0  0  0  0  0
  1  2  1  0  0  0  0
  2  3  1  0  0  0  0
  2  4  1  0  0  0  0
  2  5  1  0  0  0  0
  5  6  2  0  0  0  0
  5  7  1  0  0  0  0
  7  8  1  0  0  0  0
  7  9  1  0  0  0  0
  9 10  1  0  0  0  0
  9 11  1  0  0  0  0
  9 26  1  0  0  0  0
 11 12  1  0  0  0  0
 11 13  1  0  0  0  0
 11 14  1  0  0  0  0
 14 15  1  0  0  0  0
 14 16  1  0  0  0  0
 14 17  1  0  0  0  0
 17 18  1  0  0  0  0
 17 19  1  0  0  0  0
 17 20  1  0  0  0  0
 20 21  1  0  0  0  0
 20 22  1  0  0  0  0
 20 23  1  0  0  0  0
 23 24  1  0  0  0  0
 23 25  1  0  0  0  0
 26 27  2  0  0  0  0
 26 28  1  0  0  0  0
 28 29  1  0  0  0  0
 28 30  1  0  0  0  0
 30 31  1  0  0  0  0
 30 32  1  0  0  0  0
 30 33  1  0  0  0  0
M  END
$$$$

  -OEChem-01062216083D

 33 32  0     1  0  0  0  0  0999 V2000
   -3.7331   -2.4392    1.1222 H   0  0  0  0  0  0  0  0  0  0  0  0
   -3.6936   -1.4315    0.6986 C   0  0  0  0  0  0  0  0  0  0  0  0
   -4.3301   -0.7752    1.2966 H   0  0  0  0  0  0  0  0  0  0  0  0
   -4.0735   -1.4664   -0.3253 H   0  0  0  0  0  0  0  0  0  0  0  0
   -2.2652   -0.9195    0.7046 C   0  0  0  0  0  0  0  0  0  0  0  0
   -1.3699   -1.6727    1.0381 O   0  0  0  0  0  0  0  0  0  0  0  0
   -2.0163    0.3752    0.2838 N   0  0  0  0  0  0  0  0  0  0  0  0
   -2.8411    0.9202    0.0537 H   0  0  0  0  0  0  0  0  0  0  0  0
   -0.7264    1.0963    0.3602 C   0  0  1  0  0  0  0  0  0  0  0  0
   -0.9192    2.1428    0.1075 H   0  0  0  0  0  0  0  0  0  0  0  0
   -0.1190    1.0988    1.7835 C   0  0  0  0  0  0  0  0  0  0  0  0
   -0.0049    0.0792    2.1621 H   0  0  0  0  0  0  0  0  0  0  0  0
    0.8857    1.5325    1.7367 H   0  0  0  0  0  0  0  0  0  0  0  0
   -0.9582    1.9371    2.7574 C   0  0  0  0  0  0  0  0  0  0  0  0
   -1.0369    2.9653    2.3888 H   0  0  0  0  0  0  0  0  0  0  0  0
   -1.9682    1.5200    2.8247 H   0  0  0  0  0  0  0  0  0  0  0  0
   -0.3151    1.9382    4.1485 C   0  0  0  0  0  0  0  0  0  0  0  0
   -0.2225    0.9084    4.5082 H   0  0  0  0  0  0  0  0  0  0  0  0
    0.6912    2.3662    4.0888 H   0  0  0  0  0  0  0  0  0  0  0  0
   -1.1484    2.7467    5.1381 C   0  0  0  0  0  0  0  0  0  0  0  0
   -1.2286    3.7870    4.8031 H   0  0  0  0  0  0  0  0  0  0  0  0
   -2.1596    2.3301    5.2031 H   0  0  0  0  0  0  0  0  0  0  0  0
   -0.4969    2.6905    6.4498 N   0  0  0  0  0  0  0  0  0  0  0  0
   -1.0419    3.1823    7.1576 H   0  0  0  0  0  0  0  0  0  0  0  0
   -0.3206    1.7254    6.7302 H   0  0  0  0  0  0  0  0  0  0  0  0
    0.2734    0.5986   -0.7140 C   0  0  0  0  0  0  0  0  0  0  0  0
    1.3242    0.0431   -0.4223 O   0  0  0  0  0  0  0  0  0  0  0  0
    0.0830    0.9811   -2.0310 N   0  0  0  0  0  0  0  0  0  0  0  0
   -0.8040    1.4129   -2.2664 H   0  0  0  0  0  0  0  0  0  0  0  0
    0.9953    0.6147   -3.1084 C   0  0  0  0  0  0  0  0  0  0  0  0
    1.0597   -0.4746   -3.2010 H   0  0  0  0  0  0  0  0  0  0  0  0
    0.6416    1.0235   -4.0596 H   0  0  0  0  0  0  0  0  0  0  0  0
    1.9975    1.0117   -2.9145 H   0  0  0  0  0  0  0  0  0  0  0  0
  1  2  1  0  0  0  0
  2  3  1  0  0  0  0
  2  4  1  0  0  0  0
  2  5  1  0  0  0  0
  5  6  2  0  0  0  0
  5  7  1  0  0  0  0
  7  8  1  0  0  0  0
  7  9  1  0  0  0  0
  9 10  1  0  0  0  0
  9 11  1  0  0  0  0
  9 26  1  0  0  0  0
 11 12  1  0  0  0  0
 11 13  1  0  0  0  0
 11 14  1  0  0  0  0
 14 15  1  0  0  0  0
 14 16  1  0  0  0  0
 14 17  1  0  0  0  0
 17 18  1  0  0  0  0
 17 19  1  0  0  0  0
 17 20  1  0  0  0  0
 20 21  1  0  0  0  0
 20 22  1  0  0  0  0
 20 23  1  0  0  0  0
 23 24  1  0  0  0  0
 23 25  1  0  0  0  0
 26 27  2  0  0  0  0
 26 28  1  0  0  0  0
 28 29  1  0  0  0  0
 28 30  1  0  0  0  0
 30 31  1  0  0  0  0
 30 32  1  0  0  0  0
 30 33  1  0  0  0  0
M  END
$$$$

  -OEChem-01062216083D

 33 32  0     1  0  0  0  0  0999 V2000
   -3.7569   -2.4652    1.0395 H   0  0  0  0  0  0  0  0  0  0  0  0
   -3.7021   -1.4538    0.6264 C   0  0  0  0  0  0  0  0  0  0  0  0
   -4.3844   -0.8094    1.1858 H   0  0  0  0  0  0  0  0  0  0  0  0
   -4.0132   -1.4849   -0.4204 H   0  0  0  0  0  0  0  0  0  0  0  0
   -2.2840   -0.9235    0.7302 C   0  0  0  0  0  0  0  0  0  0  0  0
   -1.4178   -1.6516    1.1763 O   0  0  0  0  0  0  0  0  0  0  0  0
   -2.0281    0.3691    0.3050 N   0  0  0  0  0  0  0  0  0  0  0  0
   -2.8339    0.8729   -0.0506 H   0  0  0  0  0  0  0  0  0  0  0  0
   -0.7435    1.1012    0.3685 C   0  0  1  0  0  0  0  0  0  0  0  0
   -0.9505    2.1463    0.1221 H   0  0  0  0  0  0  0  0  0  0  0  0
   -0.1134    1.1070    1.7809 C   0  0  0  0  0  0  0  0  0  0  0  0
    0.0189    0.0895    2.1585 H   0  0  0  0  0  0  0  0  0  0  0  0
    0.8861    1.5502    1.7159 H   0  0  0  0  0  0  0  0  0  0  0  0
   -0.9481    1.9360    2.7662 C   0  0  0  0  0  0  0  0  0  0  0  0
   -1.0445    2.9626    2.3979 H   0  0  0  0  0  0  0  0  0  0  0  0
   -1.9519    1.5064    2.8457 H   0  0  0  0  0  0  0  0  0  0  0  0
   -0.2913    1.9474    4.1504 C   0  0  0  0  0  0  0  0  0  0  0  0
   -0.1835    0.9195    4.5118 H   0  0  0  0  0  0  0  0  0  0  0  0
    0.7092    2.3873    4.0812 H   0  0  0  0  0  0  0  0  0  0  0  0
   -1.1284    2.7491    5.1425 C   0  0  0  0  0  0  0  0  0  0  0  0
   -1.2245    3.7866    4.8035 H   0  0  0  0  0  0  0  0  0  0  0  0
   -2.1337    2.3193    5.2151 H   0  0  0  0  0  0  0  0  0  0  0  0
   -0.4693    2.7079    6.4510 N   0  0  0  0  0  0  0  0  0  0  0  0
   -1.0150    3.2008    7.1575 H   0  0  0  0  0  0  0  0  0  0  0  0
   -0.2859    1.7459    6.7375 H   0  0  0  0  0  0  0  0  0  0  0  0
    0.2577    0.6103   -0.7071 C   0  0  0  0  0  0  0  0  0  0  0  0
    1.1485   -0.1893   -0.4561 O   0  0  0  0  0  0  0  0  0  0  0  0
    0.2601    1.2188   -1.9513 N   0  0  0  0  0  0  0  0  0  0  0  0
   -0.4774    1.8859   -2.1514 H   0  0  0  0  0  0  0  0  0  0  0  0
    1.2013    0.8706   -3.0099 C   0  0  0  0  0  0  0  0  0  0  0  0
    1.1026   -0.1869   -3.2768 H   0  0  0  0  0  0  0  0  0  0  0  0
    1.0063    1.4726   -3.9025 H   0  0  0  0  0  0  0  0  0  0  0  0
    2.2305    1.0575   -2.6855 H   0  0  0  0  0  0  0  0  0  0  0  0
  1  2  1  0  0  0  0
  2  3  1  0  0  0  0
  2  4  1  0  0  0  0
  2  5  1  0  0  0  0
  5  6  2  0  0  0  0
  5  7  1  0  0  0  0
  7  8  1  0  0  0  0
  7  9  1  0  0  0  0
  9 10  1  0  0  0  0
  9 11  1  0  0  0  0
  9 26  1  0  0  0  0
 11 12  1  0  0  0  0
 11 13  1  0  0  0  0
 11 14  1  0  0  0  0
 14 15  1  0  0  0  0
 14 16  1  0  0  0  0
 14 17  1  0  0  0  0
 17 18  1  0  0  0  0
 17 19  1  0  0  0  0
 17 20  1  0  0  0  0
 20 21  1  0  0  0  0
 20 22  1  0  0  0  0
 20 23  1  0  0  0  0
 23 24  1  0  0  0  0
 23 25  1  0  0  0  0
 26 27  2  0  0  0  0
 26 28  1  0  0  0  0
 28 29  1  0  0  0  0
 28 30  1  0  0  0  0
 30 31  1  0  0  0  0
 30 32  1  0  0  0  0
 30 33  1  0  0  0  0
M  END
$$$$

  -OEChem-01062216083D

 33 32  0     1  0  0  0  0  0999 V2000
   -3.7362   -2.5568    0.8111 H   0  0  0  0  0  0  0  0  0  0  0  0
   -3.6860   -1.5313    0.4337 C   0  0  0  0  0  0  0  0  0  0  0  0
   -4.4878   -0.9482    0.8927 H   0  0  0  0  0  0  0  0  0  0  0  0
   -3.8279   -1.5504   -0.6494 H   0  0  0  0  0  0  0  0  0  0  0  0
   -2.3400   -0.9167    0.7698 C   0  0  0  0  0  0  0  0  0  0  0  0
   -1.5547   -1.5684    1.4323 O   0  0  0  0  0  0  0  0  0  0  0  0
   -2.0817    0.3744    0.3381 N   0  0  0  0  0  0  0  0  0  0  0  0
   -2.8164    0.7817   -0.2312 H   0  0  0  0  0  0  0  0  0  0  0  0
   -0.7982    1.1103    0.3983 C   0  0  1  0  0  0  0  0  0  0  0  0
   -1.0191    2.1519    0.1507 H   0  0  0  0  0  0  0  0  0  0  0  0
   -0.1354    1.1314    1.7935 C   0  0  0  0  0  0  0  0  0  0  0  0
    0.0201    0.1197    2.1756 H   0  0  0  0  0  0  0  0  0  0  0  0
    0.8574    1.5843    1.7001 H   0  0  0  0  0  0  0  0  0  0  0  0
   -0.9511    1.9602    2.7936 C   0  0  0  0  0  0  0  0  0  0  0  0
   -1.0654    2.9840    2.4230 H   0  0  0  0  0  0  0  0  0  0  0  0
   -1.9493    1.5234    2.9011 H   0  0  0  0  0  0  0  0  0  0  0  0
   -0.2548    1.9816    4.1583 C   0  0  0  0  0  0  0  0  0  0  0  0
   -0.1313    0.9554    4.5203 H   0  0  0  0  0  0  0  0  0  0  0  0
    0.7409    2.4262    4.0585 H   0  0  0  0  0  0  0  0  0  0  0  0
   -1.0663    2.7816    5.1721 C   0  0  0  0  0  0  0  0  0  0  0  0
   -1.1791    3.8174    4.8334 H   0  0  0  0  0  0  0  0  0  0  0  0
   -2.0663    2.3463    5.2763 H   0  0  0  0  0  0  0  0  0  0  0  0
   -0.3666    2.7478    6.4595 N   0  0  0  0  0  0  0  0  0  0  0  0
   -0.9001    3.2281    7.1837 H   0  0  0  0  0  0  0  0  0  0  0  0
   -0.1592    1.7877    6.7365 H   0  0  0  0  0  0  0  0  0  0  0  0
    0.2058    0.6192   -0.6728 C   0  0  0  0  0  0  0  0  0  0  0  0
    0.8303   -0.4246   -0.5528 O   0  0  0  0  0  0  0  0  0  0  0  0
    0.4403    1.3989   -1.7930 N   0  0  0  0  0  0  0  0  0  0  0  0
   -0.0450    2.2873   -1.8623 H   0  0  0  0  0  0  0  0  0  0  0  0
    1.4169    1.0490   -2.8182 C   0  0  0  0  0  0  0  0  0  0  0  0
    1.1723    0.0802   -3.2663 H   0  0  0  0  0  0  0  0  0  0  0  0
    1.4218    1.8040   -3.6101 H   0  0  0  0  0  0  0  0  0  0  0  0
    2.4217    0.9931   -2.3861 H   0  0  0  0  0  0  0  0  0  0  0  0
  1  2  1  0  0  0  0
  2  3  1  0  0  0  0
  2  4  1  0  0  0  0
  2  5  1  0  0  0  0
  5  6  2  0  0  0  0
  5  7  1  0  0  0  0
  7  8  1  0  0  0  0
  7  9  1  0  0  0  0
  9 10  1  0  0  0  0
  9 11  1  0  0  0  0
  9 26  1  0  0  0  0
 11 12  1  0  0  0  0
 11 13  1  0  0  0  0
 11 14  1  0  0  0  0
 14 15  1  0  0  0  0
 14 16  1  0  0  0  0
 14 17  1  0  0  0  0
 17 18  1  0  0  0  0
 17 19  1  0  0  0  0
 17 20  1  0  0  0  0
 20 21  1  0  0  0  0
 20 22  1  0  0  0  0
 20 23  1  0  0  0  0
 23 24  1  0  0  0  0
 23 25  1  0  0  0  0
 26 27  2  0  0  0  0
 26 28  1  0  0  0  0
 28 29  1  0  0  0  0
 28 30  1  0  0  0  0
 30 31  1  0  0  0  0
 30 32  1  0  0  0  0
 30 33  1  0  0  0  0
M  END
$$$$

  -OEChem-01062216083D

 33 32  0     1  0  0  0  0  0999 V2000
   -3.6745   -2.5939    0.6955 H   0  0  0  0  0  0  0  0  0  0  0  0
   -3.6215   -1.5755    0.3002 C   0  0  0  0  0  0  0  0  0  0  0  0
   -4.5023   -1.0217    0.6332 H   0  0  0  0  0  0  0  0  0  0  0  0
   -3.6171   -1.6249   -0.7912 H   0  0  0  0  0  0  0  0  0  0  0  0
   -2.3604   -0.8899    0.7916 C   0  0  0  0  0  0  0  0  0  0  0  0
   -1.6570   -1.4774    1.5935 O   0  0  0  0  0  0  0  0  0  0  0  0
   -2.1055    0.4022    0.3589 N   0  0  0  0  0  0  0  0  0  0  0  0
   -2.7686    0.7364   -0.3328 H   0  0  0  0  0  0  0  0  0  0  0  0
   -0.8166    1.1292    0.4276 C   0  0  1  0  0  0  0  0  0  0  0  0
   -1.0369    2.1711    0.1802 H   0  0  0  0  0  0  0  0  0  0  0  0
   -0.1376    1.1467    1.8144 C   0  0  0  0  0  0  0  0  0  0  0  0
    0.0263    0.1353    2.1936 H   0  0  0  0  0  0  0  0  0  0  0  0
    0.8534    1.6012    1.7108 H   0  0  0  0  0  0  0  0  0  0  0  0
   -0.9428    1.9774    2.8213 C   0  0  0  0  0  0  0  0  0  0  0  0
   -1.0592    3.0009    2.4505 H   0  0  0  0  0  0  0  0  0  0  0  0
   -1.9406    1.5412    2.9367 H   0  0  0  0  0  0  0  0  0  0  0  0
   -0.2367    2.0002    4.1808 C   0  0  0  0  0  0  0  0  0  0  0  0
   -0.1123    0.9744    4.5439 H   0  0  0  0  0  0  0  0  0  0  0  0
    0.7587    2.4439    4.0735 H   0  0  0  0  0  0  0  0  0  0  0  0
   -1.0399    2.8030    5.1995 C   0  0  0  0  0  0  0  0  0  0  0  0
   -1.1540    3.8386    4.8605 H   0  0  0  0  0  0  0  0  0  0  0  0
   -2.0395    2.3687    5.3125 H   0  0  0  0  0  0  0  0  0  0  0  0
   -0.3296    2.7694    6.4810 N   0  0  0  0  0  0  0  0  0  0  0  0
   -0.8507    3.2617    7.2063 H   0  0  0  0  0  0  0  0  0  0  0  0
   -0.1327    1.8087    6.7630 H   0  0  0  0  0  0  0  0  0  0  0  0
    0.1880    0.6325   -0.6404 C   0  0  0  0  0  0  0  0  0  0  0  0
    0.4841   -0.5484   -0.7518 O   0  0  0  0  0  0  0  0  0  0  0  0
    0.6750    1.5217   -1.5836 N   0  0  0  0  0  0  0  0  0  0  0  0
    0.4486    2.5042   -1.4675 H   0  0  0  0  0  0  0  0  0  0  0  0
    1.6091    1.1363   -2.6355 C   0  0  0  0  0  0  0  0  0  0  0  0
    1.1709    0.3605   -3.2725 H   0  0  0  0  0  0  0  0  0  0  0  0
    1.8515    2.0001   -3.2617 H   0  0  0  0  0  0  0  0  0  0  0  0
    2.5379    0.7521   -2.2008 H   0  0  0  0  0  0  0  0  0  0  0  0
  1  2  1  0  0  0  0
  2  3  1  0  0  0  0
  2  4  1  0  0  0  0
  2  5  1  0  0  0  0
  5  6  2  0  0  0  0
  5  7  1  0  0  0  0
  7  8  1  0  0  0  0
  7  9  1  0  0  0  0
  9 10  1  0  0  0  0
  9 11  1  0  0  0  0
  9 26  1  0  0  0  0
 11 12  1  0  0  0  0
 11 13  1  0  0  0  0
 11 14  1  0  0  0  0
 14 15  1  0  0  0  0
 14 16  1  0  0  0  0
 14 17  1  0  0  0  0
 17 18  1  0  0  0  0
 17 19  1  0  0  0  0
 17 20  1  0  0  0  0
 20 21  1  0  0  0  0
 20 22  1  0  0  0  0
 20 23  1  0  0  0  0
 23 24  1  0  0  0  0
 23 25  1  0  0  0  0
 26 27  2  0  0  0  0
 26 28  1  0  0  0  0
 28 29  1  0  0  0  0
 28 30  1  0  0  0  0
 30 31  1  0  0  0  0
 30 32  1  0  0  0  0
 30 33  1  0  0  0  0
M  END
$$$$

  -OEChem-01062216083D

 33 32  0     1  0  0  0  0  0999 V2000
   -3.6375   -2.6211    0.6365 H   0  0  0  0  0  0  0  0  0  0  0  0
   -3.6010   -1.5949    0.2597 C   0  0  0  0  0  0  0  0  0  0  0  0
   -4.5046   -1.0700    0.5778 H   0  0  0  0  0  0  0  0  0  0  0  0
   -3.5665   -1.6253   -0.8320 H   0  0  0  0  0  0  0  0  0  0  0  0
   -2.3712   -0.8859    0.7961 C   0  0  0  0  0  0  0  0  0  0  0  0
   -1.6860   -1.4585    1.6252 O   0  0  0  0  0  0  0  0  0  0  0  0
   -2.1165    0.4074    0.3673 N   0  0  0  0  0  0  0  0  0  0  0  0
   -2.7464    0.7163   -0.3661 H   0  0  0  0  0  0  0  0  0  0  0  0
   -0.8204    1.1212    0.4410 C   0  0  1  0  0  0  0  0  0  0  0  0
   -1.0357    2.1634    0.1897 H   0  0  0  0  0  0  0  0  0  0  0  0
   -0.1393    1.1393    1.8266 C   0  0  0  0  0  0  0  0  0  0  0  0
    0.0177    0.1290    2.2109 H   0  0  0  0  0  0  0  0  0  0  0  0
    0.8547    1.5864    1.7221 H   0  0  0  0  0  0  0  0  0  0  0  0
   -0.9367    1.9820    2.8290 C   0  0  0  0  0  0  0  0  0  0  0  0
   -1.0459    3.0046    2.4533 H   0  0  0  0  0  0  0  0  0  0  0  0
   -1.9377    1.5539    2.9474 H   0  0  0  0  0  0  0  0  0  0  0  0
   -0.2290    2.0055    4.1875 C   0  0  0  0  0  0  0  0  0  0  0  0
   -0.1136    0.9806    4.5557 H   0  0  0  0  0  0  0  0  0  0  0  0
    0.7702    2.4395    4.0772 H   0  0  0  0  0  0  0  0  0  0  0  0
   -1.0248    2.8206    5.2019 C   0  0  0  0  0  0  0  0  0  0  0  0
   -1.1301    3.8547    4.8557 H   0  0  0  0  0  0  0  0  0  0  0  0
   -2.0283    2.3959    5.3172 H   0  0  0  0  0  0  0  0  0  0  0  0
   -0.3151    2.7889    6.4840 N   0  0  0  0  0  0  0  0  0  0  0  0
   -0.8295    3.2955    7.2042 H   0  0  0  0  0  0  0  0  0  0  0  0
   -0.1325    1.8281    6.7756 H   0  0  0  0  0  0  0  0  0  0  0  0
    0.1853    0.6260   -0.6270 C   0  0  0  0  0  0  0  0  0  0  0  0
    0.2194   -0.5425   -0.9890 O   0  0  0  0  0  0  0  0  0  0  0  0
    0.9150    1.5541   -1.3503 N   0  0  0  0  0  0  0  0  0  0  0  0
    0.8917    2.5192   -1.0358 H   0  0  0  0  0  0  0  0  0  0  0  0
    1.8428    1.1861   -2.4136 C   0  0  0  0  0  0  0  0  0  0  0  0
    1.3131    0.6772   -3.2255 H   0  0  0  0  0  0  0  0  0  0  0  0
    2.3232    2.0801   -2.8221 H   0  0  0  0  0  0  0  0  0  0  0  0
    2.6216    0.5193   -2.0284 H   0  0  0  0  0  0  0  0  0  0  0  0
  1  2  1  0  0  0  0
  2  3  1  0  0  0  0
  2  4  1  0  0  0  0
  2  5  1  0  0  0  0
  5  6  2  0  0  0  0
  5  7  1  0  0  0  0
  7  8  1  0  0  0  0
  7  9  1  0  0  0  0
  9 10  1  0  0  0  0
  9 11  1  0  0  0  0
  9 26  1  0  0  0  0
 11 12  1  0  0  0  0
 11 13  1  0  0  0  0
 11 14  1  0  0  0  0
 14 15  1  0  0  0  0
 14 16  1  0  0  0  0
 14 17  1  0  0  0  0
 17 18  1  0  0  0  0
 17 19  1  0  0  0  0
 17 20  1  0  0  0  0
 20 21  1  0  0  0  0
 20 22  1  0  0  0  0
 20 23  1  0  0  0  0
 23 24  1  0  0  0  0
 23 25  1  0  0  0  0
 26 27  2  0  0  0  0
 26 28  1  0  0  0  0
 28 29  1  0  0  0  0
 28 30  1  0  0  0  0
 30 31  1  0  0  0  0
 30 32  1  0  0  0  0
 30 33  1  0  0  0  0
M  END
$$$$

  -OEChem-01062216083D

 33 32  0     1  0  0  0  0  0999 V2000
   -3.6608   -2.6029    0.6695 H   0  0  0  0  0  0  0  0  0  0  0  0
   -3.6141   -1.5774    0.2928 C   0  0  0  0  0  0  0  0  0  0  0  0
   -4.4949   -1.0332    0.6409 H   0  0  0  0  0  0  0  0  0  0  0  0
   -3.6160   -1.6059   -0.7994 H   0  0  0  0  0  0  0  0  0  0  0  0
   -2.3529   -0.8956    0.7888 C   0  0  0  0  0  0  0  0  0  0  0  0
   -1.6312   -1.4974    1.5652 O   0  0  0  0  0  0  0  0  0  0  0  0
   -2.0971    0.4004    0.3702 N   0  0  0  0  0  0  0  0  0  0  0  0
   -2.7307    0.7205   -0.3554 H   0  0  0  0  0  0  0  0  0  0  0  0
   -0.7974    1.1066    0.4443 C   0  0  1  0  0  0  0  0  0  0  0  0
   -1.0084    2.1502    0.1932 H   0  0  0  0  0  0  0  0  0  0  0  0
   -0.1254    1.1225    1.8359 C   0  0  0  0  0  0  0  0  0  0  0  0
    0.0199    0.1126    2.2253 H   0  0  0  0  0  0  0  0  0  0  0  0
    0.8725    1.5619    1.7409 H   0  0  0  0  0  0  0  0  0  0  0  0
   -0.9270    1.9737    2.8282 C   0  0  0  0  0  0  0  0  0  0  0  0
   -1.0256    2.9957    2.4479 H   0  0  0  0  0  0  0  0  0  0  0  0
   -1.9324    1.5532    2.9380 H   0  0  0  0  0  0  0  0  0  0  0  0
   -0.2338    1.9988    4.1940 C   0  0  0  0  0  0  0  0  0  0  0  0
   -0.1283    0.9751    4.5682 H   0  0  0  0  0  0  0  0  0  0  0  0
    0.7689    2.4269    4.0930 H   0  0  0  0  0  0  0  0  0  0  0  0
   -1.0373    2.8234    5.1947 C   0  0  0  0  0  0  0  0  0  0  0  0
   -1.1325    3.8568    4.8431 H   0  0  0  0  0  0  0  0  0  0  0  0
   -2.0444    2.4051    5.3001 H   0  0  0  0  0  0  0  0  0  0  0  0
   -0.3437    2.7944    6.4853 N   0  0  0  0  0  0  0  0  0  0  0  0
   -0.8636    3.3089    7.1962 H   0  0  0  0  0  0  0  0  0  0  0  0
   -0.1716    1.8342    6.7848 H   0  0  0  0  0  0  0  0  0  0  0  0
    0.2050    0.6192   -0.6313 C   0  0  0  0  0  0  0  0  0  0  0  0
    0.0448   -0.4384   -1.2278 O   0  0  0  0  0  0  0  0  0  0  0  0
    1.1509    1.5035   -1.1212 N   0  0  0  0  0  0  0  0  0  0  0  0
    1.2802    2.3773   -0.6202 H   0  0  0  0  0  0  0  0  0  0  0  0
    2.0794    1.1670   -2.1944 C   0  0  0  0  0  0  0  0  0  0  0  0
    1.5337    0.9224   -3.1118 H   0  0  0  0  0  0  0  0  0  0  0  0
    2.7403    2.0140   -2.4019 H   0  0  0  0  0  0  0  0  0  0  0  0
    2.6959    0.3071   -1.9118 H   0  0  0  0  0  0  0  0  0  0  0  0
  1  2  1  0  0  0  0
  2  3  1  0  0  0  0
  2  4  1  0  0  0  0
  2  5  1  0  0  0  0
  5  6  2  0  0  0  0
  5  7  1  0  0  0  0
  7  8  1  0  0  0  0
  7  9  1  0  0  0  0
  9 10  1  0  0  0  0
  9 11  1  0  0  0  0
  9 26  1  0  0  0  0
 11 12  1  0  0  0  0
 11 13  1  0  0  0  0
 11 14  1  0  0  0  0
 14 15  1  0  0  0  0
 14 16  1  0  0  0  0
 14 17  1  0  0  0  0
 17 18  1  0  0  0  0
 17 19  1  0  0  0  0
 17 20  1  0  0  0  0
 20 21  1  0  0  0  0
 20 22  1  0  0  0  0
 20 23  1  0  0  0  0
 23 24  1  0  0  0  0
 23 25  1  0  0  0  0
 26 27  2  0  0  0  0
 26 28  1  0  0  0  0
 28 29  1  0  0  0  0
 28 30  1  0  0  0  0
 30 31  1  0  0  0  0
 30 32  1  0  0  0  0
 30 33  1  0  0  0  0
M  END
$$$$

  -OEChem-01062216083D

 33 32  0     1  0  0  0  0  0999 V2000
   -3.6569   -2.5891    0.6835 H   0  0  0  0  0  0  0  0  0  0  0  0
   -3.6102   -1.5613    0.3129 C   0  0  0  0  0  0  0  0  0  0  0  0
   -4.4780   -1.0125    0.6857 H   0  0  0  0  0  0  0  0  0  0  0  0
   -3.6387   -1.5814   -0.7793 H   0  0  0  0  0  0  0  0  0  0  0  0
   -2.3315   -0.8935    0.7832 C   0  0  0  0  0  0  0  0  0  0  0  0
   -1.5785   -1.5177    1.5111 O   0  0  0  0  0  0  0  0  0  0  0  0
   -2.0785    0.4058    0.3753 N   0  0  0  0  0  0  0  0  0  0  0  0
   -2.7169    0.7347   -0.3423 H   0  0  0  0  0  0  0  0  0  0  0  0
   -0.7788    1.1110    0.4498 C   0  0  1  0  0  0  0  0  0  0  0  0
   -0.9843    2.1557    0.1996 H   0  0  0  0  0  0  0  0  0  0  0  0
   -0.1168    1.1218    1.8482 C   0  0  0  0  0  0  0  0  0  0  0  0
    0.0212    0.1113    2.2382 H   0  0  0  0  0  0  0  0  0  0  0  0
    0.8830    1.5590    1.7671 H   0  0  0  0  0  0  0  0  0  0  0  0
   -0.9251    1.9731    2.8353 C   0  0  0  0  0  0  0  0  0  0  0  0
   -1.0171    2.9961    2.4562 H   0  0  0  0  0  0  0  0  0  0  0  0
   -1.9328    1.5565    2.9355 H   0  0  0  0  0  0  0  0  0  0  0  0
   -0.2444    1.9946    4.2075 C   0  0  0  0  0  0  0  0  0  0  0  0
   -0.1440    0.9699    4.5808 H   0  0  0  0  0  0  0  0  0  0  0  0
    0.7599    2.4213    4.1162 H   0  0  0  0  0  0  0  0  0  0  0  0
   -1.0552    2.8192    5.2024 C   0  0  0  0  0  0  0  0  0  0  0  0
   -1.1442    3.8533    4.8518 H   0  0  0  0  0  0  0  0  0  0  0  0
   -2.0644    2.4036    5.2973 H   0  0  0  0  0  0  0  0  0  0  0  0
   -0.3729    2.7862    6.4988 N   0  0  0  0  0  0  0  0  0  0  0  0
   -0.8913    3.3117    7.2025 H   0  0  0  0  0  0  0  0  0  0  0  0
   -0.2170    1.8253    6.8045 H   0  0  0  0  0  0  0  0  0  0  0  0
    0.2131    0.6261   -0.6381 C   0  0  0  0  0  0  0  0  0  0  0  0
   -0.0880   -0.2689   -1.4196 O   0  0  0  0  0  0  0  0  0  0  0  0
    1.3438    1.3755   -0.9152 N   0  0  0  0  0  0  0  0  0  0  0  0
    1.5858    2.1159   -0.2640 H   0  0  0  0  0  0  0  0  0  0  0  0
    2.2842    1.0413   -1.9787 C   0  0  0  0  0  0  0  0  0  0  0  0
    1.7813    1.0495   -2.9514 H   0  0  0  0  0  0  0  0  0  0  0  0
    3.0999    1.7702   -2.0063 H   0  0  0  0  0  0  0  0  0  0  0  0
    2.7126    0.0474   -1.8119 H   0  0  0  0  0  0  0  0  0  0  0  0
  1  2  1  0  0  0  0
  2  3  1  0  0  0  0
  2  4  1  0  0  0  0
  2  5  1  0  0  0  0
  5  6  2  0  0  0  0
  5  7  1  0  0  0  0
  7  8  1  0  0  0  0
  7  9  1  0  0  0  0
  9 10  1  0  0  0  0
  9 11  1  0  0  0  0
  9 26  1  0  0  0  0
 11 12  1  0  0  0  0
 11 13  1  0  0  0  0
 11 14  1  0  0  0  0
 14 15  1  0  0  0  0
 14 16  1  0  0  0  0
 14 17  1  0  0  0  0
 17 18  1  0  0  0  0
 17 19  1  0  0  0  0
 17 20  1  0  0  0  0
 20 21  1  0  0  0  0
 20 22  1  0  0  0  0
 20 23  1  0  0  0  0
 23 24  1  0  0  0  0
 23 25  1  0  0  0  0
 26 27  2  0  0  0  0
 26 28  1  0  0  0  0
 28 29  1  0  0  0  0
 28 30  1  0  0  0  0
 30 31  1  0  0  0  0
 30 32  1  0  0  0  0
 30 33  1  0  0  0  0
M  END
$$$$

  -OEChem-01062216083D

 33 32  0     1  0  0  0  0  0999 V2000
   -3.7543   -2.5179    0.5814 H   0  0  0  0  0  0  0  0  0  0  0  0
   -3.6602   -1.4838    0.2383 C   0  0  0  0  0  0  0  0  0  0  0  0
   -4.5142   -0.9109    0.6071 H   0  0  0  0  0  0  0  0  0  0  0  0
   -3.6672   -1.4755   -0.8546 H   0  0  0  0  0  0  0  0  0  0  0  0
   -2.3672   -0.8769    0.7506 C   0  0  0  0  0  0  0  0  0  0  0  0
   -1.6605   -1.5481    1.4826 O   0  0  0  0  0  0  0  0  0  0  0  0
   -2.0594    0.4177    0.3683 N   0  0  0  0  0  0  0  0  0  0  0  0
   -2.6708    0.7632   -0.3666 H   0  0  0  0  0  0  0  0  0  0  0  0
   -0.7561    1.1194    0.4599 C   0  0  1  0  0  0  0  0  0  0  0  0
   -0.9799    2.1899    0.4811 H   0  0  0  0  0  0  0  0  0  0  0  0
    0.0934    0.8298    1.7227 C   0  0  0  0  0  0  0  0  0  0  0  0
    0.3013   -0.2365    1.8342 H   0  0  0  0  0  0  0  0  0  0  0  0
    1.0659    1.3200    1.6223 H   0  0  0  0  0  0  0  0  0  0  0  0
   -0.5750    1.3997    2.9804 C   0  0  0  0  0  0  0  0  0  0  0  0
   -0.7248    2.4782    2.8653 H   0  0  0  0  0  0  0  0  0  0  0  0
   -1.5573    0.9342    3.1135 H   0  0  0  0  0  0  0  0  0  0  0  0
    0.2866    1.1289    4.2179 C   0  0  0  0  0  0  0  0  0  0  0  0
    0.4418    0.0503    4.3254 H   0  0  0  0  0  0  0  0  0  0  0  0
    1.2667    1.6017    4.0981 H   0  0  0  0  0  0  0  0  0  0  0  0
   -0.3865    1.6719    5.4746 C   0  0  0  0  0  0  0  0  0  0  0  0
   -0.5298    2.7546    5.3884 H   0  0  0  0  0  0  0  0  0  0  0  0
   -1.3710    1.2074    5.6012 H   0  0  0  0  0  0  0  0  0  0  0  0
    0.4646    1.3673    6.6283 N   0  0  0  0  0  0  0  0  0  0  0  0
    0.0404    1.6943    7.4963 H   0  0  0  0  0  0  0  0  0  0  0  0
    0.6669    0.3683    6.6771 H   0  0  0  0  0  0  0  0  0  0  0  0
    0.0646    0.8950   -0.8371 C   0  0  0  0  0  0  0  0  0  0  0  0
   -0.4537    0.3673   -1.8157 O   0  0  0  0  0  0  0  0  0  0  0  0
    1.3225    1.4532   -0.9883 N   0  0  0  0  0  0  0  0  0  0  0  0
    1.7470    1.8805   -0.1708 H   0  0  0  0  0  0  0  0  0  0  0  0
    2.1161    1.3247   -2.2052 C   0  0  0  0  0  0  0  0  0  0  0  0
    1.5856    1.7624   -3.0575 H   0  0  0  0  0  0  0  0  0  0  0  0
    3.0715    1.8456   -2.0901 H   0  0  0  0  0  0  0  0  0  0  0  0
    2.3202    0.2703   -2.4202 H   0  0  0  0  0  0  0  0  0  0  0  0
  1  2  1  0  0  0  0
  2  3  1  0  0  0  0
  2  4  1  0  0  0  0
  2  5  1  0  0  0  0
  5  6  2  0  0  0  0
  5  7  1  0  0  0  0
  7  8  1  0  0  0  0
  7  9  1  0  0  0  0
  9 10  1  0  0  0  0
  9 11  1  0  0  0  0
  9 26  1  0  0  0  0
 11 12  1  0  0  0  0
 11 13  1  0  0  0  0
 11 14  1  0  0  0  0
 14 15  1  0  0  0  0
 14 16  1  0  0  0  0
 14 17  1  0  0  0  0
 17 18  1  0  0  0  0
 17 19  1  0  0  0  0
 17 20  1  0  0  0  0
 20 21  1  0  0  0  0
 20 22  1  0  0  0  0
 20 23  1  0  0  0  0
 23 24  1  0  0  0  0
 23 25  1  0  0  0  0
 26 27  2  0  0  0  0
 26 28  1  0  0  0  0
 28 29  1  0  0  0  0
 28 30  1  0  0  0  0
 30 31  1  0  0  0  0
 30 32  1  0  0  0  0
 30 33  1  0  0  0  0
M  END
$$$$

  -OEChem-01062216083D

 33 32  0     1  0  0  0  0  0999 V2000
   -3.7405   -2.5078    0.5994 H   0  0  0  0  0  0  0  0  0  0  0  0
   -3.6476   -1.4705    0.2654 C   0  0  0  0  0  0  0  0  0  0  0  0
   -4.4785   -0.8923    0.6760 H   0  0  0  0  0  0  0  0  0  0  0  0
   -3.6988   -1.4477   -0.8260 H   0  0  0  0  0  0  0  0  0  0  0  0
   -2.3282   -0.8850    0.7331 C   0  0  0  0  0  0  0  0  0  0  0  0
   -1.5886   -1.5823    1.4058 O   0  0  0  0  0  0  0  0  0  0  0  0
   -2.0250    0.4157    0.3692 N   0  0  0  0  0  0  0  0  0  0  0  0
   -2.6517    0.7854   -0.3411 H   0  0  0  0  0  0  0  0  0  0  0  0
   -0.7262    1.1228    0.4702 C   0  0  1  0  0  0  0  0  0  0  0  0
   -0.9518    2.1930    0.4956 H   0  0  0  0  0  0  0  0  0  0  0  0
    0.1104    0.8319    1.7421 C   0  0  0  0  0  0  0  0  0  0  0  0
    0.3245   -0.2328    1.8548 H   0  0  0  0  0  0  0  0  0  0  0  0
    1.0792    1.3318    1.6580 H   0  0  0  0  0  0  0  0  0  0  0  0
   -0.5757    1.3979    2.9914 C   0  0  0  0  0  0  0  0  0  0  0  0
   -0.7261    2.4763    2.8760 H   0  0  0  0  0  0  0  0  0  0  0  0
   -1.5583    0.9295    3.1110 H   0  0  0  0  0  0  0  0  0  0  0  0
    0.2706    1.1270    4.2394 C   0  0  0  0  0  0  0  0  0  0  0  0
    0.4269    0.0484    4.3471 H   0  0  0  0  0  0  0  0  0  0  0  0
    1.2512    1.6027    4.1331 H   0  0  0  0  0  0  0  0  0  0  0  0
   -0.4201    1.6664    5.4881 C   0  0  0  0  0  0  0  0  0  0  0  0
   -0.5623    2.7492    5.4012 H   0  0  0  0  0  0  0  0  0  0  0  0
   -1.4058    1.2015    5.6004 H   0  0  0  0  0  0  0  0  0  0  0  0
    0.4155    1.3622    6.6532 N   0  0  0  0  0  0  0  0  0  0  0  0
   -0.0182    1.6932    7.5150 H   0  0  0  0  0  0  0  0  0  0  0  0
    0.6139    0.3628    6.7077 H   0  0  0  0  0  0  0  0  0  0  0  0
    0.0831    0.9106   -0.8361 C   0  0  0  0  0  0  0  0  0  0  0  0
   -0.5053    0.6305   -1.8756 O   0  0  0  0  0  0  0  0  0  0  0  0
    1.4371    1.1904   -0.9088 N   0  0  0  0  0  0  0  0  0  0  0  0
    1.9224    1.3746   -0.0361 H   0  0  0  0  0  0  0  0  0  0  0  0
    2.2242    1.0243   -2.1250 C   0  0  0  0  0  0  0  0  0  0  0  0
    1.8291    1.6563   -2.9274 H   0  0  0  0  0  0  0  0  0  0  0  0
    3.2649    1.3092   -1.9434 H   0  0  0  0  0  0  0  0  0  0  0  0
    2.2027   -0.0197   -2.4550 H   0  0  0  0  0  0  0  0  0  0  0  0
  1  2  1  0  0  0  0
  2  3  1  0  0  0  0
  2  4  1  0  0  0  0
  2  5  1  0  0  0  0
  5  6  2  0  0  0  0
  5  7  1  0  0  0  0
  7  8  1  0  0  0  0
  7  9  1  0  0  0  0
  9 10  1  0  0  0  0
  9 11  1  0  0  0  0
  9 26  1  0  0  0  0
 11 12  1  0  0  0  0
 11 13  1  0  0  0  0
 11 14  1  0  0  0  0
 14 15  1  0  0  0  0
 14 16  1  0  0  0  0
 14 17  1  0  0  0  0
 17 18  1  0  0  0  0
 17 19  1  0  0  0  0
 17 20  1  0  0  0  0
 20 21  1  0  0  0  0
 20 22  1  0  0  0  0
 20 23  1  0  0  0  0
 23 24  1  0  0  0  0
 23 25  1  0  0  0  0
 26 27  2  0  0  0  0
 26 28  1  0  0  0  0
 28 29  1  0  0  0  0
 28 30  1  0  0  0  0
 30 31  1  0  0  0  0
 30 32  1  0  0  0  0
 30 33  1  0  0  0  0
M  END
$$$$

  -OEChem-01062216083D

 33 32  0     1  0  0  0  0  0999 V2000
   -3.7328   -2.5020    0.6118 H   0  0  0  0  0  0  0  0  0  0  0  0
   -3.6416   -1.4629    0.2829 C   0  0  0  0  0  0  0  0  0  0  0  0
   -4.4538   -0.8816    0.7258 H   0  0  0  0  0  0  0  0  0  0  0  0
   -3.7288   -1.4302   -0.8060 H   0  0  0  0  0  0  0  0  0  0  0  0
   -2.3019   -0.8935    0.7112 C   0  0  0  0  0  0  0  0  0  0  0  0
   -1.5335   -1.6108    1.3282 O   0  0  0  0  0  0  0  0  0  0  0  0
   -2.0007    0.4110    0.3615 N   0  0  0  0  0  0  0  0  0  0  0  0
   -2.6459    0.8093   -0.3164 H   0  0  0  0  0  0  0  0  0  0  0  0
   -0.7058    1.1204    0.4772 C   0  0  1  0  0  0  0  0  0  0  0  0
   -0.9336    2.1902    0.5026 H   0  0  0  0  0  0  0  0  0  0  0  0
    0.1177    0.8343    1.7586 C   0  0  0  0  0  0  0  0  0  0  0  0
    0.3339   -0.2296    1.8770 H   0  0  0  0  0  0  0  0  0  0  0  0
    1.0842    1.3410    1.6809 H   0  0  0  0  0  0  0  0  0  0  0  0
   -0.5821    1.4002    3.0008 C   0  0  0  0  0  0  0  0  0  0  0  0
   -0.7336    2.4784    2.8840 H   0  0  0  0  0  0  0  0  0  0  0  0
   -1.5649    0.9297    3.1122 H   0  0  0  0  0  0  0  0  0  0  0  0
    0.2556    1.1312    4.2545 C   0  0  0  0  0  0  0  0  0  0  0  0
    0.4136    0.0531    4.3627 H   0  0  0  0  0  0  0  0  0  0  0  0
    1.2360    1.6081    4.1546 H   0  0  0  0  0  0  0  0  0  0  0  0
   -0.4431    1.6683    5.4993 C   0  0  0  0  0  0  0  0  0  0  0  0
   -0.5869    2.7511    5.4131 H   0  0  0  0  0  0  0  0  0  0  0  0
   -1.4285    1.2014    5.6073 H   0  0  0  0  0  0  0  0  0  0  0  0
    0.3896    1.3630    6.6663 N   0  0  0  0  0  0  0  0  0  0  0  0
   -0.0437    1.6972    7.5269 H   0  0  0  0  0  0  0  0  0  0  0  0
    0.5853    0.3631    6.7229 H   0  0  0  0  0  0  0  0  0  0  0  0
    0.1035    0.9162   -0.8287 C   0  0  0  0  0  0  0  0  0  0  0  0
   -0.4937    0.8751   -1.8992 O   0  0  0  0  0  0  0  0  0  0  0  0
    1.4874    0.8961   -0.8462 N   0  0  0  0  0  0  0  0  0  0  0  0
    1.9597    0.8400    0.0511 H   0  0  0  0  0  0  0  0  0  0  0  0
    2.2672    0.6886   -2.0607 C   0  0  0  0  0  0  0  0  0  0  0  0
    2.0454    1.4683   -2.7970 H   0  0  0  0  0  0  0  0  0  0  0  0
    3.3370    0.7240   -1.8338 H   0  0  0  0  0  0  0  0  0  0  0  0
    2.0377   -0.2874   -2.5014 H   0  0  0  0  0  0  0  0  0  0  0  0
  1  2  1  0  0  0  0
  2  3  1  0  0  0  0
  2  4  1  0  0  0  0
  2  5  1  0  0  0  0
  5  6  2  0  0  0  0
  5  7  1  0  0  0  0
  7  8  1  0  0  0  0
  7  9  1  0  0  0  0
  9 10  1  0  0  0  0
  9 11  1  0  0  0  0
  9 26  1  0  0  0  0
 11 12  1  0  0  0  0
 11 13  1  0  0  0  0
 11 14  1  0  0  0  0
 14 15  1  0  0  0  0
 14 16  1  0  0  0  0
 14 17  1  0  0  0  0
 17 18  1  0  0  0  0
 17 19  1  0  0  0  0
 17 20  1  0  0  0  0
 20 21  1  0  0  0  0
 20 22  1  0  0  0  0
 20 23  1  0  0  0  0
 23 24  1  0  0  0  0
 23 25  1  0  0  0  0
 26 27  2  0  0  0  0
 26 28  1  0  0  0  0
 28 29  1  0  0  0  0
 28 30  1  0  0  0  0
 30 31  1  0  0  0  0
 30 32  1  0  0  0  0
 30 33  1  0  0  0  0
M  END
$$$$

  -OEChem-01062216083D

 33 32  0     1  0  0  0  0  0999 V2000
   -3.7366   -2.4927    0.6346 H   0  0  0  0  0  0  0  0  0  0  0  0
   -3.6445   -1.4525    0.3100 C   0  0  0  0  0  0  0  0  0  0  0  0
   -4.4313   -0.8642    0.7881 H   0  0  0  0  0  0  0  0  0  0  0  0
   -3.7736   -1.4103   -0.7743 H   0  0  0  0  0  0  0  0  0  0  0  0
   -2.2823   -0.9029    0.6902 C   0  0  0  0  0  0  0  0  0  0  0  0
   -1.4876   -1.6397    1.2485 O   0  0  0  0  0  0  0  0  0  0  0  0
   -1.9811    0.4035    0.3497 N   0  0  0  0  0  0  0  0  0  0  0  0
   -2.6522    0.8350   -0.2810 H   0  0  0  0  0  0  0  0  0  0  0  0
   -0.6890    1.1127    0.4775 C   0  0  1  0  0  0  0  0  0  0  0  0
   -0.9187    2.1822    0.5025 H   0  0  0  0  0  0  0  0  0  0  0  0
    0.1249    0.8310    1.7655 C   0  0  0  0  0  0  0  0  0  0  0  0
    0.3370   -0.2328    1.8906 H   0  0  0  0  0  0  0  0  0  0  0  0
    1.0924    1.3366    1.6878 H   0  0  0  0  0  0  0  0  0  0  0  0
   -0.5829    1.3980    3.0027 C   0  0  0  0  0  0  0  0  0  0  0  0
   -0.7352    2.4758    2.8832 H   0  0  0  0  0  0  0  0  0  0  0  0
   -1.5655    0.9262    3.1088 H   0  0  0  0  0  0  0  0  0  0  0  0
    0.2472    1.1326    4.2628 C   0  0  0  0  0  0  0  0  0  0  0  0
    0.4054    0.0548    4.3748 H   0  0  0  0  0  0  0  0  0  0  0  0
    1.2275    1.6110    4.1683 H   0  0  0  0  0  0  0  0  0  0  0  0
   -0.4598    1.6710    5.5026 C   0  0  0  0  0  0  0  0  0  0  0  0
   -0.6050    2.7531    5.4136 H   0  0  0  0  0  0  0  0  0  0  0  0
   -1.4450    1.2026    5.6056 H   0  0  0  0  0  0  0  0  0  0  0  0
    0.3657    1.3692    6.6757 N   0  0  0  0  0  0  0  0  0  0  0  0
   -0.0735    1.7047    7.5331 H   0  0  0  0  0  0  0  0  0  0  0  0
    0.5626    0.3699    6.7353 H   0  0  0  0  0  0  0  0  0  0  0  0
    0.1252    0.9146   -0.8234 C   0  0  0  0  0  0  0  0  0  0  0  0
   -0.4303    1.1003   -1.9004 O   0  0  0  0  0  0  0  0  0  0  0  0
    1.4712    0.5926   -0.8134 N   0  0  0  0  0  0  0  0  0  0  0  0
    1.8703    0.3189    0.0801 H   0  0  0  0  0  0  0  0  0  0  0  0
    2.2400    0.3460   -2.0273 C   0  0  0  0  0  0  0  0  0  0  0  0
    2.2114    1.2218   -2.6841 H   0  0  0  0  0  0  0  0  0  0  0  0
    3.2848    0.1378   -1.7774 H   0  0  0  0  0  0  0  0  0  0  0  0
    1.8339   -0.5145   -2.5692 H   0  0  0  0  0  0  0  0  0  0  0  0
  1  2  1  0  0  0  0
  2  3  1  0  0  0  0
  2  4  1  0  0  0  0
  2  5  1  0  0  0  0
  5  6  2  0  0  0  0
  5  7  1  0  0  0  0
  7  8  1  0  0  0  0
  7  9  1  0  0  0  0
  9 10  1  0  0  0  0
  9 11  1  0  0  0  0
  9 26  1  0  0  0  0
 11 12  1  0  0  0  0
 11 13  1  0  0  0  0
 11 14  1  0  0  0  0
 14 15  1  0  0  0  0
 14 16  1  0  0  0  0
 14 17  1  0  0  0  0
 17 18  1  0  0  0  0
 17 19  1  0  0  0  0
 17 20  1  0  0  0  0
 20 21  1  0  0  0  0
 20 22  1  0  0  0  0
 20 23  1  0  0  0  0
 23 24  1  0  0  0  0
 23 25  1  0  0  0  0
 26 27  2  0  0  0  0
 26 28  1  0  0  0  0
 28 29  1  0  0  0  0
 28 30  1  0  0  0  0
 30 31  1  0  0  0  0
 30 32  1  0  0  0  0
 30 33  1  0  0  0  0
M  END
$$$$

  -OEChem-01062216083D

 33 32  0     1  0  0  0  0  0999 V2000
   -3.7391   -2.4840    0.6709 H   0  0  0  0  0  0  0  0  0  0  0  0
   -3.6502   -1.4426    0.3488 C   0  0  0  0  0  0  0  0  0  0  0  0
   -4.4094   -0.8493    0.8641 H   0  0  0  0  0  0  0  0  0  0  0  0
   -3.8257   -1.3915   -0.7285 H   0  0  0  0  0  0  0  0  0  0  0  0
   -2.2671   -0.9096    0.6728 C   0  0  0  0  0  0  0  0  0  0  0  0
   -1.4474   -1.6625    1.1701 O   0  0  0  0  0  0  0  0  0  0  0  0
   -1.9658    0.3974    0.3358 N   0  0  0  0  0  0  0  0  0  0  0  0
   -2.6658    0.8623   -0.2370 H   0  0  0  0  0  0  0  0  0  0  0  0
   -0.6753    1.1055    0.4729 C   0  0  1  0  0  0  0  0  0  0  0  0
   -0.9061    2.1751    0.4975 H   0  0  0  0  0  0  0  0  0  0  0  0
    0.1317    0.8258    1.7646 C   0  0  0  0  0  0  0  0  0  0  0  0
    0.3386   -0.2384    1.8954 H   0  0  0  0  0  0  0  0  0  0  0  0
    1.1019    1.3270    1.6841 H   0  0  0  0  0  0  0  0  0  0  0  0
   -0.5825    1.3942    2.9970 C   0  0  0  0  0  0  0  0  0  0  0  0
   -0.7339    2.4718    2.8748 H   0  0  0  0  0  0  0  0  0  0  0  0
   -1.5657    0.9228    3.0983 H   0  0  0  0  0  0  0  0  0  0  0  0
    0.2403    1.1312    4.2619 C   0  0  0  0  0  0  0  0  0  0  0  0
    0.3970    0.0536    4.3769 H   0  0  0  0  0  0  0  0  0  0  0  0
    1.2216    1.6084    4.1719 H   0  0  0  0  0  0  0  0  0  0  0  0
   -0.4740    1.6718    5.4964 C   0  0  0  0  0  0  0  0  0  0  0  0
   -0.6182    2.7540    5.4047 H   0  0  0  0  0  0  0  0  0  0  0  0
   -1.4599    1.2037    5.5948 H   0  0  0  0  0  0  0  0  0  0  0  0
    0.3447    1.3723    6.6746 N   0  0  0  0  0  0  0  0  0  0  0  0
   -0.0978    1.7114    7.5287 H   0  0  0  0  0  0  0  0  0  0  0  0
    0.5415    0.3732    6.7385 H   0  0  0  0  0  0  0  0  0  0  0  0
    0.1482    0.9110   -0.8192 C   0  0  0  0  0  0  0  0  0  0  0  0
   -0.3167    1.3111   -1.8799 O   0  0  0  0  0  0  0  0  0  0  0  0
    1.3905    0.3023   -0.8120 N   0  0  0  0  0  0  0  0  0  0  0  0
    1.6642   -0.1604    0.0507 H   0  0  0  0  0  0  0  0  0  0  0  0
    2.1411    0.0152   -2.0280 C   0  0  0  0  0  0  0  0  0  0  0  0
    2.3279    0.9366   -2.5896 H   0  0  0  0  0  0  0  0  0  0  0  0
    3.1057   -0.4373   -1.7789 H   0  0  0  0  0  0  0  0  0  0  0  0
    1.5852   -0.6794   -2.6664 H   0  0  0  0  0  0  0  0  0  0  0  0
  1  2  1  0  0  0  0
  2  3  1  0  0  0  0
  2  4  1  0  0  0  0
  2  5  1  0  0  0  0
  5  6  2  0  0  0  0
  5  7  1  0  0  0  0
  7  8  1  0  0  0  0
  7  9  1  0  0  0  0
  9 10  1  0  0  0  0
  9 11  1  0  0  0  0
  9 26  1  0  0  0  0
 11 12  1  0  0  0  0
 11 13  1  0  0  0  0
 11 14  1  0  0  0  0
 14 15  1  0  0  0  0
 14 16  1  0  0  0  0
 14 17  1  0  0  0  0
 17 18  1  0  0  0  0
 17 19  1  0  0  0  0
 17 20  1  0  0  0  0
 20 21  1  0  0  0  0
 20 22  1  0  0  0  0
 20 23  1  0  0  0  0
 23 24  1  0  0  0  0
 23 25  1  0  0  0  0
 26 27  2  0  0  0  0
 26 28  1  0  0  0  0
 28 29  1  0  0  0  0
 28 30  1  0  0  0  0
 30 31  1  0  0  0  0
 30 32  1  0  0  0  0
 30 33  1  0  0  0  0
M  END
$$$$

  -OEChem-01062216083D

 33 32  0     1  0  0  0  0  0999 V2000
   -3.7519   -2.4583    0.7789 H   0  0  0  0  0  0  0  0  0  0  0  0
   -3.6644   -1.4242    0.4336 C   0  0  0  0  0  0  0  0  0  0  0  0
   -4.3727   -0.8069    0.9913 H   0  0  0  0  0  0  0  0  0  0  0  0
   -3.9156   -1.3858   -0.6293 H   0  0  0  0  0  0  0  0  0  0  0  0
   -2.2508   -0.9170    0.6506 C   0  0  0  0  0  0  0  0  0  0  0  0
   -1.3990   -1.6897    1.0566 O   0  0  0  0  0  0  0  0  0  0  0  0
   -1.9518    0.3893    0.3107 N   0  0  0  0  0  0  0  0  0  0  0  0
   -2.6926    0.8960   -0.1665 H   0  0  0  0  0  0  0  0  0  0  0  0
   -0.6615    1.0950    0.4548 C   0  0  1  0  0  0  0  0  0  0  0  0
   -0.8917    2.1650    0.4789 H   0  0  0  0  0  0  0  0  0  0  0  0
    0.1366    0.8146    1.7510 C   0  0  0  0  0  0  0  0  0  0  0  0
    0.3360   -0.2502    1.8877 H   0  0  0  0  0  0  0  0  0  0  0  0
    1.1114    1.3077    1.6714 H   0  0  0  0  0  0  0  0  0  0  0  0
   -0.5848    1.3861    2.9779 C   0  0  0  0  0  0  0  0  0  0  0  0
   -0.7318    2.4641    2.8531 H   0  0  0  0  0  0  0  0  0  0  0  0
   -1.5702    0.9182    3.0735 H   0  0  0  0  0  0  0  0  0  0  0  0
    0.2295    1.1222    4.2481 C   0  0  0  0  0  0  0  0  0  0  0  0
    0.3862    0.0448    4.3648 H   0  0  0  0  0  0  0  0  0  0  0  0
    1.2116    1.5992    4.1634 H   0  0  0  0  0  0  0  0  0  0  0  0
   -0.4925    1.6657    5.4769 C   0  0  0  0  0  0  0  0  0  0  0  0
   -0.6326    2.7481    5.3827 H   0  0  0  0  0  0  0  0  0  0  0  0
   -1.4805    1.2009    5.5682 H   0  0  0  0  0  0  0  0  0  0  0  0
    0.3161    1.3663    6.6620 N   0  0  0  0  0  0  0  0  0  0  0  0
   -0.1317    1.7096    7.5117 H   0  0  0  0  0  0  0  0  0  0  0  0
    0.5081    0.3666    6.7304 H   0  0  0  0  0  0  0  0  0  0  0  0
    0.1759    0.9008   -0.8254 C   0  0  0  0  0  0  0  0  0  0  0  0
   -0.1364    1.5124   -1.8394 O   0  0  0  0  0  0  0  0  0  0  0  0
    1.2545    0.0360   -0.8529 N   0  0  0  0  0  0  0  0  0  0  0  0
    1.3497   -0.5878   -0.0547 H   0  0  0  0  0  0  0  0  0  0  0  0
    1.9937   -0.2708   -2.0708 C   0  0  0  0  0  0  0  0  0  0  0  0
    2.3880    0.6461   -2.5216 H   0  0  0  0  0  0  0  0  0  0  0  0
    2.8360   -0.9317   -1.8450 H   0  0  0  0  0  0  0  0  0  0  0  0
    1.3437   -0.7697   -2.7969 H   0  0  0  0  0  0  0  0  0  0  0  0
  1  2  1  0  0  0  0
  2  3  1  0  0  0  0
  2  4  1  0  0  0  0
  2  5  1  0  0  0  0
  5  6  2  0  0  0  0
  5  7  1  0  0  0  0
  7  8  1  0  0  0  0
  7  9  1  0  0  0  0
  9 10  1  0  0  0  0
  9 11  1  0  0  0  0
  9 26  1  0  0  0  0
 11 12  1  0  0  0  0
 11 13  1  0  0  0  0
 11 14  1  0  0  0  0
 14 15  1  0  0  0  0
 14 16  1  0  0  0  0
 14 17  1  0  0  0  0
 17 18  1  0  0  0  0
 17 19  1  0  0  0  0
 17 20  1  0  0  0  0
 20 21  1  0  0  0  0
 20 22  1  0  0  0  0
 20 23  1  0  0  0  0
 23 24  1  0  0  0  0
 23 25  1  0  0  0  0
 26 27  2  0  0  0  0
 26 28  1  0  0  0  0
 28 29  1  0  0  0  0
 28 30  1  0  0  0  0
 30 31  1  0  0  0  0
 30 32  1  0  0  0  0
 30 33  1  0  0  0  0
M  END
$$$$

  -OEChem-01062216083D

 33 32  0     1  0  0  0  0  0999 V2000
   -3.7479   -2.4259    0.9126 H   0  0  0  0  0  0  0  0  0  0  0  0
   -3.6714   -1.4072    0.5223 C   0  0  0  0  0  0  0  0  0  0  0  0
   -4.3311   -0.7588    1.1037 H   0  0  0  0  0  0  0  0  0  0  0  0
   -3.9947   -1.4046   -0.5216 H   0  0  0  0  0  0  0  0  0  0  0  0
   -2.2395   -0.9154    0.6217 C   0  0  0  0  0  0  0  0  0  0  0  0
   -1.3560   -1.7037    0.9168 O   0  0  0  0  0  0  0  0  0  0  0  0
   -1.9496    0.3905    0.2742 N   0  0  0  0  0  0  0  0  0  0  0  0
   -2.7297    0.9380   -0.0793 H   0  0  0  0  0  0  0  0  0  0  0  0
   -0.6590    1.0924    0.4285 C   0  0  1  0  0  0  0  0  0  0  0  0
   -0.8866    2.1632    0.4494 H   0  0  0  0  0  0  0  0  0  0  0  0
    0.1320    0.8094    1.7281 C   0  0  0  0  0  0  0  0  0  0  0  0
    0.3264   -0.2565    1.8648 H   0  0  0  0  0  0  0  0  0  0  0  0
    1.1091    1.2983    1.6497 H   0  0  0  0  0  0  0  0  0  0  0  0
   -0.5909    1.3796    2.9550 C   0  0  0  0  0  0  0  0  0  0  0  0
   -0.7342    2.4584    2.8321 H   0  0  0  0  0  0  0  0  0  0  0  0
   -1.5775    0.9138    3.0470 H   0  0  0  0  0  0  0  0  0  0  0  0
    0.2193    1.1114    4.2277 C   0  0  0  0  0  0  0  0  0  0  0  0
    0.3722    0.0334    4.3430 H   0  0  0  0  0  0  0  0  0  0  0  0
    1.2030    1.5857    4.1468 H   0  0  0  0  0  0  0  0  0  0  0  0
   -0.5042    1.6537    5.4567 C   0  0  0  0  0  0  0  0  0  0  0  0
   -0.6426    2.7368    5.3643 H   0  0  0  0  0  0  0  0  0  0  0  0
   -1.4929    1.1899    5.5450 H   0  0  0  0  0  0  0  0  0  0  0  0
    0.2995    1.3508    6.6443 N   0  0  0  0  0  0  0  0  0  0  0  0
   -0.1500    1.6942    7.4931 H   0  0  0  0  0  0  0  0  0  0  0  0
    0.4896    0.3508    6.7122 H   0  0  0  0  0  0  0  0  0  0  0  0
    0.1915    0.8905   -0.8390 C   0  0  0  0  0  0  0  0  0  0  0  0
    0.0917    1.6783   -1.7708 O   0  0  0  0  0  0  0  0  0  0  0  0
    1.0510   -0.1875   -0.9308 N   0  0  0  0  0  0  0  0  0  0  0  0
    0.9257   -0.9126   -0.2254 H   0  0  0  0  0  0  0  0  0  0  0  0
    1.7959   -0.5100   -2.1408 C   0  0  0  0  0  0  0  0  0  0  0  0
    2.3924    0.3493   -2.4652 H   0  0  0  0  0  0  0  0  0  0  0  0
    2.4752   -1.3470   -1.9532 H   0  0  0  0  0  0  0  0  0  0  0  0
    1.1120   -0.7898   -2.9487 H   0  0  0  0  0  0  0  0  0  0  0  0
  1  2  1  0  0  0  0
  2  3  1  0  0  0  0
  2  4  1  0  0  0  0
  2  5  1  0  0  0  0
  5  6  2  0  0  0  0
  5  7  1  0  0  0  0
  7  8  1  0  0  0  0
  7  9  1  0  0  0  0
  9 10  1  0  0  0  0
  9 11  1  0  0  0  0
  9 26  1  0  0  0  0
 11 12  1  0  0  0  0
 11 13  1  0  0  0  0
 11 14  1  0  0  0  0
 14 15  1  0  0  0  0
 14 16  1  0  0  0  0
 14 17  1  0  0  0  0
 17 18  1  0  0  0  0
 17 19  1  0  0  0  0
 17 20  1  0  0  0  0
 20 21  1  0  0  0  0
 20 22  1  0  0  0  0
 20 23  1  0  0  0  0
 23 24  1  0  0  0  0
 23 25  1  0  0  0  0
 26 27  2  0  0  0  0
 26 28  1  0  0  0  0
 28 29  1  0  0  0  0
 28 30  1  0  0  0  0
 30 31  1  0  0  0  0
 30 32  1  0  0  0  0
 30 33  1  0  0  0  0
M  END
$$$$

  -OEChem-01062216083D

 33 32  0     1  0  0  0  0  0999 V2000
   -3.7442   -2.4034    0.9991 H   0  0  0  0  0  0  0  0  0  0  0  0
   -3.6790   -1.3920    0.5879 C   0  0  0  0  0  0  0  0  0  0  0  0
   -4.3075   -0.7292    1.1873 H   0  0  0  0  0  0  0  0  0  0  0  0
   -4.0501   -1.4046   -0.4399 H   0  0  0  0  0  0  0  0  0  0  0  0
   -2.2405   -0.9104    0.6122 C   0  0  0  0  0  0  0  0  0  0  0  0
   -1.3438   -1.7081    0.8359 O   0  0  0  0  0  0  0  0  0  0  0  0
   -1.9559    0.3922    0.2489 N   0  0  0  0  0  0  0  0  0  0  0  0
   -2.7546    0.9583   -0.0243 H   0  0  0  0  0  0  0  0  0  0  0  0
   -0.6658    1.0957    0.4066 C   0  0  1  0  0  0  0  0  0  0  0  0
   -0.8914    2.1672    0.4220 H   0  0  0  0  0  0  0  0  0  0  0  0
    0.1222    0.8106    1.7061 C   0  0  0  0  0  0  0  0  0  0  0  0
    0.3156   -0.2562    1.8380 H   0  0  0  0  0  0  0  0  0  0  0  0
    1.1000    1.2983    1.6297 H   0  0  0  0  0  0  0  0  0  0  0  0
   -0.6013    1.3760    2.9345 C   0  0  0  0  0  0  0  0  0  0  0  0
   -0.7447    2.4550    2.8159 H   0  0  0  0  0  0  0  0  0  0  0  0
   -1.5880    0.9106    3.0252 H   0  0  0  0  0  0  0  0  0  0  0  0
    0.2110    1.1027    4.2050 C   0  0  0  0  0  0  0  0  0  0  0  0
    0.3658    0.0243    4.3152 H   0  0  0  0  0  0  0  0  0  0  0  0
    1.1940    1.5791    4.1245 H   0  0  0  0  0  0  0  0  0  0  0  0
   -0.5098    1.6389    5.4380 C   0  0  0  0  0  0  0  0  0  0  0  0
   -0.6480    2.7222    5.3510 H   0  0  0  0  0  0  0  0  0  0  0  0
   -1.4983    1.1751    5.5258 H   0  0  0  0  0  0  0  0  0  0  0  0
    0.2975    1.3303    6.6218 N   0  0  0  0  0  0  0  0  0  0  0  0
   -0.1493    1.6681    7.4742 H   0  0  0  0  0  0  0  0  0  0  0  0
    0.4919    0.3307    6.6831 H   0  0  0  0  0  0  0  0  0  0  0  0
    0.1975    0.8794   -0.8485 C   0  0  0  0  0  0  0  0  0  0  0  0
    0.3297    1.7770   -1.6703 O   0  0  0  0  0  0  0  0  0  0  0  0
    0.8091   -0.3437   -1.0436 N   0  0  0  0  0  0  0  0  0  0  0  0
    0.5128   -1.0927   -0.4156 H   0  0  0  0  0  0  0  0  0  0  0  0
    1.5506   -0.6848   -2.2494 C   0  0  0  0  0  0  0  0  0  0  0  0
    2.3366    0.0540   -2.4375 H   0  0  0  0  0  0  0  0  0  0  0  0
    2.0217   -1.6661   -2.1375 H   0  0  0  0  0  0  0  0  0  0  0  0
    0.8803   -0.7155   -3.1144 H   0  0  0  0  0  0  0  0  0  0  0  0
  1  2  1  0  0  0  0
  2  3  1  0  0  0  0
  2  4  1  0  0  0  0
  2  5  1  0  0  0  0
  5  6  2  0  0  0  0
  5  7  1  0  0  0  0
  7  8  1  0  0  0  0
  7  9  1  0  0  0  0
  9 10  1  0  0  0  0
  9 11  1  0  0  0  0
  9 26  1  0  0  0  0
 11 12  1  0  0  0  0
 11 13  1  0  0  0  0
 11 14  1  0  0  0  0
 14 15  1  0  0  0  0
 14 16  1  0  0  0  0
 14 17  1  0  0  0  0
 17 18  1  0  0  0  0
 17 19  1  0  0  0  0
 17 20  1  0  0  0  0
 20 21  1  0  0  0  0
 20 22  1  0  0  0  0
 20 23  1  0  0  0  0
 23 24  1  0  0  0  0
 23 25  1  0  0  0  0
 26 27  2  0  0  0  0
 26 28  1  0  0  0  0
 28 29  1  0  0  0  0
 28 30  1  0  0  0  0
 30 31  1  0  0  0  0
 30 32  1  0  0  0  0
 30 33  1  0  0  0  0
M  END
$$$$

  -OEChem-01062216083D

 33 32  0     1  0  0  0  0  0999 V2000
   -3.7556   -2.4012    1.0524 H   0  0  0  0  0  0  0  0  0  0  0  0
   -3.7050   -1.3688    0.6952 C   0  0  0  0  0  0  0  0  0  0  0  0
   -4.2609   -0.7311    1.3868 H   0  0  0  0  0  0  0  0  0  0  0  0
   -4.1683   -1.3146   -0.2931 H   0  0  0  0  0  0  0  0  0  0  0  0
   -2.2602   -0.9136    0.6153 C   0  0  0  0  0  0  0  0  0  0  0  0
   -1.3624   -1.7270    0.7653 O   0  0  0  0  0  0  0  0  0  0  0  0
   -1.9778    0.3840    0.2342 N   0  0  0  0  0  0  0  0  0  0  0  0
   -2.7884    0.9643    0.0369 H   0  0  0  0  0  0  0  0  0  0  0  0
   -0.6837    1.0870    0.3779 C   0  0  1  0  0  0  0  0  0  0  0  0
   -0.9067    2.1590    0.3897 H   0  0  0  0  0  0  0  0  0  0  0  0
    0.1059    0.7967    1.6742 C   0  0  0  0  0  0  0  0  0  0  0  0
    0.2923   -0.2720    1.8029 H   0  0  0  0  0  0  0  0  0  0  0  0
    1.0866    1.2785    1.5953 H   0  0  0  0  0  0  0  0  0  0  0  0
   -0.6121    1.3654    2.9045 C   0  0  0  0  0  0  0  0  0  0  0  0
   -0.7497    2.4453    2.7853 H   0  0  0  0  0  0  0  0  0  0  0  0
   -1.6009    0.9049    2.9974 H   0  0  0  0  0  0  0  0  0  0  0  0
    0.1992    1.0886    4.1746 C   0  0  0  0  0  0  0  0  0  0  0  0
    0.3488    0.0095    4.2851 H   0  0  0  0  0  0  0  0  0  0  0  0
    1.1845    1.5600    4.0933 H   0  0  0  0  0  0  0  0  0  0  0  0
   -0.5185    1.6290    5.4079 C   0  0  0  0  0  0  0  0  0  0  0  0
   -0.6520    2.7131    5.3209 H   0  0  0  0  0  0  0  0  0  0  0  0
   -1.5090    1.1695    5.4973 H   0  0  0  0  0  0  0  0  0  0  0  0
    0.2886    1.3162    6.5904 N   0  0  0  0  0  0  0  0  0  0  0  0
   -0.1568    1.6536    7.4436 H   0  0  0  0  0  0  0  0  0  0  0  0
    0.4800    0.3159    6.6496 H   0  0  0  0  0  0  0  0  0  0  0  0
    0.1888    0.8650   -0.8705 C   0  0  0  0  0  0  0  0  0  0  0  0
    0.5541    1.8154   -1.5495 O   0  0  0  0  0  0  0  0  0  0  0  0
    0.5476   -0.4219   -1.2198 N   0  0  0  0  0  0  0  0  0  0  0  0
    0.1535   -1.1714   -0.6467 H   0  0  0  0  0  0  0  0  0  0  0  0
    1.3257   -0.7566   -2.4037 C   0  0  0  0  0  0  0  0  0  0  0  0
    2.2883   -0.2347   -2.3903 H   0  0  0  0  0  0  0  0  0  0  0  0
    1.5180   -1.8334   -2.4356 H   0  0  0  0  0  0  0  0  0  0  0  0
    0.7828   -0.4735   -3.3113 H   0  0  0  0  0  0  0  0  0  0  0  0
  1  2  1  0  0  0  0
  2  3  1  0  0  0  0
  2  4  1  0  0  0  0
  2  5  1  0  0  0  0
  5  6  2  0  0  0  0
  5  7  1  0  0  0  0
  7  8  1  0  0  0  0
  7  9  1  0  0  0  0
  9 10  1  0  0  0  0
  9 11  1  0  0  0  0
  9 26  1  0  0  0  0
 11 12  1  0  0  0  0
 11 13  1  0  0  0  0
 11 14  1  0  0  0  0
 14 15  1  0  0  0  0
 14 16  1  0  0  0  0
 14 17  1  0  0  0  0
 17 18  1  0  0  0  0
 17 19  1  0  0  0  0
 17 20  1  0  0  0  0
 20 21  1  0  0  0  0
 20 22  1  0  0  0  0
 20 23  1  0  0  0  0
 23 24  1  0  0  0  0
 23 25  1  0  0  0  0
 26 27  2  0  0  0  0
 26 28  1  0  0  0  0
 28 29  1  0  0  0  0
 28 30  1  0  0  0  0
 30 31  1  0  0  0  0
 30 32  1  0  0  0  0
 30 33  1  0  0  0  0
M  END
$$$$

  -OEChem-01062216083D

 33 32  0     1  0  0  0  0  0999 V2000
   -3.7870   -2.3868    1.1409 H   0  0  0  0  0  0  0  0  0  0  0  0
   -3.7458   -1.3512    0.7915 C   0  0  0  0  0  0  0  0  0  0  0  0
   -4.2468   -0.7144    1.5246 H   0  0  0  0  0  0  0  0  0  0  0  0
   -4.2712   -1.2803   -0.1640 H   0  0  0  0  0  0  0  0  0  0  0  0
   -2.3031   -0.9136    0.6245 C   0  0  0  0  0  0  0  0  0  0  0  0
   -1.4083   -1.7384    0.7153 O   0  0  0  0  0  0  0  0  0  0  0  0
   -2.0248    0.3799    0.2274 N   0  0  0  0  0  0  0  0  0  0  0  0
   -2.8404    0.9677    0.0797 H   0  0  0  0  0  0  0  0  0  0  0  0
   -0.7269    1.0834    0.3482 C   0  0  1  0  0  0  0  0  0  0  0  0
   -0.9476    2.1558    0.3592 H   0  0  0  0  0  0  0  0  0  0  0  0
    0.0714    0.7888    1.6374 C   0  0  0  0  0  0  0  0  0  0  0  0
    0.2534   -0.2815    1.7616 H   0  0  0  0  0  0  0  0  0  0  0  0
    1.0539    1.2661    1.5516 H   0  0  0  0  0  0  0  0  0  0  0  0
   -0.6316    1.3595    2.8756 C   0  0  0  0  0  0  0  0  0  0  0  0
   -0.7634    2.4405    2.7603 H   0  0  0  0  0  0  0  0  0  0  0  0
   -1.6225    0.9058    2.9785 H   0  0  0  0  0  0  0  0  0  0  0  0
    0.1929    1.0750    4.1351 C   0  0  0  0  0  0  0  0  0  0  0  0
    0.3381   -0.0051    4.2408 H   0  0  0  0  0  0  0  0  0  0  0  0
    1.1794    1.5415    4.0434 H   0  0  0  0  0  0  0  0  0  0  0  0
   -0.5074    1.6161    5.3778 C   0  0  0  0  0  0  0  0  0  0  0  0
   -0.6359    2.7012    5.2950 H   0  0  0  0  0  0  0  0  0  0  0  0
   -1.4996    1.1619    5.4766 H   0  0  0  0  0  0  0  0  0  0  0  0
    0.3108    1.2964    6.5511 N   0  0  0  0  0  0  0  0  0  0  0  0
   -0.1296    1.6234    7.4110 H   0  0  0  0  0  0  0  0  0  0  0  0
    0.5084    0.2967    6.5995 H   0  0  0  0  0  0  0  0  0  0  0  0
    0.1465    0.8609   -0.9013 C   0  0  0  0  0  0  0  0  0  0  0  0
    0.7296    1.8032   -1.4208 O   0  0  0  0  0  0  0  0  0  0  0  0
    0.2632   -0.4077   -1.4355 N   0  0  0  0  0  0  0  0  0  0  0  0
   -0.1704   -1.1614   -0.8975 H   0  0  0  0  0  0  0  0  0  0  0  0
    1.1300   -0.7366   -2.5580 C   0  0  0  0  0  0  0  0  0  0  0  0
    2.1745   -0.5212   -2.3106 H   0  0  0  0  0  0  0  0  0  0  0  0
    1.0430   -1.7995   -2.8026 H   0  0  0  0  0  0  0  0  0  0  0  0
    0.8486   -0.1546   -3.4418 H   0  0  0  0  0  0  0  0  0  0  0  0
  1  2  1  0  0  0  0
  2  3  1  0  0  0  0
  2  4  1  0  0  0  0
  2  5  1  0  0  0  0
  5  6  2  0  0  0  0
  5  7  1  0  0  0  0
  7  8  1  0  0  0  0
  7  9  1  0  0  0  0
  9 10  1  0  0  0  0
  9 11  1  0  0  0  0
  9 26  1  0  0  0  0
 11 12  1  0  0  0  0
 11 13  1  0  0  0  0
 11 14  1  0  0  0  0
 14 15  1  0  0  0  0
 14 16  1  0  0  0  0
 14 17  1  0  0  0  0
 17 18  1  0  0  0  0
 17 19  1  0  0  0  0
 17 20  1  0  0  0  0
 20 21  1  0  0  0  0
 20 22  1  0  0  0  0
 20 23  1  0  0  0  0
 23 24  1  0  0  0  0
 23 25  1  0  0  0  0
 26 27  2  0  0  0  0
 26 28  1  0  0  0  0
 28 29  1  0  0  0  0
 28 30  1  0  0  0  0
 30 31  1  0  0  0  0
 30 32  1  0  0  0  0
 30 33  1  0  0  0  0
M  END
$$$$

  -OEChem-01062216083D

 33 32  0     1  0  0  0  0  0999 V2000
   -3.7815   -2.3678    1.2474 H   0  0  0  0  0  0  0  0  0  0  0  0
   -3.7522   -1.3367    0.8837 C   0  0  0  0  0  0  0  0  0  0  0  0
   -4.2055   -0.6877    1.6368 H   0  0  0  0  0  0  0  0  0  0  0  0
   -4.3313   -1.2718   -0.0407 H   0  0  0  0  0  0  0  0  0  0  0  0
   -2.3184   -0.9133    0.6279 C   0  0  0  0  0  0  0  0  0  0  0  0
   -1.4281   -1.7470    0.6421 O   0  0  0  0  0  0  0  0  0  0  0  0
   -2.0508    0.3789    0.2212 N   0  0  0  0  0  0  0  0  0  0  0  0
   -2.8704    0.9745    0.1443 H   0  0  0  0  0  0  0  0  0  0  0  0
   -0.7502    1.0824    0.3256 C   0  0  1  0  0  0  0  0  0  0  0  0
   -0.9696    2.1549    0.3363 H   0  0  0  0  0  0  0  0  0  0  0  0
    0.0489    0.7822    1.6135 C   0  0  0  0  0  0  0  0  0  0  0  0
    0.2229   -0.2895    1.7352 H   0  0  0  0  0  0  0  0  0  0  0  0
    1.0350    1.2521    1.5268 H   0  0  0  0  0  0  0  0  0  0  0  0
   -0.6470    1.3557    2.8547 C   0  0  0  0  0  0  0  0  0  0  0  0
   -0.7730    2.4375    2.7409 H   0  0  0  0  0  0  0  0  0  0  0  0
   -1.6398    0.9076    2.9614 H   0  0  0  0  0  0  0  0  0  0  0  0
    0.1800    1.0641    4.1112 C   0  0  0  0  0  0  0  0  0  0  0  0
    0.3189   -0.0171    4.2145 H   0  0  0  0  0  0  0  0  0  0  0  0
    1.1694    1.5239    4.0167 H   0  0  0  0  0  0  0  0  0  0  0  0
   -0.5117    1.6070    5.3581 C   0  0  0  0  0  0  0  0  0  0  0  0
   -0.6343    2.6928    5.2778 H   0  0  0  0  0  0  0  0  0  0  0  0
   -1.5059    1.1583    5.4608 H   0  0  0  0  0  0  0  0  0  0  0  0
    0.3099    1.2795    6.5266 N   0  0  0  0  0  0  0  0  0  0  0  0
   -0.1241    1.6070    7.3894 H   0  0  0  0  0  0  0  0  0  0  0  0
    0.5012    0.2785    6.5716 H   0  0  0  0  0  0  0  0  0  0  0  0
    0.1269    0.8671   -0.9247 C   0  0  0  0  0  0  0  0  0  0  0  0
    0.8955    1.7472   -1.2892 O   0  0  0  0  0  0  0  0  0  0  0  0
    0.0233   -0.3038   -1.6511 N   0  0  0  0  0  0  0  0  0  0  0  0
   -0.4846   -1.0580   -1.1856 H   0  0  0  0  0  0  0  0  0  0  0  0
    0.9122   -0.6349   -2.7564 C   0  0  0  0  0  0  0  0  0  0  0  0
    1.9458   -0.7170   -2.4042 H   0  0  0  0  0  0  0  0  0  0  0  0
    0.6192   -1.5903   -3.2023 H   0  0  0  0  0  0  0  0  0  0  0  0
    0.8638    0.1363   -3.5324 H   0  0  0  0  0  0  0  0  0  0  0  0
  1  2  1  0  0  0  0
  2  3  1  0  0  0  0
  2  4  1  0  0  0  0
  2  5  1  0  0  0  0
  5  6  2  0  0  0  0
  5  7  1  0  0  0  0
  7  8  1  0  0  0  0
  7  9  1  0  0  0  0
  9 10  1  0  0  0  0
  9 11  1  0  0  0  0
  9 26  1  0  0  0  0
 11 12  1  0  0  0  0
 11 13  1  0  0  0  0
 11 14  1  0  0  0  0
 14 15  1  0  0  0  0
 14 16  1  0  0  0  0
 14 17  1  0  0  0  0
 17 18  1  0  0  0  0
 17 19  1  0  0  0  0
 17 20  1  0  0  0  0
 20 21  1  0  0  0  0
 20 22  1  0  0  0  0
 20 23  1  0  0  0  0
 23 24  1  0  0  0  0
 23 25  1  0  0  0  0
 26 27  2  0  0  0  0
 26 28  1  0  0  0  0
 28 29  1  0  0  0  0
 28 30  1  0  0  0  0
 30 31  1  0  0  0  0
 30 32  1  0  0  0  0
 30 33  1  0  0  0  0
M  END
$$$$

  -OEChem-01062216083D

 33 32  0     1  0  0  0  0  0999 V2000
   -3.7836   -2.3643    1.2864 H   0  0  0  0  0  0  0  0  0  0  0  0
   -3.7578   -1.3437    0.8937 C   0  0  0  0  0  0  0  0  0  0  0  0
   -4.2224   -0.6761    1.6234 H   0  0  0  0  0  0  0  0  0  0  0  0
   -4.3289   -1.3094   -0.0372 H   0  0  0  0  0  0  0  0  0  0  0  0
   -2.3239   -0.9190    0.6387 C   0  0  0  0  0  0  0  0  0  0  0  0
   -1.4371   -1.7548    0.6433 O   0  0  0  0  0  0  0  0  0  0  0  0
   -2.0558    0.3734    0.2323 N   0  0  0  0  0  0  0  0  0  0  0  0
   -2.8745    0.9715    0.1673 H   0  0  0  0  0  0  0  0  0  0  0  0
   -0.7525    1.0756    0.3275 C   0  0  1  0  0  0  0  0  0  0  0  0
   -0.9711    2.1482    0.3381 H   0  0  0  0  0  0  0  0  0  0  0  0
    0.0467    0.7750    1.6165 C   0  0  0  0  0  0  0  0  0  0  0  0
    0.2159   -0.2975    1.7397 H   0  0  0  0  0  0  0  0  0  0  0  0
    1.0356    1.2393    1.5308 H   0  0  0  0  0  0  0  0  0  0  0  0
   -0.6456    1.3542    2.8575 C   0  0  0  0  0  0  0  0  0  0  0  0
   -0.7664    2.4365    2.7413 H   0  0  0  0  0  0  0  0  0  0  0  0
   -1.6404    0.9108    2.9661 H   0  0  0  0  0  0  0  0  0  0  0  0
    0.1812    1.0622    4.1141 C   0  0  0  0  0  0  0  0  0  0  0  0
    0.3160   -0.0191    4.2196 H   0  0  0  0  0  0  0  0  0  0  0  0
    1.1724    1.5179    4.0177 H   0  0  0  0  0  0  0  0  0  0  0  0
   -0.5083    1.6113    5.3593 C   0  0  0  0  0  0  0  0  0  0  0  0
   -0.6268    2.6975    5.2764 H   0  0  0  0  0  0  0  0  0  0  0  0
   -1.5044    1.1668    5.4618 H   0  0  0  0  0  0  0  0  0  0  0  0
    0.3109    1.2845    6.5300 N   0  0  0  0  0  0  0  0  0  0  0  0
   -0.1291    1.6045    7.3928 H   0  0  0  0  0  0  0  0  0  0  0  0
    0.5112    0.2850    6.5707 H   0  0  0  0  0  0  0  0  0  0  0  0
    0.1239    0.8674   -0.9269 C   0  0  0  0  0  0  0  0  0  0  0  0
    1.0408    1.6434   -1.1634 O   0  0  0  0  0  0  0  0  0  0  0  0
   -0.1749   -0.1333   -1.8322 N   0  0  0  0  0  0  0  0  0  0  0  0
   -0.7934   -0.8598   -1.4745 H   0  0  0  0  0  0  0  0  0  0  0  0
    0.6760   -0.4463   -2.9724 C   0  0  0  0  0  0  0  0  0  0  0  0
    1.6704   -0.7557   -2.6339 H   0  0  0  0  0  0  0  0  0  0  0  0
    0.2379   -1.2611   -3.5565 H   0  0  0  0  0  0  0  0  0  0  0  0
    0.7810    0.4270   -3.6249 H   0  0  0  0  0  0  0  0  0  0  0  0
  1  2  1  0  0  0  0
  2  3  1  0  0  0  0
  2  4  1  0  0  0  0
  2  5  1  0  0  0  0
  5  6  2  0  0  0  0
  5  7  1  0  0  0  0
  7  8  1  0  0  0  0
  7  9  1  0  0  0  0
  9 10  1  0  0  0  0
  9 11  1  0  0  0  0
  9 26  1  0  0  0  0
 11 12  1  0  0  0  0
 11 13  1  0  0  0  0
 11 14  1  0  0  0  0
 14 15  1  0  0  0  0
 14 16  1  0  0  0  0
 14 17  1  0  0  0  0
 17 18  1  0  0  0  0
 17 19  1  0  0  0  0
 17 20  1  0  0  0  0
 20 21  1  0  0  0  0
 20 22  1  0  0  0  0
 20 23  1  0  0  0  0
 23 24  1  0  0  0  0
 23 25  1  0  0  0  0
 26 27  2  0  0  0  0
 26 28  1  0  0  0  0
 28 29  1  0  0  0  0
 28 30  1  0  0  0  0
 30 31  1  0  0  0  0
 30 32  1  0  0  0  0
 30 33  1  0  0  0  0
M  END
$$$$

  -OEChem-01062216083D

 33 32  0     1  0  0  0  0  0999 V2000
   -3.7659   -2.3814    1.2856 H   0  0  0  0  0  0  0  0  0  0  0  0
   -3.7406   -1.3533    0.9130 C   0  0  0  0  0  0  0  0  0  0  0  0
   -4.1874   -0.6983    1.6649 H   0  0  0  0  0  0  0  0  0  0  0  0
   -4.3282   -1.2972   -0.0066 H   0  0  0  0  0  0  0  0  0  0  0  0
   -2.3088   -0.9321    0.6411 C   0  0  0  0  0  0  0  0  0  0  0  0
   -1.4234   -1.7682    0.6542 O   0  0  0  0  0  0  0  0  0  0  0  0
   -2.0468    0.3632    0.2377 N   0  0  0  0  0  0  0  0  0  0  0  0
   -2.8668    0.9617    0.1956 H   0  0  0  0  0  0  0  0  0  0  0  0
   -0.7427    1.0658    0.3259 C   0  0  1  0  0  0  0  0  0  0  0  0
   -0.9623    2.1378    0.3384 H   0  0  0  0  0  0  0  0  0  0  0  0
    0.0525    0.7656    1.6200 C   0  0  0  0  0  0  0  0  0  0  0  0
    0.2200   -0.3068    1.7458 H   0  0  0  0  0  0  0  0  0  0  0  0
    1.0425    1.2276    1.5409 H   0  0  0  0  0  0  0  0  0  0  0  0
   -0.6432    1.3507    2.8565 C   0  0  0  0  0  0  0  0  0  0  0  0
   -0.7594    2.4330    2.7363 H   0  0  0  0  0  0  0  0  0  0  0  0
   -1.6399    0.9106    2.9617 H   0  0  0  0  0  0  0  0  0  0  0  0
    0.1765    1.0609    4.1182 C   0  0  0  0  0  0  0  0  0  0  0  0
    0.3078   -0.0205    4.2282 H   0  0  0  0  0  0  0  0  0  0  0  0
    1.1693    1.5137    4.0253 H   0  0  0  0  0  0  0  0  0  0  0  0
   -0.5166    1.6158    5.3588 C   0  0  0  0  0  0  0  0  0  0  0  0
   -0.6323    2.7020    5.2720 H   0  0  0  0  0  0  0  0  0  0  0  0
   -1.5139    1.1735    5.4593 H   0  0  0  0  0  0  0  0  0  0  0  0
    0.2971    1.2902    6.5337 N   0  0  0  0  0  0  0  0  0  0  0  0
   -0.1423    1.6195    7.3931 H   0  0  0  0  0  0  0  0  0  0  0  0
    0.4890    0.2894    6.5817 H   0  0  0  0  0  0  0  0  0  0  0  0
    0.1274    0.8664   -0.9373 C   0  0  0  0  0  0  0  0  0  0  0  0
    1.1754    1.4868   -1.0624 O   0  0  0  0  0  0  0  0  0  0  0  0
   -0.3294    0.0986   -1.9926 N   0  0  0  0  0  0  0  0  0  0  0  0
   -1.0906   -0.5354   -1.7637 H   0  0  0  0  0  0  0  0  0  0  0  0
    0.4790   -0.1831   -3.1722 C   0  0  0  0  0  0  0  0  0  0  0  0
    1.3768   -0.7451   -2.8943 H   0  0  0  0  0  0  0  0  0  0  0  0
   -0.0948   -0.7759   -3.8909 H   0  0  0  0  0  0  0  0  0  0  0  0
    0.7834    0.7481   -3.6617 H   0  0  0  0  0  0  0  0  0  0  0  0
  1  2  1  0  0  0  0
  2  3  1  0  0  0  0
  2  4  1  0  0  0  0
  2  5  1  0  0  0  0
  5  6  2  0  0  0  0
  5  7  1  0  0  0  0
  7  8  1  0  0  0  0
  7  9  1  0  0  0  0
  9 10  1  0  0  0  0
  9 11  1  0  0  0  0
  9 26  1  0  0  0  0
 11 12  1  0  0  0  0
 11 13  1  0  0  0  0
 11 14  1  0  0  0  0
 14 15  1  0  0  0  0
 14 16  1  0  0  0  0
 14 17  1  0  0  0  0
 17 18  1  0  0  0  0
 17 19  1  0  0  0  0
 17 20  1  0  0  0  0
 20 21  1  0  0  0  0
 20 22  1  0  0  0  0
 20 23  1  0  0  0  0
 23 24  1  0  0  0  0
 23 25  1  0  0  0  0
 26 27  2  0  0  0  0
 26 28  1  0  0  0  0
 28 29  1  0  0  0  0
 28 30  1  0  0  0  0
 30 31  1  0  0  0  0
 30 32  1  0  0  0  0
 30 33  1  0  0  0  0
M  END
$$$$

  -OEChem-01062216083D

 33 32  0     1  0  0  0  0  0999 V2000
   -3.7567   -2.4023    1.2369 H   0  0  0  0  0  0  0  0  0  0  0  0
   -3.7262   -1.3750    0.8622 C   0  0  0  0  0  0  0  0  0  0  0  0
   -4.2019   -0.7207    1.5969 H   0  0  0  0  0  0  0  0  0  0  0  0
   -4.2837   -1.3259   -0.0764 H   0  0  0  0  0  0  0  0  0  0  0  0
   -2.2888   -0.9452    0.6360 C   0  0  0  0  0  0  0  0  0  0  0  0
   -1.4014   -1.7769    0.6895 O   0  0  0  0  0  0  0  0  0  0  0  0
   -2.0263    0.3550    0.2451 N   0  0  0  0  0  0  0  0  0  0  0  0
   -2.8471    0.9526    0.2046 H   0  0  0  0  0  0  0  0  0  0  0  0
   -0.7218    1.0571    0.3354 C   0  0  1  0  0  0  0  0  0  0  0  0
   -0.9414    2.1289    0.3490 H   0  0  0  0  0  0  0  0  0  0  0  0
    0.0704    0.7602    1.6341 C   0  0  0  0  0  0  0  0  0  0  0  0
    0.2378   -0.3116    1.7640 H   0  0  0  0  0  0  0  0  0  0  0  0
    1.0605    1.2228    1.5608 H   0  0  0  0  0  0  0  0  0  0  0  0
   -0.6296    1.3497    2.8662 C   0  0  0  0  0  0  0  0  0  0  0  0
   -0.7475    2.4314    2.7425 H   0  0  0  0  0  0  0  0  0  0  0  0
   -1.6261    0.9090    2.9692 H   0  0  0  0  0  0  0  0  0  0  0  0
    0.1847    1.0646    4.1328 C   0  0  0  0  0  0  0  0  0  0  0  0
    0.3152   -0.0164    4.2476 H   0  0  0  0  0  0  0  0  0  0  0  0
    1.1781    1.5162    4.0427 H   0  0  0  0  0  0  0  0  0  0  0  0
   -0.5151    1.6253    5.3670 C   0  0  0  0  0  0  0  0  0  0  0  0
   -0.6300    2.7110    5.2741 H   0  0  0  0  0  0  0  0  0  0  0  0
   -1.5129    1.1836    5.4632 H   0  0  0  0  0  0  0  0  0  0  0  0
    0.2909    1.3057    6.5486 N   0  0  0  0  0  0  0  0  0  0  0  0
   -0.1569    1.6342    7.4039 H   0  0  0  0  0  0  0  0  0  0  0  0
    0.4867    0.3057    6.5995 H   0  0  0  0  0  0  0  0  0  0  0  0
    0.1340    0.8629   -0.9404 C   0  0  0  0  0  0  0  0  0  0  0  0
    1.2854    1.2760   -0.9886 O   0  0  0  0  0  0  0  0  0  0  0  0
   -0.4459    0.3774   -2.0987 N   0  0  0  0  0  0  0  0  0  0  0  0
   -1.3369   -0.0937   -1.9744 H   0  0  0  0  0  0  0  0  0  0  0  0
    0.3114    0.1271   -3.3189 C   0  0  0  0  0  0  0  0  0  0  0  0
    1.0886   -0.6231   -3.1393 H   0  0  0  0  0  0  0  0  0  0  0  0
   -0.3519   -0.2409   -4.1074 H   0  0  0  0  0  0  0  0  0  0  0  0
    0.7857    1.0491   -3.6713 H   0  0  0  0  0  0  0  0  0  0  0  0
  1  2  1  0  0  0  0
  2  3  1  0  0  0  0
  2  4  1  0  0  0  0
  2  5  1  0  0  0  0
  5  6  2  0  0  0  0
  5  7  1  0  0  0  0
  7  8  1  0  0  0  0
  7  9  1  0  0  0  0
  9 10  1  0  0  0  0
  9 11  1  0  0  0  0
  9 26  1  0  0  0  0
 11 12  1  0  0  0  0
 11 13  1  0  0  0  0
 11 14  1  0  0  0  0
 14 15  1  0  0  0  0
 14 16  1  0  0  0  0
 14 17  1  0  0  0  0
 17 18  1  0  0  0  0
 17 19  1  0  0  0  0
 17 20  1  0  0  0  0
 20 21  1  0  0  0  0
 20 22  1  0  0  0  0
 20 23  1  0  0  0  0
 23 24  1  0  0  0  0
 23 25  1  0  0  0  0
 26 27  2  0  0  0  0
 26 28  1  0  0  0  0
 28 29  1  0  0  0  0
 28 30  1  0  0  0  0
 30 31  1  0  0  0  0
 30 32  1  0  0  0  0
 30 33  1  0  0  0  0
M  END
$$$$

  -OEChem-01062216083D

 33 32  0     1  0  0  0  0  0999 V2000
   -3.7461   -2.4177    1.2066 H   0  0  0  0  0  0  0  0  0  0  0  0
   -3.7121   -1.3903    0.8325 C   0  0  0  0  0  0  0  0  0  0  0  0
   -4.1983   -0.7368    1.5608 H   0  0  0  0  0  0  0  0  0  0  0  0
   -4.2568   -1.3421   -0.1134 H   0  0  0  0  0  0  0  0  0  0  0  0
   -2.2724   -0.9582    0.6257 C   0  0  0  0  0  0  0  0  0  0  0  0
   -1.3855   -1.7877    0.7078 O   0  0  0  0  0  0  0  0  0  0  0  0
   -2.0089    0.3446    0.2426 N   0  0  0  0  0  0  0  0  0  0  0  0
   -2.8304    0.9409    0.2059 H   0  0  0  0  0  0  0  0  0  0  0  0
   -0.7048    1.0452    0.3378 C   0  0  1  0  0  0  0  0  0  0  0  0
   -0.9243    2.1168    0.3525 H   0  0  0  0  0  0  0  0  0  0  0  0
    0.0820    0.7533    1.6413 C   0  0  0  0  0  0  0  0  0  0  0  0
    0.2509   -0.3177    1.7757 H   0  0  0  0  0  0  0  0  0  0  0  0
    1.0713    1.2180    1.5730 H   0  0  0  0  0  0  0  0  0  0  0  0
   -0.6239    1.3481    2.8671 C   0  0  0  0  0  0  0  0  0  0  0  0
   -0.7397    2.4293    2.7379 H   0  0  0  0  0  0  0  0  0  0  0  0
   -1.6211    0.9078    2.9672 H   0  0  0  0  0  0  0  0  0  0  0  0
    0.1850    1.0684    4.1381 C   0  0  0  0  0  0  0  0  0  0  0  0
    0.3150   -0.0121    4.2583 H   0  0  0  0  0  0  0  0  0  0  0  0
    1.1785    1.5205    4.0497 H   0  0  0  0  0  0  0  0  0  0  0  0
   -0.5191    1.6336    5.3674 C   0  0  0  0  0  0  0  0  0  0  0  0
   -0.6341    2.7188    5.2698 H   0  0  0  0  0  0  0  0  0  0  0  0
   -1.5172    1.1920    5.4626 H   0  0  0  0  0  0  0  0  0  0  0  0
    0.2843    1.3176    6.5517 N   0  0  0  0  0  0  0  0  0  0  0  0
   -0.1678    1.6435    7.4056 H   0  0  0  0  0  0  0  0  0  0  0  0
    0.4854    0.3186    6.6029 H   0  0  0  0  0  0  0  0  0  0  0  0
    0.1435    0.8516   -0.9443 C   0  0  0  0  0  0  0  0  0  0  0  0
    1.3559    1.0217   -0.9379 O   0  0  0  0  0  0  0  0  0  0  0  0
   -0.4897    0.6758   -2.1619 N   0  0  0  0  0  0  0  0  0  0  0  0
   -1.4668    0.4057   -2.1167 H   0  0  0  0  0  0  0  0  0  0  0  0
    0.2337    0.4779   -3.4123 C   0  0  0  0  0  0  0  0  0  0  0  0
    0.8399   -0.4328   -3.3641 H   0  0  0  0  0  0  0  0  0  0  0  0
   -0.4695    0.3845   -4.2453 H   0  0  0  0  0  0  0  0  0  0  0  0
    0.8930    1.3291   -3.6134 H   0  0  0  0  0  0  0  0  0  0  0  0
  1  2  1  0  0  0  0
  2  3  1  0  0  0  0
  2  4  1  0  0  0  0
  2  5  1  0  0  0  0
  5  6  2  0  0  0  0
  5  7  1  0  0  0  0
  7  8  1  0  0  0  0
  7  9  1  0  0  0  0
  9 10  1  0  0  0  0
  9 11  1  0  0  0  0
  9 26  1  0  0  0  0
 11 12  1  0  0  0  0
 11 13  1  0  0  0  0
 11 14  1  0  0  0  0
 14 15  1  0  0  0  0
 14 16  1  0  0  0  0
 14 17  1  0  0  0  0
 17 18  1  0  0  0  0
 17 19  1  0  0  0  0
 17 20  1  0  0  0  0
 20 21  1  0  0  0  0
 20 22  1  0  0  0  0
 20 23  1  0  0  0  0
 23 24  1  0  0  0  0
 23 25  1  0  0  0  0
 26 27  2  0  0  0  0
 26 28  1  0  0  0  0
 28 29  1  0  0  0  0
 28 30  1  0  0  0  0
 30 31  1  0  0  0  0
 30 32  1  0  0  0  0
 30 33  1  0  0  0  0
M  END
$$$$

  -OEChem-01062216083D

 33 32  0     1  0  0  0  0  0999 V2000
   -3.7480   -2.4357    1.1442 H   0  0  0  0  0  0  0  0  0  0  0  0
   -3.7066   -1.4037    0.7835 C   0  0  0  0  0  0  0  0  0  0  0  0
   -4.2151   -0.7604    1.5054 H   0  0  0  0  0  0  0  0  0  0  0  0
   -4.2243   -1.3461   -0.1769 H   0  0  0  0  0  0  0  0  0  0  0  0
   -2.2628   -0.9659    0.6214 C   0  0  0  0  0  0  0  0  0  0  0  0
   -1.3776   -1.7916    0.7469 O   0  0  0  0  0  0  0  0  0  0  0  0
   -1.9958    0.3381    0.2429 N   0  0  0  0  0  0  0  0  0  0  0  0
   -2.8187    0.9300    0.1840 H   0  0  0  0  0  0  0  0  0  0  0  0
   -0.6934    1.0406    0.3413 C   0  0  1  0  0  0  0  0  0  0  0  0
   -0.9122    2.1123    0.3562 H   0  0  0  0  0  0  0  0  0  0  0  0
    0.0932    0.7532    1.6459 C   0  0  0  0  0  0  0  0  0  0  0  0
    0.2668   -0.3168    1.7824 H   0  0  0  0  0  0  0  0  0  0  0  0
    1.0807    1.2217    1.5752 H   0  0  0  0  0  0  0  0  0  0  0  0
   -0.6166    1.3490    2.8693 C   0  0  0  0  0  0  0  0  0  0  0  0
   -0.7357    2.4295    2.7378 H   0  0  0  0  0  0  0  0  0  0  0  0
   -1.6125    0.9057    2.9685 H   0  0  0  0  0  0  0  0  0  0  0  0
    0.1906    1.0746    4.1422 C   0  0  0  0  0  0  0  0  0  0  0  0
    0.3224   -0.0054    4.2649 H   0  0  0  0  0  0  0  0  0  0  0  0
    1.1835    1.5282    4.0550 H   0  0  0  0  0  0  0  0  0  0  0  0
   -0.5171    1.6407    5.3690 C   0  0  0  0  0  0  0  0  0  0  0  0
   -0.6350    2.7255    5.2693 H   0  0  0  0  0  0  0  0  0  0  0  0
   -1.5140    1.1965    5.4634 H   0  0  0  0  0  0  0  0  0  0  0  0
    0.2856    1.3293    6.5551 N   0  0  0  0  0  0  0  0  0  0  0  0
   -0.1695    1.6527    7.4084 H   0  0  0  0  0  0  0  0  0  0  0  0
    0.4923    0.3315    6.6064 H   0  0  0  0  0  0  0  0  0  0  0  0
    0.1461    0.8433   -0.9458 C   0  0  0  0  0  0  0  0  0  0  0  0
    1.3657    0.7431   -0.9146 O   0  0  0  0  0  0  0  0  0  0  0  0
   -0.4696    0.9806   -2.1778 N   0  0  0  0  0  0  0  0  0  0  0  0
   -1.4834    0.9484   -2.1799 H   0  0  0  0  0  0  0  0  0  0  0  0
    0.2385    0.8263   -3.4432 C   0  0  0  0  0  0  0  0  0  0  0  0
    0.6489   -0.1850   -3.5312 H   0  0  0  0  0  0  0  0  0  0  0  0
   -0.4431    0.9996   -4.2813 H   0  0  0  0  0  0  0  0  0  0  0  0
    1.0598    1.5473   -3.5139 H   0  0  0  0  0  0  0  0  0  0  0  0
  1  2  1  0  0  0  0
  2  3  1  0  0  0  0
  2  4  1  0  0  0  0
  2  5  1  0  0  0  0
  5  6  2  0  0  0  0
  5  7  1  0  0  0  0
  7  8  1  0  0  0  0
  7  9  1  0  0  0  0
  9 10  1  0  0  0  0
  9 11  1  0  0  0  0
  9 26  1  0  0  0  0
 11 12  1  0  0  0  0
 11 13  1  0  0  0  0
 11 14  1  0  0  0  0
 14 15  1  0  0  0  0
 14 16  1  0  0  0  0
 14 17  1  0  0  0  0
 17 18  1  0  0  0  0
 17 19  1  0  0  0  0
 17 20  1  0  0  0  0
 20 21  1  0  0  0  0
 20 22  1  0  0  0  0
 20 23  1  0  0  0  0
 23 24  1  0  0  0  0
 23 25  1  0  0  0  0
 26 27  2  0  0  0  0
 26 28  1  0  0  0  0
 28 29  1  0  0  0  0
 28 30  1  0  0  0  0
 30 31  1  0  0  0  0
 30 32  1  0  0  0  0
 30 33  1  0  0  0  0
M  END
$$$$

  -OEChem-01062216083D

 33 32  0     1  0  0  0  0  0999 V2000
   -3.7820   -2.4517    1.0457 H   0  0  0  0  0  0  0  0  0  0  0  0
   -3.7220   -1.4175    0.6947 C   0  0  0  0  0  0  0  0  0  0  0  0
   -4.2815   -0.7813    1.3844 H   0  0  0  0  0  0  0  0  0  0  0  0
   -4.1747   -1.3571   -0.2980 H   0  0  0  0  0  0  0  0  0  0  0  0
   -2.2731   -0.9705    0.6320 C   0  0  0  0  0  0  0  0  0  0  0  0
   -1.3970   -1.7846    0.8552 O   0  0  0  0  0  0  0  0  0  0  0  0
   -1.9961    0.3321    0.2541 N   0  0  0  0  0  0  0  0  0  0  0  0
   -2.8192    0.9086    0.1115 H   0  0  0  0  0  0  0  0  0  0  0  0
   -0.6996    1.0442    0.3515 C   0  0  1  0  0  0  0  0  0  0  0  0
   -0.9244    2.1145    0.3692 H   0  0  0  0  0  0  0  0  0  0  0  0
    0.0988    0.7645    1.6500 C   0  0  0  0  0  0  0  0  0  0  0  0
    0.2859   -0.3034    1.7843 H   0  0  0  0  0  0  0  0  0  0  0  0
    1.0808    1.2427    1.5679 H   0  0  0  0  0  0  0  0  0  0  0  0
   -0.6081    1.3517    2.8793 C   0  0  0  0  0  0  0  0  0  0  0  0
   -0.7414    2.4306    2.7493 H   0  0  0  0  0  0  0  0  0  0  0  0
   -1.5980    0.8966    2.9844 H   0  0  0  0  0  0  0  0  0  0  0  0
    0.2096    1.0860    4.1475 C   0  0  0  0  0  0  0  0  0  0  0  0
    0.3542    0.0075    4.2693 H   0  0  0  0  0  0  0  0  0  0  0  0
    1.1969    1.5505    4.0549 H   0  0  0  0  0  0  0  0  0  0  0  0
   -0.4979    1.6448    5.3784 C   0  0  0  0  0  0  0  0  0  0  0  0
   -0.6284    2.7282    5.2804 H   0  0  0  0  0  0  0  0  0  0  0  0
   -1.4896    1.1898    5.4782 H   0  0  0  0  0  0  0  0  0  0  0  0
    0.3146    1.3421    6.5599 N   0  0  0  0  0  0  0  0  0  0  0  0
   -0.1393    1.6615    7.4153 H   0  0  0  0  0  0  0  0  0  0  0  0
    0.5294    0.3459    6.6103 H   0  0  0  0  0  0  0  0  0  0  0  0
    0.1359    0.8436   -0.9371 C   0  0  0  0  0  0  0  0  0  0  0  0
    1.3005    0.4684   -0.9086 O   0  0  0  0  0  0  0  0  0  0  0  0
   -0.3855    1.2697   -2.1469 N   0  0  0  0  0  0  0  0  0  0  0  0
   -1.3700    1.5118   -2.1643 H   0  0  0  0  0  0  0  0  0  0  0  0
    0.3286    1.1431   -3.4121 C   0  0  0  0  0  0  0  0  0  0  0  0
    0.5483    0.0915   -3.6245 H   0  0  0  0  0  0  0  0  0  0  0  0
   -0.2778    1.5428   -4.2304 H   0  0  0  0  0  0  0  0  0  0  0  0
    1.2710    1.6998   -3.3774 H   0  0  0  0  0  0  0  0  0  0  0  0
  1  2  1  0  0  0  0
  2  3  1  0  0  0  0
  2  4  1  0  0  0  0
  2  5  1  0  0  0  0
  5  6  2  0  0  0  0
  5  7  1  0  0  0  0
  7  8  1  0  0  0  0
  7  9  1  0  0  0  0
  9 10  1  0  0  0  0
  9 11  1  0  0  0  0
  9 26  1  0  0  0  0
 11 12  1  0  0  0  0
 11 13  1  0  0  0  0
 11 14  1  0  0  0  0
 14 15  1  0  0  0  0
 14 16  1  0  0  0  0
 14 17  1  0  0  0  0
 17 18  1  0  0  0  0
 17 19  1  0  0  0  0
 17 20  1  0  0  0  0
 20 21  1  0  0  0  0
 20 22  1  0  0  0  0
 20 23  1  0  0  0  0
 23 24  1  0  0  0  0
 23 25  1  0  0  0  0
 26 27  2  0  0  0  0
 26 28  1  0  0  0  0
 28 29  1  0  0  0  0
 28 30  1  0  0  0  0
 30 31  1  0  0  0  0
 30 32  1  0  0  0  0
 30 33  1  0  0  0  0
M  END
$$$$

  -OEChem-01062216083D

 33 32  0     1  0  0  0  0  0999 V2000
   -3.8419   -2.4649    0.9558 H   0  0  0  0  0  0  0  0  0  0  0  0
   -3.7539   -1.4477    0.5632 C   0  0  0  0  0  0  0  0  0  0  0  0
   -4.4055   -0.7908    1.1444 H   0  0  0  0  0  0  0  0  0  0  0  0
   -4.0780   -1.4452   -0.4803 H   0  0  0  0  0  0  0  0  0  0  0  0
   -2.3160   -0.9724    0.6608 C   0  0  0  0  0  0  0  0  0  0  0  0
   -1.4692   -1.7567    1.0445 O   0  0  0  0  0  0  0  0  0  0  0  0
   -2.0248    0.3259    0.2769 N   0  0  0  0  0  0  0  0  0  0  0  0
   -2.8279    0.8620   -0.0348 H   0  0  0  0  0  0  0  0  0  0  0  0
   -0.7340    1.0487    0.3708 C   0  0  1  0  0  0  0  0  0  0  0  0
   -0.9692    2.1165    0.3901 H   0  0  0  0  0  0  0  0  0  0  0  0
    0.0853    0.7834    1.6573 C   0  0  0  0  0  0  0  0  0  0  0  0
    0.2907   -0.2814    1.7899 H   0  0  0  0  0  0  0  0  0  0  0  0
    1.0591    1.2744    1.5556 H   0  0  0  0  0  0  0  0  0  0  0  0
   -0.6086    1.3618    2.8975 C   0  0  0  0  0  0  0  0  0  0  0  0
   -0.7599    2.4388    2.7708 H   0  0  0  0  0  0  0  0  0  0  0  0
   -1.5902    0.8924    3.0199 H   0  0  0  0  0  0  0  0  0  0  0  0
    0.2377    1.1056    4.1489 C   0  0  0  0  0  0  0  0  0  0  0  0
    0.3983    0.0288    4.2657 H   0  0  0  0  0  0  0  0  0  0  0  0
    1.2168    1.5827    4.0363 H   0  0  0  0  0  0  0  0  0  0  0  0
   -0.4507    1.6533    5.3950 C   0  0  0  0  0  0  0  0  0  0  0  0
   -0.5967    2.7349    5.3002 H   0  0  0  0  0  0  0  0  0  0  0  0
   -1.4341    1.1853    5.5139 H   0  0  0  0  0  0  0  0  0  0  0  0
    0.3892    1.3605    6.5600 N   0  0  0  0  0  0  0  0  0  0  0  0
   -0.0527    1.6723    7.4243 H   0  0  0  0  0  0  0  0  0  0  0  0
    0.6181    0.3671    6.6051 H   0  0  0  0  0  0  0  0  0  0  0  0
    0.1061    0.8421   -0.9130 C   0  0  0  0  0  0  0  0  0  0  0  0
    1.1438    0.1940   -0.9183 O   0  0  0  0  0  0  0  0  0  0  0  0
   -0.2508    1.5170   -2.0684 N   0  0  0  0  0  0  0  0  0  0  0  0
   -1.1105    2.0548   -2.0538 H   0  0  0  0  0  0  0  0  0  0  0  0
    0.5017    1.4234   -3.3144 C   0  0  0  0  0  0  0  0  0  0  0  0
    0.5329    0.3864   -3.6652 H   0  0  0  0  0  0  0  0  0  0  0  0
    0.0309    2.0366   -4.0887 H   0  0  0  0  0  0  0  0  0  0  0  0
    1.5281    1.7776   -3.1707 H   0  0  0  0  0  0  0  0  0  0  0  0
  1  2  1  0  0  0  0
  2  3  1  0  0  0  0
  2  4  1  0  0  0  0
  2  5  1  0  0  0  0
  5  6  2  0  0  0  0
  5  7  1  0  0  0  0
  7  8  1  0  0  0  0
  7  9  1  0  0  0  0
  9 10  1  0  0  0  0
  9 11  1  0  0  0  0
  9 26  1  0  0  0  0
 11 12  1  0  0  0  0
 11 13  1  0  0  0  0
 11 14  1  0  0  0  0
 14 15  1  0  0  0  0
 14 16  1  0  0  0  0
 14 17  1  0  0  0  0
 17 18  1  0  0  0  0
 17 19  1  0  0  0  0
 17 20  1  0  0  0  0
 20 21  1  0  0  0  0
 20 22  1  0  0  0  0
 20 23  1  0  0  0  0
 23 24  1  0  0  0  0
 23 25  1  0  0  0  0
 26 27  2  0  0  0  0
 26 28  1  0  0  0  0
 28 29  1  0  0  0  0
 28 30  1  0  0  0  0
 30 31  1  0  0  0  0
 30 32  1  0  0  0  0
 30 33  1  0  0  0  0
M  END
$$$$

  -OEChem-01062216083D

 33 32  0     1  0  0  0  0  0999 V2000
   -3.8443   -2.5195    0.7272 H   0  0  0  0  0  0  0  0  0  0  0  0
   -3.7557   -1.4843    0.3848 C   0  0  0  0  0  0  0  0  0  0  0  0
   -4.5212   -0.8839    0.8819 H   0  0  0  0  0  0  0  0  0  0  0  0
   -3.9224   -1.4580   -0.6947 H   0  0  0  0  0  0  0  0  0  0  0  0
   -2.3761   -0.9414    0.7109 C   0  0  0  0  0  0  0  0  0  0  0  0
   -1.6051   -1.6565    1.3228 O   0  0  0  0  0  0  0  0  0  0  0  0
   -2.0728    0.3511    0.3134 N   0  0  0  0  0  0  0  0  0  0  0  0
   -2.8084    0.8026   -0.2203 H   0  0  0  0  0  0  0  0  0  0  0  0
   -0.7818    1.0753    0.4028 C   0  0  1  0  0  0  0  0  0  0  0  0
   -1.0195    2.1424    0.4236 H   0  0  0  0  0  0  0  0  0  0  0  0
    0.0677    0.8137    1.6685 C   0  0  0  0  0  0  0  0  0  0  0  0
    0.2880   -0.2495    1.7911 H   0  0  0  0  0  0  0  0  0  0  0  0
    1.0345    1.3132    1.5444 H   0  0  0  0  0  0  0  0  0  0  0  0
   -0.6030    1.3811    2.9258 C   0  0  0  0  0  0  0  0  0  0  0  0
   -0.7682    2.4566    2.8061 H   0  0  0  0  0  0  0  0  0  0  0  0
   -1.5765    0.9006    3.0678 H   0  0  0  0  0  0  0  0  0  0  0  0
    0.2733    1.1288    4.1568 C   0  0  0  0  0  0  0  0  0  0  0  0
    0.4458    0.0529    4.2664 H   0  0  0  0  0  0  0  0  0  0  0  0
    1.2455    1.6152    4.0248 H   0  0  0  0  0  0  0  0  0  0  0  0
   -0.3928    1.6658    5.4193 C   0  0  0  0  0  0  0  0  0  0  0  0
   -0.5523    2.7461    5.3325 H   0  0  0  0  0  0  0  0  0  0  0  0
   -1.3684    1.1870    5.5587 H   0  0  0  0  0  0  0  0  0  0  0  0
    0.4768    1.3763    6.5628 N   0  0  0  0  0  0  0  0  0  0  0  0
    0.0481    1.6730    7.4390 H   0  0  0  0  0  0  0  0  0  0  0  0
    0.7196    0.3857    6.5933 H   0  0  0  0  0  0  0  0  0  0  0  0
    0.0571    0.8496   -0.8771 C   0  0  0  0  0  0  0  0  0  0  0  0
    0.8722   -0.0575   -0.9683 O   0  0  0  0  0  0  0  0  0  0  0  0
   -0.0832    1.7201   -1.9450 N   0  0  0  0  0  0  0  0  0  0  0  0
   -0.7286    2.4963   -1.8430 H   0  0  0  0  0  0  0  0  0  0  0  0
    0.7082    1.6182   -3.1660 C   0  0  0  0  0  0  0  0  0  0  0  0
    0.5502    0.6459   -3.6447 H   0  0  0  0  0  0  0  0  0  0  0  0
    0.4183    2.4019   -3.8724 H   0  0  0  0  0  0  0  0  0  0  0  0
    1.7743    1.7311   -2.9419 H   0  0  0  0  0  0  0  0  0  0  0  0
  1  2  1  0  0  0  0
  2  3  1  0  0  0  0
  2  4  1  0  0  0  0
  2  5  1  0  0  0  0
  5  6  2  0  0  0  0
  5  7  1  0  0  0  0
  7  8  1  0  0  0  0
  7  9  1  0  0  0  0
  9 10  1  0  0  0  0
  9 11  1  0  0  0  0
  9 26  1  0  0  0  0
 11 12  1  0  0  0  0
 11 13  1  0  0  0  0
 11 14  1  0  0  0  0
 14 15  1  0  0  0  0
 14 16  1  0  0  0  0
 14 17  1  0  0  0  0
 17 18  1  0  0  0  0
 17 19  1  0  0  0  0
 17 20  1  0  0  0  0
 20 21  1  0  0  0  0
 20 22  1  0  0  0  0
 20 23  1  0  0  0  0
 23 24  1  0  0  0  0
 23 25  1  0  0  0  0
 26 27  2  0  0  0  0
 26 28  1  0  0  0  0
 28 29  1  0  0  0  0
 28 30  1  0  0  0  0
 30 31  1  0  0  0  0
 30 32  1  0  0  0  0
 30 33  1  0  0  0  0
M  END
$$$$

  -OEChem-01062216083D

 33 32  0     1  0  0  0  0  0999 V2000
   -3.7975   -2.5357    0.6302 H   0  0  0  0  0  0  0  0  0  0  0  0
   -3.7091   -1.5071    0.2688 C   0  0  0  0  0  0  0  0  0  0  0  0
   -4.5544   -0.9278    0.6473 H   0  0  0  0  0  0  0  0  0  0  0  0
   -3.7391   -1.5170   -0.8233 H   0  0  0  0  0  0  0  0  0  0  0  0
   -2.4047   -0.8950    0.7453 C   0  0  0  0  0  0  0  0  0  0  0  0
   -1.7128   -1.5405    1.5115 O   0  0  0  0  0  0  0  0  0  0  0  0
   -2.1032    0.3948    0.3361 N   0  0  0  0  0  0  0  0  0  0  0  0
   -2.7715    0.7714   -0.3283 H   0  0  0  0  0  0  0  0  0  0  0  0
   -0.8096    1.1141    0.4273 C   0  0  1  0  0  0  0  0  0  0  0  0
   -1.0463    2.1813    0.4505 H   0  0  0  0  0  0  0  0  0  0  0  0
    0.0561    0.8434    1.6775 C   0  0  0  0  0  0  0  0  0  0  0  0
    0.2813   -0.2207    1.7850 H   0  0  0  0  0  0  0  0  0  0  0  0
    1.0196    1.3471    1.5464 H   0  0  0  0  0  0  0  0  0  0  0  0
   -0.6008    1.3993    2.9472 C   0  0  0  0  0  0  0  0  0  0  0  0
   -0.7685    2.4755    2.8377 H   0  0  0  0  0  0  0  0  0  0  0  0
   -1.5722    0.9166    3.0967 H   0  0  0  0  0  0  0  0  0  0  0  0
    0.2898    1.1390    4.1657 C   0  0  0  0  0  0  0  0  0  0  0  0
    0.4649    0.0625    4.2645 H   0  0  0  0  0  0  0  0  0  0  0  0
    1.2596    1.6278    4.0263 H   0  0  0  0  0  0  0  0  0  0  0  0
   -0.3628    1.6646    5.4399 C   0  0  0  0  0  0  0  0  0  0  0  0
   -0.5256    2.7453    5.3637 H   0  0  0  0  0  0  0  0  0  0  0  0
   -1.3357    1.1822    5.5868 H   0  0  0  0  0  0  0  0  0  0  0  0
    0.5214    1.3672    6.5705 N   0  0  0  0  0  0  0  0  0  0  0  0
    0.1029    1.6578    7.4535 H   0  0  0  0  0  0  0  0  0  0  0  0
    0.7631    0.3760    6.5915 H   0  0  0  0  0  0  0  0  0  0  0  0
    0.0323    0.8747   -0.8469 C   0  0  0  0  0  0  0  0  0  0  0  0
    0.5410   -0.2118   -1.0830 O   0  0  0  0  0  0  0  0  0  0  0  0
    0.1507    1.8803   -1.7913 N   0  0  0  0  0  0  0  0  0  0  0  0
   -0.2437    2.7885   -1.5681 H   0  0  0  0  0  0  0  0  0  0  0  0
    0.9320    1.7359   -3.0146 C   0  0  0  0  0  0  0  0  0  0  0  0
    0.5518    0.9038   -3.6165 H   0  0  0  0  0  0  0  0  0  0  0  0
    0.8712    2.6500   -3.6129 H   0  0  0  0  0  0  0  0  0  0  0  0
    1.9841    1.5465   -2.7769 H   0  0  0  0  0  0  0  0  0  0  0  0
  1  2  1  0  0  0  0
  2  3  1  0  0  0  0
  2  4  1  0  0  0  0
  2  5  1  0  0  0  0
  5  6  2  0  0  0  0
  5  7  1  0  0  0  0
  7  8  1  0  0  0  0
  7  9  1  0  0  0  0
  9 10  1  0  0  0  0
  9 11  1  0  0  0  0
  9 26  1  0  0  0  0
 11 12  1  0  0  0  0
 11 13  1  0  0  0  0
 11 14  1  0  0  0  0
 14 15  1  0  0  0  0
 14 16  1  0  0  0  0
 14 17  1  0  0  0  0
 17 18  1  0  0  0  0
 17 19  1  0  0  0  0
 17 20  1  0  0  0  0
 20 21  1  0  0  0  0
 20 22  1  0  0  0  0
 20 23  1  0  0  0  0
 23 24  1  0  0  0  0
 23 25  1  0  0  0  0
 26 27  2  0  0  0  0
 26 28  1  0  0  0  0
 28 29  1  0  0  0  0
 28 30  1  0  0  0  0
 30 31  1  0  0  0  0
 30 32  1  0  0  0  0
 30 33  1  0  0  0  0
M  END
$$$$

  -OEChem-01062216083D

 33 32  0     1  0  0  0  0  0999 V2000
   -3.7701   -2.5367    0.5880 H   0  0  0  0  0  0  0  0  0  0  0  0
   -3.6713   -1.5183    0.2013 C   0  0  0  0  0  0  0  0  0  0  0  0
   -4.5539   -0.9439    0.4920 H   0  0  0  0  0  0  0  0  0  0  0  0
   -3.6135   -1.5632   -0.8891 H   0  0  0  0  0  0  0  0  0  0  0  0
   -2.4199   -0.8659    0.7592 C   0  0  0  0  0  0  0  0  0  0  0  0
   -1.7725   -1.4770    1.5910 O   0  0  0  0  0  0  0  0  0  0  0  0
   -2.1188    0.4226    0.3463 N   0  0  0  0  0  0  0  0  0  0  0  0
   -2.7441    0.7610   -0.3782 H   0  0  0  0  0  0  0  0  0  0  0  0
   -0.8204    1.1317    0.4420 C   0  0  1  0  0  0  0  0  0  0  0  0
   -1.0541    2.1997    0.4637 H   0  0  0  0  0  0  0  0  0  0  0  0
    0.0504    0.8544    1.6867 C   0  0  0  0  0  0  0  0  0  0  0  0
    0.2698   -0.2115    1.7888 H   0  0  0  0  0  0  0  0  0  0  0  0
    1.0158    1.3539    1.5528 H   0  0  0  0  0  0  0  0  0  0  0  0
   -0.5966    1.4092    2.9621 C   0  0  0  0  0  0  0  0  0  0  0  0
   -0.7624    2.4862    2.8570 H   0  0  0  0  0  0  0  0  0  0  0  0
   -1.5691    0.9303    3.1163 H   0  0  0  0  0  0  0  0  0  0  0  0
    0.3003    1.1419    4.1752 C   0  0  0  0  0  0  0  0  0  0  0  0
    0.4718    0.0646    4.2706 H   0  0  0  0  0  0  0  0  0  0  0  0
    1.2712    1.6274    4.0322 H   0  0  0  0  0  0  0  0  0  0  0  0
   -0.3442    1.6670    5.4542 C   0  0  0  0  0  0  0  0  0  0  0  0
   -0.5032    2.7485    5.3809 H   0  0  0  0  0  0  0  0  0  0  0  0
   -1.3184    1.1885    5.6039 H   0  0  0  0  0  0  0  0  0  0  0  0
    0.5427    1.3645    6.5815 N   0  0  0  0  0  0  0  0  0  0  0  0
    0.1351    1.6701    7.4649 H   0  0  0  0  0  0  0  0  0  0  0  0
    0.7664    0.3693    6.6099 H   0  0  0  0  0  0  0  0  0  0  0  0
    0.0236    0.8842   -0.8293 C   0  0  0  0  0  0  0  0  0  0  0  0
    0.2402   -0.2491   -1.2362 O   0  0  0  0  0  0  0  0  0  0  0  0
    0.4163    1.9539   -1.6151 N   0  0  0  0  0  0  0  0  0  0  0  0
    0.2525    2.8893   -1.2560 H   0  0  0  0  0  0  0  0  0  0  0  0
    1.1819    1.7981   -2.8470 C   0  0  0  0  0  0  0  0  0  0  0  0
    0.6276    1.1887   -3.5686 H   0  0  0  0  0  0  0  0  0  0  0  0
    1.3766    2.7753   -3.2992 H   0  0  0  0  0  0  0  0  0  0  0  0
    2.1423    1.3136   -2.6418 H   0  0  0  0  0  0  0  0  0  0  0  0
  1  2  1  0  0  0  0
  2  3  1  0  0  0  0
  2  4  1  0  0  0  0
  2  5  1  0  0  0  0
  5  6  2  0  0  0  0
  5  7  1  0  0  0  0
  7  8  1  0  0  0  0
  7  9  1  0  0  0  0
  9 10  1  0  0  0  0
  9 11  1  0  0  0  0
  9 26  1  0  0  0  0
 11 12  1  0  0  0  0
 11 13  1  0  0  0  0
 11 14  1  0  0  0  0
 14 15  1  0  0  0  0
 14 16  1  0  0  0  0
 14 17  1  0  0  0  0
 17 18  1  0  0  0  0
 17 19  1  0  0  0  0
 17 20  1  0  0  0  0
 20 21  1  0  0  0  0
 20 22  1  0  0  0  0
 20 23  1  0  0  0  0
 23 24  1  0  0  0  0
 23 25  1  0  0  0  0
 26 27  2  0  0  0  0
 26 28  1  0  0  0  0
 28 29  1  0  0  0  0
 28 30  1  0  0  0  0
 30 31  1  0  0  0  0
 30 32  1  0  0  0  0
 30 33  1  0  0  0  0
M  END
$$$$

  -OEChem-01062216083D

 33 32  0     1  0  0  0  0  0999 V2000
   -3.7445   -2.5583    0.5422 H   0  0  0  0  0  0  0  0  0  0  0  0
   -3.6707   -1.5256    0.1897 C   0  0  0  0  0  0  0  0  0  0  0  0
   -4.5643   -0.9810    0.5035 H   0  0  0  0  0  0  0  0  0  0  0  0
   -3.6174   -1.5333   -0.9018 H   0  0  0  0  0  0  0  0  0  0  0  0
   -2.4310   -0.8642    0.7629 C   0  0  0  0  0  0  0  0  0  0  0  0
   -1.7872   -1.4719    1.6006 O   0  0  0  0  0  0  0  0  0  0  0  0
   -2.1281    0.4239    0.3506 N   0  0  0  0  0  0  0  0  0  0  0  0
   -2.7343    0.7475   -0.3970 H   0  0  0  0  0  0  0  0  0  0  0  0
   -0.8233    1.1225    0.4438 C   0  0  1  0  0  0  0  0  0  0  0  0
   -1.0539    2.1914    0.4622 H   0  0  0  0  0  0  0  0  0  0  0  0
    0.0487    0.8452    1.6875 C   0  0  0  0  0  0  0  0  0  0  0  0
    0.2611   -0.2216    1.7944 H   0  0  0  0  0  0  0  0  0  0  0  0
    1.0175    1.3373    1.5513 H   0  0  0  0  0  0  0  0  0  0  0  0
   -0.5926    1.4112    2.9606 C   0  0  0  0  0  0  0  0  0  0  0  0
   -0.7502    2.4889    2.8499 H   0  0  0  0  0  0  0  0  0  0  0  0
   -1.5683    0.9401    3.1187 H   0  0  0  0  0  0  0  0  0  0  0  0
    0.3044    1.1443    4.1736 C   0  0  0  0  0  0  0  0  0  0  0  0
    0.4686    0.0662    4.2746 H   0  0  0  0  0  0  0  0  0  0  0  0
    1.2785    1.6224    4.0265 H   0  0  0  0  0  0  0  0  0  0  0  0
   -0.3346    1.6807    5.4504 C   0  0  0  0  0  0  0  0  0  0  0  0
   -0.4867    2.7628    5.3714 H   0  0  0  0  0  0  0  0  0  0  0  0
   -1.3118    1.2097    5.6042 H   0  0  0  0  0  0  0  0  0  0  0  0
    0.5518    1.3785    6.5781 N   0  0  0  0  0  0  0  0  0  0  0  0
    0.1433    1.6845    7.4610 H   0  0  0  0  0  0  0  0  0  0  0  0
    0.7755    0.3833    6.6073 H   0  0  0  0  0  0  0  0  0  0  0  0
    0.0247    0.8796   -0.8264 C   0  0  0  0  0  0  0  0  0  0  0  0
   -0.0111   -0.1914   -1.4186 O   0  0  0  0  0  0  0  0  0  0  0  0
    0.6822    1.9409   -1.4235 N   0  0  0  0  0  0  0  0  0  0  0  0
    0.7215    2.8175   -0.9125 H   0  0  0  0  0  0  0  0  0  0  0  0
    1.4657    1.8064   -2.6462 C   0  0  0  0  0  0  0  0  0  0  0  0
    0.8324    1.4653   -3.4721 H   0  0  0  0  0  0  0  0  0  0  0  0
    1.9036    2.7701   -2.9228 H   0  0  0  0  0  0  0  0  0  0  0  0
    2.2772    1.0850   -2.5032 H   0  0  0  0  0  0  0  0  0  0  0  0
  1  2  1  0  0  0  0
  2  3  1  0  0  0  0
  2  4  1  0  0  0  0
  2  5  1  0  0  0  0
  5  6  2  0  0  0  0
  5  7  1  0  0  0  0
  7  8  1  0  0  0  0
  7  9  1  0  0  0  0
  9 10  1  0  0  0  0
  9 11  1  0  0  0  0
  9 26  1  0  0  0  0
 11 12  1  0  0  0  0
 11 13  1  0  0  0  0
 11 14  1  0  0  0  0
 14 15  1  0  0  0  0
 14 16  1  0  0  0  0
 14 17  1  0  0  0  0
 17 18  1  0  0  0  0
 17 19  1  0  0  0  0
 17 20  1  0  0  0  0
 20 21  1  0  0  0  0
 20 22  1  0  0  0  0
 20 23  1  0  0  0  0
 23 24  1  0  0  0  0
 23 25  1  0  0  0  0
 26 27  2  0  0  0  0
 26 28  1  0  0  0  0
 28 29  1  0  0  0  0
 28 30  1  0  0  0  0
 30 31  1  0  0  0  0
 30 32  1  0  0  0  0
 30 33  1  0  0  0  0
M  END
$$$$

  -OEChem-01062216083D

 33 32  0     1  0  0  0  0  0999 V2000
   -3.7468   -2.5503    0.5421 H   0  0  0  0  0  0  0  0  0  0  0  0
   -3.6605   -1.5217    0.1808 C   0  0  0  0  0  0  0  0  0  0  0  0
   -4.5566   -0.9686    0.4712 H   0  0  0  0  0  0  0  0  0  0  0  0
   -3.5859   -1.5399   -0.9095 H   0  0  0  0  0  0  0  0  0  0  0  0
   -2.4285   -0.8604    0.7700 C   0  0  0  0  0  0  0  0  0  0  0  0
   -1.7887   -1.4696    1.6100 O   0  0  0  0  0  0  0  0  0  0  0  0
   -2.1217    0.4267    0.3591 N   0  0  0  0  0  0  0  0  0  0  0  0
   -2.7104    0.7370   -0.4082 H   0  0  0  0  0  0  0  0  0  0  0  0
   -0.8135    1.1196    0.4494 C   0  0  1  0  0  0  0  0  0  0  0  0
   -1.0388    2.1898    0.4639 H   0  0  0  0  0  0  0  0  0  0  0  0
    0.0546    0.8390    1.6959 C   0  0  0  0  0  0  0  0  0  0  0  0
    0.2604   -0.2287    1.8056 H   0  0  0  0  0  0  0  0  0  0  0  0
    1.0264    1.3254    1.5644 H   0  0  0  0  0  0  0  0  0  0  0  0
   -0.5868    1.4116    2.9660 C   0  0  0  0  0  0  0  0  0  0  0  0
   -0.7381    2.4900    2.8527 H   0  0  0  0  0  0  0  0  0  0  0  0
   -1.5659    0.9469    3.1225 H   0  0  0  0  0  0  0  0  0  0  0  0
    0.3052    1.1419    4.1819 C   0  0  0  0  0  0  0  0  0  0  0  0
    0.4623    0.0630    4.2856 H   0  0  0  0  0  0  0  0  0  0  0  0
    1.2820    1.6143    4.0364 H   0  0  0  0  0  0  0  0  0  0  0  0
   -0.3339    1.6851    5.4558 C   0  0  0  0  0  0  0  0  0  0  0  0
   -0.4780    2.7681    5.3741 H   0  0  0  0  0  0  0  0  0  0  0  0
   -1.3150    1.2212    5.6081 H   0  0  0  0  0  0  0  0  0  0  0  0
    0.5479    1.3795    6.5862 N   0  0  0  0  0  0  0  0  0  0  0  0
    0.1416    1.6943    7.4671 H   0  0  0  0  0  0  0  0  0  0  0  0
    0.7610    0.3822    6.6207 H   0  0  0  0  0  0  0  0  0  0  0  0
    0.0313    0.8760   -0.8240 C   0  0  0  0  0  0  0  0  0  0  0  0
   -0.2117   -0.0586   -1.5782 O   0  0  0  0  0  0  0  0  0  0  0  0
    0.9314    1.8406   -1.2422 N   0  0  0  0  0  0  0  0  0  0  0  0
    1.1292    2.6067   -0.6055 H   0  0  0  0  0  0  0  0  0  0  0  0
    1.7157    1.7250   -2.4663 C   0  0  0  0  0  0  0  0  0  0  0  0
    1.0578    1.6763   -3.3405 H   0  0  0  0  0  0  0  0  0  0  0  0
    2.3732    2.5926   -2.5775 H   0  0  0  0  0  0  0  0  0  0  0  0
    2.3352    0.8221   -2.4402 H   0  0  0  0  0  0  0  0  0  0  0  0
  1  2  1  0  0  0  0
  2  3  1  0  0  0  0
  2  4  1  0  0  0  0
  2  5  1  0  0  0  0
  5  6  2  0  0  0  0
  5  7  1  0  0  0  0
  7  8  1  0  0  0  0
  7  9  1  0  0  0  0
  9 10  1  0  0  0  0
  9 11  1  0  0  0  0
  9 26  1  0  0  0  0
 11 12  1  0  0  0  0
 11 13  1  0  0  0  0
 11 14  1  0  0  0  0
 14 15  1  0  0  0  0
 14 16  1  0  0  0  0
 14 17  1  0  0  0  0
 17 18  1  0  0  0  0
 17 19  1  0  0  0  0
 17 20  1  0  0  0  0
 20 21  1  0  0  0  0
 20 22  1  0  0  0  0
 20 23  1  0  0  0  0
 23 24  1  0  0  0  0
 23 25  1  0  0  0  0
 26 27  2  0  0  0  0
 26 28  1  0  0  0  0
 28 29  1  0  0  0  0
 28 30  1  0  0  0  0
 30 31  1  0  0  0  0
 30 32  1  0  0  0  0
 30 33  1  0  0  0  0
M  END
$$$$

  -OEChem-01062216083D

 33 32  0     1  0  0  0  0  0999 V2000
   -3.7600   -2.5364    0.5579 H   0  0  0  0  0  0  0  0  0  0  0  0
   -3.6727   -1.5025    0.2119 C   0  0  0  0  0  0  0  0  0  0  0  0
   -4.5457   -0.9410    0.5528 H   0  0  0  0  0  0  0  0  0  0  0  0
   -3.6482   -1.5003   -0.8806 H   0  0  0  0  0  0  0  0  0  0  0  0
   -2.4045   -0.8729    0.7577 C   0  0  0  0  0  0  0  0  0  0  0  0
   -1.7280   -1.5168    1.5410 O   0  0  0  0  0  0  0  0  0  0  0  0
   -2.0950    0.4174    0.3611 N   0  0  0  0  0  0  0  0  0  0  0  0
   -2.6945    0.7459   -0.3907 H   0  0  0  0  0  0  0  0  0  0  0  0
   -0.7872    1.1113    0.4505 C   0  0  1  0  0  0  0  0  0  0  0  0
   -1.0107    2.1820    0.4680 H   0  0  0  0  0  0  0  0  0  0  0  0
    0.0734    0.8273    1.7047 C   0  0  0  0  0  0  0  0  0  0  0  0
    0.2775   -0.2399    1.8178 H   0  0  0  0  0  0  0  0  0  0  0  0
    1.0476    1.3112    1.5854 H   0  0  0  0  0  0  0  0  0  0  0  0
   -0.5783    1.4030    2.9679 C   0  0  0  0  0  0  0  0  0  0  0  0
   -0.7270    2.4814    2.8511 H   0  0  0  0  0  0  0  0  0  0  0  0
   -1.5598    0.9402    3.1153 H   0  0  0  0  0  0  0  0  0  0  0  0
    0.2996    1.1343    4.1941 C   0  0  0  0  0  0  0  0  0  0  0  0
    0.4534    0.0555    4.3030 H   0  0  0  0  0  0  0  0  0  0  0  0
    1.2795    1.6040    4.0592 H   0  0  0  0  0  0  0  0  0  0  0  0
   -0.3543    1.6825    5.4585 C   0  0  0  0  0  0  0  0  0  0  0  0
   -0.4958    2.7655    5.3710 H   0  0  0  0  0  0  0  0  0  0  0  0
   -1.3378    1.2207    5.6006 H   0  0  0  0  0  0  0  0  0  0  0  0
    0.5131    1.3789    6.6004 N   0  0  0  0  0  0  0  0  0  0  0  0
    0.1009    1.7045    7.4745 H   0  0  0  0  0  0  0  0  0  0  0  0
    0.7183    0.3804    6.6457 H   0  0  0  0  0  0  0  0  0  0  0  0
    0.0483    0.8797   -0.8331 C   0  0  0  0  0  0  0  0  0  0  0  0
   -0.3540    0.1381   -1.7226 O   0  0  0  0  0  0  0  0  0  0  0  0
    1.1515    1.6745   -1.0922 N   0  0  0  0  0  0  0  0  0  0  0  0
    1.4786    2.2799   -0.3453 H   0  0  0  0  0  0  0  0  0  0  0  0
    1.9469    1.5709   -2.3100 C   0  0  0  0  0  0  0  0  0  0  0  0
    1.3274    1.7678   -3.1914 H   0  0  0  0  0  0  0  0  0  0  0  0
    2.7615    2.3011   -2.2923 H   0  0  0  0  0  0  0  0  0  0  0  0
    2.3811    0.5695   -2.4000 H   0  0  0  0  0  0  0  0  0  0  0  0
  1  2  1  0  0  0  0
  2  3  1  0  0  0  0
  2  4  1  0  0  0  0
  2  5  1  0  0  0  0
  5  6  2  0  0  0  0
  5  7  1  0  0  0  0
  7  8  1  0  0  0  0
  7  9  1  0  0  0  0
  9 10  1  0  0  0  0
  9 11  1  0  0  0  0
  9 26  1  0  0  0  0
 11 12  1  0  0  0  0
 11 13  1  0  0  0  0
 11 14  1  0  0  0  0
 14 15  1  0  0  0  0
 14 16  1  0  0  0  0
 14 17  1  0  0  0  0
 17 18  1  0  0  0  0
 17 19  1  0  0  0  0
 17 20  1  0  0  0  0
 20 21  1  0  0  0  0
 20 22  1  0  0  0  0
 20 23  1  0  0  0  0
 23 24  1  0  0  0  0
 23 25  1  0  0  0  0
 26 27  2  0  0  0  0
 26 28  1  0  0  0  0
 28 29  1  0  0  0  0
 28 30  1  0  0  0  0
 30 31  1  0  0  0  0
 30 32  1  0  0  0  0
 30 33  1  0  0  0  0
M  END
$$$$

  -OEChem-01062216083D

 33 32  0     1  0  0  0  0  0999 V2000
   -3.9006   -2.4334    0.5494 H   0  0  0  0  0  0  0  0  0  0  0  0
   -3.7575   -1.3998    0.2217 C   0  0  0  0  0  0  0  0  0  0  0  0
   -4.5709   -0.7891    0.6205 H   0  0  0  0  0  0  0  0  0  0  0  0
   -3.7886   -1.3702   -0.8704 H   0  0  0  0  0  0  0  0  0  0  0  0
   -2.4230   -0.8720    0.7145 C   0  0  0  0  0  0  0  0  0  0  0  0
   -1.7329   -1.6015    1.4060 O   0  0  0  0  0  0  0  0  0  0  0  0
   -2.0612    0.4142    0.3500 N   0  0  0  0  0  0  0  0  0  0  0  0
   -2.6692    0.8016   -0.3683 H   0  0  0  0  0  0  0  0  0  0  0  0
   -0.7423    1.0876    0.4430 C   0  0  1  0  0  0  0  0  0  0  0  0
   -0.9486    2.1217    0.7340 H   0  0  0  0  0  0  0  0  0  0  0  0
    0.2606    0.5454    1.4908 C   0  0  0  0  0  0  0  0  0  0  0  0
    0.4507   -0.5197    1.3311 H   0  0  0  0  0  0  0  0  0  0  0  0
    1.2219    1.0526    1.3708 H   0  0  0  0  0  0  0  0  0  0  0  0
   -0.2200    0.8116    2.9256 C   0  0  0  0  0  0  0  0  0  0  0  0
   -0.3600    1.8874    3.0729 H   0  0  0  0  0  0  0  0  0  0  0  0
   -1.1842    0.3234    3.0966 H   0  0  0  0  0  0  0  0  0  0  0  0
    0.8035    0.2863    3.9374 C   0  0  0  0  0  0  0  0  0  0  0  0
    0.9543   -0.7867    3.7789 H   0  0  0  0  0  0  0  0  0  0  0  0
    1.7647    0.7890    3.7886 H   0  0  0  0  0  0  0  0  0  0  0  0
    0.3237    0.5238    5.3656 C   0  0  0  0  0  0  0  0  0  0  0  0
    0.1877    1.5961    5.5445 H   0  0  0  0  0  0  0  0  0  0  0  0
   -0.6402    0.0272    5.5236 H   0  0  0  0  0  0  0  0  0  0  0  0
    1.3253   -0.0166    6.2894 N   0  0  0  0  0  0  0  0  0  0  0  0
    1.0354    0.1056    7.2594 H   0  0  0  0  0  0  0  0  0  0  0  0
    1.5114   -0.9994    6.0878 H   0  0  0  0  0  0  0  0  0  0  0  0
   -0.0979    1.1800   -0.9643 C   0  0  0  0  0  0  0  0  0  0  0  0
   -0.7453    0.8736   -1.9602 O   0  0  0  0  0  0  0  0  0  0  0  0
    1.1420    1.7684   -1.1464 N   0  0  0  0  0  0  0  0  0  0  0  0
    1.6724    2.0119   -0.3152 H   0  0  0  0  0  0  0  0  0  0  0  0
    1.7716    1.9271   -2.4526 C   0  0  0  0  0  0  0  0  0  0  0  0
    1.1305    2.5130   -3.1197 H   0  0  0  0  0  0  0  0  0  0  0  0
    2.7282    2.4483   -2.3506 H   0  0  0  0  0  0  0  0  0  0  0  0
    1.9567    0.9496   -2.9102 H   0  0  0  0  0  0  0  0  0  0  0  0
  1  2  1  0  0  0  0
  2  3  1  0  0  0  0
  2  4  1  0  0  0  0
  2  5  1  0  0  0  0
  5  6  2  0  0  0  0
  5  7  1  0  0  0  0
  7  8  1  0  0  0  0
  7  9  1  0  0  0  0
  9 10  1  0  0  0  0
  9 11  1  0  0  0  0
  9 26  1  0  0  0  0
 11 12  1  0  0  0  0
 11 13  1  0  0  0  0
 11 14  1  0  0  0  0
 14 15  1  0  0  0  0
 14 16  1  0  0  0  0
 14 17  1  0  0  0  0
 17 18  1  0  0  0  0
 17 19  1  0  0  0  0
 17 20  1  0  0  0  0
 20 21  1  0  0  0  0
 20 22  1  0  0  0  0
 20 23  1  0  0  0  0
 23 24  1  0  0  0  0
 23 25  1  0  0  0  0
 26 27  2  0  0  0  0
 26 28  1  0  0  0  0
 28 29  1  0  0  0  0
 28 30  1  0  0  0  0
 30 31  1  0  0  0  0
 30 32  1  0  0  0  0
 30 33  1  0  0  0  0
M  END
$$$$

  -OEChem-01062216083D

 33 32  0     1  0  0  0  0  0999 V2000
   -3.8781   -2.4260    0.5359 H   0  0  0  0  0  0  0  0  0  0  0  0
   -3.7340   -1.3900    0.2165 C   0  0  0  0  0  0  0  0  0  0  0  0
   -4.5424   -0.7798    0.6259 H   0  0  0  0  0  0  0  0  0  0  0  0
   -3.7723   -1.3509   -0.8750 H   0  0  0  0  0  0  0  0  0  0  0  0
   -2.3940   -0.8711    0.7045 C   0  0  0  0  0  0  0  0  0  0  0  0
   -1.6938   -1.6142    1.3709 O   0  0  0  0  0  0  0  0  0  0  0  0
   -2.0319    0.4187    0.3541 N   0  0  0  0  0  0  0  0  0  0  0  0
   -2.6457    0.8232   -0.3503 H   0  0  0  0  0  0  0  0  0  0  0  0
   -0.7167    1.0965    0.4576 C   0  0  1  0  0  0  0  0  0  0  0  0
   -0.9225    2.1303    0.7498 H   0  0  0  0  0  0  0  0  0  0  0  0
    0.2777    0.5505    1.5129 C   0  0  0  0  0  0  0  0  0  0  0  0
    0.4758   -0.5126    1.3496 H   0  0  0  0  0  0  0  0  0  0  0  0
    1.2366    1.0658    1.4100 H   0  0  0  0  0  0  0  0  0  0  0  0
   -0.2178    0.8096    2.9438 C   0  0  0  0  0  0  0  0  0  0  0  0
   -0.3628    1.8843    3.0949 H   0  0  0  0  0  0  0  0  0  0  0  0
   -1.1818    0.3170    3.1025 H   0  0  0  0  0  0  0  0  0  0  0  0
    0.7961    0.2815    3.9637 C   0  0  0  0  0  0  0  0  0  0  0  0
    0.9494   -0.7907    3.8018 H   0  0  0  0  0  0  0  0  0  0  0  0
    1.7583    0.7859    3.8273 H   0  0  0  0  0  0  0  0  0  0  0  0
    0.3011    0.5122    5.3881 C   0  0  0  0  0  0  0  0  0  0  0  0
    0.1621    1.5838    5.5697 H   0  0  0  0  0  0  0  0  0  0  0  0
   -0.6640    0.0140    5.5334 H   0  0  0  0  0  0  0  0  0  0  0  0
    1.2932   -0.0304    6.3211 N   0  0  0  0  0  0  0  0  0  0  0  0
    0.9984    0.0987    7.2888 H   0  0  0  0  0  0  0  0  0  0  0  0
    1.4740   -1.0154    6.1258 H   0  0  0  0  0  0  0  0  0  0  0  0
   -0.0850    1.1935   -0.9558 C   0  0  0  0  0  0  0  0  0  0  0  0
   -0.8051    1.1170   -1.9464 O   0  0  0  0  0  0  0  0  0  0  0  0
    1.2534    1.4939   -1.1429 N   0  0  0  0  0  0  0  0  0  0  0  0
    1.8459    1.5252   -0.3186 H   0  0  0  0  0  0  0  0  0  0  0  0
    1.8739    1.6054   -2.4579 C   0  0  0  0  0  0  0  0  0  0  0  0
    1.3836    2.3859   -3.0493 H   0  0  0  0  0  0  0  0  0  0  0  0
    2.9319    1.8645   -2.3558 H   0  0  0  0  0  0  0  0  0  0  0  0
    1.8003    0.6554   -2.9977 H   0  0  0  0  0  0  0  0  0  0  0  0
  1  2  1  0  0  0  0
  2  3  1  0  0  0  0
  2  4  1  0  0  0  0
  2  5  1  0  0  0  0
  5  6  2  0  0  0  0
  5  7  1  0  0  0  0
  7  8  1  0  0  0  0
  7  9  1  0  0  0  0
  9 10  1  0  0  0  0
  9 11  1  0  0  0  0
  9 26  1  0  0  0  0
 11 12  1  0  0  0  0
 11 13  1  0  0  0  0
 11 14  1  0  0  0  0
 14 15  1  0  0  0  0
 14 16  1  0  0  0  0
 14 17  1  0  0  0  0
 17 18  1  0  0  0  0
 17 19  1  0  0  0  0
 17 20  1  0  0  0  0
 20 21  1  0  0  0  0
 20 22  1  0  0  0  0
 20 23  1  0  0  0  0
 23 24  1  0  0  0  0
 23 25  1  0  0  0  0
 26 27  2  0  0  0  0
 26 28  1  0  0  0  0
 28 29  1  0  0  0  0
 28 30  1  0  0  0  0
 30 31  1  0  0  0  0
 30 32  1  0  0  0  0
 30 33  1  0  0  0  0
M  END
$$$$

  -OEChem-01062216083D

 33 32  0     1  0  0  0  0  0999 V2000
   -3.8736   -2.4183    0.5474 H   0  0  0  0  0  0  0  0  0  0  0  0
   -3.7282   -1.3818    0.2301 C   0  0  0  0  0  0  0  0  0  0  0  0
   -4.5186   -0.7664    0.6662 H   0  0  0  0  0  0  0  0  0  0  0  0
   -3.7985   -1.3355   -0.8594 H   0  0  0  0  0  0  0  0  0  0  0  0
   -2.3698   -0.8793    0.6832 C   0  0  0  0  0  0  0  0  0  0  0  0
   -1.6510   -1.6376    1.3112 O   0  0  0  0  0  0  0  0  0  0  0  0
   -2.0071    0.4130    0.3442 N   0  0  0  0  0  0  0  0  0  0  0  0
   -2.6370    0.8445   -0.3295 H   0  0  0  0  0  0  0  0  0  0  0  0
   -0.6961    1.0948    0.4631 C   0  0  1  0  0  0  0  0  0  0  0  0
   -0.9070    2.1278    0.7560 H   0  0  0  0  0  0  0  0  0  0  0  0
    0.2912    0.5525    1.5265 C   0  0  0  0  0  0  0  0  0  0  0  0
    0.5012   -0.5083    1.3647 H   0  0  0  0  0  0  0  0  0  0  0  0
    1.2450    1.0800    1.4337 H   0  0  0  0  0  0  0  0  0  0  0  0
   -0.2199    0.8070    2.9520 C   0  0  0  0  0  0  0  0  0  0  0  0
   -0.3729    1.8807    3.1033 H   0  0  0  0  0  0  0  0  0  0  0  0
   -1.1824    0.3070    3.0992 H   0  0  0  0  0  0  0  0  0  0  0  0
    0.7875    0.2825    3.9799 C   0  0  0  0  0  0  0  0  0  0  0  0
    0.9489   -0.7882    3.8172 H   0  0  0  0  0  0  0  0  0  0  0  0
    1.7477    0.7928    3.8525 H   0  0  0  0  0  0  0  0  0  0  0  0
    0.2800    0.5071    5.4006 C   0  0  0  0  0  0  0  0  0  0  0  0
    0.1346    1.5777    5.5832 H   0  0  0  0  0  0  0  0  0  0  0  0
   -0.6838    0.0040    5.5379 H   0  0  0  0  0  0  0  0  0  0  0  0
    1.2682   -0.0327    6.3391 N   0  0  0  0  0  0  0  0  0  0  0  0
    0.9686    0.0976    7.3051 H   0  0  0  0  0  0  0  0  0  0  0  0
    1.4512   -1.0178    6.1462 H   0  0  0  0  0  0  0  0  0  0  0  0
   -0.0638    1.1957   -0.9486 C   0  0  0  0  0  0  0  0  0  0  0  0
   -0.7985    1.3506   -1.9188 O   0  0  0  0  0  0  0  0  0  0  0  0
    1.3054    1.1962   -1.1533 N   0  0  0  0  0  0  0  0  0  0  0  0
    1.8959    0.9951   -0.3517 H   0  0  0  0  0  0  0  0  0  0  0  0
    1.9171    1.2638   -2.4750 C   0  0  0  0  0  0  0  0  0  0  0  0
    1.6083    2.1767   -2.9950 H   0  0  0  0  0  0  0  0  0  0  0  0
    3.0077    1.2705   -2.3870 H   0  0  0  0  0  0  0  0  0  0  0  0
    1.6227    0.3983   -3.0777 H   0  0  0  0  0  0  0  0  0  0  0  0
  1  2  1  0  0  0  0
  2  3  1  0  0  0  0
  2  4  1  0  0  0  0
  2  5  1  0  0  0  0
  5  6  2  0  0  0  0
  5  7  1  0  0  0  0
  7  8  1  0  0  0  0
  7  9  1  0  0  0  0
  9 10  1  0  0  0  0
  9 11  1  0  0  0  0
  9 26  1  0  0  0  0
 11 12  1  0  0  0  0
 11 13  1  0  0  0  0
 11 14  1  0  0  0  0
 14 15  1  0  0  0  0
 14 16  1  0  0  0  0
 14 17  1  0  0  0  0
 17 18  1  0  0  0  0
 17 19  1  0  0  0  0
 17 20  1  0  0  0  0
 20 21  1  0  0  0  0
 20 22  1  0  0  0  0
 20 23  1  0  0  0  0
 23 24  1  0  0  0  0
 23 25  1  0  0  0  0
 26 27  2  0  0  0  0
 26 28  1  0  0  0  0
 28 29  1  0  0  0  0
 28 30  1  0  0  0  0
 30 31  1  0  0  0  0
 30 32  1  0  0  0  0
 30 33  1  0  0  0  0
M  END
$$$$

  -OEChem-01062216083D

 33 32  0     1  0  0  0  0  0999 V2000
   -3.8770   -2.4113    0.5574 H   0  0  0  0  0  0  0  0  0  0  0  0
   -3.7303   -1.3737    0.2442 C   0  0  0  0  0  0  0  0  0  0  0  0
   -4.5028   -0.7544    0.7064 H   0  0  0  0  0  0  0  0  0  0  0  0
   -3.8286   -1.3175   -0.8427 H   0  0  0  0  0  0  0  0  0  0  0  0
   -2.3559   -0.8871    0.6642 C   0  0  0  0  0  0  0  0  0  0  0  0
   -1.6211   -1.6593    1.2557 O   0  0  0  0  0  0  0  0  0  0  0  0
   -1.9918    0.4059    0.3314 N   0  0  0  0  0  0  0  0  0  0  0  0
   -2.6424    0.8656   -0.3028 H   0  0  0  0  0  0  0  0  0  0  0  0
   -0.6839    1.0885    0.4627 C   0  0  1  0  0  0  0  0  0  0  0  0
   -0.8989    2.1210    0.7547 H   0  0  0  0  0  0  0  0  0  0  0  0
    0.2989    0.5514    1.5320 C   0  0  0  0  0  0  0  0  0  0  0  0
    0.5147   -0.5087    1.3737 H   0  0  0  0  0  0  0  0  0  0  0  0
    1.2495    1.0858    1.4387 H   0  0  0  0  0  0  0  0  0  0  0  0
   -0.2203    0.8037    2.9544 C   0  0  0  0  0  0  0  0  0  0  0  0
   -0.3803    1.8763    3.1051 H   0  0  0  0  0  0  0  0  0  0  0  0
   -1.1808    0.2980    3.0944 H   0  0  0  0  0  0  0  0  0  0  0  0
    0.7841    0.2841    3.9880 C   0  0  0  0  0  0  0  0  0  0  0  0
    0.9512   -0.7862    3.8270 H   0  0  0  0  0  0  0  0  0  0  0  0
    1.7422    0.7995    3.8656 H   0  0  0  0  0  0  0  0  0  0  0  0
    0.2681    0.5070    5.4061 C   0  0  0  0  0  0  0  0  0  0  0  0
    0.1171    1.5769    5.5875 H   0  0  0  0  0  0  0  0  0  0  0  0
   -0.6941   -0.0004    5.5392 H   0  0  0  0  0  0  0  0  0  0  0  0
    1.2540   -0.0279    6.3501 N   0  0  0  0  0  0  0  0  0  0  0  0
    0.9498    0.1026    7.3148 H   0  0  0  0  0  0  0  0  0  0  0  0
    1.4435   -1.0121    6.1590 H   0  0  0  0  0  0  0  0  0  0  0  0
   -0.0452    1.1904   -0.9433 C   0  0  0  0  0  0  0  0  0  0  0  0
   -0.7438    1.5601   -1.8806 O   0  0  0  0  0  0  0  0  0  0  0  0
    1.2857    0.8928   -1.1808 N   0  0  0  0  0  0  0  0  0  0  0  0
    1.8136    0.4890   -0.4123 H   0  0  0  0  0  0  0  0  0  0  0  0
    1.8873    0.9173   -2.5085 C   0  0  0  0  0  0  0  0  0  0  0  0
    1.7867    1.9115   -2.9565 H   0  0  0  0  0  0  0  0  0  0  0  0
    2.9523    0.6744   -2.4454 H   0  0  0  0  0  0  0  0  0  0  0  0
    1.4025    0.1848   -3.1623 H   0  0  0  0  0  0  0  0  0  0  0  0
  1  2  1  0  0  0  0
  2  3  1  0  0  0  0
  2  4  1  0  0  0  0
  2  5  1  0  0  0  0
  5  6  2  0  0  0  0
  5  7  1  0  0  0  0
  7  8  1  0  0  0  0
  7  9  1  0  0  0  0
  9 10  1  0  0  0  0
  9 11  1  0  0  0  0
  9 26  1  0  0  0  0
 11 12  1  0  0  0  0
 11 13  1  0  0  0  0
 11 14  1  0  0  0  0
 14 15  1  0  0  0  0
 14 16  1  0  0  0  0
 14 17  1  0  0  0  0
 17 18  1  0  0  0  0
 17 19  1  0  0  0  0
 17 20  1  0  0  0  0
 20 21  1  0  0  0  0
 20 22  1  0  0  0  0
 20 23  1  0  0  0  0
 23 24  1  0  0  0  0
 23 25  1  0  0  0  0
 26 27  2  0  0  0  0
 26 28  1  0  0  0  0
 28 29  1  0  0  0  0
 28 30  1  0  0  0  0
 30 31  1  0  0  0  0
 30 32  1  0  0  0  0
 30 33  1  0  0  0  0
M  END
$$$$

  -OEChem-01062216083D

 33 32  0     1  0  0  0  0  0999 V2000
   -3.8846   -2.4047    0.5877 H   0  0  0  0  0  0  0  0  0  0  0  0
   -3.7391   -1.3668    0.2752 C   0  0  0  0  0  0  0  0  0  0  0  0
   -4.4891   -0.7432    0.7674 H   0  0  0  0  0  0  0  0  0  0  0  0
   -3.8745   -1.3037   -0.8073 H   0  0  0  0  0  0  0  0  0  0  0  0
   -2.3462   -0.8959    0.6498 C   0  0  0  0  0  0  0  0  0  0  0  0
   -1.5915   -1.6824    1.1954 O   0  0  0  0  0  0  0  0  0  0  0  0
   -1.9807    0.3965    0.3169 N   0  0  0  0  0  0  0  0  0  0  0  0
   -2.6591    0.8866   -0.2623 H   0  0  0  0  0  0  0  0  0  0  0  0
   -0.6747    1.0796    0.4554 C   0  0  1  0  0  0  0  0  0  0  0  0
   -0.8922    2.1126    0.7448 H   0  0  0  0  0  0  0  0  0  0  0  0
    0.3055    0.5466    1.5282 C   0  0  0  0  0  0  0  0  0  0  0  0
    0.5224   -0.5139    1.3761 H   0  0  0  0  0  0  0  0  0  0  0  0
    1.2563    1.0812    1.4301 H   0  0  0  0  0  0  0  0  0  0  0  0
   -0.2200    0.7996    2.9480 C   0  0  0  0  0  0  0  0  0  0  0  0
   -0.3837    1.8720    3.0964 H   0  0  0  0  0  0  0  0  0  0  0  0
   -1.1794    0.2904    3.0837 H   0  0  0  0  0  0  0  0  0  0  0  0
    0.7810    0.2845    3.9875 C   0  0  0  0  0  0  0  0  0  0  0  0
    0.9528   -0.7854    3.8293 H   0  0  0  0  0  0  0  0  0  0  0  0
    1.7383    0.8027    3.8687 H   0  0  0  0  0  0  0  0  0  0  0  0
    0.2573    0.5087    5.4025 C   0  0  0  0  0  0  0  0  0  0  0  0
    0.1029    1.5786    5.5809 H   0  0  0  0  0  0  0  0  0  0  0  0
   -0.7043   -0.0006    5.5313 H   0  0  0  0  0  0  0  0  0  0  0  0
    1.2396   -0.0217    6.3527 N   0  0  0  0  0  0  0  0  0  0  0  0
    0.9275    0.1045    7.3153 H   0  0  0  0  0  0  0  0  0  0  0  0
    1.4377   -1.0041    6.1612 H   0  0  0  0  0  0  0  0  0  0  0  0
   -0.0260    1.1794   -0.9432 C   0  0  0  0  0  0  0  0  0  0  0  0
   -0.6378    1.7562   -1.8344 O   0  0  0  0  0  0  0  0  0  0  0  0
    1.1989    0.6035   -1.2307 N   0  0  0  0  0  0  0  0  0  0  0  0
    1.6145    0.0215   -0.5085 H   0  0  0  0  0  0  0  0  0  0  0  0
    1.7871    0.5964   -2.5644 C   0  0  0  0  0  0  0  0  0  0  0  0
    1.9076    1.6197   -2.9356 H   0  0  0  0  0  0  0  0  0  0  0  0
    2.7725    0.1214   -2.5407 H   0  0  0  0  0  0  0  0  0  0  0  0
    1.1503    0.0409   -3.2608 H   0  0  0  0  0  0  0  0  0  0  0  0
  1  2  1  0  0  0  0
  2  3  1  0  0  0  0
  2  4  1  0  0  0  0
  2  5  1  0  0  0  0
  5  6  2  0  0  0  0
  5  7  1  0  0  0  0
  7  8  1  0  0  0  0
  7  9  1  0  0  0  0
  9 10  1  0  0  0  0
  9 11  1  0  0  0  0
  9 26  1  0  0  0  0
 11 12  1  0  0  0  0
 11 13  1  0  0  0  0
 11 14  1  0  0  0  0
 14 15  1  0  0  0  0
 14 16  1  0  0  0  0
 14 17  1  0  0  0  0
 17 18  1  0  0  0  0
 17 19  1  0  0  0  0
 17 20  1  0  0  0  0
 20 21  1  0  0  0  0
 20 22  1  0  0  0  0
 20 23  1  0  0  0  0
 23 24  1  0  0  0  0
 23 25  1  0  0  0  0
 26 27  2  0  0  0  0
 26 28  1  0  0  0  0
 28 29  1  0  0  0  0
 28 30  1  0  0  0  0
 30 31  1  0  0  0  0
 30 32  1  0  0  0  0
 30 33  1  0  0  0  0
M  END
$$$$

  -OEChem-01062216083D

 33 32  0     1  0  0  0  0  0999 V2000
   -3.9000   -2.3940    0.6625 H   0  0  0  0  0  0  0  0  0  0  0  0
   -3.7560   -1.3594    0.3377 C   0  0  0  0  0  0  0  0  0  0  0  0
   -4.4664   -0.7224    0.8702 H   0  0  0  0  0  0  0  0  0  0  0  0
   -3.9539   -1.2971   -0.7351 H   0  0  0  0  0  0  0  0  0  0  0  0
   -2.3360   -0.9099    0.6293 C   0  0  0  0  0  0  0  0  0  0  0  0
   -1.5554   -1.7132    1.1099 O   0  0  0  0  0  0  0  0  0  0  0  0
   -1.9722    0.3823    0.2937 N   0  0  0  0  0  0  0  0  0  0  0  0
   -2.6815    0.9030   -0.2169 H   0  0  0  0  0  0  0  0  0  0  0  0
   -0.6691    1.0689    0.4392 C   0  0  1  0  0  0  0  0  0  0  0  0
   -0.8913    2.1013    0.7274 H   0  0  0  0  0  0  0  0  0  0  0  0
    0.3095    0.5411    1.5153 C   0  0  0  0  0  0  0  0  0  0  0  0
    0.5317   -0.5190    1.3686 H   0  0  0  0  0  0  0  0  0  0  0  0
    1.2589    1.0781    1.4143 H   0  0  0  0  0  0  0  0  0  0  0  0
   -0.2226    0.7929    2.9319 C   0  0  0  0  0  0  0  0  0  0  0  0
   -0.3920    1.8646    3.0788 H   0  0  0  0  0  0  0  0  0  0  0  0
   -1.1796    0.2782    3.0635 H   0  0  0  0  0  0  0  0  0  0  0  0
    0.7761    0.2836    3.9756 C   0  0  0  0  0  0  0  0  0  0  0  0
    0.9524   -0.7858    3.8200 H   0  0  0  0  0  0  0  0  0  0  0  0
    1.7321    0.8049    3.8605 H   0  0  0  0  0  0  0  0  0  0  0  0
    0.2436    0.5079    5.3869 C   0  0  0  0  0  0  0  0  0  0  0  0
    0.0824    1.5773    5.5627 H   0  0  0  0  0  0  0  0  0  0  0  0
   -0.7160   -0.0063    5.5107 H   0  0  0  0  0  0  0  0  0  0  0  0
    1.2228   -0.0164    6.3431 N   0  0  0  0  0  0  0  0  0  0  0  0
    0.9037    0.1074    7.3038 H   0  0  0  0  0  0  0  0  0  0  0  0
    1.4293   -0.9971    6.1521 H   0  0  0  0  0  0  0  0  0  0  0  0
   -0.0045    1.1683   -0.9487 C   0  0  0  0  0  0  0  0  0  0  0  0
   -0.4763    1.9367   -1.7773 O   0  0  0  0  0  0  0  0  0  0  0  0
    1.0558    0.3535   -1.3023 N   0  0  0  0  0  0  0  0  0  0  0  0
    1.3148   -0.3732   -0.6399 H   0  0  0  0  0  0  0  0  0  0  0  0
    1.6289    0.3224   -2.6418 C   0  0  0  0  0  0  0  0  0  0  0  0
    1.9740    1.3197   -2.9343 H   0  0  0  0  0  0  0  0  0  0  0  0
    2.4840   -0.3597   -2.6710 H   0  0  0  0  0  0  0  0  0  0  0  0
    0.8851   -0.0204   -3.3683 H   0  0  0  0  0  0  0  0  0  0  0  0
  1  2  1  0  0  0  0
  2  3  1  0  0  0  0
  2  4  1  0  0  0  0
  2  5  1  0  0  0  0
  5  6  2  0  0  0  0
  5  7  1  0  0  0  0
  7  8  1  0  0  0  0
  7  9  1  0  0  0  0
  9 10  1  0  0  0  0
  9 11  1  0  0  0  0
  9 26  1  0  0  0  0
 11 12  1  0  0  0  0
 11 13  1  0  0  0  0
 11 14  1  0  0  0  0
 14 15  1  0  0  0  0
 14 16  1  0  0  0  0
 14 17  1  0  0  0  0
 17 18  1  0  0  0  0
 17 19  1  0  0  0  0
 17 20  1  0  0  0  0
 20 21  1  0  0  0  0
 20 22  1  0  0  0  0
 20 23  1  0  0  0  0
 23 24  1  0  0  0  0
 23 25  1  0  0  0  0
 26 27  2  0  0  0  0
 26 28  1  0  0  0  0
 28 29  1  0  0  0  0
 28 30  1  0  0  0  0
 30 31  1  0  0  0  0
 30 32  1  0  0  0  0
 30 33  1  0  0  0  0
M  END
$$$$

  -OEChem-01062216083D

 33 32  0     1  0  0  0  0  0999 V2000
   -3.9097   -2.3809    0.7521 H   0  0  0  0  0  0  0  0  0  0  0  0
   -3.7719   -1.3510    0.4107 C   0  0  0  0  0  0  0  0  0  0  0  0
   -4.4385   -0.7001    0.9815 H   0  0  0  0  0  0  0  0  0  0  0  0
   -4.0350   -1.2932   -0.6483 H   0  0  0  0  0  0  0  0  0  0  0  0
   -2.3308   -0.9208    0.6112 C   0  0  0  0  0  0  0  0  0  0  0  0
   -1.5233   -1.7410    1.0119 O   0  0  0  0  0  0  0  0  0  0  0  0
   -1.9723    0.3703    0.2677 N   0  0  0  0  0  0  0  0  0  0  0  0
   -2.7136    0.9197   -0.1602 H   0  0  0  0  0  0  0  0  0  0  0  0
   -0.6705    1.0580    0.4179 C   0  0  1  0  0  0  0  0  0  0  0  0
   -0.8964    2.0904    0.7038 H   0  0  0  0  0  0  0  0  0  0  0  0
    0.3062    0.5339    1.4968 C   0  0  0  0  0  0  0  0  0  0  0  0
    0.5339   -0.5251    1.3536 H   0  0  0  0  0  0  0  0  0  0  0  0
    1.2543    1.0728    1.3941 H   0  0  0  0  0  0  0  0  0  0  0  0
   -0.2304    0.7865    2.9118 C   0  0  0  0  0  0  0  0  0  0  0  0
   -0.4024    1.8581    3.0560 H   0  0  0  0  0  0  0  0  0  0  0  0
   -1.1868    0.2703    3.0413 H   0  0  0  0  0  0  0  0  0  0  0  0
    0.7666    0.2807    3.9594 C   0  0  0  0  0  0  0  0  0  0  0  0
    0.9474   -0.7882    3.8049 H   0  0  0  0  0  0  0  0  0  0  0  0
    1.7210    0.8049    3.8455 H   0  0  0  0  0  0  0  0  0  0  0  0
    0.2320    0.5047    5.3704 C   0  0  0  0  0  0  0  0  0  0  0  0
    0.0695    1.5739    5.5451 H   0  0  0  0  0  0  0  0  0  0  0  0
   -0.7271   -0.0103    5.4941 H   0  0  0  0  0  0  0  0  0  0  0  0
    1.2104   -0.0167    6.3294 N   0  0  0  0  0  0  0  0  0  0  0  0
    0.8885    0.1060    7.2893 H   0  0  0  0  0  0  0  0  0  0  0  0
    1.4216   -0.9964    6.1388 H   0  0  0  0  0  0  0  0  0  0  0  0
    0.0091    1.1518   -0.9606 C   0  0  0  0  0  0  0  0  0  0  0  0
   -0.2599    2.0884   -1.7013 O   0  0  0  0  0  0  0  0  0  0  0  0
    0.8506    0.1475   -1.4013 N   0  0  0  0  0  0  0  0  0  0  0  0
    0.9198   -0.6800   -0.8129 H   0  0  0  0  0  0  0  0  0  0  0  0
    1.4217    0.1122   -2.7414 C   0  0  0  0  0  0  0  0  0  0  0  0
    1.9872    1.0284   -2.9416 H   0  0  0  0  0  0  0  0  0  0  0  0
    2.1017   -0.7394   -2.8402 H   0  0  0  0  0  0  0  0  0  0  0  0
    0.6307    0.0153   -3.4922 H   0  0  0  0  0  0  0  0  0  0  0  0
  1  2  1  0  0  0  0
  2  3  1  0  0  0  0
  2  4  1  0  0  0  0
  2  5  1  0  0  0  0
  5  6  2  0  0  0  0
  5  7  1  0  0  0  0
  7  8  1  0  0  0  0
  7  9  1  0  0  0  0
  9 10  1  0  0  0  0
  9 11  1  0  0  0  0
  9 26  1  0  0  0  0
 11 12  1  0  0  0  0
 11 13  1  0  0  0  0
 11 14  1  0  0  0  0
 14 15  1  0  0  0  0
 14 16  1  0  0  0  0
 14 17  1  0  0  0  0
 17 18  1  0  0  0  0
 17 19  1  0  0  0  0
 17 20  1  0  0  0  0
 20 21  1  0  0  0  0
 20 22  1  0  0  0  0
 20 23  1  0  0  0  0
 23 24  1  0  0  0  0
 23 25  1  0  0  0  0
 26 27  2  0  0  0  0
 26 28  1  0  0  0  0
 28 29  1  0  0  0  0
 28 30  1  0  0  0  0
 30 31  1  0  0  0  0
 30 32  1  0  0  0  0
 30 33  1  0  0  0  0
M  END
$$$$

  -OEChem-01062216083D

 33 32  0     1  0  0  0  0  0999 V2000
   -3.9126   -2.3520    0.8963 H   0  0  0  0  0  0  0  0  0  0  0  0
   -3.7829   -1.3405    0.5011 C   0  0  0  0  0  0  0  0  0  0  0  0
   -4.4043   -0.6553    1.0827 H   0  0  0  0  0  0  0  0  0  0  0  0
   -4.1109   -1.3244   -0.5412 H   0  0  0  0  0  0  0  0  0  0  0  0
   -2.3260   -0.9263    0.5912 C   0  0  0  0  0  0  0  0  0  0  0  0
   -1.4907   -1.7642    0.8841 O   0  0  0  0  0  0  0  0  0  0  0  0
   -1.9777    0.3643    0.2381 N   0  0  0  0  0  0  0  0  0  0  0  0
   -2.7495    0.9412   -0.0864 H   0  0  0  0  0  0  0  0  0  0  0  0
   -0.6787    1.0568    0.3945 C   0  0  1  0  0  0  0  0  0  0  0  0
   -0.9084    2.0894    0.6769 H   0  0  0  0  0  0  0  0  0  0  0  0
    0.2981    0.5349    1.4733 C   0  0  0  0  0  0  0  0  0  0  0  0
    0.5326   -0.5220    1.3267 H   0  0  0  0  0  0  0  0  0  0  0  0
    1.2437    1.0791    1.3725 H   0  0  0  0  0  0  0  0  0  0  0  0
   -0.2417    0.7801    2.8885 C   0  0  0  0  0  0  0  0  0  0  0  0
   -0.4212    1.8500    3.0361 H   0  0  0  0  0  0  0  0  0  0  0  0
   -1.1947    0.2568    3.0143 H   0  0  0  0  0  0  0  0  0  0  0  0
    0.7562    0.2767    3.9366 C   0  0  0  0  0  0  0  0  0  0  0  0
    0.9445   -0.7902    3.7792 H   0  0  0  0  0  0  0  0  0  0  0  0
    1.7072    0.8081    3.8263 H   0  0  0  0  0  0  0  0  0  0  0  0
    0.2174    0.4936    5.3473 C   0  0  0  0  0  0  0  0  0  0  0  0
    0.0470    1.5615    5.5247 H   0  0  0  0  0  0  0  0  0  0  0  0
   -0.7386   -0.0281    5.4669 H   0  0  0  0  0  0  0  0  0  0  0  0
    1.1962   -0.0248    6.3076 N   0  0  0  0  0  0  0  0  0  0  0  0
    0.8702    0.0898    7.2672 H   0  0  0  0  0  0  0  0  0  0  0  0
    1.4173   -1.0014    6.1126 H   0  0  0  0  0  0  0  0  0  0  0  0
    0.0140    1.1419   -0.9767 C   0  0  0  0  0  0  0  0  0  0  0  0
   -0.0098    2.1876   -1.6118 O   0  0  0  0  0  0  0  0  0  0  0  0
    0.6003    0.0141   -1.5194 N   0  0  0  0  0  0  0  0  0  0  0  0
    0.4799   -0.8551   -1.0016 H   0  0  0  0  0  0  0  0  0  0  0  0
    1.1768   -0.0285   -2.8564 C   0  0  0  0  0  0  0  0  0  0  0  0
    1.9336    0.7543   -2.9727 H   0  0  0  0  0  0  0  0  0  0  0  0
    1.6551   -0.9971   -3.0310 H   0  0  0  0  0  0  0  0  0  0  0  0
    0.3987    0.1174   -3.6126 H   0  0  0  0  0  0  0  0  0  0  0  0
  1  2  1  0  0  0  0
  2  3  1  0  0  0  0
  2  4  1  0  0  0  0
  2  5  1  0  0  0  0
  5  6  2  0  0  0  0
  5  7  1  0  0  0  0
  7  8  1  0  0  0  0
  7  9  1  0  0  0  0
  9 10  1  0  0  0  0
  9 11  1  0  0  0  0
  9 26  1  0  0  0  0
 11 12  1  0  0  0  0
 11 13  1  0  0  0  0
 11 14  1  0  0  0  0
 14 15  1  0  0  0  0
 14 16  1  0  0  0  0
 14 17  1  0  0  0  0
 17 18  1  0  0  0  0
 17 19  1  0  0  0  0
 17 20  1  0  0  0  0
 20 21  1  0  0  0  0
 20 22  1  0  0  0  0
 20 23  1  0  0  0  0
 23 24  1  0  0  0  0
 23 25  1  0  0  0  0
 26 27  2  0  0  0  0
 26 28  1  0  0  0  0
 28 29  1  0  0  0  0
 28 30  1  0  0  0  0
 30 31  1  0  0  0  0
 30 32  1  0  0  0  0
 30 33  1  0  0  0  0
M  END
$$$$

  -OEChem-01062216083D

 33 32  0     1  0  0  0  0  0999 V2000
   -3.9062   -2.3837    0.9098 H   0  0  0  0  0  0  0  0  0  0  0  0
   -3.8077   -1.3391    0.6017 C   0  0  0  0  0  0  0  0  0  0  0  0
   -4.3666   -0.7131    1.3016 H   0  0  0  0  0  0  0  0  0  0  0  0
   -4.2328   -1.2267   -0.3987 H   0  0  0  0  0  0  0  0  0  0  0  0
   -2.3461   -0.9320    0.5938 C   0  0  0  0  0  0  0  0  0  0  0  0
   -1.4938   -1.7778    0.8022 O   0  0  0  0  0  0  0  0  0  0  0  0
   -2.0130    0.3571    0.2223 N   0  0  0  0  0  0  0  0  0  0  0  0
   -2.8052    0.9432   -0.0273 H   0  0  0  0  0  0  0  0  0  0  0  0
   -0.7158    1.0586    0.3677 C   0  0  1  0  0  0  0  0  0  0  0  0
   -0.9471    2.0921    0.6460 H   0  0  0  0  0  0  0  0  0  0  0  0
    0.2692    0.5385    1.4386 C   0  0  0  0  0  0  0  0  0  0  0  0
    0.5089   -0.5167    1.2866 H   0  0  0  0  0  0  0  0  0  0  0  0
    1.2116    1.0870    1.3325 H   0  0  0  0  0  0  0  0  0  0  0  0
   -0.2620    0.7785    2.8577 C   0  0  0  0  0  0  0  0  0  0  0  0
   -0.4432    1.8478    3.0086 H   0  0  0  0  0  0  0  0  0  0  0  0
   -1.2124    0.2518    2.9896 H   0  0  0  0  0  0  0  0  0  0  0  0
    0.7451    0.2760    3.8973 C   0  0  0  0  0  0  0  0  0  0  0  0
    0.9353   -0.7903    3.7363 H   0  0  0  0  0  0  0  0  0  0  0  0
    1.6943    0.8099    3.7816 H   0  0  0  0  0  0  0  0  0  0  0  0
    0.2153    0.4877    5.3120 C   0  0  0  0  0  0  0  0  0  0  0  0
    0.0429    1.5545    5.4933 H   0  0  0  0  0  0  0  0  0  0  0  0
   -0.7381   -0.0375    5.4373 H   0  0  0  0  0  0  0  0  0  0  0  0
    1.2035   -0.0300    6.2628 N   0  0  0  0  0  0  0  0  0  0  0  0
    0.8848    0.0807    7.2252 H   0  0  0  0  0  0  0  0  0  0  0  0
    1.4267   -1.0051    6.0629 H   0  0  0  0  0  0  0  0  0  0  0  0
   -0.0196    1.1350   -1.0011 C   0  0  0  0  0  0  0  0  0  0  0  0
    0.2274    2.2185   -1.5127 O   0  0  0  0  0  0  0  0  0  0  0  0
    0.2938   -0.0363   -1.6632 N   0  0  0  0  0  0  0  0  0  0  0  0
    0.0505   -0.9066   -1.1913 H   0  0  0  0  0  0  0  0  0  0  0  0
    0.9545   -0.0829   -2.9600 C   0  0  0  0  0  0  0  0  0  0  0  0
    1.9274    0.4174   -2.9119 H   0  0  0  0  0  0  0  0  0  0  0  0
    1.1148   -1.1217   -3.2641 H   0  0  0  0  0  0  0  0  0  0  0  0
    0.3406    0.4103   -3.7206 H   0  0  0  0  0  0  0  0  0  0  0  0
  1  2  1  0  0  0  0
  2  3  1  0  0  0  0
  2  4  1  0  0  0  0
  2  5  1  0  0  0  0
  5  6  2  0  0  0  0
  5  7  1  0  0  0  0
  7  8  1  0  0  0  0
  7  9  1  0  0  0  0
  9 10  1  0  0  0  0
  9 11  1  0  0  0  0
  9 26  1  0  0  0  0
 11 12  1  0  0  0  0
 11 13  1  0  0  0  0
 11 14  1  0  0  0  0
 14 15  1  0  0  0  0
 14 16  1  0  0  0  0
 14 17  1  0  0  0  0
 17 18  1  0  0  0  0
 17 19  1  0  0  0  0
 17 20  1  0  0  0  0
 20 21  1  0  0  0  0
 20 22  1  0  0  0  0
 20 23  1  0  0  0  0
 23 24  1  0  0  0  0
 23 25  1  0  0  0  0
 26 27  2  0  0  0  0
 26 28  1  0  0  0  0
 28 29  1  0  0  0  0
 28 30  1  0  0  0  0
 30 31  1  0  0  0  0
 30 32  1  0  0  0  0
 30 33  1  0  0  0  0
M  END
$$$$

  -OEChem-01062216083D

 33 32  0     1  0  0  0  0  0999 V2000
   -3.9188   -2.3690    1.0245 H   0  0  0  0  0  0  0  0  0  0  0  0
   -3.8285   -1.3375    0.6724 C   0  0  0  0  0  0  0  0  0  0  0  0
   -4.3618   -0.6828    1.3658 H   0  0  0  0  0  0  0  0  0  0  0  0
   -4.2872   -1.2619   -0.3165 H   0  0  0  0  0  0  0  0  0  0  0  0
   -2.3673   -0.9366    0.5984 C   0  0  0  0  0  0  0  0  0  0  0  0
   -1.5096   -1.7893    0.7444 O   0  0  0  0  0  0  0  0  0  0  0  0
   -2.0435    0.3516    0.2176 N   0  0  0  0  0  0  0  0  0  0  0  0
   -2.8456    0.9438    0.0204 H   0  0  0  0  0  0  0  0  0  0  0  0
   -0.7460    1.0576    0.3518 C   0  0  1  0  0  0  0  0  0  0  0  0
   -0.9777    2.0913    0.6289 H   0  0  0  0  0  0  0  0  0  0  0  0
    0.2427    0.5376    1.4189 C   0  0  0  0  0  0  0  0  0  0  0  0
    0.4803   -0.5175    1.2637 H   0  0  0  0  0  0  0  0  0  0  0  0
    1.1848    1.0862    1.3089 H   0  0  0  0  0  0  0  0  0  0  0  0
   -0.2791    0.7771    2.8419 C   0  0  0  0  0  0  0  0  0  0  0  0
   -0.4577    1.8463    2.9950 H   0  0  0  0  0  0  0  0  0  0  0  0
   -1.2291    0.2517    2.9803 H   0  0  0  0  0  0  0  0  0  0  0  0
    0.7354    0.2731    3.8735 C   0  0  0  0  0  0  0  0  0  0  0  0
    0.9242   -0.7929    3.7089 H   0  0  0  0  0  0  0  0  0  0  0  0
    1.6835    0.8074    3.7506 H   0  0  0  0  0  0  0  0  0  0  0  0
    0.2187    0.4825    5.2937 C   0  0  0  0  0  0  0  0  0  0  0  0
    0.0484    1.5489    5.4790 H   0  0  0  0  0  0  0  0  0  0  0  0
   -0.7335   -0.0430    5.4272 H   0  0  0  0  0  0  0  0  0  0  0  0
    1.2158   -0.0374    6.2340 N   0  0  0  0  0  0  0  0  0  0  0  0
    0.9039    0.0649    7.1996 H   0  0  0  0  0  0  0  0  0  0  0  0
    1.4434   -1.0096    6.0253 H   0  0  0  0  0  0  0  0  0  0  0  0
   -0.0452    1.1365   -1.0162 C   0  0  0  0  0  0  0  0  0  0  0  0
    0.4488    2.1881   -1.3992 O   0  0  0  0  0  0  0  0  0  0  0  0
    0.0004    0.0136   -1.8200 N   0  0  0  0  0  0  0  0  0  0  0  0
   -0.3486   -0.8501   -1.4059 H   0  0  0  0  0  0  0  0  0  0  0  0
    0.7036   -0.0386   -3.0943 C   0  0  0  0  0  0  0  0  0  0  0  0
    1.7679    0.1776   -2.9541 H   0  0  0  0  0  0  0  0  0  0  0  0
    0.6078   -1.0344   -3.5375 H   0  0  0  0  0  0  0  0  0  0  0  0
    0.2834    0.6920   -3.7932 H   0  0  0  0  0  0  0  0  0  0  0  0
  1  2  1  0  0  0  0
  2  3  1  0  0  0  0
  2  4  1  0  0  0  0
  2  5  1  0  0  0  0
  5  6  2  0  0  0  0
  5  7  1  0  0  0  0
  7  8  1  0  0  0  0
  7  9  1  0  0  0  0
  9 10  1  0  0  0  0
  9 11  1  0  0  0  0
  9 26  1  0  0  0  0
 11 12  1  0  0  0  0
 11 13  1  0  0  0  0
 11 14  1  0  0  0  0
 14 15  1  0  0  0  0
 14 16  1  0  0  0  0
 14 17  1  0  0  0  0
 17 18  1  0  0  0  0
 17 19  1  0  0  0  0
 17 20  1  0  0  0  0
 20 21  1  0  0  0  0
 20 22  1  0  0  0  0
 20 23  1  0  0  0  0
 23 24  1  0  0  0  0
 23 25  1  0  0  0  0
 26 27  2  0  0  0  0
 26 28  1  0  0  0  0
 28 29  1  0  0  0  0
 28 30  1  0  0  0  0
 30 31  1  0  0  0  0
 30 32  1  0  0  0  0
 30 33  1  0  0  0  0
M  END
$$$$

  -OEChem-01062216083D

 33 32  0     1  0  0  0  0  0999 V2000
   -3.9347   -2.3748    1.0816 H   0  0  0  0  0  0  0  0  0  0  0  0
   -3.8482   -1.3441    0.7252 C   0  0  0  0  0  0  0  0  0  0  0  0
   -4.3621   -0.6859    1.4299 H   0  0  0  0  0  0  0  0  0  0  0  0
   -4.3298   -1.2678   -0.2526 H   0  0  0  0  0  0  0  0  0  0  0  0
   -2.3874   -0.9494    0.6161 C   0  0  0  0  0  0  0  0  0  0  0  0
   -1.5314   -1.8056    0.7467 O   0  0  0  0  0  0  0  0  0  0  0  0
   -2.0698    0.3384    0.2270 N   0  0  0  0  0  0  0  0  0  0  0  0
   -2.8774    0.9306    0.0538 H   0  0  0  0  0  0  0  0  0  0  0  0
   -0.7723    1.0510    0.3422 C   0  0  1  0  0  0  0  0  0  0  0  0
   -1.0060    2.0839    0.6194 H   0  0  0  0  0  0  0  0  0  0  0  0
    0.2212    0.5319    1.4060 C   0  0  0  0  0  0  0  0  0  0  0  0
    0.4552   -0.5242    1.2524 H   0  0  0  0  0  0  0  0  0  0  0  0
    1.1649    1.0765    1.2903 H   0  0  0  0  0  0  0  0  0  0  0  0
   -0.2907    0.7763    2.8315 C   0  0  0  0  0  0  0  0  0  0  0  0
   -0.4663    1.8467    2.9824 H   0  0  0  0  0  0  0  0  0  0  0  0
   -1.2405    0.2528    2.9782 H   0  0  0  0  0  0  0  0  0  0  0  0
    0.7305    0.2718    3.8563 C   0  0  0  0  0  0  0  0  0  0  0  0
    0.9150   -0.7949    3.6924 H   0  0  0  0  0  0  0  0  0  0  0  0
    1.6791    0.8028    3.7249 H   0  0  0  0  0  0  0  0  0  0  0  0
    0.2256    0.4851    5.2798 C   0  0  0  0  0  0  0  0  0  0  0  0
    0.0594    1.5522    5.4646 H   0  0  0  0  0  0  0  0  0  0  0  0
   -0.7266   -0.0379    5.4210 H   0  0  0  0  0  0  0  0  0  0  0  0
    1.2286   -0.0357    6.2131 N   0  0  0  0  0  0  0  0  0  0  0  0
    0.9232    0.0660    7.1808 H   0  0  0  0  0  0  0  0  0  0  0  0
    1.4540   -1.0080    6.0020 H   0  0  0  0  0  0  0  0  0  0  0  0
   -0.0682    1.1407   -1.0259 C   0  0  0  0  0  0  0  0  0  0  0  0
    0.6336    2.1073   -1.2912 O   0  0  0  0  0  0  0  0  0  0  0  0
   -0.2622    0.1508   -1.9710 N   0  0  0  0  0  0  0  0  0  0  0  0
   -0.7257   -0.6923   -1.6373 H   0  0  0  0  0  0  0  0  0  0  0  0
    0.4608    0.1046   -3.2350 C   0  0  0  0  0  0  0  0  0  0  0  0
    1.5371    0.0130   -3.0563 H   0  0  0  0  0  0  0  0  0  0  0  0
    0.1320   -0.7548   -3.8269 H   0  0  0  0  0  0  0  0  0  0  0  0
    0.2760    1.0143   -3.8158 H   0  0  0  0  0  0  0  0  0  0  0  0
  1  2  1  0  0  0  0
  2  3  1  0  0  0  0
  2  4  1  0  0  0  0
  2  5  1  0  0  0  0
  5  6  2  0  0  0  0
  5  7  1  0  0  0  0
  7  8  1  0  0  0  0
  7  9  1  0  0  0  0
  9 10  1  0  0  0  0
  9 11  1  0  0  0  0
  9 26  1  0  0  0  0
 11 12  1  0  0  0  0
 11 13  1  0  0  0  0
 11 14  1  0  0  0  0
 14 15  1  0  0  0  0
 14 16  1  0  0  0  0
 14 17  1  0  0  0  0
 17 18  1  0  0  0  0
 17 19  1  0  0  0  0
 17 20  1  0  0  0  0
 20 21  1  0  0  0  0
 20 22  1  0  0  0  0
 20 23  1  0  0  0  0
 23 24  1  0  0  0  0
 23 25  1  0  0  0  0
 26 27  2  0  0  0  0
 26 28  1  0  0  0  0
 28 29  1  0  0  0  0
 28 30  1  0  0  0  0
 30 31  1  0  0  0  0
 30 32  1  0  0  0  0
 30 33  1  0  0  0  0
M  END
$$$$

  -OEChem-01062216083D

 33 32  0     1  0  0  0  0  0999 V2000
   -3.9468   -2.3765    1.0979 H   0  0  0  0  0  0  0  0  0  0  0  0
   -3.8538   -1.3540    0.7205 C   0  0  0  0  0  0  0  0  0  0  0  0
   -4.3820   -0.6817    1.4008 H   0  0  0  0  0  0  0  0  0  0  0  0
   -4.3166   -1.3007   -0.2679 H   0  0  0  0  0  0  0  0  0  0  0  0
   -2.3908   -0.9604    0.6318 C   0  0  0  0  0  0  0  0  0  0  0  0
   -1.5409   -1.8155    0.7978 O   0  0  0  0  0  0  0  0  0  0  0  0
   -2.0702    0.3279    0.2423 N   0  0  0  0  0  0  0  0  0  0  0  0
   -2.8780    0.9191    0.0661 H   0  0  0  0  0  0  0  0  0  0  0  0
   -0.7710    1.0435    0.3448 C   0  0  1  0  0  0  0  0  0  0  0  0
   -1.0041    2.0761    0.6233 H   0  0  0  0  0  0  0  0  0  0  0  0
    0.2239    0.5232    1.4086 C   0  0  0  0  0  0  0  0  0  0  0  0
    0.4554   -0.5333    1.2555 H   0  0  0  0  0  0  0  0  0  0  0  0
    1.1696    1.0644    1.2936 H   0  0  0  0  0  0  0  0  0  0  0  0
   -0.2852    0.7740    2.8343 C   0  0  0  0  0  0  0  0  0  0  0  0
   -0.4555    1.8456    2.9825 H   0  0  0  0  0  0  0  0  0  0  0  0
   -1.2370    0.2553    2.9839 H   0  0  0  0  0  0  0  0  0  0  0  0
    0.7347    0.2693    3.8602 C   0  0  0  0  0  0  0  0  0  0  0  0
    0.9146   -0.7989    3.7002 H   0  0  0  0  0  0  0  0  0  0  0  0
    1.6852    0.7963    3.7262 H   0  0  0  0  0  0  0  0  0  0  0  0
    0.2302    0.4900    5.2828 C   0  0  0  0  0  0  0  0  0  0  0  0
    0.0676    1.5585    5.4629 H   0  0  0  0  0  0  0  0  0  0  0  0
   -0.7243   -0.0287    5.4258 H   0  0  0  0  0  0  0  0  0  0  0  0
    1.2307   -0.0305    6.2193 N   0  0  0  0  0  0  0  0  0  0  0  0
    0.9232    0.0727    7.1861 H   0  0  0  0  0  0  0  0  0  0  0  0
    1.4560   -1.0033    6.0101 H   0  0  0  0  0  0  0  0  0  0  0  0
   -0.0699    1.1420   -1.0274 C   0  0  0  0  0  0  0  0  0  0  0  0
    0.8038    1.9793   -1.2100 O   0  0  0  0  0  0  0  0  0  0  0  0
   -0.4822    0.3504   -2.0834 N   0  0  0  0  0  0  0  0  0  0  0  0
   -1.0887   -0.4276   -1.8368 H   0  0  0  0  0  0  0  0  0  0  0  0
    0.1949    0.3307   -3.3736 C   0  0  0  0  0  0  0  0  0  0  0  0
    1.2347    0.0087   -3.2550 H   0  0  0  0  0  0  0  0  0  0  0  0
   -0.3087   -0.3630   -4.0535 H   0  0  0  0  0  0  0  0  0  0  0  0
    0.1838    1.3271   -3.8276 H   0  0  0  0  0  0  0  0  0  0  0  0
  1  2  1  0  0  0  0
  2  3  1  0  0  0  0
  2  4  1  0  0  0  0
  2  5  1  0  0  0  0
  5  6  2  0  0  0  0
  5  7  1  0  0  0  0
  7  8  1  0  0  0  0
  7  9  1  0  0  0  0
  9 10  1  0  0  0  0
  9 11  1  0  0  0  0
  9 26  1  0  0  0  0
 11 12  1  0  0  0  0
 11 13  1  0  0  0  0
 11 14  1  0  0  0  0
 14 15  1  0  0  0  0
 14 16  1  0  0  0  0
 14 17  1  0  0  0  0
 17 18  1  0  0  0  0
 17 19  1  0  0  0  0
 17 20  1  0  0  0  0
 20 21  1  0  0  0  0
 20 22  1  0  0  0  0
 20 23  1  0  0  0  0
 23 24  1  0  0  0  0
 23 25  1  0  0  0  0
 26 27  2  0  0  0  0
 26 28  1  0  0  0  0
 28 29  1  0  0  0  0
 28 30  1  0  0  0  0
 30 31  1  0  0  0  0
 30 32  1  0  0  0  0
 30 33  1  0  0  0  0
M  END
$$$$

  -OEChem-01062216083D

 33 32  0     1  0  0  0  0  0999 V2000
   -3.9284   -2.3895    1.1005 H   0  0  0  0  0  0  0  0  0  0  0  0
   -3.8367   -1.3645    0.7298 C   0  0  0  0  0  0  0  0  0  0  0  0
   -4.3574   -0.6959    1.4197 H   0  0  0  0  0  0  0  0  0  0  0  0
   -4.3074   -1.3033   -0.2544 H   0  0  0  0  0  0  0  0  0  0  0  0
   -2.3738   -0.9731    0.6316 C   0  0  0  0  0  0  0  0  0  0  0  0
   -1.5255   -1.8282    0.8035 O   0  0  0  0  0  0  0  0  0  0  0  0
   -2.0589    0.3181    0.2444 N   0  0  0  0  0  0  0  0  0  0  0  0
   -2.8710    0.9104    0.0936 H   0  0  0  0  0  0  0  0  0  0  0  0
   -0.7601    1.0366    0.3404 C   0  0  1  0  0  0  0  0  0  0  0  0
   -0.9949    2.0683    0.6193 H   0  0  0  0  0  0  0  0  0  0  0  0
    0.2306    0.5156    1.4101 C   0  0  0  0  0  0  0  0  0  0  0  0
    0.4616   -0.5414    1.2599 H   0  0  0  0  0  0  0  0  0  0  0  0
    1.1787    1.0532    1.3018 H   0  0  0  0  0  0  0  0  0  0  0  0
   -0.2830    0.7726    2.8331 C   0  0  0  0  0  0  0  0  0  0  0  0
   -0.4495    1.8451    2.9769 H   0  0  0  0  0  0  0  0  0  0  0  0
   -1.2371    0.2577    2.9810 H   0  0  0  0  0  0  0  0  0  0  0  0
    0.7314    0.2678    3.8644 C   0  0  0  0  0  0  0  0  0  0  0  0
    0.9085   -0.8016    3.7084 H   0  0  0  0  0  0  0  0  0  0  0  0
    1.6844    0.7912    3.7323 H   0  0  0  0  0  0  0  0  0  0  0  0
    0.2224    0.4946    5.2843 C   0  0  0  0  0  0  0  0  0  0  0  0
    0.0624    1.5639    5.4605 H   0  0  0  0  0  0  0  0  0  0  0  0
   -0.7340   -0.0205    5.4254 H   0  0  0  0  0  0  0  0  0  0  0  0
    1.2173   -0.0261    6.2264 N   0  0  0  0  0  0  0  0  0  0  0  0
    0.9027    0.0747    7.1911 H   0  0  0  0  0  0  0  0  0  0  0  0
    1.4454   -0.9982    6.0168 H   0  0  0  0  0  0  0  0  0  0  0  0
   -0.0658    1.1436   -1.0379 C   0  0  0  0  0  0  0  0  0  0  0  0
    0.9487    1.8156   -1.1682 O   0  0  0  0  0  0  0  0  0  0  0  0
   -0.6574    0.6029   -2.1654 N   0  0  0  0  0  0  0  0  0  0  0  0
   -1.4014   -0.0663   -1.9908 H   0  0  0  0  0  0  0  0  0  0  0  0
   -0.0268    0.6220   -3.4796 C   0  0  0  0  0  0  0  0  0  0  0  0
    0.9171    0.0672   -3.4597 H   0  0  0  0  0  0  0  0  0  0  0  0
   -0.6858    0.1608   -4.2214 H   0  0  0  0  0  0  0  0  0  0  0  0
    0.1765    1.6515   -3.7930 H   0  0  0  0  0  0  0  0  0  0  0  0
  1  2  1  0  0  0  0
  2  3  1  0  0  0  0
  2  4  1  0  0  0  0
  2  5  1  0  0  0  0
  5  6  2  0  0  0  0
  5  7  1  0  0  0  0
  7  8  1  0  0  0  0
  7  9  1  0  0  0  0
  9 10  1  0  0  0  0
  9 11  1  0  0  0  0
  9 26  1  0  0  0  0
 11 12  1  0  0  0  0
 11 13  1  0  0  0  0
 11 14  1  0  0  0  0
 14 15  1  0  0  0  0
 14 16  1  0  0  0  0
 14 17  1  0  0  0  0
 17 18  1  0  0  0  0
 17 19  1  0  0  0  0
 17 20  1  0  0  0  0
 20 21  1  0  0  0  0
 20 22  1  0  0  0  0
 20 23  1  0  0  0  0
 23 24  1  0  0  0  0
 23 25  1  0  0  0  0
 26 27  2  0  0  0  0
 26 28  1  0  0  0  0
 28 29  1  0  0  0  0
 28 30  1  0  0  0  0
 30 31  1  0  0  0  0
 30 32  1  0  0  0  0
 30 33  1  0  0  0  0
M  END
$$$$

  -OEChem-01062216083D

 33 32  0     1  0  0  0  0  0999 V2000
   -3.8956   -2.4099    1.0871 H   0  0  0  0  0  0  0  0  0  0  0  0
   -3.8095   -1.3766    0.7382 C   0  0  0  0  0  0  0  0  0  0  0  0
   -4.3111   -0.7222    1.4553 H   0  0  0  0  0  0  0  0  0  0  0  0
   -4.3036   -1.2910   -0.2325 H   0  0  0  0  0  0  0  0  0  0  0  0
   -2.3482   -0.9873    0.6141 C   0  0  0  0  0  0  0  0  0  0  0  0
   -1.4997   -1.8442    0.7747 O   0  0  0  0  0  0  0  0  0  0  0  0
   -2.0389    0.3082    0.2354 N   0  0  0  0  0  0  0  0  0  0  0  0
   -2.8534    0.9050    0.1211 H   0  0  0  0  0  0  0  0  0  0  0  0
   -0.7379    1.0234    0.3314 C   0  0  1  0  0  0  0  0  0  0  0  0
   -0.9712    2.0549    0.6117 H   0  0  0  0  0  0  0  0  0  0  0  0
    0.2453    0.5017    1.4105 C   0  0  0  0  0  0  0  0  0  0  0  0
    0.4738   -0.5568    1.2670 H   0  0  0  0  0  0  0  0  0  0  0  0
    1.1966    1.0346    1.3099 H   0  0  0  0  0  0  0  0  0  0  0  0
   -0.2775    0.7693    2.8285 C   0  0  0  0  0  0  0  0  0  0  0  0
   -0.4401    1.8435    2.9650 H   0  0  0  0  0  0  0  0  0  0  0  0
   -1.2354    0.2596    2.9714 H   0  0  0  0  0  0  0  0  0  0  0  0
    0.7255    0.2659    3.8716 C   0  0  0  0  0  0  0  0  0  0  0  0
    0.8986   -0.8050    3.7235 H   0  0  0  0  0  0  0  0  0  0  0  0
    1.6819    0.7839    3.7445 H   0  0  0  0  0  0  0  0  0  0  0  0
    0.2058    0.5038    5.2859 C   0  0  0  0  0  0  0  0  0  0  0  0
    0.0492    1.5750    5.4550 H   0  0  0  0  0  0  0  0  0  0  0  0
   -0.7537   -0.0072    5.4223 H   0  0  0  0  0  0  0  0  0  0  0  0
    1.1906   -0.0163    6.2388 N   0  0  0  0  0  0  0  0  0  0  0  0
    0.8661    0.0844    7.2002 H   0  0  0  0  0  0  0  0  0  0  0  0
    1.4217   -0.9881    6.0314 H   0  0  0  0  0  0  0  0  0  0  0  0
   -0.0543    1.1393   -1.0542 C   0  0  0  0  0  0  0  0  0  0  0  0
    1.0773    1.5933   -1.1608 O   0  0  0  0  0  0  0  0  0  0  0  0
   -0.7765    0.8954   -2.2093 N   0  0  0  0  0  0  0  0  0  0  0  0
   -1.6455    0.3856   -2.0859 H   0  0  0  0  0  0  0  0  0  0  0  0
   -0.1913    0.9674   -3.5430 C   0  0  0  0  0  0  0  0  0  0  0  0
    0.5985    0.2173   -3.6551 H   0  0  0  0  0  0  0  0  0  0  0  0
   -0.9568    0.7835   -4.3026 H   0  0  0  0  0  0  0  0  0  0  0  0
    0.2370    1.9594   -3.7213 H   0  0  0  0  0  0  0  0  0  0  0  0
  1  2  1  0  0  0  0
  2  3  1  0  0  0  0
  2  4  1  0  0  0  0
  2  5  1  0  0  0  0
  5  6  2  0  0  0  0
  5  7  1  0  0  0  0
  7  8  1  0  0  0  0
  7  9  1  0  0  0  0
  9 10  1  0  0  0  0
  9 11  1  0  0  0  0
  9 26  1  0  0  0  0
 11 12  1  0  0  0  0
 11 13  1  0  0  0  0
 11 14  1  0  0  0  0
 14 15  1  0  0  0  0
 14 16  1  0  0  0  0
 14 17  1  0  0  0  0
 17 18  1  0  0  0  0
 17 19  1  0  0  0  0
 17 20  1  0  0  0  0
 20 21  1  0  0  0  0
 20 22  1  0  0  0  0
 20 23  1  0  0  0  0
 23 24  1  0  0  0  0
 23 25  1  0  0  0  0
 26 27  2  0  0  0  0
 26 28  1  0  0  0  0
 28 29  1  0  0  0  0
 28 30  1  0  0  0  0
 30 31  1  0  0  0  0
 30 32  1  0  0  0  0
 30 33  1  0  0  0  0
M  END
$$$$

  -OEChem-01062216083D

 33 32  0     1  0  0  0  0  0999 V2000
   -3.8920   -2.4171    1.0410 H   0  0  0  0  0  0  0  0  0  0  0  0
   -3.7986   -1.3856    0.6894 C   0  0  0  0  0  0  0  0  0  0  0  0
   -4.3196   -0.7295    1.3908 H   0  0  0  0  0  0  0  0  0  0  0  0
   -4.2681   -1.3065   -0.2940 H   0  0  0  0  0  0  0  0  0  0  0  0
   -2.3352   -0.9944    0.5992 C   0  0  0  0  0  0  0  0  0  0  0  0
   -1.4904   -1.8492    0.7875 O   0  0  0  0  0  0  0  0  0  0  0  0
   -2.0226    0.3039    0.2317 N   0  0  0  0  0  0  0  0  0  0  0  0
   -2.8370    0.9008    0.1217 H   0  0  0  0  0  0  0  0  0  0  0  0
   -0.7203    1.0150    0.3316 C   0  0  1  0  0  0  0  0  0  0  0  0
   -0.9514    2.0463    0.6140 H   0  0  0  0  0  0  0  0  0  0  0  0
    0.2591    0.4952    1.4161 C   0  0  0  0  0  0  0  0  0  0  0  0
    0.4870   -0.5640    1.2761 H   0  0  0  0  0  0  0  0  0  0  0  0
    1.2110    1.0279    1.3192 H   0  0  0  0  0  0  0  0  0  0  0  0
   -0.2685    0.7689    2.8314 C   0  0  0  0  0  0  0  0  0  0  0  0
   -0.4313    1.8435    2.9646 H   0  0  0  0  0  0  0  0  0  0  0  0
   -1.2271    0.2603    2.9724 H   0  0  0  0  0  0  0  0  0  0  0  0
    0.7303    0.2677    3.8793 C   0  0  0  0  0  0  0  0  0  0  0  0
    0.9025   -0.8039    3.7351 H   0  0  0  0  0  0  0  0  0  0  0  0
    1.6880    0.7833    3.7532 H   0  0  0  0  0  0  0  0  0  0  0  0
    0.2068    0.5113    5.2911 C   0  0  0  0  0  0  0  0  0  0  0  0
    0.0514    1.5833    5.4555 H   0  0  0  0  0  0  0  0  0  0  0  0
   -0.7541    0.0023    5.4260 H   0  0  0  0  0  0  0  0  0  0  0  0
    1.1875   -0.0066    6.2497 N   0  0  0  0  0  0  0  0  0  0  0  0
    0.8598    0.0984    7.2095 H   0  0  0  0  0  0  0  0  0  0  0  0
    1.4180   -0.9797    6.0471 H   0  0  0  0  0  0  0  0  0  0  0  0
   -0.0491    1.1352   -1.0608 C   0  0  0  0  0  0  0  0  0  0  0  0
    1.1538    1.3278   -1.1790 O   0  0  0  0  0  0  0  0  0  0  0  0
   -0.8356    1.2083   -2.1977 N   0  0  0  0  0  0  0  0  0  0  0  0
   -1.7997    0.9115   -2.0932 H   0  0  0  0  0  0  0  0  0  0  0  0
   -0.2812    1.3211   -3.5419 C   0  0  0  0  0  0  0  0  0  0  0  0
    0.3304    0.4442   -3.7790 H   0  0  0  0  0  0  0  0  0  0  0  0
   -1.0865    1.3931   -4.2788 H   0  0  0  0  0  0  0  0  0  0  0  0
    0.3413    2.2182   -3.6260 H   0  0  0  0  0  0  0  0  0  0  0  0
  1  2  1  0  0  0  0
  2  3  1  0  0  0  0
  2  4  1  0  0  0  0
  2  5  1  0  0  0  0
  5  6  2  0  0  0  0
  5  7  1  0  0  0  0
  7  8  1  0  0  0  0
  7  9  1  0  0  0  0
  9 10  1  0  0  0  0
  9 11  1  0  0  0  0
  9 26  1  0  0  0  0
 11 12  1  0  0  0  0
 11 13  1  0  0  0  0
 11 14  1  0  0  0  0
 14 15  1  0  0  0  0
 14 16  1  0  0  0  0
 14 17  1  0  0  0  0
 17 18  1  0  0  0  0
 17 19  1  0  0  0  0
 17 20  1  0  0  0  0
 20 21  1  0  0  0  0
 20 22  1  0  0  0  0
 20 23  1  0  0  0  0
 23 24  1  0  0  0  0
 23 25  1  0  0  0  0
 26 27  2  0  0  0  0
 26 28  1  0  0  0  0
 28 29  1  0  0  0  0
 28 30  1  0  0  0  0
 30 31  1  0  0  0  0
 30 32  1  0  0  0  0
 30 33  1  0  0  0  0
M  END
$$$$

  -OEChem-01062216083D

 33 32  0     1  0  0  0  0  0999 V2000
   -3.9156   -2.4222    0.9579 H   0  0  0  0  0  0  0  0  0  0  0  0
   -3.8071   -1.3956    0.5956 C   0  0  0  0  0  0  0  0  0  0  0  0
   -4.3860   -0.7336    1.2438 H   0  0  0  0  0  0  0  0  0  0  0  0
   -4.2021   -1.3391   -0.4215 H   0  0  0  0  0  0  0  0  0  0  0  0
   -2.3448   -0.9889    0.6076 C   0  0  0  0  0  0  0  0  0  0  0  0
   -1.5133   -1.8280    0.8980 O   0  0  0  0  0  0  0  0  0  0  0  0
   -2.0219    0.3077    0.2407 N   0  0  0  0  0  0  0  0  0  0  0  0
   -2.8317    0.8905    0.0546 H   0  0  0  0  0  0  0  0  0  0  0  0
   -0.7202    1.0188    0.3432 C   0  0  1  0  0  0  0  0  0  0  0  0
   -0.9500    2.0502    0.6256 H   0  0  0  0  0  0  0  0  0  0  0  0
    0.2625    0.5031    1.4257 C   0  0  0  0  0  0  0  0  0  0  0  0
    0.4951   -0.5548    1.2831 H   0  0  0  0  0  0  0  0  0  0  0  0
    1.2113    1.0407    1.3241 H   0  0  0  0  0  0  0  0  0  0  0  0
   -0.2600    0.7739    2.8432 C   0  0  0  0  0  0  0  0  0  0  0  0
   -0.4245    1.8479    2.9777 H   0  0  0  0  0  0  0  0  0  0  0  0
   -1.2167    0.2625    2.9879 H   0  0  0  0  0  0  0  0  0  0  0  0
    0.7451    0.2750    3.8866 C   0  0  0  0  0  0  0  0  0  0  0  0
    0.9199   -0.7961    3.7411 H   0  0  0  0  0  0  0  0  0  0  0  0
    1.7005    0.7941    3.7572 H   0  0  0  0  0  0  0  0  0  0  0  0
    0.2269    0.5156    5.3008 C   0  0  0  0  0  0  0  0  0  0  0  0
    0.0687    1.5871    5.4671 H   0  0  0  0  0  0  0  0  0  0  0  0
   -0.7319    0.0037    5.4390 H   0  0  0  0  0  0  0  0  0  0  0  0
    1.2139   -0.0001    6.2539 N   0  0  0  0  0  0  0  0  0  0  0  0
    0.8888    0.0988    7.2152 H   0  0  0  0  0  0  0  0  0  0  0  0
    1.4486   -0.9711    6.0462 H   0  0  0  0  0  0  0  0  0  0  0  0
   -0.0538    1.1307   -1.0528 C   0  0  0  0  0  0  0  0  0  0  0  0
    1.1554    1.0243   -1.2100 O   0  0  0  0  0  0  0  0  0  0  0  0
   -0.8189    1.5096   -2.1431 N   0  0  0  0  0  0  0  0  0  0  0  0
   -1.8250    1.5081   -2.0211 H   0  0  0  0  0  0  0  0  0  0  0  0
   -0.2764    1.6515   -3.4894 C   0  0  0  0  0  0  0  0  0  0  0  0
    0.1311    0.6976   -3.8403 H   0  0  0  0  0  0  0  0  0  0  0  0
   -1.0615    1.9698   -4.1819 H   0  0  0  0  0  0  0  0  0  0  0  0
    0.5210    2.4019   -3.5040 H   0  0  0  0  0  0  0  0  0  0  0  0
  1  2  1  0  0  0  0
  2  3  1  0  0  0  0
  2  4  1  0  0  0  0
  2  5  1  0  0  0  0
  5  6  2  0  0  0  0
  5  7  1  0  0  0  0
  7  8  1  0  0  0  0
  7  9  1  0  0  0  0
  9 10  1  0  0  0  0
  9 11  1  0  0  0  0
  9 26  1  0  0  0  0
 11 12  1  0  0  0  0
 11 13  1  0  0  0  0
 11 14  1  0  0  0  0
 14 15  1  0  0  0  0
 14 16  1  0  0  0  0
 14 17  1  0  0  0  0
 17 18  1  0  0  0  0
 17 19  1  0  0  0  0
 17 20  1  0  0  0  0
 20 21  1  0  0  0  0
 20 22  1  0  0  0  0
 20 23  1  0  0  0  0
 23 24  1  0  0  0  0
 23 25  1  0  0  0  0
 26 27  2  0  0  0  0
 26 28  1  0  0  0  0
 28 29  1  0  0  0  0
 28 30  1  0  0  0  0
 30 31  1  0  0  0  0
 30 32  1  0  0  0  0
 30 33  1  0  0  0  0
M  END
$$$$

  -OEChem-01062216083D

 33 32  0     1  0  0  0  0  0999 V2000
   -3.9514   -2.4263    0.8636 H   0  0  0  0  0  0  0  0  0  0  0  0
   -3.8216   -1.4074    0.4875 C   0  0  0  0  0  0  0  0  0  0  0  0
   -4.4724   -0.7396    1.0567 H   0  0  0  0  0  0  0  0  0  0  0  0
   -4.1127   -1.3832   -0.5653 H   0  0  0  0  0  0  0  0  0  0  0  0
   -2.3743   -0.9753    0.6364 C   0  0  0  0  0  0  0  0  0  0  0  0
   -1.5743   -1.7831    1.0695 O   0  0  0  0  0  0  0  0  0  0  0  0
   -2.0374    0.3162    0.2625 N   0  0  0  0  0  0  0  0  0  0  0  0
   -2.8214    0.8608   -0.0810 H   0  0  0  0  0  0  0  0  0  0  0  0
   -0.7356    1.0262    0.3624 C   0  0  1  0  0  0  0  0  0  0  0  0
   -0.9615    2.0583    0.6454 H   0  0  0  0  0  0  0  0  0  0  0  0
    0.2580    0.5140    1.4347 C   0  0  0  0  0  0  0  0  0  0  0  0
    0.4890   -0.5443    1.2885 H   0  0  0  0  0  0  0  0  0  0  0  0
    1.2043    1.0530    1.3182 H   0  0  0  0  0  0  0  0  0  0  0  0
   -0.2520    0.7806    2.8576 C   0  0  0  0  0  0  0  0  0  0  0  0
   -0.4218    1.8534    2.9958 H   0  0  0  0  0  0  0  0  0  0  0  0
   -1.2049    0.2644    3.0106 H   0  0  0  0  0  0  0  0  0  0  0  0
    0.7654    0.2846    3.8902 C   0  0  0  0  0  0  0  0  0  0  0  0
    0.9436   -0.7854    3.7412 H   0  0  0  0  0  0  0  0  0  0  0  0
    1.7172    0.8080    3.7522 H   0  0  0  0  0  0  0  0  0  0  0  0
    0.2595    0.5209    5.3097 C   0  0  0  0  0  0  0  0  0  0  0  0
    0.0967    1.5910    5.4793 H   0  0  0  0  0  0  0  0  0  0  0  0
   -0.6952    0.0036    5.4562 H   0  0  0  0  0  0  0  0  0  0  0  0
    1.2574    0.0084    6.2533 N   0  0  0  0  0  0  0  0  0  0  0  0
    0.9385    0.1024    7.2173 H   0  0  0  0  0  0  0  0  0  0  0  0
    1.4948   -0.9610    6.0409 H   0  0  0  0  0  0  0  0  0  0  0  0
   -0.0757    1.1202   -1.0368 C   0  0  0  0  0  0  0  0  0  0  0  0
    1.0505    0.6976   -1.2618 O   0  0  0  0  0  0  0  0  0  0  0  0
   -0.7401    1.7785   -2.0585 N   0  0  0  0  0  0  0  0  0  0  0  0
   -1.6649    2.1440   -1.8624 H   0  0  0  0  0  0  0  0  0  0  0  0
   -0.1823    1.9506   -3.3951 C   0  0  0  0  0  0  0  0  0  0  0  0
    0.0241    0.9770   -3.8518 H   0  0  0  0  0  0  0  0  0  0  0  0
   -0.8877    2.4894   -4.0345 H   0  0  0  0  0  0  0  0  0  0  0  0
    0.7500    2.5230   -3.3494 H   0  0  0  0  0  0  0  0  0  0  0  0
  1  2  1  0  0  0  0
  2  3  1  0  0  0  0
  2  4  1  0  0  0  0
  2  5  1  0  0  0  0
  5  6  2  0  0  0  0
  5  7  1  0  0  0  0
  7  8  1  0  0  0  0
  7  9  1  0  0  0  0
  9 10  1  0  0  0  0
  9 11  1  0  0  0  0
  9 26  1  0  0  0  0
 11 12  1  0  0  0  0
 11 13  1  0  0  0  0
 11 14  1  0  0  0  0
 14 15  1  0  0  0  0
 14 16  1  0  0  0  0
 14 17  1  0  0  0  0
 17 18  1  0  0  0  0
 17 19  1  0  0  0  0
 17 20  1  0  0  0  0
 20 21  1  0  0  0  0
 20 22  1  0  0  0  0
 20 23  1  0  0  0  0
 23 24  1  0  0  0  0
 23 25  1  0  0  0  0
 26 27  2  0  0  0  0
 26 28  1  0  0  0  0
 28 29  1  0  0  0  0
 28 30  1  0  0  0  0
 30 31  1  0  0  0  0
 30 32  1  0  0  0  0
 30 33  1  0  0  0  0
M  END
$$$$

  -OEChem-01062216083D

 33 32  0     1  0  0  0  0  0999 V2000
   -3.9591   -2.4498    0.6929 H   0  0  0  0  0  0  0  0  0  0  0  0
   -3.8226   -1.4202    0.3499 C   0  0  0  0  0  0  0  0  0  0  0  0
   -4.5614   -0.7849    0.8440 H   0  0  0  0  0  0  0  0  0  0  0  0
   -3.9844   -1.3871   -0.7302 H   0  0  0  0  0  0  0  0  0  0  0  0
   -2.4212   -0.9399    0.6795 C   0  0  0  0  0  0  0  0  0  0  0  0
   -1.6790   -1.6995    1.2740 O   0  0  0  0  0  0  0  0  0  0  0  0
   -2.0697    0.3456    0.2970 N   0  0  0  0  0  0  0  0  0  0  0  0
   -2.7946    0.8262   -0.2258 H   0  0  0  0  0  0  0  0  0  0  0  0
   -0.7610    1.0411    0.3907 C   0  0  1  0  0  0  0  0  0  0  0  0
   -0.9743    2.0753    0.6756 H   0  0  0  0  0  0  0  0  0  0  0  0
    0.2451    0.5259    1.4473 C   0  0  0  0  0  0  0  0  0  0  0  0
    0.4601   -0.5360    1.2982 H   0  0  0  0  0  0  0  0  0  0  0  0
    1.1946    1.0544    1.3099 H   0  0  0  0  0  0  0  0  0  0  0  0
   -0.2414    0.7939    2.8788 C   0  0  0  0  0  0  0  0  0  0  0  0
   -0.4028    1.8674    3.0186 H   0  0  0  0  0  0  0  0  0  0  0  0
   -1.1947    0.2846    3.0490 H   0  0  0  0  0  0  0  0  0  0  0  0
    0.7897    0.2936    3.8952 C   0  0  0  0  0  0  0  0  0  0  0  0
    0.9601   -0.7775    3.7431 H   0  0  0  0  0  0  0  0  0  0  0  0
    1.7420    0.8124    3.7431 H   0  0  0  0  0  0  0  0  0  0  0  0
    0.3050    0.5322    5.3216 C   0  0  0  0  0  0  0  0  0  0  0  0
    0.1490    1.6029    5.4934 H   0  0  0  0  0  0  0  0  0  0  0  0
   -0.6494    0.0181    5.4810 H   0  0  0  0  0  0  0  0  0  0  0  0
    1.3140    0.0162    6.2513 N   0  0  0  0  0  0  0  0  0  0  0  0
    1.0105    0.1166    7.2194 H   0  0  0  0  0  0  0  0  0  0  0  0
    1.5389   -0.9563    6.0395 H   0  0  0  0  0  0  0  0  0  0  0  0
   -0.1108    1.1156   -1.0113 C   0  0  0  0  0  0  0  0  0  0  0  0
    0.8358    0.4101   -1.3316 O   0  0  0  0  0  0  0  0  0  0  0  0
   -0.6020    2.0203   -1.9376 N   0  0  0  0  0  0  0  0  0  0  0  0
   -1.3423    2.6469   -1.6400 H   0  0  0  0  0  0  0  0  0  0  0  0
   -0.0254    2.1938   -3.2661 C   0  0  0  0  0  0  0  0  0  0  0  0
   -0.0502    1.2500   -3.8212 H   0  0  0  0  0  0  0  0  0  0  0  0
   -0.5925    2.9402   -3.8305 H   0  0  0  0  0  0  0  0  0  0  0  0
    1.0137    2.5315   -3.1917 H   0  0  0  0  0  0  0  0  0  0  0  0
  1  2  1  0  0  0  0
  2  3  1  0  0  0  0
  2  4  1  0  0  0  0
  2  5  1  0  0  0  0
  5  6  2  0  0  0  0
  5  7  1  0  0  0  0
  7  8  1  0  0  0  0
  7  9  1  0  0  0  0
  9 10  1  0  0  0  0
  9 11  1  0  0  0  0
  9 26  1  0  0  0  0
 11 12  1  0  0  0  0
 11 13  1  0  0  0  0
 11 14  1  0  0  0  0
 14 15  1  0  0  0  0
 14 16  1  0  0  0  0
 14 17  1  0  0  0  0
 17 18  1  0  0  0  0
 17 19  1  0  0  0  0
 17 20  1  0  0  0  0
 20 21  1  0  0  0  0
 20 22  1  0  0  0  0
 20 23  1  0  0  0  0
 23 24  1  0  0  0  0
 23 25  1  0  0  0  0
 26 27  2  0  0  0  0
 26 28  1  0  0  0  0
 28 29  1  0  0  0  0
 28 30  1  0  0  0  0
 30 31  1  0  0  0  0
 30 32  1  0  0  0  0
 30 33  1  0  0  0  0
M  END
$$$$

  -OEChem-01062216083D

 33 32  0     1  0  0  0  0  0999 V2000
   -3.9556   -2.4574    0.6385 H   0  0  0  0  0  0  0  0  0  0  0  0
   -3.8200   -1.4283    0.2936 C   0  0  0  0  0  0  0  0  0  0  0  0
   -4.5952   -0.8029    0.7426 H   0  0  0  0  0  0  0  0  0  0  0  0
   -3.9254   -1.4079   -0.7938 H   0  0  0  0  0  0  0  0  0  0  0  0
   -2.4465   -0.9190    0.6914 C   0  0  0  0  0  0  0  0  0  0  0  0
   -1.7304   -1.6532    1.3479 O   0  0  0  0  0  0  0  0  0  0  0  0
   -2.0954    0.3658    0.3062 N   0  0  0  0  0  0  0  0  0  0  0  0
   -2.7903    0.8153   -0.2817 H   0  0  0  0  0  0  0  0  0  0  0  0
   -0.7858    1.0572    0.4034 C   0  0  1  0  0  0  0  0  0  0  0  0
   -1.0018    2.0895    0.6926 H   0  0  0  0  0  0  0  0  0  0  0  0
    0.2272    0.5435    1.4519 C   0  0  0  0  0  0  0  0  0  0  0  0
    0.4379   -0.5193    1.2991 H   0  0  0  0  0  0  0  0  0  0  0  0
    1.1760    1.0709    1.3064 H   0  0  0  0  0  0  0  0  0  0  0  0
   -0.2474    0.8054    2.8891 C   0  0  0  0  0  0  0  0  0  0  0  0
   -0.4091    1.8782    3.0348 H   0  0  0  0  0  0  0  0  0  0  0  0
   -1.1984    0.2950    3.0684 H   0  0  0  0  0  0  0  0  0  0  0  0
    0.7966    0.3036    3.8916 C   0  0  0  0  0  0  0  0  0  0  0  0
    0.9681   -0.7662    3.7327 H   0  0  0  0  0  0  0  0  0  0  0  0
    1.7453    0.8259    3.7307 H   0  0  0  0  0  0  0  0  0  0  0  0
    0.3289    0.5339    5.3248 C   0  0  0  0  0  0  0  0  0  0  0  0
    0.1721    1.6033    5.5040 H   0  0  0  0  0  0  0  0  0  0  0  0
   -0.6222    0.0164    5.4940 H   0  0  0  0  0  0  0  0  0  0  0  0
    1.3516    0.0157    6.2383 N   0  0  0  0  0  0  0  0  0  0  0  0
    1.0589    0.1066    7.2109 H   0  0  0  0  0  0  0  0  0  0  0  0
    1.5784   -0.9541    6.0158 H   0  0  0  0  0  0  0  0  0  0  0  0
   -0.1266    1.1302   -0.9926 C   0  0  0  0  0  0  0  0  0  0  0  0
    0.5904    0.2343   -1.4157 O   0  0  0  0  0  0  0  0  0  0  0  0
   -0.3787    2.2197   -1.8089 N   0  0  0  0  0  0  0  0  0  0  0  0
   -0.9303    2.9805   -1.4253 H   0  0  0  0  0  0  0  0  0  0  0  0
    0.2219    2.3834   -3.1280 C   0  0  0  0  0  0  0  0  0  0  0  0
   -0.0438    1.5428   -3.7778 H   0  0  0  0  0  0  0  0  0  0  0  0
   -0.1357    3.3060   -3.5951 H   0  0  0  0  0  0  0  0  0  0  0  0
    1.3128    2.4358   -3.0480 H   0  0  0  0  0  0  0  0  0  0  0  0
  1  2  1  0  0  0  0
  2  3  1  0  0  0  0
  2  4  1  0  0  0  0
  2  5  1  0  0  0  0
  5  6  2  0  0  0  0
  5  7  1  0  0  0  0
  7  8  1  0  0  0  0
  7  9  1  0  0  0  0
  9 10  1  0  0  0  0
  9 11  1  0  0  0  0
  9 26  1  0  0  0  0
 11 12  1  0  0  0  0
 11 13  1  0  0  0  0
 11 14  1  0  0  0  0
 14 15  1  0  0  0  0
 14 16  1  0  0  0  0
 14 17  1  0  0  0  0
 17 18  1  0  0  0  0
 17 19  1  0  0  0  0
 17 20  1  0  0  0  0
 20 21  1  0  0  0  0
 20 22  1  0  0  0  0
 20 23  1  0  0  0  0
 23 24  1  0  0  0  0
 23 25  1  0  0  0  0
 26 27  2  0  0  0  0
 26 28  1  0  0  0  0
 28 29  1  0  0  0  0
 28 30  1  0  0  0  0
 30 31  1  0  0  0  0
 30 32  1  0  0  0  0
 30 33  1  0  0  0  0
M  END
$$$$

  -OEChem-01062216083D

 33 32  0     1  0  0  0  0  0999 V2000
   -3.9419   -2.4616    0.6048 H   0  0  0  0  0  0  0  0  0  0  0  0
   -3.8102   -1.4315    0.2614 C   0  0  0  0  0  0  0  0  0  0  0  0
   -4.6076   -0.8159    0.6840 H   0  0  0  0  0  0  0  0  0  0  0  0
   -3.8823   -1.4152   -0.8287 H   0  0  0  0  0  0  0  0  0  0  0  0
   -2.4569   -0.9019    0.6994 C   0  0  0  0  0  0  0  0  0  0  0  0
   -1.7572   -1.6184    1.3929 O   0  0  0  0  0  0  0  0  0  0  0  0
   -2.1084    0.3833    0.3131 N   0  0  0  0  0  0  0  0  0  0  0  0
   -2.7822    0.8108   -0.3145 H   0  0  0  0  0  0  0  0  0  0  0  0
   -0.7984    1.0725    0.4123 C   0  0  1  0  0  0  0  0  0  0  0  0
   -1.0192    2.1027    0.7057 H   0  0  0  0  0  0  0  0  0  0  0  0
    0.2213    0.5569    1.4517 C   0  0  0  0  0  0  0  0  0  0  0  0
    0.4306   -0.5049    1.2911 H   0  0  0  0  0  0  0  0  0  0  0  0
    1.1685    1.0860    1.3031 H   0  0  0  0  0  0  0  0  0  0  0  0
   -0.2449    0.8106    2.8934 C   0  0  0  0  0  0  0  0  0  0  0  0
   -0.4056    1.8827    3.0443 H   0  0  0  0  0  0  0  0  0  0  0  0
   -1.1953    0.3008    3.0767 H   0  0  0  0  0  0  0  0  0  0  0  0
    0.8046    0.3073    3.8896 C   0  0  0  0  0  0  0  0  0  0  0  0
    0.9766   -0.7619    3.7270 H   0  0  0  0  0  0  0  0  0  0  0  0
    1.7521    0.8316    3.7272 H   0  0  0  0  0  0  0  0  0  0  0  0
    0.3404    0.5317    5.3252 C   0  0  0  0  0  0  0  0  0  0  0  0
    0.1815    1.6001    5.5081 H   0  0  0  0  0  0  0  0  0  0  0  0
   -0.6093    0.0122    5.4955 H   0  0  0  0  0  0  0  0  0  0  0  0
    1.3666    0.0132    6.2345 N   0  0  0  0  0  0  0  0  0  0  0  0
    1.0800    0.1098    7.2083 H   0  0  0  0  0  0  0  0  0  0  0  0
    1.5869   -0.9588    6.0154 H   0  0  0  0  0  0  0  0  0  0  0  0
   -0.1320    1.1479   -0.9792 C   0  0  0  0  0  0  0  0  0  0  0  0
    0.3115    0.1482   -1.5266 O   0  0  0  0  0  0  0  0  0  0  0  0
   -0.1115    2.3481   -1.6685 N   0  0  0  0  0  0  0  0  0  0  0  0
   -0.4504    3.1754   -1.1876 H   0  0  0  0  0  0  0  0  0  0  0  0
    0.5010    2.5014   -2.9832 C   0  0  0  0  0  0  0  0  0  0  0  0
    0.0273    1.8303   -3.7076 H   0  0  0  0  0  0  0  0  0  0  0  0
    0.3837    3.5298   -3.3383 H   0  0  0  0  0  0  0  0  0  0  0  0
    1.5707    2.2707   -2.9363 H   0  0  0  0  0  0  0  0  0  0  0  0
  1  2  1  0  0  0  0
  2  3  1  0  0  0  0
  2  4  1  0  0  0  0
  2  5  1  0  0  0  0
  5  6  2  0  0  0  0
  5  7  1  0  0  0  0
  7  8  1  0  0  0  0
  7  9  1  0  0  0  0
  9 10  1  0  0  0  0
  9 11  1  0  0  0  0
  9 26  1  0  0  0  0
 11 12  1  0  0  0  0
 11 13  1  0  0  0  0
 11 14  1  0  0  0  0
 14 15  1  0  0  0  0
 14 16  1  0  0  0  0
 14 17  1  0  0  0  0
 17 18  1  0  0  0  0
 17 19  1  0  0  0  0
 17 20  1  0  0  0  0
 20 21  1  0  0  0  0
 20 22  1  0  0  0  0
 20 23  1  0  0  0  0
 23 24  1  0  0  0  0
 23 25  1  0  0  0  0
 26 27  2  0  0  0  0
 26 28  1  0  0  0  0
 28 29  1  0  0  0  0
 28 30  1  0  0  0  0
 30 31  1  0  0  0  0
 30 32  1  0  0  0  0
 30 33  1  0  0  0  0
M  END
$$$$

  -OEChem-01062216083D

 33 32  0     1  0  0  0  0  0999 V2000
   -3.9272   -2.4656    0.5639 H   0  0  0  0  0  0  0  0  0  0  0  0
   -3.7975   -1.4347    0.2221 C   0  0  0  0  0  0  0  0  0  0  0  0
   -4.6189   -0.8286    0.6116 H   0  0  0  0  0  0  0  0  0  0  0  0
   -3.8274   -1.4228   -0.8703 H   0  0  0  0  0  0  0  0  0  0  0  0
   -2.4697   -0.8844    0.7091 C   0  0  0  0  0  0  0  0  0  0  0  0
   -1.7894   -1.5859    1.4371 O   0  0  0  0  0  0  0  0  0  0  0  0
   -2.1197    0.4000    0.3225 N   0  0  0  0  0  0  0  0  0  0  0  0
   -2.7648    0.8015   -0.3513 H   0  0  0  0  0  0  0  0  0  0  0  0
   -0.8047    1.0793    0.4215 C   0  0  1  0  0  0  0  0  0  0  0  0
   -1.0249    2.1094    0.7149 H   0  0  0  0  0  0  0  0  0  0  0  0
    0.2163    0.5607    1.4567 C   0  0  0  0  0  0  0  0  0  0  0  0
    0.4178   -0.5027    1.2955 H   0  0  0  0  0  0  0  0  0  0  0  0
    1.1657    1.0847    1.3048 H   0  0  0  0  0  0  0  0  0  0  0  0
   -0.2430    0.8175    2.9002 C   0  0  0  0  0  0  0  0  0  0  0  0
   -0.3982    1.8907    3.0508 H   0  0  0  0  0  0  0  0  0  0  0  0
   -1.1950    0.3130    3.0893 H   0  0  0  0  0  0  0  0  0  0  0  0
    0.8089    0.3103    3.8918 C   0  0  0  0  0  0  0  0  0  0  0  0
    0.9753   -0.7596    3.7286 H   0  0  0  0  0  0  0  0  0  0  0  0
    1.7576    0.8304    3.7244 H   0  0  0  0  0  0  0  0  0  0  0  0
    0.3543    0.5366    5.3302 C   0  0  0  0  0  0  0  0  0  0  0  0
    0.2016    1.6058    5.5139 H   0  0  0  0  0  0  0  0  0  0  0  0
   -0.5965    0.0213    5.5062 H   0  0  0  0  0  0  0  0  0  0  0  0
    1.3839    0.0135    6.2332 N   0  0  0  0  0  0  0  0  0  0  0  0
    1.1059    0.1160    7.2089 H   0  0  0  0  0  0  0  0  0  0  0  0
    1.5953   -0.9609    6.0163 H   0  0  0  0  0  0  0  0  0  0  0  0
   -0.1339    1.1558   -0.9676 C   0  0  0  0  0  0  0  0  0  0  0  0
    0.0115    0.1527   -1.6529 O   0  0  0  0  0  0  0  0  0  0  0  0
    0.1788    2.3870   -1.5172 N   0  0  0  0  0  0  0  0  0  0  0  0
    0.0770    3.2069   -0.9269 H   0  0  0  0  0  0  0  0  0  0  0  0
    0.7933    2.5403   -2.8310 C   0  0  0  0  0  0  0  0  0  0  0  0
    0.1551    2.1045   -3.6068 H   0  0  0  0  0  0  0  0  0  0  0  0
    0.9383    3.6004   -3.0597 H   0  0  0  0  0  0  0  0  0  0  0  0
    1.7688    2.0433   -2.8574 H   0  0  0  0  0  0  0  0  0  0  0  0
  1  2  1  0  0  0  0
  2  3  1  0  0  0  0
  2  4  1  0  0  0  0
  2  5  1  0  0  0  0
  5  6  2  0  0  0  0
  5  7  1  0  0  0  0
  7  8  1  0  0  0  0
  7  9  1  0  0  0  0
  9 10  1  0  0  0  0
  9 11  1  0  0  0  0
  9 26  1  0  0  0  0
 11 12  1  0  0  0  0
 11 13  1  0  0  0  0
 11 14  1  0  0  0  0
 14 15  1  0  0  0  0
 14 16  1  0  0  0  0
 14 17  1  0  0  0  0
 17 18  1  0  0  0  0
 17 19  1  0  0  0  0
 17 20  1  0  0  0  0
 20 21  1  0  0  0  0
 20 22  1  0  0  0  0
 20 23  1  0  0  0  0
 23 24  1  0  0  0  0
 23 25  1  0  0  0  0
 26 27  2  0  0  0  0
 26 28  1  0  0  0  0
 28 29  1  0  0  0  0
 28 30  1  0  0  0  0
 30 31  1  0  0  0  0
 30 32  1  0  0  0  0
 30 33  1  0  0  0  0
M  END
$$$$

  -OEChem-01062216083D

 33 32  0     1  0  0  0  0  0999 V2000
   -3.9265   -2.4649    0.5386 H   0  0  0  0  0  0  0  0  0  0  0  0
   -3.7933   -1.4337    0.1997 C   0  0  0  0  0  0  0  0  0  0  0  0
   -4.6243   -0.8307    0.5725 H   0  0  0  0  0  0  0  0  0  0  0  0
   -3.8015   -1.4214   -0.8929 H   0  0  0  0  0  0  0  0  0  0  0  0
   -2.4769   -0.8784    0.7122 C   0  0  0  0  0  0  0  0  0  0  0  0
   -1.8050   -1.5778    1.4506 O   0  0  0  0  0  0  0  0  0  0  0  0
   -2.1221    0.4053    0.3287 N   0  0  0  0  0  0  0  0  0  0  0  0
   -2.7451    0.7910   -0.3748 H   0  0  0  0  0  0  0  0  0  0  0  0
   -0.8013    1.0739    0.4250 C   0  0  1  0  0  0  0  0  0  0  0  0
   -1.0182    2.1057    0.7155 H   0  0  0  0  0  0  0  0  0  0  0  0
    0.2182    0.5531    1.4610 C   0  0  0  0  0  0  0  0  0  0  0  0
    0.4119   -0.5125    1.3048 H   0  0  0  0  0  0  0  0  0  0  0  0
    1.1714    1.0695    1.3069 H   0  0  0  0  0  0  0  0  0  0  0  0
   -0.2373    0.8200    2.9042 C   0  0  0  0  0  0  0  0  0  0  0  0
   -0.3853    1.8947    3.0503 H   0  0  0  0  0  0  0  0  0  0  0  0
   -1.1926    0.3233    3.0971 H   0  0  0  0  0  0  0  0  0  0  0  0
    0.8132    0.3101    3.8960 C   0  0  0  0  0  0  0  0  0  0  0  0
    0.9724   -0.7617    3.7372 H   0  0  0  0  0  0  0  0  0  0  0  0
    1.7652    0.8230    3.7246 H   0  0  0  0  0  0  0  0  0  0  0  0
    0.3629    0.5462    5.3340 C   0  0  0  0  0  0  0  0  0  0  0  0
    0.2178    1.6172    5.5133 H   0  0  0  0  0  0  0  0  0  0  0  0
   -0.5910    0.0378    5.5140 H   0  0  0  0  0  0  0  0  0  0  0  0
    1.3913    0.0200    6.2367 N   0  0  0  0  0  0  0  0  0  0  0  0
    1.1152    0.1262    7.2126 H   0  0  0  0  0  0  0  0  0  0  0  0
    1.5964   -0.9563    6.0220 H   0  0  0  0  0  0  0  0  0  0  0  0
   -0.1287    1.1552   -0.9639 C   0  0  0  0  0  0  0  0  0  0  0  0
   -0.2622    0.2542   -1.7820 O   0  0  0  0  0  0  0  0  0  0  0  0
    0.4714    2.3343   -1.3705 N   0  0  0  0  0  0  0  0  0  0  0  0
    0.5906    3.0655   -0.6757 H   0  0  0  0  0  0  0  0  0  0  0  0
    1.0866    2.5059   -2.6820 C   0  0  0  0  0  0  0  0  0  0  0  0
    0.3508    2.3418   -3.4762 H   0  0  0  0  0  0  0  0  0  0  0  0
    1.4828    3.5207   -2.7846 H   0  0  0  0  0  0  0  0  0  0  0  0
    1.9108    1.7971   -2.8139 H   0  0  0  0  0  0  0  0  0  0  0  0
  1  2  1  0  0  0  0
  2  3  1  0  0  0  0
  2  4  1  0  0  0  0
  2  5  1  0  0  0  0
  5  6  2  0  0  0  0
  5  7  1  0  0  0  0
  7  8  1  0  0  0  0
  7  9  1  0  0  0  0
  9 10  1  0  0  0  0
  9 11  1  0  0  0  0
  9 26  1  0  0  0  0
 11 12  1  0  0  0  0
 11 13  1  0  0  0  0
 11 14  1  0  0  0  0
 14 15  1  0  0  0  0
 14 16  1  0  0  0  0
 14 17  1  0  0  0  0
 17 18  1  0  0  0  0
 17 19  1  0  0  0  0
 17 20  1  0  0  0  0
 20 21  1  0  0  0  0
 20 22  1  0  0  0  0
 20 23  1  0  0  0  0
 23 24  1  0  0  0  0
 23 25  1  0  0  0  0
 26 27  2  0  0  0  0
 26 28  1  0  0  0  0
 28 29  1  0  0  0  0
 28 30  1  0  0  0  0
 30 31  1  0  0  0  0
 30 32  1  0  0  0  0
 30 33  1  0  0  0  0
M  END
$$$$

  -OEChem-01062216083D

 33 32  0     1  0  0  0  0  0999 V2000
   -3.9219   -2.4581    0.5394 H   0  0  0  0  0  0  0  0  0  0  0  0
   -3.7866   -1.4261    0.2031 C   0  0  0  0  0  0  0  0  0  0  0  0
   -4.6177   -0.8228    0.5756 H   0  0  0  0  0  0  0  0  0  0  0  0
   -3.7933   -1.4108   -0.8896 H   0  0  0  0  0  0  0  0  0  0  0  0
   -2.4705   -0.8732    0.7189 C   0  0  0  0  0  0  0  0  0  0  0  0
   -1.7970   -1.5764    1.4526 O   0  0  0  0  0  0  0  0  0  0  0  0
   -2.1129    0.4095    0.3365 N   0  0  0  0  0  0  0  0  0  0  0  0
   -2.7226    0.7847   -0.3849 H   0  0  0  0  0  0  0  0  0  0  0  0
   -0.7903    1.0758    0.4270 C   0  0  1  0  0  0  0  0  0  0  0  0
   -1.0021    2.1094    0.7149 H   0  0  0  0  0  0  0  0  0  0  0  0
    0.2270    0.5486    1.4634 C   0  0  0  0  0  0  0  0  0  0  0  0
    0.4148   -0.5180    1.3081 H   0  0  0  0  0  0  0  0  0  0  0  0
    1.1842    1.0584    1.3126 H   0  0  0  0  0  0  0  0  0  0  0  0
   -0.2296    0.8188    2.9055 C   0  0  0  0  0  0  0  0  0  0  0  0
   -0.3731    1.8944    3.0505 H   0  0  0  0  0  0  0  0  0  0  0  0
   -1.1875    0.3266    3.0970 H   0  0  0  0  0  0  0  0  0  0  0  0
    0.8158    0.3042    3.9003 C   0  0  0  0  0  0  0  0  0  0  0  0
    0.9699   -0.7686    3.7435 H   0  0  0  0  0  0  0  0  0  0  0  0
    1.7710    0.8118    3.7317 H   0  0  0  0  0  0  0  0  0  0  0  0
    0.3612    0.5449    5.3363 C   0  0  0  0  0  0  0  0  0  0  0  0
    0.2209    1.6170    5.5133 H   0  0  0  0  0  0  0  0  0  0  0  0
   -0.5961    0.0418    5.5133 H   0  0  0  0  0  0  0  0  0  0  0  0
    1.3824    0.0151    6.2449 N   0  0  0  0  0  0  0  0  0  0  0  0
    1.1074    0.1364    7.2195 H   0  0  0  0  0  0  0  0  0  0  0  0
    1.5743   -0.9663    6.0417 H   0  0  0  0  0  0  0  0  0  0  0  0
   -0.1228    1.1587   -0.9657 C   0  0  0  0  0  0  0  0  0  0  0  0
   -0.4789    0.4250   -1.8802 O   0  0  0  0  0  0  0  0  0  0  0  0
    0.7359    2.2047   -1.2558 N   0  0  0  0  0  0  0  0  0  0  0  0
    1.0262    2.8014   -0.4868 H   0  0  0  0  0  0  0  0  0  0  0  0
    1.3628    2.3861   -2.5601 C   0  0  0  0  0  0  0  0  0  0  0  0
    0.6022    2.4908   -3.3410 H   0  0  0  0  0  0  0  0  0  0  0  0
    1.9824    3.2881   -2.5603 H   0  0  0  0  0  0  0  0  0  0  0  0
    1.9992    1.5281   -2.8011 H   0  0  0  0  0  0  0  0  0  0  0  0
  1  2  1  0  0  0  0
  2  3  1  0  0  0  0
  2  4  1  0  0  0  0
  2  5  1  0  0  0  0
  5  6  2  0  0  0  0
  5  7  1  0  0  0  0
  7  8  1  0  0  0  0
  7  9  1  0  0  0  0
  9 10  1  0  0  0  0
  9 11  1  0  0  0  0
  9 26  1  0  0  0  0
 11 12  1  0  0  0  0
 11 13  1  0  0  0  0
 11 14  1  0  0  0  0
 14 15  1  0  0  0  0
 14 16  1  0  0  0  0
 14 17  1  0  0  0  0
 17 18  1  0  0  0  0
 17 19  1  0  0  0  0
 17 20  1  0  0  0  0
 20 21  1  0  0  0  0
 20 22  1  0  0  0  0
 20 23  1  0  0  0  0
 23 24  1  0  0  0  0
 23 25  1  0  0  0  0
 26 27  2  0  0  0  0
 26 28  1  0  0  0  0
 28 29  1  0  0  0  0
 28 30  1  0  0  0  0
 30 31  1  0  0  0  0
 30 32  1  0  0  0  0
 30 33  1  0  0  0  0
M  END
$$$$

  -OEChem-01062216083D

 33 32  0     1  0  0  0  0  0999 V2000
   -3.9135   -2.4472    0.5430 H   0  0  0  0  0  0  0  0  0  0  0  0
   -3.7745   -1.4149    0.2095 C   0  0  0  0  0  0  0  0  0  0  0  0
   -4.5999   -0.8080    0.5887 H   0  0  0  0  0  0  0  0  0  0  0  0
   -3.7867   -1.3953   -0.8831 H   0  0  0  0  0  0  0  0  0  0  0  0
   -2.4533   -0.8710    0.7203 C   0  0  0  0  0  0  0  0  0  0  0  0
   -1.7744   -1.5844    1.4391 O   0  0  0  0  0  0  0  0  0  0  0  0
   -2.0932    0.4126    0.3440 N   0  0  0  0  0  0  0  0  0  0  0  0
   -2.6982    0.7887   -0.3819 H   0  0  0  0  0  0  0  0  0  0  0  0
   -0.7712    1.0804    0.4332 C   0  0  1  0  0  0  0  0  0  0  0  0
   -0.9789    2.1149    0.7220 H   0  0  0  0  0  0  0  0  0  0  0  0
    0.2402    0.5461    1.4741 C   0  0  0  0  0  0  0  0  0  0  0  0
    0.4268   -0.5202    1.3176 H   0  0  0  0  0  0  0  0  0  0  0  0
    1.2004    1.0521    1.3356 H   0  0  0  0  0  0  0  0  0  0  0  0
   -0.2249    0.8165    2.9134 C   0  0  0  0  0  0  0  0  0  0  0  0
   -0.3647    1.8927    3.0589 H   0  0  0  0  0  0  0  0  0  0  0  0
   -1.1864    0.3281    3.0979 H   0  0  0  0  0  0  0  0  0  0  0  0
    0.8117    0.2965    3.9144 C   0  0  0  0  0  0  0  0  0  0  0  0
    0.9623   -0.7767    3.7571 H   0  0  0  0  0  0  0  0  0  0  0  0
    1.7699    0.8009    3.7525 H   0  0  0  0  0  0  0  0  0  0  0  0
    0.3488    0.5373    5.3475 C   0  0  0  0  0  0  0  0  0  0  0  0
    0.2119    1.6096    5.5249 H   0  0  0  0  0  0  0  0  0  0  0  0
   -0.6119    0.0384    5.5177 H   0  0  0  0  0  0  0  0  0  0  0  0
    1.3622    0.0023    6.2616 N   0  0  0  0  0  0  0  0  0  0  0  0
    1.0799    0.1204    7.2344 H   0  0  0  0  0  0  0  0  0  0  0  0
    1.5541   -0.9786    6.0562 H   0  0  0  0  0  0  0  0  0  0  0  0
   -0.1132    1.1668   -0.9660 C   0  0  0  0  0  0  0  0  0  0  0  0
   -0.6407    0.6395   -1.9393 O   0  0  0  0  0  0  0  0  0  0  0  0
    0.9641    2.0096   -1.1790 N   0  0  0  0  0  0  0  0  0  0  0  0
    1.3939    2.4369   -0.3639 H   0  0  0  0  0  0  0  0  0  0  0  0
    1.5966    2.1898   -2.4809 C   0  0  0  0  0  0  0  0  0  0  0  0
    0.8701    2.5557   -3.2143 H   0  0  0  0  0  0  0  0  0  0  0  0
    2.4090    2.9193   -2.4090 H   0  0  0  0  0  0  0  0  0  0  0  0
    2.0124    1.2422   -2.8392 H   0  0  0  0  0  0  0  0  0  0  0  0
  1  2  1  0  0  0  0
  2  3  1  0  0  0  0
  2  4  1  0  0  0  0
  2  5  1  0  0  0  0
  5  6  2  0  0  0  0
  5  7  1  0  0  0  0
  7  8  1  0  0  0  0
  7  9  1  0  0  0  0
  9 10  1  0  0  0  0
  9 11  1  0  0  0  0
  9 26  1  0  0  0  0
 11 12  1  0  0  0  0
 11 13  1  0  0  0  0
 11 14  1  0  0  0  0
 14 15  1  0  0  0  0
 14 16  1  0  0  0  0
 14 17  1  0  0  0  0
 17 18  1  0  0  0  0
 17 19  1  0  0  0  0
 17 20  1  0  0  0  0
 20 21  1  0  0  0  0
 20 22  1  0  0  0  0
 20 23  1  0  0  0  0
 23 24  1  0  0  0  0
 23 25  1  0  0  0  0
 26 27  2  0  0  0  0
 26 28  1  0  0  0  0
 28 29  1  0  0  0  0
 28 30  1  0  0  0  0
 30 31  1  0  0  0  0
 30 32  1  0  0  0  0
 30 33  1  0  0  0  0
M  END
$$$$

  -OEChem-01062216083D

 33 32  0     1  0  0  0  0  0999 V2000
   -4.0789   -2.3307    0.5880 H   0  0  0  0  0  0  0  0  0  0  0  0
   -3.8842   -1.3018    0.2721 C   0  0  0  0  0  0  0  0  0  0  0  0
   -4.5996   -0.6409    0.7672 H   0  0  0  0  0  0  0  0  0  0  0  0
   -4.0234   -1.2340   -0.8098 H   0  0  0  0  0  0  0  0  0  0  0  0
   -2.4673   -0.8982    0.6363 C   0  0  0  0  0  0  0  0  0  0  0  0
   -1.7438   -1.7340    1.1500 O   0  0  0  0  0  0  0  0  0  0  0  0
   -2.0553    0.3814    0.3046 N   0  0  0  0  0  0  0  0  0  0  0  0
   -2.7028    0.8620   -0.3176 H   0  0  0  0  0  0  0  0  0  0  0  0
   -0.7213    1.0247    0.3914 C   0  0  1  0  0  0  0  0  0  0  0  0
   -0.8854    1.9591    0.9360 H   0  0  0  0  0  0  0  0  0  0  0  0
    0.3979    0.2969    1.1768 C   0  0  0  0  0  0  0  0  0  0  0  0
    0.5317   -0.7138    0.7783 H   0  0  0  0  0  0  0  0  0  0  0  0
    1.3467    0.8216    1.0351 H   0  0  0  0  0  0  0  0  0  0  0  0
    0.1205    0.2446    2.6905 C   0  0  0  0  0  0  0  0  0  0  0  0
    0.0252    1.2647    3.0761 H   0  0  0  0  0  0  0  0  0  0  0  0
   -0.8179   -0.2720    2.9032 H   0  0  0  0  0  0  0  0  0  0  0  0
    1.2697   -0.4634    3.4159 C   0  0  0  0  0  0  0  0  0  0  0  0
    1.3849   -1.4754    3.0136 H   0  0  0  0  0  0  0  0  0  0  0  0
    2.2064    0.0773    3.2463 H   0  0  0  0  0  0  0  0  0  0  0  0
    0.9956   -0.5439    4.9143 C   0  0  0  0  0  0  0  0  0  0  0  0
    0.8964    0.4632    5.3341 H   0  0  0  0  0  0  0  0  0  0  0  0
    0.0581   -1.0822    5.0937 H   0  0  0  0  0  0  0  0  0  0  0  0
    2.1098   -1.2480    5.5557 N   0  0  0  0  0  0  0  0  0  0  0  0
    1.9600   -1.3357    6.5606 H   0  0  0  0  0  0  0  0  0  0  0  0
    2.2531   -2.1638    5.1295 H   0  0  0  0  0  0  0  0  0  0  0  0
   -0.2620    1.4767   -1.0179 C   0  0  0  0  0  0  0  0  0  0  0  0
   -1.0391    1.4173   -1.9653 O   0  0  0  0  0  0  0  0  0  0  0  0
    0.9558    2.1064   -1.2083 N   0  0  0  0  0  0  0  0  0  0  0  0
    1.5931    2.1446   -0.4184 H   0  0  0  0  0  0  0  0  0  0  0  0
    1.4150    2.5895   -2.5055 C   0  0  0  0  0  0  0  0  0  0  0  0
    0.7074    3.3166   -2.9180 H   0  0  0  0  0  0  0  0  0  0  0  0
    2.3891    3.0775   -2.4045 H   0  0  0  0  0  0  0  0  0  0  0  0
    1.5156    1.7571   -3.2100 H   0  0  0  0  0  0  0  0  0  0  0  0
  1  2  1  0  0  0  0
  2  3  1  0  0  0  0
  2  4  1  0  0  0  0
  2  5  1  0  0  0  0
  5  6  2  0  0  0  0
  5  7  1  0  0  0  0
  7  8  1  0  0  0  0
  7  9  1  0  0  0  0
  9 10  1  0  0  0  0
  9 11  1  0  0  0  0
  9 26  1  0  0  0  0
 11 12  1  0  0  0  0
 11 13  1  0  0  0  0
 11 14  1  0  0  0  0
 14 15  1  0  0  0  0
 14 16  1  0  0  0  0
 14 17  1  0  0  0  0
 17 18  1  0  0  0  0
 17 19  1  0  0  0  0
 17 20  1  0  0  0  0
 20 21  1  0  0  0  0
 20 22  1  0  0  0  0
 20 23  1  0  0  0  0
 23 24  1  0  0  0  0
 23 25  1  0  0  0  0
 26 27  2  0  0  0  0
 26 28  1  0  0  0  0
 28 29  1  0  0  0  0
 28 30  1  0  0  0  0
 30 31  1  0  0  0  0
 30 32  1  0  0  0  0
 30 33  1  0  0  0  0
M  END
$$$$

  -OEChem-01062216083D

 33 32  0     1  0  0  0  0  0999 V2000
   -4.0598   -2.3204    0.5912 H   0  0  0  0  0  0  0  0  0  0  0  0
   -3.8638   -1.2913    0.2779 C   0  0  0  0  0  0  0  0  0  0  0  0
   -4.5672   -0.6287    0.7878 H   0  0  0  0  0  0  0  0  0  0  0  0
   -4.0195   -1.2173   -0.8012 H   0  0  0  0  0  0  0  0  0  0  0  0
   -2.4384   -0.8991    0.6219 C   0  0  0  0  0  0  0  0  0  0  0  0
   -1.7075   -1.7453    1.1080 O   0  0  0  0  0  0  0  0  0  0  0  0
   -2.0248    0.3833    0.3035 N   0  0  0  0  0  0  0  0  0  0  0  0
   -2.6827    0.8857   -0.2905 H   0  0  0  0  0  0  0  0  0  0  0  0
   -0.6933    1.0295    0.4020 C   0  0  1  0  0  0  0  0  0  0  0  0
   -0.8583    1.9622    0.9494 H   0  0  0  0  0  0  0  0  0  0  0  0
    0.4185    0.2961    1.1941 C   0  0  0  0  0  0  0  0  0  0  0  0
    0.5613   -0.7117    0.7917 H   0  0  0  0  0  0  0  0  0  0  0  0
    1.3669    0.8262    1.0725 H   0  0  0  0  0  0  0  0  0  0  0  0
    0.1230    0.2377    2.7039 C   0  0  0  0  0  0  0  0  0  0  0  0
    0.0228    1.2558    3.0935 H   0  0  0  0  0  0  0  0  0  0  0  0
   -0.8181   -0.2806    2.9007 H   0  0  0  0  0  0  0  0  0  0  0  0
    1.2626   -0.4748    3.4397 C   0  0  0  0  0  0  0  0  0  0  0  0
    1.3811   -1.4850    3.0344 H   0  0  0  0  0  0  0  0  0  0  0  0
    2.2016    0.0659    3.2832 H   0  0  0  0  0  0  0  0  0  0  0  0
    0.9717   -0.5620    4.9345 C   0  0  0  0  0  0  0  0  0  0  0  0
    0.8692    0.4435    5.3575 H   0  0  0  0  0  0  0  0  0  0  0  0
    0.0315   -1.0996    5.1014 H   0  0  0  0  0  0  0  0  0  0  0  0
    2.0780   -1.2706    5.5849 N   0  0  0  0  0  0  0  0  0  0  0  0
    1.9209   -1.3557    6.5889 H   0  0  0  0  0  0  0  0  0  0  0  0
    2.2195   -2.1880    5.1613 H   0  0  0  0  0  0  0  0  0  0  0  0
   -0.2431    1.4879   -1.0093 C   0  0  0  0  0  0  0  0  0  0  0  0
   -1.0843    1.6489   -1.8881 O   0  0  0  0  0  0  0  0  0  0  0  0
    1.0667    1.8419   -1.2844 N   0  0  0  0  0  0  0  0  0  0  0  0
    1.7588    1.6737   -0.5604 H   0  0  0  0  0  0  0  0  0  0  0  0
    1.5193    2.2853   -2.5981 C   0  0  0  0  0  0  0  0  0  0  0  0
    0.9659    3.1753   -2.9160 H   0  0  0  0  0  0  0  0  0  0  0  0
    2.5838    2.5363   -2.5662 H   0  0  0  0  0  0  0  0  0  0  0  0
    1.3716    1.4944   -3.3409 H   0  0  0  0  0  0  0  0  0  0  0  0
  1  2  1  0  0  0  0
  2  3  1  0  0  0  0
  2  4  1  0  0  0  0
  2  5  1  0  0  0  0
  5  6  2  0  0  0  0
  5  7  1  0  0  0  0
  7  8  1  0  0  0  0
  7  9  1  0  0  0  0
  9 10  1  0  0  0  0
  9 11  1  0  0  0  0
  9 26  1  0  0  0  0
 11 12  1  0  0  0  0
 11 13  1  0  0  0  0
 11 14  1  0  0  0  0
 14 15  1  0  0  0  0
 14 16  1  0  0  0  0
 14 17  1  0  0  0  0
 17 18  1  0  0  0  0
 17 19  1  0  0  0  0
 17 20  1  0  0  0  0
 20 21  1  0  0  0  0
 20 22  1  0  0  0  0
 20 23  1  0  0  0  0
 23 24  1  0  0  0  0
 23 25  1  0  0  0  0
 26 27  2  0  0  0  0
 26 28  1  0  0  0  0
 28 29  1  0  0  0  0
 28 30  1  0  0  0  0
 30 31  1  0  0  0  0
 30 32  1  0  0  0  0
 30 33  1  0  0  0  0
M  END
$$$$

  -OEChem-01062216083D

 33 32  0     1  0  0  0  0  0999 V2000
   -4.0489   -2.3112    0.6106 H   0  0  0  0  0  0  0  0  0  0  0  0
   -3.8522   -1.2832    0.2935 C   0  0  0  0  0  0  0  0  0  0  0  0
   -4.5383   -0.6159    0.8204 H   0  0  0  0  0  0  0  0  0  0  0  0
   -4.0325   -1.2061   -0.7815 H   0  0  0  0  0  0  0  0  0  0  0  0
   -2.4164   -0.9025    0.6050 C   0  0  0  0  0  0  0  0  0  0  0  0
   -1.6761   -1.7581    1.0596 O   0  0  0  0  0  0  0  0  0  0  0  0
   -2.0015    0.3809    0.2930 N   0  0  0  0  0  0  0  0  0  0  0  0
   -2.6755    0.9102   -0.2579 H   0  0  0  0  0  0  0  0  0  0  0  0
   -0.6722    1.0275    0.4049 C   0  0  1  0  0  0  0  0  0  0  0  0
   -0.8396    1.9606    0.9511 H   0  0  0  0  0  0  0  0  0  0  0  0
    0.4331    0.2940    1.2051 C   0  0  0  0  0  0  0  0  0  0  0  0
    0.5854   -0.7116    0.8007 H   0  0  0  0  0  0  0  0  0  0  0  0
    1.3790    0.8322    1.0966 H   0  0  0  0  0  0  0  0  0  0  0  0
    0.1223    0.2324    2.7112 C   0  0  0  0  0  0  0  0  0  0  0  0
    0.0148    1.2496    3.1017 H   0  0  0  0  0  0  0  0  0  0  0  0
   -0.8194   -0.2904    2.8950 H   0  0  0  0  0  0  0  0  0  0  0  0
    1.2555   -0.4799    3.4574 C   0  0  0  0  0  0  0  0  0  0  0  0
    1.3796   -1.4893    3.0513 H   0  0  0  0  0  0  0  0  0  0  0  0
    2.1954    0.0626    3.3114 H   0  0  0  0  0  0  0  0  0  0  0  0
    0.9504   -0.5707    4.9492 C   0  0  0  0  0  0  0  0  0  0  0  0
    0.8429    0.4335    5.3738 H   0  0  0  0  0  0  0  0  0  0  0  0
    0.0095   -1.1096    5.1066 H   0  0  0  0  0  0  0  0  0  0  0  0
    2.0524   -1.2792    5.6066 N   0  0  0  0  0  0  0  0  0  0  0  0
    1.8867   -1.3698    6.6088 H   0  0  0  0  0  0  0  0  0  0  0  0
    2.2019   -2.1937    5.1796 H   0  0  0  0  0  0  0  0  0  0  0  0
   -0.2208    1.4845   -1.0053 C   0  0  0  0  0  0  0  0  0  0  0  0
   -1.0701    1.8591   -1.8075 O   0  0  0  0  0  0  0  0  0  0  0  0
    1.1116    1.5517   -1.3752 N   0  0  0  0  0  0  0  0  0  0  0  0
    1.7953    1.1737   -0.7260 H   0  0  0  0  0  0  0  0  0  0  0  0
    1.5565    1.9597   -2.7027 C   0  0  0  0  0  0  0  0  0  0  0  0
    1.1808    2.9597   -2.9437 H   0  0  0  0  0  0  0  0  0  0  0  0
    2.6497    1.9846   -2.7439 H   0  0  0  0  0  0  0  0  0  0  0  0
    1.1965    1.2558   -3.4602 H   0  0  0  0  0  0  0  0  0  0  0  0
  1  2  1  0  0  0  0
  2  3  1  0  0  0  0
  2  4  1  0  0  0  0
  2  5  1  0  0  0  0
  5  6  2  0  0  0  0
  5  7  1  0  0  0  0
  7  8  1  0  0  0  0
  7  9  1  0  0  0  0
  9 10  1  0  0  0  0
  9 11  1  0  0  0  0
  9 26  1  0  0  0  0
 11 12  1  0  0  0  0
 11 13  1  0  0  0  0
 11 14  1  0  0  0  0
 14 15  1  0  0  0  0
 14 16  1  0  0  0  0
 14 17  1  0  0  0  0
 17 18  1  0  0  0  0
 17 19  1  0  0  0  0
 17 20  1  0  0  0  0
 20 21  1  0  0  0  0
 20 22  1  0  0  0  0
 20 23  1  0  0  0  0
 23 24  1  0  0  0  0
 23 25  1  0  0  0  0
 26 27  2  0  0  0  0
 26 28  1  0  0  0  0
 28 29  1  0  0  0  0
 28 30  1  0  0  0  0
 30 31  1  0  0  0  0
 30 32  1  0  0  0  0
 30 33  1  0  0  0  0
M  END
$$$$

  -OEChem-01062216083D

 33 32  0     1  0  0  0  0  0999 V2000
   -4.0399   -2.3048    0.6240 H   0  0  0  0  0  0  0  0  0  0  0  0
   -3.8461   -1.2760    0.3078 C   0  0  0  0  0  0  0  0  0  0  0  0
   -4.5167   -0.6086    0.8543 H   0  0  0  0  0  0  0  0  0  0  0  0
   -4.0516   -1.1920   -0.7622 H   0  0  0  0  0  0  0  0  0  0  0  0
   -2.4020   -0.9033    0.5877 C   0  0  0  0  0  0  0  0  0  0  0  0
   -1.6516   -1.7650    1.0130 O   0  0  0  0  0  0  0  0  0  0  0  0
   -1.9884    0.3807    0.2783 N   0  0  0  0  0  0  0  0  0  0  0  0
   -2.6777    0.9311   -0.2309 H   0  0  0  0  0  0  0  0  0  0  0  0
   -0.6629    1.0296    0.4062 C   0  0  1  0  0  0  0  0  0  0  0  0
   -0.8360    1.9629    0.9510 H   0  0  0  0  0  0  0  0  0  0  0  0
    0.4405    0.3000    1.2114 C   0  0  0  0  0  0  0  0  0  0  0  0
    0.6041   -0.7030    0.8054 H   0  0  0  0  0  0  0  0  0  0  0  0
    1.3816    0.8493    1.1076 H   0  0  0  0  0  0  0  0  0  0  0  0
    0.1197    0.2294    2.7144 C   0  0  0  0  0  0  0  0  0  0  0  0
    0.0012    1.2436    3.1094 H   0  0  0  0  0  0  0  0  0  0  0  0
   -0.8193   -0.3023    2.8868 H   0  0  0  0  0  0  0  0  0  0  0  0
    1.2525   -0.4790    3.4650 C   0  0  0  0  0  0  0  0  0  0  0  0
    1.3869   -1.4854    3.0551 H   0  0  0  0  0  0  0  0  0  0  0  0
    2.1895    0.0707    3.3283 H   0  0  0  0  0  0  0  0  0  0  0  0
    0.9379   -0.5790    4.9542 C   0  0  0  0  0  0  0  0  0  0  0  0
    0.8205    0.4226    5.3826 H   0  0  0  0  0  0  0  0  0  0  0  0
   -0.0005   -1.1250    5.1025 H   0  0  0  0  0  0  0  0  0  0  0  0
    2.0399   -1.2833    5.6163 N   0  0  0  0  0  0  0  0  0  0  0  0
    1.8709   -1.3738    6.6179 H   0  0  0  0  0  0  0  0  0  0  0  0
    2.1945   -2.1975    5.1904 H   0  0  0  0  0  0  0  0  0  0  0  0
   -0.2031    1.4811   -1.0003 C   0  0  0  0  0  0  0  0  0  0  0  0
   -1.0097    2.0475   -1.7296 O   0  0  0  0  0  0  0  0  0  0  0  0
    1.0832    1.2684   -1.4650 N   0  0  0  0  0  0  0  0  0  0  0  0
    1.6984    0.7061   -0.8838 H   0  0  0  0  0  0  0  0  0  0  0  0
    1.5176    1.6203   -2.8114 C   0  0  0  0  0  0  0  0  0  0  0  0
    1.3683    2.6895   -2.9955 H   0  0  0  0  0  0  0  0  0  0  0  0
    2.5812    1.3952   -2.9360 H   0  0  0  0  0  0  0  0  0  0  0  0
    0.9525    1.0516   -3.5571 H   0  0  0  0  0  0  0  0  0  0  0  0
  1  2  1  0  0  0  0
  2  3  1  0  0  0  0
  2  4  1  0  0  0  0
  2  5  1  0  0  0  0
  5  6  2  0  0  0  0
  5  7  1  0  0  0  0
  7  8  1  0  0  0  0
  7  9  1  0  0  0  0
  9 10  1  0  0  0  0
  9 11  1  0  0  0  0
  9 26  1  0  0  0  0
 11 12  1  0  0  0  0
 11 13  1  0  0  0  0
 11 14  1  0  0  0  0
 14 15  1  0  0  0  0
 14 16  1  0  0  0  0
 14 17  1  0  0  0  0
 17 18  1  0  0  0  0
 17 19  1  0  0  0  0
 17 20  1  0  0  0  0
 20 21  1  0  0  0  0
 20 22  1  0  0  0  0
 20 23  1  0  0  0  0
 23 24  1  0  0  0  0
 23 25  1  0  0  0  0
 26 27  2  0  0  0  0
 26 28  1  0  0  0  0
 28 29  1  0  0  0  0
 28 30  1  0  0  0  0
 30 31  1  0  0  0  0
 30 32  1  0  0  0  0
 30 33  1  0  0  0  0
M  END
$$$$

  -OEChem-01062216083D

 33 32  0     1  0  0  0  0  0999 V2000
   -4.0406   -2.2983    0.6679 H   0  0  0  0  0  0  0  0  0  0  0  0
   -3.8490   -1.2724    0.3407 C   0  0  0  0  0  0  0  0  0  0  0  0
   -4.4976   -0.5976    0.9043 H   0  0  0  0  0  0  0  0  0  0  0  0
   -4.0869   -1.1926   -0.7229 H   0  0  0  0  0  0  0  0  0  0  0  0
   -2.3942   -0.9096    0.5751 C   0  0  0  0  0  0  0  0  0  0  0  0
   -1.6340   -1.7779    0.9686 O   0  0  0  0  0  0  0  0  0  0  0  0
   -1.9809    0.3738    0.2625 N   0  0  0  0  0  0  0  0  0  0  0  0
   -2.6891    0.9448   -0.1950 H   0  0  0  0  0  0  0  0  0  0  0  0
   -0.6570    1.0238    0.3977 C   0  0  1  0  0  0  0  0  0  0  0  0
   -0.8338    1.9579    0.9405 H   0  0  0  0  0  0  0  0  0  0  0  0
    0.4453    0.2975    1.2061 C   0  0  0  0  0  0  0  0  0  0  0  0
    0.6129   -0.7061    0.8036 H   0  0  0  0  0  0  0  0  0  0  0  0
    1.3845    0.8504    1.0987 H   0  0  0  0  0  0  0  0  0  0  0  0
    0.1181    0.2257    2.7071 C   0  0  0  0  0  0  0  0  0  0  0  0
   -0.0061    1.2391    3.1021 H   0  0  0  0  0  0  0  0  0  0  0  0
   -0.8198   -0.3100    2.8737 H   0  0  0  0  0  0  0  0  0  0  0  0
    1.2489   -0.4790    3.4632 C   0  0  0  0  0  0  0  0  0  0  0  0
    1.3880   -1.4853    3.0545 H   0  0  0  0  0  0  0  0  0  0  0  0
    2.1852    0.0729    3.3306 H   0  0  0  0  0  0  0  0  0  0  0  0
    0.9267   -0.5793    4.9506 C   0  0  0  0  0  0  0  0  0  0  0  0
    0.8047    0.4223    5.3774 H   0  0  0  0  0  0  0  0  0  0  0  0
   -0.0111   -1.1274    5.0943 H   0  0  0  0  0  0  0  0  0  0  0  0
    2.0268   -1.2801    5.6195 N   0  0  0  0  0  0  0  0  0  0  0  0
    1.8518   -1.3714    6.6200 H   0  0  0  0  0  0  0  0  0  0  0  0
    2.1878   -2.1934    5.1944 H   0  0  0  0  0  0  0  0  0  0  0  0
   -0.1840    1.4696   -1.0029 C   0  0  0  0  0  0  0  0  0  0  0  0
   -0.8997    2.2218   -1.6535 O   0  0  0  0  0  0  0  0  0  0  0  0
    0.9880    0.9983   -1.5673 N   0  0  0  0  0  0  0  0  0  0  0  0
    1.4923    0.2815   -1.0529 H   0  0  0  0  0  0  0  0  0  0  0  0
    1.4079    1.3167   -2.9263 C   0  0  0  0  0  0  0  0  0  0  0  0
    1.4797    2.4012   -3.0616 H   0  0  0  0  0  0  0  0  0  0  0  0
    2.3899    0.8792   -3.1304 H   0  0  0  0  0  0  0  0  0  0  0  0
    0.6919    0.9177   -3.6524 H   0  0  0  0  0  0  0  0  0  0  0  0
  1  2  1  0  0  0  0
  2  3  1  0  0  0  0
  2  4  1  0  0  0  0
  2  5  1  0  0  0  0
  5  6  2  0  0  0  0
  5  7  1  0  0  0  0
  7  8  1  0  0  0  0
  7  9  1  0  0  0  0
  9 10  1  0  0  0  0
  9 11  1  0  0  0  0
  9 26  1  0  0  0  0
 11 12  1  0  0  0  0
 11 13  1  0  0  0  0
 11 14  1  0  0  0  0
 14 15  1  0  0  0  0
 14 16  1  0  0  0  0
 14 17  1  0  0  0  0
 17 18  1  0  0  0  0
 17 19  1  0  0  0  0
 17 20  1  0  0  0  0
 20 21  1  0  0  0  0
 20 22  1  0  0  0  0
 20 23  1  0  0  0  0
 23 24  1  0  0  0  0
 23 25  1  0  0  0  0
 26 27  2  0  0  0  0
 26 28  1  0  0  0  0
 28 29  1  0  0  0  0
 28 30  1  0  0  0  0
 30 31  1  0  0  0  0
 30 32  1  0  0  0  0
 30 33  1  0  0  0  0
M  END
$$$$

  -OEChem-01062216083D

 33 32  0     1  0  0  0  0  0999 V2000
   -4.0440   -2.2919    0.7195 H   0  0  0  0  0  0  0  0  0  0  0  0
   -3.8551   -1.2692    0.3811 C   0  0  0  0  0  0  0  0  0  0  0  0
   -4.4796   -0.5868    0.9627 H   0  0  0  0  0  0  0  0  0  0  0  0
   -4.1273   -1.1920   -0.6744 H   0  0  0  0  0  0  0  0  0  0  0  0
   -2.3909   -0.9161    0.5656 C   0  0  0  0  0  0  0  0  0  0  0  0
   -1.6204   -1.7892    0.9264 O   0  0  0  0  0  0  0  0  0  0  0  0
   -1.9811    0.3657    0.2435 N   0  0  0  0  0  0  0  0  0  0  0  0
   -2.7079    0.9522   -0.1612 H   0  0  0  0  0  0  0  0  0  0  0  0
   -0.6602    1.0192    0.3856 C   0  0  1  0  0  0  0  0  0  0  0  0
   -0.8425    1.9543    0.9251 H   0  0  0  0  0  0  0  0  0  0  0  0
    0.4436    0.2983    1.1958 C   0  0  0  0  0  0  0  0  0  0  0  0
    0.6193   -0.7043    0.7948 H   0  0  0  0  0  0  0  0  0  0  0  0
    1.3790    0.8577    1.0861 H   0  0  0  0  0  0  0  0  0  0  0  0
    0.1138    0.2220    2.6955 C   0  0  0  0  0  0  0  0  0  0  0  0
   -0.0195    1.2339    3.0912 H   0  0  0  0  0  0  0  0  0  0  0  0
   -0.8208   -0.3214    2.8568 H   0  0  0  0  0  0  0  0  0  0  0  0
    1.2467   -0.4776    3.4544 C   0  0  0  0  0  0  0  0  0  0  0  0
    1.3947   -1.4820    3.0446 H   0  0  0  0  0  0  0  0  0  0  0  0
    2.1794    0.0816    3.3260 H   0  0  0  0  0  0  0  0  0  0  0  0
    0.9201   -0.5817    4.9410 C   0  0  0  0  0  0  0  0  0  0  0  0
    0.7918    0.4190    5.3681 H   0  0  0  0  0  0  0  0  0  0  0  0
   -0.0157   -1.1344    5.0809 H   0  0  0  0  0  0  0  0  0  0  0  0
    2.0203   -1.2771    5.6158 N   0  0  0  0  0  0  0  0  0  0  0  0
    1.8438   -1.3629    6.6166 H   0  0  0  0  0  0  0  0  0  0  0  0
    2.1831   -2.1928    5.1965 H   0  0  0  0  0  0  0  0  0  0  0  0
   -0.1713    1.4535   -1.0108 C   0  0  0  0  0  0  0  0  0  0  0  0
   -0.7444    2.3753   -1.5778 O   0  0  0  0  0  0  0  0  0  0  0  0
    0.8258    0.7624   -1.6753 N   0  0  0  0  0  0  0  0  0  0  0  0
    1.1812   -0.0779   -1.2269 H   0  0  0  0  0  0  0  0  0  0  0  0
    1.2321    1.0583   -3.0433 C   0  0  0  0  0  0  0  0  0  0  0  0
    1.5409    2.1051   -3.1334 H   0  0  0  0  0  0  0  0  0  0  0  0
    2.0763    0.4249   -3.3323 H   0  0  0  0  0  0  0  0  0  0  0  0
    0.4053    0.8735   -3.7371 H   0  0  0  0  0  0  0  0  0  0  0  0
  1  2  1  0  0  0  0
  2  3  1  0  0  0  0
  2  4  1  0  0  0  0
  2  5  1  0  0  0  0
  5  6  2  0  0  0  0
  5  7  1  0  0  0  0
  7  8  1  0  0  0  0
  7  9  1  0  0  0  0
  9 10  1  0  0  0  0
  9 11  1  0  0  0  0
  9 26  1  0  0  0  0
 11 12  1  0  0  0  0
 11 13  1  0  0  0  0
 11 14  1  0  0  0  0
 14 15  1  0  0  0  0
 14 16  1  0  0  0  0
 14 17  1  0  0  0  0
 17 18  1  0  0  0  0
 17 19  1  0  0  0  0
 17 20  1  0  0  0  0
 20 21  1  0  0  0  0
 20 22  1  0  0  0  0
 20 23  1  0  0  0  0
 23 24  1  0  0  0  0
 23 25  1  0  0  0  0
 26 27  2  0  0  0  0
 26 28  1  0  0  0  0
 28 29  1  0  0  0  0
 28 30  1  0  0  0  0
 30 31  1  0  0  0  0
 30 32  1  0  0  0  0
 30 33  1  0  0  0  0
M  END
$$$$

  -OEChem-01062216083D

 33 32  0     1  0  0  0  0  0999 V2000
   -4.0367   -2.2960    0.7753 H   0  0  0  0  0  0  0  0  0  0  0  0
   -3.8612   -1.2726    0.4314 C   0  0  0  0  0  0  0  0  0  0  0  0
   -4.4643   -0.5915    1.0368 H   0  0  0  0  0  0  0  0  0  0  0  0
   -4.1716   -1.1942   -0.6134 H   0  0  0  0  0  0  0  0  0  0  0  0
   -2.3910   -0.9203    0.5615 C   0  0  0  0  0  0  0  0  0  0  0  0
   -1.6060   -1.7970    0.8793 O   0  0  0  0  0  0  0  0  0  0  0  0
   -1.9887    0.3605    0.2263 N   0  0  0  0  0  0  0  0  0  0  0  0
   -2.7344    0.9589   -0.1216 H   0  0  0  0  0  0  0  0  0  0  0  0
   -0.6702    1.0192    0.3719 C   0  0  1  0  0  0  0  0  0  0  0  0
   -0.8558    1.9555    0.9083 H   0  0  0  0  0  0  0  0  0  0  0  0
    0.4365    0.3029    1.1807 C   0  0  0  0  0  0  0  0  0  0  0  0
    0.6197   -0.6976    0.7782 H   0  0  0  0  0  0  0  0  0  0  0  0
    1.3688    0.8671    1.0698 H   0  0  0  0  0  0  0  0  0  0  0  0
    0.1063    0.2214    2.6800 C   0  0  0  0  0  0  0  0  0  0  0  0
   -0.0329    1.2316    3.0786 H   0  0  0  0  0  0  0  0  0  0  0  0
   -0.8247   -0.3288    2.8385 H   0  0  0  0  0  0  0  0  0  0  0  0
    1.2421   -0.4736    3.4385 C   0  0  0  0  0  0  0  0  0  0  0  0
    1.3960   -1.4764    3.0264 H   0  0  0  0  0  0  0  0  0  0  0  0
    2.1720    0.0908    3.3126 H   0  0  0  0  0  0  0  0  0  0  0  0
    0.9133   -0.5817    4.9243 C   0  0  0  0  0  0  0  0  0  0  0  0
    0.7791    0.4179    5.3525 H   0  0  0  0  0  0  0  0  0  0  0  0
   -0.0201   -1.1390    5.0609 H   0  0  0  0  0  0  0  0  0  0  0  0
    2.0156   -1.2725    5.6003 N   0  0  0  0  0  0  0  0  0  0  0  0
    1.8338   -1.3671    6.5994 H   0  0  0  0  0  0  0  0  0  0  0  0
    2.1886   -2.1835    5.1751 H   0  0  0  0  0  0  0  0  0  0  0  0
   -0.1674    1.4403   -1.0210 C   0  0  0  0  0  0  0  0  0  0  0  0
   -0.5394    2.5037   -1.4992 O   0  0  0  0  0  0  0  0  0  0  0  0
    0.6022    0.5794   -1.7814 N   0  0  0  0  0  0  0  0  0  0  0  0
    0.7752   -0.3450   -1.3941 H   0  0  0  0  0  0  0  0  0  0  0  0
    1.0039    0.8588   -3.1537 C   0  0  0  0  0  0  0  0  0  0  0  0
    1.5514    1.8057   -3.2074 H   0  0  0  0  0  0  0  0  0  0  0  0
    1.6560    0.0626   -3.5258 H   0  0  0  0  0  0  0  0  0  0  0  0
    0.1253    0.9217   -3.8042 H   0  0  0  0  0  0  0  0  0  0  0  0
  1  2  1  0  0  0  0
  2  3  1  0  0  0  0
  2  4  1  0  0  0  0
  2  5  1  0  0  0  0
  5  6  2  0  0  0  0
  5  7  1  0  0  0  0
  7  8  1  0  0  0  0
  7  9  1  0  0  0  0
  9 10  1  0  0  0  0
  9 11  1  0  0  0  0
  9 26  1  0  0  0  0
 11 12  1  0  0  0  0
 11 13  1  0  0  0  0
 11 14  1  0  0  0  0
 14 15  1  0  0  0  0
 14 16  1  0  0  0  0
 14 17  1  0  0  0  0
 17 18  1  0  0  0  0
 17 19  1  0  0  0  0
 17 20  1  0  0  0  0
 20 21  1  0  0  0  0
 20 22  1  0  0  0  0
 20 23  1  0  0  0  0
 23 24  1  0  0  0  0
 23 25  1  0  0  0  0
 26 27  2  0  0  0  0
 26 28  1  0  0  0  0
 28 29  1  0  0  0  0
 28 30  1  0  0  0  0
 30 31  1  0  0  0  0
 30 32  1  0  0  0  0
 30 33  1  0  0  0  0
M  END
$$$$

  -OEChem-01062216083D

 33 32  0     1  0  0  0  0  0999 V2000
   -4.0373   -2.2963    0.8451 H   0  0  0  0  0  0  0  0  0  0  0  0
   -3.8725   -1.2743    0.4920 C   0  0  0  0  0  0  0  0  0  0  0  0
   -4.4477   -0.5897    1.1200 H   0  0  0  0  0  0  0  0  0  0  0  0
   -4.2253   -1.1970   -0.5392 H   0  0  0  0  0  0  0  0  0  0  0  0
   -2.3971   -0.9276    0.5610 C   0  0  0  0  0  0  0  0  0  0  0  0
   -1.6003   -1.8090    0.8326 O   0  0  0  0  0  0  0  0  0  0  0  0
   -2.0025    0.3512    0.2104 N   0  0  0  0  0  0  0  0  0  0  0  0
   -2.7636    0.9583   -0.0840 H   0  0  0  0  0  0  0  0  0  0  0  0
   -0.6867    1.0167    0.3575 C   0  0  1  0  0  0  0  0  0  0  0  0
   -0.8760    1.9550    0.8894 H   0  0  0  0  0  0  0  0  0  0  0  0
    0.4225    0.3059    1.1654 C   0  0  0  0  0  0  0  0  0  0  0  0
    0.6127   -0.6923    0.7604 H   0  0  0  0  0  0  0  0  0  0  0  0
    1.3515    0.8759    1.0552 H   0  0  0  0  0  0  0  0  0  0  0  0
    0.0914    0.2212    2.6642 C   0  0  0  0  0  0  0  0  0  0  0  0
   -0.0541    1.2300    3.0642 H   0  0  0  0  0  0  0  0  0  0  0  0
   -0.8364   -0.3351    2.8214 H   0  0  0  0  0  0  0  0  0  0  0  0
    1.2314   -0.4685    3.4203 C   0  0  0  0  0  0  0  0  0  0  0  0
    1.3890   -1.4698    3.0059 H   0  0  0  0  0  0  0  0  0  0  0  0
    2.1581    0.1010    3.2935 H   0  0  0  0  0  0  0  0  0  0  0  0
    0.9064   -0.5822    4.9061 C   0  0  0  0  0  0  0  0  0  0  0  0
    0.7657    0.4146    5.3385 H   0  0  0  0  0  0  0  0  0  0  0  0
   -0.0223   -1.1472    5.0437 H   0  0  0  0  0  0  0  0  0  0  0  0
    2.0162   -1.2682    5.5746 N   0  0  0  0  0  0  0  0  0  0  0  0
    1.8363   -1.3771    6.5725 H   0  0  0  0  0  0  0  0  0  0  0  0
    2.2019   -2.1713    5.1378 H   0  0  0  0  0  0  0  0  0  0  0  0
   -0.1697    1.4237   -1.0334 C   0  0  0  0  0  0  0  0  0  0  0  0
   -0.2899    2.5798   -1.4156 O   0  0  0  0  0  0  0  0  0  0  0  0
    0.3361    0.4643   -1.8904 N   0  0  0  0  0  0  0  0  0  0  0  0
    0.3218   -0.4985   -1.5613 H   0  0  0  0  0  0  0  0  0  0  0  0
    0.7450    0.7429   -3.2609 C   0  0  0  0  0  0  0  0  0  0  0  0
    1.5092    1.5269   -3.2814 H   0  0  0  0  0  0  0  0  0  0  0  0
    1.1632   -0.1574   -3.7213 H   0  0  0  0  0  0  0  0  0  0  0  0
   -0.1131    1.0714   -3.8564 H   0  0  0  0  0  0  0  0  0  0  0  0
  1  2  1  0  0  0  0
  2  3  1  0  0  0  0
  2  4  1  0  0  0  0
  2  5  1  0  0  0  0
  5  6  2  0  0  0  0
  5  7  1  0  0  0  0
  7  8  1  0  0  0  0
  7  9  1  0  0  0  0
  9 10  1  0  0  0  0
  9 11  1  0  0  0  0
  9 26  1  0  0  0  0
 11 12  1  0  0  0  0
 11 13  1  0  0  0  0
 11 14  1  0  0  0  0
 14 15  1  0  0  0  0
 14 16  1  0  0  0  0
 14 17  1  0  0  0  0
 17 18  1  0  0  0  0
 17 19  1  0  0  0  0
 17 20  1  0  0  0  0
 20 21  1  0  0  0  0
 20 22  1  0  0  0  0
 20 23  1  0  0  0  0
 23 24  1  0  0  0  0
 23 25  1  0  0  0  0
 26 27  2  0  0  0  0
 26 28  1  0  0  0  0
 28 29  1  0  0  0  0
 28 30  1  0  0  0  0
 30 31  1  0  0  0  0
 30 32  1  0  0  0  0
 30 33  1  0  0  0  0
M  END
$$$$

  -OEChem-01062216083D

 33 32  0     1  0  0  0  0  0999 V2000
   -4.0464   -2.3118    0.8866 H   0  0  0  0  0  0  0  0  0  0  0  0
   -3.8958   -1.2823    0.5494 C   0  0  0  0  0  0  0  0  0  0  0  0
   -4.4478   -0.6126    1.2132 H   0  0  0  0  0  0  0  0  0  0  0  0
   -4.2877   -1.1838   -0.4658 H   0  0  0  0  0  0  0  0  0  0  0  0
   -2.4189   -0.9343    0.5709 C   0  0  0  0  0  0  0  0  0  0  0  0
   -1.6125   -1.8168    0.8068 O   0  0  0  0  0  0  0  0  0  0  0  0
   -2.0338    0.3435    0.2054 N   0  0  0  0  0  0  0  0  0  0  0  0
   -2.8064    0.9524   -0.0518 H   0  0  0  0  0  0  0  0  0  0  0  0
   -0.7204    1.0188    0.3465 C   0  0  1  0  0  0  0  0  0  0  0  0
   -0.9127    1.9590    0.8741 H   0  0  0  0  0  0  0  0  0  0  0  0
    0.3968    0.3135    1.1472 C   0  0  0  0  0  0  0  0  0  0  0  0
    0.5930   -0.6814    0.7371 H   0  0  0  0  0  0  0  0  0  0  0  0
    1.3215    0.8900    1.0332 H   0  0  0  0  0  0  0  0  0  0  0  0
    0.0755    0.2228    2.6477 C   0  0  0  0  0  0  0  0  0  0  0  0
   -0.0740    1.2297    3.0512 H   0  0  0  0  0  0  0  0  0  0  0  0
   -0.8473   -0.3408    2.8085 H   0  0  0  0  0  0  0  0  0  0  0  0
    1.2251   -0.4618    3.3942 C   0  0  0  0  0  0  0  0  0  0  0  0
    1.3870   -1.4606    2.9757 H   0  0  0  0  0  0  0  0  0  0  0  0
    2.1473    0.1138    3.2628 H   0  0  0  0  0  0  0  0  0  0  0  0
    0.9120   -0.5826    4.8821 C   0  0  0  0  0  0  0  0  0  0  0  0
    0.7685    0.4120    5.3189 H   0  0  0  0  0  0  0  0  0  0  0  0
   -0.0119   -1.1542    5.0246 H   0  0  0  0  0  0  0  0  0  0  0  0
    2.0314   -1.2637    5.5396 N   0  0  0  0  0  0  0  0  0  0  0  0
    1.8600   -1.3778    6.5383 H   0  0  0  0  0  0  0  0  0  0  0  0
    2.2193   -2.1639    5.0978 H   0  0  0  0  0  0  0  0  0  0  0  0
   -0.1987    1.4153   -1.0453 C   0  0  0  0  0  0  0  0  0  0  0  0
   -0.0374    2.5934   -1.3323 O   0  0  0  0  0  0  0  0  0  0  0  0
    0.0216    0.4357   -1.9947 N   0  0  0  0  0  0  0  0  0  0  0  0
   -0.1453   -0.5266   -1.7081 H   0  0  0  0  0  0  0  0  0  0  0  0
    0.4845    0.7103   -3.3483 C   0  0  0  0  0  0  0  0  0  0  0  0
    1.4424    1.2404   -3.3257 H   0  0  0  0  0  0  0  0  0  0  0  0
    0.6211   -0.2258   -3.8979 H   0  0  0  0  0  0  0  0  0  0  0  0
   -0.2461    1.3244   -3.8849 H   0  0  0  0  0  0  0  0  0  0  0  0
  1  2  1  0  0  0  0
  2  3  1  0  0  0  0
  2  4  1  0  0  0  0
  2  5  1  0  0  0  0
  5  6  2  0  0  0  0
  5  7  1  0  0  0  0
  7  8  1  0  0  0  0
  7  9  1  0  0  0  0
  9 10  1  0  0  0  0
  9 11  1  0  0  0  0
  9 26  1  0  0  0  0
 11 12  1  0  0  0  0
 11 13  1  0  0  0  0
 11 14  1  0  0  0  0
 14 15  1  0  0  0  0
 14 16  1  0  0  0  0
 14 17  1  0  0  0  0
 17 18  1  0  0  0  0
 17 19  1  0  0  0  0
 17 20  1  0  0  0  0
 20 21  1  0  0  0  0
 20 22  1  0  0  0  0
 20 23  1  0  0  0  0
 23 24  1  0  0  0  0
 23 25  1  0  0  0  0
 26 27  2  0  0  0  0
 26 28  1  0  0  0  0
 28 29  1  0  0  0  0
 28 30  1  0  0  0  0
 30 31  1  0  0  0  0
 30 32  1  0  0  0  0
 30 33  1  0  0  0  0
M  END
$$$$

  -OEChem-01062216083D

 33 32  0     1  0  0  0  0  0999 V2000
   -4.0654   -2.3364    0.9207 H   0  0  0  0  0  0  0  0  0  0  0  0
   -3.9279   -1.2973    0.6077 C   0  0  0  0  0  0  0  0  0  0  0  0
   -4.4573   -0.6473    1.3087 H   0  0  0  0  0  0  0  0  0  0  0  0
   -4.3549   -1.1710   -0.3902 H   0  0  0  0  0  0  0  0  0  0  0  0
   -2.4516   -0.9471    0.5883 C   0  0  0  0  0  0  0  0  0  0  0  0
   -1.6372   -1.8284    0.7973 O   0  0  0  0  0  0  0  0  0  0  0  0
   -2.0796    0.3316    0.2127 N   0  0  0  0  0  0  0  0  0  0  0  0
   -2.8633    0.9386   -0.0135 H   0  0  0  0  0  0  0  0  0  0  0  0
   -0.7685    1.0174    0.3390 C   0  0  1  0  0  0  0  0  0  0  0  0
   -0.9628    1.9563    0.8680 H   0  0  0  0  0  0  0  0  0  0  0  0
    0.3612    0.3184    1.1272 C   0  0  0  0  0  0  0  0  0  0  0  0
    0.5586   -0.6742    0.7116 H   0  0  0  0  0  0  0  0  0  0  0  0
    1.2813    0.9007    1.0045 H   0  0  0  0  0  0  0  0  0  0  0  0
    0.0591    0.2233    2.6312 C   0  0  0  0  0  0  0  0  0  0  0  0
   -0.0923    1.2285    3.0378 H   0  0  0  0  0  0  0  0  0  0  0  0
   -0.8576   -0.3472    2.8017 H   0  0  0  0  0  0  0  0  0  0  0  0
    1.2221   -0.4548    3.3632 C   0  0  0  0  0  0  0  0  0  0  0  0
    1.3860   -1.4520    2.9415 H   0  0  0  0  0  0  0  0  0  0  0  0
    2.1387    0.1275    3.2220 H   0  0  0  0  0  0  0  0  0  0  0  0
    0.9265   -0.5789    4.8544 C   0  0  0  0  0  0  0  0  0  0  0  0
    0.7807    0.4146    5.2931 H   0  0  0  0  0  0  0  0  0  0  0  0
    0.0079   -1.1562    5.0065 H   0  0  0  0  0  0  0  0  0  0  0  0
    2.0565   -1.2530    5.5010 N   0  0  0  0  0  0  0  0  0  0  0  0
    1.8969   -1.3654    6.5019 H   0  0  0  0  0  0  0  0  0  0  0  0
    2.2452   -2.1530    5.0593 H   0  0  0  0  0  0  0  0  0  0  0  0
   -0.2462    1.4184   -1.0524 C   0  0  0  0  0  0  0  0  0  0  0  0
    0.2008    2.5407   -1.2433 O   0  0  0  0  0  0  0  0  0  0  0  0
   -0.3081    0.5132   -2.0949 N   0  0  0  0  0  0  0  0  0  0  0  0
   -0.6107   -0.4290   -1.8579 H   0  0  0  0  0  0  0  0  0  0  0  0
    0.2451    0.7722   -3.4176 C   0  0  0  0  0  0  0  0  0  0  0  0
    1.3209    0.9661   -3.3519 H   0  0  0  0  0  0  0  0  0  0  0  0
    0.0883   -0.0931   -4.0689 H   0  0  0  0  0  0  0  0  0  0  0  0
   -0.2418    1.6407   -3.8731 H   0  0  0  0  0  0  0  0  0  0  0  0
  1  2  1  0  0  0  0
  2  3  1  0  0  0  0
  2  4  1  0  0  0  0
  2  5  1  0  0  0  0
  5  6  2  0  0  0  0
  5  7  1  0  0  0  0
  7  8  1  0  0  0  0
  7  9  1  0  0  0  0
  9 10  1  0  0  0  0
  9 11  1  0  0  0  0
  9 26  1  0  0  0  0
 11 12  1  0  0  0  0
 11 13  1  0  0  0  0
 11 14  1  0  0  0  0
 14 15  1  0  0  0  0
 14 16  1  0  0  0  0
 14 17  1  0  0  0  0
 17 18  1  0  0  0  0
 17 19  1  0  0  0  0
 17 20  1  0  0  0  0
 20 21  1  0  0  0  0
 20 22  1  0  0  0  0
 20 23  1  0  0  0  0
 23 24  1  0  0  0  0
 23 25  1  0  0  0  0
 26 27  2  0  0  0  0
 26 28  1  0  0  0  0
 28 29  1  0  0  0  0
 28 30  1  0  0  0  0
 30 31  1  0  0  0  0
 30 32  1  0  0  0  0
 30 33  1  0  0  0  0
M  END
$$$$

  -OEChem-01062216083D

 33 32  0     1  0  0  0  0  0999 V2000
   -4.0617   -2.3397    0.9928 H   0  0  0  0  0  0  0  0  0  0  0  0
   -3.9288   -1.3102    0.6480 C   0  0  0  0  0  0  0  0  0  0  0  0
   -4.4503   -0.6413    1.3367 H   0  0  0  0  0  0  0  0  0  0  0  0
   -4.3682   -1.2132   -0.3478 H   0  0  0  0  0  0  0  0  0  0  0  0
   -2.4530   -0.9602    0.6013 C   0  0  0  0  0  0  0  0  0  0  0  0
   -1.6373   -1.8411    0.8042 O   0  0  0  0  0  0  0  0  0  0  0  0
   -2.0890    0.3199    0.2197 N   0  0  0  0  0  0  0  0  0  0  0  0
   -2.8795    0.9253    0.0140 H   0  0  0  0  0  0  0  0  0  0  0  0
   -0.7792    1.0151    0.3337 C   0  0  1  0  0  0  0  0  0  0  0  0
   -0.9747    1.9539    0.8620 H   0  0  0  0  0  0  0  0  0  0  0  0
    0.3518    0.3150    1.1202 C   0  0  0  0  0  0  0  0  0  0  0  0
    0.5471   -0.6777    0.7046 H   0  0  0  0  0  0  0  0  0  0  0  0
    1.2730    0.8946    0.9957 H   0  0  0  0  0  0  0  0  0  0  0  0
    0.0531    0.2231    2.6253 C   0  0  0  0  0  0  0  0  0  0  0  0
   -0.0938    1.2297    3.0301 H   0  0  0  0  0  0  0  0  0  0  0  0
   -0.8648   -0.3443    2.8004 H   0  0  0  0  0  0  0  0  0  0  0  0
    1.2156   -0.4559    3.3569 C   0  0  0  0  0  0  0  0  0  0  0  0
    1.3769   -1.4541    2.9369 H   0  0  0  0  0  0  0  0  0  0  0  0
    2.1329    0.1246    3.2130 H   0  0  0  0  0  0  0  0  0  0  0  0
    0.9223   -0.5765    4.8489 C   0  0  0  0  0  0  0  0  0  0  0  0
    0.7797    0.4180    5.2862 H   0  0  0  0  0  0  0  0  0  0  0  0
    0.0032   -1.1526    5.0035 H   0  0  0  0  0  0  0  0  0  0  0  0
    2.0525   -1.2518    5.4935 N   0  0  0  0  0  0  0  0  0  0  0  0
    1.8897   -1.3747    6.4926 H   0  0  0  0  0  0  0  0  0  0  0  0
    2.2469   -2.1463    5.0431 H   0  0  0  0  0  0  0  0  0  0  0  0
   -0.2553    1.4233   -1.0577 C   0  0  0  0  0  0  0  0  0  0  0  0
    0.4114    2.4405   -1.1884 O   0  0  0  0  0  0  0  0  0  0  0  0
   -0.5764    0.6688   -2.1707 N   0  0  0  0  0  0  0  0  0  0  0  0
   -1.0261   -0.2252   -1.9901 H   0  0  0  0  0  0  0  0  0  0  0  0
   -0.0442    0.9378   -3.5005 C   0  0  0  0  0  0  0  0  0  0  0  0
    1.0484    0.8636   -3.4983 H   0  0  0  0  0  0  0  0  0  0  0  0
   -0.4397    0.2139   -4.2193 H   0  0  0  0  0  0  0  0  0  0  0  0
   -0.3289    1.9422   -3.8312 H   0  0  0  0  0  0  0  0  0  0  0  0
  1  2  1  0  0  0  0
  2  3  1  0  0  0  0
  2  4  1  0  0  0  0
  2  5  1  0  0  0  0
  5  6  2  0  0  0  0
  5  7  1  0  0  0  0
  7  8  1  0  0  0  0
  7  9  1  0  0  0  0
  9 10  1  0  0  0  0
  9 11  1  0  0  0  0
  9 26  1  0  0  0  0
 11 12  1  0  0  0  0
 11 13  1  0  0  0  0
 11 14  1  0  0  0  0
 14 15  1  0  0  0  0
 14 16  1  0  0  0  0
 14 17  1  0  0  0  0
 17 18  1  0  0  0  0
 17 19  1  0  0  0  0
 17 20  1  0  0  0  0
 20 21  1  0  0  0  0
 20 22  1  0  0  0  0
 20 23  1  0  0  0  0
 23 24  1  0  0  0  0
 23 25  1  0  0  0  0
 26 27  2  0  0  0  0
 26 28  1  0  0  0  0
 28 29  1  0  0  0  0
 28 30  1  0  0  0  0
 30 31  1  0  0  0  0
 30 32  1  0  0  0  0
 30 33  1  0  0  0  0
M  END
$$$$

  -OEChem-01062216083D

 33 32  0     1  0  0  0  0  0999 V2000
   -4.0474   -2.3457    1.0322 H   0  0  0  0  0  0  0  0  0  0  0  0
   -3.9186   -1.3234    0.6649 C   0  0  0  0  0  0  0  0  0  0  0  0
   -4.4398   -0.6411    1.3408 H   0  0  0  0  0  0  0  0  0  0  0  0
   -4.3616   -1.2499   -0.3312 H   0  0  0  0  0  0  0  0  0  0  0  0
   -2.4437   -0.9714    0.6054 C   0  0  0  0  0  0  0  0  0  0  0  0
   -1.6271   -1.8531    0.7995 O   0  0  0  0  0  0  0  0  0  0  0  0
   -2.0860    0.3115    0.2252 N   0  0  0  0  0  0  0  0  0  0  0  0
   -2.8815    0.9190    0.0471 H   0  0  0  0  0  0  0  0  0  0  0  0
   -0.7757    1.0105    0.3293 C   0  0  1  0  0  0  0  0  0  0  0  0
   -0.9694    1.9486    0.8593 H   0  0  0  0  0  0  0  0  0  0  0  0
    0.3547    0.3069    1.1165 C   0  0  0  0  0  0  0  0  0  0  0  0
    0.5477   -0.6869    0.7024 H   0  0  0  0  0  0  0  0  0  0  0  0
    1.2791    0.8817    0.9929 H   0  0  0  0  0  0  0  0  0  0  0  0
    0.0554    0.2216    2.6218 C   0  0  0  0  0  0  0  0  0  0  0  0
   -0.0869    1.2307    3.0225 H   0  0  0  0  0  0  0  0  0  0  0  0
   -0.8652   -0.3410    2.7977 H   0  0  0  0  0  0  0  0  0  0  0  0
    1.2138   -0.4602    3.3568 C   0  0  0  0  0  0  0  0  0  0  0  0
    1.3700   -1.4612    2.9410 H   0  0  0  0  0  0  0  0  0  0  0  0
    2.1344    0.1146    3.2113 H   0  0  0  0  0  0  0  0  0  0  0  0
    0.9172   -0.5727    4.8487 C   0  0  0  0  0  0  0  0  0  0  0  0
    0.7798    0.4245    5.2811 H   0  0  0  0  0  0  0  0  0  0  0  0
   -0.0058   -1.1423    5.0043 H   0  0  0  0  0  0  0  0  0  0  0  0
    2.0421   -1.2510    5.4993 N   0  0  0  0  0  0  0  0  0  0  0  0
    1.8739   -1.3714    6.4977 H   0  0  0  0  0  0  0  0  0  0  0  0
    2.2348   -2.1474    5.0518 H   0  0  0  0  0  0  0  0  0  0  0  0
   -0.2581    1.4296   -1.0642 C   0  0  0  0  0  0  0  0  0  0  0  0
    0.5880    2.3072   -1.1681 O   0  0  0  0  0  0  0  0  0  0  0  0
   -0.8134    0.8877   -2.2089 N   0  0  0  0  0  0  0  0  0  0  0  0
   -1.4016    0.0708   -2.0705 H   0  0  0  0  0  0  0  0  0  0  0  0
   -0.3227    1.1817   -3.5493 C   0  0  0  0  0  0  0  0  0  0  0  0
    0.7252    0.8793   -3.6483 H   0  0  0  0  0  0  0  0  0  0  0  0
   -0.9125    0.6396   -4.2947 H   0  0  0  0  0  0  0  0  0  0  0  0
   -0.4023    2.2533   -3.7600 H   0  0  0  0  0  0  0  0  0  0  0  0
  1  2  1  0  0  0  0
  2  3  1  0  0  0  0
  2  4  1  0  0  0  0
  2  5  1  0  0  0  0
  5  6  2  0  0  0  0
  5  7  1  0  0  0  0
  7  8  1  0  0  0  0
  7  9  1  0  0  0  0
  9 10  1  0  0  0  0
  9 11  1  0  0  0  0
  9 26  1  0  0  0  0
 11 12  1  0  0  0  0
 11 13  1  0  0  0  0
 11 14  1  0  0  0  0
 14 15  1  0  0  0  0
 14 16  1  0  0  0  0
 14 17  1  0  0  0  0
 17 18  1  0  0  0  0
 17 19  1  0  0  0  0
 17 20  1  0  0  0  0
 20 21  1  0  0  0  0
 20 22  1  0  0  0  0
 20 23  1  0  0  0  0
 23 24  1  0  0  0  0
 23 25  1  0  0  0  0
 26 27  2  0  0  0  0
 26 28  1  0  0  0  0
 28 29  1  0  0  0  0
 28 30  1  0  0  0  0
 30 31  1  0  0  0  0
 30 32  1  0  0  0  0
 30 33  1  0  0  0  0
M  END
$$$$

  -OEChem-01062216083D

 33 32  0     1  0  0  0  0  0999 V2000
   -4.0283   -2.3608    1.0348 H   0  0  0  0  0  0  0  0  0  0  0  0
   -3.9026   -1.3356    0.6744 C   0  0  0  0  0  0  0  0  0  0  0  0
   -4.4135   -0.6587    1.3634 H   0  0  0  0  0  0  0  0  0  0  0  0
   -4.3587   -1.2531   -0.3150 H   0  0  0  0  0  0  0  0  0  0  0  0
   -2.4279   -0.9847    0.5979 C   0  0  0  0  0  0  0  0  0  0  0  0
   -1.6111   -1.8663    0.7907 O   0  0  0  0  0  0  0  0  0  0  0  0
   -2.0769    0.3017    0.2211 N   0  0  0  0  0  0  0  0  0  0  0  0
   -2.8772    0.9103    0.0724 H   0  0  0  0  0  0  0  0  0  0  0  0
   -0.7677    1.0047    0.3207 C   0  0  1  0  0  0  0  0  0  0  0  0
   -0.9626    1.9419    0.8511 H   0  0  0  0  0  0  0  0  0  0  0  0
    0.3599    0.2998    1.1144 C   0  0  0  0  0  0  0  0  0  0  0  0
    0.5538   -0.6949    0.7031 H   0  0  0  0  0  0  0  0  0  0  0  0
    1.2874    0.8707    0.9966 H   0  0  0  0  0  0  0  0  0  0  0  0
    0.0553    0.2210    2.6196 C   0  0  0  0  0  0  0  0  0  0  0  0
   -0.0857    1.2314    3.0165 H   0  0  0  0  0  0  0  0  0  0  0  0
   -0.8674   -0.3381    2.7946 H   0  0  0  0  0  0  0  0  0  0  0  0
    1.2096   -0.4614    3.3610 C   0  0  0  0  0  0  0  0  0  0  0  0
    1.3648   -1.4640    2.9490 H   0  0  0  0  0  0  0  0  0  0  0  0
    2.1318    0.1111    3.2165 H   0  0  0  0  0  0  0  0  0  0  0  0
    0.9090   -0.5685    4.8526 C   0  0  0  0  0  0  0  0  0  0  0  0
    0.7715    0.4301    5.2818 H   0  0  0  0  0  0  0  0  0  0  0  0
   -0.0152   -1.1366    5.0071 H   0  0  0  0  0  0  0  0  0  0  0  0
    2.0306   -1.2474    5.5085 N   0  0  0  0  0  0  0  0  0  0  0  0
    1.8542   -1.3760    6.5045 H   0  0  0  0  0  0  0  0  0  0  0  0
    2.2311   -2.1394    5.0559 H   0  0  0  0  0  0  0  0  0  0  0  0
   -0.2570    1.4338   -1.0760 C   0  0  0  0  0  0  0  0  0  0  0  0
    0.7378    2.1382   -1.1839 O   0  0  0  0  0  0  0  0  0  0  0  0
   -0.9962    1.1498   -2.2110 N   0  0  0  0  0  0  0  0  0  0  0  0
   -1.7230    0.4494   -2.0997 H   0  0  0  0  0  0  0  0  0  0  0  0
   -0.5466    1.4838   -3.5574 C   0  0  0  0  0  0  0  0  0  0  0  0
    0.3933    0.9701   -3.7861 H   0  0  0  0  0  0  0  0  0  0  0  0
   -1.2972    1.1787   -4.2928 H   0  0  0  0  0  0  0  0  0  0  0  0
   -0.3903    2.5635   -3.6533 H   0  0  0  0  0  0  0  0  0  0  0  0
  1  2  1  0  0  0  0
  2  3  1  0  0  0  0
  2  4  1  0  0  0  0
  2  5  1  0  0  0  0
  5  6  2  0  0  0  0
  5  7  1  0  0  0  0
  7  8  1  0  0  0  0
  7  9  1  0  0  0  0
  9 10  1  0  0  0  0
  9 11  1  0  0  0  0
  9 26  1  0  0  0  0
 11 12  1  0  0  0  0
 11 13  1  0  0  0  0
 11 14  1  0  0  0  0
 14 15  1  0  0  0  0
 14 16  1  0  0  0  0
 14 17  1  0  0  0  0
 17 18  1  0  0  0  0
 17 19  1  0  0  0  0
 17 20  1  0  0  0  0
 20 21  1  0  0  0  0
 20 22  1  0  0  0  0
 20 23  1  0  0  0  0
 23 24  1  0  0  0  0
 23 25  1  0  0  0  0
 26 27  2  0  0  0  0
 26 28  1  0  0  0  0
 28 29  1  0  0  0  0
 28 30  1  0  0  0  0
 30 31  1  0  0  0  0
 30 32  1  0  0  0  0
 30 33  1  0  0  0  0
M  END
$$$$

  -OEChem-01062216083D

 33 32  0     1  0  0  0  0  0999 V2000
   -4.0079   -2.3751    1.0228 H   0  0  0  0  0  0  0  0  0  0  0  0
   -3.8854   -1.3477    0.6674 C   0  0  0  0  0  0  0  0  0  0  0  0
   -4.3927   -0.6748    1.3627 H   0  0  0  0  0  0  0  0  0  0  0  0
   -4.3473   -1.2604   -0.3188 H   0  0  0  0  0  0  0  0  0  0  0  0
   -2.4115   -0.9957    0.5839 C   0  0  0  0  0  0  0  0  0  0  0  0
   -1.5949   -1.8776    0.7754 O   0  0  0  0  0  0  0  0  0  0  0  0
   -2.0644    0.2939    0.2127 N   0  0  0  0  0  0  0  0  0  0  0  0
   -2.8675    0.9052    0.0946 H   0  0  0  0  0  0  0  0  0  0  0  0
   -0.7531    0.9950    0.3094 C   0  0  1  0  0  0  0  0  0  0  0  0
   -0.9466    1.9319    0.8404 H   0  0  0  0  0  0  0  0  0  0  0  0
    0.3694    0.2882    1.1121 C   0  0  0  0  0  0  0  0  0  0  0  0
    0.5621   -0.7090    0.7063 H   0  0  0  0  0  0  0  0  0  0  0  0
    1.3007    0.8530    0.9997 H   0  0  0  0  0  0  0  0  0  0  0  0
    0.0586    0.2204    2.6162 C   0  0  0  0  0  0  0  0  0  0  0  0
   -0.0779    1.2343    3.0064 H   0  0  0  0  0  0  0  0  0  0  0  0
   -0.8679   -0.3328    2.7907 H   0  0  0  0  0  0  0  0  0  0  0  0
    1.2067   -0.4637    3.3657 C   0  0  0  0  0  0  0  0  0  0  0  0
    1.3576   -1.4695    2.9599 H   0  0  0  0  0  0  0  0  0  0  0  0
    2.1332    0.1014    3.2200 H   0  0  0  0  0  0  0  0  0  0  0  0
    0.9014   -0.5605    4.8568 C   0  0  0  0  0  0  0  0  0  0  0  0
    0.7679    0.4409    5.2804 H   0  0  0  0  0  0  0  0  0  0  0  0
   -0.0262   -1.1226    5.0115 H   0  0  0  0  0  0  0  0  0  0  0  0
    2.0178   -1.2416    5.5192 N   0  0  0  0  0  0  0  0  0  0  0  0
    1.8387   -1.3633    6.5156 H   0  0  0  0  0  0  0  0  0  0  0  0
    2.2143   -2.1375    5.0718 H   0  0  0  0  0  0  0  0  0  0  0  0
   -0.2521    1.4323   -1.0910 C   0  0  0  0  0  0  0  0  0  0  0  0
    0.8594    1.9228   -1.2382 O   0  0  0  0  0  0  0  0  0  0  0  0
   -1.1178    1.4400   -2.1716 N   0  0  0  0  0  0  0  0  0  0  0  0
   -1.9659    0.8935   -2.0641 H   0  0  0  0  0  0  0  0  0  0  0  0
   -0.7058    1.8300   -3.5156 C   0  0  0  0  0  0  0  0  0  0  0  0
    0.0808    1.1627   -3.8836 H   0  0  0  0  0  0  0  0  0  0  0  0
   -1.5558    1.7777   -4.2025 H   0  0  0  0  0  0  0  0  0  0  0  0
   -0.3257    2.8572   -3.5180 H   0  0  0  0  0  0  0  0  0  0  0  0
  1  2  1  0  0  0  0
  2  3  1  0  0  0  0
  2  4  1  0  0  0  0
  2  5  1  0  0  0  0
  5  6  2  0  0  0  0
  5  7  1  0  0  0  0
  7  8  1  0  0  0  0
  7  9  1  0  0  0  0
  9 10  1  0  0  0  0
  9 11  1  0  0  0  0
  9 26  1  0  0  0  0
 11 12  1  0  0  0  0
 11 13  1  0  0  0  0
 11 14  1  0  0  0  0
 14 15  1  0  0  0  0
 14 16  1  0  0  0  0
 14 17  1  0  0  0  0
 17 18  1  0  0  0  0
 17 19  1  0  0  0  0
 17 20  1  0  0  0  0
 20 21  1  0  0  0  0
 20 22  1  0  0  0  0
 20 23  1  0  0  0  0
 23 24  1  0  0  0  0
 23 25  1  0  0  0  0
 26 27  2  0  0  0  0
 26 28  1  0  0  0  0
 28 29  1  0  0  0  0
 28 30  1  0  0  0  0
 30 31  1  0  0  0  0
 30 32  1  0  0  0  0
 30 33  1  0  0  0  0
M  END
$$$$

  -OEChem-01062216083D

 33 32  0     1  0  0  0  0  0999 V2000
   -3.9976   -2.3869    0.9715 H   0  0  0  0  0  0  0  0  0  0  0  0
   -3.8734   -1.3535    0.6345 C   0  0  0  0  0  0  0  0  0  0  0  0
   -4.3853   -0.6927    1.3381 H   0  0  0  0  0  0  0  0  0  0  0  0
   -4.3299   -1.2496   -0.3528 H   0  0  0  0  0  0  0  0  0  0  0  0
   -2.3987   -1.0003    0.5657 C   0  0  0  0  0  0  0  0  0  0  0  0
   -1.5849   -1.8812    0.7731 O   0  0  0  0  0  0  0  0  0  0  0  0
   -2.0502    0.2916    0.2028 N   0  0  0  0  0  0  0  0  0  0  0  0
   -2.8536    0.9029    0.0949 H   0  0  0  0  0  0  0  0  0  0  0  0
   -0.7373    0.9880    0.3011 C   0  0  1  0  0  0  0  0  0  0  0  0
   -0.9287    1.9245    0.8328 H   0  0  0  0  0  0  0  0  0  0  0  0
    0.3811    0.2808    1.1116 C   0  0  0  0  0  0  0  0  0  0  0  0
    0.5740   -0.7179    0.7095 H   0  0  0  0  0  0  0  0  0  0  0  0
    1.3138    0.8441    1.0032 H   0  0  0  0  0  0  0  0  0  0  0  0
    0.0648    0.2202    2.6153 C   0  0  0  0  0  0  0  0  0  0  0  0
   -0.0723    1.2354    3.0014 H   0  0  0  0  0  0  0  0  0  0  0  0
   -0.8628   -0.3317    2.7881 H   0  0  0  0  0  0  0  0  0  0  0  0
    1.2085   -0.4637    3.3721 C   0  0  0  0  0  0  0  0  0  0  0  0
    1.3585   -1.4715    2.9712 H   0  0  0  0  0  0  0  0  0  0  0  0
    2.1367    0.0990    3.2279 H   0  0  0  0  0  0  0  0  0  0  0  0
    0.8975   -0.5535    4.8628 C   0  0  0  0  0  0  0  0  0  0  0  0
    0.7645    0.4501    5.2814 H   0  0  0  0  0  0  0  0  0  0  0  0
   -0.0320   -1.1131    5.0162 H   0  0  0  0  0  0  0  0  0  0  0  0
    2.0091   -1.2345    5.5332 N   0  0  0  0  0  0  0  0  0  0  0  0
    1.8241   -1.3544    6.5287 H   0  0  0  0  0  0  0  0  0  0  0  0
    2.2073   -2.1313    5.0887 H   0  0  0  0  0  0  0  0  0  0  0  0
   -0.2472    1.4307   -1.1035 C   0  0  0  0  0  0  0  0  0  0  0  0
    0.9336    1.6580   -1.3314 O   0  0  0  0  0  0  0  0  0  0  0  0
   -1.1674    1.7426   -2.0907 N   0  0  0  0  0  0  0  0  0  0  0  0
   -2.1175    1.4232   -1.9399 H   0  0  0  0  0  0  0  0  0  0  0  0
   -0.7825    2.1768   -3.4292 C   0  0  0  0  0  0  0  0  0  0  0  0
   -0.2079    1.3943   -3.9358 H   0  0  0  0  0  0  0  0  0  0  0  0
   -1.6727    2.3965   -4.0264 H   0  0  0  0  0  0  0  0  0  0  0  0
   -0.1714    3.0843   -3.3776 H   0  0  0  0  0  0  0  0  0  0  0  0
  1  2  1  0  0  0  0
  2  3  1  0  0  0  0
  2  4  1  0  0  0  0
  2  5  1  0  0  0  0
  5  6  2  0  0  0  0
  5  7  1  0  0  0  0
  7  8  1  0  0  0  0
  7  9  1  0  0  0  0
  9 10  1  0  0  0  0
  9 11  1  0  0  0  0
  9 26  1  0  0  0  0
 11 12  1  0  0  0  0
 11 13  1  0  0  0  0
 11 14  1  0  0  0  0
 14 15  1  0  0  0  0
 14 16  1  0  0  0  0
 14 17  1  0  0  0  0
 17 18  1  0  0  0  0
 17 19  1  0  0  0  0
 17 20  1  0  0  0  0
 20 21  1  0  0  0  0
 20 22  1  0  0  0  0
 20 23  1  0  0  0  0
 23 24  1  0  0  0  0
 23 25  1  0  0  0  0
 26 27  2  0  0  0  0
 26 28  1  0  0  0  0
 28 29  1  0  0  0  0
 28 30  1  0  0  0  0
 30 31  1  0  0  0  0
 30 32  1  0  0  0  0
 30 33  1  0  0  0  0
M  END
$$$$

  -OEChem-01062216083D

 33 32  0     1  0  0  0  0  0999 V2000
   -4.0305   -2.3798    0.9019 H   0  0  0  0  0  0  0  0  0  0  0  0
   -3.8847   -1.3566    0.5434 C   0  0  0  0  0  0  0  0  0  0  0  0
   -4.4483   -0.6773    1.1872 H   0  0  0  0  0  0  0  0  0  0  0  0
   -4.2674   -1.2852   -0.4775 H   0  0  0  0  0  0  0  0  0  0  0  0
   -2.4104   -0.9971    0.5710 C   0  0  0  0  0  0  0  0  0  0  0  0
   -1.6111   -1.8678    0.8615 O   0  0  0  0  0  0  0  0  0  0  0  0
   -2.0489    0.2930    0.2141 N   0  0  0  0  0  0  0  0  0  0  0  0
   -2.8444    0.8888    0.0114 H   0  0  0  0  0  0  0  0  0  0  0  0
   -0.7322    0.9805    0.3097 C   0  0  1  0  0  0  0  0  0  0  0  0
   -0.9176    1.9165    0.8444 H   0  0  0  0  0  0  0  0  0  0  0  0
    0.3874    0.2753    1.1185 C   0  0  0  0  0  0  0  0  0  0  0  0
    0.5744   -0.7262    0.7202 H   0  0  0  0  0  0  0  0  0  0  0  0
    1.3196    0.8379    1.0004 H   0  0  0  0  0  0  0  0  0  0  0  0
    0.0782    0.2215    2.6240 C   0  0  0  0  0  0  0  0  0  0  0  0
   -0.0544    1.2384    3.0069 H   0  0  0  0  0  0  0  0  0  0  0  0
   -0.8502   -0.3264    2.8047 H   0  0  0  0  0  0  0  0  0  0  0  0
    1.2240   -0.4613    3.3782 C   0  0  0  0  0  0  0  0  0  0  0  0
    1.3700   -1.4712    2.9810 H   0  0  0  0  0  0  0  0  0  0  0  0
    2.1527    0.0990    3.2275 H   0  0  0  0  0  0  0  0  0  0  0  0
    0.9179   -0.5432    4.8703 C   0  0  0  0  0  0  0  0  0  0  0  0
    0.7893    0.4631    5.2843 H   0  0  0  0  0  0  0  0  0  0  0  0
   -0.0126   -1.0993    5.0293 H   0  0  0  0  0  0  0  0  0  0  0  0
    2.0300   -1.2233    5.5409 N   0  0  0  0  0  0  0  0  0  0  0  0
    1.8461   -1.3392    6.5371 H   0  0  0  0  0  0  0  0  0  0  0  0
    2.2249   -2.1224    5.0996 H   0  0  0  0  0  0  0  0  0  0  0  0
   -0.2543    1.4224   -1.0989 C   0  0  0  0  0  0  0  0  0  0  0  0
    0.9135    1.3271   -1.4521 O   0  0  0  0  0  0  0  0  0  0  0  0
   -1.1434    2.0340   -1.9680 N   0  0  0  0  0  0  0  0  0  0  0  0
   -2.1147    2.0882   -1.6858 H   0  0  0  0  0  0  0  0  0  0  0  0
   -0.7720    2.4935   -3.3018 C   0  0  0  0  0  0  0  0  0  0  0  0
   -0.4090    1.6567   -3.9079 H   0  0  0  0  0  0  0  0  0  0  0  0
   -1.6373    2.9353   -3.8048 H   0  0  0  0  0  0  0  0  0  0  0  0
    0.0159    3.2517   -3.2406 H   0  0  0  0  0  0  0  0  0  0  0  0
  1  2  1  0  0  0  0
  2  3  1  0  0  0  0
  2  4  1  0  0  0  0
  2  5  1  0  0  0  0
  5  6  2  0  0  0  0
  5  7  1  0  0  0  0
  7  8  1  0  0  0  0
  7  9  1  0  0  0  0
  9 10  1  0  0  0  0
  9 11  1  0  0  0  0
  9 26  1  0  0  0  0
 11 12  1  0  0  0  0
 11 13  1  0  0  0  0
 11 14  1  0  0  0  0
 14 15  1  0  0  0  0
 14 16  1  0  0  0  0
 14 17  1  0  0  0  0
 17 18  1  0  0  0  0
 17 19  1  0  0  0  0
 17 20  1  0  0  0  0
 20 21  1  0  0  0  0
 20 22  1  0  0  0  0
 20 23  1  0  0  0  0
 23 24  1  0  0  0  0
 23 25  1  0  0  0  0
 26 27  2  0  0  0  0
 26 28  1  0  0  0  0
 28 29  1  0  0  0  0
 28 30  1  0  0  0  0
 30 31  1  0  0  0  0
 30 32  1  0  0  0  0
 30 33  1  0  0  0  0
M  END
$$$$

  -OEChem-01062216083D

 33 32  0     1  0  0  0  0  0999 V2000
   -4.0753   -2.3821    0.8210 H   0  0  0  0  0  0  0  0  0  0  0  0
   -3.9120   -1.3639    0.4557 C   0  0  0  0  0  0  0  0  0  0  0  0
   -4.5321   -0.6799    1.0396 H   0  0  0  0  0  0  0  0  0  0  0  0
   -4.2132   -1.3156   -0.5933 H   0  0  0  0  0  0  0  0  0  0  0  0
   -2.4478   -0.9866    0.5930 C   0  0  0  0  0  0  0  0  0  0  0  0
   -1.6709   -1.8391    0.9823 O   0  0  0  0  0  0  0  0  0  0  0  0
   -2.0689    0.2977    0.2315 N   0  0  0  0  0  0  0  0  0  0  0  0
   -2.8330    0.8600   -0.1274 H   0  0  0  0  0  0  0  0  0  0  0  0
   -0.7464    0.9721    0.3210 C   0  0  1  0  0  0  0  0  0  0  0  0
   -0.9228    1.9106    0.8548 H   0  0  0  0  0  0  0  0  0  0  0  0
    0.3772    0.2724    1.1245 C   0  0  0  0  0  0  0  0  0  0  0  0
    0.5509   -0.7348    0.7338 H   0  0  0  0  0  0  0  0  0  0  0  0
    1.3097    0.8297    0.9842 H   0  0  0  0  0  0  0  0  0  0  0  0
    0.0831    0.2288    2.6336 C   0  0  0  0  0  0  0  0  0  0  0  0
   -0.0406    1.2490    3.0105 H   0  0  0  0  0  0  0  0  0  0  0  0
   -0.8456   -0.3122    2.8312 H   0  0  0  0  0  0  0  0  0  0  0  0
    1.2367   -0.4509    3.3778 C   0  0  0  0  0  0  0  0  0  0  0  0
    1.3769   -1.4632    2.9846 H   0  0  0  0  0  0  0  0  0  0  0  0
    2.1643    0.1076    3.2131 H   0  0  0  0  0  0  0  0  0  0  0  0
    0.9492   -0.5248    4.8735 C   0  0  0  0  0  0  0  0  0  0  0  0
    0.8255    0.4829    5.2849 H   0  0  0  0  0  0  0  0  0  0  0  0
    0.0209   -1.0806    5.0470 H   0  0  0  0  0  0  0  0  0  0  0  0
    2.0702   -1.2027    5.5311 N   0  0  0  0  0  0  0  0  0  0  0  0
    1.8952   -1.3241    6.5282 H   0  0  0  0  0  0  0  0  0  0  0  0
    2.2638   -2.0991    5.0838 H   0  0  0  0  0  0  0  0  0  0  0  0
   -0.2748    1.4006   -1.0908 C   0  0  0  0  0  0  0  0  0  0  0  0
    0.7788    1.0103   -1.5752 O   0  0  0  0  0  0  0  0  0  0  0  0
   -1.0491    2.2799   -1.8301 N   0  0  0  0  0  0  0  0  0  0  0  0
   -1.8786    2.6630   -1.3909 H   0  0  0  0  0  0  0  0  0  0  0  0
   -0.6521    2.7830   -3.1407 C   0  0  0  0  0  0  0  0  0  0  0  0
   -0.5163    1.9544   -3.8439 H   0  0  0  0  0  0  0  0  0  0  0  0
   -1.4212    3.4511   -3.5399 H   0  0  0  0  0  0  0  0  0  0  0  0
    0.2877    3.3408   -3.0687 H   0  0  0  0  0  0  0  0  0  0  0  0
  1  2  1  0  0  0  0
  2  3  1  0  0  0  0
  2  4  1  0  0  0  0
  2  5  1  0  0  0  0
  5  6  2  0  0  0  0
  5  7  1  0  0  0  0
  7  8  1  0  0  0  0
  7  9  1  0  0  0  0
  9 10  1  0  0  0  0
  9 11  1  0  0  0  0
  9 26  1  0  0  0  0
 11 12  1  0  0  0  0
 11 13  1  0  0  0  0
 11 14  1  0  0  0  0
 14 15  1  0  0  0  0
 14 16  1  0  0  0  0
 14 17  1  0  0  0  0
 17 18  1  0  0  0  0
 17 19  1  0  0  0  0
 17 20  1  0  0  0  0
 20 21  1  0  0  0  0
 20 22  1  0  0  0  0
 20 23  1  0  0  0  0
 23 24  1  0  0  0  0
 23 25  1  0  0  0  0
 26 27  2  0  0  0  0
 26 28  1  0  0  0  0
 28 29  1  0  0  0  0
 28 30  1  0  0  0  0
 30 31  1  0  0  0  0
 30 32  1  0  0  0  0
 30 33  1  0  0  0  0
M  END
$$$$

  -OEChem-01062216083D

 33 32  0     1  0  0  0  0  0999 V2000
   -4.0942   -2.3796    0.7539 H   0  0  0  0  0  0  0  0  0  0  0  0
   -3.9231   -1.3589    0.3994 C   0  0  0  0  0  0  0  0  0  0  0  0
   -4.5746   -0.6812    0.9565 H   0  0  0  0  0  0  0  0  0  0  0  0
   -4.1762   -1.3102   -0.6625 H   0  0  0  0  0  0  0  0  0  0  0  0
   -2.4700   -0.9702    0.6037 C   0  0  0  0  0  0  0  0  0  0  0  0
   -1.7085   -1.8125    1.0427 O   0  0  0  0  0  0  0  0  0  0  0  0
   -2.0838    0.3121    0.2443 N   0  0  0  0  0  0  0  0  0  0  0  0
   -2.8275    0.8562   -0.1811 H   0  0  0  0  0  0  0  0  0  0  0  0
   -0.7583    0.9775    0.3311 C   0  0  1  0  0  0  0  0  0  0  0  0
   -0.9301    1.9131    0.8707 H   0  0  0  0  0  0  0  0  0  0  0  0
    0.3718    0.2786    1.1237 C   0  0  0  0  0  0  0  0  0  0  0  0
    0.5345   -0.7309    0.7331 H   0  0  0  0  0  0  0  0  0  0  0  0
    1.3044    0.8311    0.9675 H   0  0  0  0  0  0  0  0  0  0  0  0
    0.0907    0.2339    2.6360 C   0  0  0  0  0  0  0  0  0  0  0  0
   -0.0291    1.2546    3.0124 H   0  0  0  0  0  0  0  0  0  0  0  0
   -0.8369   -0.3046    2.8432 H   0  0  0  0  0  0  0  0  0  0  0  0
    1.2488   -0.4447    3.3743 C   0  0  0  0  0  0  0  0  0  0  0  0
    1.3869   -1.4577    2.9820 H   0  0  0  0  0  0  0  0  0  0  0  0
    2.1753    0.1137    3.2039 H   0  0  0  0  0  0  0  0  0  0  0  0
    0.9680   -0.5163    4.8720 C   0  0  0  0  0  0  0  0  0  0  0  0
    0.8457    0.4921    5.2823 H   0  0  0  0  0  0  0  0  0  0  0  0
    0.0404   -1.0717    5.0507 H   0  0  0  0  0  0  0  0  0  0  0  0
    2.0917   -1.1928    5.5266 N   0  0  0  0  0  0  0  0  0  0  0  0
    1.9212   -1.3097    6.5250 H   0  0  0  0  0  0  0  0  0  0  0  0
    2.2819   -2.0917    5.0825 H   0  0  0  0  0  0  0  0  0  0  0  0
   -0.2904    1.4056   -1.0788 C   0  0  0  0  0  0  0  0  0  0  0  0
    0.5863    0.8034   -1.6826 O   0  0  0  0  0  0  0  0  0  0  0  0
   -0.8737    2.5070   -1.6824 N   0  0  0  0  0  0  0  0  0  0  0  0
   -1.5414    3.0445   -1.1395 H   0  0  0  0  0  0  0  0  0  0  0  0
   -0.4579    3.0141   -2.9853 C   0  0  0  0  0  0  0  0  0  0  0  0
   -0.5710    2.2400   -3.7518 H   0  0  0  0  0  0  0  0  0  0  0  0
   -1.0714    3.8741   -3.2711 H   0  0  0  0  0  0  0  0  0  0  0  0
    0.5903    3.3300   -2.9565 H   0  0  0  0  0  0  0  0  0  0  0  0
  1  2  1  0  0  0  0
  2  3  1  0  0  0  0
  2  4  1  0  0  0  0
  2  5  1  0  0  0  0
  5  6  2  0  0  0  0
  5  7  1  0  0  0  0
  7  8  1  0  0  0  0
  7  9  1  0  0  0  0
  9 10  1  0  0  0  0
  9 11  1  0  0  0  0
  9 26  1  0  0  0  0
 11 12  1  0  0  0  0
 11 13  1  0  0  0  0
 11 14  1  0  0  0  0
 14 15  1  0  0  0  0
 14 16  1  0  0  0  0
 14 17  1  0  0  0  0
 17 18  1  0  0  0  0
 17 19  1  0  0  0  0
 17 20  1  0  0  0  0
 20 21  1  0  0  0  0
 20 22  1  0  0  0  0
 20 23  1  0  0  0  0
 23 24  1  0  0  0  0
 23 25  1  0  0  0  0
 26 27  2  0  0  0  0
 26 28  1  0  0  0  0
 28 29  1  0  0  0  0
 28 30  1  0  0  0  0
 30 31  1  0  0  0  0
 30 32  1  0  0  0  0
 30 33  1  0  0  0  0
M  END
$$$$

  -OEChem-01062216083D

 33 32  0     1  0  0  0  0  0999 V2000
   -4.1017   -2.3738    0.7115 H   0  0  0  0  0  0  0  0  0  0  0  0
   -3.9266   -1.3516    0.3634 C   0  0  0  0  0  0  0  0  0  0  0  0
   -4.5975   -0.6778    0.9016 H   0  0  0  0  0  0  0  0  0  0  0  0
   -4.1486   -1.3023   -0.7052 H   0  0  0  0  0  0  0  0  0  0  0  0
   -2.4829   -0.9540    0.6093 C   0  0  0  0  0  0  0  0  0  0  0  0
   -1.7309   -1.7884    1.0794 O   0  0  0  0  0  0  0  0  0  0  0  0
   -2.0955    0.3282    0.2525 N   0  0  0  0  0  0  0  0  0  0  0  0
   -2.8245    0.8579   -0.2153 H   0  0  0  0  0  0  0  0  0  0  0  0
   -0.7712    0.9920    0.3437 C   0  0  1  0  0  0  0  0  0  0  0  0
   -0.9465    1.9232    0.8894 H   0  0  0  0  0  0  0  0  0  0  0  0
    0.3636    0.2949    1.1284 C   0  0  0  0  0  0  0  0  0  0  0  0
    0.5245   -0.7132    0.7329 H   0  0  0  0  0  0  0  0  0  0  0  0
    1.2942    0.8495    0.9678 H   0  0  0  0  0  0  0  0  0  0  0  0
    0.0914    0.2398    2.6422 C   0  0  0  0  0  0  0  0  0  0  0  0
   -0.0287    1.2581    3.0253 H   0  0  0  0  0  0  0  0  0  0  0  0
   -0.8332   -0.3010    2.8547 H   0  0  0  0  0  0  0  0  0  0  0  0
    1.2570   -0.4381    3.3691 C   0  0  0  0  0  0  0  0  0  0  0  0
    1.3960   -1.4486    2.9705 H   0  0  0  0  0  0  0  0  0  0  0  0
    2.1806    0.1241    3.1962 H   0  0  0  0  0  0  0  0  0  0  0  0
    0.9826   -0.5185    4.8673 C   0  0  0  0  0  0  0  0  0  0  0  0
    0.8583    0.4881    5.2819 H   0  0  0  0  0  0  0  0  0  0  0  0
    0.0575   -1.0778    5.0465 H   0  0  0  0  0  0  0  0  0  0  0  0
    2.1100   -1.1931    5.5172 N   0  0  0  0  0  0  0  0  0  0  0  0
    1.9471   -1.3025    6.5177 H   0  0  0  0  0  0  0  0  0  0  0  0
    2.2944   -2.0957    5.0784 H   0  0  0  0  0  0  0  0  0  0  0  0
   -0.2979    1.4216   -1.0620 C   0  0  0  0  0  0  0  0  0  0  0  0
    0.3435    0.6677   -1.7801 O   0  0  0  0  0  0  0  0  0  0  0  0
   -0.6317    2.6766   -1.5415 N   0  0  0  0  0  0  0  0  0  0  0  0
   -1.1128    3.3103   -0.9113 H   0  0  0  0  0  0  0  0  0  0  0  0
   -0.1980    3.1738   -2.8422 C   0  0  0  0  0  0  0  0  0  0  0  0
   -0.5519    2.5152   -3.6425 H   0  0  0  0  0  0  0  0  0  0  0  0
   -0.6007    4.1757   -3.0178 H   0  0  0  0  0  0  0  0  0  0  0  0
    0.8948    3.2268   -2.8863 H   0  0  0  0  0  0  0  0  0  0  0  0
  1  2  1  0  0  0  0
  2  3  1  0  0  0  0
  2  4  1  0  0  0  0
  2  5  1  0  0  0  0
  5  6  2  0  0  0  0
  5  7  1  0  0  0  0
  7  8  1  0  0  0  0
  7  9  1  0  0  0  0
  9 10  1  0  0  0  0
  9 11  1  0  0  0  0
  9 26  1  0  0  0  0
 11 12  1  0  0  0  0
 11 13  1  0  0  0  0
 11 14  1  0  0  0  0
 14 15  1  0  0  0  0
 14 16  1  0  0  0  0
 14 17  1  0  0  0  0
 17 18  1  0  0  0  0
 17 19  1  0  0  0  0
 17 20  1  0  0  0  0
 20 21  1  0  0  0  0
 20 22  1  0  0  0  0
 20 23  1  0  0  0  0
 23 24  1  0  0  0  0
 23 25  1  0  0  0  0
 26 27  2  0  0  0  0
 26 28  1  0  0  0  0
 28 29  1  0  0  0  0
 28 30  1  0  0  0  0
 30 31  1  0  0  0  0
 30 32  1  0  0  0  0
 30 33  1  0  0  0  0
M  END
$$$$

  -OEChem-01062216083D

 33 32  0     1  0  0  0  0  0999 V2000
   -4.1092   -2.3748    0.6620 H   0  0  0  0  0  0  0  0  0  0  0  0
   -3.9336   -1.3498    0.3227 C   0  0  0  0  0  0  0  0  0  0  0  0
   -4.6281   -0.6850    0.8415 H   0  0  0  0  0  0  0  0  0  0  0  0
   -4.1236   -1.2997   -0.7522 H   0  0  0  0  0  0  0  0  0  0  0  0
   -2.5021   -0.9380    0.6154 C   0  0  0  0  0  0  0  0  0  0  0  0
   -1.7616   -1.7617    1.1221 O   0  0  0  0  0  0  0  0  0  0  0  0
   -2.1111    0.3440    0.2610 N   0  0  0  0  0  0  0  0  0  0  0  0
   -2.8205    0.8559   -0.2549 H   0  0  0  0  0  0  0  0  0  0  0  0
   -0.7842    1.0026    0.3553 C   0  0  1  0  0  0  0  0  0  0  0  0
   -0.9642    1.9310    0.9044 H   0  0  0  0  0  0  0  0  0  0  0  0
    0.3538    0.3068    1.1361 C   0  0  0  0  0  0  0  0  0  0  0  0
    0.5116   -0.7010    0.7387 H   0  0  0  0  0  0  0  0  0  0  0  0
    1.2835    0.8619    0.9719 H   0  0  0  0  0  0  0  0  0  0  0  0
    0.0911    0.2468    2.6521 C   0  0  0  0  0  0  0  0  0  0  0  0
   -0.0285    1.2637    3.0389 H   0  0  0  0  0  0  0  0  0  0  0  0
   -0.8306   -0.2960    2.8710 H   0  0  0  0  0  0  0  0  0  0  0  0
    1.2637   -0.4309    3.3690 C   0  0  0  0  0  0  0  0  0  0  0  0
    1.4023   -1.4395    2.9660 H   0  0  0  0  0  0  0  0  0  0  0  0
    2.1847    0.1338    3.1914 H   0  0  0  0  0  0  0  0  0  0  0  0
    1.0017   -0.5174    4.8695 C   0  0  0  0  0  0  0  0  0  0  0  0
    0.8789    0.4871    5.2892 H   0  0  0  0  0  0  0  0  0  0  0  0
    0.0790   -1.0790    5.0544 H   0  0  0  0  0  0  0  0  0  0  0  0
    2.1361   -1.1918    5.5078 N   0  0  0  0  0  0  0  0  0  0  0  0
    1.9845   -1.2989    6.5103 H   0  0  0  0  0  0  0  0  0  0  0  0
    2.3145   -2.0955    5.0689 H   0  0  0  0  0  0  0  0  0  0  0  0
   -0.2985    1.4369   -1.0446 C   0  0  0  0  0  0  0  0  0  0  0  0
    0.0513    0.6110   -1.8758 O   0  0  0  0  0  0  0  0  0  0  0  0
   -0.3391    2.7724   -1.4071 N   0  0  0  0  0  0  0  0  0  0  0  0
   -0.5994    3.4481   -0.6954 H   0  0  0  0  0  0  0  0  0  0  0  0
    0.1058    3.2596   -2.7077 C   0  0  0  0  0  0  0  0  0  0  0  0
   -0.4666    2.7847   -3.5115 H   0  0  0  0  0  0  0  0  0  0  0  0
   -0.0381    4.3422   -2.7754 H   0  0  0  0  0  0  0  0  0  0  0  0
    1.1687    3.0414   -2.8555 H   0  0  0  0  0  0  0  0  0  0  0  0
  1  2  1  0  0  0  0
  2  3  1  0  0  0  0
  2  4  1  0  0  0  0
  2  5  1  0  0  0  0
  5  6  2  0  0  0  0
  5  7  1  0  0  0  0
  7  8  1  0  0  0  0
  7  9  1  0  0  0  0
  9 10  1  0  0  0  0
  9 11  1  0  0  0  0
  9 26  1  0  0  0  0
 11 12  1  0  0  0  0
 11 13  1  0  0  0  0
 11 14  1  0  0  0  0
 14 15  1  0  0  0  0
 14 16  1  0  0  0  0
 14 17  1  0  0  0  0
 17 18  1  0  0  0  0
 17 19  1  0  0  0  0
 17 20  1  0  0  0  0
 20 21  1  0  0  0  0
 20 22  1  0  0  0  0
 20 23  1  0  0  0  0
 23 24  1  0  0  0  0
 23 25  1  0  0  0  0
 26 27  2  0  0  0  0
 26 28  1  0  0  0  0
 28 29  1  0  0  0  0
 28 30  1  0  0  0  0
 30 31  1  0  0  0  0
 30 32  1  0  0  0  0
 30 33  1  0  0  0  0
M  END
$$$$

  -OEChem-01062216083D

 33 32  0     1  0  0  0  0  0999 V2000
   -4.1128   -2.3679    0.6294 H   0  0  0  0  0  0  0  0  0  0  0  0
   -3.9331   -1.3426    0.2935 C   0  0  0  0  0  0  0  0  0  0  0  0
   -4.6435   -0.6800    0.7936 H   0  0  0  0  0  0  0  0  0  0  0  0
   -4.0957   -1.2943   -0.7859 H   0  0  0  0  0  0  0  0  0  0  0  0
   -2.5112   -0.9243    0.6212 C   0  0  0  0  0  0  0  0  0  0  0  0
   -1.7812   -1.7419    1.1532 O   0  0  0  0  0  0  0  0  0  0  0  0
   -2.1153    0.3560    0.2683 N   0  0  0  0  0  0  0  0  0  0  0  0
   -2.8006    0.8472   -0.2985 H   0  0  0  0  0  0  0  0  0  0  0  0
   -0.7844    1.0060    0.3621 C   0  0  1  0  0  0  0  0  0  0  0  0
   -0.9663    1.9345    0.9104 H   0  0  0  0  0  0  0  0  0  0  0  0
    0.3529    0.3089    1.1415 C   0  0  0  0  0  0  0  0  0  0  0  0
    0.5050   -0.7005    0.7452 H   0  0  0  0  0  0  0  0  0  0  0  0
    1.2844    0.8596    0.9746 H   0  0  0  0  0  0  0  0  0  0  0  0
    0.0952    0.2517    2.6585 C   0  0  0  0  0  0  0  0  0  0  0  0
   -0.0201    1.2695    3.0442 H   0  0  0  0  0  0  0  0  0  0  0  0
   -0.8275   -0.2872    2.8827 H   0  0  0  0  0  0  0  0  0  0  0  0
    1.2691   -0.4283    3.3716 C   0  0  0  0  0  0  0  0  0  0  0  0
    1.4037   -1.4378    2.9690 H   0  0  0  0  0  0  0  0  0  0  0  0
    2.1904    0.1346    3.1901 H   0  0  0  0  0  0  0  0  0  0  0  0
    1.0138   -0.5131    4.8733 C   0  0  0  0  0  0  0  0  0  0  0  0
    0.8953    0.4919    5.2930 H   0  0  0  0  0  0  0  0  0  0  0  0
    0.0908   -1.0725    5.0630 H   0  0  0  0  0  0  0  0  0  0  0  0
    2.1499   -1.1899    5.5060 N   0  0  0  0  0  0  0  0  0  0  0  0
    2.0048   -1.2926    6.5101 H   0  0  0  0  0  0  0  0  0  0  0  0
    2.3206   -2.0964    5.0696 H   0  0  0  0  0  0  0  0  0  0  0  0
   -0.2911    1.4432   -1.0342 C   0  0  0  0  0  0  0  0  0  0  0  0
   -0.2554    0.6483   -1.9634 O   0  0  0  0  0  0  0  0  0  0  0  0
   -0.0245    2.7775   -1.2890 N   0  0  0  0  0  0  0  0  0  0  0  0
   -0.0390    3.4206   -0.5033 H   0  0  0  0  0  0  0  0  0  0  0  0
    0.4137    3.2699   -2.5900 C   0  0  0  0  0  0  0  0  0  0  0  0
   -0.3258    3.0280   -3.3608 H   0  0  0  0  0  0  0  0  0  0  0  0
    0.5380    4.3567   -2.5613 H   0  0  0  0  0  0  0  0  0  0  0  0
    1.3724    2.8189   -2.8676 H   0  0  0  0  0  0  0  0  0  0  0  0
  1  2  1  0  0  0  0
  2  3  1  0  0  0  0
  2  4  1  0  0  0  0
  2  5  1  0  0  0  0
  5  6  2  0  0  0  0
  5  7  1  0  0  0  0
  7  8  1  0  0  0  0
  7  9  1  0  0  0  0
  9 10  1  0  0  0  0
  9 11  1  0  0  0  0
  9 26  1  0  0  0  0
 11 12  1  0  0  0  0
 11 13  1  0  0  0  0
 11 14  1  0  0  0  0
 14 15  1  0  0  0  0
 14 16  1  0  0  0  0
 14 17  1  0  0  0  0
 17 18  1  0  0  0  0
 17 19  1  0  0  0  0
 17 20  1  0  0  0  0
 20 21  1  0  0  0  0
 20 22  1  0  0  0  0
 20 23  1  0  0  0  0
 23 24  1  0  0  0  0
 23 25  1  0  0  0  0
 26 27  2  0  0  0  0
 26 28  1  0  0  0  0
 28 29  1  0  0  0  0
 28 30  1  0  0  0  0
 30 31  1  0  0  0  0
 30 32  1  0  0  0  0
 30 33  1  0  0  0  0
M  END
$$$$

  -OEChem-01062216083D

 33 32  0     1  0  0  0  0  0999 V2000
   -4.1168   -2.3609    0.6011 H   0  0  0  0  0  0  0  0  0  0  0  0
   -3.9315   -1.3348    0.2705 C   0  0  0  0  0  0  0  0  0  0  0  0
   -4.6534   -0.6735    0.7554 H   0  0  0  0  0  0  0  0  0  0  0  0
   -4.0702   -1.2853   -0.8124 H   0  0  0  0  0  0  0  0  0  0  0  0
   -2.5181   -0.9140    0.6303 C   0  0  0  0  0  0  0  0  0  0  0  0
   -1.7978   -1.7292    1.1796 O   0  0  0  0  0  0  0  0  0  0  0  0
   -2.1151    0.3635    0.2775 N   0  0  0  0  0  0  0  0  0  0  0  0
   -2.7773    0.8373   -0.3309 H   0  0  0  0  0  0  0  0  0  0  0  0
   -0.7794    1.0028    0.3651 C   0  0  1  0  0  0  0  0  0  0  0  0
   -0.9576    1.9343    0.9095 H   0  0  0  0  0  0  0  0  0  0  0  0
    0.3545    0.3021    1.1450 C   0  0  0  0  0  0  0  0  0  0  0  0
    0.4960   -0.7107    0.7538 H   0  0  0  0  0  0  0  0  0  0  0  0
    1.2906    0.8432    0.9729 H   0  0  0  0  0  0  0  0  0  0  0  0
    0.1002    0.2555    2.6628 C   0  0  0  0  0  0  0  0  0  0  0  0
   -0.0045    1.2766    3.0430 H   0  0  0  0  0  0  0  0  0  0  0  0
   -0.8264   -0.2740    2.8939 H   0  0  0  0  0  0  0  0  0  0  0  0
    1.2720   -0.4291    3.3741 C   0  0  0  0  0  0  0  0  0  0  0  0
    1.3980   -1.4412    2.9753 H   0  0  0  0  0  0  0  0  0  0  0  0
    2.1963    0.1266    3.1859 H   0  0  0  0  0  0  0  0  0  0  0  0
    1.0237   -0.5055    4.8771 C   0  0  0  0  0  0  0  0  0  0  0  0
    0.9133    0.5019    5.2932 H   0  0  0  0  0  0  0  0  0  0  0  0
    0.0987   -1.0591    5.0736 H   0  0  0  0  0  0  0  0  0  0  0  0
    2.1594   -1.1875    5.5050 N   0  0  0  0  0  0  0  0  0  0  0  0
    2.0206   -1.2847    6.5106 H   0  0  0  0  0  0  0  0  0  0  0  0
    2.3207   -2.0971    5.0717 H   0  0  0  0  0  0  0  0  0  0  0  0
   -0.2842    1.4415   -1.0306 C   0  0  0  0  0  0  0  0  0  0  0  0
   -0.5436    0.7778   -2.0260 O   0  0  0  0  0  0  0  0  0  0  0  0
    0.2843    2.6922   -1.1976 N   0  0  0  0  0  0  0  0  0  0  0  0
    0.5023    3.2255   -0.3611 H   0  0  0  0  0  0  0  0  0  0  0  0
    0.7216    3.2050   -2.4910 C   0  0  0  0  0  0  0  0  0  0  0  0
   -0.1150    3.2306   -3.1973 H   0  0  0  0  0  0  0  0  0  0  0  0
    1.1111    4.2218   -2.3831 H   0  0  0  0  0  0  0  0  0  0  0  0
    1.5134    2.5721   -2.9055 H   0  0  0  0  0  0  0  0  0  0  0  0
  1  2  1  0  0  0  0
  2  3  1  0  0  0  0
  2  4  1  0  0  0  0
  2  5  1  0  0  0  0
  5  6  2  0  0  0  0
  5  7  1  0  0  0  0
  7  8  1  0  0  0  0
  7  9  1  0  0  0  0
  9 10  1  0  0  0  0
  9 11  1  0  0  0  0
  9 26  1  0  0  0  0
 11 12  1  0  0  0  0
 11 13  1  0  0  0  0
 11 14  1  0  0  0  0
 14 15  1  0  0  0  0
 14 16  1  0  0  0  0
 14 17  1  0  0  0  0
 17 18  1  0  0  0  0
 17 19  1  0  0  0  0
 17 20  1  0  0  0  0
 20 21  1  0  0  0  0
 20 22  1  0  0  0  0
 20 23  1  0  0  0  0
 23 24  1  0  0  0  0
 23 25  1  0  0  0  0
 26 27  2  0  0  0  0
 26 28  1  0  0  0  0
 28 29  1  0  0  0  0
 28 30  1  0  0  0  0
 30 31  1  0  0  0  0
 30 32  1  0  0  0  0
 30 33  1  0  0  0  0
M  END
$$$$

  -OEChem-01062216083D

 33 32  0     1  0  0  0  0  0999 V2000
   -4.1076   -2.3534    0.6046 H   0  0  0  0  0  0  0  0  0  0  0  0
   -3.9206   -1.3279    0.2735 C   0  0  0  0  0  0  0  0  0  0  0  0
   -4.6434   -0.6654    0.7551 H   0  0  0  0  0  0  0  0  0  0  0  0
   -4.0550   -1.2792   -0.8100 H   0  0  0  0  0  0  0  0  0  0  0  0
   -2.5088   -0.9074    0.6383 C   0  0  0  0  0  0  0  0  0  0  0  0
   -1.7878   -1.7263    1.1818 O   0  0  0  0  0  0  0  0  0  0  0  0
   -2.1039    0.3701    0.2879 N   0  0  0  0  0  0  0  0  0  0  0  0
   -2.7553    0.8359   -0.3389 H   0  0  0  0  0  0  0  0  0  0  0  0
   -0.7670    1.0082    0.3691 C   0  0  1  0  0  0  0  0  0  0  0  0
   -0.9395    1.9418    0.9124 H   0  0  0  0  0  0  0  0  0  0  0  0
    0.3639    0.2992    1.1477 C   0  0  0  0  0  0  0  0  0  0  0  0
    0.4997   -0.7141    0.7562 H   0  0  0  0  0  0  0  0  0  0  0  0
    1.3041    0.8339    0.9790 H   0  0  0  0  0  0  0  0  0  0  0  0
    0.1080    0.2548    2.6656 C   0  0  0  0  0  0  0  0  0  0  0  0
    0.0102    1.2768    3.0452 H   0  0  0  0  0  0  0  0  0  0  0  0
   -0.8228   -0.2670    2.8967 H   0  0  0  0  0  0  0  0  0  0  0  0
    1.2734   -0.4374    3.3796 C   0  0  0  0  0  0  0  0  0  0  0  0
    1.3925   -1.4510    2.9824 H   0  0  0  0  0  0  0  0  0  0  0  0
    2.2025    0.1112    3.1932 H   0  0  0  0  0  0  0  0  0  0  0  0
    1.0207   -0.5102    4.8820 C   0  0  0  0  0  0  0  0  0  0  0  0
    0.9169    0.4982    5.2971 H   0  0  0  0  0  0  0  0  0  0  0  0
    0.0912   -1.0568    5.0774 H   0  0  0  0  0  0  0  0  0  0  0  0
    2.1506   -1.1997    5.5115 N   0  0  0  0  0  0  0  0  0  0  0  0
    2.0114   -1.2926    6.5174 H   0  0  0  0  0  0  0  0  0  0  0  0
    2.3034   -2.1120    5.0807 H   0  0  0  0  0  0  0  0  0  0  0  0
   -0.2801    1.4509   -1.0300 C   0  0  0  0  0  0  0  0  0  0  0  0
   -0.7685    0.9687   -2.0450 O   0  0  0  0  0  0  0  0  0  0  0  0
    0.5567    2.5461   -1.1563 N   0  0  0  0  0  0  0  0  0  0  0  0
    0.9548    2.9344   -0.3064 H   0  0  0  0  0  0  0  0  0  0  0  0
    1.0065    3.0650   -2.4431 C   0  0  0  0  0  0  0  0  0  0  0  0
    0.1502    3.3505   -3.0634 H   0  0  0  0  0  0  0  0  0  0  0  0
    1.6343    3.9492   -2.2960 H   0  0  0  0  0  0  0  0  0  0  0  0
    1.5917    2.3091   -2.9775 H   0  0  0  0  0  0  0  0  0  0  0  0
  1  2  1  0  0  0  0
  2  3  1  0  0  0  0
  2  4  1  0  0  0  0
  2  5  1  0  0  0  0
  5  6  2  0  0  0  0
  5  7  1  0  0  0  0
  7  8  1  0  0  0  0
  7  9  1  0  0  0  0
  9 10  1  0  0  0  0
  9 11  1  0  0  0  0
  9 26  1  0  0  0  0
 11 12  1  0  0  0  0
 11 13  1  0  0  0  0
 11 14  1  0  0  0  0
 14 15  1  0  0  0  0
 14 16  1  0  0  0  0
 14 17  1  0  0  0  0
 17 18  1  0  0  0  0
 17 19  1  0  0  0  0
 17 20  1  0  0  0  0
 20 21  1  0  0  0  0
 20 22  1  0  0  0  0
 20 23  1  0  0  0  0
 23 24  1  0  0  0  0
 23 25  1  0  0  0  0
 26 27  2  0  0  0  0
 26 28  1  0  0  0  0
 28 29  1  0  0  0  0
 28 30  1  0  0  0  0
 30 31  1  0  0  0  0
 30 32  1  0  0  0  0
 30 33  1  0  0  0  0
M  END
$$$$

  -OEChem-01062216083D

 33 32  0     1  0  0  0  0  0999 V2000
   -4.0995   -2.3428    0.5981 H   0  0  0  0  0  0  0  0  0  0  0  0
   -3.9083   -1.3160    0.2737 C   0  0  0  0  0  0  0  0  0  0  0  0
   -4.6292   -0.6541    0.7594 H   0  0  0  0  0  0  0  0  0  0  0  0
   -4.0423   -1.2593   -0.8094 H   0  0  0  0  0  0  0  0  0  0  0  0
   -2.4950   -0.9028    0.6407 C   0  0  0  0  0  0  0  0  0  0  0  0
   -1.7746   -1.7284    1.1751 O   0  0  0  0  0  0  0  0  0  0  0  0
   -2.0856    0.3746    0.2963 N   0  0  0  0  0  0  0  0  0  0  0  0
   -2.7306    0.8418   -0.3375 H   0  0  0  0  0  0  0  0  0  0  0  0
   -0.7490    1.0134    0.3762 C   0  0  1  0  0  0  0  0  0  0  0  0
   -0.9158    1.9486    0.9184 H   0  0  0  0  0  0  0  0  0  0  0  0
    0.3765    0.2955    1.1579 C   0  0  0  0  0  0  0  0  0  0  0  0
    0.5078   -0.7181    0.7655 H   0  0  0  0  0  0  0  0  0  0  0  0
    1.3224    0.8215    0.9979 H   0  0  0  0  0  0  0  0  0  0  0  0
    0.1135    0.2517    2.6745 C   0  0  0  0  0  0  0  0  0  0  0  0
    0.0198    1.2739    3.0547 H   0  0  0  0  0  0  0  0  0  0  0  0
   -0.8214   -0.2652    2.9004 H   0  0  0  0  0  0  0  0  0  0  0  0
    1.2722   -0.4484    3.3916 C   0  0  0  0  0  0  0  0  0  0  0  0
    1.3863   -1.4623    2.9935 H   0  0  0  0  0  0  0  0  0  0  0  0
    2.2051    0.0945    3.2088 H   0  0  0  0  0  0  0  0  0  0  0  0
    1.0145   -0.5217    4.8932 C   0  0  0  0  0  0  0  0  0  0  0  0
    0.9162    0.4874    5.3086 H   0  0  0  0  0  0  0  0  0  0  0  0
    0.0807   -1.0622    5.0853 H   0  0  0  0  0  0  0  0  0  0  0  0
    2.1383   -1.2189    5.5257 N   0  0  0  0  0  0  0  0  0  0  0  0
    1.9974   -1.3074    6.5319 H   0  0  0  0  0  0  0  0  0  0  0  0
    2.2835   -2.1340    5.0984 H   0  0  0  0  0  0  0  0  0  0  0  0
   -0.2728    1.4597   -1.0271 C   0  0  0  0  0  0  0  0  0  0  0  0
   -0.9323    1.1879   -2.0244 O   0  0  0  0  0  0  0  0  0  0  0  0
    0.7864    2.3410   -1.1580 N   0  0  0  0  0  0  0  0  0  0  0  0
    1.3235    2.5562   -0.3231 H   0  0  0  0  0  0  0  0  0  0  0  0
    1.2464    2.8577   -2.4421 C   0  0  0  0  0  0  0  0  0  0  0  0
    0.4342    3.3784   -2.9603 H   0  0  0  0  0  0  0  0  0  0  0  0
    2.0678    3.5650   -2.2926 H   0  0  0  0  0  0  0  0  0  0  0  0
    1.6034    2.0408   -3.0779 H   0  0  0  0  0  0  0  0  0  0  0  0
  1  2  1  0  0  0  0
  2  3  1  0  0  0  0
  2  4  1  0  0  0  0
  2  5  1  0  0  0  0
  5  6  2  0  0  0  0
  5  7  1  0  0  0  0
  7  8  1  0  0  0  0
  7  9  1  0  0  0  0
  9 10  1  0  0  0  0
  9 11  1  0  0  0  0
  9 26  1  0  0  0  0
 11 12  1  0  0  0  0
 11 13  1  0  0  0  0
 11 14  1  0  0  0  0
 14 15  1  0  0  0  0
 14 16  1  0  0  0  0
 14 17  1  0  0  0  0
 17 18  1  0  0  0  0
 17 19  1  0  0  0  0
 17 20  1  0  0  0  0
 20 21  1  0  0  0  0
 20 22  1  0  0  0  0
 20 23  1  0  0  0  0
 23 24  1  0  0  0  0
 23 25  1  0  0  0  0
 26 27  2  0  0  0  0
 26 28  1  0  0  0  0
 28 29  1  0  0  0  0
 28 30  1  0  0  0  0
 30 31  1  0  0  0  0
 30 32  1  0  0  0  0
 30 33  1  0  0  0  0
M  END
$$$$

  -OEChem-01062216083D

 33 32  0     1  0  0  0  0  0999 V2000
   -4.2443   -2.1962    0.7246 H   0  0  0  0  0  0  0  0  0  0  0  0
   -4.0100   -1.1790    0.3984 C   0  0  0  0  0  0  0  0  0  0  0  0
   -4.5884   -0.4753    1.0015 H   0  0  0  0  0  0  0  0  0  0  0  0
   -4.2960   -1.0704   -0.6508 H   0  0  0  0  0  0  0  0  0  0  0  0
   -2.5261   -0.9041    0.5589 C   0  0  0  0  0  0  0  0  0  0  0  0
   -1.7947   -1.8371    0.8405 O   0  0  0  0  0  0  0  0  0  0  0  0
   -2.0653    0.3628    0.2476 N   0  0  0  0  0  0  0  0  0  0  0  0
   -2.7582    0.9464   -0.2185 H   0  0  0  0  0  0  0  0  0  0  0  0
   -0.7150    0.9738    0.3117 C   0  0  1  0  0  0  0  0  0  0  0  0
   -0.8026    1.7537    1.0737 H   0  0  0  0  0  0  0  0  0  0  0  0
    0.4864    0.1185    0.7894 C   0  0  0  0  0  0  0  0  0  0  0  0
    0.5382   -0.7905    0.1808 H   0  0  0  0  0  0  0  0  0  0  0  0
    1.4180    0.6677    0.6280 H   0  0  0  0  0  0  0  0  0  0  0  0
    0.4241   -0.2591    2.2838 C   0  0  0  0  0  0  0  0  0  0  0  0
    0.4042    0.6584    2.8804 H   0  0  0  0  0  0  0  0  0  0  0  0
   -0.4771   -0.8178    2.5331 H   0  0  0  0  0  0  0  0  0  0  0  0
    1.6582   -1.0806    2.6719 C   0  0  0  0  0  0  0  0  0  0  0  0
    1.7040   -1.9820    2.0518 H   0  0  0  0  0  0  0  0  0  0  0  0
    2.5668   -0.4975    2.4898 H   0  0  0  0  0  0  0  0  0  0  0  0
    1.5999   -1.4835    4.1419 C   0  0  0  0  0  0  0  0  0  0  0  0
    1.5710   -0.5912    4.7769 H   0  0  0  0  0  0  0  0  0  0  0  0
    0.6923   -2.0671    4.3332 H   0  0  0  0  0  0  0  0  0  0  0  0
    2.7875   -2.2843    4.4537 N   0  0  0  0  0  0  0  0  0  0  0  0
    2.7818   -2.5870    5.4276 H   0  0  0  0  0  0  0  0  0  0  0  0
    2.8588   -3.0856    3.8260 H   0  0  0  0  0  0  0  0  0  0  0  0
   -0.4305    1.7690   -0.9871 C   0  0  0  0  0  0  0  0  0  0  0  0
   -1.3252    1.9397   -1.8089 O   0  0  0  0  0  0  0  0  0  0  0  0
    0.7684    2.4349   -1.1748 N   0  0  0  0  0  0  0  0  0  0  0  0
    1.5014    2.2862   -0.4875 H   0  0  0  0  0  0  0  0  0  0  0  0
    1.0639    3.2391   -2.3550 C   0  0  0  0  0  0  0  0  0  0  0  0
    0.3244    4.0388   -2.4701 H   0  0  0  0  0  0  0  0  0  0  0  0
    2.0535    3.6968   -2.2628 H   0  0  0  0  0  0  0  0  0  0  0  0
    1.0522    2.6161   -3.2555 H   0  0  0  0  0  0  0  0  0  0  0  0
  1  2  1  0  0  0  0
  2  3  1  0  0  0  0
  2  4  1  0  0  0  0
  2  5  1  0  0  0  0
  5  6  2  0  0  0  0
  5  7  1  0  0  0  0
  7  8  1  0  0  0  0
  7  9  1  0  0  0  0
  9 10  1  0  0  0  0
  9 11  1  0  0  0  0
  9 26  1  0  0  0  0
 11 12  1  0  0  0  0
 11 13  1  0  0  0  0
 11 14  1  0  0  0  0
 14 15  1  0  0  0  0
 14 16  1  0  0  0  0
 14 17  1  0  0  0  0
 17 18  1  0  0  0  0
 17 19  1  0  0  0  0
 17 20  1  0  0  0  0
 20 21  1  0  0  0  0
 20 22  1  0  0  0  0
 20 23  1  0  0  0  0
 23 24  1  0  0  0  0
 23 25  1  0  0  0  0
 26 27  2  0  0  0  0
 26 28  1  0  0  0  0
 28 29  1  0  0  0  0
 28 30  1  0  0  0  0
 30 31  1  0  0  0  0
 30 32  1  0  0  0  0
 30 33  1  0  0  0  0
M  END
$$$$

  -OEChem-01062216083D

 33 32  0     1  0  0  0  0  0999 V2000
   -4.2234   -2.1878    0.7074 H   0  0  0  0  0  0  0  0  0  0  0  0
   -3.9874   -1.1667    0.3949 C   0  0  0  0  0  0  0  0  0  0  0  0
   -4.5541   -0.4695    1.0166 H   0  0  0  0  0  0  0  0  0  0  0  0
   -4.2856   -1.0396   -0.6488 H   0  0  0  0  0  0  0  0  0  0  0  0
   -2.5006   -0.9022    0.5423 C   0  0  0  0  0  0  0  0  0  0  0  0
   -1.7689   -1.8418    0.8012 O   0  0  0  0  0  0  0  0  0  0  0  0
   -2.0367    0.3665    0.2446 N   0  0  0  0  0  0  0  0  0  0  0  0
   -2.7358    0.9717   -0.1842 H   0  0  0  0  0  0  0  0  0  0  0  0
   -0.6872    0.9762    0.3230 C   0  0  1  0  0  0  0  0  0  0  0  0
   -0.7756    1.7538    1.0875 H   0  0  0  0  0  0  0  0  0  0  0  0
    0.5076    0.1146    0.8072 C   0  0  0  0  0  0  0  0  0  0  0  0
    0.5664   -0.7897    0.1925 H   0  0  0  0  0  0  0  0  0  0  0  0
    1.4413    0.6652    0.6666 H   0  0  0  0  0  0  0  0  0  0  0  0
    0.4272   -0.2700    2.2986 C   0  0  0  0  0  0  0  0  0  0  0  0
    0.4023    0.6437    2.9011 H   0  0  0  0  0  0  0  0  0  0  0  0
   -0.4785   -0.8290    2.5326 H   0  0  0  0  0  0  0  0  0  0  0  0
    1.6546   -1.0972    2.6956 C   0  0  0  0  0  0  0  0  0  0  0  0
    1.7045   -1.9951    2.0709 H   0  0  0  0  0  0  0  0  0  0  0  0
    2.5663   -0.5152    2.5260 H   0  0  0  0  0  0  0  0  0  0  0  0
    1.5812   -1.5085    4.1628 C   0  0  0  0  0  0  0  0  0  0  0  0
    1.5495   -0.6193    4.8021 H   0  0  0  0  0  0  0  0  0  0  0  0
    0.6701   -2.0903    4.3431 H   0  0  0  0  0  0  0  0  0  0  0  0
    2.7642   -2.3141    4.4809 N   0  0  0  0  0  0  0  0  0  0  0  0
    2.7546   -2.6133    5.4559 H   0  0  0  0  0  0  0  0  0  0  0  0
    2.8344   -3.1176    3.8560 H   0  0  0  0  0  0  0  0  0  0  0  0
   -0.4112    1.7769   -0.9755 C   0  0  0  0  0  0  0  0  0  0  0  0
   -1.3552    2.1425   -1.6693 O   0  0  0  0  0  0  0  0  0  0  0  0
    0.8606    2.1972   -1.3247 N   0  0  0  0  0  0  0  0  0  0  0  0
    1.6361    1.8608   -0.7620 H   0  0  0  0  0  0  0  0  0  0  0  0
    1.1497    2.9651   -2.5301 C   0  0  0  0  0  0  0  0  0  0  0  0
    0.5905    3.9067   -2.5295 H   0  0  0  0  0  0  0  0  0  0  0  0
    2.2172    3.1992   -2.5821 H   0  0  0  0  0  0  0  0  0  0  0  0
    0.8761    2.3931   -3.4229 H   0  0  0  0  0  0  0  0  0  0  0  0
  1  2  1  0  0  0  0
  2  3  1  0  0  0  0
  2  4  1  0  0  0  0
  2  5  1  0  0  0  0
  5  6  2  0  0  0  0
  5  7  1  0  0  0  0
  7  8  1  0  0  0  0
  7  9  1  0  0  0  0
  9 10  1  0  0  0  0
  9 11  1  0  0  0  0
  9 26  1  0  0  0  0
 11 12  1  0  0  0  0
 11 13  1  0  0  0  0
 11 14  1  0  0  0  0
 14 15  1  0  0  0  0
 14 16  1  0  0  0  0
 14 17  1  0  0  0  0
 17 18  1  0  0  0  0
 17 19  1  0  0  0  0
 17 20  1  0  0  0  0
 20 21  1  0  0  0  0
 20 22  1  0  0  0  0
 20 23  1  0  0  0  0
 23 24  1  0  0  0  0
 23 25  1  0  0  0  0
 26 27  2  0  0  0  0
 26 28  1  0  0  0  0
 28 29  1  0  0  0  0
 28 30  1  0  0  0  0
 30 31  1  0  0  0  0
 30 32  1  0  0  0  0
 30 33  1  0  0  0  0
M  END
$$$$

  -OEChem-01062216083D

 33 32  0     1  0  0  0  0  0999 V2000
   -4.2037   -2.1819    0.7259 H   0  0  0  0  0  0  0  0  0  0  0  0
   -3.9715   -1.1606    0.4109 C   0  0  0  0  0  0  0  0  0  0  0  0
   -4.5188   -0.4633    1.0497 H   0  0  0  0  0  0  0  0  0  0  0  0
   -4.2967   -1.0280   -0.6241 H   0  0  0  0  0  0  0  0  0  0  0  0
   -2.4799   -0.9034    0.5209 C   0  0  0  0  0  0  0  0  0  0  0  0
   -1.7429   -1.8474    0.7472 O   0  0  0  0  0  0  0  0  0  0  0  0
   -2.0161    0.3668    0.2306 N   0  0  0  0  0  0  0  0  0  0  0  0
   -2.7244    0.9922   -0.1513 H   0  0  0  0  0  0  0  0  0  0  0  0
   -0.6677    0.9743    0.3250 C   0  0  1  0  0  0  0  0  0  0  0  0
   -0.7611    1.7502    1.0907 H   0  0  0  0  0  0  0  0  0  0  0  0
    0.5228    0.1117    0.8171 C   0  0  0  0  0  0  0  0  0  0  0  0
    0.5952   -0.7887    0.1981 H   0  0  0  0  0  0  0  0  0  0  0  0
    1.4539    0.6717    0.6936 H   0  0  0  0  0  0  0  0  0  0  0  0
    0.4264   -0.2787    2.3056 C   0  0  0  0  0  0  0  0  0  0  0  0
    0.3926    0.6320    2.9123 H   0  0  0  0  0  0  0  0  0  0  0  0
   -0.4814   -0.8416    2.5238 H   0  0  0  0  0  0  0  0  0  0  0  0
    1.6502   -1.1066    2.7122 C   0  0  0  0  0  0  0  0  0  0  0  0
    1.7094   -2.0015    2.0841 H   0  0  0  0  0  0  0  0  0  0  0  0
    2.5629   -0.5224    2.5562 H   0  0  0  0  0  0  0  0  0  0  0  0
    1.5610   -1.5234    4.1768 C   0  0  0  0  0  0  0  0  0  0  0  0
    1.5232   -0.6362    4.8185 H   0  0  0  0  0  0  0  0  0  0  0  0
    0.6480   -2.1054    4.3463 H   0  0  0  0  0  0  0  0  0  0  0  0
    2.7411   -2.3297    4.5040 N   0  0  0  0  0  0  0  0  0  0  0  0
    2.7215   -2.6338    5.4773 H   0  0  0  0  0  0  0  0  0  0  0  0
    2.8188   -3.1301    3.8762 H   0  0  0  0  0  0  0  0  0  0  0  0
   -0.3884    1.7750   -0.9714 C   0  0  0  0  0  0  0  0  0  0  0  0
   -1.3244    2.3272   -1.5406 O   0  0  0  0  0  0  0  0  0  0  0  0
    0.8871    1.9423   -1.4824 N   0  0  0  0  0  0  0  0  0  0  0  0
    1.6391    1.4230   -1.0390 H   0  0  0  0  0  0  0  0  0  0  0  0
    1.1696    2.6709   -2.7135 C   0  0  0  0  0  0  0  0  0  0  0  0
    0.8070    3.7018   -2.6419 H   0  0  0  0  0  0  0  0  0  0  0  0
    2.2480    2.6980   -2.8973 H   0  0  0  0  0  0  0  0  0  0  0  0
    0.6843    2.1845   -3.5663 H   0  0  0  0  0  0  0  0  0  0  0  0
  1  2  1  0  0  0  0
  2  3  1  0  0  0  0
  2  4  1  0  0  0  0
  2  5  1  0  0  0  0
  5  6  2  0  0  0  0
  5  7  1  0  0  0  0
  7  8  1  0  0  0  0
  7  9  1  0  0  0  0
  9 10  1  0  0  0  0
  9 11  1  0  0  0  0
  9 26  1  0  0  0  0
 11 12  1  0  0  0  0
 11 13  1  0  0  0  0
 11 14  1  0  0  0  0
 14 15  1  0  0  0  0
 14 16  1  0  0  0  0
 14 17  1  0  0  0  0
 17 18  1  0  0  0  0
 17 19  1  0  0  0  0
 17 20  1  0  0  0  0
 20 21  1  0  0  0  0
 20 22  1  0  0  0  0
 20 23  1  0  0  0  0
 23 24  1  0  0  0  0
 23 25  1  0  0  0  0
 26 27  2  0  0  0  0
 26 28  1  0  0  0  0
 28 29  1  0  0  0  0
 28 30  1  0  0  0  0
 30 31  1  0  0  0  0
 30 32  1  0  0  0  0
 30 33  1  0  0  0  0
M  END
$$$$

  -OEChem-01062216083D

 33 32  0     1  0  0  0  0  0999 V2000
   -4.1878   -2.1795    0.7418 H   0  0  0  0  0  0  0  0  0  0  0  0
   -3.9608   -1.1564    0.4289 C   0  0  0  0  0  0  0  0  0  0  0  0
   -4.4912   -0.4632    1.0859 H   0  0  0  0  0  0  0  0  0  0  0  0
   -4.3094   -1.0155   -0.5971 H   0  0  0  0  0  0  0  0  0  0  0  0
   -2.4669   -0.9026    0.5055 C   0  0  0  0  0  0  0  0  0  0  0  0
   -1.7254   -1.8489    0.7065 O   0  0  0  0  0  0  0  0  0  0  0  0
   -2.0055    0.3681    0.2143 N   0  0  0  0  0  0  0  0  0  0  0  0
   -2.7242    1.0088   -0.1193 H   0  0  0  0  0  0  0  0  0  0  0  0
   -0.6592    0.9757    0.3251 C   0  0  1  0  0  0  0  0  0  0  0  0
   -0.7587    1.7537    1.0883 H   0  0  0  0  0  0  0  0  0  0  0  0
    0.5293    0.1157    0.8239 C   0  0  0  0  0  0  0  0  0  0  0  0
    0.6113   -0.7822    0.2024 H   0  0  0  0  0  0  0  0  0  0  0  0
    1.4576    0.6840    0.7080 H   0  0  0  0  0  0  0  0  0  0  0  0
    0.4218   -0.2824    2.3092 C   0  0  0  0  0  0  0  0  0  0  0  0
    0.3774    0.6249    2.9202 H   0  0  0  0  0  0  0  0  0  0  0  0
   -0.4851   -0.8516    2.5147 H   0  0  0  0  0  0  0  0  0  0  0  0
    1.6461   -1.1074    2.7211 C   0  0  0  0  0  0  0  0  0  0  0  0
    1.7132   -1.9990    2.0889 H   0  0  0  0  0  0  0  0  0  0  0  0
    2.5575   -0.5184    2.5748 H   0  0  0  0  0  0  0  0  0  0  0  0
    1.5484   -1.5334    4.1825 C   0  0  0  0  0  0  0  0  0  0  0  0
    1.5006   -0.6505    4.8295 H   0  0  0  0  0  0  0  0  0  0  0  0
    0.6373   -2.1213    4.3408 H   0  0  0  0  0  0  0  0  0  0  0  0
    2.7296   -2.3363    4.5139 N   0  0  0  0  0  0  0  0  0  0  0  0
    2.7075   -2.6400    5.4873 H   0  0  0  0  0  0  0  0  0  0  0  0
    2.8122   -3.1366    3.8864 H   0  0  0  0  0  0  0  0  0  0  0  0
   -0.3685    1.7674   -0.9709 C   0  0  0  0  0  0  0  0  0  0  0  0
   -1.2483    2.4870   -1.4305 O   0  0  0  0  0  0  0  0  0  0  0  0
    0.8437    1.6865   -1.6336 N   0  0  0  0  0  0  0  0  0  0  0  0
    1.5166    1.0078   -1.2888 H   0  0  0  0  0  0  0  0  0  0  0  0
    1.1147    2.3668   -2.8943 C   0  0  0  0  0  0  0  0  0  0  0  0
    0.9763    3.4476   -2.7845 H   0  0  0  0  0  0  0  0  0  0  0  0
    2.1463    2.1827   -3.2094 H   0  0  0  0  0  0  0  0  0  0  0  0
    0.4418    2.0030   -3.6779 H   0  0  0  0  0  0  0  0  0  0  0  0
  1  2  1  0  0  0  0
  2  3  1  0  0  0  0
  2  4  1  0  0  0  0
  2  5  1  0  0  0  0
  5  6  2  0  0  0  0
  5  7  1  0  0  0  0
  7  8  1  0  0  0  0
  7  9  1  0  0  0  0
  9 10  1  0  0  0  0
  9 11  1  0  0  0  0
  9 26  1  0  0  0  0
 11 12  1  0  0  0  0
 11 13  1  0  0  0  0
 11 14  1  0  0  0  0
 14 15  1  0  0  0  0
 14 16  1  0  0  0  0
 14 17  1  0  0  0  0
 17 18  1  0  0  0  0
 17 19  1  0  0  0  0
 17 20  1  0  0  0  0
 20 21  1  0  0  0  0
 20 22  1  0  0  0  0
 20 23  1  0  0  0  0
 23 24  1  0  0  0  0
 23 25  1  0  0  0  0
 26 27  2  0  0  0  0
 26 28  1  0  0  0  0
 28 29  1  0  0  0  0
 28 30  1  0  0  0  0
 30 31  1  0  0  0  0
 30 32  1  0  0  0  0
 30 33  1  0  0  0  0
M  END
$$$$

  -OEChem-01062216083D

 33 32  0     1  0  0  0  0  0999 V2000
   -4.1661   -2.1813    0.7960 H   0  0  0  0  0  0  0  0  0  0  0  0
   -3.9511   -1.1600    0.4691 C   0  0  0  0  0  0  0  0  0  0  0  0
   -4.4592   -0.4633    1.1402 H   0  0  0  0  0  0  0  0  0  0  0  0
   -4.3362   -1.0256   -0.5447 H   0  0  0  0  0  0  0  0  0  0  0  0
   -2.4552   -0.9063    0.4922 C   0  0  0  0  0  0  0  0  0  0  0  0
   -1.7062   -1.8538    0.6564 O   0  0  0  0  0  0  0  0  0  0  0  0
   -2.0000    0.3655    0.1955 N   0  0  0  0  0  0  0  0  0  0  0  0
   -2.7315    1.0190   -0.0788 H   0  0  0  0  0  0  0  0  0  0  0  0
   -0.6551    0.9743    0.3158 C   0  0  1  0  0  0  0  0  0  0  0  0
   -0.7599    1.7527    1.0780 H   0  0  0  0  0  0  0  0  0  0  0  0
    0.5332    0.1169    0.8179 C   0  0  0  0  0  0  0  0  0  0  0  0
    0.6230   -0.7804    0.1971 H   0  0  0  0  0  0  0  0  0  0  0  0
    1.4586    0.6907    0.7028 H   0  0  0  0  0  0  0  0  0  0  0  0
    0.4168   -0.2843    2.3013 C   0  0  0  0  0  0  0  0  0  0  0  0
    0.3648    0.6215    2.9140 H   0  0  0  0  0  0  0  0  0  0  0  0
   -0.4901   -0.8575    2.4969 H   0  0  0  0  0  0  0  0  0  0  0  0
    1.6395   -1.1070    2.7217 C   0  0  0  0  0  0  0  0  0  0  0  0
    1.7133   -1.9978    2.0895 H   0  0  0  0  0  0  0  0  0  0  0  0
    2.5507   -0.5158    2.5833 H   0  0  0  0  0  0  0  0  0  0  0  0
    1.5312   -1.5350    4.1817 C   0  0  0  0  0  0  0  0  0  0  0  0
    1.4766   -0.6536    4.8298 H   0  0  0  0  0  0  0  0  0  0  0  0
    0.6204   -2.1255    4.3321 H   0  0  0  0  0  0  0  0  0  0  0  0
    2.7112   -2.3357    4.5218 N   0  0  0  0  0  0  0  0  0  0  0  0
    2.6732   -2.6546    5.4898 H   0  0  0  0  0  0  0  0  0  0  0  0
    2.8099   -3.1256    3.8838 H   0  0  0  0  0  0  0  0  0  0  0  0
   -0.3485    1.7586   -0.9777 C   0  0  0  0  0  0  0  0  0  0  0  0
   -1.1271    2.6355   -1.3328 O   0  0  0  0  0  0  0  0  0  0  0  0
    0.7341    1.4508   -1.7823 N   0  0  0  0  0  0  0  0  0  0  0  0
    1.2904    0.6419   -1.5200 H   0  0  0  0  0  0  0  0  0  0  0  0
    0.9867    2.0925   -3.0666 C   0  0  0  0  0  0  0  0  0  0  0  0
    1.0703    3.1775   -2.9439 H   0  0  0  0  0  0  0  0  0  0  0  0
    1.9224    1.7223   -3.4964 H   0  0  0  0  0  0  0  0  0  0  0  0
    0.1735    1.8789   -3.7680 H   0  0  0  0  0  0  0  0  0  0  0  0
  1  2  1  0  0  0  0
  2  3  1  0  0  0  0
  2  4  1  0  0  0  0
  2  5  1  0  0  0  0
  5  6  2  0  0  0  0
  5  7  1  0  0  0  0
  7  8  1  0  0  0  0
  7  9  1  0  0  0  0
  9 10  1  0  0  0  0
  9 11  1  0  0  0  0
  9 26  1  0  0  0  0
 11 12  1  0  0  0  0
 11 13  1  0  0  0  0
 11 14  1  0  0  0  0
 14 15  1  0  0  0  0
 14 16  1  0  0  0  0
 14 17  1  0  0  0  0
 17 18  1  0  0  0  0
 17 19  1  0  0  0  0
 17 20  1  0  0  0  0
 20 21  1  0  0  0  0
 20 22  1  0  0  0  0
 20 23  1  0  0  0  0
 23 24  1  0  0  0  0
 23 25  1  0  0  0  0
 26 27  2  0  0  0  0
 26 28  1  0  0  0  0
 28 29  1  0  0  0  0
 28 30  1  0  0  0  0
 30 31  1  0  0  0  0
 30 32  1  0  0  0  0
 30 33  1  0  0  0  0
M  END
$$$$

  -OEChem-01062216083D

 33 32  0     1  0  0  0  0  0999 V2000
   -4.1603   -2.1847    0.8147 H   0  0  0  0  0  0  0  0  0  0  0  0
   -3.9514   -1.1593    0.4970 C   0  0  0  0  0  0  0  0  0  0  0  0
   -4.4426   -0.4711    1.1891 H   0  0  0  0  0  0  0  0  0  0  0  0
   -4.3599   -1.0109   -0.5056 H   0  0  0  0  0  0  0  0  0  0  0  0
   -2.4553   -0.9074    0.4885 C   0  0  0  0  0  0  0  0  0  0  0  0
   -1.7024   -1.8555    0.6304 O   0  0  0  0  0  0  0  0  0  0  0  0
   -2.0041    0.3629    0.1805 N   0  0  0  0  0  0  0  0  0  0  0  0
   -2.7435    1.0226   -0.0531 H   0  0  0  0  0  0  0  0  0  0  0  0
   -0.6607    0.9722    0.3087 C   0  0  1  0  0  0  0  0  0  0  0  0
   -0.7701    1.7535    1.0680 H   0  0  0  0  0  0  0  0  0  0  0  0
    0.5279    0.1198    0.8146 C   0  0  0  0  0  0  0  0  0  0  0  0
    0.6224   -0.7773    0.1945 H   0  0  0  0  0  0  0  0  0  0  0  0
    1.4503    0.6985    0.6967 H   0  0  0  0  0  0  0  0  0  0  0  0
    0.4097   -0.2849    2.2968 C   0  0  0  0  0  0  0  0  0  0  0  0
    0.3515    0.6186    2.9124 H   0  0  0  0  0  0  0  0  0  0  0  0
   -0.4947   -0.8640    2.4877 H   0  0  0  0  0  0  0  0  0  0  0  0
    1.6359   -1.1027    2.7168 C   0  0  0  0  0  0  0  0  0  0  0  0
    1.7156   -1.9908    2.0814 H   0  0  0  0  0  0  0  0  0  0  0  0
    2.5440   -0.5062    2.5811 H   0  0  0  0  0  0  0  0  0  0  0  0
    1.5279   -1.5351    4.1755 C   0  0  0  0  0  0  0  0  0  0  0  0
    1.4684   -0.6549    4.8252 H   0  0  0  0  0  0  0  0  0  0  0  0
    0.6196   -2.1299    4.3236 H   0  0  0  0  0  0  0  0  0  0  0  0
    2.7118   -2.3307    4.5146 N   0  0  0  0  0  0  0  0  0  0  0  0
    2.6802   -2.6443    5.4844 H   0  0  0  0  0  0  0  0  0  0  0  0
    2.8107   -3.1234    3.8801 H   0  0  0  0  0  0  0  0  0  0  0  0
   -0.3361    1.7423   -0.9862 C   0  0  0  0  0  0  0  0  0  0  0  0
   -0.9627    2.7627   -1.2420 O   0  0  0  0  0  0  0  0  0  0  0  0
    0.5561    1.2410   -1.9166 N   0  0  0  0  0  0  0  0  0  0  0  0
    0.9536    0.3247   -1.7278 H   0  0  0  0  0  0  0  0  0  0  0  0
    0.7885    1.8569   -3.2168 C   0  0  0  0  0  0  0  0  0  0  0  0
    1.1179    2.8944   -3.0961 H   0  0  0  0  0  0  0  0  0  0  0  0
    1.5649    1.3105   -3.7606 H   0  0  0  0  0  0  0  0  0  0  0  0
   -0.1285    1.8450   -3.8151 H   0  0  0  0  0  0  0  0  0  0  0  0
  1  2  1  0  0  0  0
  2  3  1  0  0  0  0
  2  4  1  0  0  0  0
  2  5  1  0  0  0  0
  5  6  2  0  0  0  0
  5  7  1  0  0  0  0
  7  8  1  0  0  0  0
  7  9  1  0  0  0  0
  9 10  1  0  0  0  0
  9 11  1  0  0  0  0
  9 26  1  0  0  0  0
 11 12  1  0  0  0  0
 11 13  1  0  0  0  0
 11 14  1  0  0  0  0
 14 15  1  0  0  0  0
 14 16  1  0  0  0  0
 14 17  1  0  0  0  0
 17 18  1  0  0  0  0
 17 19  1  0  0  0  0
 17 20  1  0  0  0  0
 20 21  1  0  0  0  0
 20 22  1  0  0  0  0
 20 23  1  0  0  0  0
 23 24  1  0  0  0  0
 23 25  1  0  0  0  0
 26 27  2  0  0  0  0
 26 28  1  0  0  0  0
 28 29  1  0  0  0  0
 28 30  1  0  0  0  0
 30 31  1  0  0  0  0
 30 32  1  0  0  0  0
 30 33  1  0  0  0  0
M  END
$$$$

  -OEChem-01062216083D

 33 32  0     1  0  0  0  0  0999 V2000
   -4.1514   -2.1928    0.8622 H   0  0  0  0  0  0  0  0  0  0  0  0
   -3.9531   -1.1661    0.5415 C   0  0  0  0  0  0  0  0  0  0  0  0
   -4.4201   -0.4807    1.2528 H   0  0  0  0  0  0  0  0  0  0  0  0
   -4.3957   -1.0137   -0.4459 H   0  0  0  0  0  0  0  0  0  0  0  0
   -2.4577   -0.9147    0.4839 C   0  0  0  0  0  0  0  0  0  0  0  0
   -1.6993   -1.8628    0.5932 O   0  0  0  0  0  0  0  0  0  0  0  0
   -2.0145    0.3549    0.1625 N   0  0  0  0  0  0  0  0  0  0  0  0
   -2.7630    1.0177   -0.0273 H   0  0  0  0  0  0  0  0  0  0  0  0
   -0.6731    0.9684    0.2967 C   0  0  1  0  0  0  0  0  0  0  0  0
   -0.7879    1.7522    1.0527 H   0  0  0  0  0  0  0  0  0  0  0  0
    0.5189    0.1226    0.8042 C   0  0  0  0  0  0  0  0  0  0  0  0
    0.6214   -0.7733    0.1837 H   0  0  0  0  0  0  0  0  0  0  0  0
    1.4376    0.7074    0.6862 H   0  0  0  0  0  0  0  0  0  0  0  0
    0.3999   -0.2851    2.2849 C   0  0  0  0  0  0  0  0  0  0  0  0
    0.3339    0.6172    2.9013 H   0  0  0  0  0  0  0  0  0  0  0  0
   -0.5012   -0.8709    2.4710 H   0  0  0  0  0  0  0  0  0  0  0  0
    1.6301   -1.0960    2.7067 C   0  0  0  0  0  0  0  0  0  0  0  0
    1.7181   -1.9824    2.0699 H   0  0  0  0  0  0  0  0  0  0  0  0
    2.5347   -0.4931    2.5745 H   0  0  0  0  0  0  0  0  0  0  0  0
    1.5216   -1.5315    4.1644 C   0  0  0  0  0  0  0  0  0  0  0  0
    1.4555   -0.6527    4.8153 H   0  0  0  0  0  0  0  0  0  0  0  0
    0.6167   -2.1321    4.3096 H   0  0  0  0  0  0  0  0  0  0  0  0
    2.7097   -2.3203    4.5048 N   0  0  0  0  0  0  0  0  0  0  0  0
    2.6768   -2.6378    5.4734 H   0  0  0  0  0  0  0  0  0  0  0  0
    2.8173   -3.1095    3.8673 H   0  0  0  0  0  0  0  0  0  0  0  0
   -0.3326    1.7242   -1.0001 C   0  0  0  0  0  0  0  0  0  0  0  0
   -0.7484    2.8643   -1.1594 O   0  0  0  0  0  0  0  0  0  0  0  0
    0.3188    1.0820   -2.0365 N   0  0  0  0  0  0  0  0  0  0  0  0
    0.5288    0.0955   -1.9073 H   0  0  0  0  0  0  0  0  0  0  0  0
    0.5430    1.6888   -3.3419 C   0  0  0  0  0  0  0  0  0  0  0  0
    1.1073    2.6216   -3.2386 H   0  0  0  0  0  0  0  0  0  0  0  0
    1.1147    1.0095   -3.9816 H   0  0  0  0  0  0  0  0  0  0  0  0
   -0.4118    1.9063   -3.8317 H   0  0  0  0  0  0  0  0  0  0  0  0
  1  2  1  0  0  0  0
  2  3  1  0  0  0  0
  2  4  1  0  0  0  0
  2  5  1  0  0  0  0
  5  6  2  0  0  0  0
  5  7  1  0  0  0  0
  7  8  1  0  0  0  0
  7  9  1  0  0  0  0
  9 10  1  0  0  0  0
  9 11  1  0  0  0  0
  9 26  1  0  0  0  0
 11 12  1  0  0  0  0
 11 13  1  0  0  0  0
 11 14  1  0  0  0  0
 14 15  1  0  0  0  0
 14 16  1  0  0  0  0
 14 17  1  0  0  0  0
 17 18  1  0  0  0  0
 17 19  1  0  0  0  0
 17 20  1  0  0  0  0
 20 21  1  0  0  0  0
 20 22  1  0  0  0  0
 20 23  1  0  0  0  0
 23 24  1  0  0  0  0
 23 25  1  0  0  0  0
 26 27  2  0  0  0  0
 26 28  1  0  0  0  0
 28 29  1  0  0  0  0
 28 30  1  0  0  0  0
 30 31  1  0  0  0  0
 30 32  1  0  0  0  0
 30 33  1  0  0  0  0
M  END
$$$$

  -OEChem-01062216083D

 33 32  0     1  0  0  0  0  0999 V2000
   -4.1554   -2.2137    0.8866 H   0  0  0  0  0  0  0  0  0  0  0  0
   -3.9661   -1.1790    0.5873 C   0  0  0  0  0  0  0  0  0  0  0  0
   -4.4156   -0.5127    1.3275 H   0  0  0  0  0  0  0  0  0  0  0  0
   -4.4338   -1.0031   -0.3845 H   0  0  0  0  0  0  0  0  0  0  0  0
   -2.4726   -0.9243    0.4976 C   0  0  0  0  0  0  0  0  0  0  0  0
   -1.7101   -1.8710    0.5847 O   0  0  0  0  0  0  0  0  0  0  0  0
   -2.0373    0.3436    0.1581 N   0  0  0  0  0  0  0  0  0  0  0  0
   -2.7934    1.0054   -0.0010 H   0  0  0  0  0  0  0  0  0  0  0  0
   -0.6970    0.9635    0.2878 C   0  0  1  0  0  0  0  0  0  0  0  0
   -0.8129    1.7517    1.0391 H   0  0  0  0  0  0  0  0  0  0  0  0
    0.5000    0.1246    0.7919 C   0  0  0  0  0  0  0  0  0  0  0  0
    0.6054   -0.7705    0.1707 H   0  0  0  0  0  0  0  0  0  0  0  0
    1.4152    0.7138    0.6695 H   0  0  0  0  0  0  0  0  0  0  0  0
    0.3889   -0.2832    2.2731 C   0  0  0  0  0  0  0  0  0  0  0  0
    0.3201    0.6188    2.8899 H   0  0  0  0  0  0  0  0  0  0  0  0
   -0.5080   -0.8745    2.4629 H   0  0  0  0  0  0  0  0  0  0  0  0
    1.6254   -1.0873    2.6891 C   0  0  0  0  0  0  0  0  0  0  0  0
    1.7145   -1.9733    2.0520 H   0  0  0  0  0  0  0  0  0  0  0  0
    2.5261   -0.4802    2.5523 H   0  0  0  0  0  0  0  0  0  0  0  0
    1.5250   -1.5230    4.1475 C   0  0  0  0  0  0  0  0  0  0  0  0
    1.4563   -0.6448    4.7991 H   0  0  0  0  0  0  0  0  0  0  0  0
    0.6240   -2.1288    4.2957 H   0  0  0  0  0  0  0  0  0  0  0  0
    2.7184   -2.3054    4.4835 N   0  0  0  0  0  0  0  0  0  0  0  0
    2.6890   -2.6260    5.4511 H   0  0  0  0  0  0  0  0  0  0  0  0
    2.8292   -3.0920    3.8434 H   0  0  0  0  0  0  0  0  0  0  0  0
   -0.3486    1.7037   -1.0151 C   0  0  0  0  0  0  0  0  0  0  0  0
   -0.4921    2.9165   -1.0870 O   0  0  0  0  0  0  0  0  0  0  0  0
    0.0211    0.9874   -2.1376 N   0  0  0  0  0  0  0  0  0  0  0  0
    0.0404   -0.0260   -2.0516 H   0  0  0  0  0  0  0  0  0  0  0  0
    0.2738    1.5979   -3.4364 C   0  0  0  0  0  0  0  0  0  0  0  0
    1.0624    2.3536   -3.3576 H   0  0  0  0  0  0  0  0  0  0  0  0
    0.5957    0.8381   -4.1552 H   0  0  0  0  0  0  0  0  0  0  0  0
   -0.6349    2.0747   -3.8183 H   0  0  0  0  0  0  0  0  0  0  0  0
  1  2  1  0  0  0  0
  2  3  1  0  0  0  0
  2  4  1  0  0  0  0
  2  5  1  0  0  0  0
  5  6  2  0  0  0  0
  5  7  1  0  0  0  0
  7  8  1  0  0  0  0
  7  9  1  0  0  0  0
  9 10  1  0  0  0  0
  9 11  1  0  0  0  0
  9 26  1  0  0  0  0
 11 12  1  0  0  0  0
 11 13  1  0  0  0  0
 11 14  1  0  0  0  0
 14 15  1  0  0  0  0
 14 16  1  0  0  0  0
 14 17  1  0  0  0  0
 17 18  1  0  0  0  0
 17 19  1  0  0  0  0
 17 20  1  0  0  0  0
 20 21  1  0  0  0  0
 20 22  1  0  0  0  0
 20 23  1  0  0  0  0
 23 24  1  0  0  0  0
 23 25  1  0  0  0  0
 26 27  2  0  0  0  0
 26 28  1  0  0  0  0
 28 29  1  0  0  0  0
 28 30  1  0  0  0  0
 30 31  1  0  0  0  0
 30 32  1  0  0  0  0
 30 33  1  0  0  0  0
M  END
$$$$

  -OEChem-01062216083D

 33 32  0     1  0  0  0  0  0999 V2000
   -4.1444   -2.2260    0.9814 H   0  0  0  0  0  0  0  0  0  0  0  0
   -3.9707   -1.1977    0.6517 C   0  0  0  0  0  0  0  0  0  0  0  0
   -4.3995   -0.5161    1.3904 H   0  0  0  0  0  0  0  0  0  0  0  0
   -4.4710   -1.0465   -0.3080 H   0  0  0  0  0  0  0  0  0  0  0  0
   -2.4826   -0.9388    0.5076 C   0  0  0  0  0  0  0  0  0  0  0  0
   -1.7143   -1.8830    0.5618 O   0  0  0  0  0  0  0  0  0  0  0  0
   -2.0624    0.3301    0.1537 N   0  0  0  0  0  0  0  0  0  0  0  0
   -2.8272    0.9876    0.0228 H   0  0  0  0  0  0  0  0  0  0  0  0
   -0.7253    0.9609    0.2781 C   0  0  1  0  0  0  0  0  0  0  0  0
   -0.8450    1.7507    1.0275 H   0  0  0  0  0  0  0  0  0  0  0  0
    0.4783    0.1285    0.7756 C   0  0  0  0  0  0  0  0  0  0  0  0
    0.5886   -0.7638    0.1512 H   0  0  0  0  0  0  0  0  0  0  0  0
    1.3892    0.7243    0.6511 H   0  0  0  0  0  0  0  0  0  0  0  0
    0.3746   -0.2821    2.2566 C   0  0  0  0  0  0  0  0  0  0  0  0
    0.3019    0.6190    2.8745 H   0  0  0  0  0  0  0  0  0  0  0  0
   -0.5176   -0.8801    2.4473 H   0  0  0  0  0  0  0  0  0  0  0  0
    1.6162   -1.0800    2.6698 C   0  0  0  0  0  0  0  0  0  0  0  0
    1.7094   -1.9648    2.0315 H   0  0  0  0  0  0  0  0  0  0  0  0
    2.5133   -0.4672    2.5329 H   0  0  0  0  0  0  0  0  0  0  0  0
    1.5210   -1.5174    4.1281 C   0  0  0  0  0  0  0  0  0  0  0  0
    1.4491   -0.6399    4.7801 H   0  0  0  0  0  0  0  0  0  0  0  0
    0.6237   -2.1279    4.2781 H   0  0  0  0  0  0  0  0  0  0  0  0
    2.7189   -2.2938    4.4617 N   0  0  0  0  0  0  0  0  0  0  0  0
    2.6908   -2.6187    5.4278 H   0  0  0  0  0  0  0  0  0  0  0  0
    2.8354   -3.0768    3.8182 H   0  0  0  0  0  0  0  0  0  0  0  0
   -0.3736    1.6932   -1.0283 C   0  0  0  0  0  0  0  0  0  0  0  0
   -0.2246    2.9072   -1.0340 O   0  0  0  0  0  0  0  0  0  0  0  0
   -0.2996    0.9843   -2.2120 N   0  0  0  0  0  0  0  0  0  0  0  0
   -0.4557   -0.0196   -2.1579 H   0  0  0  0  0  0  0  0  0  0  0  0
   -0.0101    1.5959   -3.5023 C   0  0  0  0  0  0  0  0  0  0  0  0
    0.9510    2.1201   -3.4707 H   0  0  0  0  0  0  0  0  0  0  0  0
    0.0403    0.8293   -4.2813 H   0  0  0  0  0  0  0  0  0  0  0  0
   -0.7942    2.3117   -3.7704 H   0  0  0  0  0  0  0  0  0  0  0  0
  1  2  1  0  0  0  0
  2  3  1  0  0  0  0
  2  4  1  0  0  0  0
  2  5  1  0  0  0  0
  5  6  2  0  0  0  0
  5  7  1  0  0  0  0
  7  8  1  0  0  0  0
  7  9  1  0  0  0  0
  9 10  1  0  0  0  0
  9 11  1  0  0  0  0
  9 26  1  0  0  0  0
 11 12  1  0  0  0  0
 11 13  1  0  0  0  0
 11 14  1  0  0  0  0
 14 15  1  0  0  0  0
 14 16  1  0  0  0  0
 14 17  1  0  0  0  0
 17 18  1  0  0  0  0
 17 19  1  0  0  0  0
 17 20  1  0  0  0  0
 20 21  1  0  0  0  0
 20 22  1  0  0  0  0
 20 23  1  0  0  0  0
 23 24  1  0  0  0  0
 23 25  1  0  0  0  0
 26 27  2  0  0  0  0
 26 28  1  0  0  0  0
 28 29  1  0  0  0  0
 28 30  1  0  0  0  0
 30 31  1  0  0  0  0
 30 32  1  0  0  0  0
 30 33  1  0  0  0  0
M  END
$$$$

  -OEChem-01062216083D

 33 32  0     1  0  0  0  0  0999 V2000
   -4.1482   -2.2579    1.0072 H   0  0  0  0  0  0  0  0  0  0  0  0
   -3.9847   -1.2214    0.6983 C   0  0  0  0  0  0  0  0  0  0  0  0
   -4.3966   -0.5594    1.4639 H   0  0  0  0  0  0  0  0  0  0  0  0
   -4.5086   -1.0483   -0.2449 H   0  0  0  0  0  0  0  0  0  0  0  0
   -2.5010   -0.9547    0.5242 C   0  0  0  0  0  0  0  0  0  0  0  0
   -1.7274   -1.8950    0.5598 O   0  0  0  0  0  0  0  0  0  0  0  0
   -2.0953    0.3166    0.1614 N   0  0  0  0  0  0  0  0  0  0  0  0
   -2.8685    0.9682    0.0535 H   0  0  0  0  0  0  0  0  0  0  0  0
   -0.7622    0.9613    0.2771 C   0  0  1  0  0  0  0  0  0  0  0  0
   -0.8842    1.7519    1.0250 H   0  0  0  0  0  0  0  0  0  0  0  0
    0.4496    0.1363    0.7667 C   0  0  0  0  0  0  0  0  0  0  0  0
    0.5625   -0.7529    0.1382 H   0  0  0  0  0  0  0  0  0  0  0  0
    1.3557    0.7390    0.6391 H   0  0  0  0  0  0  0  0  0  0  0  0
    0.3586   -0.2777    2.2475 C   0  0  0  0  0  0  0  0  0  0  0  0
    0.2843    0.6214    2.8676 H   0  0  0  0  0  0  0  0  0  0  0  0
   -0.5280   -0.8821    2.4434 H   0  0  0  0  0  0  0  0  0  0  0  0
    1.6087   -1.0674    2.6496 C   0  0  0  0  0  0  0  0  0  0  0  0
    1.7042   -1.9500    2.0087 H   0  0  0  0  0  0  0  0  0  0  0  0
    2.5001   -0.4474    2.5074 H   0  0  0  0  0  0  0  0  0  0  0  0
    1.5272   -1.5085    4.1074 C   0  0  0  0  0  0  0  0  0  0  0  0
    1.4536   -0.6330    4.7619 H   0  0  0  0  0  0  0  0  0  0  0  0
    0.6352   -2.1260    4.2619 H   0  0  0  0  0  0  0  0  0  0  0  0
    2.7330   -2.2769    4.4307 N   0  0  0  0  0  0  0  0  0  0  0  0
    2.7122   -2.6082    5.3948 H   0  0  0  0  0  0  0  0  0  0  0  0
    2.8537   -3.0545    3.7815 H   0  0  0  0  0  0  0  0  0  0  0  0
   -0.4126    1.6938   -1.0310 C   0  0  0  0  0  0  0  0  0  0  0  0
    0.0202    2.8372   -1.0009 O   0  0  0  0  0  0  0  0  0  0  0  0
   -0.6295    1.0712   -2.2456 N   0  0  0  0  0  0  0  0  0  0  0  0
   -0.9318    0.1005   -2.2119 H   0  0  0  0  0  0  0  0  0  0  0  0
   -0.2818    1.6671   -3.5290 C   0  0  0  0  0  0  0  0  0  0  0  0
    0.7919    1.8765   -3.5760 H   0  0  0  0  0  0  0  0  0  0  0  0
   -0.5373    0.9837   -4.3444 H   0  0  0  0  0  0  0  0  0  0  0  0
   -0.8303    2.6029   -3.6779 H   0  0  0  0  0  0  0  0  0  0  0  0
  1  2  1  0  0  0  0
  2  3  1  0  0  0  0
  2  4  1  0  0  0  0
  2  5  1  0  0  0  0
  5  6  2  0  0  0  0
  5  7  1  0  0  0  0
  7  8  1  0  0  0  0
  7  9  1  0  0  0  0
  9 10  1  0  0  0  0
  9 11  1  0  0  0  0
  9 26  1  0  0  0  0
 11 12  1  0  0  0  0
 11 13  1  0  0  0  0
 11 14  1  0  0  0  0
 14 15  1  0  0  0  0
 14 16  1  0  0  0  0
 14 17  1  0  0  0  0
 17 18  1  0  0  0  0
 17 19  1  0  0  0  0
 17 20  1  0  0  0  0
 20 21  1  0  0  0  0
 20 22  1  0  0  0  0
 20 23  1  0  0  0  0
 23 24  1  0  0  0  0
 23 25  1  0  0  0  0
 26 27  2  0  0  0  0
 26 28  1  0  0  0  0
 28 29  1  0  0  0  0
 28 30  1  0  0  0  0
 30 31  1  0  0  0  0
 30 32  1  0  0  0  0
 30 33  1  0  0  0  0
M  END
$$$$

  -OEChem-01062216083D

 33 32  0     1  0  0  0  0  0999 V2000
   -4.1355   -2.2813    1.0491 H   0  0  0  0  0  0  0  0  0  0  0  0
   -3.9832   -1.2450    0.7339 C   0  0  0  0  0  0  0  0  0  0  0  0
   -4.3860   -0.5827    1.5040 H   0  0  0  0  0  0  0  0  0  0  0  0
   -4.5240   -1.0786   -0.2009 H   0  0  0  0  0  0  0  0  0  0  0  0
   -2.5041   -0.9709    0.5338 C   0  0  0  0  0  0  0  0  0  0  0  0
   -1.7266   -1.9081    0.5545 O   0  0  0  0  0  0  0  0  0  0  0  0
   -2.1111    0.3040    0.1675 N   0  0  0  0  0  0  0  0  0  0  0  0
   -2.8904    0.9514    0.0814 H   0  0  0  0  0  0  0  0  0  0  0  0
   -0.7805    0.9596    0.2739 C   0  0  1  0  0  0  0  0  0  0  0  0
   -0.9030    1.7501    1.0215 H   0  0  0  0  0  0  0  0  0  0  0  0
    0.4348    0.1364    0.7600 C   0  0  0  0  0  0  0  0  0  0  0  0
    0.5476   -0.7525    0.1311 H   0  0  0  0  0  0  0  0  0  0  0  0
    1.3405    0.7393    0.6301 H   0  0  0  0  0  0  0  0  0  0  0  0
    0.3494   -0.2754    2.2418 C   0  0  0  0  0  0  0  0  0  0  0  0
    0.2756    0.6248    2.8606 H   0  0  0  0  0  0  0  0  0  0  0  0
   -0.5357   -0.8812    2.4414 H   0  0  0  0  0  0  0  0  0  0  0  0
    1.6019   -1.0630    2.6401 C   0  0  0  0  0  0  0  0  0  0  0  0
    1.6952   -1.9465    2.0002 H   0  0  0  0  0  0  0  0  0  0  0  0
    2.4921   -0.4427    2.4928 H   0  0  0  0  0  0  0  0  0  0  0  0
    1.5264   -1.5021    4.0986 C   0  0  0  0  0  0  0  0  0  0  0  0
    1.4534   -0.6263    4.7530 H   0  0  0  0  0  0  0  0  0  0  0  0
    0.6362   -2.1212    4.2565 H   0  0  0  0  0  0  0  0  0  0  0  0
    2.7347   -2.2685    4.4173 N   0  0  0  0  0  0  0  0  0  0  0  0
    2.7148   -2.6071    5.3789 H   0  0  0  0  0  0  0  0  0  0  0  0
    2.8587   -3.0403    3.7619 H   0  0  0  0  0  0  0  0  0  0  0  0
   -0.4324    1.6996   -1.0327 C   0  0  0  0  0  0  0  0  0  0  0  0
    0.2329    2.7254   -1.0000 O   0  0  0  0  0  0  0  0  0  0  0  0
   -0.9158    1.2366   -2.2423 N   0  0  0  0  0  0  0  0  0  0  0  0
   -1.3635    0.3237   -2.2268 H   0  0  0  0  0  0  0  0  0  0  0  0
   -0.5670    1.8339   -3.5251 C   0  0  0  0  0  0  0  0  0  0  0  0
    0.5123    1.7665   -3.6982 H   0  0  0  0  0  0  0  0  0  0  0  0
   -1.0823    1.3124   -4.3375 H   0  0  0  0  0  0  0  0  0  0  0  0
   -0.8629    2.8881   -3.5501 H   0  0  0  0  0  0  0  0  0  0  0  0
  1  2  1  0  0  0  0
  2  3  1  0  0  0  0
  2  4  1  0  0  0  0
  2  5  1  0  0  0  0
  5  6  2  0  0  0  0
  5  7  1  0  0  0  0
  7  8  1  0  0  0  0
  7  9  1  0  0  0  0
  9 10  1  0  0  0  0
  9 11  1  0  0  0  0
  9 26  1  0  0  0  0
 11 12  1  0  0  0  0
 11 13  1  0  0  0  0
 11 14  1  0  0  0  0
 14 15  1  0  0  0  0
 14 16  1  0  0  0  0
 14 17  1  0  0  0  0
 17 18  1  0  0  0  0
 17 19  1  0  0  0  0
 17 20  1  0  0  0  0
 20 21  1  0  0  0  0
 20 22  1  0  0  0  0
 20 23  1  0  0  0  0
 23 24  1  0  0  0  0
 23 25  1  0  0  0  0
 26 27  2  0  0  0  0
 26 28  1  0  0  0  0
 28 29  1  0  0  0  0
 28 30  1  0  0  0  0
 30 31  1  0  0  0  0
 30 32  1  0  0  0  0
 30 33  1  0  0  0  0
M  END
$$$$

  -OEChem-01062216083D

 33 32  0     1  0  0  0  0  0999 V2000
   -4.1197   -2.3042    1.0655 H   0  0  0  0  0  0  0  0  0  0  0  0
   -3.9754   -1.2673    0.7486 C   0  0  0  0  0  0  0  0  0  0  0  0
   -4.3731   -0.6068    1.5229 H   0  0  0  0  0  0  0  0  0  0  0  0
   -4.5268   -1.1034   -0.1804 H   0  0  0  0  0  0  0  0  0  0  0  0
   -2.4995   -0.9868    0.5342 C   0  0  0  0  0  0  0  0  0  0  0  0
   -1.7188   -1.9211    0.5515 O   0  0  0  0  0  0  0  0  0  0  0  0
   -2.1164    0.2922    0.1698 N   0  0  0  0  0  0  0  0  0  0  0  0
   -2.9002    0.9368    0.1086 H   0  0  0  0  0  0  0  0  0  0  0  0
   -0.7872    0.9555    0.2672 C   0  0  1  0  0  0  0  0  0  0  0  0
   -0.9101    1.7442    1.0161 H   0  0  0  0  0  0  0  0  0  0  0  0
    0.4295    0.1311    0.7537 C   0  0  0  0  0  0  0  0  0  0  0  0
    0.5398   -0.7597    0.1273 H   0  0  0  0  0  0  0  0  0  0  0  0
    1.3379    0.7293    0.6219 H   0  0  0  0  0  0  0  0  0  0  0  0
    0.3466   -0.2748    2.2374 C   0  0  0  0  0  0  0  0  0  0  0  0
    0.2781    0.6282    2.8527 H   0  0  0  0  0  0  0  0  0  0  0  0
   -0.5400   -0.8770    2.4418 H   0  0  0  0  0  0  0  0  0  0  0  0
    1.5985   -1.0632    2.6363 C   0  0  0  0  0  0  0  0  0  0  0  0
    1.6883   -1.9494    1.9997 H   0  0  0  0  0  0  0  0  0  0  0  0
    2.4896   -0.4453    2.4844 H   0  0  0  0  0  0  0  0  0  0  0  0
    1.5253   -1.4964    4.0965 C   0  0  0  0  0  0  0  0  0  0  0  0
    1.4557   -0.6173    4.7466 H   0  0  0  0  0  0  0  0  0  0  0  0
    0.6339   -2.1124    4.2594 H   0  0  0  0  0  0  0  0  0  0  0  0
    2.7319   -2.2642    4.4178 N   0  0  0  0  0  0  0  0  0  0  0  0
    2.7101   -2.6004    5.3801 H   0  0  0  0  0  0  0  0  0  0  0  0
    2.8543   -3.0383    3.7646 H   0  0  0  0  0  0  0  0  0  0  0  0
   -0.4437    1.7077   -1.0370 C   0  0  0  0  0  0  0  0  0  0  0  0
    0.4036    2.5901   -1.0343 O   0  0  0  0  0  0  0  0  0  0  0  0
   -1.1556    1.4587   -2.1966 N   0  0  0  0  0  0  0  0  0  0  0  0
   -1.7390    0.6264   -2.1883 H   0  0  0  0  0  0  0  0  0  0  0  0
   -0.8299    2.0762   -3.4762 C   0  0  0  0  0  0  0  0  0  0  0  0
    0.1773    1.7877   -3.7948 H   0  0  0  0  0  0  0  0  0  0  0  0
   -1.5424    1.7563   -4.2425 H   0  0  0  0  0  0  0  0  0  0  0  0
   -0.8756    3.1677   -3.3985 H   0  0  0  0  0  0  0  0  0  0  0  0
  1  2  1  0  0  0  0
  2  3  1  0  0  0  0
  2  4  1  0  0  0  0
  2  5  1  0  0  0  0
  5  6  2  0  0  0  0
  5  7  1  0  0  0  0
  7  8  1  0  0  0  0
  7  9  1  0  0  0  0
  9 10  1  0  0  0  0
  9 11  1  0  0  0  0
  9 26  1  0  0  0  0
 11 12  1  0  0  0  0
 11 13  1  0  0  0  0
 11 14  1  0  0  0  0
 14 15  1  0  0  0  0
 14 16  1  0  0  0  0
 14 17  1  0  0  0  0
 17 18  1  0  0  0  0
 17 19  1  0  0  0  0
 17 20  1  0  0  0  0
 20 21  1  0  0  0  0
 20 22  1  0  0  0  0
 20 23  1  0  0  0  0
 23 24  1  0  0  0  0
 23 25  1  0  0  0  0
 26 27  2  0  0  0  0
 26 28  1  0  0  0  0
 28 29  1  0  0  0  0
 28 30  1  0  0  0  0
 30 31  1  0  0  0  0
 30 32  1  0  0  0  0
 30 33  1  0  0  0  0
M  END
$$$$

  -OEChem-01062216083D

 33 32  0     1  0  0  0  0  0999 V2000
   -4.0914   -2.3163    1.0825 H   0  0  0  0  0  0  0  0  0  0  0  0
   -3.9534   -1.2815    0.7560 C   0  0  0  0  0  0  0  0  0  0  0  0
   -4.3461   -0.6163    1.5288 H   0  0  0  0  0  0  0  0  0  0  0  0
   -4.5138   -1.1270   -0.1692 H   0  0  0  0  0  0  0  0  0  0  0  0
   -2.4808   -0.9988    0.5240 C   0  0  0  0  0  0  0  0  0  0  0  0
   -1.6998   -1.9329    0.5328 O   0  0  0  0  0  0  0  0  0  0  0  0
   -2.1058    0.2840    0.1626 N   0  0  0  0  0  0  0  0  0  0  0  0
   -2.8918    0.9280    0.1379 H   0  0  0  0  0  0  0  0  0  0  0  0
   -0.7770    0.9506    0.2526 C   0  0  1  0  0  0  0  0  0  0  0  0
   -0.8979    1.7395    1.0016 H   0  0  0  0  0  0  0  0  0  0  0  0
    0.4370    0.1211    0.7435 C   0  0  0  0  0  0  0  0  0  0  0  0
    0.5440   -0.7725    0.1205 H   0  0  0  0  0  0  0  0  0  0  0  0
    1.3506    0.7107    0.6127 H   0  0  0  0  0  0  0  0  0  0  0  0
    0.3491   -0.2757    2.2294 C   0  0  0  0  0  0  0  0  0  0  0  0
    0.2838    0.6314    2.8389 H   0  0  0  0  0  0  0  0  0  0  0  0
   -0.5412   -0.8715    2.4351 H   0  0  0  0  0  0  0  0  0  0  0  0
    1.5948   -1.0694    2.6377 C   0  0  0  0  0  0  0  0  0  0  0  0
    1.6806   -1.9606    2.0075 H   0  0  0  0  0  0  0  0  0  0  0  0
    2.4905   -0.4586    2.4843 H   0  0  0  0  0  0  0  0  0  0  0  0
    1.5140   -1.4925    4.1009 C   0  0  0  0  0  0  0  0  0  0  0  0
    1.4472   -0.6089    4.7452 H   0  0  0  0  0  0  0  0  0  0  0  0
    0.6181   -2.1019    4.2641 H   0  0  0  0  0  0  0  0  0  0  0  0
    2.7145   -2.2659    4.4324 N   0  0  0  0  0  0  0  0  0  0  0  0
    2.6848   -2.5992    5.3955 H   0  0  0  0  0  0  0  0  0  0  0  0
    2.8384   -3.0421    3.7820 H   0  0  0  0  0  0  0  0  0  0  0  0
   -0.4434    1.7128   -1.0522 C   0  0  0  0  0  0  0  0  0  0  0  0
    0.5438    2.4328   -1.1157 O   0  0  0  0  0  0  0  0  0  0  0  0
   -1.3329    1.7112   -2.1126 N   0  0  0  0  0  0  0  0  0  0  0  0
   -2.0434    0.9858   -2.0902 H   0  0  0  0  0  0  0  0  0  0  0  0
   -1.0551    2.3770   -3.3799 C   0  0  0  0  0  0  0  0  0  0  0  0
   -0.1714    1.9397   -3.8563 H   0  0  0  0  0  0  0  0  0  0  0  0
   -1.9061    2.2683   -4.0587 H   0  0  0  0  0  0  0  0  0  0  0  0
   -0.8770    3.4459   -3.2212 H   0  0  0  0  0  0  0  0  0  0  0  0
  1  2  1  0  0  0  0
  2  3  1  0  0  0  0
  2  4  1  0  0  0  0
  2  5  1  0  0  0  0
  5  6  2  0  0  0  0
  5  7  1  0  0  0  0
  7  8  1  0  0  0  0
  7  9  1  0  0  0  0
  9 10  1  0  0  0  0
  9 11  1  0  0  0  0
  9 26  1  0  0  0  0
 11 12  1  0  0  0  0
 11 13  1  0  0  0  0
 11 14  1  0  0  0  0
 14 15  1  0  0  0  0
 14 16  1  0  0  0  0
 14 17  1  0  0  0  0
 17 18  1  0  0  0  0
 17 19  1  0  0  0  0
 17 20  1  0  0  0  0
 20 21  1  0  0  0  0
 20 22  1  0  0  0  0
 20 23  1  0  0  0  0
 23 24  1  0  0  0  0
 23 25  1  0  0  0  0
 26 27  2  0  0  0  0
 26 28  1  0  0  0  0
 28 29  1  0  0  0  0
 28 30  1  0  0  0  0
 30 31  1  0  0  0  0
 30 32  1  0  0  0  0
 30 33  1  0  0  0  0
M  END
$$$$

  -OEChem-01062216083D

 33 32  0     1  0  0  0  0  0999 V2000
   -4.0678   -2.3225    1.0869 H   0  0  0  0  0  0  0  0  0  0  0  0
   -3.9349   -1.2914    0.7462 C   0  0  0  0  0  0  0  0  0  0  0  0
   -4.3264   -0.6177    1.5122 H   0  0  0  0  0  0  0  0  0  0  0  0
   -4.5003   -1.1515   -0.1782 H   0  0  0  0  0  0  0  0  0  0  0  0
   -2.4640   -1.0063    0.5036 C   0  0  0  0  0  0  0  0  0  0  0  0
   -1.6831   -1.9404    0.5109 O   0  0  0  0  0  0  0  0  0  0  0  0
   -2.0922    0.2798    0.1482 N   0  0  0  0  0  0  0  0  0  0  0  0
   -2.8785    0.9230    0.1511 H   0  0  0  0  0  0  0  0  0  0  0  0
   -0.7620    0.9459    0.2358 C   0  0  1  0  0  0  0  0  0  0  0  0
   -0.8805    1.7342    0.9852 H   0  0  0  0  0  0  0  0  0  0  0  0
    0.4483    0.1123    0.7343 C   0  0  0  0  0  0  0  0  0  0  0  0
    0.5554   -0.7840    0.1151 H   0  0  0  0  0  0  0  0  0  0  0  0
    1.3665    0.6957    0.6093 H   0  0  0  0  0  0  0  0  0  0  0  0
    0.3520   -0.2754    2.2224 C   0  0  0  0  0  0  0  0  0  0  0  0
    0.2862    0.6348    2.8272 H   0  0  0  0  0  0  0  0  0  0  0  0
   -0.5417   -0.8674    2.4256 H   0  0  0  0  0  0  0  0  0  0  0  0
    1.5921   -1.0727    2.6410 C   0  0  0  0  0  0  0  0  0  0  0  0
    1.6765   -1.9678    2.0160 H   0  0  0  0  0  0  0  0  0  0  0  0
    2.4914   -0.4668    2.4885 H   0  0  0  0  0  0  0  0  0  0  0  0
    1.5023   -1.4867    4.1064 C   0  0  0  0  0  0  0  0  0  0  0  0
    1.4360   -0.5994    4.7456 H   0  0  0  0  0  0  0  0  0  0  0  0
    0.6031   -2.0913    4.2678 H   0  0  0  0  0  0  0  0  0  0  0  0
    2.6973   -2.2638    4.4483 N   0  0  0  0  0  0  0  0  0  0  0  0
    2.6609   -2.5935    5.4124 H   0  0  0  0  0  0  0  0  0  0  0  0
    2.8219   -3.0427    3.8014 H   0  0  0  0  0  0  0  0  0  0  0  0
   -0.4388    1.7168   -1.0698 C   0  0  0  0  0  0  0  0  0  0  0  0
    0.6534    2.2416   -1.2399 O   0  0  0  0  0  0  0  0  0  0  0  0
   -1.4404    1.9813   -1.9888 N   0  0  0  0  0  0  0  0  0  0  0  0
   -2.2701    1.4019   -1.9172 H   0  0  0  0  0  0  0  0  0  0  0  0
   -1.2026    2.7003   -3.2355 C   0  0  0  0  0  0  0  0  0  0  0  0
   -0.4905    2.1544   -3.8634 H   0  0  0  0  0  0  0  0  0  0  0  0
   -2.1387    2.8150   -3.7902 H   0  0  0  0  0  0  0  0  0  0  0  0
   -0.8001    3.6985   -3.0325 H   0  0  0  0  0  0  0  0  0  0  0  0
  1  2  1  0  0  0  0
  2  3  1  0  0  0  0
  2  4  1  0  0  0  0
  2  5  1  0  0  0  0
  5  6  2  0  0  0  0
  5  7  1  0  0  0  0
  7  8  1  0  0  0  0
  7  9  1  0  0  0  0
  9 10  1  0  0  0  0
  9 11  1  0  0  0  0
  9 26  1  0  0  0  0
 11 12  1  0  0  0  0
 11 13  1  0  0  0  0
 11 14  1  0  0  0  0
 14 15  1  0  0  0  0
 14 16  1  0  0  0  0
 14 17  1  0  0  0  0
 17 18  1  0  0  0  0
 17 19  1  0  0  0  0
 17 20  1  0  0  0  0
 20 21  1  0  0  0  0
 20 22  1  0  0  0  0
 20 23  1  0  0  0  0
 23 24  1  0  0  0  0
 23 25  1  0  0  0  0
 26 27  2  0  0  0  0
 26 28  1  0  0  0  0
 28 29  1  0  0  0  0
 28 30  1  0  0  0  0
 30 31  1  0  0  0  0
 30 32  1  0  0  0  0
 30 33  1  0  0  0  0
M  END
$$$$

  -OEChem-01062216083D

 33 32  0     1  0  0  0  0  0999 V2000
   -4.0720   -2.3364    1.0194 H   0  0  0  0  0  0  0  0  0  0  0  0
   -3.9321   -1.2973    0.7072 C   0  0  0  0  0  0  0  0  0  0  0  0
   -4.3299   -0.6420    1.4857 H   0  0  0  0  0  0  0  0  0  0  0  0
   -4.4865   -1.1320   -0.2198 H   0  0  0  0  0  0  0  0  0  0  0  0
   -2.4577   -1.0113    0.4881 C   0  0  0  0  0  0  0  0  0  0  0  0
   -1.6766   -1.9447    0.5148 O   0  0  0  0  0  0  0  0  0  0  0  0
   -2.0845    0.2768    0.1408 N   0  0  0  0  0  0  0  0  0  0  0  0
   -2.8714    0.9175    0.1478 H   0  0  0  0  0  0  0  0  0  0  0  0
   -0.7515    0.9369    0.2222 C   0  0  1  0  0  0  0  0  0  0  0  0
   -0.8653    1.7234    0.9738 H   0  0  0  0  0  0  0  0  0  0  0  0
    0.4571    0.1017    0.7257 C   0  0  0  0  0  0  0  0  0  0  0  0
    0.5623   -0.7981    0.1114 H   0  0  0  0  0  0  0  0  0  0  0  0
    1.3772    0.6816    0.5996 H   0  0  0  0  0  0  0  0  0  0  0  0
    0.3601   -0.2747    2.2174 C   0  0  0  0  0  0  0  0  0  0  0  0
    0.2984    0.6400    2.8157 H   0  0  0  0  0  0  0  0  0  0  0  0
   -0.5362   -0.8612    2.4245 H   0  0  0  0  0  0  0  0  0  0  0  0
    1.5962   -1.0739    2.6441 C   0  0  0  0  0  0  0  0  0  0  0  0
    1.6781   -1.9743    2.0266 H   0  0  0  0  0  0  0  0  0  0  0  0
    2.4981   -0.4728    2.4879 H   0  0  0  0  0  0  0  0  0  0  0  0
    1.5029   -1.4750    4.1131 C   0  0  0  0  0  0  0  0  0  0  0  0
    1.4399   -0.5816    4.7442 H   0  0  0  0  0  0  0  0  0  0  0  0
    0.6008   -2.0742    4.2790 H   0  0  0  0  0  0  0  0  0  0  0  0
    2.6939   -2.2545    4.4638 N   0  0  0  0  0  0  0  0  0  0  0  0
    2.6547   -2.5758    5.4306 H   0  0  0  0  0  0  0  0  0  0  0  0
    2.8157   -3.0397    3.8238 H   0  0  0  0  0  0  0  0  0  0  0  0
   -0.4418    1.7176   -1.0832 C   0  0  0  0  0  0  0  0  0  0  0  0
    0.7044    1.9918   -1.4124 O   0  0  0  0  0  0  0  0  0  0  0  0
   -1.4743    2.2614   -1.8302 N   0  0  0  0  0  0  0  0  0  0  0  0
   -2.4065    1.9136   -1.6392 H   0  0  0  0  0  0  0  0  0  0  0  0
   -1.2548    3.0198   -3.0571 C   0  0  0  0  0  0  0  0  0  0  0  0
   -0.7733    2.3927   -3.8147 H   0  0  0  0  0  0  0  0  0  0  0  0
   -2.2086    3.3776   -3.4566 H   0  0  0  0  0  0  0  0  0  0  0  0
   -0.6172    3.8888   -2.8623 H   0  0  0  0  0  0  0  0  0  0  0  0
  1  2  1  0  0  0  0
  2  3  1  0  0  0  0
  2  4  1  0  0  0  0
  2  5  1  0  0  0  0
  5  6  2  0  0  0  0
  5  7  1  0  0  0  0
  7  8  1  0  0  0  0
  7  9  1  0  0  0  0
  9 10  1  0  0  0  0
  9 11  1  0  0  0  0
  9 26  1  0  0  0  0
 11 12  1  0  0  0  0
 11 13  1  0  0  0  0
 11 14  1  0  0  0  0
 14 15  1  0  0  0  0
 14 16  1  0  0  0  0
 14 17  1  0  0  0  0
 17 18  1  0  0  0  0
 17 19  1  0  0  0  0
 17 20  1  0  0  0  0
 20 21  1  0  0  0  0
 20 22  1  0  0  0  0
 20 23  1  0  0  0  0
 23 24  1  0  0  0  0
 23 25  1  0  0  0  0
 26 27  2  0  0  0  0
 26 28  1  0  0  0  0
 28 29  1  0  0  0  0
 28 30  1  0  0  0  0
 30 31  1  0  0  0  0
 30 32  1  0  0  0  0
 30 33  1  0  0  0  0
M  END
$$$$

  -OEChem-01062216083D

 33 32  0     1  0  0  0  0  0999 V2000
   -4.1346   -2.3212    0.9417 H   0  0  0  0  0  0  0  0  0  0  0  0
   -3.9709   -1.2930    0.6058 C   0  0  0  0  0  0  0  0  0  0  0  0
   -4.4360   -0.6128    1.3232 H   0  0  0  0  0  0  0  0  0  0  0  0
   -4.4437   -1.1640   -0.3708 H   0  0  0  0  0  0  0  0  0  0  0  0
   -2.4839   -1.0069    0.5029 C   0  0  0  0  0  0  0  0  0  0  0  0
   -1.7091   -1.9380    0.6240 O   0  0  0  0  0  0  0  0  0  0  0  0
   -2.0886    0.2756    0.1580 N   0  0  0  0  0  0  0  0  0  0  0  0
   -2.8719    0.9050    0.0248 H   0  0  0  0  0  0  0  0  0  0  0  0
   -0.7491    0.9221    0.2249 C   0  0  1  0  0  0  0  0  0  0  0  0
   -0.8515    1.7100    0.9769 H   0  0  0  0  0  0  0  0  0  0  0  0
    0.4596    0.0881    0.7272 C   0  0  0  0  0  0  0  0  0  0  0  0
    0.5523   -0.8197    0.1225 H   0  0  0  0  0  0  0  0  0  0  0  0
    1.3792    0.6646    0.5808 H   0  0  0  0  0  0  0  0  0  0  0  0
    0.3772   -0.2724    2.2241 C   0  0  0  0  0  0  0  0  0  0  0  0
    0.3285    0.6496    2.8119 H   0  0  0  0  0  0  0  0  0  0  0  0
   -0.5202   -0.8489    2.4517 H   0  0  0  0  0  0  0  0  0  0  0  0
    1.6144   -1.0725    2.6463 C   0  0  0  0  0  0  0  0  0  0  0  0
    1.6854   -1.9801    2.0379 H   0  0  0  0  0  0  0  0  0  0  0  0
    2.5180   -0.4788    2.4736 H   0  0  0  0  0  0  0  0  0  0  0  0
    1.5335   -1.4571    4.1204 C   0  0  0  0  0  0  0  0  0  0  0  0
    1.4811   -0.5564    4.7420 H   0  0  0  0  0  0  0  0  0  0  0  0
    0.6298   -2.0498    4.3015 H   0  0  0  0  0  0  0  0  0  0  0  0
    2.7240   -2.2383    4.4691 N   0  0  0  0  0  0  0  0  0  0  0  0
    2.6933   -2.5450    5.4410 H   0  0  0  0  0  0  0  0  0  0  0  0
    2.8328   -3.0340    3.8398 H   0  0  0  0  0  0  0  0  0  0  0  0
   -0.4533    1.7014   -1.0836 C   0  0  0  0  0  0  0  0  0  0  0  0
    0.6415    1.6654   -1.6286 O   0  0  0  0  0  0  0  0  0  0  0  0
   -1.4280    2.5121   -1.6441 N   0  0  0  0  0  0  0  0  0  0  0  0
   -2.3223    2.5747   -1.1728 H   0  0  0  0  0  0  0  0  0  0  0  0
   -1.2153    3.3011   -2.8525 C   0  0  0  0  0  0  0  0  0  0  0  0
   -0.9512    2.6510   -3.6934 H   0  0  0  0  0  0  0  0  0  0  0  0
   -2.1265    3.8483   -3.1125 H   0  0  0  0  0  0  0  0  0  0  0  0
   -0.4082    4.0257   -2.7006 H   0  0  0  0  0  0  0  0  0  0  0  0
  1  2  1  0  0  0  0
  2  3  1  0  0  0  0
  2  4  1  0  0  0  0
  2  5  1  0  0  0  0
  5  6  2  0  0  0  0
  5  7  1  0  0  0  0
  7  8  1  0  0  0  0
  7  9  1  0  0  0  0
  9 10  1  0  0  0  0
  9 11  1  0  0  0  0
  9 26  1  0  0  0  0
 11 12  1  0  0  0  0
 11 13  1  0  0  0  0
 11 14  1  0  0  0  0
 14 15  1  0  0  0  0
 14 16  1  0  0  0  0
 14 17  1  0  0  0  0
 17 18  1  0  0  0  0
 17 19  1  0  0  0  0
 17 20  1  0  0  0  0
 20 21  1  0  0  0  0
 20 22  1  0  0  0  0
 20 23  1  0  0  0  0
 23 24  1  0  0  0  0
 23 25  1  0  0  0  0
 26 27  2  0  0  0  0
 26 28  1  0  0  0  0
 28 29  1  0  0  0  0
 28 30  1  0  0  0  0
 30 31  1  0  0  0  0
 30 32  1  0  0  0  0
 30 33  1  0  0  0  0
M  END
$$$$

  -OEChem-01062216083D

 33 32  0     1  0  0  0  0  0999 V2000
   -4.2041   -2.2922    0.8564 H   0  0  0  0  0  0  0  0  0  0  0  0
   -4.0144   -1.2695    0.5179 C   0  0  0  0  0  0  0  0  0  0  0  0
   -4.5284   -0.5780    1.1895 H   0  0  0  0  0  0  0  0  0  0  0  0
   -4.4145   -1.1542   -0.4923 H   0  0  0  0  0  0  0  0  0  0  0  0
   -2.5235   -0.9867    0.5197 C   0  0  0  0  0  0  0  0  0  0  0  0
   -1.7639   -1.9146    0.7282 O   0  0  0  0  0  0  0  0  0  0  0  0
   -2.1032    0.2877    0.1752 N   0  0  0  0  0  0  0  0  0  0  0  0
   -2.8642    0.8999   -0.0997 H   0  0  0  0  0  0  0  0  0  0  0  0
   -0.7583    0.9188    0.2395 C   0  0  1  0  0  0  0  0  0  0  0  0
   -0.8519    1.7075    0.9913 H   0  0  0  0  0  0  0  0  0  0  0  0
    0.4530    0.0904    0.7371 C   0  0  0  0  0  0  0  0  0  0  0  0
    0.5361   -0.8225    0.1380 H   0  0  0  0  0  0  0  0  0  0  0  0
    1.3688    0.6680    0.5722 H   0  0  0  0  0  0  0  0  0  0  0  0
    0.3852   -0.2662    2.2354 C   0  0  0  0  0  0  0  0  0  0  0  0
    0.3426    0.6584    2.8198 H   0  0  0  0  0  0  0  0  0  0  0  0
   -0.5087   -0.8411    2.4781 H   0  0  0  0  0  0  0  0  0  0  0  0
    1.6290   -1.0617    2.6452 C   0  0  0  0  0  0  0  0  0  0  0  0
    1.6958   -1.9700    2.0376 H   0  0  0  0  0  0  0  0  0  0  0  0
    2.5286   -0.4653    2.4613 H   0  0  0  0  0  0  0  0  0  0  0  0
    1.5657   -1.4440    4.1205 C   0  0  0  0  0  0  0  0  0  0  0  0
    1.5165   -0.5432    4.7421 H   0  0  0  0  0  0  0  0  0  0  0  0
    0.6664   -2.0401    4.3122 H   0  0  0  0  0  0  0  0  0  0  0  0
    2.7631   -2.2207    4.4549 N   0  0  0  0  0  0  0  0  0  0  0  0
    2.7456   -2.5259    5.4276 H   0  0  0  0  0  0  0  0  0  0  0  0
    2.8657   -3.0173    3.8255 H   0  0  0  0  0  0  0  0  0  0  0  0
   -0.4693    1.6866   -1.0720 C   0  0  0  0  0  0  0  0  0  0  0  0
    0.4829    1.4133   -1.7896 O   0  0  0  0  0  0  0  0  0  0  0  0
   -1.3061    2.7235   -1.4520 N   0  0  0  0  0  0  0  0  0  0  0  0
   -2.0261    3.0116   -0.7982 H   0  0  0  0  0  0  0  0  0  0  0  0
   -1.0776    3.5335   -2.6436 C   0  0  0  0  0  0  0  0  0  0  0  0
   -1.0550    2.9017   -3.5379 H   0  0  0  0  0  0  0  0  0  0  0  0
   -1.8794    4.2685   -2.7622 H   0  0  0  0  0  0  0  0  0  0  0  0
   -0.1252    4.0686   -2.5667 H   0  0  0  0  0  0  0  0  0  0  0  0
  1  2  1  0  0  0  0
  2  3  1  0  0  0  0
  2  4  1  0  0  0  0
  2  5  1  0  0  0  0
  5  6  2  0  0  0  0
  5  7  1  0  0  0  0
  7  8  1  0  0  0  0
  7  9  1  0  0  0  0
  9 10  1  0  0  0  0
  9 11  1  0  0  0  0
  9 26  1  0  0  0  0
 11 12  1  0  0  0  0
 11 13  1  0  0  0  0
 11 14  1  0  0  0  0
 14 15  1  0  0  0  0
 14 16  1  0  0  0  0
 14 17  1  0  0  0  0
 17 18  1  0  0  0  0
 17 19  1  0  0  0  0
 17 20  1  0  0  0  0
 20 21  1  0  0  0  0
 20 22  1  0  0  0  0
 20 23  1  0  0  0  0
 23 24  1  0  0  0  0
 23 25  1  0  0  0  0
 26 27  2  0  0  0  0
 26 28  1  0  0  0  0
 28 29  1  0  0  0  0
 28 30  1  0  0  0  0
 30 31  1  0  0  0  0
 30 32  1  0  0  0  0
 30 33  1  0  0  0  0
M  END
$$$$

  -OEChem-01062216083D

 33 32  0     1  0  0  0  0  0999 V2000
   -4.2243   -2.2794    0.8614 H   0  0  0  0  0  0  0  0  0  0  0  0
   -4.0310   -1.2658    0.4982 C   0  0  0  0  0  0  0  0  0  0  0  0
   -4.5620   -0.5583    1.1392 H   0  0  0  0  0  0  0  0  0  0  0  0
   -4.4101   -1.1808   -0.5231 H   0  0  0  0  0  0  0  0  0  0  0  0
   -2.5411   -0.9762    0.5233 C   0  0  0  0  0  0  0  0  0  0  0  0
   -1.7822   -1.8998    0.7526 O   0  0  0  0  0  0  0  0  0  0  0  0
   -2.1190    0.2982    0.1805 N   0  0  0  0  0  0  0  0  0  0  0  0
   -2.8746    0.9058   -0.1207 H   0  0  0  0  0  0  0  0  0  0  0  0
   -0.7755    0.9294    0.2485 C   0  0  1  0  0  0  0  0  0  0  0  0
   -0.8715    1.7129    1.0053 H   0  0  0  0  0  0  0  0  0  0  0  0
    0.4412    0.1065    0.7392 C   0  0  0  0  0  0  0  0  0  0  0  0
    0.5236   -0.8045    0.1369 H   0  0  0  0  0  0  0  0  0  0  0  0
    1.3531    0.6886    0.5675 H   0  0  0  0  0  0  0  0  0  0  0  0
    0.3830   -0.2595    2.2359 C   0  0  0  0  0  0  0  0  0  0  0  0
    0.3393    0.6620    2.8249 H   0  0  0  0  0  0  0  0  0  0  0  0
   -0.5063   -0.8393    2.4820 H   0  0  0  0  0  0  0  0  0  0  0  0
    1.6333   -1.0495    2.6371 C   0  0  0  0  0  0  0  0  0  0  0  0
    1.7033   -1.9549    2.0251 H   0  0  0  0  0  0  0  0  0  0  0  0
    2.5290   -0.4469    2.4535 H   0  0  0  0  0  0  0  0  0  0  0  0
    1.5762   -1.4394    4.1108 C   0  0  0  0  0  0  0  0  0  0  0  0
    1.5241   -0.5417    4.7366 H   0  0  0  0  0  0  0  0  0  0  0  0
    0.6807   -2.0413    4.3020 H   0  0  0  0  0  0  0  0  0  0  0  0
    2.7786   -2.2107    4.4393 N   0  0  0  0  0  0  0  0  0  0  0  0
    2.7608   -2.5267    5.4086 H   0  0  0  0  0  0  0  0  0  0  0  0
    2.8879   -3.0000    3.8019 H   0  0  0  0  0  0  0  0  0  0  0  0
   -0.4824    1.6967   -1.0600 C   0  0  0  0  0  0  0  0  0  0  0  0
    0.2915    1.2636   -1.9020 O   0  0  0  0  0  0  0  0  0  0  0  0
   -1.1063    2.9113   -1.2923 N   0  0  0  0  0  0  0  0  0  0  0  0
   -1.6747    3.2999   -0.5468 H   0  0  0  0  0  0  0  0  0  0  0  0
   -0.8379    3.7302   -2.4693 C   0  0  0  0  0  0  0  0  0  0  0  0
   -1.0692    3.1748   -3.3845 H   0  0  0  0  0  0  0  0  0  0  0  0
   -1.4534    4.6348   -2.4512 H   0  0  0  0  0  0  0  0  0  0  0  0
    0.2156    4.0282   -2.4957 H   0  0  0  0  0  0  0  0  0  0  0  0
  1  2  1  0  0  0  0
  2  3  1  0  0  0  0
  2  4  1  0  0  0  0
  2  5  1  0  0  0  0
  5  6  2  0  0  0  0
  5  7  1  0  0  0  0
  7  8  1  0  0  0  0
  7  9  1  0  0  0  0
  9 10  1  0  0  0  0
  9 11  1  0  0  0  0
  9 26  1  0  0  0  0
 11 12  1  0  0  0  0
 11 13  1  0  0  0  0
 11 14  1  0  0  0  0
 14 15  1  0  0  0  0
 14 16  1  0  0  0  0
 14 17  1  0  0  0  0
 17 18  1  0  0  0  0
 17 19  1  0  0  0  0
 17 20  1  0  0  0  0
 20 21  1  0  0  0  0
 20 22  1  0  0  0  0
 20 23  1  0  0  0  0
 23 24  1  0  0  0  0
 23 25  1  0  0  0  0
 26 27  2  0  0  0  0
 26 28  1  0  0  0  0
 28 29  1  0  0  0  0
 28 30  1  0  0  0  0
 30 31  1  0  0  0  0
 30 32  1  0  0  0  0
 30 33  1  0  0  0  0
M  END
$$$$

  -OEChem-01062216083D

 33 32  0     1  0  0  0  0  0999 V2000
   -4.2519   -2.2717    0.8040 H   0  0  0  0  0  0  0  0  0  0  0  0
   -4.0493   -1.2530    0.4606 C   0  0  0  0  0  0  0  0  0  0  0  0
   -4.5983   -0.5540    1.0959 H   0  0  0  0  0  0  0  0  0  0  0  0
   -4.3997   -1.1538   -0.5697 H   0  0  0  0  0  0  0  0  0  0  0  0
   -2.5612   -0.9624    0.5308 C   0  0  0  0  0  0  0  0  0  0  0  0
   -1.8086   -1.8832    0.7906 O   0  0  0  0  0  0  0  0  0  0  0  0
   -2.1330    0.3105    0.1918 N   0  0  0  0  0  0  0  0  0  0  0  0
   -2.8809    0.9132   -0.1380 H   0  0  0  0  0  0  0  0  0  0  0  0
   -0.7907    0.9407    0.2672 C   0  0  1  0  0  0  0  0  0  0  0  0
   -0.8950    1.7180    1.0291 H   0  0  0  0  0  0  0  0  0  0  0  0
    0.4305    0.1247    0.7524 C   0  0  0  0  0  0  0  0  0  0  0  0
    0.5144   -0.7832    0.1456 H   0  0  0  0  0  0  0  0  0  0  0  0
    1.3378    0.7127    0.5785 H   0  0  0  0  0  0  0  0  0  0  0  0
    0.3803   -0.2523    2.2466 C   0  0  0  0  0  0  0  0  0  0  0  0
    0.3307    0.6642    2.8433 H   0  0  0  0  0  0  0  0  0  0  0  0
   -0.5023   -0.8418    2.4925 H   0  0  0  0  0  0  0  0  0  0  0  0
    1.6391   -1.0346    2.6350 C   0  0  0  0  0  0  0  0  0  0  0  0
    1.7125   -1.9347    2.0157 H   0  0  0  0  0  0  0  0  0  0  0  0
    2.5286   -0.4235    2.4508 H   0  0  0  0  0  0  0  0  0  0  0  0
    1.5937   -1.4368    4.1055 C   0  0  0  0  0  0  0  0  0  0  0  0
    1.5378   -0.5444    4.7386 H   0  0  0  0  0  0  0  0  0  0  0  0
    0.7044   -2.0476    4.2972 H   0  0  0  0  0  0  0  0  0  0  0  0
    2.8049   -2.2001    4.4194 N   0  0  0  0  0  0  0  0  0  0  0  0
    2.7998   -2.5180    5.3882 H   0  0  0  0  0  0  0  0  0  0  0  0
    2.9125   -2.9873    3.7792 H   0  0  0  0  0  0  0  0  0  0  0  0
   -0.4834    1.7098   -1.0354 C   0  0  0  0  0  0  0  0  0  0  0  0
    0.0480    1.1593   -1.9892 O   0  0  0  0  0  0  0  0  0  0  0  0
   -0.8376    3.0435   -1.1466 N   0  0  0  0  0  0  0  0  0  0  0  0
   -1.2221    3.5009   -0.3258 H   0  0  0  0  0  0  0  0  0  0  0  0
   -0.5486    3.8480   -2.3284 C   0  0  0  0  0  0  0  0  0  0  0  0
   -1.0230    3.4129   -3.2144 H   0  0  0  0  0  0  0  0  0  0  0  0
   -0.9312    4.8648   -2.1971 H   0  0  0  0  0  0  0  0  0  0  0  0
    0.5318    3.9032   -2.4991 H   0  0  0  0  0  0  0  0  0  0  0  0
  1  2  1  0  0  0  0
  2  3  1  0  0  0  0
  2  4  1  0  0  0  0
  2  5  1  0  0  0  0
  5  6  2  0  0  0  0
  5  7  1  0  0  0  0
  7  8  1  0  0  0  0
  7  9  1  0  0  0  0
  9 10  1  0  0  0  0
  9 11  1  0  0  0  0
  9 26  1  0  0  0  0
 11 12  1  0  0  0  0
 11 13  1  0  0  0  0
 11 14  1  0  0  0  0
 14 15  1  0  0  0  0
 14 16  1  0  0  0  0
 14 17  1  0  0  0  0
 17 18  1  0  0  0  0
 17 19  1  0  0  0  0
 17 20  1  0  0  0  0
 20 21  1  0  0  0  0
 20 22  1  0  0  0  0
 20 23  1  0  0  0  0
 23 24  1  0  0  0  0
 23 25  1  0  0  0  0
 26 27  2  0  0  0  0
 26 28  1  0  0  0  0
 28 29  1  0  0  0  0
 28 30  1  0  0  0  0
 30 31  1  0  0  0  0
 30 32  1  0  0  0  0
 30 33  1  0  0  0  0
M  END
$$$$

  -OEChem-01062216083D

 33 32  0     1  0  0  0  0  0999 V2000
   -4.2734   -2.2613    0.7517 H   0  0  0  0  0  0  0  0  0  0  0  0
   -4.0640   -1.2391    0.4233 C   0  0  0  0  0  0  0  0  0  0  0  0
   -4.6355   -0.5472    1.0465 H   0  0  0  0  0  0  0  0  0  0  0  0
   -4.3822   -1.1328   -0.6167 H   0  0  0  0  0  0  0  0  0  0  0  0
   -2.5799   -0.9437    0.5419 C   0  0  0  0  0  0  0  0  0  0  0  0
   -1.8356   -1.8596    0.8403 O   0  0  0  0  0  0  0  0  0  0  0  0
   -2.1431    0.3267    0.2053 N   0  0  0  0  0  0  0  0  0  0  0  0
   -2.8745    0.9158   -0.1818 H   0  0  0  0  0  0  0  0  0  0  0  0
   -0.7987    0.9512    0.2835 C   0  0  1  0  0  0  0  0  0  0  0  0
   -0.9074    1.7250    1.0484 H   0  0  0  0  0  0  0  0  0  0  0  0
    0.4242    0.1372    0.7648 C   0  0  0  0  0  0  0  0  0  0  0  0
    0.5046   -0.7693    0.1554 H   0  0  0  0  0  0  0  0  0  0  0  0
    1.3304    0.7262    0.5885 H   0  0  0  0  0  0  0  0  0  0  0  0
    0.3833   -0.2464    2.2581 C   0  0  0  0  0  0  0  0  0  0  0  0
    0.3351    0.6677    2.8583 H   0  0  0  0  0  0  0  0  0  0  0  0
   -0.4950   -0.8391    2.5097 H   0  0  0  0  0  0  0  0  0  0  0  0
    1.6473   -1.0263    2.6352 C   0  0  0  0  0  0  0  0  0  0  0  0
    1.7203   -1.9233    2.0115 H   0  0  0  0  0  0  0  0  0  0  0  0
    2.5337   -0.4116    2.4487 H   0  0  0  0  0  0  0  0  0  0  0  0
    1.6128   -1.4358    4.1038 C   0  0  0  0  0  0  0  0  0  0  0  0
    1.5573   -0.5471    4.7420 H   0  0  0  0  0  0  0  0  0  0  0  0
    0.7270   -2.0513    4.2980 H   0  0  0  0  0  0  0  0  0  0  0  0
    2.8288   -2.1965    4.4067 N   0  0  0  0  0  0  0  0  0  0  0  0
    2.8330   -2.5138    5.3757 H   0  0  0  0  0  0  0  0  0  0  0  0
    2.9318   -2.9843    3.7664 H   0  0  0  0  0  0  0  0  0  0  0  0
   -0.4799    1.7215   -1.0153 C   0  0  0  0  0  0  0  0  0  0  0  0
   -0.2525    1.1267   -2.0591 O   0  0  0  0  0  0  0  0  0  0  0  0
   -0.5296    3.1048   -1.0314 N   0  0  0  0  0  0  0  0  0  0  0  0
   -0.6840    3.5826   -0.1489 H   0  0  0  0  0  0  0  0  0  0  0  0
   -0.2334    3.8996   -2.2179 C   0  0  0  0  0  0  0  0  0  0  0  0
   -0.9206    3.6454   -3.0319 H   0  0  0  0  0  0  0  0  0  0  0  0
   -0.3419    4.9655   -1.9961 H   0  0  0  0  0  0  0  0  0  0  0  0
    0.7932    3.7187   -2.5539 H   0  0  0  0  0  0  0  0  0  0  0  0
  1  2  1  0  0  0  0
  2  3  1  0  0  0  0
  2  4  1  0  0  0  0
  2  5  1  0  0  0  0
  5  6  2  0  0  0  0
  5  7  1  0  0  0  0
  7  8  1  0  0  0  0
  7  9  1  0  0  0  0
  9 10  1  0  0  0  0
  9 11  1  0  0  0  0
  9 26  1  0  0  0  0
 11 12  1  0  0  0  0
 11 13  1  0  0  0  0
 11 14  1  0  0  0  0
 14 15  1  0  0  0  0
 14 16  1  0  0  0  0
 14 17  1  0  0  0  0
 17 18  1  0  0  0  0
 17 19  1  0  0  0  0
 17 20  1  0  0  0  0
 20 21  1  0  0  0  0
 20 22  1  0  0  0  0
 20 23  1  0  0  0  0
 23 24  1  0  0  0  0
 23 25  1  0  0  0  0
 26 27  2  0  0  0  0
 26 28  1  0  0  0  0
 28 29  1  0  0  0  0
 28 30  1  0  0  0  0
 30 31  1  0  0  0  0
 30 32  1  0  0  0  0
 30 33  1  0  0  0  0
M  END
$$$$

  -OEChem-01062216083D

 33 32  0     1  0  0  0  0  0999 V2000
   -4.2857   -2.2445    0.7191 H   0  0  0  0  0  0  0  0  0  0  0  0
   -4.0677   -1.2232    0.3938 C   0  0  0  0  0  0  0  0  0  0  0  0
   -4.6549   -0.5295    0.9998 H   0  0  0  0  0  0  0  0  0  0  0  0
   -4.3582   -1.1188   -0.6545 H   0  0  0  0  0  0  0  0  0  0  0  0
   -2.5873   -0.9278    0.5511 C   0  0  0  0  0  0  0  0  0  0  0  0
   -1.8517   -1.8427    0.8736 O   0  0  0  0  0  0  0  0  0  0  0  0
   -2.1413    0.3398    0.2182 N   0  0  0  0  0  0  0  0  0  0  0  0
   -2.8545    0.9165   -0.2191 H   0  0  0  0  0  0  0  0  0  0  0  0
   -0.7922    0.9534    0.2902 C   0  0  1  0  0  0  0  0  0  0  0  0
   -0.8988    1.7262    1.0563 H   0  0  0  0  0  0  0  0  0  0  0  0
    0.4293    0.1357    0.7673 C   0  0  0  0  0  0  0  0  0  0  0  0
    0.5013   -0.7736    0.1607 H   0  0  0  0  0  0  0  0  0  0  0  0
    1.3383    0.7187    0.5848 H   0  0  0  0  0  0  0  0  0  0  0  0
    0.3922   -0.2426    2.2620 C   0  0  0  0  0  0  0  0  0  0  0  0
    0.3514    0.6739    2.8589 H   0  0  0  0  0  0  0  0  0  0  0  0
   -0.4886   -0.8285    2.5204 H   0  0  0  0  0  0  0  0  0  0  0  0
    1.6541   -1.0271    2.6365 C   0  0  0  0  0  0  0  0  0  0  0  0
    1.7203   -1.9262    2.0152 H   0  0  0  0  0  0  0  0  0  0  0  0
    2.5424   -0.4165    2.4441 H   0  0  0  0  0  0  0  0  0  0  0  0
    1.6244   -1.4320    4.1070 C   0  0  0  0  0  0  0  0  0  0  0  0
    1.5753   -0.5408    4.7425 H   0  0  0  0  0  0  0  0  0  0  0  0
    0.7370   -2.0430    4.3075 H   0  0  0  0  0  0  0  0  0  0  0  0
    2.8385   -2.1971    4.4069 N   0  0  0  0  0  0  0  0  0  0  0  0
    2.8465   -2.5110    5.3771 H   0  0  0  0  0  0  0  0  0  0  0  0
    2.9354   -2.9876    3.7692 H   0  0  0  0  0  0  0  0  0  0  0  0
   -0.4706    1.7290   -1.0049 C   0  0  0  0  0  0  0  0  0  0  0  0
   -0.5802    1.1915   -2.0982 O   0  0  0  0  0  0  0  0  0  0  0  0
   -0.2005    3.0857   -0.9537 N   0  0  0  0  0  0  0  0  0  0  0  0
   -0.0940    3.5120   -0.0382 H   0  0  0  0  0  0  0  0  0  0  0  0
    0.0800    3.8880   -2.1387 C   0  0  0  0  0  0  0  0  0  0  0  0
   -0.7648    3.8526   -2.8346 H   0  0  0  0  0  0  0  0  0  0  0  0
    0.2513    4.9316   -1.8577 H   0  0  0  0  0  0  0  0  0  0  0  0
    0.9738    3.5155   -2.6504 H   0  0  0  0  0  0  0  0  0  0  0  0
  1  2  1  0  0  0  0
  2  3  1  0  0  0  0
  2  4  1  0  0  0  0
  2  5  1  0  0  0  0
  5  6  2  0  0  0  0
  5  7  1  0  0  0  0
  7  8  1  0  0  0  0
  7  9  1  0  0  0  0
  9 10  1  0  0  0  0
  9 11  1  0  0  0  0
  9 26  1  0  0  0  0
 11 12  1  0  0  0  0
 11 13  1  0  0  0  0
 11 14  1  0  0  0  0
 14 15  1  0  0  0  0
 14 16  1  0  0  0  0
 14 17  1  0  0  0  0
 17 18  1  0  0  0  0
 17 19  1  0  0  0  0
 17 20  1  0  0  0  0
 20 21  1  0  0  0  0
 20 22  1  0  0  0  0
 20 23  1  0  0  0  0
 23 24  1  0  0  0  0
 23 25  1  0  0  0  0
 26 27  2  0  0  0  0
 26 28  1  0  0  0  0
 28 29  1  0  0  0  0
 28 30  1  0  0  0  0
 30 31  1  0  0  0  0
 30 32  1  0  0  0  0
 30 33  1  0  0  0  0
M  END
$$$$

  -OEChem-01062216083D

 33 32  0     1  0  0  0  0  0999 V2000
   -4.2949   -2.2313    0.6966 H   0  0  0  0  0  0  0  0  0  0  0  0
   -4.0690   -1.2106    0.3747 C   0  0  0  0  0  0  0  0  0  0  0  0
   -4.6676   -0.5153    0.9679 H   0  0  0  0  0  0  0  0  0  0  0  0
   -4.3381   -1.1072   -0.6795 H   0  0  0  0  0  0  0  0  0  0  0  0
   -2.5917   -0.9162    0.5617 C   0  0  0  0  0  0  0  0  0  0  0  0
   -1.8635   -1.8305    0.9032 O   0  0  0  0  0  0  0  0  0  0  0  0
   -2.1370    0.3482    0.2302 N   0  0  0  0  0  0  0  0  0  0  0  0
   -2.8306    0.9105   -0.2563 H   0  0  0  0  0  0  0  0  0  0  0  0
   -0.7833    0.9525    0.2929 C   0  0  1  0  0  0  0  0  0  0  0  0
   -0.8847    1.7289    1.0568 H   0  0  0  0  0  0  0  0  0  0  0  0
    0.4359    0.1293    0.7677 C   0  0  0  0  0  0  0  0  0  0  0  0
    0.4983   -0.7839    0.1657 H   0  0  0  0  0  0  0  0  0  0  0  0
    1.3486    0.7045    0.5797 H   0  0  0  0  0  0  0  0  0  0  0  0
    0.4034   -0.2413    2.2644 C   0  0  0  0  0  0  0  0  0  0  0  0
    0.3710    0.6784    2.8569 H   0  0  0  0  0  0  0  0  0  0  0  0
   -0.4799   -0.8201    2.5306 H   0  0  0  0  0  0  0  0  0  0  0  0
    1.6616   -1.0318    2.6381 C   0  0  0  0  0  0  0  0  0  0  0  0
    1.7198   -1.9349    2.0215 H   0  0  0  0  0  0  0  0  0  0  0  0
    2.5529   -0.4275    2.4396 H   0  0  0  0  0  0  0  0  0  0  0  0
    1.6340   -1.4281    4.1108 C   0  0  0  0  0  0  0  0  0  0  0  0
    1.5923   -0.5335    4.7420 H   0  0  0  0  0  0  0  0  0  0  0  0
    0.7436   -2.0328    4.3169 H   0  0  0  0  0  0  0  0  0  0  0  0
    2.8447   -2.1992    4.4090 N   0  0  0  0  0  0  0  0  0  0  0  0
    2.8567   -2.5048    5.3818 H   0  0  0  0  0  0  0  0  0  0  0  0
    2.9314   -2.9959    3.7775 H   0  0  0  0  0  0  0  0  0  0  0  0
   -0.4630    1.7318   -1.0013 C   0  0  0  0  0  0  0  0  0  0  0  0
   -0.8746    1.3380   -2.0849 O   0  0  0  0  0  0  0  0  0  0  0  0
    0.1150    2.9874   -0.9284 N   0  0  0  0  0  0  0  0  0  0  0  0
    0.4539    3.2984   -0.0228 H   0  0  0  0  0  0  0  0  0  0  0  0
    0.3897    3.8098   -2.1012 C   0  0  0  0  0  0  0  0  0  0  0  0
   -0.5352    4.0185   -2.6492 H   0  0  0  0  0  0  0  0  0  0  0  0
    0.8334    4.7635   -1.7999 H   0  0  0  0  0  0  0  0  0  0  0  0
    1.0888    3.2990   -2.7715 H   0  0  0  0  0  0  0  0  0  0  0  0
  1  2  1  0  0  0  0
  2  3  1  0  0  0  0
  2  4  1  0  0  0  0
  2  5  1  0  0  0  0
  5  6  2  0  0  0  0
  5  7  1  0  0  0  0
  7  8  1  0  0  0  0
  7  9  1  0  0  0  0
  9 10  1  0  0  0  0
  9 11  1  0  0  0  0
  9 26  1  0  0  0  0
 11 12  1  0  0  0  0
 11 13  1  0  0  0  0
 11 14  1  0  0  0  0
 14 15  1  0  0  0  0
 14 16  1  0  0  0  0
 14 17  1  0  0  0  0
 17 18  1  0  0  0  0
 17 19  1  0  0  0  0
 17 20  1  0  0  0  0
 20 21  1  0  0  0  0
 20 22  1  0  0  0  0
 20 23  1  0  0  0  0
 23 24  1  0  0  0  0
 23 25  1  0  0  0  0
 26 27  2  0  0  0  0
 26 28  1  0  0  0  0
 28 29  1  0  0  0  0
 28 30  1  0  0  0  0
 30 31  1  0  0  0  0
 30 32  1  0  0  0  0
 30 33  1  0  0  0  0
M  END
$$$$

  -OEChem-01062216083D

 33 32  0     1  0  0  0  0  0999 V2000
   -4.2904   -2.2202    0.6967 H   0  0  0  0  0  0  0  0  0  0  0  0
   -4.0604   -1.2006    0.3746 C   0  0  0  0  0  0  0  0  0  0  0  0
   -4.6628   -0.5031    0.9612 H   0  0  0  0  0  0  0  0  0  0  0  0
   -4.3208   -1.0983   -0.6818 H   0  0  0  0  0  0  0  0  0  0  0  0
   -2.5844   -0.9077    0.5720 C   0  0  0  0  0  0  0  0  0  0  0  0
   -1.8582   -1.8243    0.9123 O   0  0  0  0  0  0  0  0  0  0  0  0
   -2.1259    0.3551    0.2406 N   0  0  0  0  0  0  0  0  0  0  0  0
   -2.8091    0.9100   -0.2703 H   0  0  0  0  0  0  0  0  0  0  0  0
   -0.7708    0.9560    0.2941 C   0  0  1  0  0  0  0  0  0  0  0  0
   -0.8652    1.7367    1.0546 H   0  0  0  0  0  0  0  0  0  0  0  0
    0.4435    0.1234    0.7681 C   0  0  0  0  0  0  0  0  0  0  0  0
    0.4955   -0.7926    0.1697 H   0  0  0  0  0  0  0  0  0  0  0  0
    1.3620    0.6871    0.5764 H   0  0  0  0  0  0  0  0  0  0  0  0
    0.4119   -0.2415    2.2662 C   0  0  0  0  0  0  0  0  0  0  0  0
    0.3900    0.6812    2.8550 H   0  0  0  0  0  0  0  0  0  0  0  0
   -0.4759   -0.8103    2.5379 H   0  0  0  0  0  0  0  0  0  0  0  0
    1.6637   -1.0423    2.6397 C   0  0  0  0  0  0  0  0  0  0  0  0
    1.7106   -1.9489    2.0275 H   0  0  0  0  0  0  0  0  0  0  0  0
    2.5606   -0.4485    2.4361 H   0  0  0  0  0  0  0  0  0  0  0  0
    1.6367   -1.4327    4.1138 C   0  0  0  0  0  0  0  0  0  0  0  0
    1.6074   -0.5349    4.7408 H   0  0  0  0  0  0  0  0  0  0  0  0
    0.7404   -2.0265    4.3263 H   0  0  0  0  0  0  0  0  0  0  0  0
    2.8403   -2.2141    4.4123 N   0  0  0  0  0  0  0  0  0  0  0  0
    2.8535   -2.5106    5.3879 H   0  0  0  0  0  0  0  0  0  0  0  0
    2.9139   -3.0180    3.7884 H   0  0  0  0  0  0  0  0  0  0  0  0
   -0.4575    1.7379   -1.0011 C   0  0  0  0  0  0  0  0  0  0  0  0
   -1.0933    1.5281   -2.0272 O   0  0  0  0  0  0  0  0  0  0  0  0
    0.3904    2.8308   -0.9589 N   0  0  0  0  0  0  0  0  0  0  0  0
    0.9042    2.9947   -0.0980 H   0  0  0  0  0  0  0  0  0  0  0  0
    0.6760    3.6684   -2.1181 C   0  0  0  0  0  0  0  0  0  0  0  0
   -0.2479    4.1014   -2.5160 H   0  0  0  0  0  0  0  0  0  0  0  0
    1.3465    4.4866   -1.8379 H   0  0  0  0  0  0  0  0  0  0  0  0
    1.1577    3.0800   -2.9063 H   0  0  0  0  0  0  0  0  0  0  0  0
  1  2  1  0  0  0  0
  2  3  1  0  0  0  0
  2  4  1  0  0  0  0
  2  5  1  0  0  0  0
  5  6  2  0  0  0  0
  5  7  1  0  0  0  0
  7  8  1  0  0  0  0
  7  9  1  0  0  0  0
  9 10  1  0  0  0  0
  9 11  1  0  0  0  0
  9 26  1  0  0  0  0
 11 12  1  0  0  0  0
 11 13  1  0  0  0  0
 11 14  1  0  0  0  0
 14 15  1  0  0  0  0
 14 16  1  0  0  0  0
 14 17  1  0  0  0  0
 17 18  1  0  0  0  0
 17 19  1  0  0  0  0
 17 20  1  0  0  0  0
 20 21  1  0  0  0  0
 20 22  1  0  0  0  0
 20 23  1  0  0  0  0
 23 24  1  0  0  0  0
 23 25  1  0  0  0  0
 26 27  2  0  0  0  0
 26 28  1  0  0  0  0
 28 29  1  0  0  0  0
 28 30  1  0  0  0  0
 30 31  1  0  0  0  0
 30 32  1  0  0  0  0
 30 33  1  0  0  0  0
M  END
$$$$

  -OEChem-01062216083D

 33 32  0     1  0  0  0  0  0999 V2000
   -4.2753   -2.2052    0.7067 H   0  0  0  0  0  0  0  0  0  0  0  0
   -4.0404   -1.1868    0.3845 C   0  0  0  0  0  0  0  0  0  0  0  0
   -4.6306   -0.4855    0.9792 H   0  0  0  0  0  0  0  0  0  0  0  0
   -4.3111   -1.0797   -0.6688 H   0  0  0  0  0  0  0  0  0  0  0  0
   -2.5604   -0.9055    0.5678 C   0  0  0  0  0  0  0  0  0  0  0  0
   -1.8336   -1.8303    0.8848 O   0  0  0  0  0  0  0  0  0  0  0  0
   -2.0989    0.3581    0.2450 N   0  0  0  0  0  0  0  0  0  0  0  0
   -2.7847    0.9248   -0.2509 H   0  0  0  0  0  0  0  0  0  0  0  0
   -0.7462    0.9642    0.3030 C   0  0  1  0  0  0  0  0  0  0  0  0
   -0.8370    1.7456    1.0631 H   0  0  0  0  0  0  0  0  0  0  0  0
    0.4633    0.1219    0.7780 C   0  0  0  0  0  0  0  0  0  0  0  0
    0.5141   -0.7911    0.1756 H   0  0  0  0  0  0  0  0  0  0  0  0
    1.3881    0.6780    0.5982 H   0  0  0  0  0  0  0  0  0  0  0  0
    0.4186   -0.2492    2.2741 C   0  0  0  0  0  0  0  0  0  0  0  0
    0.3966    0.6709    2.8667 H   0  0  0  0  0  0  0  0  0  0  0  0
   -0.4745   -0.8148    2.5357 H   0  0  0  0  0  0  0  0  0  0  0  0
    1.6637   -1.0583    2.6530 C   0  0  0  0  0  0  0  0  0  0  0  0
    1.7117   -1.9617    2.0360 H   0  0  0  0  0  0  0  0  0  0  0  0
    2.5651   -0.4676    2.4592 H   0  0  0  0  0  0  0  0  0  0  0  0
    1.6236   -1.4553    4.1253 C   0  0  0  0  0  0  0  0  0  0  0  0
    1.5925   -0.5607    4.7568 H   0  0  0  0  0  0  0  0  0  0  0  0
    0.7233   -2.0465    4.3274 H   0  0  0  0  0  0  0  0  0  0  0  0
    2.8212   -2.2442    4.4289 N   0  0  0  0  0  0  0  0  0  0  0  0
    2.8219   -2.5526    5.4010 H   0  0  0  0  0  0  0  0  0  0  0  0
    2.9005   -3.0409    3.7964 H   0  0  0  0  0  0  0  0  0  0  0  0
   -0.4461    1.7509   -0.9952 C   0  0  0  0  0  0  0  0  0  0  0  0
   -1.2370    1.7282   -1.9319 O   0  0  0  0  0  0  0  0  0  0  0  0
    0.6098    2.6442   -1.0459 N   0  0  0  0  0  0  0  0  0  0  0  0
    1.2519    2.6587   -0.2591 H   0  0  0  0  0  0  0  0  0  0  0  0
    0.9030    3.4740   -2.2086 C   0  0  0  0  0  0  0  0  0  0  0  0
    0.0473    4.1135   -2.4499 H   0  0  0  0  0  0  0  0  0  0  0  0
    1.7661    4.1158   -2.0075 H   0  0  0  0  0  0  0  0  0  0  0  0
    1.1313    2.8478   -3.0775 H   0  0  0  0  0  0  0  0  0  0  0  0
  1  2  1  0  0  0  0
  2  3  1  0  0  0  0
  2  4  1  0  0  0  0
  2  5  1  0  0  0  0
  5  6  2  0  0  0  0
  5  7  1  0  0  0  0
  7  8  1  0  0  0  0
  7  9  1  0  0  0  0
  9 10  1  0  0  0  0
  9 11  1  0  0  0  0
  9 26  1  0  0  0  0
 11 12  1  0  0  0  0
 11 13  1  0  0  0  0
 11 14  1  0  0  0  0
 14 15  1  0  0  0  0
 14 16  1  0  0  0  0
 14 17  1  0  0  0  0
 17 18  1  0  0  0  0
 17 19  1  0  0  0  0
 17 20  1  0  0  0  0
 20 21  1  0  0  0  0
 20 22  1  0  0  0  0
 20 23  1  0  0  0  0
 23 24  1  0  0  0  0
 23 25  1  0  0  0  0
 26 27  2  0  0  0  0
 26 28  1  0  0  0  0
 28 29  1  0  0  0  0
 28 30  1  0  0  0  0
 30 31  1  0  0  0  0
 30 32  1  0  0  0  0
 30 33  1  0  0  0  0
M  END
$$$$

  -OEChem-01062216083D

 33 32  0     1  0  0  0  0  0999 V2000
   -4.0426   -1.0996    1.7779 H   0  0  0  0  0  0  0  0  0  0  0  0
   -2.9599   -1.1830    1.6540 C   0  0  0  0  0  0  0  0  0  0  0  0
   -2.4797   -0.4672    2.3250 H   0  0  0  0  0  0  0  0  0  0  0  0
   -2.6495   -2.1952    1.9251 H   0  0  0  0  0  0  0  0  0  0  0  0
   -2.5923   -0.8936    0.2064 C   0  0  0  0  0  0  0  0  0  0  0  0
   -3.0464   -1.6083   -0.6673 O   0  0  0  0  0  0  0  0  0  0  0  0
   -2.2103    0.3637   -0.1881 N   0  0  0  0  0  0  0  0  0  0  0  0
   -2.4569    0.5070   -1.1715 H   0  0  0  0  0  0  0  0  0  0  0  0
   -0.9832    1.1065    0.1764 C   0  0  1  0  0  0  0  0  0  0  0  0
   -1.1814    1.7140    1.0644 H   0  0  0  0  0  0  0  0  0  0  0  0
    0.3011    0.2493    0.4060 C   0  0  0  0  0  0  0  0  0  0  0  0
    0.4636   -0.3576   -0.4922 H   0  0  0  0  0  0  0  0  0  0  0  0
    1.1611    0.9182    0.5053 H   0  0  0  0  0  0  0  0  0  0  0  0
    0.3382   -0.6801    1.6279 C   0  0  0  0  0  0  0  0  0  0  0  0
   -0.4296   -1.4462    1.5528 H   0  0  0  0  0  0  0  0  0  0  0  0
    0.1720   -0.1025    2.5432 H   0  0  0  0  0  0  0  0  0  0  0  0
    1.6865   -1.4081    1.6917 C   0  0  0  0  0  0  0  0  0  0  0  0
    1.8402   -1.9772    0.7687 H   0  0  0  0  0  0  0  0  0  0  0  0
    2.4983   -0.6781    1.7771 H   0  0  0  0  0  0  0  0  0  0  0  0
    1.7405   -2.3580    2.8848 C   0  0  0  0  0  0  0  0  0  0  0  0
    1.6150   -1.7987    3.8185 H   0  0  0  0  0  0  0  0  0  0  0  0
    0.9314   -3.0938    2.8173 H   0  0  0  0  0  0  0  0  0  0  0  0
    3.0391   -3.0369    2.8760 N   0  0  0  0  0  0  0  0  0  0  0  0
    3.1256   -3.6814    3.6621 H   0  0  0  0  0  0  0  0  0  0  0  0
    3.1942   -3.5208    1.9912 H   0  0  0  0  0  0  0  0  0  0  0  0
   -0.6303    2.0519   -1.0090 C   0  0  0  0  0  0  0  0  0  0  0  0
   -1.3354    2.0804   -2.0115 O   0  0  0  0  0  0  0  0  0  0  0  0
    0.4747    2.8866   -0.9682 N   0  0  0  0  0  0  0  0  0  0  0  0
    1.0522    2.8677   -0.1332 H   0  0  0  0  0  0  0  0  0  0  0  0
    0.8379    3.7924   -2.0526 C   0  0  0  0  0  0  0  0  0  0  0  0
    0.0609    4.5508   -2.1942 H   0  0  0  0  0  0  0  0  0  0  0  0
    1.7792    4.3000   -1.8218 H   0  0  0  0  0  0  0  0  0  0  0  0
    0.9659    3.2397   -2.9894 H   0  0  0  0  0  0  0  0  0  0  0  0
  1  2  1  0  0  0  0
  2  3  1  0  0  0  0
  2  4  1  0  0  0  0
  2  5  1  0  0  0  0
  5  6  2  0  0  0  0
  5  7  1  0  0  0  0
  7  8  1  0  0  0  0
  7  9  1  0  0  0  0
  9 10  1  0  0  0  0
  9 11  1  0  0  0  0
  9 26  1  0  0  0  0
 11 12  1  0  0  0  0
 11 13  1  0  0  0  0
 11 14  1  0  0  0  0
 14 15  1  0  0  0  0
 14 16  1  0  0  0  0
 14 17  1  0  0  0  0
 17 18  1  0  0  0  0
 17 19  1  0  0  0  0
 17 20  1  0  0  0  0
 20 21  1  0  0  0  0
 20 22  1  0  0  0  0
 20 23  1  0  0  0  0
 23 24  1  0  0  0  0
 23 25  1  0  0  0  0
 26 27  2  0  0  0  0
 26 28  1  0  0  0  0
 28 29  1  0  0  0  0
 28 30  1  0  0  0  0
 30 31  1  0  0  0  0
 30 32  1  0  0  0  0
 30 33  1  0  0  0  0
M  END
$$$$

  -OEChem-01062216083D

 33 32  0     1  0  0  0  0  0999 V2000
   -4.0305   -1.1371    1.7755 H   0  0  0  0  0  0  0  0  0  0  0  0
   -2.9465   -1.2011    1.6513 C   0  0  0  0  0  0  0  0  0  0  0  0
   -2.4784   -0.4832    2.3285 H   0  0  0  0  0  0  0  0  0  0  0  0
   -2.6197   -2.2104    1.9133 H   0  0  0  0  0  0  0  0  0  0  0  0
   -2.5834   -0.8933    0.2065 C   0  0  0  0  0  0  0  0  0  0  0  0
   -3.0538   -1.5890   -0.6740 O   0  0  0  0  0  0  0  0  0  0  0  0
   -2.1969    0.3669   -0.1741 N   0  0  0  0  0  0  0  0  0  0  0  0
   -2.4875    0.5480   -1.1386 H   0  0  0  0  0  0  0  0  0  0  0  0
   -0.9620    1.1046    0.1767 C   0  0  1  0  0  0  0  0  0  0  0  0
   -1.1475    1.7122    1.0675 H   0  0  0  0  0  0  0  0  0  0  0  0
    0.3167    0.2367    0.4040 C   0  0  0  0  0  0  0  0  0  0  0  0
    0.4740   -0.3739   -0.4924 H   0  0  0  0  0  0  0  0  0  0  0  0
    1.1814    0.8982    0.5067 H   0  0  0  0  0  0  0  0  0  0  0  0
    0.3504   -0.6833    1.6328 C   0  0  0  0  0  0  0  0  0  0  0  0
   -0.4245   -1.4425    1.5658 H   0  0  0  0  0  0  0  0  0  0  0  0
    0.1930   -0.0976    2.5447 H   0  0  0  0  0  0  0  0  0  0  0  0
    1.6904   -1.4259    1.6978 C   0  0  0  0  0  0  0  0  0  0  0  0
    1.8343   -2.0052    0.7798 H   0  0  0  0  0  0  0  0  0  0  0  0
    2.5112   -0.7051    1.7739 H   0  0  0  0  0  0  0  0  0  0  0  0
    1.7354   -2.3653    2.8997 C   0  0  0  0  0  0  0  0  0  0  0  0
    1.6206   -1.7946    3.8281 H   0  0  0  0  0  0  0  0  0  0  0  0
    0.9161   -3.0907    2.8421 H   0  0  0  0  0  0  0  0  0  0  0  0
    3.0248   -3.0616    2.8962 N   0  0  0  0  0  0  0  0  0  0  0  0
    3.1052   -3.6956    3.6916 H   0  0  0  0  0  0  0  0  0  0  0  0
    3.1698   -3.5611    2.0184 H   0  0  0  0  0  0  0  0  0  0  0  0
   -0.6398    2.0603   -1.0138 C   0  0  0  0  0  0  0  0  0  0  0  0
   -1.4916    2.2827   -1.8669 O   0  0  0  0  0  0  0  0  0  0  0  0
    0.5920    2.6774   -1.1661 N   0  0  0  0  0  0  0  0  0  0  0  0
    1.3044    2.4905   -0.4676 H   0  0  0  0  0  0  0  0  0  0  0  0
    0.9186    3.5615   -2.2799 C   0  0  0  0  0  0  0  0  0  0  0  0
    0.2620    4.4379   -2.2791 H   0  0  0  0  0  0  0  0  0  0  0  0
    1.9540    3.9060   -2.1985 H   0  0  0  0  0  0  0  0  0  0  0  0
    0.8041    3.0359   -3.2339 H   0  0  0  0  0  0  0  0  0  0  0  0
  1  2  1  0  0  0  0
  2  3  1  0  0  0  0
  2  4  1  0  0  0  0
  2  5  1  0  0  0  0
  5  6  2  0  0  0  0
  5  7  1  0  0  0  0
  7  8  1  0  0  0  0
  7  9  1  0  0  0  0
  9 10  1  0  0  0  0
  9 11  1  0  0  0  0
  9 26  1  0  0  0  0
 11 12  1  0  0  0  0
 11 13  1  0  0  0  0
 11 14  1  0  0  0  0
 14 15  1  0  0  0  0
 14 16  1  0  0  0  0
 14 17  1  0  0  0  0
 17 18  1  0  0  0  0
 17 19  1  0  0  0  0
 17 20  1  0  0  0  0
 20 21  1  0  0  0  0
 20 22  1  0  0  0  0
 20 23  1  0  0  0  0
 23 24  1  0  0  0  0
 23 25  1  0  0  0  0
 26 27  2  0  0  0  0
 26 28  1  0  0  0  0
 28 29  1  0  0  0  0
 28 30  1  0  0  0  0
 30 31  1  0  0  0  0
 30 32  1  0  0  0  0
 30 33  1  0  0  0  0
M  END
$$$$

  -OEChem-01062216083D

 33 32  0     1  0  0  0  0  0999 V2000
   -4.0318   -1.1418    1.7667 H   0  0  0  0  0  0  0  0  0  0  0  0
   -2.9473   -1.2048    1.6453 C   0  0  0  0  0  0  0  0  0  0  0  0
   -2.4818   -0.4891    2.3266 H   0  0  0  0  0  0  0  0  0  0  0  0
   -2.6208   -2.2149    1.9043 H   0  0  0  0  0  0  0  0  0  0  0  0
   -2.5799   -0.8899    0.2033 C   0  0  0  0  0  0  0  0  0  0  0  0
   -3.0543   -1.5746   -0.6836 O   0  0  0  0  0  0  0  0  0  0  0  0
   -2.1885    0.3716   -0.1676 N   0  0  0  0  0  0  0  0  0  0  0  0
   -2.5074    0.5783   -1.1169 H   0  0  0  0  0  0  0  0  0  0  0  0
   -0.9441    1.0963    0.1763 C   0  0  1  0  0  0  0  0  0  0  0  0
   -1.1203    1.7052    1.0683 H   0  0  0  0  0  0  0  0  0  0  0  0
    0.3294    0.2225    0.4059 C   0  0  0  0  0  0  0  0  0  0  0  0
    0.4854   -0.3940   -0.4866 H   0  0  0  0  0  0  0  0  0  0  0  0
    1.1947    0.8836    0.5107 H   0  0  0  0  0  0  0  0  0  0  0  0
    0.3567   -0.6891    1.6406 C   0  0  0  0  0  0  0  0  0  0  0  0
   -0.4240   -1.4425    1.5788 H   0  0  0  0  0  0  0  0  0  0  0  0
    0.2034   -0.0956    2.5480 H   0  0  0  0  0  0  0  0  0  0  0  0
    1.6915   -1.4406    1.7096 C   0  0  0  0  0  0  0  0  0  0  0  0
    1.8306   -2.0259    0.7947 H   0  0  0  0  0  0  0  0  0  0  0  0
    2.5166   -0.7243    1.7812 H   0  0  0  0  0  0  0  0  0  0  0  0
    1.7327   -2.3732    2.9169 C   0  0  0  0  0  0  0  0  0  0  0  0
    1.6227   -1.7964    3.8420 H   0  0  0  0  0  0  0  0  0  0  0  0
    0.9091   -3.0943    2.8653 H   0  0  0  0  0  0  0  0  0  0  0  0
    3.0181   -3.0770    2.9142 N   0  0  0  0  0  0  0  0  0  0  0  0
    3.0992   -3.7028    3.7160 H   0  0  0  0  0  0  0  0  0  0  0  0
    3.1559   -3.5866    2.0411 H   0  0  0  0  0  0  0  0  0  0  0  0
   -0.6432    2.0573   -1.0161 C   0  0  0  0  0  0  0  0  0  0  0  0
   -1.5735    2.4890   -1.6867 O   0  0  0  0  0  0  0  0  0  0  0  0
    0.6368    2.4428   -1.3843 N   0  0  0  0  0  0  0  0  0  0  0  0
    1.4158    2.0601   -0.8581 H   0  0  0  0  0  0  0  0  0  0  0  0
    0.9211    3.3172   -2.5171 C   0  0  0  0  0  0  0  0  0  0  0  0
    0.4606    4.2995   -2.3677 H   0  0  0  0  0  0  0  0  0  0  0  0
    2.0009    3.4551   -2.6264 H   0  0  0  0  0  0  0  0  0  0  0  0
    0.5330    2.8832   -3.4447 H   0  0  0  0  0  0  0  0  0  0  0  0
  1  2  1  0  0  0  0
  2  3  1  0  0  0  0
  2  4  1  0  0  0  0
  2  5  1  0  0  0  0
  5  6  2  0  0  0  0
  5  7  1  0  0  0  0
  7  8  1  0  0  0  0
  7  9  1  0  0  0  0
  9 10  1  0  0  0  0
  9 11  1  0  0  0  0
  9 26  1  0  0  0  0
 11 12  1  0  0  0  0
 11 13  1  0  0  0  0
 11 14  1  0  0  0  0
 14 15  1  0  0  0  0
 14 16  1  0  0  0  0
 14 17  1  0  0  0  0
 17 18  1  0  0  0  0
 17 19  1  0  0  0  0
 17 20  1  0  0  0  0
 20 21  1  0  0  0  0
 20 22  1  0  0  0  0
 20 23  1  0  0  0  0
 23 24  1  0  0  0  0
 23 25  1  0  0  0  0
 26 27  2  0  0  0  0
 26 28  1  0  0  0  0
 28 29  1  0  0  0  0
 28 30  1  0  0  0  0
 30 31  1  0  0  0  0
 30 32  1  0  0  0  0
 30 33  1  0  0  0  0
M  END
$$$$

  -OEChem-01062216083D

 33 32  0     1  0  0  0  0  0999 V2000
   -4.0293   -1.1493    1.7792 H   0  0  0  0  0  0  0  0  0  0  0  0
   -2.9461   -1.2133    1.6474 C   0  0  0  0  0  0  0  0  0  0  0  0
   -2.4742   -0.5024    2.3293 H   0  0  0  0  0  0  0  0  0  0  0  0
   -2.6183   -2.2255    1.8968 H   0  0  0  0  0  0  0  0  0  0  0  0
   -2.5914   -0.8889    0.2043 C   0  0  0  0  0  0  0  0  0  0  0  0
   -3.0841   -1.5584   -0.6844 O   0  0  0  0  0  0  0  0  0  0  0  0
   -2.1961    0.3726   -0.1619 N   0  0  0  0  0  0  0  0  0  0  0  0
   -2.5371    0.5927   -1.0991 H   0  0  0  0  0  0  0  0  0  0  0  0
   -0.9429    1.0848    0.1730 C   0  0  1  0  0  0  0  0  0  0  0  0
   -1.1110    1.6934    1.0670 H   0  0  0  0  0  0  0  0  0  0  0  0
    0.3292    0.2109    0.4024 C   0  0  0  0  0  0  0  0  0  0  0  0
    0.4812   -0.4142   -0.4850 H   0  0  0  0  0  0  0  0  0  0  0  0
    1.1928    0.8774    0.4973 H   0  0  0  0  0  0  0  0  0  0  0  0
    0.3591   -0.6921    1.6425 C   0  0  0  0  0  0  0  0  0  0  0  0
   -0.4243   -1.4432    1.5883 H   0  0  0  0  0  0  0  0  0  0  0  0
    0.2111   -0.0921    2.5465 H   0  0  0  0  0  0  0  0  0  0  0  0
    1.6925   -1.4455    1.7106 C   0  0  0  0  0  0  0  0  0  0  0  0
    1.8267   -2.0377    0.7995 H   0  0  0  0  0  0  0  0  0  0  0  0
    2.5194   -0.7304    1.7739 H   0  0  0  0  0  0  0  0  0  0  0  0
    1.7363   -2.3697    2.9239 C   0  0  0  0  0  0  0  0  0  0  0  0
    1.6327   -1.7856    3.8453 H   0  0  0  0  0  0  0  0  0  0  0  0
    0.9106   -3.0889    2.8808 H   0  0  0  0  0  0  0  0  0  0  0  0
    3.0200   -3.0766    2.9209 N   0  0  0  0  0  0  0  0  0  0  0  0
    3.1053   -3.6920    3.7304 H   0  0  0  0  0  0  0  0  0  0  0  0
    3.1499   -3.5984    2.0539 H   0  0  0  0  0  0  0  0  0  0  0  0
   -0.6515    2.0504   -1.0148 C   0  0  0  0  0  0  0  0  0  0  0  0
   -1.5791    2.6867   -1.4981 O   0  0  0  0  0  0  0  0  0  0  0  0
    0.5989    2.2027   -1.5943 N   0  0  0  0  0  0  0  0  0  0  0  0
    1.3563    1.6277   -1.2389 H   0  0  0  0  0  0  0  0  0  0  0  0
    0.8570    3.0704   -2.7380 C   0  0  0  0  0  0  0  0  0  0  0  0
    0.6008    4.1076   -2.4975 H   0  0  0  0  0  0  0  0  0  0  0  0
    1.9159    3.0316   -3.0107 H   0  0  0  0  0  0  0  0  0  0  0  0
    0.2651    2.7522   -3.6028 H   0  0  0  0  0  0  0  0  0  0  0  0
  1  2  1  0  0  0  0
  2  3  1  0  0  0  0
  2  4  1  0  0  0  0
  2  5  1  0  0  0  0
  5  6  2  0  0  0  0
  5  7  1  0  0  0  0
  7  8  1  0  0  0  0
  7  9  1  0  0  0  0
  9 10  1  0  0  0  0
  9 11  1  0  0  0  0
  9 26  1  0  0  0  0
 11 12  1  0  0  0  0
 11 13  1  0  0  0  0
 11 14  1  0  0  0  0
 14 15  1  0  0  0  0
 14 16  1  0  0  0  0
 14 17  1  0  0  0  0
 17 18  1  0  0  0  0
 17 19  1  0  0  0  0
 17 20  1  0  0  0  0
 20 21  1  0  0  0  0
 20 22  1  0  0  0  0
 20 23  1  0  0  0  0
 23 24  1  0  0  0  0
 23 25  1  0  0  0  0
 26 27  2  0  0  0  0
 26 28  1  0  0  0  0
 28 29  1  0  0  0  0
 28 30  1  0  0  0  0
 30 31  1  0  0  0  0
 30 32  1  0  0  0  0
 30 33  1  0  0  0  0
M  END
$$$$

  -OEChem-01062216083D

 33 32  0     1  0  0  0  0  0999 V2000
   -4.0369   -1.1533    1.7790 H   0  0  0  0  0  0  0  0  0  0  0  0
   -2.9533   -1.2145    1.6503 C   0  0  0  0  0  0  0  0  0  0  0  0
   -2.4847   -0.5010    2.3320 H   0  0  0  0  0  0  0  0  0  0  0  0
   -2.6231   -2.2249    1.9029 H   0  0  0  0  0  0  0  0  0  0  0  0
   -2.5959   -0.8920    0.2077 C   0  0  0  0  0  0  0  0  0  0  0  0
   -3.0831   -1.5627   -0.6832 O   0  0  0  0  0  0  0  0  0  0  0  0
   -2.2054    0.3702   -0.1600 N   0  0  0  0  0  0  0  0  0  0  0  0
   -2.5498    0.5845   -1.0964 H   0  0  0  0  0  0  0  0  0  0  0  0
   -0.9475    1.0756    0.1697 C   0  0  1  0  0  0  0  0  0  0  0  0
   -1.1121    1.6839    1.0648 H   0  0  0  0  0  0  0  0  0  0  0  0
    0.3246    0.2038    0.4000 C   0  0  0  0  0  0  0  0  0  0  0  0
    0.4685   -0.4327   -0.4802 H   0  0  0  0  0  0  0  0  0  0  0  0
    1.1882    0.8738    0.4763 H   0  0  0  0  0  0  0  0  0  0  0  0
    0.3570   -0.6932    1.6450 C   0  0  0  0  0  0  0  0  0  0  0  0
   -0.4279   -1.4434    1.5980 H   0  0  0  0  0  0  0  0  0  0  0  0
    0.2126   -0.0882    2.5462 H   0  0  0  0  0  0  0  0  0  0  0  0
    1.6903   -1.4468    1.7146 C   0  0  0  0  0  0  0  0  0  0  0  0
    1.8209   -2.0446    0.8066 H   0  0  0  0  0  0  0  0  0  0  0  0
    2.5181   -0.7320    1.7709 H   0  0  0  0  0  0  0  0  0  0  0  0
    1.7367   -2.3649    2.9326 C   0  0  0  0  0  0  0  0  0  0  0  0
    1.6341   -1.7760    3.8509 H   0  0  0  0  0  0  0  0  0  0  0  0
    0.9106   -3.0840    2.8950 H   0  0  0  0  0  0  0  0  0  0  0  0
    3.0204   -3.0722    2.9308 N   0  0  0  0  0  0  0  0  0  0  0  0
    3.1072   -3.6847    3.7422 H   0  0  0  0  0  0  0  0  0  0  0  0
    3.1509   -3.5960    2.0651 H   0  0  0  0  0  0  0  0  0  0  0  0
   -0.6580    2.0437   -1.0118 C   0  0  0  0  0  0  0  0  0  0  0  0
   -1.5130    2.8637   -1.3169 O   0  0  0  0  0  0  0  0  0  0  0  0
    0.4879    1.9845   -1.7897 N   0  0  0  0  0  0  0  0  0  0  0  0
    1.1602    1.2523   -1.5824 H   0  0  0  0  0  0  0  0  0  0  0  0
    0.7186    2.8416   -2.9472 C   0  0  0  0  0  0  0  0  0  0  0  0
    0.7089    3.8963   -2.6519 H   0  0  0  0  0  0  0  0  0  0  0  0
    1.6914    2.6184   -3.3956 H   0  0  0  0  0  0  0  0  0  0  0  0
   -0.0565    2.6804   -3.7038 H   0  0  0  0  0  0  0  0  0  0  0  0
  1  2  1  0  0  0  0
  2  3  1  0  0  0  0
  2  4  1  0  0  0  0
  2  5  1  0  0  0  0
  5  6  2  0  0  0  0
  5  7  1  0  0  0  0
  7  8  1  0  0  0  0
  7  9  1  0  0  0  0
  9 10  1  0  0  0  0
  9 11  1  0  0  0  0
  9 26  1  0  0  0  0
 11 12  1  0  0  0  0
 11 13  1  0  0  0  0
 11 14  1  0  0  0  0
 14 15  1  0  0  0  0
 14 16  1  0  0  0  0
 14 17  1  0  0  0  0
 17 18  1  0  0  0  0
 17 19  1  0  0  0  0
 17 20  1  0  0  0  0
 20 21  1  0  0  0  0
 20 22  1  0  0  0  0
 20 23  1  0  0  0  0
 23 24  1  0  0  0  0
 23 25  1  0  0  0  0
 26 27  2  0  0  0  0
 26 28  1  0  0  0  0
 28 29  1  0  0  0  0
 28 30  1  0  0  0  0
 30 31  1  0  0  0  0
 30 32  1  0  0  0  0
 30 33  1  0  0  0  0
M  END
$$$$

  -OEChem-01062216083D

 33 32  0     1  0  0  0  0  0999 V2000
   -3.7042   -2.2010    1.3706 H   0  0  0  0  0  0  0  0  0  0  0  0
   -2.7843   -1.6244    1.2367 C   0  0  0  0  0  0  0  0  0  0  0  0
   -2.5081   -1.2076    2.2075 H   0  0  0  0  0  0  0  0  0  0  0  0
   -2.0142   -2.3038    0.8657 H   0  0  0  0  0  0  0  0  0  0  0  0
   -3.0219   -0.5096    0.2392 C   0  0  0  0  0  0  0  0  0  0  0  0
   -4.0842   -0.5011   -0.3549 O   0  0  0  0  0  0  0  0  0  0  0  0
   -2.2726    0.6149   -0.0323 N   0  0  0  0  0  0  0  0  0  0  0  0
   -2.8183    1.2338   -0.6344 H   0  0  0  0  0  0  0  0  0  0  0  0
   -0.8920    1.1089    0.1975 C   0  0  1  0  0  0  0  0  0  0  0  0
   -0.9485    1.7455    1.0868 H   0  0  0  0  0  0  0  0  0  0  0  0
    0.3362    0.1827    0.4379 C   0  0  0  0  0  0  0  0  0  0  0  0
    0.3877   -0.5286   -0.3928 H   0  0  0  0  0  0  0  0  0  0  0  0
    1.2377    0.8048    0.3980 H   0  0  0  0  0  0  0  0  0  0  0  0
    0.4072   -0.6188    1.7441 C   0  0  0  0  0  0  0  0  0  0  0  0
   -0.4125   -1.3123    1.8358 H   0  0  0  0  0  0  0  0  0  0  0  0
    0.3685    0.0679    2.5964 H   0  0  0  0  0  0  0  0  0  0  0  0
    1.7036   -1.4375    1.7875 C   0  0  0  0  0  0  0  0  0  0  0  0
    1.7452   -2.1080    0.9229 H   0  0  0  0  0  0  0  0  0  0  0  0
    2.5670   -0.7657    1.7358 H   0  0  0  0  0  0  0  0  0  0  0  0
    1.7854   -2.2631    3.0686 C   0  0  0  0  0  0  0  0  0  0  0  0
    1.7741   -1.6015    3.9420 H   0  0  0  0  0  0  0  0  0  0  0  0
    0.9236   -2.9359    3.1402 H   0  0  0  0  0  0  0  0  0  0  0  0
    3.0283   -3.0391    3.0430 N   0  0  0  0  0  0  0  0  0  0  0  0
    3.1428   -3.5836    3.8983 H   0  0  0  0  0  0  0  0  0  0  0  0
    3.0708   -3.6408    2.2206 H   0  0  0  0  0  0  0  0  0  0  0  0
   -0.5727    2.0523   -0.9880 C   0  0  0  0  0  0  0  0  0  0  0  0
   -1.1554    3.1252   -1.0587 O   0  0  0  0  0  0  0  0  0  0  0  0
    0.2656    1.6820   -2.0265 N   0  0  0  0  0  0  0  0  0  0  0  0
    0.6588    0.7462   -2.0000 H   0  0  0  0  0  0  0  0  0  0  0  0
    0.4810    2.5011   -3.2137 C   0  0  0  0  0  0  0  0  0  0  0  0
    0.8628    3.4890   -2.9345 H   0  0  0  0  0  0  0  0  0  0  0  0
    1.2114    2.0243   -3.8745 H   0  0  0  0  0  0  0  0  0  0  0  0
   -0.4559    2.6286   -3.7665 H   0  0  0  0  0  0  0  0  0  0  0  0
  1  2  1  0  0  0  0
  2  3  1  0  0  0  0
  2  4  1  0  0  0  0
  2  5  1  0  0  0  0
  5  6  2  0  0  0  0
  5  7  1  0  0  0  0
  7  8  1  0  0  0  0
  7  9  1  0  0  0  0
  9 10  1  0  0  0  0
  9 11  1  0  0  0  0
  9 26  1  0  0  0  0
 11 12  1  0  0  0  0
 11 13  1  0  0  0  0
 11 14  1  0  0  0  0
 14 15  1  0  0  0  0
 14 16  1  0  0  0  0
 14 17  1  0  0  0  0
 17 18  1  0  0  0  0
 17 19  1  0  0  0  0
 17 20  1  0  0  0  0
 20 21  1  0  0  0  0
 20 22  1  0  0  0  0
 20 23  1  0  0  0  0
 23 24  1  0  0  0  0
 23 25  1  0  0  0  0
 26 27  2  0  0  0  0
 26 28  1  0  0  0  0
 28 29  1  0  0  0  0
 28 30  1  0  0  0  0
 30 31  1  0  0  0  0
 30 32  1  0  0  0  0
 30 33  1  0  0  0  0
M  END
$$$$

  -OEChem-01062216083D

 33 32  0     1  0  0  0  0  0999 V2000
   -4.0555   -1.1545    1.8371 H   0  0  0  0  0  0  0  0  0  0  0  0
   -2.9736   -1.2166    1.6948 C   0  0  0  0  0  0  0  0  0  0  0  0
   -2.4957   -0.5019    2.3689 H   0  0  0  0  0  0  0  0  0  0  0  0
   -2.6407   -2.2267    1.9458 H   0  0  0  0  0  0  0  0  0  0  0  0
   -2.6339   -0.8989    0.2470 C   0  0  0  0  0  0  0  0  0  0  0  0
   -3.1117   -1.5814   -0.6397 O   0  0  0  0  0  0  0  0  0  0  0  0
   -2.2578    0.3617   -0.1394 N   0  0  0  0  0  0  0  0  0  0  0  0
   -2.5959    0.5399   -1.0842 H   0  0  0  0  0  0  0  0  0  0  0  0
   -0.9932    1.0614    0.1739 C   0  0  1  0  0  0  0  0  0  0  0  0
   -1.1486    1.6673    1.0728 H   0  0  0  0  0  0  0  0  0  0  0  0
    0.2878    0.2009    0.3870 C   0  0  0  0  0  0  0  0  0  0  0  0
    0.4228   -0.4443   -0.4875 H   0  0  0  0  0  0  0  0  0  0  0  0
    1.1469    0.8802    0.4341 H   0  0  0  0  0  0  0  0  0  0  0  0
    0.3408   -0.6926    1.6334 C   0  0  0  0  0  0  0  0  0  0  0  0
   -0.4412   -1.4466    1.5986 H   0  0  0  0  0  0  0  0  0  0  0  0
    0.2045   -0.0851    2.5343 H   0  0  0  0  0  0  0  0  0  0  0  0
    1.6791   -1.4380    1.6901 C   0  0  0  0  0  0  0  0  0  0  0  0
    1.8050   -2.0374    0.7824 H   0  0  0  0  0  0  0  0  0  0  0  0
    2.5024   -0.7174    1.7362 H   0  0  0  0  0  0  0  0  0  0  0  0
    1.7422   -2.3517    2.9108 C   0  0  0  0  0  0  0  0  0  0  0  0
    1.6452   -1.7602    3.8281 H   0  0  0  0  0  0  0  0  0  0  0  0
    0.9194   -3.0748    2.8835 H   0  0  0  0  0  0  0  0  0  0  0  0
    3.0287   -3.0531    2.8999 N   0  0  0  0  0  0  0  0  0  0  0  0
    3.1256   -3.6626    3.7124 H   0  0  0  0  0  0  0  0  0  0  0  0
    3.1541   -3.5783    2.0346 H   0  0  0  0  0  0  0  0  0  0  0  0
   -0.6941    2.0259   -0.9994 C   0  0  0  0  0  0  0  0  0  0  0  0
   -1.1678    3.1522   -0.9758 O   0  0  0  0  0  0  0  0  0  0  0  0
    0.0496    1.6407   -2.1022 N   0  0  0  0  0  0  0  0  0  0  0  0
    0.3757    0.6794   -2.1370 H   0  0  0  0  0  0  0  0  0  0  0  0
    0.3013    2.5115   -3.2443 C   0  0  0  0  0  0  0  0  0  0  0  0
    0.8521    3.4044   -2.9302 H   0  0  0  0  0  0  0  0  0  0  0  0
    0.8962    1.9859   -3.9973 H   0  0  0  0  0  0  0  0  0  0  0  0
   -0.6422    2.8231   -3.7047 H   0  0  0  0  0  0  0  0  0  0  0  0
  1  2  1  0  0  0  0
  2  3  1  0  0  0  0
  2  4  1  0  0  0  0
  2  5  1  0  0  0  0
  5  6  2  0  0  0  0
  5  7  1  0  0  0  0
  7  8  1  0  0  0  0
  7  9  1  0  0  0  0
  9 10  1  0  0  0  0
  9 11  1  0  0  0  0
  9 26  1  0  0  0  0
 11 12  1  0  0  0  0
 11 13  1  0  0  0  0
 11 14  1  0  0  0  0
 14 15  1  0  0  0  0
 14 16  1  0  0  0  0
 14 17  1  0  0  0  0
 17 18  1  0  0  0  0
 17 19  1  0  0  0  0
 17 20  1  0  0  0  0
 20 21  1  0  0  0  0
 20 22  1  0  0  0  0
 20 23  1  0  0  0  0
 23 24  1  0  0  0  0
 23 25  1  0  0  0  0
 26 27  2  0  0  0  0
 26 28  1  0  0  0  0
 28 29  1  0  0  0  0
 28 30  1  0  0  0  0
 30 31  1  0  0  0  0
 30 32  1  0  0  0  0
 30 33  1  0  0  0  0
M  END
$$$$

  -OEChem-01062216083D

 33 32  0     1  0  0  0  0  0999 V2000
   -4.0657   -1.1534    1.8745 H   0  0  0  0  0  0  0  0  0  0  0  0
   -2.9859   -1.2222    1.7195 C   0  0  0  0  0  0  0  0  0  0  0  0
   -2.4951   -0.5137    2.3905 H   0  0  0  0  0  0  0  0  0  0  0  0
   -2.6567   -2.2356    1.9625 H   0  0  0  0  0  0  0  0  0  0  0  0
   -2.6613   -0.9006    0.2694 C   0  0  0  0  0  0  0  0  0  0  0  0
   -3.1370   -1.5859   -0.6163 O   0  0  0  0  0  0  0  0  0  0  0  0
   -2.2916    0.3597   -0.1235 N   0  0  0  0  0  0  0  0  0  0  0  0
   -2.6234    0.5250   -1.0724 H   0  0  0  0  0  0  0  0  0  0  0  0
   -1.0305    1.0644    0.1932 C   0  0  1  0  0  0  0  0  0  0  0  0
   -1.1884    1.6684    1.0932 H   0  0  0  0  0  0  0  0  0  0  0  0
    0.2592    0.2157    0.3945 C   0  0  0  0  0  0  0  0  0  0  0  0
    0.4003   -0.4179   -0.4872 H   0  0  0  0  0  0  0  0  0  0  0  0
    1.1111    0.9039    0.4444 H   0  0  0  0  0  0  0  0  0  0  0  0
    0.3253   -0.6894    1.6321 C   0  0  0  0  0  0  0  0  0  0  0  0
   -0.4496   -1.4512    1.5925 H   0  0  0  0  0  0  0  0  0  0  0  0
    0.1860   -0.0922    2.5394 H   0  0  0  0  0  0  0  0  0  0  0  0
    1.6721   -1.4205    1.6759 C   0  0  0  0  0  0  0  0  0  0  0  0
    1.8003   -2.0091    0.7617 H   0  0  0  0  0  0  0  0  0  0  0  0
    2.4875   -0.6912    1.7256 H   0  0  0  0  0  0  0  0  0  0  0  0
    1.7521   -2.3464    2.8865 C   0  0  0  0  0  0  0  0  0  0  0  0
    1.6541   -1.7653    3.8105 H   0  0  0  0  0  0  0  0  0  0  0  0
    0.9377   -3.0789    2.8566 H   0  0  0  0  0  0  0  0  0  0  0  0
    3.0469   -3.0324    2.8612 N   0  0  0  0  0  0  0  0  0  0  0  0
    3.1550   -3.6503    3.6659 H   0  0  0  0  0  0  0  0  0  0  0  0
    3.1742   -3.5460    1.9891 H   0  0  0  0  0  0  0  0  0  0  0  0
   -0.7262    2.0234   -0.9797 C   0  0  0  0  0  0  0  0  0  0  0  0
   -0.9152    3.2228   -0.8418 O   0  0  0  0  0  0  0  0  0  0  0  0
   -0.2490    1.5498   -2.1899 N   0  0  0  0  0  0  0  0  0  0  0  0
   -0.1370    0.5447   -2.2904 H   0  0  0  0  0  0  0  0  0  0  0  0
    0.0354    2.4099   -3.3322 C   0  0  0  0  0  0  0  0  0  0  0  0
    0.8335    3.1186   -3.0874 H   0  0  0  0  0  0  0  0  0  0  0  0
    0.3571    1.8083   -4.1877 H   0  0  0  0  0  0  0  0  0  0  0  0
   -0.8588    2.9717   -3.6221 H   0  0  0  0  0  0  0  0  0  0  0  0
  1  2  1  0  0  0  0
  2  3  1  0  0  0  0
  2  4  1  0  0  0  0
  2  5  1  0  0  0  0
  5  6  2  0  0  0  0
  5  7  1  0  0  0  0
  7  8  1  0  0  0  0
  7  9  1  0  0  0  0
  9 10  1  0  0  0  0
  9 11  1  0  0  0  0
  9 26  1  0  0  0  0
 11 12  1  0  0  0  0
 11 13  1  0  0  0  0
 11 14  1  0  0  0  0
 14 15  1  0  0  0  0
 14 16  1  0  0  0  0
 14 17  1  0  0  0  0
 17 18  1  0  0  0  0
 17 19  1  0  0  0  0
 17 20  1  0  0  0  0
 20 21  1  0  0  0  0
 20 22  1  0  0  0  0
 20 23  1  0  0  0  0
 23 24  1  0  0  0  0
 23 25  1  0  0  0  0
 26 27  2  0  0  0  0
 26 28  1  0  0  0  0
 28 29  1  0  0  0  0
 28 30  1  0  0  0  0
 30 31  1  0  0  0  0
 30 32  1  0  0  0  0
 30 33  1  0  0  0  0
M  END
$$$$

  -OEChem-01062216083D

 33 32  0     1  0  0  0  0  0999 V2000
   -4.0667   -1.1681    1.9279 H   0  0  0  0  0  0  0  0  0  0  0  0
   -2.9894   -1.2258    1.7524 C   0  0  0  0  0  0  0  0  0  0  0  0
   -2.4929   -0.5134    2.4155 H   0  0  0  0  0  0  0  0  0  0  0  0
   -2.6459   -2.2363    1.9873 H   0  0  0  0  0  0  0  0  0  0  0  0
   -2.6952   -0.8993    0.2969 C   0  0  0  0  0  0  0  0  0  0  0  0
   -3.1884   -1.5794   -0.5830 O   0  0  0  0  0  0  0  0  0  0  0  0
   -2.3275    0.3597   -0.1017 N   0  0  0  0  0  0  0  0  0  0  0  0
   -2.6635    0.5260   -1.0488 H   0  0  0  0  0  0  0  0  0  0  0  0
   -1.0751    1.0761    0.2235 C   0  0  1  0  0  0  0  0  0  0  0  0
   -1.2380    1.6776    1.1243 H   0  0  0  0  0  0  0  0  0  0  0  0
    0.2246    0.2401    0.4073 C   0  0  0  0  0  0  0  0  0  0  0  0
    0.3742   -0.3717   -0.4887 H   0  0  0  0  0  0  0  0  0  0  0  0
    1.0671    0.9386    0.4699 H   0  0  0  0  0  0  0  0  0  0  0  0
    0.3063   -0.6856    1.6283 C   0  0  0  0  0  0  0  0  0  0  0  0
   -0.4584   -1.4568    1.5750 H   0  0  0  0  0  0  0  0  0  0  0  0
    0.1607   -0.1064    2.5463 H   0  0  0  0  0  0  0  0  0  0  0  0
    1.6617   -1.4011    1.6572 C   0  0  0  0  0  0  0  0  0  0  0  0
    1.7959   -1.9717    0.7323 H   0  0  0  0  0  0  0  0  0  0  0  0
    2.4679   -0.6625    1.7184 H   0  0  0  0  0  0  0  0  0  0  0  0
    1.7541   -2.3463    2.8520 C   0  0  0  0  0  0  0  0  0  0  0  0
    1.6498   -1.7821    3.7856 H   0  0  0  0  0  0  0  0  0  0  0  0
    0.9485   -3.0878    2.8095 H   0  0  0  0  0  0  0  0  0  0  0  0
    3.0565   -3.0171    2.8148 N   0  0  0  0  0  0  0  0  0  0  0  0
    3.1719   -3.6478    3.6084 H   0  0  0  0  0  0  0  0  0  0  0  0
    3.1904   -3.5132    1.9336 H   0  0  0  0  0  0  0  0  0  0  0  0
   -0.7610    2.0270   -0.9512 C   0  0  0  0  0  0  0  0  0  0  0  0
   -0.6732    3.2296   -0.7538 O   0  0  0  0  0  0  0  0  0  0  0  0
   -0.5644    1.5286   -2.2276 N   0  0  0  0  0  0  0  0  0  0  0  0
   -0.6107    0.5207   -2.3510 H   0  0  0  0  0  0  0  0  0  0  0  0
   -0.2320    2.3663   -3.3733 C   0  0  0  0  0  0  0  0  0  0  0  0
    0.7435    2.8425   -3.2289 H   0  0  0  0  0  0  0  0  0  0  0  0
   -0.1915    1.7619   -4.2846 H   0  0  0  0  0  0  0  0  0  0  0  0
   -0.9883    3.1462   -3.5113 H   0  0  0  0  0  0  0  0  0  0  0  0
  1  2  1  0  0  0  0
  2  3  1  0  0  0  0
  2  4  1  0  0  0  0
  2  5  1  0  0  0  0
  5  6  2  0  0  0  0
  5  7  1  0  0  0  0
  7  8  1  0  0  0  0
  7  9  1  0  0  0  0
  9 10  1  0  0  0  0
  9 11  1  0  0  0  0
  9 26  1  0  0  0  0
 11 12  1  0  0  0  0
 11 13  1  0  0  0  0
 11 14  1  0  0  0  0
 14 15  1  0  0  0  0
 14 16  1  0  0  0  0
 14 17  1  0  0  0  0
 17 18  1  0  0  0  0
 17 19  1  0  0  0  0
 17 20  1  0  0  0  0
 20 21  1  0  0  0  0
 20 22  1  0  0  0  0
 20 23  1  0  0  0  0
 23 24  1  0  0  0  0
 23 25  1  0  0  0  0
 26 27  2  0  0  0  0
 26 28  1  0  0  0  0
 28 29  1  0  0  0  0
 28 30  1  0  0  0  0
 30 31  1  0  0  0  0
 30 32  1  0  0  0  0
 30 33  1  0  0  0  0
M  END
$$$$

  -OEChem-01062216083D

 33 32  0     1  0  0  0  0  0999 V2000
   -4.0663   -1.1823    1.9736 H   0  0  0  0  0  0  0  0  0  0  0  0
   -2.9918   -1.2395    1.7811 C   0  0  0  0  0  0  0  0  0  0  0  0
   -2.4848   -0.5339    2.4432 H   0  0  0  0  0  0  0  0  0  0  0  0
   -2.6465   -2.2527    2.0017 H   0  0  0  0  0  0  0  0  0  0  0  0
   -2.7182   -0.9004    0.3242 C   0  0  0  0  0  0  0  0  0  0  0  0
   -3.2377   -1.5626   -0.5544 O   0  0  0  0  0  0  0  0  0  0  0  0
   -2.3470    0.3584   -0.0719 N   0  0  0  0  0  0  0  0  0  0  0  0
   -2.7008    0.5396   -1.0093 H   0  0  0  0  0  0  0  0  0  0  0  0
   -1.1004    1.0857    0.2560 C   0  0  1  0  0  0  0  0  0  0  0  0
   -1.2634    1.6840    1.1587 H   0  0  0  0  0  0  0  0  0  0  0  0
    0.2049    0.2561    0.4224 C   0  0  0  0  0  0  0  0  0  0  0  0
    0.3533   -0.3400   -0.4847 H   0  0  0  0  0  0  0  0  0  0  0  0
    1.0445    0.9581    0.4910 H   0  0  0  0  0  0  0  0  0  0  0  0
    0.2989   -0.6843    1.6308 C   0  0  0  0  0  0  0  0  0  0  0  0
   -0.4619   -1.4591    1.5720 H   0  0  0  0  0  0  0  0  0  0  0  0
    0.1553   -0.1170    2.5564 H   0  0  0  0  0  0  0  0  0  0  0  0
    1.6588   -1.3919    1.6445 C   0  0  0  0  0  0  0  0  0  0  0  0
    1.7919   -1.9507    0.7124 H   0  0  0  0  0  0  0  0  0  0  0  0
    2.4612   -0.6496    1.7111 H   0  0  0  0  0  0  0  0  0  0  0  0
    1.7618   -2.3509    2.8270 C   0  0  0  0  0  0  0  0  0  0  0  0
    1.6580   -1.7995    3.7682 H   0  0  0  0  0  0  0  0  0  0  0  0
    0.9601   -3.0962    2.7786 H   0  0  0  0  0  0  0  0  0  0  0  0
    3.0677   -3.0142    2.7766 N   0  0  0  0  0  0  0  0  0  0  0  0
    3.1871   -3.6584    3.5586 H   0  0  0  0  0  0  0  0  0  0  0  0
    3.2028   -3.4936    1.8864 H   0  0  0  0  0  0  0  0  0  0  0  0
   -0.7804    2.0363   -0.9173 C   0  0  0  0  0  0  0  0  0  0  0  0
   -0.4357    3.1870   -0.6924 O   0  0  0  0  0  0  0  0  0  0  0  0
   -0.8732    1.5925   -2.2259 N   0  0  0  0  0  0  0  0  0  0  0  0
   -1.0590    0.6037   -2.3727 H   0  0  0  0  0  0  0  0  0  0  0  0
   -0.5375    2.4236   -3.3757 C   0  0  0  0  0  0  0  0  0  0  0  0
    0.5255    2.6849   -3.3620 H   0  0  0  0  0  0  0  0  0  0  0  0
   -0.7520    1.8880   -4.3054 H   0  0  0  0  0  0  0  0  0  0  0  0
   -1.1271    3.3464   -3.3673 H   0  0  0  0  0  0  0  0  0  0  0  0
  1  2  1  0  0  0  0
  2  3  1  0  0  0  0
  2  4  1  0  0  0  0
  2  5  1  0  0  0  0
  5  6  2  0  0  0  0
  5  7  1  0  0  0  0
  7  8  1  0  0  0  0
  7  9  1  0  0  0  0
  9 10  1  0  0  0  0
  9 11  1  0  0  0  0
  9 26  1  0  0  0  0
 11 12  1  0  0  0  0
 11 13  1  0  0  0  0
 11 14  1  0  0  0  0
 14 15  1  0  0  0  0
 14 16  1  0  0  0  0
 14 17  1  0  0  0  0
 17 18  1  0  0  0  0
 17 19  1  0  0  0  0
 17 20  1  0  0  0  0
 20 21  1  0  0  0  0
 20 22  1  0  0  0  0
 20 23  1  0  0  0  0
 23 24  1  0  0  0  0
 23 25  1  0  0  0  0
 26 27  2  0  0  0  0
 26 28  1  0  0  0  0
 28 29  1  0  0  0  0
 28 30  1  0  0  0  0
 30 31  1  0  0  0  0
 30 32  1  0  0  0  0
 30 33  1  0  0  0  0
M  END
$$$$

  -OEChem-01062216083D

 33 32  0     1  0  0  0  0  0999 V2000
   -4.0509   -1.2418    1.9929 H   0  0  0  0  0  0  0  0  0  0  0  0
   -2.9777   -1.2735    1.7881 C   0  0  0  0  0  0  0  0  0  0  0  0
   -2.4801   -0.5604    2.4494 H   0  0  0  0  0  0  0  0  0  0  0  0
   -2.6076   -2.2801    1.9980 H   0  0  0  0  0  0  0  0  0  0  0  0
   -2.7285   -0.9191    0.3304 C   0  0  0  0  0  0  0  0  0  0  0  0
   -3.2908   -1.5527   -0.5429 O   0  0  0  0  0  0  0  0  0  0  0  0
   -2.3541    0.3412   -0.0590 N   0  0  0  0  0  0  0  0  0  0  0  0
   -2.7417    0.5503   -0.9760 H   0  0  0  0  0  0  0  0  0  0  0  0
   -1.1170    1.0855    0.2728 C   0  0  1  0  0  0  0  0  0  0  0  0
   -1.2875    1.6804    1.1760 H   0  0  0  0  0  0  0  0  0  0  0  0
    0.1934    0.2609    0.4365 C   0  0  0  0  0  0  0  0  0  0  0  0
    0.3452   -0.3272   -0.4752 H   0  0  0  0  0  0  0  0  0  0  0  0
    1.0305    0.9653    0.5116 H   0  0  0  0  0  0  0  0  0  0  0  0
    0.2948   -0.6857    1.6398 C   0  0  0  0  0  0  0  0  0  0  0  0
   -0.4592   -1.4657    1.5752 H   0  0  0  0  0  0  0  0  0  0  0  0
    0.1471   -0.1249    2.5688 H   0  0  0  0  0  0  0  0  0  0  0  0
    1.6581   -1.3871    1.6521 C   0  0  0  0  0  0  0  0  0  0  0  0
    1.7953   -1.9409    0.7176 H   0  0  0  0  0  0  0  0  0  0  0  0
    2.4573   -0.6416    1.7236 H   0  0  0  0  0  0  0  0  0  0  0  0
    1.7622   -2.3507    2.8315 C   0  0  0  0  0  0  0  0  0  0  0  0
    1.6538   -1.8033    3.7745 H   0  0  0  0  0  0  0  0  0  0  0  0
    0.9630   -3.0984    2.7781 H   0  0  0  0  0  0  0  0  0  0  0  0
    3.0704   -3.0093    2.7820 N   0  0  0  0  0  0  0  0  0  0  0  0
    3.1882   -3.6591    3.5595 H   0  0  0  0  0  0  0  0  0  0  0  0
    3.2116   -3.4809    1.8886 H   0  0  0  0  0  0  0  0  0  0  0  0
   -0.7878    2.0426   -0.8963 C   0  0  0  0  0  0  0  0  0  0  0  0
   -0.2414    3.1120   -0.6671 O   0  0  0  0  0  0  0  0  0  0  0  0
   -1.1423    1.7267   -2.1982 N   0  0  0  0  0  0  0  0  0  0  0  0
   -1.4469    0.7740   -2.3794 H   0  0  0  0  0  0  0  0  0  0  0  0
   -0.8331    2.5862   -3.3347 C   0  0  0  0  0  0  0  0  0  0  0  0
    0.2502    2.7010   -3.4461 H   0  0  0  0  0  0  0  0  0  0  0  0
   -1.2333    2.1528   -4.2565 H   0  0  0  0  0  0  0  0  0  0  0  0
   -1.2801    3.5768   -3.1983 H   0  0  0  0  0  0  0  0  0  0  0  0
  1  2  1  0  0  0  0
  2  3  1  0  0  0  0
  2  4  1  0  0  0  0
  2  5  1  0  0  0  0
  5  6  2  0  0  0  0
  5  7  1  0  0  0  0
  7  8  1  0  0  0  0
  7  9  1  0  0  0  0
  9 10  1  0  0  0  0
  9 11  1  0  0  0  0
  9 26  1  0  0  0  0
 11 12  1  0  0  0  0
 11 13  1  0  0  0  0
 11 14  1  0  0  0  0
 14 15  1  0  0  0  0
 14 16  1  0  0  0  0
 14 17  1  0  0  0  0
 17 18  1  0  0  0  0
 17 19  1  0  0  0  0
 17 20  1  0  0  0  0
 20 21  1  0  0  0  0
 20 22  1  0  0  0  0
 20 23  1  0  0  0  0
 23 24  1  0  0  0  0
 23 25  1  0  0  0  0
 26 27  2  0  0  0  0
 26 28  1  0  0  0  0
 28 29  1  0  0  0  0
 28 30  1  0  0  0  0
 30 31  1  0  0  0  0
 30 32  1  0  0  0  0
 30 33  1  0  0  0  0
M  END
$$$$

  -OEChem-01062216083D

 33 32  0     1  0  0  0  0  0999 V2000
   -3.3049   -2.4884    0.2365 H   0  0  0  0  0  0  0  0  0  0  0  0
   -2.3910   -1.9025    0.3683 C   0  0  0  0  0  0  0  0  0  0  0  0
   -1.7529   -2.4195    1.0865 H   0  0  0  0  0  0  0  0  0  0  0  0
   -1.8801   -1.8490   -0.5950 H   0  0  0  0  0  0  0  0  0  0  0  0
   -2.7490   -0.5053    0.8594 C   0  0  0  0  0  0  0  0  0  0  0  0
   -3.7933   -0.3390    1.4605 O   0  0  0  0  0  0  0  0  0  0  0  0
   -2.2629    0.6440    0.2821 N   0  0  0  0  0  0  0  0  0  0  0  0
   -2.9066    1.4039    0.4978 H   0  0  0  0  0  0  0  0  0  0  0  0
   -0.8518    1.0886    0.1573 C   0  0  1  0  0  0  0  0  0  0  0  0
   -0.7057    1.7980    0.9785 H   0  0  0  0  0  0  0  0  0  0  0  0
    0.2774    0.0456    0.3371 C   0  0  0  0  0  0  0  0  0  0  0  0
    0.1250   -0.7838   -0.3584 H   0  0  0  0  0  0  0  0  0  0  0  0
    1.2331    0.5108    0.0705 H   0  0  0  0  0  0  0  0  0  0  0  0
    0.4036   -0.4838    1.7788 C   0  0  0  0  0  0  0  0  0  0  0  0
   -0.5166   -0.9496    2.1273 H   0  0  0  0  0  0  0  0  0  0  0  0
    0.6091    0.3586    2.4479 H   0  0  0  0  0  0  0  0  0  0  0  0
    1.5547   -1.4901    1.8771 C   0  0  0  0  0  0  0  0  0  0  0  0
    1.3782   -2.3176    1.1824 H   0  0  0  0  0  0  0  0  0  0  0  0
    2.4955   -1.0062    1.5942 H   0  0  0  0  0  0  0  0  0  0  0  0
    1.6744   -2.0397    3.2957 C   0  0  0  0  0  0  0  0  0  0  0  0
    1.8767   -1.2234    3.9984 H   0  0  0  0  0  0  0  0  0  0  0  0
    0.7362   -2.5208    3.5941 H   0  0  0  0  0  0  0  0  0  0  0  0
    2.7710   -3.0116    3.3285 N   0  0  0  0  0  0  0  0  0  0  0  0
    2.8989   -3.3952    4.2651 H   0  0  0  0  0  0  0  0  0  0  0  0
    2.6252   -3.7557    2.6467 H   0  0  0  0  0  0  0  0  0  0  0  0
   -0.6420    1.9446   -1.1117 C   0  0  0  0  0  0  0  0  0  0  0  0
    0.3681    2.6223   -1.2372 O   0  0  0  0  0  0  0  0  0  0  0  0
   -1.5933    1.9582   -2.1152 N   0  0  0  0  0  0  0  0  0  0  0  0
   -2.4118    1.3702   -1.9818 H   0  0  0  0  0  0  0  0  0  0  0  0
   -1.4707    2.7476   -3.3346 C   0  0  0  0  0  0  0  0  0  0  0  0
   -0.5919    2.4334   -3.9075 H   0  0  0  0  0  0  0  0  0  0  0  0
   -2.3581    2.6162   -3.9613 H   0  0  0  0  0  0  0  0  0  0  0  0
   -1.3725    3.8116   -3.0940 H   0  0  0  0  0  0  0  0  0  0  0  0
  1  2  1  0  0  0  0
  2  3  1  0  0  0  0
  2  4  1  0  0  0  0
  2  5  1  0  0  0  0
  5  6  2  0  0  0  0
  5  7  1  0  0  0  0
  7  8  1  0  0  0  0
  7  9  1  0  0  0  0
  9 10  1  0  0  0  0
  9 11  1  0  0  0  0
  9 26  1  0  0  0  0
 11 12  1  0  0  0  0
 11 13  1  0  0  0  0
 11 14  1  0  0  0  0
 14 15  1  0  0  0  0
 14 16  1  0  0  0  0
 14 17  1  0  0  0  0
 17 18  1  0  0  0  0
 17 19  1  0  0  0  0
 17 20  1  0  0  0  0
 20 21  1  0  0  0  0
 20 22  1  0  0  0  0
 20 23  1  0  0  0  0
 23 24  1  0  0  0  0
 23 25  1  0  0  0  0
 26 27  2  0  0  0  0
 26 28  1  0  0  0  0
 28 29  1  0  0  0  0
 28 30  1  0  0  0  0
 30 31  1  0  0  0  0
 30 32  1  0  0  0  0
 30 33  1  0  0  0  0
M  END
$$$$

  -OEChem-01062216083D

 33 32  0     1  0  0  0  0  0999 V2000
   -3.3042   -2.5017    0.2613 H   0  0  0  0  0  0  0  0  0  0  0  0
   -2.3916   -1.9079    0.3621 C   0  0  0  0  0  0  0  0  0  0  0  0
   -1.7221   -2.4229    1.0529 H   0  0  0  0  0  0  0  0  0  0  0  0
   -1.9169   -1.8432   -0.6194 H   0  0  0  0  0  0  0  0  0  0  0  0
   -2.7441   -0.5168    0.8734 C   0  0  0  0  0  0  0  0  0  0  0  0
   -3.7758   -0.3571    1.4978 O   0  0  0  0  0  0  0  0  0  0  0  0
   -2.2714    0.6390    0.2985 N   0  0  0  0  0  0  0  0  0  0  0  0
   -2.9114    1.3930    0.5431 H   0  0  0  0  0  0  0  0  0  0  0  0
   -0.8628    1.0903    0.1633 C   0  0  1  0  0  0  0  0  0  0  0  0
   -0.7103    1.7983    0.9845 H   0  0  0  0  0  0  0  0  0  0  0  0
    0.2658    0.0426    0.3368 C   0  0  0  0  0  0  0  0  0  0  0  0
    0.1062   -0.7856   -0.3587 H   0  0  0  0  0  0  0  0  0  0  0  0
    1.2236    0.5017    0.0677 H   0  0  0  0  0  0  0  0  0  0  0  0
    0.3980   -0.4869    1.7783 C   0  0  0  0  0  0  0  0  0  0  0  0
   -0.5209   -0.9501    2.1333 H   0  0  0  0  0  0  0  0  0  0  0  0
    0.6102    0.3549    2.4461 H   0  0  0  0  0  0  0  0  0  0  0  0
    1.5466   -1.4965    1.8702 C   0  0  0  0  0  0  0  0  0  0  0  0
    1.3647   -2.3228    1.1755 H   0  0  0  0  0  0  0  0  0  0  0  0
    2.4868   -1.0140    1.5826 H   0  0  0  0  0  0  0  0  0  0  0  0
    1.6736   -2.0476    3.2877 C   0  0  0  0  0  0  0  0  0  0  0  0
    1.8816   -1.2324    3.9898 H   0  0  0  0  0  0  0  0  0  0  0  0
    0.7362   -2.5271    3.5911 H   0  0  0  0  0  0  0  0  0  0  0  0
    2.7679   -3.0224    3.3128 N   0  0  0  0  0  0  0  0  0  0  0  0
    2.9000   -3.4076    4.2482 H   0  0  0  0  0  0  0  0  0  0  0  0
    2.6157   -3.7651    2.6307 H   0  0  0  0  0  0  0  0  0  0  0  0
   -0.6716    1.9562   -1.1054 C   0  0  0  0  0  0  0  0  0  0  0  0
    0.4141    2.4593   -1.3584 O   0  0  0  0  0  0  0  0  0  0  0  0
   -1.7402    2.2180   -1.9441 N   0  0  0  0  0  0  0  0  0  0  0  0
   -2.6056    1.7211   -1.7512 H   0  0  0  0  0  0  0  0  0  0  0  0
   -1.6339    3.0141   -3.1605 C   0  0  0  0  0  0  0  0  0  0  0  0
   -0.9491    2.5386   -3.8705 H   0  0  0  0  0  0  0  0  0  0  0  0
   -2.6150    3.1113   -3.6353 H   0  0  0  0  0  0  0  0  0  0  0  0
   -1.2619    4.0181   -2.9301 H   0  0  0  0  0  0  0  0  0  0  0  0
  1  2  1  0  0  0  0
  2  3  1  0  0  0  0
  2  4  1  0  0  0  0
  2  5  1  0  0  0  0
  5  6  2  0  0  0  0
  5  7  1  0  0  0  0
  7  8  1  0  0  0  0
  7  9  1  0  0  0  0
  9 10  1  0  0  0  0
  9 11  1  0  0  0  0
  9 26  1  0  0  0  0
 11 12  1  0  0  0  0
 11 13  1  0  0  0  0
 11 14  1  0  0  0  0
 14 15  1  0  0  0  0
 14 16  1  0  0  0  0
 14 17  1  0  0  0  0
 17 18  1  0  0  0  0
 17 19  1  0  0  0  0
 17 20  1  0  0  0  0
 20 21  1  0  0  0  0
 20 22  1  0  0  0  0
 20 23  1  0  0  0  0
 23 24  1  0  0  0  0
 23 25  1  0  0  0  0
 26 27  2  0  0  0  0
 26 28  1  0  0  0  0
 28 29  1  0  0  0  0
 28 30  1  0  0  0  0
 30 31  1  0  0  0  0
 30 32  1  0  0  0  0
 30 33  1  0  0  0  0
M  END
$$$$

  -OEChem-01062216083D

 33 32  0     1  0  0  0  0  0999 V2000
   -4.0565   -1.2410    1.8615 H   0  0  0  0  0  0  0  0  0  0  0  0
   -2.9720   -1.2934    1.7380 C   0  0  0  0  0  0  0  0  0  0  0  0
   -2.5099   -0.5847    2.4292 H   0  0  0  0  0  0  0  0  0  0  0  0
   -2.6365   -2.3042    1.9833 H   0  0  0  0  0  0  0  0  0  0  0  0
   -2.6061   -0.9567    0.3008 C   0  0  0  0  0  0  0  0  0  0  0  0
   -3.0453   -1.6412   -0.6035 O   0  0  0  0  0  0  0  0  0  0  0  0
   -2.2951    0.3233   -0.0777 N   0  0  0  0  0  0  0  0  0  0  0  0
   -2.5120    0.3794   -1.0706 H   0  0  0  0  0  0  0  0  0  0  0  0
   -1.0654    1.0812    0.2658 C   0  0  1  0  0  0  0  0  0  0  0  0
   -1.2493    1.6593    1.1765 H   0  0  0  0  0  0  0  0  0  0  0  0
    0.2367    0.2364    0.4593 C   0  0  0  0  0  0  0  0  0  0  0  0
    0.3961   -0.3533   -0.4502 H   0  0  0  0  0  0  0  0  0  0  0  0
    1.0870    0.9200    0.5555 H   0  0  0  0  0  0  0  0  0  0  0  0
    0.3163   -0.7033    1.6723 C   0  0  0  0  0  0  0  0  0  0  0  0
   -0.4415   -1.4796    1.6130 H   0  0  0  0  0  0  0  0  0  0  0  0
    0.1664   -0.1337    2.5954 H   0  0  0  0  0  0  0  0  0  0  0  0
    1.6744   -1.4146    1.6973 C   0  0  0  0  0  0  0  0  0  0  0  0
    1.8130   -1.9739    0.7663 H   0  0  0  0  0  0  0  0  0  0  0  0
    2.4787   -0.6747    1.7688 H   0  0  0  0  0  0  0  0  0  0  0  0
    1.7663   -2.3725    2.8816 C   0  0  0  0  0  0  0  0  0  0  0  0
    1.6574   -1.8195    3.8213 H   0  0  0  0  0  0  0  0  0  0  0  0
    0.9628   -3.1153    2.8283 H   0  0  0  0  0  0  0  0  0  0  0  0
    3.0707   -3.0393    2.8416 N   0  0  0  0  0  0  0  0  0  0  0  0
    3.1730   -3.7018    3.6105 H   0  0  0  0  0  0  0  0  0  0  0  0
    3.2217   -3.4980    1.9429 H   0  0  0  0  0  0  0  0  0  0  0  0
   -0.7660    2.0860   -0.8873 C   0  0  0  0  0  0  0  0  0  0  0  0
    0.3079    2.6673   -0.9702 O   0  0  0  0  0  0  0  0  0  0  0  0
   -1.7335    2.3854   -1.8347 N   0  0  0  0  0  0  0  0  0  0  0  0
   -2.6802    2.0735   -1.6411 H   0  0  0  0  0  0  0  0  0  0  0  0
   -1.5358    3.3758   -2.8878 C   0  0  0  0  0  0  0  0  0  0  0  0
   -0.6696    3.1124   -3.5042 H   0  0  0  0  0  0  0  0  0  0  0  0
   -2.4164    3.4204   -3.5357 H   0  0  0  0  0  0  0  0  0  0  0  0
   -1.3714    4.3685   -2.4554 H   0  0  0  0  0  0  0  0  0  0  0  0
  1  2  1  0  0  0  0
  2  3  1  0  0  0  0
  2  4  1  0  0  0  0
  2  5  1  0  0  0  0
  5  6  2  0  0  0  0
  5  7  1  0  0  0  0
  7  8  1  0  0  0  0
  7  9  1  0  0  0  0
  9 10  1  0  0  0  0
  9 11  1  0  0  0  0
  9 26  1  0  0  0  0
 11 12  1  0  0  0  0
 11 13  1  0  0  0  0
 11 14  1  0  0  0  0
 14 15  1  0  0  0  0
 14 16  1  0  0  0  0
 14 17  1  0  0  0  0
 17 18  1  0  0  0  0
 17 19  1  0  0  0  0
 17 20  1  0  0  0  0
 20 21  1  0  0  0  0
 20 22  1  0  0  0  0
 20 23  1  0  0  0  0
 23 24  1  0  0  0  0
 23 25  1  0  0  0  0
 26 27  2  0  0  0  0
 26 28  1  0  0  0  0
 28 29  1  0  0  0  0
 28 30  1  0  0  0  0
 30 31  1  0  0  0  0
 30 32  1  0  0  0  0
 30 33  1  0  0  0  0
M  END
$$$$

  -OEChem-01062216083D

 33 32  0     1  0  0  0  0  0999 V2000
   -4.0437   -1.2570    1.7981 H   0  0  0  0  0  0  0  0  0  0  0  0
   -2.9577   -1.2932    1.6803 C   0  0  0  0  0  0  0  0  0  0  0  0
   -2.5097   -0.5895    2.3858 H   0  0  0  0  0  0  0  0  0  0  0  0
   -2.6105   -2.3037    1.9103 H   0  0  0  0  0  0  0  0  0  0  0  0
   -2.5886   -0.9276    0.2511 C   0  0  0  0  0  0  0  0  0  0  0  0
   -3.0506   -1.5801   -0.6654 O   0  0  0  0  0  0  0  0  0  0  0  0
   -2.2591    0.3573   -0.0950 N   0  0  0  0  0  0  0  0  0  0  0  0
   -2.4862    0.4572   -1.0835 H   0  0  0  0  0  0  0  0  0  0  0  0
   -1.0252    1.0962    0.2708 C   0  0  1  0  0  0  0  0  0  0  0  0
   -1.2129    1.6666    1.1855 H   0  0  0  0  0  0  0  0  0  0  0  0
    0.2718    0.2470    0.4736 C   0  0  0  0  0  0  0  0  0  0  0  0
    0.4432   -0.3345   -0.4389 H   0  0  0  0  0  0  0  0  0  0  0  0
    1.1200    0.9310    0.5882 H   0  0  0  0  0  0  0  0  0  0  0  0
    0.3318   -0.7028    1.6796 C   0  0  0  0  0  0  0  0  0  0  0  0
   -0.4280   -1.4756    1.6013 H   0  0  0  0  0  0  0  0  0  0  0  0
    0.1703   -0.1412    2.6056 H   0  0  0  0  0  0  0  0  0  0  0  0
    1.6875   -1.4185    1.7181 C   0  0  0  0  0  0  0  0  0  0  0  0
    1.8370   -1.9709    0.7845 H   0  0  0  0  0  0  0  0  0  0  0  0
    2.4926   -0.6812    1.8065 H   0  0  0  0  0  0  0  0  0  0  0  0
    1.7607   -2.3869    2.8956 C   0  0  0  0  0  0  0  0  0  0  0  0
    1.6395   -1.8425    3.8387 H   0  0  0  0  0  0  0  0  0  0  0  0
    0.9566   -3.1277    2.8238 H   0  0  0  0  0  0  0  0  0  0  0  0
    3.0640   -3.0562    2.8678 N   0  0  0  0  0  0  0  0  0  0  0  0
    3.1514   -3.7306    3.6280 H   0  0  0  0  0  0  0  0  0  0  0  0
    3.2302   -3.5007    1.9647 H   0  0  0  0  0  0  0  0  0  0  0  0
   -0.7401    2.1110   -0.8768 C   0  0  0  0  0  0  0  0  0  0  0  0
    0.3886    2.4856   -1.1665 O   0  0  0  0  0  0  0  0  0  0  0  0
   -1.7991    2.6357   -1.6005 N   0  0  0  0  0  0  0  0  0  0  0  0
   -2.7358    2.4270   -1.2662 H   0  0  0  0  0  0  0  0  0  0  0  0
   -1.6380    3.6286   -2.6566 C   0  0  0  0  0  0  0  0  0  0  0  0
   -1.0053    3.2344   -3.4589 H   0  0  0  0  0  0  0  0  0  0  0  0
   -2.6116    3.8890   -3.0827 H   0  0  0  0  0  0  0  0  0  0  0  0
   -1.1779    4.5398   -2.2601 H   0  0  0  0  0  0  0  0  0  0  0  0
  1  2  1  0  0  0  0
  2  3  1  0  0  0  0
  2  4  1  0  0  0  0
  2  5  1  0  0  0  0
  5  6  2  0  0  0  0
  5  7  1  0  0  0  0
  7  8  1  0  0  0  0
  7  9  1  0  0  0  0
  9 10  1  0  0  0  0
  9 11  1  0  0  0  0
  9 26  1  0  0  0  0
 11 12  1  0  0  0  0
 11 13  1  0  0  0  0
 11 14  1  0  0  0  0
 14 15  1  0  0  0  0
 14 16  1  0  0  0  0
 14 17  1  0  0  0  0
 17 18  1  0  0  0  0
 17 19  1  0  0  0  0
 17 20  1  0  0  0  0
 20 21  1  0  0  0  0
 20 22  1  0  0  0  0
 20 23  1  0  0  0  0
 23 24  1  0  0  0  0
 23 25  1  0  0  0  0
 26 27  2  0  0  0  0
 26 28  1  0  0  0  0
 28 29  1  0  0  0  0
 28 30  1  0  0  0  0
 30 31  1  0  0  0  0
 30 32  1  0  0  0  0
 30 33  1  0  0  0  0
M  END
$$$$

  -OEChem-01062216083D

 33 32  0     1  0  0  0  0  0999 V2000
   -4.0283   -1.2500    1.7604 H   0  0  0  0  0  0  0  0  0  0  0  0
   -2.9427   -1.2866    1.6383 C   0  0  0  0  0  0  0  0  0  0  0  0
   -2.4911   -0.5954    2.3536 H   0  0  0  0  0  0  0  0  0  0  0  0
   -2.5971   -2.3014    1.8509 H   0  0  0  0  0  0  0  0  0  0  0  0
   -2.5775   -0.8999    0.2134 C   0  0  0  0  0  0  0  0  0  0  0  0
   -3.0568   -1.5307   -0.7094 O   0  0  0  0  0  0  0  0  0  0  0  0
   -2.2329    0.3872   -0.1113 N   0  0  0  0  0  0  0  0  0  0  0  0
   -2.4701    0.5208   -1.0940 H   0  0  0  0  0  0  0  0  0  0  0  0
   -0.9973    1.1105    0.2740 C   0  0  1  0  0  0  0  0  0  0  0  0
   -1.1892    1.6735    1.1924 H   0  0  0  0  0  0  0  0  0  0  0  0
    0.2963    0.2590    0.4829 C   0  0  0  0  0  0  0  0  0  0  0  0
    0.4760   -0.3172   -0.4315 H   0  0  0  0  0  0  0  0  0  0  0  0
    1.1416    0.9455    0.6074 H   0  0  0  0  0  0  0  0  0  0  0  0
    0.3416   -0.7011    1.6810 C   0  0  0  0  0  0  0  0  0  0  0  0
   -0.4175   -1.4722    1.5834 H   0  0  0  0  0  0  0  0  0  0  0  0
    0.1673   -0.1485    2.6099 H   0  0  0  0  0  0  0  0  0  0  0  0
    1.6948   -1.4207    1.7325 C   0  0  0  0  0  0  0  0  0  0  0  0
    1.8572   -1.9655    0.7966 H   0  0  0  0  0  0  0  0  0  0  0  0
    2.5000   -0.6862    1.8390 H   0  0  0  0  0  0  0  0  0  0  0  0
    1.7483   -2.3981    2.9040 C   0  0  0  0  0  0  0  0  0  0  0  0
    1.6145   -1.8604    3.8493 H   0  0  0  0  0  0  0  0  0  0  0  0
    0.9430   -3.1358    2.8147 H   0  0  0  0  0  0  0  0  0  0  0  0
    3.0493   -3.0724    2.8916 N   0  0  0  0  0  0  0  0  0  0  0  0
    3.1252   -3.7469    3.6531 H   0  0  0  0  0  0  0  0  0  0  0  0
    3.2236   -3.5186    1.9907 H   0  0  0  0  0  0  0  0  0  0  0  0
   -0.7104    2.1312   -0.8656 C   0  0  0  0  0  0  0  0  0  0  0  0
    0.3988    2.3011   -1.3547 O   0  0  0  0  0  0  0  0  0  0  0  0
   -1.7598    2.8862   -1.3618 N   0  0  0  0  0  0  0  0  0  0  0  0
   -2.6691    2.7647   -0.9241 H   0  0  0  0  0  0  0  0  0  0  0  0
   -1.6144    3.8716   -2.4276 C   0  0  0  0  0  0  0  0  0  0  0  0
   -1.2892    3.3875   -3.3546 H   0  0  0  0  0  0  0  0  0  0  0  0
   -2.5703    4.3703   -2.6151 H   0  0  0  0  0  0  0  0  0  0  0  0
   -0.8772    4.6324   -2.1498 H   0  0  0  0  0  0  0  0  0  0  0  0
  1  2  1  0  0  0  0
  2  3  1  0  0  0  0
  2  4  1  0  0  0  0
  2  5  1  0  0  0  0
  5  6  2  0  0  0  0
  5  7  1  0  0  0  0
  7  8  1  0  0  0  0
  7  9  1  0  0  0  0
  9 10  1  0  0  0  0
  9 11  1  0  0  0  0
  9 26  1  0  0  0  0
 11 12  1  0  0  0  0
 11 13  1  0  0  0  0
 11 14  1  0  0  0  0
 14 15  1  0  0  0  0
 14 16  1  0  0  0  0
 14 17  1  0  0  0  0
 17 18  1  0  0  0  0
 17 19  1  0  0  0  0
 17 20  1  0  0  0  0
 20 21  1  0  0  0  0
 20 22  1  0  0  0  0
 20 23  1  0  0  0  0
 23 24  1  0  0  0  0
 23 25  1  0  0  0  0
 26 27  2  0  0  0  0
 26 28  1  0  0  0  0
 28 29  1  0  0  0  0
 28 30  1  0  0  0  0
 30 31  1  0  0  0  0
 30 32  1  0  0  0  0
 30 33  1  0  0  0  0
M  END
$$$$

  -OEChem-01062216083D

 33 32  0     1  0  0  0  0  0999 V2000
   -4.0246   -1.2305    1.7480 H   0  0  0  0  0  0  0  0  0  0  0  0
   -2.9393   -1.2684    1.6236 C   0  0  0  0  0  0  0  0  0  0  0  0
   -2.4853   -0.5803    2.3401 H   0  0  0  0  0  0  0  0  0  0  0  0
   -2.5954   -2.2845    1.8323 H   0  0  0  0  0  0  0  0  0  0  0  0
   -2.5770   -0.8780    0.1988 C   0  0  0  0  0  0  0  0  0  0  0  0
   -3.0720   -1.4976   -0.7233 O   0  0  0  0  0  0  0  0  0  0  0  0
   -2.2167    0.4061   -0.1216 N   0  0  0  0  0  0  0  0  0  0  0  0
   -2.4561    0.5517   -1.1022 H   0  0  0  0  0  0  0  0  0  0  0  0
   -0.9789    1.1177    0.2717 C   0  0  1  0  0  0  0  0  0  0  0  0
   -1.1710    1.6799    1.1904 H   0  0  0  0  0  0  0  0  0  0  0  0
    0.3103    0.2637    0.4866 C   0  0  0  0  0  0  0  0  0  0  0  0
    0.4902   -0.3177   -0.4249 H   0  0  0  0  0  0  0  0  0  0  0  0
    1.1556    0.9510    0.6066 H   0  0  0  0  0  0  0  0  0  0  0  0
    0.3466   -0.6974    1.6833 C   0  0  0  0  0  0  0  0  0  0  0  0
   -0.4144   -1.4661    1.5799 H   0  0  0  0  0  0  0  0  0  0  0  0
    0.1693   -0.1457    2.6122 H   0  0  0  0  0  0  0  0  0  0  0  0
    1.6982   -1.4187    1.7390 C   0  0  0  0  0  0  0  0  0  0  0  0
    1.8632   -1.9621    0.8028 H   0  0  0  0  0  0  0  0  0  0  0  0
    2.5040   -0.6854    1.8493 H   0  0  0  0  0  0  0  0  0  0  0  0
    1.7464   -2.3982    2.9084 C   0  0  0  0  0  0  0  0  0  0  0  0
    1.6103   -1.8626    3.8545 H   0  0  0  0  0  0  0  0  0  0  0  0
    0.9411   -3.1354    2.8149 H   0  0  0  0  0  0  0  0  0  0  0  0
    3.0473   -3.0725    2.8973 N   0  0  0  0  0  0  0  0  0  0  0  0
    3.1237   -3.7448    3.6605 H   0  0  0  0  0  0  0  0  0  0  0  0
    3.2202   -3.5214    1.9975 H   0  0  0  0  0  0  0  0  0  0  0  0
   -0.6798    2.1333   -0.8657 C   0  0  0  0  0  0  0  0  0  0  0  0
    0.3416    2.1093   -1.5402 O   0  0  0  0  0  0  0  0  0  0  0  0
   -1.6267    3.1022   -1.1471 N   0  0  0  0  0  0  0  0  0  0  0  0
   -2.4903    3.0793   -0.6119 H   0  0  0  0  0  0  0  0  0  0  0  0
   -1.4858    4.0813   -2.2191 C   0  0  0  0  0  0  0  0  0  0  0  0
   -1.4718    3.5827   -3.1939 H   0  0  0  0  0  0  0  0  0  0  0  0
   -2.3235    4.7850   -2.2011 H   0  0  0  0  0  0  0  0  0  0  0  0
   -0.5570    4.6493   -2.1010 H   0  0  0  0  0  0  0  0  0  0  0  0
  1  2  1  0  0  0  0
  2  3  1  0  0  0  0
  2  4  1  0  0  0  0
  2  5  1  0  0  0  0
  5  6  2  0  0  0  0
  5  7  1  0  0  0  0
  7  8  1  0  0  0  0
  7  9  1  0  0  0  0
  9 10  1  0  0  0  0
  9 11  1  0  0  0  0
  9 26  1  0  0  0  0
 11 12  1  0  0  0  0
 11 13  1  0  0  0  0
 11 14  1  0  0  0  0
 14 15  1  0  0  0  0
 14 16  1  0  0  0  0
 14 17  1  0  0  0  0
 17 18  1  0  0  0  0
 17 19  1  0  0  0  0
 17 20  1  0  0  0  0
 20 21  1  0  0  0  0
 20 22  1  0  0  0  0
 20 23  1  0  0  0  0
 23 24  1  0  0  0  0
 23 25  1  0  0  0  0
 26 27  2  0  0  0  0
 26 28  1  0  0  0  0
 28 29  1  0  0  0  0
 28 30  1  0  0  0  0
 30 31  1  0  0  0  0
 30 32  1  0  0  0  0
 30 33  1  0  0  0  0
M  END
$$$$

  -OEChem-01062216083D

 33 32  0     1  0  0  0  0  0999 V2000
   -4.0264   -1.2123    1.7302 H   0  0  0  0  0  0  0  0  0  0  0  0
   -2.9410   -1.2526    1.6088 C   0  0  0  0  0  0  0  0  0  0  0  0
   -2.4875   -0.5620    2.3233 H   0  0  0  0  0  0  0  0  0  0  0  0
   -2.5988   -2.2681    1.8228 H   0  0  0  0  0  0  0  0  0  0  0  0
   -2.5753   -0.8684    0.1832 C   0  0  0  0  0  0  0  0  0  0  0  0
   -3.0678   -1.4939   -0.7362 O   0  0  0  0  0  0  0  0  0  0  0  0
   -2.2089    0.4140   -0.1376 N   0  0  0  0  0  0  0  0  0  0  0  0
   -2.4393    0.5600   -1.1206 H   0  0  0  0  0  0  0  0  0  0  0  0
   -0.9708    1.1180    0.2638 C   0  0  1  0  0  0  0  0  0  0  0  0
   -1.1656    1.6765    1.1841 H   0  0  0  0  0  0  0  0  0  0  0  0
    0.3169    0.2646    0.4832 C   0  0  0  0  0  0  0  0  0  0  0  0
    0.4980   -0.3218   -0.4249 H   0  0  0  0  0  0  0  0  0  0  0  0
    1.1618    0.9528    0.5995 H   0  0  0  0  0  0  0  0  0  0  0  0
    0.3461   -0.6982    1.6781 C   0  0  0  0  0  0  0  0  0  0  0  0
   -0.4151   -1.4663    1.5687 H   0  0  0  0  0  0  0  0  0  0  0  0
    0.1638   -0.1481    2.6071 H   0  0  0  0  0  0  0  0  0  0  0  0
    1.6973   -1.4195    1.7402 C   0  0  0  0  0  0  0  0  0  0  0  0
    1.8677   -1.9617    0.8042 H   0  0  0  0  0  0  0  0  0  0  0  0
    2.5027   -0.6866    1.8565 H   0  0  0  0  0  0  0  0  0  0  0  0
    1.7378   -2.4008    2.9081 C   0  0  0  0  0  0  0  0  0  0  0  0
    1.5947   -1.8672    3.8542 H   0  0  0  0  0  0  0  0  0  0  0  0
    0.9335   -3.1378    2.8071 H   0  0  0  0  0  0  0  0  0  0  0  0
    3.0388   -3.0752    2.9035 N   0  0  0  0  0  0  0  0  0  0  0  0
    3.1059   -3.7582    3.6581 H   0  0  0  0  0  0  0  0  0  0  0  0
    3.2224   -3.5120    1.9998 H   0  0  0  0  0  0  0  0  0  0  0  0
   -0.6511    2.1322   -0.8659 C   0  0  0  0  0  0  0  0  0  0  0  0
    0.2079    1.9321   -1.7147 O   0  0  0  0  0  0  0  0  0  0  0  0
   -1.4107    3.2847   -0.9563 N   0  0  0  0  0  0  0  0  0  0  0  0
   -2.1757    3.3929   -0.2966 H   0  0  0  0  0  0  0  0  0  0  0  0
   -1.2571    4.2679   -2.0226 C   0  0  0  0  0  0  0  0  0  0  0  0
   -1.5080    3.8244   -2.9918 H   0  0  0  0  0  0  0  0  0  0  0  0
   -1.9208    5.1202   -1.8489 H   0  0  0  0  0  0  0  0  0  0  0  0
   -0.2266    4.6366   -2.0598 H   0  0  0  0  0  0  0  0  0  0  0  0
  1  2  1  0  0  0  0
  2  3  1  0  0  0  0
  2  4  1  0  0  0  0
  2  5  1  0  0  0  0
  5  6  2  0  0  0  0
  5  7  1  0  0  0  0
  7  8  1  0  0  0  0
  7  9  1  0  0  0  0
  9 10  1  0  0  0  0
  9 11  1  0  0  0  0
  9 26  1  0  0  0  0
 11 12  1  0  0  0  0
 11 13  1  0  0  0  0
 11 14  1  0  0  0  0
 14 15  1  0  0  0  0
 14 16  1  0  0  0  0
 14 17  1  0  0  0  0
 17 18  1  0  0  0  0
 17 19  1  0  0  0  0
 17 20  1  0  0  0  0
 20 21  1  0  0  0  0
 20 22  1  0  0  0  0
 20 23  1  0  0  0  0
 23 24  1  0  0  0  0
 23 25  1  0  0  0  0
 26 27  2  0  0  0  0
 26 28  1  0  0  0  0
 28 29  1  0  0  0  0
 28 30  1  0  0  0  0
 30 31  1  0  0  0  0
 30 32  1  0  0  0  0
 30 33  1  0  0  0  0
M  END
$$$$

  -OEChem-01062216083D

 33 32  0     1  0  0  0  0  0999 V2000
   -4.0306   -1.1854    1.7250 H   0  0  0  0  0  0  0  0  0  0  0  0
   -2.9452   -1.2328    1.6064 C   0  0  0  0  0  0  0  0  0  0  0  0
   -2.4891   -0.5392    2.3162 H   0  0  0  0  0  0  0  0  0  0  0  0
   -2.6097   -2.2486    1.8294 H   0  0  0  0  0  0  0  0  0  0  0  0
   -2.5750   -0.8631    0.1782 C   0  0  0  0  0  0  0  0  0  0  0  0
   -3.0586   -1.5036   -0.7357 O   0  0  0  0  0  0  0  0  0  0  0  0
   -2.2053    0.4158   -0.1523 N   0  0  0  0  0  0  0  0  0  0  0  0
   -2.4162    0.5498   -1.1417 H   0  0  0  0  0  0  0  0  0  0  0  0
   -0.9707    1.1190    0.2570 C   0  0  1  0  0  0  0  0  0  0  0  0
   -1.1719    1.6774    1.1759 H   0  0  0  0  0  0  0  0  0  0  0  0
    0.3175    0.2687    0.4794 C   0  0  0  0  0  0  0  0  0  0  0  0
    0.5029   -0.3173   -0.4283 H   0  0  0  0  0  0  0  0  0  0  0  0
    1.1606    0.9584    0.5977 H   0  0  0  0  0  0  0  0  0  0  0  0
    0.3426   -0.6979    1.6718 C   0  0  0  0  0  0  0  0  0  0  0  0
   -0.4168   -1.4673    1.5564 H   0  0  0  0  0  0  0  0  0  0  0  0
    0.1546   -0.1513    2.6017 H   0  0  0  0  0  0  0  0  0  0  0  0
    1.6949   -1.4165    1.7381 C   0  0  0  0  0  0  0  0  0  0  0  0
    1.8701   -1.9549    0.8009 H   0  0  0  0  0  0  0  0  0  0  0  0
    2.4982   -0.6824    1.8603 H   0  0  0  0  0  0  0  0  0  0  0  0
    1.7331   -2.4017    2.9029 C   0  0  0  0  0  0  0  0  0  0  0  0
    1.5857   -1.8709    3.8500 H   0  0  0  0  0  0  0  0  0  0  0  0
    0.9306   -3.1404    2.7977 H   0  0  0  0  0  0  0  0  0  0  0  0
    3.0359   -3.0721    2.9005 N   0  0  0  0  0  0  0  0  0  0  0  0
    3.1035   -3.7550    3.6552 H   0  0  0  0  0  0  0  0  0  0  0  0
    3.2217   -3.5087    1.9971 H   0  0  0  0  0  0  0  0  0  0  0  0
   -0.6277    2.1239   -0.8712 C   0  0  0  0  0  0  0  0  0  0  0  0
    0.0109    1.7934   -1.8616 O   0  0  0  0  0  0  0  0  0  0  0  0
   -1.1415    3.4066   -0.8114 N   0  0  0  0  0  0  0  0  0  0  0  0
   -1.7594    3.6292   -0.0367 H   0  0  0  0  0  0  0  0  0  0  0  0
   -0.9623    4.3915   -1.8721 C   0  0  0  0  0  0  0  0  0  0  0  0
   -1.4450    4.0533   -2.7951 H   0  0  0  0  0  0  0  0  0  0  0  0
   -1.4057    5.3479   -1.5789 H   0  0  0  0  0  0  0  0  0  0  0  0
    0.1028    4.5527   -2.0701 H   0  0  0  0  0  0  0  0  0  0  0  0
  1  2  1  0  0  0  0
  2  3  1  0  0  0  0
  2  4  1  0  0  0  0
  2  5  1  0  0  0  0
  5  6  2  0  0  0  0
  5  7  1  0  0  0  0
  7  8  1  0  0  0  0
  7  9  1  0  0  0  0
  9 10  1  0  0  0  0
  9 11  1  0  0  0  0
  9 26  1  0  0  0  0
 11 12  1  0  0  0  0
 11 13  1  0  0  0  0
 11 14  1  0  0  0  0
 14 15  1  0  0  0  0
 14 16  1  0  0  0  0
 14 17  1  0  0  0  0
 17 18  1  0  0  0  0
 17 19  1  0  0  0  0
 17 20  1  0  0  0  0
 20 21  1  0  0  0  0
 20 22  1  0  0  0  0
 20 23  1  0  0  0  0
 23 24  1  0  0  0  0
 23 25  1  0  0  0  0
 26 27  2  0  0  0  0
 26 28  1  0  0  0  0
 28 29  1  0  0  0  0
 28 30  1  0  0  0  0
 30 31  1  0  0  0  0
 30 32  1  0  0  0  0
 30 33  1  0  0  0  0
M  END
$$$$

  -OEChem-01062216083D

 33 32  0     1  0  0  0  0  0999 V2000
   -4.0375   -1.1612    1.7277 H   0  0  0  0  0  0  0  0  0  0  0  0
   -2.9527   -1.2160    1.6057 C   0  0  0  0  0  0  0  0  0  0  0  0
   -2.4896   -0.5202    2.3087 H   0  0  0  0  0  0  0  0  0  0  0  0
   -2.6224   -2.2322    1.8347 H   0  0  0  0  0  0  0  0  0  0  0  0
   -2.5856   -0.8582    0.1737 C   0  0  0  0  0  0  0  0  0  0  0  0
   -3.0655   -1.5112   -0.7333 O   0  0  0  0  0  0  0  0  0  0  0  0
   -2.2056    0.4152   -0.1676 N   0  0  0  0  0  0  0  0  0  0  0  0
   -2.3955    0.5390   -1.1634 H   0  0  0  0  0  0  0  0  0  0  0  0
   -0.9752    1.1187    0.2517 C   0  0  1  0  0  0  0  0  0  0  0  0
   -1.1853    1.6816    1.1658 H   0  0  0  0  0  0  0  0  0  0  0  0
    0.3152    0.2749    0.4766 C   0  0  0  0  0  0  0  0  0  0  0  0
    0.5080   -0.3047   -0.4337 H   0  0  0  0  0  0  0  0  0  0  0  0
    1.1548    0.9681    0.6025 H   0  0  0  0  0  0  0  0  0  0  0  0
    0.3381   -0.6973    1.6645 C   0  0  0  0  0  0  0  0  0  0  0  0
   -0.4178   -1.4693    1.5400 H   0  0  0  0  0  0  0  0  0  0  0  0
    0.1420   -0.1565    2.5960 H   0  0  0  0  0  0  0  0  0  0  0  0
    1.6939   -1.4095    1.7355 C   0  0  0  0  0  0  0  0  0  0  0  0
    1.8776   -1.9430    0.7970 H   0  0  0  0  0  0  0  0  0  0  0  0
    2.4926   -0.6719    1.8659 H   0  0  0  0  0  0  0  0  0  0  0  0
    1.7309   -2.4004    2.8956 C   0  0  0  0  0  0  0  0  0  0  0  0
    1.5751   -1.8757    3.8448 H   0  0  0  0  0  0  0  0  0  0  0  0
    0.9331   -3.1429    2.7811 H   0  0  0  0  0  0  0  0  0  0  0  0
    3.0372   -3.0645    2.8982 N   0  0  0  0  0  0  0  0  0  0  0  0
    3.1051   -3.7467    3.6535 H   0  0  0  0  0  0  0  0  0  0  0  0
    3.2284   -3.5009    1.9959 H   0  0  0  0  0  0  0  0  0  0  0  0
   -0.6078    2.1075   -0.8807 C   0  0  0  0  0  0  0  0  0  0  0  0
   -0.2244    1.7033   -1.9704 O   0  0  0  0  0  0  0  0  0  0  0  0
   -0.8367    3.4615   -0.7149 N   0  0  0  0  0  0  0  0  0  0  0  0
   -1.2519    3.7667    0.1601 H   0  0  0  0  0  0  0  0  0  0  0  0
   -0.6247    4.4438   -1.7719 C   0  0  0  0  0  0  0  0  0  0  0  0
   -1.2932    4.2480   -2.6169 H   0  0  0  0  0  0  0  0  0  0  0  0
   -0.8258    5.4521   -1.3975 H   0  0  0  0  0  0  0  0  0  0  0  0
    0.4111    4.4085   -2.1261 H   0  0  0  0  0  0  0  0  0  0  0  0
  1  2  1  0  0  0  0
  2  3  1  0  0  0  0
  2  4  1  0  0  0  0
  2  5  1  0  0  0  0
  5  6  2  0  0  0  0
  5  7  1  0  0  0  0
  7  8  1  0  0  0  0
  7  9  1  0  0  0  0
  9 10  1  0  0  0  0
  9 11  1  0  0  0  0
  9 26  1  0  0  0  0
 11 12  1  0  0  0  0
 11 13  1  0  0  0  0
 11 14  1  0  0  0  0
 14 15  1  0  0  0  0
 14 16  1  0  0  0  0
 14 17  1  0  0  0  0
 17 18  1  0  0  0  0
 17 19  1  0  0  0  0
 17 20  1  0  0  0  0
 20 21  1  0  0  0  0
 20 22  1  0  0  0  0
 20 23  1  0  0  0  0
 23 24  1  0  0  0  0
 23 25  1  0  0  0  0
 26 27  2  0  0  0  0
 26 28  1  0  0  0  0
 28 29  1  0  0  0  0
 28 30  1  0  0  0  0
 30 31  1  0  0  0  0
 30 32  1  0  0  0  0
 30 33  1  0  0  0  0
M  END
$$$$

  -OEChem-01062216083D

 33 32  0     1  0  0  0  0  0999 V2000
   -4.0425   -1.1332    1.7402 H   0  0  0  0  0  0  0  0  0  0  0  0
   -2.9582   -1.1923    1.6164 C   0  0  0  0  0  0  0  0  0  0  0  0
   -2.4921   -0.4888    2.3095 H   0  0  0  0  0  0  0  0  0  0  0  0
   -2.6300   -2.2064    1.8577 H   0  0  0  0  0  0  0  0  0  0  0  0
   -2.5937   -0.8548    0.1788 C   0  0  0  0  0  0  0  0  0  0  0  0
   -3.0660   -1.5286   -0.7170 O   0  0  0  0  0  0  0  0  0  0  0  0
   -2.2060    0.4115   -0.1802 N   0  0  0  0  0  0  0  0  0  0  0  0
   -2.3800    0.5229   -1.1813 H   0  0  0  0  0  0  0  0  0  0  0  0
   -0.9781    1.1183    0.2403 C   0  0  1  0  0  0  0  0  0  0  0  0
   -1.1926    1.6913    1.1471 H   0  0  0  0  0  0  0  0  0  0  0  0
    0.3114    0.2769    0.4665 C   0  0  0  0  0  0  0  0  0  0  0  0
    0.5062   -0.2998   -0.4452 H   0  0  0  0  0  0  0  0  0  0  0  0
    1.1501    0.9704    0.5956 H   0  0  0  0  0  0  0  0  0  0  0  0
    0.3333   -0.6951    1.6546 C   0  0  0  0  0  0  0  0  0  0  0  0
   -0.4226   -1.4673    1.5299 H   0  0  0  0  0  0  0  0  0  0  0  0
    0.1360   -0.1540    2.5859 H   0  0  0  0  0  0  0  0  0  0  0  0
    1.6898   -1.4060    1.7269 C   0  0  0  0  0  0  0  0  0  0  0  0
    1.8753   -1.9392    0.7886 H   0  0  0  0  0  0  0  0  0  0  0  0
    2.4868   -0.6669    1.8585 H   0  0  0  0  0  0  0  0  0  0  0  0
    1.7273   -2.3970    2.8867 C   0  0  0  0  0  0  0  0  0  0  0  0
    1.5703   -1.8726    3.8357 H   0  0  0  0  0  0  0  0  0  0  0  0
    0.9304   -3.1402    2.7716 H   0  0  0  0  0  0  0  0  0  0  0  0
    3.0343   -3.0597    2.8904 N   0  0  0  0  0  0  0  0  0  0  0  0
    3.1037   -3.7381    3.6491 H   0  0  0  0  0  0  0  0  0  0  0  0
    3.2237   -3.5011    1.9901 H   0  0  0  0  0  0  0  0  0  0  0  0
   -0.5930    2.0870   -0.9024 C   0  0  0  0  0  0  0  0  0  0  0  0
   -0.4622    1.6738   -2.0472 O   0  0  0  0  0  0  0  0  0  0  0  0
   -0.5192    3.4485   -0.6687 N   0  0  0  0  0  0  0  0  0  0  0  0
   -0.7063    3.7795    0.2728 H   0  0  0  0  0  0  0  0  0  0  0  0
   -0.2703    4.4273   -1.7211 C   0  0  0  0  0  0  0  0  0  0  0  0
   -1.0745    4.4039   -2.4641 H   0  0  0  0  0  0  0  0  0  0  0  0
   -0.2199    5.4351   -1.2976 H   0  0  0  0  0  0  0  0  0  0  0  0
    0.6798    4.2168   -2.2234 H   0  0  0  0  0  0  0  0  0  0  0  0
  1  2  1  0  0  0  0
  2  3  1  0  0  0  0
  2  4  1  0  0  0  0
  2  5  1  0  0  0  0
  5  6  2  0  0  0  0
  5  7  1  0  0  0  0
  7  8  1  0  0  0  0
  7  9  1  0  0  0  0
  9 10  1  0  0  0  0
  9 11  1  0  0  0  0
  9 26  1  0  0  0  0
 11 12  1  0  0  0  0
 11 13  1  0  0  0  0
 11 14  1  0  0  0  0
 14 15  1  0  0  0  0
 14 16  1  0  0  0  0
 14 17  1  0  0  0  0
 17 18  1  0  0  0  0
 17 19  1  0  0  0  0
 17 20  1  0  0  0  0
 20 21  1  0  0  0  0
 20 22  1  0  0  0  0
 20 23  1  0  0  0  0
 23 24  1  0  0  0  0
 23 25  1  0  0  0  0
 26 27  2  0  0  0  0
 26 28  1  0  0  0  0
 28 29  1  0  0  0  0
 28 30  1  0  0  0  0
 30 31  1  0  0  0  0
 30 32  1  0  0  0  0
 30 33  1  0  0  0  0
M  END
$$$$

  -OEChem-01062216083D

 33 32  0     1  0  0  0  0  0999 V2000
   -4.0460   -1.1056    1.7654 H   0  0  0  0  0  0  0  0  0  0  0  0
   -2.9635   -1.1807    1.6349 C   0  0  0  0  0  0  0  0  0  0  0  0
   -2.4833   -0.4743    2.3153 H   0  0  0  0  0  0  0  0  0  0  0  0
   -2.6462   -2.1955    1.8871 H   0  0  0  0  0  0  0  0  0  0  0  0
   -2.6057   -0.8665    0.1902 C   0  0  0  0  0  0  0  0  0  0  0  0
   -3.0732   -1.5603   -0.6929 O   0  0  0  0  0  0  0  0  0  0  0  0
   -2.2196    0.3942   -0.1894 N   0  0  0  0  0  0  0  0  0  0  0  0
   -2.3956    0.4972   -1.1919 H   0  0  0  0  0  0  0  0  0  0  0  0
   -0.9937    1.1114    0.2190 C   0  0  1  0  0  0  0  0  0  0  0  0
   -1.2096    1.6963    1.1177 H   0  0  0  0  0  0  0  0  0  0  0  0
    0.2985    0.2745    0.4459 C   0  0  0  0  0  0  0  0  0  0  0  0
    0.4880   -0.3080   -0.4635 H   0  0  0  0  0  0  0  0  0  0  0  0
    1.1376    0.9691    0.5659 H   0  0  0  0  0  0  0  0  0  0  0  0
    0.3301   -0.6883    1.6413 C   0  0  0  0  0  0  0  0  0  0  0  0
   -0.4243   -1.4636    1.5266 H   0  0  0  0  0  0  0  0  0  0  0  0
    0.1366   -0.1405    2.5692 H   0  0  0  0  0  0  0  0  0  0  0  0
    1.6894   -1.3947    1.7109 C   0  0  0  0  0  0  0  0  0  0  0  0
    1.8701   -1.9345    0.7754 H   0  0  0  0  0  0  0  0  0  0  0  0
    2.4860   -0.6531    1.8320 H   0  0  0  0  0  0  0  0  0  0  0  0
    1.7385   -2.3770    2.8778 C   0  0  0  0  0  0  0  0  0  0  0  0
    1.5870   -1.8458    3.8240 H   0  0  0  0  0  0  0  0  0  0  0  0
    0.9434   -3.1239    2.7748 H   0  0  0  0  0  0  0  0  0  0  0  0
    3.0486   -3.0340    2.8759 N   0  0  0  0  0  0  0  0  0  0  0  0
    3.1287   -3.7039    3.6412 H   0  0  0  0  0  0  0  0  0  0  0  0
    3.2315   -3.4842    1.9786 H   0  0  0  0  0  0  0  0  0  0  0  0
   -0.6033    2.0641   -0.9351 C   0  0  0  0  0  0  0  0  0  0  0  0
   -0.6988    1.6976   -2.0996 O   0  0  0  0  0  0  0  0  0  0  0  0
   -0.2296    3.3688   -0.6683 N   0  0  0  0  0  0  0  0  0  0  0  0
   -0.2041    3.6672    0.3019 H   0  0  0  0  0  0  0  0  0  0  0  0
    0.0864    4.3379   -1.7113 C   0  0  0  0  0  0  0  0  0  0  0  0
   -0.7933    4.5310   -2.3342 H   0  0  0  0  0  0  0  0  0  0  0  0
    0.4088    5.2831   -1.2644 H   0  0  0  0  0  0  0  0  0  0  0  0
    0.8948    3.9654   -2.3495 H   0  0  0  0  0  0  0  0  0  0  0  0
  1  2  1  0  0  0  0
  2  3  1  0  0  0  0
  2  4  1  0  0  0  0
  2  5  1  0  0  0  0
  5  6  2  0  0  0  0
  5  7  1  0  0  0  0
  7  8  1  0  0  0  0
  7  9  1  0  0  0  0
  9 10  1  0  0  0  0
  9 11  1  0  0  0  0
  9 26  1  0  0  0  0
 11 12  1  0  0  0  0
 11 13  1  0  0  0  0
 11 14  1  0  0  0  0
 14 15  1  0  0  0  0
 14 16  1  0  0  0  0
 14 17  1  0  0  0  0
 17 18  1  0  0  0  0
 17 19  1  0  0  0  0
 17 20  1  0  0  0  0
 20 21  1  0  0  0  0
 20 22  1  0  0  0  0
 20 23  1  0  0  0  0
 23 24  1  0  0  0  0
 23 25  1  0  0  0  0
 26 27  2  0  0  0  0
 26 28  1  0  0  0  0
 28 29  1  0  0  0  0
 28 30  1  0  0  0  0
 30 31  1  0  0  0  0
 30 32  1  0  0  0  0
 30 33  1  0  0  0  0
M  END
$$$$

  -OEChem-01062216083D

 33 32  0     1  0  0  0  0  0999 V2000
   -4.0482   -1.1012    1.7692 H   0  0  0  0  0  0  0  0  0  0  0  0
   -2.9655   -1.1753    1.6404 C   0  0  0  0  0  0  0  0  0  0  0  0
   -2.4877   -0.4585    2.3116 H   0  0  0  0  0  0  0  0  0  0  0  0
   -2.6461   -2.1860    1.9058 H   0  0  0  0  0  0  0  0  0  0  0  0
   -2.6067   -0.8786    0.1924 C   0  0  0  0  0  0  0  0  0  0  0  0
   -3.0673   -1.5878   -0.6820 O   0  0  0  0  0  0  0  0  0  0  0  0
   -2.2228    0.3788   -0.1999 N   0  0  0  0  0  0  0  0  0  0  0  0
   -2.4134    0.4858   -1.1999 H   0  0  0  0  0  0  0  0  0  0  0  0
   -0.9978    1.1061    0.1952 C   0  0  1  0  0  0  0  0  0  0  0  0
   -1.2120    1.7002    1.0884 H   0  0  0  0  0  0  0  0  0  0  0  0
    0.2939    0.2682    0.4240 C   0  0  0  0  0  0  0  0  0  0  0  0
    0.4774   -0.3226   -0.4813 H   0  0  0  0  0  0  0  0  0  0  0  0
    1.1370    0.9592    0.5349 H   0  0  0  0  0  0  0  0  0  0  0  0
    0.3281   -0.6826    1.6289 C   0  0  0  0  0  0  0  0  0  0  0  0
   -0.4281   -1.4575    1.5261 H   0  0  0  0  0  0  0  0  0  0  0  0
    0.1395   -0.1250    2.5523 H   0  0  0  0  0  0  0  0  0  0  0  0
    1.6858   -1.3914    1.6989 C   0  0  0  0  0  0  0  0  0  0  0  0
    1.8611   -1.9409    0.7681 H   0  0  0  0  0  0  0  0  0  0  0  0
    2.4841   -0.6500    1.8090 H   0  0  0  0  0  0  0  0  0  0  0  0
    1.7385   -2.3624    2.8750 C   0  0  0  0  0  0  0  0  0  0  0  0
    1.5928   -1.8215    3.8166 H   0  0  0  0  0  0  0  0  0  0  0  0
    0.9415   -3.1089    2.7837 H   0  0  0  0  0  0  0  0  0  0  0  0
    3.0469   -3.0224    2.8730 N   0  0  0  0  0  0  0  0  0  0  0  0
    3.1293   -3.6840    3.6453 H   0  0  0  0  0  0  0  0  0  0  0  0
    3.2237   -3.4832    1.9798 H   0  0  0  0  0  0  0  0  0  0  0  0
   -0.6074    2.0515   -0.9675 C   0  0  0  0  0  0  0  0  0  0  0  0
   -0.9255    1.7851   -2.1202 O   0  0  0  0  0  0  0  0  0  0  0  0
    0.0516    3.2408   -0.7107 N   0  0  0  0  0  0  0  0  0  0  0  0
    0.2854    3.4559    0.2539 H   0  0  0  0  0  0  0  0  0  0  0  0
    0.4075    4.1976   -1.7522 C   0  0  0  0  0  0  0  0  0  0  0  0
   -0.4934    4.5890   -2.2365 H   0  0  0  0  0  0  0  0  0  0  0  0
    0.9615    5.0373   -1.3219 H   0  0  0  0  0  0  0  0  0  0  0  0
    1.0376    3.7216   -2.5113 H   0  0  0  0  0  0  0  0  0  0  0  0
  1  2  1  0  0  0  0
  2  3  1  0  0  0  0
  2  4  1  0  0  0  0
  2  5  1  0  0  0  0
  5  6  2  0  0  0  0
  5  7  1  0  0  0  0
  7  8  1  0  0  0  0
  7  9  1  0  0  0  0
  9 10  1  0  0  0  0
  9 11  1  0  0  0  0
  9 26  1  0  0  0  0
 11 12  1  0  0  0  0
 11 13  1  0  0  0  0
 11 14  1  0  0  0  0
 14 15  1  0  0  0  0
 14 16  1  0  0  0  0
 14 17  1  0  0  0  0
 17 18  1  0  0  0  0
 17 19  1  0  0  0  0
 17 20  1  0  0  0  0
 20 21  1  0  0  0  0
 20 22  1  0  0  0  0
 20 23  1  0  0  0  0
 23 24  1  0  0  0  0
 23 25  1  0  0  0  0
 26 27  2  0  0  0  0
 26 28  1  0  0  0  0
 28 29  1  0  0  0  0
 28 30  1  0  0  0  0
 30 31  1  0  0  0  0
 30 32  1  0  0  0  0
 30 33  1  0  0  0  0
M  END
$$$$

  -OEChem-01062216083D

 33 32  0     1  0  0  0  0  0999 V2000
   -4.0405   -1.1073    1.7852 H   0  0  0  0  0  0  0  0  0  0  0  0
   -2.9584   -1.1835    1.6524 C   0  0  0  0  0  0  0  0  0  0  0  0
   -2.4767   -0.4670    2.3213 H   0  0  0  0  0  0  0  0  0  0  0  0
   -2.6399   -2.1946    1.9173 H   0  0  0  0  0  0  0  0  0  0  0  0
   -2.6040   -0.8893    0.2029 C   0  0  0  0  0  0  0  0  0  0  0  0
   -3.0659   -1.6023   -0.6678 O   0  0  0  0  0  0  0  0  0  0  0  0
   -2.2215    0.3670   -0.1944 N   0  0  0  0  0  0  0  0  0  0  0  0
   -2.4407    0.4897   -1.1869 H   0  0  0  0  0  0  0  0  0  0  0  0
   -0.9969    1.1063    0.1825 C   0  0  1  0  0  0  0  0  0  0  0  0
   -1.2032    1.7087    1.0721 H   0  0  0  0  0  0  0  0  0  0  0  0
    0.2938    0.2628    0.4091 C   0  0  0  0  0  0  0  0  0  0  0  0
    0.4654   -0.3371   -0.4923 H   0  0  0  0  0  0  0  0  0  0  0  0
    1.1444    0.9453    0.5098 H   0  0  0  0  0  0  0  0  0  0  0  0
    0.3328   -0.6758    1.6233 C   0  0  0  0  0  0  0  0  0  0  0  0
   -0.4273   -1.4483    1.5351 H   0  0  0  0  0  0  0  0  0  0  0  0
    0.1549   -0.1077    2.5421 H   0  0  0  0  0  0  0  0  0  0  0  0
    1.6867   -1.3916    1.6902 C   0  0  0  0  0  0  0  0  0  0  0  0
    1.8514   -1.9520    0.7639 H   0  0  0  0  0  0  0  0  0  0  0  0
    2.4908   -0.6543    1.7864 H   0  0  0  0  0  0  0  0  0  0  0  0
    1.7407   -2.3501    2.8765 C   0  0  0  0  0  0  0  0  0  0  0  0
    1.6051   -1.7981    3.8132 H   0  0  0  0  0  0  0  0  0  0  0  0
    0.9379   -3.0919    2.7985 H   0  0  0  0  0  0  0  0  0  0  0  0
    3.0447   -3.0186    2.8730 N   0  0  0  0  0  0  0  0  0  0  0  0
    3.1294   -3.6687    3.6547 H   0  0  0  0  0  0  0  0  0  0  0  0
    3.2102   -3.4948    1.9859 H   0  0  0  0  0  0  0  0  0  0  0  0
   -0.6239    2.0484   -0.9931 C   0  0  0  0  0  0  0  0  0  0  0  0
   -1.1455    1.9107   -2.0936 O   0  0  0  0  0  0  0  0  0  0  0  0
    0.2838    3.0783   -0.8136 N   0  0  0  0  0  0  0  0  0  0  0  0
    0.7016    3.1883    0.1053 H   0  0  0  0  0  0  0  0  0  0  0  0
    0.6643    4.0040   -1.8745 C   0  0  0  0  0  0  0  0  0  0  0  0
   -0.2043    4.5819   -2.2076 H   0  0  0  0  0  0  0  0  0  0  0  0
    1.4264    4.7015   -1.5133 H   0  0  0  0  0  0  0  0  0  0  0  0
    1.0749    3.4586   -2.7311 H   0  0  0  0  0  0  0  0  0  0  0  0
  1  2  1  0  0  0  0
  2  3  1  0  0  0  0
  2  4  1  0  0  0  0
  2  5  1  0  0  0  0
  5  6  2  0  0  0  0
  5  7  1  0  0  0  0
  7  8  1  0  0  0  0
  7  9  1  0  0  0  0
  9 10  1  0  0  0  0
  9 11  1  0  0  0  0
  9 26  1  0  0  0  0
 11 12  1  0  0  0  0
 11 13  1  0  0  0  0
 11 14  1  0  0  0  0
 14 15  1  0  0  0  0
 14 16  1  0  0  0  0
 14 17  1  0  0  0  0
 17 18  1  0  0  0  0
 17 19  1  0  0  0  0
 17 20  1  0  0  0  0
 20 21  1  0  0  0  0
 20 22  1  0  0  0  0
 20 23  1  0  0  0  0
 23 24  1  0  0  0  0
 23 25  1  0  0  0  0
 26 27  2  0  0  0  0
 26 28  1  0  0  0  0
 28 29  1  0  0  0  0
 28 30  1  0  0  0  0
 30 31  1  0  0  0  0
 30 32  1  0  0  0  0
 30 33  1  0  0  0  0
M  END
$$$$

  -OEChem-01062216083D

 33 32  0     1  0  0  0  0  0999 V2000
   -3.5018   -2.0924    0.0739 H   0  0  0  0  0  0  0  0  0  0  0  0
   -2.5262   -1.7885    0.4620 C   0  0  0  0  0  0  0  0  0  0  0  0
   -2.1726   -2.5522    1.1586 H   0  0  0  0  0  0  0  0  0  0  0  0
   -1.8333   -1.7178   -0.3776 H   0  0  0  0  0  0  0  0  0  0  0  0
   -2.6618   -0.4507    1.1755 C   0  0  0  0  0  0  0  0  0  0  0  0
   -3.5534   -0.3282    1.9950 O   0  0  0  0  0  0  0  0  0  0  0  0
   -2.2314    0.7321    0.6254 N   0  0  0  0  0  0  0  0  0  0  0  0
   -2.8980    1.4761    0.8304 H   0  0  0  0  0  0  0  0  0  0  0  0
   -0.8554    1.2368    0.4011 C   0  0  1  0  0  0  0  0  0  0  0  0
   -0.5390    1.6643    1.3577 H   0  0  0  0  0  0  0  0  0  0  0  0
    0.2457    0.2126    0.0200 C   0  0  0  0  0  0  0  0  0  0  0  0
   -0.0807   -0.3425   -0.8650 H   0  0  0  0  0  0  0  0  0  0  0  0
    1.1588    0.7469   -0.2581 H   0  0  0  0  0  0  0  0  0  0  0  0
    0.6237   -0.7697    1.1444 C   0  0  0  0  0  0  0  0  0  0  0  0
   -0.2250   -1.3593    1.4797 H   0  0  0  0  0  0  0  0  0  0  0  0
    0.9815   -0.2002    2.0086 H   0  0  0  0  0  0  0  0  0  0  0  0
    1.7316   -1.7164    0.6706 C   0  0  0  0  0  0  0  0  0  0  0  0
    1.3921   -2.2634   -0.2151 H   0  0  0  0  0  0  0  0  0  0  0  0
    2.6191   -1.1389    0.3916 H   0  0  0  0  0  0  0  0  0  0  0  0
    2.0995   -2.7120    1.7675 C   0  0  0  0  0  0  0  0  0  0  0  0
    2.4639   -2.1785    2.6524 H   0  0  0  0  0  0  0  0  0  0  0  0
    1.2174   -3.2926    2.0599 H   0  0  0  0  0  0  0  0  0  0  0  0
    3.1426   -3.6056    1.2566 N   0  0  0  0  0  0  0  0  0  0  0  0
    3.4303   -4.2811    1.9654 H   0  0  0  0  0  0  0  0  0  0  0  0
    2.8376   -4.0795    0.4064 H   0  0  0  0  0  0  0  0  0  0  0  0
   -0.8734    2.4389   -0.5813 C   0  0  0  0  0  0  0  0  0  0  0  0
   -1.9342    2.9017   -0.9819 O   0  0  0  0  0  0  0  0  0  0  0  0
    0.2967    3.0832   -0.9471 N   0  0  0  0  0  0  0  0  0  0  0  0
    1.1723    2.7157   -0.5878 H   0  0  0  0  0  0  0  0  0  0  0  0
    0.3314    4.2494   -1.8225 C   0  0  0  0  0  0  0  0  0  0  0  0
   -0.2578    5.0678   -1.3953 H   0  0  0  0  0  0  0  0  0  0  0  0
    1.3615    4.5963   -1.9497 H   0  0  0  0  0  0  0  0  0  0  0  0
   -0.0749    4.0005   -2.8087 H   0  0  0  0  0  0  0  0  0  0  0  0
  1  2  1  0  0  0  0
  2  3  1  0  0  0  0
  2  4  1  0  0  0  0
  2  5  1  0  0  0  0
  5  6  2  0  0  0  0
  5  7  1  0  0  0  0
  7  8  1  0  0  0  0
  7  9  1  0  0  0  0
  9 10  1  0  0  0  0
  9 11  1  0  0  0  0
  9 26  1  0  0  0  0
 11 12  1  0  0  0  0
 11 13  1  0  0  0  0
 11 14  1  0  0  0  0
 14 15  1  0  0  0  0
 14 16  1  0  0  0  0
 14 17  1  0  0  0  0
 17 18  1  0  0  0  0
 17 19  1  0  0  0  0
 17 20  1  0  0  0  0
 20 21  1  0  0  0  0
 20 22  1  0  0  0  0
 20 23  1  0  0  0  0
 23 24  1  0  0  0  0
 23 25  1  0  0  0  0
 26 27  2  0  0  0  0
 26 28  1  0  0  0  0
 28 29  1  0  0  0  0
 28 30  1  0  0  0  0
 30 31  1  0  0  0  0
 30 32  1  0  0  0  0
 30 33  1  0  0  0  0
M  END
$$$$

  -OEChem-01062216083D

 33 32  0     1  0  0  0  0  0999 V2000
   -3.4804   -2.0784    0.0445 H   0  0  0  0  0  0  0  0  0  0  0  0
   -2.5092   -1.7783    0.4469 C   0  0  0  0  0  0  0  0  0  0  0  0
   -2.1717   -2.5399    1.1539 H   0  0  0  0  0  0  0  0  0  0  0  0
   -1.8023   -1.7172   -0.3812 H   0  0  0  0  0  0  0  0  0  0  0  0
   -2.6482   -0.4359    1.1514 C   0  0  0  0  0  0  0  0  0  0  0  0
   -3.5540   -0.3052    1.9535 O   0  0  0  0  0  0  0  0  0  0  0  0
   -2.1969    0.7442    0.6112 N   0  0  0  0  0  0  0  0  0  0  0  0
   -2.8487    1.4990    0.8277 H   0  0  0  0  0  0  0  0  0  0  0  0
   -0.8150    1.2329    0.3892 C   0  0  1  0  0  0  0  0  0  0  0  0
   -0.4939    1.6589    1.3451 H   0  0  0  0  0  0  0  0  0  0  0  0
    0.2782    0.1962    0.0178 C   0  0  0  0  0  0  0  0  0  0  0  0
   -0.0459   -0.3584   -0.8681 H   0  0  0  0  0  0  0  0  0  0  0  0
    1.2002    0.7194   -0.2501 H   0  0  0  0  0  0  0  0  0  0  0  0
    0.6411   -0.7832    1.1497 C   0  0  0  0  0  0  0  0  0  0  0  0
   -0.2153   -1.3626    1.4839 H   0  0  0  0  0  0  0  0  0  0  0  0
    1.0007   -0.2127    2.0127 H   0  0  0  0  0  0  0  0  0  0  0  0
    1.7419   -1.7421    0.6845 C   0  0  0  0  0  0  0  0  0  0  0  0
    1.4011   -2.2894   -0.2004 H   0  0  0  0  0  0  0  0  0  0  0  0
    2.6363   -1.1744    0.4073 H   0  0  0  0  0  0  0  0  0  0  0  0
    2.0976   -2.7364    1.7858 C   0  0  0  0  0  0  0  0  0  0  0  0
    2.4655   -2.2025    2.6692 H   0  0  0  0  0  0  0  0  0  0  0  0
    1.2104   -3.3090    2.0793 H   0  0  0  0  0  0  0  0  0  0  0  0
    3.1342   -3.6391    1.2777 N   0  0  0  0  0  0  0  0  0  0  0  0
    3.4260   -4.3066    1.9923 H   0  0  0  0  0  0  0  0  0  0  0  0
    2.8207   -4.1224    0.4359 H   0  0  0  0  0  0  0  0  0  0  0  0
   -0.8412    2.4428   -0.5858 C   0  0  0  0  0  0  0  0  0  0  0  0
   -1.8802    3.0700   -0.7521 O   0  0  0  0  0  0  0  0  0  0  0  0
    0.3031    2.9105   -1.2112 N   0  0  0  0  0  0  0  0  0  0  0  0
    1.1693    2.4051   -1.0544 H   0  0  0  0  0  0  0  0  0  0  0  0
    0.3212    4.0788   -2.0848 C   0  0  0  0  0  0  0  0  0  0  0  0
   -0.0066    4.9703   -1.5398 H   0  0  0  0  0  0  0  0  0  0  0  0
    1.3341    4.2560   -2.4585 H   0  0  0  0  0  0  0  0  0  0  0  0
   -0.3421    3.9263   -2.9427 H   0  0  0  0  0  0  0  0  0  0  0  0
  1  2  1  0  0  0  0
  2  3  1  0  0  0  0
  2  4  1  0  0  0  0
  2  5  1  0  0  0  0
  5  6  2  0  0  0  0
  5  7  1  0  0  0  0
  7  8  1  0  0  0  0
  7  9  1  0  0  0  0
  9 10  1  0  0  0  0
  9 11  1  0  0  0  0
  9 26  1  0  0  0  0
 11 12  1  0  0  0  0
 11 13  1  0  0  0  0
 11 14  1  0  0  0  0
 14 15  1  0  0  0  0
 14 16  1  0  0  0  0
 14 17  1  0  0  0  0
 17 18  1  0  0  0  0
 17 19  1  0  0  0  0
 17 20  1  0  0  0  0
 20 21  1  0  0  0  0
 20 22  1  0  0  0  0
 20 23  1  0  0  0  0
 23 24  1  0  0  0  0
 23 25  1  0  0  0  0
 26 27  2  0  0  0  0
 26 28  1  0  0  0  0
 28 29  1  0  0  0  0
 28 30  1  0  0  0  0
 30 31  1  0  0  0  0
 30 32  1  0  0  0  0
 30 33  1  0  0  0  0
M  END
$$$$

  -OEChem-01062216083D

 33 32  0     1  0  0  0  0  0999 V2000
   -3.4734   -2.0579    0.0228 H   0  0  0  0  0  0  0  0  0  0  0  0
   -2.4983   -1.7603    0.4170 C   0  0  0  0  0  0  0  0  0  0  0  0
   -2.1542   -2.5264    1.1157 H   0  0  0  0  0  0  0  0  0  0  0  0
   -1.7998   -1.6940   -0.4178 H   0  0  0  0  0  0  0  0  0  0  0  0
   -2.6297   -0.4218    1.1303 C   0  0  0  0  0  0  0  0  0  0  0  0
   -3.5298   -0.2915    1.9388 O   0  0  0  0  0  0  0  0  0  0  0  0
   -2.1722    0.7578    0.5940 N   0  0  0  0  0  0  0  0  0  0  0  0
   -2.8060    1.5197    0.8395 H   0  0  0  0  0  0  0  0  0  0  0  0
   -0.7842    1.2292    0.3772 C   0  0  1  0  0  0  0  0  0  0  0  0
   -0.4625    1.6554    1.3331 H   0  0  0  0  0  0  0  0  0  0  0  0
    0.3049    0.1845    0.0171 C   0  0  0  0  0  0  0  0  0  0  0  0
   -0.0122   -0.3706   -0.8710 H   0  0  0  0  0  0  0  0  0  0  0  0
    1.2319    0.7061   -0.2385 H   0  0  0  0  0  0  0  0  0  0  0  0
    0.6539   -0.7921    1.1559 C   0  0  0  0  0  0  0  0  0  0  0  0
   -0.2085   -1.3646    1.4870 H   0  0  0  0  0  0  0  0  0  0  0  0
    1.0111   -0.2201    2.0189 H   0  0  0  0  0  0  0  0  0  0  0  0
    1.7516   -1.7600    0.7018 C   0  0  0  0  0  0  0  0  0  0  0  0
    1.4122   -2.3091   -0.1825 H   0  0  0  0  0  0  0  0  0  0  0  0
    2.6513   -1.1994    0.4270 H   0  0  0  0  0  0  0  0  0  0  0  0
    2.0940   -2.7517    1.8096 C   0  0  0  0  0  0  0  0  0  0  0  0
    2.4598   -2.2163    2.6931 H   0  0  0  0  0  0  0  0  0  0  0  0
    1.2015   -3.3171    2.0998 H   0  0  0  0  0  0  0  0  0  0  0  0
    3.1281   -3.6629    1.3117 N   0  0  0  0  0  0  0  0  0  0  0  0
    3.4094   -4.3306    2.0302 H   0  0  0  0  0  0  0  0  0  0  0  0
    2.8180   -4.1462    0.4687 H   0  0  0  0  0  0  0  0  0  0  0  0
   -0.8096    2.4404   -0.5940 C   0  0  0  0  0  0  0  0  0  0  0  0
   -1.7604    3.2120   -0.5631 O   0  0  0  0  0  0  0  0  0  0  0  0
    0.2362    2.7302   -1.4550 N   0  0  0  0  0  0  0  0  0  0  0  0
    1.0150    2.0801   -1.4888 H   0  0  0  0  0  0  0  0  0  0  0  0
    0.2404    3.8774   -2.3558 C   0  0  0  0  0  0  0  0  0  0  0  0
    0.1496    4.8105   -1.7897 H   0  0  0  0  0  0  0  0  0  0  0  0
    1.1750    3.9089   -2.9239 H   0  0  0  0  0  0  0  0  0  0  0  0
   -0.5929    3.8122   -3.0634 H   0  0  0  0  0  0  0  0  0  0  0  0
  1  2  1  0  0  0  0
  2  3  1  0  0  0  0
  2  4  1  0  0  0  0
  2  5  1  0  0  0  0
  5  6  2  0  0  0  0
  5  7  1  0  0  0  0
  7  8  1  0  0  0  0
  7  9  1  0  0  0  0
  9 10  1  0  0  0  0
  9 11  1  0  0  0  0
  9 26  1  0  0  0  0
 11 12  1  0  0  0  0
 11 13  1  0  0  0  0
 11 14  1  0  0  0  0
 14 15  1  0  0  0  0
 14 16  1  0  0  0  0
 14 17  1  0  0  0  0
 17 18  1  0  0  0  0
 17 19  1  0  0  0  0
 17 20  1  0  0  0  0
 20 21  1  0  0  0  0
 20 22  1  0  0  0  0
 20 23  1  0  0  0  0
 23 24  1  0  0  0  0
 23 25  1  0  0  0  0
 26 27  2  0  0  0  0
 26 28  1  0  0  0  0
 28 29  1  0  0  0  0
 28 30  1  0  0  0  0
 30 31  1  0  0  0  0
 30 32  1  0  0  0  0
 30 33  1  0  0  0  0
M  END
$$$$

  -OEChem-01062216083D

 33 32  0     1  0  0  0  0  0999 V2000
   -3.4713   -2.0293   -0.0138 H   0  0  0  0  0  0  0  0  0  0  0  0
   -2.4991   -1.7443    0.3965 C   0  0  0  0  0  0  0  0  0  0  0  0
   -2.1763   -2.5140    1.1014 H   0  0  0  0  0  0  0  0  0  0  0  0
   -1.7860   -1.6876   -0.4265 H   0  0  0  0  0  0  0  0  0  0  0  0
   -2.6255   -0.4045    1.1074 C   0  0  0  0  0  0  0  0  0  0  0  0
   -3.5305   -0.2665    1.9090 O   0  0  0  0  0  0  0  0  0  0  0  0
   -2.1569    0.7719    0.5738 N   0  0  0  0  0  0  0  0  0  0  0  0
   -2.7759    1.5390    0.8403 H   0  0  0  0  0  0  0  0  0  0  0  0
   -0.7627    1.2262    0.3683 C   0  0  1  0  0  0  0  0  0  0  0  0
   -0.4457    1.6503    1.3269 H   0  0  0  0  0  0  0  0  0  0  0  0
    0.3255    0.1788    0.0188 C   0  0  0  0  0  0  0  0  0  0  0  0
    0.0157   -0.3765   -0.8718 H   0  0  0  0  0  0  0  0  0  0  0  0
    1.2539    0.7036   -0.2284 H   0  0  0  0  0  0  0  0  0  0  0  0
    0.6612   -0.7996    1.1598 C   0  0  0  0  0  0  0  0  0  0  0  0
   -0.2067   -1.3702    1.4806 H   0  0  0  0  0  0  0  0  0  0  0  0
    1.0117   -0.2303    2.0274 H   0  0  0  0  0  0  0  0  0  0  0  0
    1.7606   -1.7690    0.7126 C   0  0  0  0  0  0  0  0  0  0  0  0
    1.4270   -2.3152   -0.1757 H   0  0  0  0  0  0  0  0  0  0  0  0
    2.6628   -1.2086    0.4459 H   0  0  0  0  0  0  0  0  0  0  0  0
    2.0947   -2.7655    1.8191 C   0  0  0  0  0  0  0  0  0  0  0  0
    2.4557   -2.2335    2.7065 H   0  0  0  0  0  0  0  0  0  0  0  0
    1.2000   -3.3310    2.1025 H   0  0  0  0  0  0  0  0  0  0  0  0
    3.1312   -3.6766    1.3248 N   0  0  0  0  0  0  0  0  0  0  0  0
    3.4211   -4.3348    2.0488 H   0  0  0  0  0  0  0  0  0  0  0  0
    2.8197   -4.1709    0.4887 H   0  0  0  0  0  0  0  0  0  0  0  0
   -0.7736    2.4348   -0.6018 C   0  0  0  0  0  0  0  0  0  0  0  0
   -1.5919    3.3278   -0.4233 O   0  0  0  0  0  0  0  0  0  0  0  0
    0.1145    2.5556   -1.6578 N   0  0  0  0  0  0  0  0  0  0  0  0
    0.7514    1.7837   -1.8281 H   0  0  0  0  0  0  0  0  0  0  0  0
    0.0904    3.6677   -2.6010 C   0  0  0  0  0  0  0  0  0  0  0  0
    0.1929    4.6217   -2.0728 H   0  0  0  0  0  0  0  0  0  0  0  0
    0.9166    3.5785   -3.3129 H   0  0  0  0  0  0  0  0  0  0  0  0
   -0.8507    3.6744   -3.1609 H   0  0  0  0  0  0  0  0  0  0  0  0
  1  2  1  0  0  0  0
  2  3  1  0  0  0  0
  2  4  1  0  0  0  0
  2  5  1  0  0  0  0
  5  6  2  0  0  0  0
  5  7  1  0  0  0  0
  7  8  1  0  0  0  0
  7  9  1  0  0  0  0
  9 10  1  0  0  0  0
  9 11  1  0  0  0  0
  9 26  1  0  0  0  0
 11 12  1  0  0  0  0
 11 13  1  0  0  0  0
 11 14  1  0  0  0  0
 14 15  1  0  0  0  0
 14 16  1  0  0  0  0
 14 17  1  0  0  0  0
 17 18  1  0  0  0  0
 17 19  1  0  0  0  0
 17 20  1  0  0  0  0
 20 21  1  0  0  0  0
 20 22  1  0  0  0  0
 20 23  1  0  0  0  0
 23 24  1  0  0  0  0
 23 25  1  0  0  0  0
 26 27  2  0  0  0  0
 26 28  1  0  0  0  0
 28 29  1  0  0  0  0
 28 30  1  0  0  0  0
 30 31  1  0  0  0  0
 30 32  1  0  0  0  0
 30 33  1  0  0  0  0
M  END
$$$$

  -OEChem-01062216083D

 33 32  0     1  0  0  0  0  0999 V2000
   -3.4743   -2.0068   -0.0170 H   0  0  0  0  0  0  0  0  0  0  0  0
   -2.5017   -1.7309    0.3991 C   0  0  0  0  0  0  0  0  0  0  0  0
   -2.1943   -2.4993    1.1125 H   0  0  0  0  0  0  0  0  0  0  0  0
   -1.7807   -1.6903   -0.4181 H   0  0  0  0  0  0  0  0  0  0  0  0
   -2.6161   -0.3846    1.1002 C   0  0  0  0  0  0  0  0  0  0  0  0
   -3.5114   -0.2353    1.9102 O   0  0  0  0  0  0  0  0  0  0  0  0
   -2.1474    0.7852    0.5527 N   0  0  0  0  0  0  0  0  0  0  0  0
   -2.7520    1.5555    0.8409 H   0  0  0  0  0  0  0  0  0  0  0  0
   -0.7494    1.2249    0.3473 C   0  0  1  0  0  0  0  0  0  0  0  0
   -0.4319    1.6553    1.3031 H   0  0  0  0  0  0  0  0  0  0  0  0
    0.3359    0.1730    0.0069 C   0  0  0  0  0  0  0  0  0  0  0  0
    0.0253   -0.3894   -0.8787 H   0  0  0  0  0  0  0  0  0  0  0  0
    1.2628    0.6986   -0.2472 H   0  0  0  0  0  0  0  0  0  0  0  0
    0.6661   -0.8002    1.1537 C   0  0  0  0  0  0  0  0  0  0  0  0
   -0.2045   -1.3664    1.4753 H   0  0  0  0  0  0  0  0  0  0  0  0
    1.0157   -0.2269    2.0192 H   0  0  0  0  0  0  0  0  0  0  0  0
    1.7636   -1.7760    0.7166 C   0  0  0  0  0  0  0  0  0  0  0  0
    1.4327   -2.3268   -0.1697 H   0  0  0  0  0  0  0  0  0  0  0  0
    2.6694   -1.2208    0.4511 H   0  0  0  0  0  0  0  0  0  0  0  0
    2.0874   -2.7646    1.8330 C   0  0  0  0  0  0  0  0  0  0  0  0
    2.4463   -2.2269    2.7180 H   0  0  0  0  0  0  0  0  0  0  0  0
    1.1884   -3.3234    2.1159 H   0  0  0  0  0  0  0  0  0  0  0  0
    3.1222   -3.6843    1.3520 N   0  0  0  0  0  0  0  0  0  0  0  0
    3.3994   -4.3431    2.0803 H   0  0  0  0  0  0  0  0  0  0  0  0
    2.8164   -4.1774    0.5133 H   0  0  0  0  0  0  0  0  0  0  0  0
   -0.7446    2.4196   -0.6351 C   0  0  0  0  0  0  0  0  0  0  0  0
   -1.3827    3.4230   -0.3462 O   0  0  0  0  0  0  0  0  0  0  0  0
   -0.0722    2.3803   -1.8450 N   0  0  0  0  0  0  0  0  0  0  0  0
    0.3914    1.5130   -2.0970 H   0  0  0  0  0  0  0  0  0  0  0  0
   -0.1128    3.4653   -2.8183 C   0  0  0  0  0  0  0  0  0  0  0  0
    0.2482    4.3970   -2.3699 H   0  0  0  0  0  0  0  0  0  0  0  0
    0.5228    3.2277   -3.6766 H   0  0  0  0  0  0  0  0  0  0  0  0
   -1.1360    3.6197   -3.1766 H   0  0  0  0  0  0  0  0  0  0  0  0
  1  2  1  0  0  0  0
  2  3  1  0  0  0  0
  2  4  1  0  0  0  0
  2  5  1  0  0  0  0
  5  6  2  0  0  0  0
  5  7  1  0  0  0  0
  7  8  1  0  0  0  0
  7  9  1  0  0  0  0
  9 10  1  0  0  0  0
  9 11  1  0  0  0  0
  9 26  1  0  0  0  0
 11 12  1  0  0  0  0
 11 13  1  0  0  0  0
 11 14  1  0  0  0  0
 14 15  1  0  0  0  0
 14 16  1  0  0  0  0
 14 17  1  0  0  0  0
 17 18  1  0  0  0  0
 17 19  1  0  0  0  0
 17 20  1  0  0  0  0
 20 21  1  0  0  0  0
 20 22  1  0  0  0  0
 20 23  1  0  0  0  0
 23 24  1  0  0  0  0
 23 25  1  0  0  0  0
 26 27  2  0  0  0  0
 26 28  1  0  0  0  0
 28 29  1  0  0  0  0
 28 30  1  0  0  0  0
 30 31  1  0  0  0  0
 30 32  1  0  0  0  0
 30 33  1  0  0  0  0
M  END
$$$$

  -OEChem-01062216083D

 33 32  0     1  0  0  0  0  0999 V2000
   -2.1749   -2.5089    1.0188 H   0  0  0  0  0  0  0  0  0  0  0  0
   -2.5047   -1.7390    0.3173 C   0  0  0  0  0  0  0  0  0  0  0  0
   -1.7954   -1.6767   -0.5088 H   0  0  0  0  0  0  0  0  0  0  0  0
   -3.4774   -2.0288   -0.0887 H   0  0  0  0  0  0  0  0  0  0  0  0
   -2.6332   -0.4002    1.0301 C   0  0  0  0  0  0  0  0  0  0  0  0
   -3.5453   -0.2565    1.8220 O   0  0  0  0  0  0  0  0  0  0  0  0
   -2.1589    0.7739    0.4972 N   0  0  0  0  0  0  0  0  0  0  0  0
   -2.7657    1.5381    0.7961 H   0  0  0  0  0  0  0  0  0  0  0  0
   -0.7563    1.2139    0.3299 C   0  0  1  0  0  0  0  0  0  0  0  0
   -0.4645    1.6377    1.2971 H   0  0  0  0  0  0  0  0  0  0  0  0
    0.3403    0.1687    0.0094 C   0  0  0  0  0  0  0  0  0  0  0  0
    0.0520   -0.3917   -0.8850 H   0  0  0  0  0  0  0  0  0  0  0  0
    1.2686    0.7017   -0.2248 H   0  0  0  0  0  0  0  0  0  0  0  0
    0.6454   -0.8122    1.1565 C   0  0  0  0  0  0  0  0  0  0  0  0
   -0.2306   -1.3830    1.4533 H   0  0  0  0  0  0  0  0  0  0  0  0
    0.9725   -0.2439    2.0338 H   0  0  0  0  0  0  0  0  0  0  0  0
    1.7568   -1.7813    0.7396 C   0  0  0  0  0  0  0  0  0  0  0  0
    1.4495   -2.3265   -0.1588 H   0  0  0  0  0  0  0  0  0  0  0  0
    2.6668   -1.2212    0.5003 H   0  0  0  0  0  0  0  0  0  0  0  0
    2.0567   -2.7775    1.8559 C   0  0  0  0  0  0  0  0  0  0  0  0
    2.3918   -2.2448    2.7529 H   0  0  0  0  0  0  0  0  0  0  0  0
    1.1529   -3.3414    2.1126 H   0  0  0  0  0  0  0  0  0  0  0  0
    3.1063   -3.6902    1.3936 N   0  0  0  0  0  0  0  0  0  0  0  0
    3.3630   -4.3577    2.1215 H   0  0  0  0  0  0  0  0  0  0  0  0
    2.8258   -4.1732    0.5403 H   0  0  0  0  0  0  0  0  0  0  0  0
   -0.7175    2.4094   -0.6463 C   0  0  0  0  0  0  0  0  0  0  0  0
   -1.1453    3.4931   -0.2743 O   0  0  0  0  0  0  0  0  0  0  0  0
   -0.2756    2.2705   -1.9507 N   0  0  0  0  0  0  0  0  0  0  0  0
   -0.0113    1.3400   -2.2588 H   0  0  0  0  0  0  0  0  0  0  0  0
   -0.3147    3.3517   -2.9282 C   0  0  0  0  0  0  0  0  0  0  0  0
    0.2654    4.2102   -2.5738 H   0  0  0  0  0  0  0  0  0  0  0  0
    0.1111    3.0174   -3.8791 H   0  0  0  0  0  0  0  0  0  0  0  0
   -1.3470    3.6721   -3.1040 H   0  0  0  0  0  0  0  0  0  0  0  0
  1  2  1  0  0  0  0
  2  3  1  0  0  0  0
  2  4  1  0  0  0  0
  2  5  1  0  0  0  0
  5  6  2  0  0  0  0
  5  7  1  0  0  0  0
  7  8  1  0  0  0  0
  7  9  1  0  0  0  0
  9 10  1  0  0  0  0
  9 11  1  0  0  0  0
  9 26  1  0  0  0  0
 11 12  1  0  0  0  0
 11 13  1  0  0  0  0
 11 14  1  0  0  0  0
 14 15  1  0  0  0  0
 14 16  1  0  0  0  0
 14 17  1  0  0  0  0
 17 18  1  0  0  0  0
 17 19  1  0  0  0  0
 17 20  1  0  0  0  0
 20 21  1  0  0  0  0
 20 22  1  0  0  0  0
 20 23  1  0  0  0  0
 23 24  1  0  0  0  0
 23 25  1  0  0  0  0
 26 27  2  0  0  0  0
 26 28  1  0  0  0  0
 28 29  1  0  0  0  0
 28 30  1  0  0  0  0
 30 31  1  0  0  0  0
 30 32  1  0  0  0  0
 30 33  1  0  0  0  0
M  END
$$$$

  -OEChem-01062216083D

 33 32  0     1  0  0  0  0  0999 V2000
   -2.2144   -2.5111    1.0467 H   0  0  0  0  0  0  0  0  0  0  0  0
   -2.5101   -1.7399    0.3312 C   0  0  0  0  0  0  0  0  0  0  0  0
   -1.7785   -1.6998   -0.4766 H   0  0  0  0  0  0  0  0  0  0  0  0
   -3.4786   -2.0113   -0.0971 H   0  0  0  0  0  0  0  0  0  0  0  0
   -2.6269   -0.3945    1.0332 C   0  0  0  0  0  0  0  0  0  0  0  0
   -3.5344   -0.2381    1.8277 O   0  0  0  0  0  0  0  0  0  0  0  0
   -2.1549    0.7741    0.4864 N   0  0  0  0  0  0  0  0  0  0  0  0
   -2.7553    1.5382    0.7970 H   0  0  0  0  0  0  0  0  0  0  0  0
   -0.7506    1.2076    0.3131 C   0  0  1  0  0  0  0  0  0  0  0  0
   -0.4545    1.6342    1.2782 H   0  0  0  0  0  0  0  0  0  0  0  0
    0.3442    0.1622   -0.0097 C   0  0  0  0  0  0  0  0  0  0  0  0
    0.0544   -0.3999   -0.9023 H   0  0  0  0  0  0  0  0  0  0  0  0
    1.2706    0.6965   -0.2496 H   0  0  0  0  0  0  0  0  0  0  0  0
    0.6507   -0.8162    1.1391 C   0  0  0  0  0  0  0  0  0  0  0  0
   -0.2257   -1.3857    1.4370 H   0  0  0  0  0  0  0  0  0  0  0  0
    0.9781   -0.2457    2.0149 H   0  0  0  0  0  0  0  0  0  0  0  0
    1.7601   -1.7892    0.7269 C   0  0  0  0  0  0  0  0  0  0  0  0
    1.4520   -2.3389   -0.1683 H   0  0  0  0  0  0  0  0  0  0  0  0
    2.6715   -1.2321    0.4848 H   0  0  0  0  0  0  0  0  0  0  0  0
    2.0559   -2.7797    1.8500 C   0  0  0  0  0  0  0  0  0  0  0  0
    2.3902   -2.2425    2.7448 H   0  0  0  0  0  0  0  0  0  0  0  0
    1.1502   -3.3397    2.1084 H   0  0  0  0  0  0  0  0  0  0  0  0
    3.1035   -3.6990    1.3970 N   0  0  0  0  0  0  0  0  0  0  0  0
    3.3636   -4.3555    2.1335 H   0  0  0  0  0  0  0  0  0  0  0  0
    2.8193   -4.1944    0.5521 H   0  0  0  0  0  0  0  0  0  0  0  0
   -0.7036    2.3915   -0.6743 C   0  0  0  0  0  0  0  0  0  0  0  0
   -0.8569    3.5299   -0.2554 O   0  0  0  0  0  0  0  0  0  0  0  0
   -0.5600    2.1824   -2.0342 N   0  0  0  0  0  0  0  0  0  0  0  0
   -0.5504    1.2203   -2.3581 H   0  0  0  0  0  0  0  0  0  0  0  0
   -0.6317    3.2559   -3.0180 C   0  0  0  0  0  0  0  0  0  0  0  0
    0.1322    4.0141   -2.8153 H   0  0  0  0  0  0  0  0  0  0  0  0
   -0.4643    2.8591   -4.0239 H   0  0  0  0  0  0  0  0  0  0  0  0
   -1.6172    3.7328   -2.9922 H   0  0  0  0  0  0  0  0  0  0  0  0
  1  2  1  0  0  0  0
  2  3  1  0  0  0  0
  2  4  1  0  0  0  0
  2  5  1  0  0  0  0
  5  6  2  0  0  0  0
  5  7  1  0  0  0  0
  7  8  1  0  0  0  0
  7  9  1  0  0  0  0
  9 10  1  0  0  0  0
  9 11  1  0  0  0  0
  9 26  1  0  0  0  0
 11 12  1  0  0  0  0
 11 13  1  0  0  0  0
 11 14  1  0  0  0  0
 14 15  1  0  0  0  0
 14 16  1  0  0  0  0
 14 17  1  0  0  0  0
 17 18  1  0  0  0  0
 17 19  1  0  0  0  0
 17 20  1  0  0  0  0
 20 21  1  0  0  0  0
 20 22  1  0  0  0  0
 20 23  1  0  0  0  0
 23 24  1  0  0  0  0
 23 25  1  0  0  0  0
 26 27  2  0  0  0  0
 26 28  1  0  0  0  0
 28 29  1  0  0  0  0
 28 30  1  0  0  0  0
 30 31  1  0  0  0  0
 30 32  1  0  0  0  0
 30 33  1  0  0  0  0
M  END
$$$$

  -OEChem-01062216083D

 33 32  0     1  0  0  0  0  0999 V2000
   -2.2169   -2.5230    1.0815 H   0  0  0  0  0  0  0  0  0  0  0  0
   -2.5241   -1.7588    0.3637 C   0  0  0  0  0  0  0  0  0  0  0  0
   -1.8014   -1.7211   -0.4525 H   0  0  0  0  0  0  0  0  0  0  0  0
   -3.4958   -2.0384   -0.0515 H   0  0  0  0  0  0  0  0  0  0  0  0
   -2.6385   -0.4085    1.0562 C   0  0  0  0  0  0  0  0  0  0  0  0
   -3.5396   -0.2464    1.8568 O   0  0  0  0  0  0  0  0  0  0  0  0
   -2.1833    0.7569    0.4894 N   0  0  0  0  0  0  0  0  0  0  0  0
   -2.7874    1.5161    0.8043 H   0  0  0  0  0  0  0  0  0  0  0  0
   -0.7816    1.1983    0.3101 C   0  0  1  0  0  0  0  0  0  0  0  0
   -0.4865    1.6335    1.2716 H   0  0  0  0  0  0  0  0  0  0  0  0
    0.3201    0.1618   -0.0144 C   0  0  0  0  0  0  0  0  0  0  0  0
    0.0307   -0.4021   -0.9061 H   0  0  0  0  0  0  0  0  0  0  0  0
    1.2400    0.7043   -0.2598 H   0  0  0  0  0  0  0  0  0  0  0  0
    0.6434   -0.8152    1.1308 C   0  0  0  0  0  0  0  0  0  0  0  0
   -0.2250   -1.3952    1.4329 H   0  0  0  0  0  0  0  0  0  0  0  0
    0.9713   -0.2427    2.0052 H   0  0  0  0  0  0  0  0  0  0  0  0
    1.7601   -1.7750    0.7065 C   0  0  0  0  0  0  0  0  0  0  0  0
    1.4510   -2.3241   -0.1889 H   0  0  0  0  0  0  0  0  0  0  0  0
    2.6630   -1.2067    0.4597 H   0  0  0  0  0  0  0  0  0  0  0  0
    2.0777   -2.7673    1.8217 C   0  0  0  0  0  0  0  0  0  0  0  0
    2.4148   -2.2309    2.7159 H   0  0  0  0  0  0  0  0  0  0  0  0
    1.1809   -3.3387    2.0858 H   0  0  0  0  0  0  0  0  0  0  0  0
    3.1318   -3.6720    1.3538 N   0  0  0  0  0  0  0  0  0  0  0  0
    3.4041   -4.3322    2.0826 H   0  0  0  0  0  0  0  0  0  0  0  0
    2.8475   -4.1627    0.5062 H   0  0  0  0  0  0  0  0  0  0  0  0
   -0.7322    2.3659   -0.6947 C   0  0  0  0  0  0  0  0  0  0  0  0
   -0.5670    3.5084   -0.2927 O   0  0  0  0  0  0  0  0  0  0  0  0
   -0.8918    2.1335   -2.0485 N   0  0  0  0  0  0  0  0  0  0  0  0
   -1.1352    1.1886   -2.3300 H   0  0  0  0  0  0  0  0  0  0  0  0
   -0.9326    3.1994   -3.0422 C   0  0  0  0  0  0  0  0  0  0  0  0
   -0.0221    3.8061   -2.9915 H   0  0  0  0  0  0  0  0  0  0  0  0
   -1.0076    2.7761   -4.0485 H   0  0  0  0  0  0  0  0  0  0  0  0
   -1.7982    3.8482   -2.8722 H   0  0  0  0  0  0  0  0  0  0  0  0
  1  2  1  0  0  0  0
  2  3  1  0  0  0  0
  2  4  1  0  0  0  0
  2  5  1  0  0  0  0
  5  6  2  0  0  0  0
  5  7  1  0  0  0  0
  7  8  1  0  0  0  0
  7  9  1  0  0  0  0
  9 10  1  0  0  0  0
  9 11  1  0  0  0  0
  9 26  1  0  0  0  0
 11 12  1  0  0  0  0
 11 13  1  0  0  0  0
 11 14  1  0  0  0  0
 14 15  1  0  0  0  0
 14 16  1  0  0  0  0
 14 17  1  0  0  0  0
 17 18  1  0  0  0  0
 17 19  1  0  0  0  0
 17 20  1  0  0  0  0
 20 21  1  0  0  0  0
 20 22  1  0  0  0  0
 20 23  1  0  0  0  0
 23 24  1  0  0  0  0
 23 25  1  0  0  0  0
 26 27  2  0  0  0  0
 26 28  1  0  0  0  0
 28 29  1  0  0  0  0
 28 30  1  0  0  0  0
 30 31  1  0  0  0  0
 30 32  1  0  0  0  0
 30 33  1  0  0  0  0
M  END
$$$$

  -OEChem-01062216083D

 33 32  0     1  0  0  0  0  0999 V2000
   -2.2015   -2.5294    1.1182 H   0  0  0  0  0  0  0  0  0  0  0  0
   -2.5287   -1.7759    0.3978 C   0  0  0  0  0  0  0  0  0  0  0  0
   -1.8197   -1.7396   -0.4305 H   0  0  0  0  0  0  0  0  0  0  0  0
   -3.5041   -2.0703    0.0016 H   0  0  0  0  0  0  0  0  0  0  0  0
   -2.6460   -0.4191    1.0774 C   0  0  0  0  0  0  0  0  0  0  0  0
   -3.5481   -0.2501    1.8753 O   0  0  0  0  0  0  0  0  0  0  0  0
   -2.2025    0.7427    0.4945 N   0  0  0  0  0  0  0  0  0  0  0  0
   -2.8086    1.4994    0.8101 H   0  0  0  0  0  0  0  0  0  0  0  0
   -0.8033    1.1893    0.2998 C   0  0  1  0  0  0  0  0  0  0  0  0
   -0.5028    1.6335    1.2557 H   0  0  0  0  0  0  0  0  0  0  0  0
    0.2985    0.1552   -0.0278 C   0  0  0  0  0  0  0  0  0  0  0  0
    0.0019   -0.4141   -0.9136 H   0  0  0  0  0  0  0  0  0  0  0  0
    1.2142    0.6993   -0.2865 H   0  0  0  0  0  0  0  0  0  0  0  0
    0.6366   -0.8134    1.1202 C   0  0  0  0  0  0  0  0  0  0  0  0
   -0.2258   -1.3929    1.4384 H   0  0  0  0  0  0  0  0  0  0  0  0
    0.9733   -0.2327    1.9858 H   0  0  0  0  0  0  0  0  0  0  0  0
    1.7524   -1.7716    0.6906 C   0  0  0  0  0  0  0  0  0  0  0  0
    1.4359   -2.3272   -0.1979 H   0  0  0  0  0  0  0  0  0  0  0  0
    2.6507   -1.2018    0.4303 H   0  0  0  0  0  0  0  0  0  0  0  0
    2.0842   -2.7555    1.8091 C   0  0  0  0  0  0  0  0  0  0  0  0
    2.4288   -2.2116    2.6958 H   0  0  0  0  0  0  0  0  0  0  0  0
    1.1920   -3.3280    2.0864 H   0  0  0  0  0  0  0  0  0  0  0  0
    3.1365   -3.6599    1.3371 N   0  0  0  0  0  0  0  0  0  0  0  0
    3.4125   -4.3193    2.0651 H   0  0  0  0  0  0  0  0  0  0  0  0
    2.8488   -4.1513    0.4910 H   0  0  0  0  0  0  0  0  0  0  0  0
   -0.7566    2.3460   -0.7166 C   0  0  0  0  0  0  0  0  0  0  0  0
   -0.2791    3.4247   -0.3962 O   0  0  0  0  0  0  0  0  0  0  0  0
   -1.2207    2.1563   -2.0047 N   0  0  0  0  0  0  0  0  0  0  0  0
   -1.6853    1.2747   -2.2023 H   0  0  0  0  0  0  0  0  0  0  0  0
   -1.2391    3.2096   -3.0120 C   0  0  0  0  0  0  0  0  0  0  0  0
   -0.2345    3.6215   -3.1552 H   0  0  0  0  0  0  0  0  0  0  0  0
   -1.5863    2.8106   -3.9698 H   0  0  0  0  0  0  0  0  0  0  0  0
   -1.9111    4.0186   -2.7077 H   0  0  0  0  0  0  0  0  0  0  0  0
  1  2  1  0  0  0  0
  2  3  1  0  0  0  0
  2  4  1  0  0  0  0
  2  5  1  0  0  0  0
  5  6  2  0  0  0  0
  5  7  1  0  0  0  0
  7  8  1  0  0  0  0
  7  9  1  0  0  0  0
  9 10  1  0  0  0  0
  9 11  1  0  0  0  0
  9 26  1  0  0  0  0
 11 12  1  0  0  0  0
 11 13  1  0  0  0  0
 11 14  1  0  0  0  0
 14 15  1  0  0  0  0
 14 16  1  0  0  0  0
 14 17  1  0  0  0  0
 17 18  1  0  0  0  0
 17 19  1  0  0  0  0
 17 20  1  0  0  0  0
 20 21  1  0  0  0  0
 20 22  1  0  0  0  0
 20 23  1  0  0  0  0
 23 24  1  0  0  0  0
 23 25  1  0  0  0  0
 26 27  2  0  0  0  0
 26 28  1  0  0  0  0
 28 29  1  0  0  0  0
 28 30  1  0  0  0  0
 30 31  1  0  0  0  0
 30 32  1  0  0  0  0
 30 33  1  0  0  0  0
M  END
$$$$

  -OEChem-01062216083D

 33 32  0     1  0  0  0  0  0999 V2000
   -2.2022   -2.5484    1.1449 H   0  0  0  0  0  0  0  0  0  0  0  0
   -2.5360   -1.8015    0.4202 C   0  0  0  0  0  0  0  0  0  0  0  0
   -1.8301   -1.7678   -0.4111 H   0  0  0  0  0  0  0  0  0  0  0  0
   -3.5116   -2.1032    0.0298 H   0  0  0  0  0  0  0  0  0  0  0  0
   -2.6565   -0.4404    1.0902 C   0  0  0  0  0  0  0  0  0  0  0  0
   -3.5581   -0.2685    1.8880 O   0  0  0  0  0  0  0  0  0  0  0  0
   -2.2257    0.7210    0.4968 N   0  0  0  0  0  0  0  0  0  0  0  0
   -2.8358    1.4725    0.8166 H   0  0  0  0  0  0  0  0  0  0  0  0
   -0.8299    1.1792    0.2961 C   0  0  1  0  0  0  0  0  0  0  0  0
   -0.5302    1.6324    1.2477 H   0  0  0  0  0  0  0  0  0  0  0  0
    0.2777    0.1510   -0.0323 C   0  0  0  0  0  0  0  0  0  0  0  0
   -0.0184   -0.4205   -0.9171 H   0  0  0  0  0  0  0  0  0  0  0  0
    1.1892    0.7003   -0.2953 H   0  0  0  0  0  0  0  0  0  0  0  0
    0.6287   -0.8138    1.1153 C   0  0  0  0  0  0  0  0  0  0  0  0
   -0.2274   -1.4007    1.4363 H   0  0  0  0  0  0  0  0  0  0  0  0
    0.9642   -0.2309    1.9797 H   0  0  0  0  0  0  0  0  0  0  0  0
    1.7497   -1.7639    0.6806 C   0  0  0  0  0  0  0  0  0  0  0  0
    1.4322   -2.3233   -0.2053 H   0  0  0  0  0  0  0  0  0  0  0  0
    2.6421   -1.1878    0.4140 H   0  0  0  0  0  0  0  0  0  0  0  0
    2.0954   -2.7445    1.7977 C   0  0  0  0  0  0  0  0  0  0  0  0
    2.4397   -2.1977    2.6828 H   0  0  0  0  0  0  0  0  0  0  0  0
    1.2092   -3.3242    2.0793 H   0  0  0  0  0  0  0  0  0  0  0  0
    3.1523   -3.6407    1.3205 N   0  0  0  0  0  0  0  0  0  0  0  0
    3.4342   -4.3011    2.0453 H   0  0  0  0  0  0  0  0  0  0  0  0
    2.8668   -4.1297    0.4723 H   0  0  0  0  0  0  0  0  0  0  0  0
   -0.7879    2.3287   -0.7294 C   0  0  0  0  0  0  0  0  0  0  0  0
   -0.0757    3.3018   -0.5296 O   0  0  0  0  0  0  0  0  0  0  0  0
   -1.5147    2.2407   -1.9018 N   0  0  0  0  0  0  0  0  0  0  0  0
   -2.1324    1.4398   -2.0017 H   0  0  0  0  0  0  0  0  0  0  0  0
   -1.5362    3.2890   -2.9143 C   0  0  0  0  0  0  0  0  0  0  0  0
   -0.5213    3.5061   -3.2643 H   0  0  0  0  0  0  0  0  0  0  0  0
   -2.1354    2.9728   -3.7734 H   0  0  0  0  0  0  0  0  0  0  0  0
   -1.9716    4.2067   -2.5053 H   0  0  0  0  0  0  0  0  0  0  0  0
  1  2  1  0  0  0  0
  2  3  1  0  0  0  0
  2  4  1  0  0  0  0
  2  5  1  0  0  0  0
  5  6  2  0  0  0  0
  5  7  1  0  0  0  0
  7  8  1  0  0  0  0
  7  9  1  0  0  0  0
  9 10  1  0  0  0  0
  9 11  1  0  0  0  0
  9 26  1  0  0  0  0
 11 12  1  0  0  0  0
 11 13  1  0  0  0  0
 11 14  1  0  0  0  0
 14 15  1  0  0  0  0
 14 16  1  0  0  0  0
 14 17  1  0  0  0  0
 17 18  1  0  0  0  0
 17 19  1  0  0  0  0
 17 20  1  0  0  0  0
 20 21  1  0  0  0  0
 20 22  1  0  0  0  0
 20 23  1  0  0  0  0
 23 24  1  0  0  0  0
 23 25  1  0  0  0  0
 26 27  2  0  0  0  0
 26 28  1  0  0  0  0
 28 29  1  0  0  0  0
 28 30  1  0  0  0  0
 30 31  1  0  0  0  0
 30 32  1  0  0  0  0
 30 33  1  0  0  0  0
M  END
$$$$

  -OEChem-01062216083D

 33 32  0     1  0  0  0  0  0999 V2000
   -2.1985   -2.5669    1.1612 H   0  0  0  0  0  0  0  0  0  0  0  0
   -2.5370   -1.8234    0.4356 C   0  0  0  0  0  0  0  0  0  0  0  0
   -1.8332   -1.7883   -0.3975 H   0  0  0  0  0  0  0  0  0  0  0  0
   -3.5120   -2.1302    0.0484 H   0  0  0  0  0  0  0  0  0  0  0  0
   -2.6613   -0.4619    1.1041 C   0  0  0  0  0  0  0  0  0  0  0  0
   -3.5596   -0.2918    1.9060 O   0  0  0  0  0  0  0  0  0  0  0  0
   -2.2442    0.7013    0.5053 N   0  0  0  0  0  0  0  0  0  0  0  0
   -2.8572    1.4469    0.8331 H   0  0  0  0  0  0  0  0  0  0  0  0
   -0.8526    1.1724    0.2960 C   0  0  1  0  0  0  0  0  0  0  0  0
   -0.5509    1.6317    1.2436 H   0  0  0  0  0  0  0  0  0  0  0  0
    0.2579    0.1464   -0.0357 C   0  0  0  0  0  0  0  0  0  0  0  0
   -0.0412   -0.4278   -0.9177 H   0  0  0  0  0  0  0  0  0  0  0  0
    1.1670    0.6962   -0.3054 H   0  0  0  0  0  0  0  0  0  0  0  0
    0.6205   -0.8140    1.1124 C   0  0  0  0  0  0  0  0  0  0  0  0
   -0.2302   -1.4038    1.4419 H   0  0  0  0  0  0  0  0  0  0  0  0
    0.9597   -0.2272    1.9726 H   0  0  0  0  0  0  0  0  0  0  0  0
    1.7426   -1.7605    0.6723 C   0  0  0  0  0  0  0  0  0  0  0  0
    1.4220   -2.3230   -0.2106 H   0  0  0  0  0  0  0  0  0  0  0  0
    2.6302   -1.1801    0.3990 H   0  0  0  0  0  0  0  0  0  0  0  0
    2.1011   -2.7377    1.7882 C   0  0  0  0  0  0  0  0  0  0  0  0
    2.4485   -2.1888    2.6708 H   0  0  0  0  0  0  0  0  0  0  0  0
    1.2197   -3.3214    2.0759 H   0  0  0  0  0  0  0  0  0  0  0  0
    3.1586   -3.6291    1.3037 N   0  0  0  0  0  0  0  0  0  0  0  0
    3.4472   -4.2890    2.0262 H   0  0  0  0  0  0  0  0  0  0  0  0
    2.8691   -4.1186    0.4571 H   0  0  0  0  0  0  0  0  0  0  0  0
   -0.8210    2.3207   -0.7340 C   0  0  0  0  0  0  0  0  0  0  0  0
    0.0555    3.1711   -0.6772 O   0  0  0  0  0  0  0  0  0  0  0  0
   -1.7648    2.3809   -1.7425 N   0  0  0  0  0  0  0  0  0  0  0  0
   -2.4792    1.6579   -1.7487 H   0  0  0  0  0  0  0  0  0  0  0  0
   -1.7955    3.4255   -2.7586 C   0  0  0  0  0  0  0  0  0  0  0  0
   -0.8412    3.4675   -3.2942 H   0  0  0  0  0  0  0  0  0  0  0  0
   -2.5892    3.2241   -3.4845 H   0  0  0  0  0  0  0  0  0  0  0  0
   -1.9849    4.4011   -2.2990 H   0  0  0  0  0  0  0  0  0  0  0  0
  1  2  1  0  0  0  0
  2  3  1  0  0  0  0
  2  4  1  0  0  0  0
  2  5  1  0  0  0  0
  5  6  2  0  0  0  0
  5  7  1  0  0  0  0
  7  8  1  0  0  0  0
  7  9  1  0  0  0  0
  9 10  1  0  0  0  0
  9 11  1  0  0  0  0
  9 26  1  0  0  0  0
 11 12  1  0  0  0  0
 11 13  1  0  0  0  0
 11 14  1  0  0  0  0
 14 15  1  0  0  0  0
 14 16  1  0  0  0  0
 14 17  1  0  0  0  0
 17 18  1  0  0  0  0
 17 19  1  0  0  0  0
 17 20  1  0  0  0  0
 20 21  1  0  0  0  0
 20 22  1  0  0  0  0
 20 23  1  0  0  0  0
 23 24  1  0  0  0  0
 23 25  1  0  0  0  0
 26 27  2  0  0  0  0
 26 28  1  0  0  0  0
 28 29  1  0  0  0  0
 28 30  1  0  0  0  0
 30 31  1  0  0  0  0
 30 32  1  0  0  0  0
 30 33  1  0  0  0  0
M  END
$$$$

  -OEChem-01062216083D

 33 32  0     1  0  0  0  0  0999 V2000
   -2.1895   -2.5811    1.1756 H   0  0  0  0  0  0  0  0  0  0  0  0
   -2.5390   -1.8390    0.4536 C   0  0  0  0  0  0  0  0  0  0  0  0
   -1.8467   -1.8053   -0.3890 H   0  0  0  0  0  0  0  0  0  0  0  0
   -3.5190   -2.1475    0.0805 H   0  0  0  0  0  0  0  0  0  0  0  0
   -2.6557   -0.4760    1.1208 C   0  0  0  0  0  0  0  0  0  0  0  0
   -3.5399   -0.3044    1.9381 O   0  0  0  0  0  0  0  0  0  0  0  0
   -2.2520    0.6880    0.5144 N   0  0  0  0  0  0  0  0  0  0  0  0
   -2.8601    1.4293    0.8600 H   0  0  0  0  0  0  0  0  0  0  0  0
   -0.8648    1.1679    0.2877 C   0  0  1  0  0  0  0  0  0  0  0  0
   -0.5547    1.6340    1.2290 H   0  0  0  0  0  0  0  0  0  0  0  0
    0.2421    0.1366   -0.0465 C   0  0  0  0  0  0  0  0  0  0  0  0
   -0.0676   -0.4448   -0.9200 H   0  0  0  0  0  0  0  0  0  0  0  0
    1.1511    0.6788   -0.3307 H   0  0  0  0  0  0  0  0  0  0  0  0
    0.6158   -0.8136    1.1066 C   0  0  0  0  0  0  0  0  0  0  0  0
   -0.2312   -1.3995    1.4516 H   0  0  0  0  0  0  0  0  0  0  0  0
    0.9654   -0.2188    1.9573 H   0  0  0  0  0  0  0  0  0  0  0  0
    1.7320   -1.7655    0.6632 C   0  0  0  0  0  0  0  0  0  0  0  0
    1.4023   -2.3351   -0.2116 H   0  0  0  0  0  0  0  0  0  0  0  0
    2.6179   -1.1891    0.3760 H   0  0  0  0  0  0  0  0  0  0  0  0
    2.1001   -2.7323    1.7850 C   0  0  0  0  0  0  0  0  0  0  0  0
    2.4576   -2.1752    2.6582 H   0  0  0  0  0  0  0  0  0  0  0  0
    1.2207   -3.3112    2.0876 H   0  0  0  0  0  0  0  0  0  0  0  0
    3.1511   -3.6308    1.2992 N   0  0  0  0  0  0  0  0  0  0  0  0
    3.4417   -4.2872    2.0239 H   0  0  0  0  0  0  0  0  0  0  0  0
    2.8542   -4.1249    0.4578 H   0  0  0  0  0  0  0  0  0  0  0  0
   -0.8481    2.3160   -0.7472 C   0  0  0  0  0  0  0  0  0  0  0  0
    0.1324    3.0399   -0.8477 O   0  0  0  0  0  0  0  0  0  0  0  0
   -1.9493    2.5569   -1.5486 N   0  0  0  0  0  0  0  0  0  0  0  0
   -2.7243    1.9034   -1.4735 H   0  0  0  0  0  0  0  0  0  0  0  0
   -2.0026    3.6145   -2.5501 C   0  0  0  0  0  0  0  0  0  0  0  0
   -1.1982    3.4902   -3.2826 H   0  0  0  0  0  0  0  0  0  0  0  0
   -2.9597    3.5862   -3.0795 H   0  0  0  0  0  0  0  0  0  0  0  0
   -1.8987    4.5957   -2.0754 H   0  0  0  0  0  0  0  0  0  0  0  0
  1  2  1  0  0  0  0
  2  3  1  0  0  0  0
  2  4  1  0  0  0  0
  2  5  1  0  0  0  0
  5  6  2  0  0  0  0
  5  7  1  0  0  0  0
  7  8  1  0  0  0  0
  7  9  1  0  0  0  0
  9 10  1  0  0  0  0
  9 11  1  0  0  0  0
  9 26  1  0  0  0  0
 11 12  1  0  0  0  0
 11 13  1  0  0  0  0
 11 14  1  0  0  0  0
 14 15  1  0  0  0  0
 14 16  1  0  0  0  0
 14 17  1  0  0  0  0
 17 18  1  0  0  0  0
 17 19  1  0  0  0  0
 17 20  1  0  0  0  0
 20 21  1  0  0  0  0
 20 22  1  0  0  0  0
 20 23  1  0  0  0  0
 23 24  1  0  0  0  0
 23 25  1  0  0  0  0
 26 27  2  0  0  0  0
 26 28  1  0  0  0  0
 28 29  1  0  0  0  0
 28 30  1  0  0  0  0
 30 31  1  0  0  0  0
 30 32  1  0  0  0  0
 30 33  1  0  0  0  0
M  END
$$$$

  -OEChem-01062216083D

 33 32  0     1  0  0  0  0  0999 V2000
   -3.5309   -2.1541    0.1906 H   0  0  0  0  0  0  0  0  0  0  0  0
   -2.5392   -1.8466    0.5324 C   0  0  0  0  0  0  0  0  0  0  0  0
   -2.1747   -2.5789    1.2571 H   0  0  0  0  0  0  0  0  0  0  0  0
   -1.8700   -1.8319   -0.3291 H   0  0  0  0  0  0  0  0  0  0  0  0
   -2.6288   -0.4722    1.1798 C   0  0  0  0  0  0  0  0  0  0  0  0
   -3.4752   -0.2855    2.0330 O   0  0  0  0  0  0  0  0  0  0  0  0
   -2.2523    0.6823    0.5390 N   0  0  0  0  0  0  0  0  0  0  0  0
   -2.8429    1.4253    0.9091 H   0  0  0  0  0  0  0  0  0  0  0  0
   -0.8750    1.1625    0.2553 C   0  0  1  0  0  0  0  0  0  0  0  0
   -0.5369    1.6522    1.1746 H   0  0  0  0  0  0  0  0  0  0  0  0
    0.2229    0.1184   -0.0798 C   0  0  0  0  0  0  0  0  0  0  0  0
   -0.1129   -0.4894   -0.9250 H   0  0  0  0  0  0  0  0  0  0  0  0
    1.1258    0.6460   -0.4064 H   0  0  0  0  0  0  0  0  0  0  0  0
    0.6310   -0.7943    1.0924 C   0  0  0  0  0  0  0  0  0  0  0  0
   -0.2061   -1.3678    1.4807 H   0  0  0  0  0  0  0  0  0  0  0  0
    1.0054   -0.1723    1.9125 H   0  0  0  0  0  0  0  0  0  0  0  0
    1.7338   -1.7626    0.6498 C   0  0  0  0  0  0  0  0  0  0  0  0
    1.3790   -2.3608   -0.1957 H   0  0  0  0  0  0  0  0  0  0  0  0
    2.6114   -1.1975    0.3185 H   0  0  0  0  0  0  0  0  0  0  0  0
    2.1336   -2.6915    1.7932 C   0  0  0  0  0  0  0  0  0  0  0  0
    2.5158   -2.1054    2.6364 H   0  0  0  0  0  0  0  0  0  0  0  0
    1.2623   -3.2583    2.1398 H   0  0  0  0  0  0  0  0  0  0  0  0
    3.1701   -3.6085    1.3104 N   0  0  0  0  0  0  0  0  0  0  0  0
    3.4740   -4.2454    2.0471 H   0  0  0  0  0  0  0  0  0  0  0  0
    2.8530   -4.1245    0.4899 H   0  0  0  0  0  0  0  0  0  0  0  0
   -0.8994    2.2944   -0.8025 C   0  0  0  0  0  0  0  0  0  0  0  0
    0.1306    2.8751   -1.1155 O   0  0  0  0  0  0  0  0  0  0  0  0
   -2.0961    2.7247   -1.3486 N   0  0  0  0  0  0  0  0  0  0  0  0
   -2.9182    2.1621   -1.1483 H   0  0  0  0  0  0  0  0  0  0  0  0
   -2.1901    3.7831   -2.3471 C   0  0  0  0  0  0  0  0  0  0  0  0
   -1.6107    3.5222   -3.2390 H   0  0  0  0  0  0  0  0  0  0  0  0
   -3.2329    3.9327   -2.6428 H   0  0  0  0  0  0  0  0  0  0  0  0
   -1.8077    4.7259   -1.9421 H   0  0  0  0  0  0  0  0  0  0  0  0
  1  2  1  0  0  0  0
  2  3  1  0  0  0  0
  2  4  1  0  0  0  0
  2  5  1  0  0  0  0
  5  6  2  0  0  0  0
  5  7  1  0  0  0  0
  7  8  1  0  0  0  0
  7  9  1  0  0  0  0
  9 10  1  0  0  0  0
  9 11  1  0  0  0  0
  9 26  1  0  0  0  0
 11 12  1  0  0  0  0
 11 13  1  0  0  0  0
 11 14  1  0  0  0  0
 14 15  1  0  0  0  0
 14 16  1  0  0  0  0
 14 17  1  0  0  0  0
 17 18  1  0  0  0  0
 17 19  1  0  0  0  0
 17 20  1  0  0  0  0
 20 21  1  0  0  0  0
 20 22  1  0  0  0  0
 20 23  1  0  0  0  0
 23 24  1  0  0  0  0
 23 25  1  0  0  0  0
 26 27  2  0  0  0  0
 26 28  1  0  0  0  0
 28 29  1  0  0  0  0
 28 30  1  0  0  0  0
 30 31  1  0  0  0  0
 30 32  1  0  0  0  0
 30 33  1  0  0  0  0
M  END
$$$$

  -OEChem-01062216083D

 33 32  0     1  0  0  0  0  0999 V2000
   -3.5328   -2.1718    0.1956 H   0  0  0  0  0  0  0  0  0  0  0  0
   -2.5364   -1.8615    0.5206 C   0  0  0  0  0  0  0  0  0  0  0  0
   -2.1534   -2.5986    1.2306 H   0  0  0  0  0  0  0  0  0  0  0  0
   -1.8846   -1.8347   -0.3539 H   0  0  0  0  0  0  0  0  0  0  0  0
   -2.6206   -0.4933    1.1821 C   0  0  0  0  0  0  0  0  0  0  0  0
   -3.4461   -0.3169    2.0578 O   0  0  0  0  0  0  0  0  0  0  0  0
   -2.2614    0.6690    0.5460 N   0  0  0  0  0  0  0  0  0  0  0  0
   -2.8454    1.4014    0.9443 H   0  0  0  0  0  0  0  0  0  0  0  0
   -0.8898    1.1577    0.2490 C   0  0  1  0  0  0  0  0  0  0  0  0
   -0.5452    1.6470    1.1659 H   0  0  0  0  0  0  0  0  0  0  0  0
    0.2084    0.1119   -0.0889 C   0  0  0  0  0  0  0  0  0  0  0  0
   -0.1314   -0.4996   -0.9298 H   0  0  0  0  0  0  0  0  0  0  0  0
    1.1110    0.6356   -0.4218 H   0  0  0  0  0  0  0  0  0  0  0  0
    0.6265   -0.7924    1.0871 C   0  0  0  0  0  0  0  0  0  0  0  0
   -0.2064   -1.3651    1.4855 H   0  0  0  0  0  0  0  0  0  0  0  0
    1.0054   -0.1643    1.9004 H   0  0  0  0  0  0  0  0  0  0  0  0
    1.7270   -1.7629    0.6448 C   0  0  0  0  0  0  0  0  0  0  0  0
    1.3668   -2.3682   -0.1932 H   0  0  0  0  0  0  0  0  0  0  0  0
    2.6023   -1.2002    0.3032 H   0  0  0  0  0  0  0  0  0  0  0  0
    2.1334   -2.6811    1.7942 C   0  0  0  0  0  0  0  0  0  0  0  0
    2.5196   -2.0869    2.6299 H   0  0  0  0  0  0  0  0  0  0  0  0
    1.2643   -3.2453    2.1503 H   0  0  0  0  0  0  0  0  0  0  0  0
    3.1677   -3.6025    1.3153 N   0  0  0  0  0  0  0  0  0  0  0  0
    3.4742   -4.2335    2.0562 H   0  0  0  0  0  0  0  0  0  0  0  0
    2.8473   -4.1253    0.5003 H   0  0  0  0  0  0  0  0  0  0  0  0
   -0.9354    2.2999   -0.8013 C   0  0  0  0  0  0  0  0  0  0  0  0
    0.0899    2.7259   -1.3153 O   0  0  0  0  0  0  0  0  0  0  0  0
   -2.1285    2.9369   -1.0983 N   0  0  0  0  0  0  0  0  0  0  0  0
   -2.9790    2.4893   -0.7715 H   0  0  0  0  0  0  0  0  0  0  0  0
   -2.2374    4.0184   -2.0708 C   0  0  0  0  0  0  0  0  0  0  0  0
   -1.9224    3.6765   -3.0623 H   0  0  0  0  0  0  0  0  0  0  0  0
   -3.2732    4.3654   -2.1360 H   0  0  0  0  0  0  0  0  0  0  0  0
   -1.6092    4.8651   -1.7741 H   0  0  0  0  0  0  0  0  0  0  0  0
  1  2  1  0  0  0  0
  2  3  1  0  0  0  0
  2  4  1  0  0  0  0
  2  5  1  0  0  0  0
  5  6  2  0  0  0  0
  5  7  1  0  0  0  0
  7  8  1  0  0  0  0
  7  9  1  0  0  0  0
  9 10  1  0  0  0  0
  9 11  1  0  0  0  0
  9 26  1  0  0  0  0
 11 12  1  0  0  0  0
 11 13  1  0  0  0  0
 11 14  1  0  0  0  0
 14 15  1  0  0  0  0
 14 16  1  0  0  0  0
 14 17  1  0  0  0  0
 17 18  1  0  0  0  0
 17 19  1  0  0  0  0
 17 20  1  0  0  0  0
 20 21  1  0  0  0  0
 20 22  1  0  0  0  0
 20 23  1  0  0  0  0
 23 24  1  0  0  0  0
 23 25  1  0  0  0  0
 26 27  2  0  0  0  0
 26 28  1  0  0  0  0
 28 29  1  0  0  0  0
 28 30  1  0  0  0  0
 30 31  1  0  0  0  0
 30 32  1  0  0  0  0
 30 33  1  0  0  0  0
M  END
$$$$

  -OEChem-01062216083D

 33 32  0     1  0  0  0  0  0999 V2000
   -3.5466   -2.1676    0.1865 H   0  0  0  0  0  0  0  0  0  0  0  0
   -2.5482   -1.8608    0.5089 C   0  0  0  0  0  0  0  0  0  0  0  0
   -2.1612   -2.6043    1.2098 H   0  0  0  0  0  0  0  0  0  0  0  0
   -1.9018   -1.8260   -0.3692 H   0  0  0  0  0  0  0  0  0  0  0  0
   -2.6285   -0.4989    1.1832 C   0  0  0  0  0  0  0  0  0  0  0  0
   -3.4451   -0.3290    2.0689 O   0  0  0  0  0  0  0  0  0  0  0  0
   -2.2727    0.6684    0.5556 N   0  0  0  0  0  0  0  0  0  0  0  0
   -2.8600    1.3947    0.9572 H   0  0  0  0  0  0  0  0  0  0  0  0
   -0.9020    1.1550    0.2533 C   0  0  1  0  0  0  0  0  0  0  0  0
   -0.5529    1.6390    1.1710 H   0  0  0  0  0  0  0  0  0  0  0  0
    0.1965    0.1081   -0.0848 C   0  0  0  0  0  0  0  0  0  0  0  0
   -0.1423   -0.5042   -0.9256 H   0  0  0  0  0  0  0  0  0  0  0  0
    1.0987    0.6327   -0.4166 H   0  0  0  0  0  0  0  0  0  0  0  0
    0.6190   -0.7935    1.0915 C   0  0  0  0  0  0  0  0  0  0  0  0
   -0.2130   -1.3673    1.4911 H   0  0  0  0  0  0  0  0  0  0  0  0
    0.9995   -0.1643    1.9030 H   0  0  0  0  0  0  0  0  0  0  0  0
    1.7190   -1.7631    0.6456 C   0  0  0  0  0  0  0  0  0  0  0  0
    1.3554   -2.3698   -0.1901 H   0  0  0  0  0  0  0  0  0  0  0  0
    2.5917   -1.1993    0.2989 H   0  0  0  0  0  0  0  0  0  0  0  0
    2.1332   -2.6810    1.7924 C   0  0  0  0  0  0  0  0  0  0  0  0
    2.5231   -2.0867    2.6265 H   0  0  0  0  0  0  0  0  0  0  0  0
    1.2671   -3.2473    2.1527 H   0  0  0  0  0  0  0  0  0  0  0  0
    3.1666   -3.5995    1.3061 N   0  0  0  0  0  0  0  0  0  0  0  0
    3.4728   -4.2365    2.0417 H   0  0  0  0  0  0  0  0  0  0  0  0
    2.8458   -4.1154    0.4868 H   0  0  0  0  0  0  0  0  0  0  0  0
   -0.9584    2.3076   -0.7872 C   0  0  0  0  0  0  0  0  0  0  0  0
   -0.0165    2.5449   -1.5314 O   0  0  0  0  0  0  0  0  0  0  0  0
   -2.0580    3.1481   -0.8471 N   0  0  0  0  0  0  0  0  0  0  0  0
   -2.8742    2.8876   -0.3045 H   0  0  0  0  0  0  0  0  0  0  0  0
   -2.1801    4.2377   -1.8090 C   0  0  0  0  0  0  0  0  0  0  0  0
   -2.1348    3.8523   -2.8331 H   0  0  0  0  0  0  0  0  0  0  0  0
   -3.1351    4.7549   -1.6752 H   0  0  0  0  0  0  0  0  0  0  0  0
   -1.3724    4.9642   -1.6699 H   0  0  0  0  0  0  0  0  0  0  0  0
  1  2  1  0  0  0  0
  2  3  1  0  0  0  0
  2  4  1  0  0  0  0
  2  5  1  0  0  0  0
  5  6  2  0  0  0  0
  5  7  1  0  0  0  0
  7  8  1  0  0  0  0
  7  9  1  0  0  0  0
  9 10  1  0  0  0  0
  9 11  1  0  0  0  0
  9 26  1  0  0  0  0
 11 12  1  0  0  0  0
 11 13  1  0  0  0  0
 11 14  1  0  0  0  0
 14 15  1  0  0  0  0
 14 16  1  0  0  0  0
 14 17  1  0  0  0  0
 17 18  1  0  0  0  0
 17 19  1  0  0  0  0
 17 20  1  0  0  0  0
 20 21  1  0  0  0  0
 20 22  1  0  0  0  0
 20 23  1  0  0  0  0
 23 24  1  0  0  0  0
 23 25  1  0  0  0  0
 26 27  2  0  0  0  0
 26 28  1  0  0  0  0
 28 29  1  0  0  0  0
 28 30  1  0  0  0  0
 30 31  1  0  0  0  0
 30 32  1  0  0  0  0
 30 33  1  0  0  0  0
M  END
$$$$

  -OEChem-01062216083D

 33 32  0     1  0  0  0  0  0999 V2000
   -3.5364   -2.1940    0.1839 H   0  0  0  0  0  0  0  0  0  0  0  0
   -2.5462   -1.8712    0.5155 C   0  0  0  0  0  0  0  0  0  0  0  0
   -2.1572   -2.6044    1.2257 H   0  0  0  0  0  0  0  0  0  0  0  0
   -1.8907   -1.8336   -0.3557 H   0  0  0  0  0  0  0  0  0  0  0  0
   -2.6548   -0.5060    1.1792 C   0  0  0  0  0  0  0  0  0  0  0  0
   -3.4993   -0.3387    2.0391 O   0  0  0  0  0  0  0  0  0  0  0  0
   -2.2860    0.6616    0.5593 N   0  0  0  0  0  0  0  0  0  0  0  0
   -2.9089    1.3903    0.8961 H   0  0  0  0  0  0  0  0  0  0  0  0
   -0.9164    1.1501    0.2590 C   0  0  1  0  0  0  0  0  0  0  0  0
   -0.5664    1.6291    1.1787 H   0  0  0  0  0  0  0  0  0  0  0  0
    0.1879    0.1137   -0.0850 C   0  0  0  0  0  0  0  0  0  0  0  0
   -0.1462   -0.4967   -0.9295 H   0  0  0  0  0  0  0  0  0  0  0  0
    1.0840    0.6510   -0.4147 H   0  0  0  0  0  0  0  0  0  0  0  0
    0.6139   -0.7906    1.0876 C   0  0  0  0  0  0  0  0  0  0  0  0
   -0.2162   -1.3695    1.4834 H   0  0  0  0  0  0  0  0  0  0  0  0
    0.9898   -0.1630    1.9025 H   0  0  0  0  0  0  0  0  0  0  0  0
    1.7202   -1.7521    0.6403 C   0  0  0  0  0  0  0  0  0  0  0  0
    1.3622   -2.3572   -0.1990 H   0  0  0  0  0  0  0  0  0  0  0  0
    2.5903   -1.1817    0.2984 H   0  0  0  0  0  0  0  0  0  0  0  0
    2.1366   -2.6721    1.7848 C   0  0  0  0  0  0  0  0  0  0  0  0
    2.5209   -2.0794    2.6227 H   0  0  0  0  0  0  0  0  0  0  0  0
    1.2725   -3.2442    2.1405 H   0  0  0  0  0  0  0  0  0  0  0  0
    3.1762   -3.5832    1.2974 N   0  0  0  0  0  0  0  0  0  0  0  0
    3.4795   -4.2257    2.0295 H   0  0  0  0  0  0  0  0  0  0  0  0
    2.8618   -4.0933    0.4719 H   0  0  0  0  0  0  0  0  0  0  0  0
   -0.9863    2.3070   -0.7729 C   0  0  0  0  0  0  0  0  0  0  0  0
   -0.2236    2.3654   -1.7284 O   0  0  0  0  0  0  0  0  0  0  0  0
   -1.9230    3.3166   -0.6223 N   0  0  0  0  0  0  0  0  0  0  0  0
   -2.5418    3.2747    0.1802 H   0  0  0  0  0  0  0  0  0  0  0  0
   -2.0519    4.4356   -1.5491 C   0  0  0  0  0  0  0  0  0  0  0  0
   -2.2504    4.0728   -2.5632 H   0  0  0  0  0  0  0  0  0  0  0  0
   -2.8802    5.0837   -1.2472 H   0  0  0  0  0  0  0  0  0  0  0  0
   -1.1329    5.0313   -1.5607 H   0  0  0  0  0  0  0  0  0  0  0  0
  1  2  1  0  0  0  0
  2  3  1  0  0  0  0
  2  4  1  0  0  0  0
  2  5  1  0  0  0  0
  5  6  2  0  0  0  0
  5  7  1  0  0  0  0
  7  8  1  0  0  0  0
  7  9  1  0  0  0  0
  9 10  1  0  0  0  0
  9 11  1  0  0  0  0
  9 26  1  0  0  0  0
 11 12  1  0  0  0  0
 11 13  1  0  0  0  0
 11 14  1  0  0  0  0
 14 15  1  0  0  0  0
 14 16  1  0  0  0  0
 14 17  1  0  0  0  0
 17 18  1  0  0  0  0
 17 19  1  0  0  0  0
 17 20  1  0  0  0  0
 20 21  1  0  0  0  0
 20 22  1  0  0  0  0
 20 23  1  0  0  0  0
 23 24  1  0  0  0  0
 23 25  1  0  0  0  0
 26 27  2  0  0  0  0
 26 28  1  0  0  0  0
 28 29  1  0  0  0  0
 28 30  1  0  0  0  0
 30 31  1  0  0  0  0
 30 32  1  0  0  0  0
 30 33  1  0  0  0  0
M  END
$$$$

  -OEChem-01062216083D

 33 32  0     1  0  0  0  0  0999 V2000
   -3.5422   -2.1964    0.1990 H   0  0  0  0  0  0  0  0  0  0  0  0
   -2.5543   -1.8644    0.5282 C   0  0  0  0  0  0  0  0  0  0  0  0
   -2.1569   -2.5942    1.2373 H   0  0  0  0  0  0  0  0  0  0  0  0
   -1.9014   -1.8202   -0.3450 H   0  0  0  0  0  0  0  0  0  0  0  0
   -2.6739   -0.4998    1.1915 C   0  0  0  0  0  0  0  0  0  0  0  0
   -3.5296   -0.3353    2.0411 O   0  0  0  0  0  0  0  0  0  0  0  0
   -2.2966    0.6674    0.5755 N   0  0  0  0  0  0  0  0  0  0  0  0
   -2.9346    1.4001    0.8756 H   0  0  0  0  0  0  0  0  0  0  0  0
   -0.9271    1.1558    0.2833 C   0  0  1  0  0  0  0  0  0  0  0  0
   -0.5771    1.6286    1.2063 H   0  0  0  0  0  0  0  0  0  0  0  0
    0.1805    0.1297   -0.0718 C   0  0  0  0  0  0  0  0  0  0  0  0
   -0.1519   -0.4744   -0.9217 H   0  0  0  0  0  0  0  0  0  0  0  0
    1.0710    0.6781   -0.3990 H   0  0  0  0  0  0  0  0  0  0  0  0
    0.6068   -0.7867    1.0907 C   0  0  0  0  0  0  0  0  0  0  0  0
   -0.2226   -1.3724    1.4783 H   0  0  0  0  0  0  0  0  0  0  0  0
    0.9788   -0.1675    1.9138 H   0  0  0  0  0  0  0  0  0  0  0  0
    1.7176   -1.7380    0.6337 C   0  0  0  0  0  0  0  0  0  0  0  0
    1.3640   -2.3339   -0.2140 H   0  0  0  0  0  0  0  0  0  0  0  0
    2.5859   -1.1599    0.3008 H   0  0  0  0  0  0  0  0  0  0  0  0
    2.1350   -2.6702    1.7677 C   0  0  0  0  0  0  0  0  0  0  0  0
    2.5143   -2.0867    2.6140 H   0  0  0  0  0  0  0  0  0  0  0  0
    1.2727   -3.2506    2.1137 H   0  0  0  0  0  0  0  0  0  0  0  0
    3.1790   -3.5711    1.2721 N   0  0  0  0  0  0  0  0  0  0  0  0
    3.4810   -4.2226    1.9966 H   0  0  0  0  0  0  0  0  0  0  0  0
    2.8687   -4.0709    0.4388 H   0  0  0  0  0  0  0  0  0  0  0  0
   -1.0031    2.3106   -0.7449 C   0  0  0  0  0  0  0  0  0  0  0  0
   -0.4459    2.2436   -1.8326 O   0  0  0  0  0  0  0  0  0  0  0  0
   -1.7155    3.4564   -0.4337 N   0  0  0  0  0  0  0  0  0  0  0  0
   -2.1451    3.5138    0.4842 H   0  0  0  0  0  0  0  0  0  0  0  0
   -1.8320    4.5955   -1.3368 C   0  0  0  0  0  0  0  0  0  0  0  0
   -2.2701    4.2854   -2.2914 H   0  0  0  0  0  0  0  0  0  0  0  0
   -2.4751    5.3636   -0.8966 H   0  0  0  0  0  0  0  0  0  0  0  0
   -0.8472    5.0347   -1.5279 H   0  0  0  0  0  0  0  0  0  0  0  0
  1  2  1  0  0  0  0
  2  3  1  0  0  0  0
  2  4  1  0  0  0  0
  2  5  1  0  0  0  0
  5  6  2  0  0  0  0
  5  7  1  0  0  0  0
  7  8  1  0  0  0  0
  7  9  1  0  0  0  0
  9 10  1  0  0  0  0
  9 11  1  0  0  0  0
  9 26  1  0  0  0  0
 11 12  1  0  0  0  0
 11 13  1  0  0  0  0
 11 14  1  0  0  0  0
 14 15  1  0  0  0  0
 14 16  1  0  0  0  0
 14 17  1  0  0  0  0
 17 18  1  0  0  0  0
 17 19  1  0  0  0  0
 17 20  1  0  0  0  0
 20 21  1  0  0  0  0
 20 22  1  0  0  0  0
 20 23  1  0  0  0  0
 23 24  1  0  0  0  0
 23 25  1  0  0  0  0
 26 27  2  0  0  0  0
 26 28  1  0  0  0  0
 28 29  1  0  0  0  0
 28 30  1  0  0  0  0
 30 31  1  0  0  0  0
 30 32  1  0  0  0  0
 30 33  1  0  0  0  0
M  END
$$$$

  -OEChem-01062216083D

 33 32  0     1  0  0  0  0  0999 V2000
   -3.5483   -2.1748    0.1431 H   0  0  0  0  0  0  0  0  0  0  0  0
   -2.5625   -1.8601    0.4951 C   0  0  0  0  0  0  0  0  0  0  0  0
   -2.1807   -2.6111    1.1905 H   0  0  0  0  0  0  0  0  0  0  0  0
   -1.8961   -1.7978   -0.3669 H   0  0  0  0  0  0  0  0  0  0  0  0
   -2.6794   -0.5119    1.1909 C   0  0  0  0  0  0  0  0  0  0  0  0
   -3.5237   -0.3697    2.0559 O   0  0  0  0  0  0  0  0  0  0  0  0
   -2.3104    0.6660    0.5916 N   0  0  0  0  0  0  0  0  0  0  0  0
   -2.9574    1.3908    0.8934 H   0  0  0  0  0  0  0  0  0  0  0  0
   -0.9405    1.1697    0.3363 C   0  0  1  0  0  0  0  0  0  0  0  0
   -0.6090    1.6273    1.2736 H   0  0  0  0  0  0  0  0  0  0  0  0
    0.1802    0.1623   -0.0277 C   0  0  0  0  0  0  0  0  0  0  0  0
   -0.1373   -0.4216   -0.8975 H   0  0  0  0  0  0  0  0  0  0  0  0
    1.0676    0.7290   -0.3311 H   0  0  0  0  0  0  0  0  0  0  0  0
    0.5996   -0.7866    1.1111 C   0  0  0  0  0  0  0  0  0  0  0  0
   -0.2292   -1.3935    1.4662 H   0  0  0  0  0  0  0  0  0  0  0  0
    0.9537   -0.1916    1.9596 H   0  0  0  0  0  0  0  0  0  0  0  0
    1.7255   -1.7121    0.6368 C   0  0  0  0  0  0  0  0  0  0  0  0
    1.3863   -2.2831   -0.2335 H   0  0  0  0  0  0  0  0  0  0  0  0
    2.5919   -1.1156    0.3321 H   0  0  0  0  0  0  0  0  0  0  0  0
    2.1404   -2.6783    1.7430 C   0  0  0  0  0  0  0  0  0  0  0  0
    2.5050   -2.1203    2.6128 H   0  0  0  0  0  0  0  0  0  0  0  0
    1.2800   -3.2787    2.0591 H   0  0  0  0  0  0  0  0  0  0  0  0
    3.1992   -3.5507    1.2275 N   0  0  0  0  0  0  0  0  0  0  0  0
    3.5085   -4.2172    1.9352 H   0  0  0  0  0  0  0  0  0  0  0  0
    2.8995   -4.0320    0.3794 H   0  0  0  0  0  0  0  0  0  0  0  0
   -1.0066    2.3300   -0.6839 C   0  0  0  0  0  0  0  0  0  0  0  0
   -0.6556    2.1784   -1.8466 O   0  0  0  0  0  0  0  0  0  0  0  0
   -1.4624    3.5730   -0.2800 N   0  0  0  0  0  0  0  0  0  0  0  0
   -1.7492    3.6826    0.6879 H   0  0  0  0  0  0  0  0  0  0  0  0
   -1.5686    4.7161   -1.1794 C   0  0  0  0  0  0  0  0  0  0  0  0
   -2.2496    4.4906   -2.0070 H   0  0  0  0  0  0  0  0  0  0  0  0
   -1.9553    5.5868   -0.6412 H   0  0  0  0  0  0  0  0  0  0  0  0
   -0.5868    4.9728   -1.5907 H   0  0  0  0  0  0  0  0  0  0  0  0
  1  2  1  0  0  0  0
  2  3  1  0  0  0  0
  2  4  1  0  0  0  0
  2  5  1  0  0  0  0
  5  6  2  0  0  0  0
  5  7  1  0  0  0  0
  7  8  1  0  0  0  0
  7  9  1  0  0  0  0
  9 10  1  0  0  0  0
  9 11  1  0  0  0  0
  9 26  1  0  0  0  0
 11 12  1  0  0  0  0
 11 13  1  0  0  0  0
 11 14  1  0  0  0  0
 14 15  1  0  0  0  0
 14 16  1  0  0  0  0
 14 17  1  0  0  0  0
 17 18  1  0  0  0  0
 17 19  1  0  0  0  0
 17 20  1  0  0  0  0
 20 21  1  0  0  0  0
 20 22  1  0  0  0  0
 20 23  1  0  0  0  0
 23 24  1  0  0  0  0
 23 25  1  0  0  0  0
 26 27  2  0  0  0  0
 26 28  1  0  0  0  0
 28 29  1  0  0  0  0
 28 30  1  0  0  0  0
 30 31  1  0  0  0  0
 30 32  1  0  0  0  0
 30 33  1  0  0  0  0
M  END
$$$$

  -OEChem-01062216083D

 33 32  0     1  0  0  0  0  0999 V2000
   -3.5492   -2.1625    0.1291 H   0  0  0  0  0  0  0  0  0  0  0  0
   -2.5693   -1.8523    0.5009 C   0  0  0  0  0  0  0  0  0  0  0  0
   -2.2041   -2.6051    1.2035 H   0  0  0  0  0  0  0  0  0  0  0  0
   -1.8861   -1.7921   -0.3479 H   0  0  0  0  0  0  0  0  0  0  0  0
   -2.6950   -0.5047    1.1966 C   0  0  0  0  0  0  0  0  0  0  0  0
   -3.5485   -0.3660    2.0533 O   0  0  0  0  0  0  0  0  0  0  0  0
   -2.3185    0.6749    0.6050 N   0  0  0  0  0  0  0  0  0  0  0  0
   -2.9688    1.4007    0.8976 H   0  0  0  0  0  0  0  0  0  0  0  0
   -0.9476    1.1792    0.3612 C   0  0  1  0  0  0  0  0  0  0  0  0
   -0.6218    1.6251    1.3059 H   0  0  0  0  0  0  0  0  0  0  0  0
    0.1748    0.1792   -0.0103 C   0  0  0  0  0  0  0  0  0  0  0  0
   -0.1399   -0.3961   -0.8869 H   0  0  0  0  0  0  0  0  0  0  0  0
    1.0616    0.7510   -0.3058 H   0  0  0  0  0  0  0  0  0  0  0  0
    0.5894   -0.7819    1.1197 C   0  0  0  0  0  0  0  0  0  0  0  0
   -0.2406   -1.3929    1.4643 H   0  0  0  0  0  0  0  0  0  0  0  0
    0.9392   -0.1960    1.9762 H   0  0  0  0  0  0  0  0  0  0  0  0
    1.7183   -1.7008    0.6407 C   0  0  0  0  0  0  0  0  0  0  0  0
    1.3838   -2.2625   -0.2377 H   0  0  0  0  0  0  0  0  0  0  0  0
    2.5855   -1.1001    0.3474 H   0  0  0  0  0  0  0  0  0  0  0  0
    2.1294   -2.6792    1.7375 C   0  0  0  0  0  0  0  0  0  0  0  0
    2.4909   -2.1307    2.6147 H   0  0  0  0  0  0  0  0  0  0  0  0
    1.2687   -3.2840    2.0448 H   0  0  0  0  0  0  0  0  0  0  0  0
    3.1914   -3.5434    1.2146 N   0  0  0  0  0  0  0  0  0  0  0  0
    3.4999   -4.2176    1.9152 H   0  0  0  0  0  0  0  0  0  0  0  0
    2.8946   -4.0155    0.3604 H   0  0  0  0  0  0  0  0  0  0  0  0
   -0.9979    2.3434   -0.6531 C   0  0  0  0  0  0  0  0  0  0  0  0
   -0.8908    2.1382   -1.8547 O   0  0  0  0  0  0  0  0  0  0  0  0
   -1.1474    3.6434   -0.2032 N   0  0  0  0  0  0  0  0  0  0  0  0
   -1.2508    3.7914    0.7962 H   0  0  0  0  0  0  0  0  0  0  0  0
   -1.2216    4.7938   -1.0961 C   0  0  0  0  0  0  0  0  0  0  0  0
   -2.0986    4.7172   -1.7473 H   0  0  0  0  0  0  0  0  0  0  0  0
   -1.3009    5.7184   -0.5165 H   0  0  0  0  0  0  0  0  0  0  0  0
   -0.3237    4.8541   -1.7200 H   0  0  0  0  0  0  0  0  0  0  0  0
  1  2  1  0  0  0  0
  2  3  1  0  0  0  0
  2  4  1  0  0  0  0
  2  5  1  0  0  0  0
  5  6  2  0  0  0  0
  5  7  1  0  0  0  0
  7  8  1  0  0  0  0
  7  9  1  0  0  0  0
  9 10  1  0  0  0  0
  9 11  1  0  0  0  0
  9 26  1  0  0  0  0
 11 12  1  0  0  0  0
 11 13  1  0  0  0  0
 11 14  1  0  0  0  0
 14 15  1  0  0  0  0
 14 16  1  0  0  0  0
 14 17  1  0  0  0  0
 17 18  1  0  0  0  0
 17 19  1  0  0  0  0
 17 20  1  0  0  0  0
 20 21  1  0  0  0  0
 20 22  1  0  0  0  0
 20 23  1  0  0  0  0
 23 24  1  0  0  0  0
 23 25  1  0  0  0  0
 26 27  2  0  0  0  0
 26 28  1  0  0  0  0
 28 29  1  0  0  0  0
 28 30  1  0  0  0  0
 30 31  1  0  0  0  0
 30 32  1  0  0  0  0
 30 33  1  0  0  0  0
M  END
$$$$

  -OEChem-01062216083D

 33 32  0     1  0  0  0  0  0999 V2000
   -3.5583   -2.1400    0.1019 H   0  0  0  0  0  0  0  0  0  0  0  0
   -2.5781   -1.8454    0.4851 C   0  0  0  0  0  0  0  0  0  0  0  0
   -2.2244   -2.6126    1.1779 H   0  0  0  0  0  0  0  0  0  0  0  0
   -1.8883   -1.7774   -0.3579 H   0  0  0  0  0  0  0  0  0  0  0  0
   -2.6966   -0.5082    1.2009 C   0  0  0  0  0  0  0  0  0  0  0  0
   -3.5345   -0.3842    2.0751 O   0  0  0  0  0  0  0  0  0  0  0  0
   -2.3274    0.6771    0.6167 N   0  0  0  0  0  0  0  0  0  0  0  0
   -2.9834    1.3980    0.9089 H   0  0  0  0  0  0  0  0  0  0  0  0
   -0.9569    1.1900    0.3898 C   0  0  1  0  0  0  0  0  0  0  0  0
   -0.6435    1.6259    1.3433 H   0  0  0  0  0  0  0  0  0  0  0  0
    0.1712    0.2001    0.0113 C   0  0  0  0  0  0  0  0  0  0  0  0
   -0.1375   -0.3641   -0.8748 H   0  0  0  0  0  0  0  0  0  0  0  0
    1.0577    0.7784   -0.2720 H   0  0  0  0  0  0  0  0  0  0  0  0
    0.5818   -0.7764    1.1298 C   0  0  0  0  0  0  0  0  0  0  0  0
   -0.2482   -1.3964    1.4586 H   0  0  0  0  0  0  0  0  0  0  0  0
    0.9226   -0.2025    1.9979 H   0  0  0  0  0  0  0  0  0  0  0  0
    1.7174   -1.6841    0.6454 C   0  0  0  0  0  0  0  0  0  0  0  0
    1.3912   -2.2343   -0.2434 H   0  0  0  0  0  0  0  0  0  0  0  0
    2.5845   -1.0761    0.3664 H   0  0  0  0  0  0  0  0  0  0  0  0
    2.1240   -2.6769    1.7307 C   0  0  0  0  0  0  0  0  0  0  0  0
    2.4758   -2.1403    2.6188 H   0  0  0  0  0  0  0  0  0  0  0  0
    1.2635   -3.2895    2.0218 H   0  0  0  0  0  0  0  0  0  0  0  0
    3.1930   -3.5297    1.2031 N   0  0  0  0  0  0  0  0  0  0  0  0
    3.5050   -4.2071    1.8993 H   0  0  0  0  0  0  0  0  0  0  0  0
    2.9004   -3.9977    0.3452 H   0  0  0  0  0  0  0  0  0  0  0  0
   -0.9915    2.3583   -0.6197 C   0  0  0  0  0  0  0  0  0  0  0  0
   -1.1334    2.1462   -1.8162 O   0  0  0  0  0  0  0  0  0  0  0  0
   -0.8355    3.6613   -0.1805 N   0  0  0  0  0  0  0  0  0  0  0  0
   -0.7329    3.8173    0.8178 H   0  0  0  0  0  0  0  0  0  0  0  0
   -0.8587    4.8141   -1.0736 C   0  0  0  0  0  0  0  0  0  0  0  0
   -1.8214    4.8782   -1.5915 H   0  0  0  0  0  0  0  0  0  0  0  0
   -0.7104    5.7368   -0.5045 H   0  0  0  0  0  0  0  0  0  0  0  0
   -0.0614    4.7375   -1.8203 H   0  0  0  0  0  0  0  0  0  0  0  0
  1  2  1  0  0  0  0
  2  3  1  0  0  0  0
  2  4  1  0  0  0  0
  2  5  1  0  0  0  0
  5  6  2  0  0  0  0
  5  7  1  0  0  0  0
  7  8  1  0  0  0  0
  7  9  1  0  0  0  0
  9 10  1  0  0  0  0
  9 11  1  0  0  0  0
  9 26  1  0  0  0  0
 11 12  1  0  0  0  0
 11 13  1  0  0  0  0
 11 14  1  0  0  0  0
 14 15  1  0  0  0  0
 14 16  1  0  0  0  0
 14 17  1  0  0  0  0
 17 18  1  0  0  0  0
 17 19  1  0  0  0  0
 17 20  1  0  0  0  0
 20 21  1  0  0  0  0
 20 22  1  0  0  0  0
 20 23  1  0  0  0  0
 23 24  1  0  0  0  0
 23 25  1  0  0  0  0
 26 27  2  0  0  0  0
 26 28  1  0  0  0  0
 28 29  1  0  0  0  0
 28 30  1  0  0  0  0
 30 31  1  0  0  0  0
 30 32  1  0  0  0  0
 30 33  1  0  0  0  0
M  END
$$$$

  -OEChem-01062216083D

 33 32  0     1  0  0  0  0  0999 V2000
   -3.5565   -2.1262    0.0878 H   0  0  0  0  0  0  0  0  0  0  0  0
   -2.5798   -1.8351    0.4828 C   0  0  0  0  0  0  0  0  0  0  0  0
   -2.2354   -2.6067    1.1755 H   0  0  0  0  0  0  0  0  0  0  0  0
   -1.8811   -1.7647   -0.3526 H   0  0  0  0  0  0  0  0  0  0  0  0
   -2.7014   -0.5007    1.2041 C   0  0  0  0  0  0  0  0  0  0  0  0
   -3.5437   -0.3812    2.0748 O   0  0  0  0  0  0  0  0  0  0  0  0
   -2.3251    0.6861    0.6276 N   0  0  0  0  0  0  0  0  0  0  0  0
   -2.9867    1.4074    0.9061 H   0  0  0  0  0  0  0  0  0  0  0  0
   -0.9535    1.2028    0.4147 C   0  0  1  0  0  0  0  0  0  0  0  0
   -0.6502    1.6318    1.3746 H   0  0  0  0  0  0  0  0  0  0  0  0
    0.1760    0.2190    0.0292 C   0  0  0  0  0  0  0  0  0  0  0  0
   -0.1294   -0.3326   -0.8659 H   0  0  0  0  0  0  0  0  0  0  0  0
    1.0639    0.8006   -0.2422 H   0  0  0  0  0  0  0  0  0  0  0  0
    0.5815   -0.7724    1.1359 C   0  0  0  0  0  0  0  0  0  0  0  0
   -0.2500   -1.3971    1.4521 H   0  0  0  0  0  0  0  0  0  0  0  0
    0.9181   -0.2100    2.0131 H   0  0  0  0  0  0  0  0  0  0  0  0
    1.7197   -1.6733    0.6452 C   0  0  0  0  0  0  0  0  0  0  0  0
    1.3981   -2.2111   -0.2525 H   0  0  0  0  0  0  0  0  0  0  0  0
    2.5885   -1.0622    0.3790 H   0  0  0  0  0  0  0  0  0  0  0  0
    2.1200   -2.6802    1.7199 C   0  0  0  0  0  0  0  0  0  0  0  0
    2.4665   -2.1550    2.6172 H   0  0  0  0  0  0  0  0  0  0  0  0
    1.2576   -3.2964    1.9975 H   0  0  0  0  0  0  0  0  0  0  0  0
    3.1919   -3.5270    1.1890 N   0  0  0  0  0  0  0  0  0  0  0  0
    3.4897   -4.2212    1.8749 H   0  0  0  0  0  0  0  0  0  0  0  0
    2.9092   -3.9751    0.3171 H   0  0  0  0  0  0  0  0  0  0  0  0
   -0.9721    2.3749   -0.5902 C   0  0  0  0  0  0  0  0  0  0  0  0
   -1.3729    2.2077   -1.7337 O   0  0  0  0  0  0  0  0  0  0  0  0
   -0.5180    3.6265   -0.2134 N   0  0  0  0  0  0  0  0  0  0  0  0
   -0.1976    3.7491    0.7424 H   0  0  0  0  0  0  0  0  0  0  0  0
   -0.5150    4.7772   -1.1095 C   0  0  0  0  0  0  0  0  0  0  0  0
   -1.5349    5.0168   -1.4287 H   0  0  0  0  0  0  0  0  0  0  0  0
   -0.0972    5.6518   -0.6013 H   0  0  0  0  0  0  0  0  0  0  0  0
    0.0925    4.5710   -1.9972 H   0  0  0  0  0  0  0  0  0  0  0  0
  1  2  1  0  0  0  0
  2  3  1  0  0  0  0
  2  4  1  0  0  0  0
  2  5  1  0  0  0  0
  5  6  2  0  0  0  0
  5  7  1  0  0  0  0
  7  8  1  0  0  0  0
  7  9  1  0  0  0  0
  9 10  1  0  0  0  0
  9 11  1  0  0  0  0
  9 26  1  0  0  0  0
 11 12  1  0  0  0  0
 11 13  1  0  0  0  0
 11 14  1  0  0  0  0
 14 15  1  0  0  0  0
 14 16  1  0  0  0  0
 14 17  1  0  0  0  0
 17 18  1  0  0  0  0
 17 19  1  0  0  0  0
 17 20  1  0  0  0  0
 20 21  1  0  0  0  0
 20 22  1  0  0  0  0
 20 23  1  0  0  0  0
 23 24  1  0  0  0  0
 23 25  1  0  0  0  0
 26 27  2  0  0  0  0
 26 28  1  0  0  0  0
 28 29  1  0  0  0  0
 28 30  1  0  0  0  0
 30 31  1  0  0  0  0
 30 32  1  0  0  0  0
 30 33  1  0  0  0  0
M  END
$$$$

  -OEChem-01062216083D

 33 32  0     1  0  0  0  0  0999 V2000
   -3.5655   -2.1219    0.1045 H   0  0  0  0  0  0  0  0  0  0  0  0
   -2.5840   -1.8219    0.4805 C   0  0  0  0  0  0  0  0  0  0  0  0
   -2.2181   -2.5914    1.1642 H   0  0  0  0  0  0  0  0  0  0  0  0
   -1.9029   -1.7414   -0.3687 H   0  0  0  0  0  0  0  0  0  0  0  0
   -2.7059   -0.4903    1.2065 C   0  0  0  0  0  0  0  0  0  0  0  0
   -3.5522   -0.3738    2.0737 O   0  0  0  0  0  0  0  0  0  0  0  0
   -2.3240    0.6961    0.6330 N   0  0  0  0  0  0  0  0  0  0  0  0
   -2.9908    1.4201    0.8918 H   0  0  0  0  0  0  0  0  0  0  0  0
   -0.9526    1.2136    0.4199 C   0  0  1  0  0  0  0  0  0  0  0  0
   -0.6534    1.6421    1.3814 H   0  0  0  0  0  0  0  0  0  0  0  0
    0.1756    0.2288    0.0337 C   0  0  0  0  0  0  0  0  0  0  0  0
   -0.1319   -0.3232   -0.8604 H   0  0  0  0  0  0  0  0  0  0  0  0
    1.0656    0.8070   -0.2383 H   0  0  0  0  0  0  0  0  0  0  0  0
    0.5789   -0.7621    1.1414 C   0  0  0  0  0  0  0  0  0  0  0  0
   -0.2542   -1.3848    1.4568 H   0  0  0  0  0  0  0  0  0  0  0  0
    0.9151   -0.1997    2.0188 H   0  0  0  0  0  0  0  0  0  0  0  0
    1.7161   -1.6655    0.6528 C   0  0  0  0  0  0  0  0  0  0  0  0
    1.3957   -2.2039   -0.2452 H   0  0  0  0  0  0  0  0  0  0  0  0
    2.5863   -1.0555    0.3884 H   0  0  0  0  0  0  0  0  0  0  0  0
    2.1136   -2.6715    1.7291 C   0  0  0  0  0  0  0  0  0  0  0  0
    2.4615   -2.1463    2.6256 H   0  0  0  0  0  0  0  0  0  0  0  0
    1.2503   -3.2860    2.0078 H   0  0  0  0  0  0  0  0  0  0  0  0
    3.1842   -3.5192    1.1975 N   0  0  0  0  0  0  0  0  0  0  0  0
    3.4891   -4.2069    1.8867 H   0  0  0  0  0  0  0  0  0  0  0  0
    2.8967   -3.9753    0.3315 H   0  0  0  0  0  0  0  0  0  0  0  0
   -0.9584    2.3897   -0.5819 C   0  0  0  0  0  0  0  0  0  0  0  0
   -1.6056    2.3285   -1.6181 O   0  0  0  0  0  0  0  0  0  0  0  0
   -0.2268    3.5332   -0.3141 N   0  0  0  0  0  0  0  0  0  0  0  0
    0.3149    3.5607    0.5444 H   0  0  0  0  0  0  0  0  0  0  0  0
   -0.1690    4.6749   -1.2194 C   0  0  0  0  0  0  0  0  0  0  0  0
   -1.1739    5.0680   -1.4070 H   0  0  0  0  0  0  0  0  0  0  0  0
    0.4373    5.4741   -0.7824 H   0  0  0  0  0  0  0  0  0  0  0  0
    0.2789    4.3830   -2.1750 H   0  0  0  0  0  0  0  0  0  0  0  0
  1  2  1  0  0  0  0
  2  3  1  0  0  0  0
  2  4  1  0  0  0  0
  2  5  1  0  0  0  0
  5  6  2  0  0  0  0
  5  7  1  0  0  0  0
  7  8  1  0  0  0  0
  7  9  1  0  0  0  0
  9 10  1  0  0  0  0
  9 11  1  0  0  0  0
  9 26  1  0  0  0  0
 11 12  1  0  0  0  0
 11 13  1  0  0  0  0
 11 14  1  0  0  0  0
 14 15  1  0  0  0  0
 14 16  1  0  0  0  0
 14 17  1  0  0  0  0
 17 18  1  0  0  0  0
 17 19  1  0  0  0  0
 17 20  1  0  0  0  0
 20 21  1  0  0  0  0
 20 22  1  0  0  0  0
 20 23  1  0  0  0  0
 23 24  1  0  0  0  0
 23 25  1  0  0  0  0
 26 27  2  0  0  0  0
 26 28  1  0  0  0  0
 28 29  1  0  0  0  0
 28 30  1  0  0  0  0
 30 31  1  0  0  0  0
 30 32  1  0  0  0  0
 30 33  1  0  0  0  0
M  END
$$$$

  -OEChem-01062216083D

 33 32  0     1  0  0  0  0  0999 V2000
   -3.5491   -2.1093    0.0983 H   0  0  0  0  0  0  0  0  0  0  0  0
   -2.5697   -1.8110    0.4810 C   0  0  0  0  0  0  0  0  0  0  0  0
   -2.2103   -2.5807    1.1678 H   0  0  0  0  0  0  0  0  0  0  0  0
   -1.8830   -1.7332   -0.3635 H   0  0  0  0  0  0  0  0  0  0  0  0
   -2.6945   -0.4784    1.2049 C   0  0  0  0  0  0  0  0  0  0  0  0
   -3.5495   -0.3626    2.0635 O   0  0  0  0  0  0  0  0  0  0  0  0
   -2.3021    0.7070    0.6356 N   0  0  0  0  0  0  0  0  0  0  0  0
   -2.9730    1.4356    0.8713 H   0  0  0  0  0  0  0  0  0  0  0  0
   -0.9308    1.2238    0.4161 C   0  0  1  0  0  0  0  0  0  0  0  0
   -0.6282    1.6531    1.3764 H   0  0  0  0  0  0  0  0  0  0  0  0
    0.1897    0.2289    0.0295 C   0  0  0  0  0  0  0  0  0  0  0  0
   -0.1255   -0.3253   -0.8602 H   0  0  0  0  0  0  0  0  0  0  0  0
    1.0843    0.7965   -0.2486 H   0  0  0  0  0  0  0  0  0  0  0  0
    0.5900   -0.7587    1.1412 C   0  0  0  0  0  0  0  0  0  0  0  0
   -0.2459   -1.3732    1.4648 H   0  0  0  0  0  0  0  0  0  0  0  0
    0.9338   -0.1934    2.0137 H   0  0  0  0  0  0  0  0  0  0  0  0
    1.7187   -1.6731    0.6539 C   0  0  0  0  0  0  0  0  0  0  0  0
    1.3902   -2.2155   -0.2388 H   0  0  0  0  0  0  0  0  0  0  0  0
    2.5928   -1.0721    0.3819 H   0  0  0  0  0  0  0  0  0  0  0  0
    2.1117   -2.6752    1.7356 C   0  0  0  0  0  0  0  0  0  0  0  0
    2.4663   -2.1463    2.6274 H   0  0  0  0  0  0  0  0  0  0  0  0
    1.2447   -3.2811    2.0217 H   0  0  0  0  0  0  0  0  0  0  0  0
    3.1743   -3.5347    1.2070 N   0  0  0  0  0  0  0  0  0  0  0  0
    3.4778   -4.2179    1.9014 H   0  0  0  0  0  0  0  0  0  0  0  0
    2.8797   -3.9970    0.3467 H   0  0  0  0  0  0  0  0  0  0  0  0
   -0.9322    2.4068   -0.5814 C   0  0  0  0  0  0  0  0  0  0  0  0
   -1.7936    2.5064   -1.4447 O   0  0  0  0  0  0  0  0  0  0  0  0
    0.0257    3.4007   -0.4798 N   0  0  0  0  0  0  0  0  0  0  0  0
    0.7303    3.3088    0.2456 H   0  0  0  0  0  0  0  0  0  0  0  0
    0.0797    4.5537   -1.3716 C   0  0  0  0  0  0  0  0  0  0  0  0
   -0.8570    5.1194   -1.3254 H   0  0  0  0  0  0  0  0  0  0  0  0
    0.8985    5.2191   -1.0815 H   0  0  0  0  0  0  0  0  0  0  0  0
    0.2452    4.2311   -2.4049 H   0  0  0  0  0  0  0  0  0  0  0  0
  1  2  1  0  0  0  0
  2  3  1  0  0  0  0
  2  4  1  0  0  0  0
  2  5  1  0  0  0  0
  5  6  2  0  0  0  0
  5  7  1  0  0  0  0
  7  8  1  0  0  0  0
  7  9  1  0  0  0  0
  9 10  1  0  0  0  0
  9 11  1  0  0  0  0
  9 26  1  0  0  0  0
 11 12  1  0  0  0  0
 11 13  1  0  0  0  0
 11 14  1  0  0  0  0
 14 15  1  0  0  0  0
 14 16  1  0  0  0  0
 14 17  1  0  0  0  0
 17 18  1  0  0  0  0
 17 19  1  0  0  0  0
 17 20  1  0  0  0  0
 20 21  1  0  0  0  0
 20 22  1  0  0  0  0
 20 23  1  0  0  0  0
 23 24  1  0  0  0  0
 23 25  1  0  0  0  0
 26 27  2  0  0  0  0
 26 28  1  0  0  0  0
 28 29  1  0  0  0  0
 28 30  1  0  0  0  0
 30 31  1  0  0  0  0
 30 32  1  0  0  0  0
 30 33  1  0  0  0  0
M  END
$$$$

  -OEChem-01062216083D

 33 32  0     1  0  0  0  0  0999 V2000
   -3.5313   -2.1055    0.0973 H   0  0  0  0  0  0  0  0  0  0  0  0
   -2.5519   -1.7993    0.4740 C   0  0  0  0  0  0  0  0  0  0  0  0
   -2.1862   -2.5635    1.1636 H   0  0  0  0  0  0  0  0  0  0  0  0
   -1.8693   -1.7225   -0.3736 H   0  0  0  0  0  0  0  0  0  0  0  0
   -2.6827   -0.4636    1.1917 C   0  0  0  0  0  0  0  0  0  0  0  0
   -3.5573   -0.3443    2.0296 O   0  0  0  0  0  0  0  0  0  0  0  0
   -2.2708    0.7205    0.6314 N   0  0  0  0  0  0  0  0  0  0  0  0
   -2.9420    1.4566    0.8457 H   0  0  0  0  0  0  0  0  0  0  0  0
   -0.8973    1.2321    0.4087 C   0  0  1  0  0  0  0  0  0  0  0  0
   -0.5886    1.6613    1.3672 H   0  0  0  0  0  0  0  0  0  0  0  0
    0.2136    0.2232    0.0242 C   0  0  0  0  0  0  0  0  0  0  0  0
   -0.1092   -0.3324   -0.8617 H   0  0  0  0  0  0  0  0  0  0  0  0
    1.1170    0.7737   -0.2574 H   0  0  0  0  0  0  0  0  0  0  0  0
    0.6041   -0.7617    1.1416 C   0  0  0  0  0  0  0  0  0  0  0  0
   -0.2377   -1.3643    1.4716 H   0  0  0  0  0  0  0  0  0  0  0  0
    0.9554   -0.1943    2.0099 H   0  0  0  0  0  0  0  0  0  0  0  0
    1.7226   -1.6910    0.6589 C   0  0  0  0  0  0  0  0  0  0  0  0
    1.3881   -2.2347   -0.2306 H   0  0  0  0  0  0  0  0  0  0  0  0
    2.6026   -1.1007    0.3828 H   0  0  0  0  0  0  0  0  0  0  0  0
    2.1057   -2.6908    1.7464 C   0  0  0  0  0  0  0  0  0  0  0  0
    2.4654   -2.1602    2.6350 H   0  0  0  0  0  0  0  0  0  0  0  0
    1.2319   -3.2856    2.0356 H   0  0  0  0  0  0  0  0  0  0  0  0
    3.1588   -3.5663    1.2243 N   0  0  0  0  0  0  0  0  0  0  0  0
    3.4529   -4.2488    1.9235 H   0  0  0  0  0  0  0  0  0  0  0  0
    2.8592   -4.0311    0.3670 H   0  0  0  0  0  0  0  0  0  0  0  0
   -0.9019    2.4244   -0.5814 C   0  0  0  0  0  0  0  0  0  0  0  0
   -1.9048    2.7111   -1.2223 O   0  0  0  0  0  0  0  0  0  0  0  0
    0.2081    3.2441   -0.6942 N   0  0  0  0  0  0  0  0  0  0  0  0
    1.0271    3.0127   -0.1400 H   0  0  0  0  0  0  0  0  0  0  0  0
    0.2566    4.4101   -1.5688 C   0  0  0  0  0  0  0  0  0  0  0  0
   -0.5349    5.1201   -1.3061 H   0  0  0  0  0  0  0  0  0  0  0  0
    1.2210    4.9170   -1.4702 H   0  0  0  0  0  0  0  0  0  0  0  0
    0.1282    4.1106   -2.6143 H   0  0  0  0  0  0  0  0  0  0  0  0
  1  2  1  0  0  0  0
  2  3  1  0  0  0  0
  2  4  1  0  0  0  0
  2  5  1  0  0  0  0
  5  6  2  0  0  0  0
  5  7  1  0  0  0  0
  7  8  1  0  0  0  0
  7  9  1  0  0  0  0
  9 10  1  0  0  0  0
  9 11  1  0  0  0  0
  9 26  1  0  0  0  0
 11 12  1  0  0  0  0
 11 13  1  0  0  0  0
 11 14  1  0  0  0  0
 14 15  1  0  0  0  0
 14 16  1  0  0  0  0
 14 17  1  0  0  0  0
 17 18  1  0  0  0  0
 17 19  1  0  0  0  0
 17 20  1  0  0  0  0
 20 21  1  0  0  0  0
 20 22  1  0  0  0  0
 20 23  1  0  0  0  0
 23 24  1  0  0  0  0
 23 25  1  0  0  0  0
 26 27  2  0  0  0  0
 26 28  1  0  0  0  0
 28 29  1  0  0  0  0
 28 30  1  0  0  0  0
 30 31  1  0  0  0  0
 30 32  1  0  0  0  0
 30 33  1  0  0  0  0
M  END
$$$$
