
  -OEChem-05262214473D

 46 45  0     1  0  0  0  0  0999 V2000
   -0.0543    1.9736    3.8406 C   0  0  0  0  0  0  0  0  0  0  0  0
    0.6744    1.6099    4.7562 O   0  0  0  0  0  0  0  0  0  0  0  0
   -0.5599    3.3779    3.8160 C   0  0  0  0  0  0  0  0  0  0  0  0
   -1.5202    3.4885    4.3450 H   0  0  0  0  0  0  0  0  0  0  0  0
    0.1282    4.0814    4.3116 H   0  0  0  0  0  0  0  0  0  0  0  0
   -0.7317    3.7994    2.8126 H   0  0  0  0  0  0  0  0  0  0  0  0
   -0.4812    1.1968    2.7762 N   0  0  0  0  0  0  0  0  0  0  0  0
   -0.1106   -0.1834    2.6051 C   0  0  2  0  0  0  0  0  0  0  0  0
   -0.0696   -0.4775    1.1113 C   0  0  0  0  0  0  0  0  0  0  0  0
   -0.6805    0.1900    0.2792 O   0  0  0  0  0  0  0  0  0  0  0  0
   -1.0852   -1.1101    3.3150 C   0  0  0  0  0  0  0  0  0  0  0  0
   -1.0883    1.6241    2.0791 H   0  0  0  0  0  0  0  0  0  0  0  0
    0.8937   -0.2959    3.0277 H   0  0  0  0  0  0  0  0  0  0  0  0
   -2.0970   -1.0114    2.9051 H   0  0  0  0  0  0  0  0  0  0  0  0
   -0.7860   -2.1580    3.2078 H   0  0  0  0  0  0  0  0  0  0  0  0
   -1.1357   -0.8775    4.3842 H   0  0  0  0  0  0  0  0  0  0  0  0
    0.6950   -1.6003    0.8178 N   0  0  0  0  0  0  0  0  0  0  0  0
    0.8777   -2.0908   -0.5246 C   0  0  2  0  0  0  0  0  0  0  0  0
    1.7680   -3.3246   -0.4458 C   0  0  0  0  0  0  0  0  0  0  0  0
    2.1811   -3.7881    0.6153 O   0  0  0  0  0  0  0  0  0  0  0  0
    1.5010   -1.0343   -1.4371 C   0  0  0  0  0  0  0  0  0  0  0  0
    0.5601    0.1161   -1.7487 C   0  0  0  0  0  0  0  0  0  0  0  0
   -0.6311   -0.0212   -2.0111 O   0  0  0  0  0  0  0  0  0  0  0  0
    1.1952    1.3389   -1.6984 N   0  0  0  0  0  0  0  0  0  0  0  0
    1.1810   -2.0803    1.5718 H   0  0  0  0  0  0  0  0  0  0  0  0
   -0.1134   -2.3895   -0.8856 H   0  0  0  0  0  0  0  0  0  0  0  0
    2.3922   -0.6024   -0.9644 H   0  0  0  0  0  0  0  0  0  0  0  0
    1.8243   -1.4858   -2.3838 H   0  0  0  0  0  0  0  0  0  0  0  0
    2.1823    1.4051   -1.4735 H   0  0  0  0  0  0  0  0  0  0  0  0
    0.7093    2.2110   -1.8817 H   0  0  0  0  0  0  0  0  0  0  0  0
    2.0078   -3.8790   -1.6952 N   0  0  0  0  0  0  0  0  0  0  0  0
    2.8050   -5.0702   -1.8644 C   0  0  2  0  0  0  0  0  0  0  0  0
    2.1686   -6.1828   -1.0418 C   0  0  0  0  0  0  0  0  0  0  0  0
    1.4260   -5.9693   -0.0857 O   0  0  0  0  0  0  0  0  0  0  0  0
    4.2463   -4.8364   -1.4394 C   0  0  0  0  0  0  0  0  0  0  0  0
    1.6090   -3.4464   -2.5232 H   0  0  0  0  0  0  0  0  0  0  0  0
    2.7622   -5.3311   -2.9275 H   0  0  0  0  0  0  0  0  0  0  0  0
    4.3092   -4.5739   -0.3771 H   0  0  0  0  0  0  0  0  0  0  0  0
    4.8562   -5.7324   -1.5951 H   0  0  0  0  0  0  0  0  0  0  0  0
    4.6931   -4.0161   -2.0115 H   0  0  0  0  0  0  0  0  0  0  0  0
    2.5616   -7.4417   -1.4740 N   0  0  0  0  0  0  0  0  0  0  0  0
    2.1039   -8.6594   -0.8468 C   0  0  0  0  0  0  0  0  0  0  0  0
    3.1651   -7.5250   -2.2868 H   0  0  0  0  0  0  0  0  0  0  0  0
    2.8202   -8.9639   -0.0696 H   0  0  0  0  0  0  0  0  0  0  0  0
    1.1180   -8.4882   -0.3899 H   0  0  0  0  0  0  0  0  0  0  0  0
    2.0243   -9.4539   -1.6034 H   0  0  0  0  0  0  0  0  0  0  0  0
  1  3  1  0  0  0  0
  1  7  1  0  0  0  0
  1  2  2  0  0  0  0
 21 22  1  0  0  0  0
 22 24  1  0  0  0  0
 22 23  2  0  0  0  0
 32 33  1  0  0  0  0
 33 41  1  0  0  0  0
 33 34  2  0  0  0  0
  8  9  1  0  0  0  0
  9 17  1  0  0  0  0
  9 10  2  0  0  0  0
 18 19  1  0  0  0  0
 19 31  1  0  0  0  0
 19 20  2  0  0  0  0
 32 35  1  0  0  0  0
  8 11  1  0  0  0  0
 41 42  1  0  0  0  0
 18 21  1  0  0  0  0
 31 32  1  0  0  0  0
  7  8  1  0  0  0  0
 17 18  1  0  0  0  0
  3  4  1  0  0  0  0
  3  5  1  0  0  0  0
  3  6  1  0  0  0  0
 35 38  1  0  0  0  0
 35 39  1  0  0  0  0
 35 40  1  0  0  0  0
 11 14  1  0  0  0  0
 11 15  1  0  0  0  0
 11 16  1  0  0  0  0
 42 44  1  0  0  0  0
 42 45  1  0  0  0  0
 42 46  1  0  0  0  0
 21 27  1  0  0  0  0
 21 28  1  0  0  0  0
 32 37  1  0  0  0  0
  8 13  1  0  0  0  0
 18 26  1  0  0  0  0
 24 29  1  0  0  0  0
 24 30  1  0  0  0  0
 41 43  1  0  0  0  0
  7 12  1  0  0  0  0
 31 36  1  0  0  0  0
 17 25  1  0  0  0  0
M  END
$$$$

  -OEChem-05262214473D

 46 45  0     1  0  0  0  0  0999 V2000
   -0.0543    1.9736    3.8406 C   0  0  0  0  0  0  0  0  0  0  0  0
    0.6744    1.6099    4.7562 O   0  0  0  0  0  0  0  0  0  0  0  0
   -0.5599    3.3779    3.8160 C   0  0  0  0  0  0  0  0  0  0  0  0
   -1.5202    3.4885    4.3450 H   0  0  0  0  0  0  0  0  0  0  0  0
    0.1282    4.0814    4.3116 H   0  0  0  0  0  0  0  0  0  0  0  0
   -0.7317    3.7994    2.8126 H   0  0  0  0  0  0  0  0  0  0  0  0
   -0.4812    1.1968    2.7762 N   0  0  0  0  0  0  0  0  0  0  0  0
   -0.1106   -0.1834    2.6051 C   0  0  2  0  0  0  0  0  0  0  0  0
   -0.0696   -0.4775    1.1113 C   0  0  0  0  0  0  0  0  0  0  0  0
   -0.6805    0.1900    0.2792 O   0  0  0  0  0  0  0  0  0  0  0  0
   -1.0852   -1.1101    3.3150 C   0  0  0  0  0  0  0  0  0  0  0  0
   -1.0883    1.6241    2.0791 H   0  0  0  0  0  0  0  0  0  0  0  0
    0.8937   -0.2959    3.0277 H   0  0  0  0  0  0  0  0  0  0  0  0
   -2.0970   -1.0114    2.9051 H   0  0  0  0  0  0  0  0  0  0  0  0
   -0.7860   -2.1580    3.2078 H   0  0  0  0  0  0  0  0  0  0  0  0
   -1.1357   -0.8775    4.3842 H   0  0  0  0  0  0  0  0  0  0  0  0
    0.6950   -1.6003    0.8178 N   0  0  0  0  0  0  0  0  0  0  0  0
    0.8777   -2.0908   -0.5246 C   0  0  2  0  0  0  0  0  0  0  0  0
    1.7680   -3.3246   -0.4458 C   0  0  0  0  0  0  0  0  0  0  0  0
    1.9642   -3.9458    0.5968 O   0  0  0  0  0  0  0  0  0  0  0  0
    1.5010   -1.0343   -1.4371 C   0  0  0  0  0  0  0  0  0  0  0  0
    0.5601    0.1161   -1.7487 C   0  0  0  0  0  0  0  0  0  0  0  0
   -0.6311   -0.0212   -2.0111 O   0  0  0  0  0  0  0  0  0  0  0  0
    1.1952    1.3389   -1.6984 N   0  0  0  0  0  0  0  0  0  0  0  0
    1.1810   -2.0803    1.5718 H   0  0  0  0  0  0  0  0  0  0  0  0
   -0.1134   -2.3895   -0.8856 H   0  0  0  0  0  0  0  0  0  0  0  0
    2.3922   -0.6024   -0.9644 H   0  0  0  0  0  0  0  0  0  0  0  0
    1.8243   -1.4858   -2.3838 H   0  0  0  0  0  0  0  0  0  0  0  0
    2.1823    1.4051   -1.4735 H   0  0  0  0  0  0  0  0  0  0  0  0
    0.7093    2.2110   -1.8817 H   0  0  0  0  0  0  0  0  0  0  0  0
    2.2794   -3.6824   -1.6853 N   0  0  0  0  0  0  0  0  0  0  0  0
    3.1291   -4.8360   -1.8593 C   0  0  2  0  0  0  0  0  0  0  0  0
    2.3682   -6.0593   -1.3654 C   0  0  0  0  0  0  0  0  0  0  0  0
    1.4366   -5.9923   -0.5662 O   0  0  0  0  0  0  0  0  0  0  0  0
    4.4426   -4.6738   -1.1102 C   0  0  0  0  0  0  0  0  0  0  0  0
    2.0494   -3.1273   -2.5043 H   0  0  0  0  0  0  0  0  0  0  0  0
    3.3167   -4.9314   -2.9344 H   0  0  0  0  0  0  0  0  0  0  0  0
    4.2747   -4.5767   -0.0313 H   0  0  0  0  0  0  0  0  0  0  0  0
    5.0977   -5.5372   -1.2664 H   0  0  0  0  0  0  0  0  0  0  0  0
    4.9745   -3.7770   -1.4458 H   0  0  0  0  0  0  0  0  0  0  0  0
    2.8798   -7.2386   -1.8888 N   0  0  0  0  0  0  0  0  0  0  0  0
    2.3374   -8.5366   -1.5618 C   0  0  0  0  0  0  0  0  0  0  0  0
    3.6417   -7.1985   -2.5593 H   0  0  0  0  0  0  0  0  0  0  0  0
    2.8845   -8.9581   -0.7057 H   0  0  0  0  0  0  0  0  0  0  0  0
    1.2733   -8.4344   -1.3023 H   0  0  0  0  0  0  0  0  0  0  0  0
    2.4408   -9.2060   -2.4285 H   0  0  0  0  0  0  0  0  0  0  0  0
  1  3  1  0  0  0  0
  1  7  1  0  0  0  0
  1  2  2  0  0  0  0
 21 22  1  0  0  0  0
 22 24  1  0  0  0  0
 22 23  2  0  0  0  0
 32 33  1  0  0  0  0
 33 41  1  0  0  0  0
 33 34  2  0  0  0  0
  8  9  1  0  0  0  0
  9 17  1  0  0  0  0
  9 10  2  0  0  0  0
 18 19  1  0  0  0  0
 19 31  1  0  0  0  0
 19 20  2  0  0  0  0
 32 35  1  0  0  0  0
  8 11  1  0  0  0  0
 41 42  1  0  0  0  0
 18 21  1  0  0  0  0
 31 32  1  0  0  0  0
  7  8  1  0  0  0  0
 17 18  1  0  0  0  0
  3  4  1  0  0  0  0
  3  5  1  0  0  0  0
  3  6  1  0  0  0  0
 35 38  1  0  0  0  0
 35 39  1  0  0  0  0
 35 40  1  0  0  0  0
 11 14  1  0  0  0  0
 11 15  1  0  0  0  0
 11 16  1  0  0  0  0
 42 44  1  0  0  0  0
 42 45  1  0  0  0  0
 42 46  1  0  0  0  0
 21 27  1  0  0  0  0
 21 28  1  0  0  0  0
 32 37  1  0  0  0  0
  8 13  1  0  0  0  0
 18 26  1  0  0  0  0
 24 29  1  0  0  0  0
 24 30  1  0  0  0  0
 41 43  1  0  0  0  0
  7 12  1  0  0  0  0
 31 36  1  0  0  0  0
 17 25  1  0  0  0  0
M  END
$$$$

  -OEChem-05262214473D

 46 45  0     1  0  0  0  0  0999 V2000
   -0.0543    1.9736    3.8406 C   0  0  0  0  0  0  0  0  0  0  0  0
    0.6744    1.6099    4.7562 O   0  0  0  0  0  0  0  0  0  0  0  0
   -0.5599    3.3779    3.8160 C   0  0  0  0  0  0  0  0  0  0  0  0
   -1.5202    3.4885    4.3450 H   0  0  0  0  0  0  0  0  0  0  0  0
    0.1282    4.0814    4.3116 H   0  0  0  0  0  0  0  0  0  0  0  0
   -0.7317    3.7994    2.8126 H   0  0  0  0  0  0  0  0  0  0  0  0
   -0.4812    1.1968    2.7762 N   0  0  0  0  0  0  0  0  0  0  0  0
   -0.1106   -0.1834    2.6051 C   0  0  2  0  0  0  0  0  0  0  0  0
   -0.0696   -0.4775    1.1113 C   0  0  0  0  0  0  0  0  0  0  0  0
   -0.6805    0.1900    0.2792 O   0  0  0  0  0  0  0  0  0  0  0  0
   -1.0852   -1.1101    3.3150 C   0  0  0  0  0  0  0  0  0  0  0  0
   -1.0883    1.6241    2.0791 H   0  0  0  0  0  0  0  0  0  0  0  0
    0.8937   -0.2959    3.0277 H   0  0  0  0  0  0  0  0  0  0  0  0
   -2.0970   -1.0114    2.9051 H   0  0  0  0  0  0  0  0  0  0  0  0
   -0.7860   -2.1580    3.2078 H   0  0  0  0  0  0  0  0  0  0  0  0
   -1.1357   -0.8775    4.3842 H   0  0  0  0  0  0  0  0  0  0  0  0
    0.6950   -1.6003    0.8178 N   0  0  0  0  0  0  0  0  0  0  0  0
    0.8777   -2.0908   -0.5246 C   0  0  2  0  0  0  0  0  0  0  0  0
    1.7680   -3.3246   -0.4458 C   0  0  0  0  0  0  0  0  0  0  0  0
    1.7607   -4.0983    0.5096 O   0  0  0  0  0  0  0  0  0  0  0  0
    1.5010   -1.0343   -1.4371 C   0  0  0  0  0  0  0  0  0  0  0  0
    0.5601    0.1161   -1.7487 C   0  0  0  0  0  0  0  0  0  0  0  0
   -0.6311   -0.0212   -2.0111 O   0  0  0  0  0  0  0  0  0  0  0  0
    1.1952    1.3389   -1.6984 N   0  0  0  0  0  0  0  0  0  0  0  0
    1.1810   -2.0803    1.5718 H   0  0  0  0  0  0  0  0  0  0  0  0
   -0.1134   -2.3895   -0.8856 H   0  0  0  0  0  0  0  0  0  0  0  0
    2.3922   -0.6024   -0.9644 H   0  0  0  0  0  0  0  0  0  0  0  0
    1.8243   -1.4858   -2.3838 H   0  0  0  0  0  0  0  0  0  0  0  0
    2.1823    1.4051   -1.4735 H   0  0  0  0  0  0  0  0  0  0  0  0
    0.7093    2.2110   -1.8817 H   0  0  0  0  0  0  0  0  0  0  0  0
    2.5370   -3.4904   -1.5891 N   0  0  0  0  0  0  0  0  0  0  0  0
    3.4380   -4.6062   -1.7510 C   0  0  2  0  0  0  0  0  0  0  0  0
    2.6273   -5.8885   -1.6174 C   0  0  0  0  0  0  0  0  0  0  0  0
    1.5479   -5.9417   -1.0316 O   0  0  0  0  0  0  0  0  0  0  0  0
    4.5609   -4.5639   -0.7264 C   0  0  0  0  0  0  0  0  0  0  0  0
    2.4667   -2.8161   -2.3456 H   0  0  0  0  0  0  0  0  0  0  0  0
    3.8484   -4.5368   -2.7643 H   0  0  0  0  0  0  0  0  0  0  0  0
    4.1690   -4.6322    0.2950 H   0  0  0  0  0  0  0  0  0  0  0  0
    5.2594   -5.3951   -0.8687 H   0  0  0  0  0  0  0  0  0  0  0  0
    5.1244   -3.6278   -0.8042 H   0  0  0  0  0  0  0  0  0  0  0  0
    3.2713   -6.9754   -2.1920 N   0  0  0  0  0  0  0  0  0  0  0  0
    2.7112   -8.3066   -2.1848 C   0  0  0  0  0  0  0  0  0  0  0  0
    4.1548   -6.8355   -2.6732 H   0  0  0  0  0  0  0  0  0  0  0  0
    3.0799   -8.8554   -1.3057 H   0  0  0  0  0  0  0  0  0  0  0  0
    1.6138   -8.2424   -2.1430 H   0  0  0  0  0  0  0  0  0  0  0  0
    3.0128   -8.8361   -3.1006 H   0  0  0  0  0  0  0  0  0  0  0  0
  1  3  1  0  0  0  0
  1  7  1  0  0  0  0
  1  2  2  0  0  0  0
 21 22  1  0  0  0  0
 22 24  1  0  0  0  0
 22 23  2  0  0  0  0
 32 33  1  0  0  0  0
 33 41  1  0  0  0  0
 33 34  2  0  0  0  0
  8  9  1  0  0  0  0
  9 17  1  0  0  0  0
  9 10  2  0  0  0  0
 18 19  1  0  0  0  0
 19 31  1  0  0  0  0
 19 20  2  0  0  0  0
 32 35  1  0  0  0  0
  8 11  1  0  0  0  0
 41 42  1  0  0  0  0
 18 21  1  0  0  0  0
 31 32  1  0  0  0  0
  7  8  1  0  0  0  0
 17 18  1  0  0  0  0
  3  4  1  0  0  0  0
  3  5  1  0  0  0  0
  3  6  1  0  0  0  0
 35 38  1  0  0  0  0
 35 39  1  0  0  0  0
 35 40  1  0  0  0  0
 11 14  1  0  0  0  0
 11 15  1  0  0  0  0
 11 16  1  0  0  0  0
 42 44  1  0  0  0  0
 42 45  1  0  0  0  0
 42 46  1  0  0  0  0
 21 27  1  0  0  0  0
 21 28  1  0  0  0  0
 32 37  1  0  0  0  0
  8 13  1  0  0  0  0
 18 26  1  0  0  0  0
 24 29  1  0  0  0  0
 24 30  1  0  0  0  0
 41 43  1  0  0  0  0
  7 12  1  0  0  0  0
 31 36  1  0  0  0  0
 17 25  1  0  0  0  0
M  END
$$$$

  -OEChem-05262214473D

 46 45  0     1  0  0  0  0  0999 V2000
   -0.0543    1.9736    3.8406 C   0  0  0  0  0  0  0  0  0  0  0  0
    0.6744    1.6099    4.7562 O   0  0  0  0  0  0  0  0  0  0  0  0
   -0.5599    3.3779    3.8160 C   0  0  0  0  0  0  0  0  0  0  0  0
   -1.5202    3.4885    4.3450 H   0  0  0  0  0  0  0  0  0  0  0  0
    0.1282    4.0814    4.3116 H   0  0  0  0  0  0  0  0  0  0  0  0
   -0.7317    3.7994    2.8126 H   0  0  0  0  0  0  0  0  0  0  0  0
   -0.4812    1.1968    2.7762 N   0  0  0  0  0  0  0  0  0  0  0  0
   -0.1106   -0.1834    2.6051 C   0  0  2  0  0  0  0  0  0  0  0  0
   -0.0696   -0.4775    1.1113 C   0  0  0  0  0  0  0  0  0  0  0  0
   -0.6805    0.1900    0.2792 O   0  0  0  0  0  0  0  0  0  0  0  0
   -1.0852   -1.1101    3.3150 C   0  0  0  0  0  0  0  0  0  0  0  0
   -1.0883    1.6241    2.0791 H   0  0  0  0  0  0  0  0  0  0  0  0
    0.8937   -0.2959    3.0277 H   0  0  0  0  0  0  0  0  0  0  0  0
   -2.0970   -1.0114    2.9051 H   0  0  0  0  0  0  0  0  0  0  0  0
   -0.7860   -2.1580    3.2078 H   0  0  0  0  0  0  0  0  0  0  0  0
   -1.1357   -0.8775    4.3842 H   0  0  0  0  0  0  0  0  0  0  0  0
    0.6950   -1.6003    0.8178 N   0  0  0  0  0  0  0  0  0  0  0  0
    0.8777   -2.0908   -0.5246 C   0  0  2  0  0  0  0  0  0  0  0  0
    1.7680   -3.3246   -0.4458 C   0  0  0  0  0  0  0  0  0  0  0  0
    1.5844   -4.2351    0.3597 O   0  0  0  0  0  0  0  0  0  0  0  0
    1.5010   -1.0343   -1.4371 C   0  0  0  0  0  0  0  0  0  0  0  0
    0.5601    0.1161   -1.7487 C   0  0  0  0  0  0  0  0  0  0  0  0
   -0.6311   -0.0212   -2.0111 O   0  0  0  0  0  0  0  0  0  0  0  0
    1.1952    1.3389   -1.6984 N   0  0  0  0  0  0  0  0  0  0  0  0
    1.1810   -2.0803    1.5718 H   0  0  0  0  0  0  0  0  0  0  0  0
   -0.1134   -2.3895   -0.8856 H   0  0  0  0  0  0  0  0  0  0  0  0
    2.3922   -0.6024   -0.9644 H   0  0  0  0  0  0  0  0  0  0  0  0
    1.8243   -1.4858   -2.3838 H   0  0  0  0  0  0  0  0  0  0  0  0
    2.1823    1.4051   -1.4735 H   0  0  0  0  0  0  0  0  0  0  0  0
    0.7093    2.2110   -1.8817 H   0  0  0  0  0  0  0  0  0  0  0  0
    2.7631   -3.3160   -1.4131 N   0  0  0  0  0  0  0  0  0  0  0  0
    3.7106   -4.3965   -1.5470 C   0  0  2  0  0  0  0  0  0  0  0  0
    2.9280   -5.6819   -1.7808 C   0  0  0  0  0  0  0  0  0  0  0  0
    1.7522   -5.8210   -1.4501 O   0  0  0  0  0  0  0  0  0  0  0  0
    4.5934   -4.5141   -0.3143 C   0  0  0  0  0  0  0  0  0  0  0  0
    2.8322   -2.5339   -2.0577 H   0  0  0  0  0  0  0  0  0  0  0  0
    4.3211   -4.1743   -2.4290 H   0  0  0  0  0  0  0  0  0  0  0  0
    3.9992   -4.7365    0.5796 H   0  0  0  0  0  0  0  0  0  0  0  0
    5.3304   -5.3158   -0.4291 H   0  0  0  0  0  0  0  0  0  0  0  0
    5.1328   -3.5787   -0.1305 H   0  0  0  0  0  0  0  0  0  0  0  0
    3.7095   -6.6701   -2.3630 N   0  0  0  0  0  0  0  0  0  0  0  0
    3.1997   -7.9853   -2.6735 C   0  0  0  0  0  0  0  0  0  0  0  0
    4.6694   -6.4608   -2.6208 H   0  0  0  0  0  0  0  0  0  0  0  0
    3.3930   -8.6629   -1.8288 H   0  0  0  0  0  0  0  0  0  0  0  0
    2.1164   -7.9251   -2.8546 H   0  0  0  0  0  0  0  0  0  0  0  0
    3.7012   -8.3696   -3.5739 H   0  0  0  0  0  0  0  0  0  0  0  0
  1  3  1  0  0  0  0
  1  7  1  0  0  0  0
  1  2  2  0  0  0  0
 21 22  1  0  0  0  0
 22 24  1  0  0  0  0
 22 23  2  0  0  0  0
 32 33  1  0  0  0  0
 33 41  1  0  0  0  0
 33 34  2  0  0  0  0
  8  9  1  0  0  0  0
  9 17  1  0  0  0  0
  9 10  2  0  0  0  0
 18 19  1  0  0  0  0
 19 31  1  0  0  0  0
 19 20  2  0  0  0  0
 32 35  1  0  0  0  0
  8 11  1  0  0  0  0
 41 42  1  0  0  0  0
 18 21  1  0  0  0  0
 31 32  1  0  0  0  0
  7  8  1  0  0  0  0
 17 18  1  0  0  0  0
  3  4  1  0  0  0  0
  3  5  1  0  0  0  0
  3  6  1  0  0  0  0
 35 38  1  0  0  0  0
 35 39  1  0  0  0  0
 35 40  1  0  0  0  0
 11 14  1  0  0  0  0
 11 15  1  0  0  0  0
 11 16  1  0  0  0  0
 42 44  1  0  0  0  0
 42 45  1  0  0  0  0
 42 46  1  0  0  0  0
 21 27  1  0  0  0  0
 21 28  1  0  0  0  0
 32 37  1  0  0  0  0
  8 13  1  0  0  0  0
 18 26  1  0  0  0  0
 24 29  1  0  0  0  0
 24 30  1  0  0  0  0
 41 43  1  0  0  0  0
  7 12  1  0  0  0  0
 31 36  1  0  0  0  0
 17 25  1  0  0  0  0
M  END
$$$$

  -OEChem-05262214473D

 46 45  0     1  0  0  0  0  0999 V2000
   -0.0543    1.9736    3.8406 C   0  0  0  0  0  0  0  0  0  0  0  0
    0.6744    1.6099    4.7562 O   0  0  0  0  0  0  0  0  0  0  0  0
   -0.5599    3.3779    3.8160 C   0  0  0  0  0  0  0  0  0  0  0  0
   -1.5202    3.4885    4.3450 H   0  0  0  0  0  0  0  0  0  0  0  0
    0.1282    4.0814    4.3116 H   0  0  0  0  0  0  0  0  0  0  0  0
   -0.7317    3.7994    2.8126 H   0  0  0  0  0  0  0  0  0  0  0  0
   -0.4812    1.1968    2.7762 N   0  0  0  0  0  0  0  0  0  0  0  0
   -0.1106   -0.1834    2.6051 C   0  0  2  0  0  0  0  0  0  0  0  0
   -0.0696   -0.4775    1.1113 C   0  0  0  0  0  0  0  0  0  0  0  0
   -0.6805    0.1900    0.2792 O   0  0  0  0  0  0  0  0  0  0  0  0
   -1.0852   -1.1101    3.3150 C   0  0  0  0  0  0  0  0  0  0  0  0
   -1.0883    1.6241    2.0791 H   0  0  0  0  0  0  0  0  0  0  0  0
    0.8937   -0.2959    3.0277 H   0  0  0  0  0  0  0  0  0  0  0  0
   -2.0970   -1.0114    2.9051 H   0  0  0  0  0  0  0  0  0  0  0  0
   -0.7860   -2.1580    3.2078 H   0  0  0  0  0  0  0  0  0  0  0  0
   -1.1357   -0.8775    4.3842 H   0  0  0  0  0  0  0  0  0  0  0  0
    0.6950   -1.6003    0.8178 N   0  0  0  0  0  0  0  0  0  0  0  0
    0.8777   -2.0908   -0.5246 C   0  0  2  0  0  0  0  0  0  0  0  0
    1.7680   -3.3246   -0.4458 C   0  0  0  0  0  0  0  0  0  0  0  0
    1.4474   -4.3469    0.1573 O   0  0  0  0  0  0  0  0  0  0  0  0
    1.5010   -1.0343   -1.4371 C   0  0  0  0  0  0  0  0  0  0  0  0
    0.5601    0.1161   -1.7487 C   0  0  0  0  0  0  0  0  0  0  0  0
   -0.6311   -0.0212   -2.0111 O   0  0  0  0  0  0  0  0  0  0  0  0
    1.1952    1.3389   -1.6984 N   0  0  0  0  0  0  0  0  0  0  0  0
    1.1810   -2.0803    1.5718 H   0  0  0  0  0  0  0  0  0  0  0  0
   -0.1134   -2.3895   -0.8856 H   0  0  0  0  0  0  0  0  0  0  0  0
    2.3922   -0.6024   -0.9644 H   0  0  0  0  0  0  0  0  0  0  0  0
    1.8243   -1.4858   -2.3838 H   0  0  0  0  0  0  0  0  0  0  0  0
    2.1823    1.4051   -1.4735 H   0  0  0  0  0  0  0  0  0  0  0  0
    0.7093    2.2110   -1.8817 H   0  0  0  0  0  0  0  0  0  0  0  0
    2.9423   -3.1711   -1.1694 N   0  0  0  0  0  0  0  0  0  0  0  0
    3.9283   -4.2211   -1.2610 C   0  0  2  0  0  0  0  0  0  0  0  0
    3.2500   -5.4536   -1.8443 C   0  0  0  0  0  0  0  0  0  0  0  0
    2.0357   -5.6383   -1.7934 O   0  0  0  0  0  0  0  0  0  0  0  0
    4.5376   -4.5280    0.0981 C   0  0  0  0  0  0  0  0  0  0  0  0
    3.1212   -2.3000   -1.6603 H   0  0  0  0  0  0  0  0  0  0  0  0
    4.7025   -3.8686   -1.9511 H   0  0  0  0  0  0  0  0  0  0  0  0
    3.7770   -4.8827    0.8032 H   0  0  0  0  0  0  0  0  0  0  0  0
    5.3057   -5.3048    0.0223 H   0  0  0  0  0  0  0  0  0  0  0  0
    4.9991   -3.6331    0.5294 H   0  0  0  0  0  0  0  0  0  0  0  0
    4.1645   -6.3435   -2.3901 N   0  0  0  0  0  0  0  0  0  0  0  0
    3.7697   -7.5944   -2.9945 C   0  0  0  0  0  0  0  0  0  0  0  0
    5.1505   -6.0999   -2.4057 H   0  0  0  0  0  0  0  0  0  0  0  0
    3.8026   -8.3936   -2.2394 H   0  0  0  0  0  0  0  0  0  0  0  0
    2.7467   -7.5044   -3.3886 H   0  0  0  0  0  0  0  0  0  0  0  0
    4.4591   -7.8381   -3.8163 H   0  0  0  0  0  0  0  0  0  0  0  0
  1  3  1  0  0  0  0
  1  7  1  0  0  0  0
  1  2  2  0  0  0  0
 21 22  1  0  0  0  0
 22 24  1  0  0  0  0
 22 23  2  0  0  0  0
 32 33  1  0  0  0  0
 33 41  1  0  0  0  0
 33 34  2  0  0  0  0
  8  9  1  0  0  0  0
  9 17  1  0  0  0  0
  9 10  2  0  0  0  0
 18 19  1  0  0  0  0
 19 31  1  0  0  0  0
 19 20  2  0  0  0  0
 32 35  1  0  0  0  0
  8 11  1  0  0  0  0
 41 42  1  0  0  0  0
 18 21  1  0  0  0  0
 31 32  1  0  0  0  0
  7  8  1  0  0  0  0
 17 18  1  0  0  0  0
  3  4  1  0  0  0  0
  3  5  1  0  0  0  0
  3  6  1  0  0  0  0
 35 38  1  0  0  0  0
 35 39  1  0  0  0  0
 35 40  1  0  0  0  0
 11 14  1  0  0  0  0
 11 15  1  0  0  0  0
 11 16  1  0  0  0  0
 42 44  1  0  0  0  0
 42 45  1  0  0  0  0
 42 46  1  0  0  0  0
 21 27  1  0  0  0  0
 21 28  1  0  0  0  0
 32 37  1  0  0  0  0
  8 13  1  0  0  0  0
 18 26  1  0  0  0  0
 24 29  1  0  0  0  0
 24 30  1  0  0  0  0
 41 43  1  0  0  0  0
  7 12  1  0  0  0  0
 31 36  1  0  0  0  0
 17 25  1  0  0  0  0
M  END
$$$$

  -OEChem-05262214473D

 46 45  0     1  0  0  0  0  0999 V2000
   -0.0543    1.9736    3.8406 C   0  0  0  0  0  0  0  0  0  0  0  0
    0.6744    1.6099    4.7562 O   0  0  0  0  0  0  0  0  0  0  0  0
   -0.5599    3.3779    3.8160 C   0  0  0  0  0  0  0  0  0  0  0  0
   -1.5202    3.4885    4.3450 H   0  0  0  0  0  0  0  0  0  0  0  0
    0.1282    4.0814    4.3116 H   0  0  0  0  0  0  0  0  0  0  0  0
   -0.7317    3.7994    2.8126 H   0  0  0  0  0  0  0  0  0  0  0  0
   -0.4812    1.1968    2.7762 N   0  0  0  0  0  0  0  0  0  0  0  0
   -0.1106   -0.1834    2.6051 C   0  0  2  0  0  0  0  0  0  0  0  0
   -0.0696   -0.4775    1.1113 C   0  0  0  0  0  0  0  0  0  0  0  0
   -0.6805    0.1900    0.2792 O   0  0  0  0  0  0  0  0  0  0  0  0
   -1.0852   -1.1101    3.3150 C   0  0  0  0  0  0  0  0  0  0  0  0
   -1.0883    1.6241    2.0791 H   0  0  0  0  0  0  0  0  0  0  0  0
    0.8937   -0.2959    3.0277 H   0  0  0  0  0  0  0  0  0  0  0  0
   -2.0970   -1.0114    2.9051 H   0  0  0  0  0  0  0  0  0  0  0  0
   -0.7860   -2.1580    3.2078 H   0  0  0  0  0  0  0  0  0  0  0  0
   -1.1357   -0.8775    4.3842 H   0  0  0  0  0  0  0  0  0  0  0  0
    0.6950   -1.6003    0.8178 N   0  0  0  0  0  0  0  0  0  0  0  0
    0.8777   -2.0908   -0.5246 C   0  0  2  0  0  0  0  0  0  0  0  0
    1.7680   -3.3246   -0.4458 C   0  0  0  0  0  0  0  0  0  0  0  0
    1.3590   -4.4261   -0.0839 O   0  0  0  0  0  0  0  0  0  0  0  0
    1.5010   -1.0343   -1.4371 C   0  0  0  0  0  0  0  0  0  0  0  0
    0.5601    0.1161   -1.7487 C   0  0  0  0  0  0  0  0  0  0  0  0
   -0.6311   -0.0212   -2.0111 O   0  0  0  0  0  0  0  0  0  0  0  0
    1.1952    1.3389   -1.6984 N   0  0  0  0  0  0  0  0  0  0  0  0
    1.1810   -2.0803    1.5718 H   0  0  0  0  0  0  0  0  0  0  0  0
   -0.1134   -2.3895   -0.8856 H   0  0  0  0  0  0  0  0  0  0  0  0
    2.3922   -0.6024   -0.9644 H   0  0  0  0  0  0  0  0  0  0  0  0
    1.8243   -1.4858   -2.3838 H   0  0  0  0  0  0  0  0  0  0  0  0
    2.1823    1.4051   -1.4735 H   0  0  0  0  0  0  0  0  0  0  0  0
    0.7093    2.2110   -1.8817 H   0  0  0  0  0  0  0  0  0  0  0  0
    3.0623   -3.0656   -0.8744 N   0  0  0  0  0  0  0  0  0  0  0  0
    4.0763   -4.0920   -0.9126 C   0  0  2  0  0  0  0  0  0  0  0  0
    3.5712   -5.2192   -1.8036 C   0  0  0  0  0  0  0  0  0  0  0  0
    2.3791   -5.4062   -2.0378 O   0  0  0  0  0  0  0  0  0  0  0  0
    4.3976   -4.6046    0.4827 C   0  0  0  0  0  0  0  0  0  0  0  0
    3.3139   -2.1303   -1.1805 H   0  0  0  0  0  0  0  0  0  0  0  0
    4.9667   -3.6404   -1.3634 H   0  0  0  0  0  0  0  0  0  0  0  0
    3.5174   -5.0606    0.9504 H   0  0  0  0  0  0  0  0  0  0  0  0
    5.1871   -5.3627    0.4549 H   0  0  0  0  0  0  0  0  0  0  0  0
    4.7323   -3.7873    1.1306 H   0  0  0  0  0  0  0  0  0  0  0  0
    4.6053   -6.0178   -2.2716 N   0  0  0  0  0  0  0  0  0  0  0  0
    4.3824   -7.1607   -3.1260 C   0  0  0  0  0  0  0  0  0  0  0  0
    5.5653   -5.7774   -2.0425 H   0  0  0  0  0  0  0  0  0  0  0  0
    4.2806   -8.0659   -2.5093 H   0  0  0  0  0  0  0  0  0  0  0  0
    3.4619   -7.0087   -3.7087 H   0  0  0  0  0  0  0  0  0  0  0  0
    5.2349   -7.2780   -3.8112 H   0  0  0  0  0  0  0  0  0  0  0  0
  1  3  1  0  0  0  0
  1  7  1  0  0  0  0
  1  2  2  0  0  0  0
 21 22  1  0  0  0  0
 22 24  1  0  0  0  0
 22 23  2  0  0  0  0
 32 33  1  0  0  0  0
 33 41  1  0  0  0  0
 33 34  2  0  0  0  0
  8  9  1  0  0  0  0
  9 17  1  0  0  0  0
  9 10  2  0  0  0  0
 18 19  1  0  0  0  0
 19 31  1  0  0  0  0
 19 20  2  0  0  0  0
 32 35  1  0  0  0  0
  8 11  1  0  0  0  0
 41 42  1  0  0  0  0
 18 21  1  0  0  0  0
 31 32  1  0  0  0  0
  7  8  1  0  0  0  0
 17 18  1  0  0  0  0
  3  4  1  0  0  0  0
  3  5  1  0  0  0  0
  3  6  1  0  0  0  0
 35 38  1  0  0  0  0
 35 39  1  0  0  0  0
 35 40  1  0  0  0  0
 11 14  1  0  0  0  0
 11 15  1  0  0  0  0
 11 16  1  0  0  0  0
 42 44  1  0  0  0  0
 42 45  1  0  0  0  0
 42 46  1  0  0  0  0
 21 27  1  0  0  0  0
 21 28  1  0  0  0  0
 32 37  1  0  0  0  0
  8 13  1  0  0  0  0
 18 26  1  0  0  0  0
 24 29  1  0  0  0  0
 24 30  1  0  0  0  0
 41 43  1  0  0  0  0
  7 12  1  0  0  0  0
 31 36  1  0  0  0  0
 17 25  1  0  0  0  0
M  END
$$$$

  -OEChem-05262214473D

 46 45  0     1  0  0  0  0  0999 V2000
   -0.0543    1.9736    3.8406 C   0  0  0  0  0  0  0  0  0  0  0  0
    0.6744    1.6099    4.7562 O   0  0  0  0  0  0  0  0  0  0  0  0
   -0.5599    3.3779    3.8160 C   0  0  0  0  0  0  0  0  0  0  0  0
   -1.5202    3.4885    4.3450 H   0  0  0  0  0  0  0  0  0  0  0  0
    0.1282    4.0814    4.3116 H   0  0  0  0  0  0  0  0  0  0  0  0
   -0.7317    3.7994    2.8126 H   0  0  0  0  0  0  0  0  0  0  0  0
   -0.4812    1.1968    2.7762 N   0  0  0  0  0  0  0  0  0  0  0  0
   -0.1106   -0.1834    2.6051 C   0  0  2  0  0  0  0  0  0  0  0  0
   -0.0696   -0.4775    1.1113 C   0  0  0  0  0  0  0  0  0  0  0  0
   -0.6805    0.1900    0.2792 O   0  0  0  0  0  0  0  0  0  0  0  0
   -1.0852   -1.1101    3.3150 C   0  0  0  0  0  0  0  0  0  0  0  0
   -1.0883    1.6241    2.0791 H   0  0  0  0  0  0  0  0  0  0  0  0
    0.8937   -0.2959    3.0277 H   0  0  0  0  0  0  0  0  0  0  0  0
   -2.0970   -1.0114    2.9051 H   0  0  0  0  0  0  0  0  0  0  0  0
   -0.7860   -2.1580    3.2078 H   0  0  0  0  0  0  0  0  0  0  0  0
   -1.1357   -0.8775    4.3842 H   0  0  0  0  0  0  0  0  0  0  0  0
    0.6950   -1.6003    0.8178 N   0  0  0  0  0  0  0  0  0  0  0  0
    0.8777   -2.0908   -0.5246 C   0  0  2  0  0  0  0  0  0  0  0  0
    1.7680   -3.3246   -0.4458 C   0  0  0  0  0  0  0  0  0  0  0  0
    1.3252   -4.4673   -0.3474 O   0  0  0  0  0  0  0  0  0  0  0  0
    1.5010   -1.0343   -1.4371 C   0  0  0  0  0  0  0  0  0  0  0  0
    0.5601    0.1161   -1.7487 C   0  0  0  0  0  0  0  0  0  0  0  0
   -0.6311   -0.0212   -2.0111 O   0  0  0  0  0  0  0  0  0  0  0  0
    1.1952    1.3389   -1.6984 N   0  0  0  0  0  0  0  0  0  0  0  0
    1.1810   -2.0803    1.5718 H   0  0  0  0  0  0  0  0  0  0  0  0
   -0.1134   -2.3895   -0.8856 H   0  0  0  0  0  0  0  0  0  0  0  0
    2.3922   -0.6024   -0.9644 H   0  0  0  0  0  0  0  0  0  0  0  0
    1.8243   -1.4858   -2.3838 H   0  0  0  0  0  0  0  0  0  0  0  0
    2.1823    1.4051   -1.4735 H   0  0  0  0  0  0  0  0  0  0  0  0
    0.7093    2.2110   -1.8817 H   0  0  0  0  0  0  0  0  0  0  0  0
    3.1150   -3.0068   -0.5485 N   0  0  0  0  0  0  0  0  0  0  0  0
    4.1445   -4.0181   -0.5255 C   0  0  2  0  0  0  0  0  0  0  0  0
    3.8699   -4.9946   -1.6615 C   0  0  0  0  0  0  0  0  0  0  0  0
    2.7588   -5.1404   -2.1669 O   0  0  0  0  0  0  0  0  0  0  0  0
    4.1827   -4.7385    0.8132 C   0  0  0  0  0  0  0  0  0  0  0  0
    3.3972   -2.0364   -0.6510 H   0  0  0  0  0  0  0  0  0  0  0  0
    5.0956   -3.5054   -0.7058 H   0  0  0  0  0  0  0  0  0  0  0  0
    3.2381   -5.2582    1.0113 H   0  0  0  0  0  0  0  0  0  0  0  0
    4.9827   -5.4857    0.8390 H   0  0  0  0  0  0  0  0  0  0  0  0
    4.3506   -4.0306    1.6321 H   0  0  0  0  0  0  0  0  0  0  0  0
    5.0020   -5.7152   -2.0155 N   0  0  0  0  0  0  0  0  0  0  0  0
    4.9959   -6.7136   -3.0590 C   0  0  0  0  0  0  0  0  0  0  0  0
    5.8855   -5.5152   -1.5559 H   0  0  0  0  0  0  0  0  0  0  0  0
    4.7945   -7.7021   -2.6204 H   0  0  0  0  0  0  0  0  0  0  0  0
    4.2131   -6.4720   -3.7931 H   0  0  0  0  0  0  0  0  0  0  0  0
    5.9757   -6.7273   -3.5589 H   0  0  0  0  0  0  0  0  0  0  0  0
  1  3  1  0  0  0  0
  1  7  1  0  0  0  0
  1  2  2  0  0  0  0
 21 22  1  0  0  0  0
 22 24  1  0  0  0  0
 22 23  2  0  0  0  0
 32 33  1  0  0  0  0
 33 41  1  0  0  0  0
 33 34  2  0  0  0  0
  8  9  1  0  0  0  0
  9 17  1  0  0  0  0
  9 10  2  0  0  0  0
 18 19  1  0  0  0  0
 19 31  1  0  0  0  0
 19 20  2  0  0  0  0
 32 35  1  0  0  0  0
  8 11  1  0  0  0  0
 41 42  1  0  0  0  0
 18 21  1  0  0  0  0
 31 32  1  0  0  0  0
  7  8  1  0  0  0  0
 17 18  1  0  0  0  0
  3  4  1  0  0  0  0
  3  5  1  0  0  0  0
  3  6  1  0  0  0  0
 35 38  1  0  0  0  0
 35 39  1  0  0  0  0
 35 40  1  0  0  0  0
 11 14  1  0  0  0  0
 11 15  1  0  0  0  0
 11 16  1  0  0  0  0
 42 44  1  0  0  0  0
 42 45  1  0  0  0  0
 42 46  1  0  0  0  0
 21 27  1  0  0  0  0
 21 28  1  0  0  0  0
 32 37  1  0  0  0  0
  8 13  1  0  0  0  0
 18 26  1  0  0  0  0
 24 29  1  0  0  0  0
 24 30  1  0  0  0  0
 41 43  1  0  0  0  0
  7 12  1  0  0  0  0
 31 36  1  0  0  0  0
 17 25  1  0  0  0  0
M  END
$$$$

  -OEChem-05262214473D

 46 45  0     1  0  0  0  0  0999 V2000
   -0.0543    1.9736    3.8406 C   0  0  0  0  0  0  0  0  0  0  0  0
    0.6744    1.6099    4.7562 O   0  0  0  0  0  0  0  0  0  0  0  0
   -0.5599    3.3779    3.8160 C   0  0  0  0  0  0  0  0  0  0  0  0
   -1.5202    3.4885    4.3450 H   0  0  0  0  0  0  0  0  0  0  0  0
    0.1282    4.0814    4.3116 H   0  0  0  0  0  0  0  0  0  0  0  0
   -0.7317    3.7994    2.8126 H   0  0  0  0  0  0  0  0  0  0  0  0
   -0.4812    1.1968    2.7762 N   0  0  0  0  0  0  0  0  0  0  0  0
   -0.1106   -0.1834    2.6051 C   0  0  2  0  0  0  0  0  0  0  0  0
   -0.0696   -0.4775    1.1113 C   0  0  0  0  0  0  0  0  0  0  0  0
   -0.6805    0.1900    0.2792 O   0  0  0  0  0  0  0  0  0  0  0  0
   -1.0852   -1.1101    3.3150 C   0  0  0  0  0  0  0  0  0  0  0  0
   -1.0883    1.6241    2.0791 H   0  0  0  0  0  0  0  0  0  0  0  0
    0.8937   -0.2959    3.0277 H   0  0  0  0  0  0  0  0  0  0  0  0
   -2.0970   -1.0114    2.9051 H   0  0  0  0  0  0  0  0  0  0  0  0
   -0.7860   -2.1580    3.2078 H   0  0  0  0  0  0  0  0  0  0  0  0
   -1.1357   -0.8775    4.3842 H   0  0  0  0  0  0  0  0  0  0  0  0
    0.6950   -1.6003    0.8178 N   0  0  0  0  0  0  0  0  0  0  0  0
    0.8777   -2.0908   -0.5246 C   0  0  2  0  0  0  0  0  0  0  0  0
    1.7680   -3.3246   -0.4458 C   0  0  0  0  0  0  0  0  0  0  0  0
    1.3483   -4.4677   -0.6152 O   0  0  0  0  0  0  0  0  0  0  0  0
    1.5010   -1.0343   -1.4371 C   0  0  0  0  0  0  0  0  0  0  0  0
    0.5601    0.1161   -1.7487 C   0  0  0  0  0  0  0  0  0  0  0  0
   -0.6311   -0.0212   -2.0111 O   0  0  0  0  0  0  0  0  0  0  0  0
    1.1952    1.3389   -1.6984 N   0  0  0  0  0  0  0  0  0  0  0  0
    1.1810   -2.0803    1.5718 H   0  0  0  0  0  0  0  0  0  0  0  0
   -0.1134   -2.3895   -0.8856 H   0  0  0  0  0  0  0  0  0  0  0  0
    2.3922   -0.6024   -0.9644 H   0  0  0  0  0  0  0  0  0  0  0  0
    1.8243   -1.4858   -2.3838 H   0  0  0  0  0  0  0  0  0  0  0  0
    2.1823    1.4051   -1.4735 H   0  0  0  0  0  0  0  0  0  0  0  0
    0.7093    2.2110   -1.8817 H   0  0  0  0  0  0  0  0  0  0  0  0
    3.0968   -2.9985   -0.2136 N   0  0  0  0  0  0  0  0  0  0  0  0
    4.1283   -4.0043   -0.1262 C   0  0  2  0  0  0  0  0  0  0  0  0
    4.1255   -4.7952   -1.4277 C   0  0  0  0  0  0  0  0  0  0  0  0
    3.1491   -4.8590   -2.1718 O   0  0  0  0  0  0  0  0  0  0  0  0
    3.9076   -4.9208    1.0672 C   0  0  0  0  0  0  0  0  0  0  0  0
    3.3654   -2.0246   -0.1079 H   0  0  0  0  0  0  0  0  0  0  0  0
    5.0805   -3.4727   -0.0232 H   0  0  0  0  0  0  0  0  0  0  0  0
    2.9583   -5.4620    0.9818 H   0  0  0  0  0  0  0  0  0  0  0  0
    4.7064   -5.6653    1.1487 H   0  0  0  0  0  0  0  0  0  0  0  0
    3.8801   -4.3467    1.9996 H   0  0  0  0  0  0  0  0  0  0  0  0
    5.3273   -5.4564   -1.6391 N   0  0  0  0  0  0  0  0  0  0  0  0
    5.5686   -6.2838   -2.7981 C   0  0  0  0  0  0  0  0  0  0  0  0
    6.0893   -5.3314   -0.9792 H   0  0  0  0  0  0  0  0  0  0  0  0
    5.3093   -7.3270   -2.5649 H   0  0  0  0  0  0  0  0  0  0  0  0
    4.9493   -5.9307   -3.6359 H   0  0  0  0  0  0  0  0  0  0  0  0
    6.6310   -6.2236   -3.0767 H   0  0  0  0  0  0  0  0  0  0  0  0
  1  3  1  0  0  0  0
  1  7  1  0  0  0  0
  1  2  2  0  0  0  0
 21 22  1  0  0  0  0
 22 24  1  0  0  0  0
 22 23  2  0  0  0  0
 32 33  1  0  0  0  0
 33 41  1  0  0  0  0
 33 34  2  0  0  0  0
  8  9  1  0  0  0  0
  9 17  1  0  0  0  0
  9 10  2  0  0  0  0
 18 19  1  0  0  0  0
 19 31  1  0  0  0  0
 19 20  2  0  0  0  0
 32 35  1  0  0  0  0
  8 11  1  0  0  0  0
 41 42  1  0  0  0  0
 18 21  1  0  0  0  0
 31 32  1  0  0  0  0
  7  8  1  0  0  0  0
 17 18  1  0  0  0  0
  3  4  1  0  0  0  0
  3  5  1  0  0  0  0
  3  6  1  0  0  0  0
 35 38  1  0  0  0  0
 35 39  1  0  0  0  0
 35 40  1  0  0  0  0
 11 14  1  0  0  0  0
 11 15  1  0  0  0  0
 11 16  1  0  0  0  0
 42 44  1  0  0  0  0
 42 45  1  0  0  0  0
 42 46  1  0  0  0  0
 21 27  1  0  0  0  0
 21 28  1  0  0  0  0
 32 37  1  0  0  0  0
  8 13  1  0  0  0  0
 18 26  1  0  0  0  0
 24 29  1  0  0  0  0
 24 30  1  0  0  0  0
 41 43  1  0  0  0  0
  7 12  1  0  0  0  0
 31 36  1  0  0  0  0
 17 25  1  0  0  0  0
M  END
$$$$

  -OEChem-05262214473D

 46 45  0     1  0  0  0  0  0999 V2000
   -0.0543    1.9736    3.8406 C   0  0  0  0  0  0  0  0  0  0  0  0
    0.6744    1.6099    4.7562 O   0  0  0  0  0  0  0  0  0  0  0  0
   -0.5599    3.3779    3.8160 C   0  0  0  0  0  0  0  0  0  0  0  0
   -1.5202    3.4885    4.3450 H   0  0  0  0  0  0  0  0  0  0  0  0
    0.1282    4.0814    4.3116 H   0  0  0  0  0  0  0  0  0  0  0  0
   -0.7317    3.7994    2.8126 H   0  0  0  0  0  0  0  0  0  0  0  0
   -0.4812    1.1968    2.7762 N   0  0  0  0  0  0  0  0  0  0  0  0
   -0.1106   -0.1834    2.6051 C   0  0  2  0  0  0  0  0  0  0  0  0
   -0.0696   -0.4775    1.1113 C   0  0  0  0  0  0  0  0  0  0  0  0
   -0.6805    0.1900    0.2792 O   0  0  0  0  0  0  0  0  0  0  0  0
   -1.0852   -1.1101    3.3150 C   0  0  0  0  0  0  0  0  0  0  0  0
   -1.0883    1.6241    2.0791 H   0  0  0  0  0  0  0  0  0  0  0  0
    0.8937   -0.2959    3.0277 H   0  0  0  0  0  0  0  0  0  0  0  0
   -2.0970   -1.0114    2.9051 H   0  0  0  0  0  0  0  0  0  0  0  0
   -0.7860   -2.1580    3.2078 H   0  0  0  0  0  0  0  0  0  0  0  0
   -1.1357   -0.8775    4.3842 H   0  0  0  0  0  0  0  0  0  0  0  0
    0.6950   -1.6003    0.8178 N   0  0  0  0  0  0  0  0  0  0  0  0
    0.8777   -2.0908   -0.5246 C   0  0  2  0  0  0  0  0  0  0  0  0
    1.7680   -3.3246   -0.4458 C   0  0  0  0  0  0  0  0  0  0  0  0
    1.4268   -4.4273   -0.8691 O   0  0  0  0  0  0  0  0  0  0  0  0
    1.5010   -1.0343   -1.4371 C   0  0  0  0  0  0  0  0  0  0  0  0
    0.5601    0.1161   -1.7487 C   0  0  0  0  0  0  0  0  0  0  0  0
   -0.6311   -0.0212   -2.0111 O   0  0  0  0  0  0  0  0  0  0  0  0
    1.1952    1.3389   -1.6984 N   0  0  0  0  0  0  0  0  0  0  0  0
    1.1810   -2.0803    1.5718 H   0  0  0  0  0  0  0  0  0  0  0  0
   -0.1134   -2.3895   -0.8856 H   0  0  0  0  0  0  0  0  0  0  0  0
    2.3922   -0.6024   -0.9644 H   0  0  0  0  0  0  0  0  0  0  0  0
    1.8243   -1.4858   -2.3838 H   0  0  0  0  0  0  0  0  0  0  0  0
    2.1823    1.4051   -1.4735 H   0  0  0  0  0  0  0  0  0  0  0  0
    0.7093    2.2110   -1.8817 H   0  0  0  0  0  0  0  0  0  0  0  0
    3.0090   -3.0414    0.1072 N   0  0  0  0  0  0  0  0  0  0  0  0
    4.0287   -4.0516    0.2583 C   0  0  2  0  0  0  0  0  0  0  0  0
    4.3208   -4.6345   -1.1181 C   0  0  0  0  0  0  0  0  0  0  0  0
    3.5234   -4.5813   -2.0521 O   0  0  0  0  0  0  0  0  0  0  0  0
    3.5912   -5.1389    1.2273 C   0  0  0  0  0  0  0  0  0  0  0  0
    3.2207   -2.0959    0.4119 H   0  0  0  0  0  0  0  0  0  0  0  0
    4.9224   -3.5445    0.6380 H   0  0  0  0  0  0  0  0  0  0  0  0
    2.6969   -5.6582    0.8637 H   0  0  0  0  0  0  0  0  0  0  0  0
    4.3770   -5.8894    1.3627 H   0  0  0  0  0  0  0  0  0  0  0  0
    3.3529   -4.7139    2.2083 H   0  0  0  0  0  0  0  0  0  0  0  0
    5.5593   -5.2589   -1.1683 N   0  0  0  0  0  0  0  0  0  0  0  0
    6.0612   -5.9003   -2.3610 C   0  0  0  0  0  0  0  0  0  0  0  0
    6.1628   -5.2382   -0.3515 H   0  0  0  0  0  0  0  0  0  0  0  0
    5.7899   -6.9663   -2.3466 H   0  0  0  0  0  0  0  0  0  0  0  0
    5.6201   -5.4218   -3.2479 H   0  0  0  0  0  0  0  0  0  0  0  0
    7.1561   -5.8012   -2.3974 H   0  0  0  0  0  0  0  0  0  0  0  0
  1  3  1  0  0  0  0
  1  7  1  0  0  0  0
  1  2  2  0  0  0  0
 21 22  1  0  0  0  0
 22 24  1  0  0  0  0
 22 23  2  0  0  0  0
 32 33  1  0  0  0  0
 33 41  1  0  0  0  0
 33 34  2  0  0  0  0
  8  9  1  0  0  0  0
  9 17  1  0  0  0  0
  9 10  2  0  0  0  0
 18 19  1  0  0  0  0
 19 31  1  0  0  0  0
 19 20  2  0  0  0  0
 32 35  1  0  0  0  0
  8 11  1  0  0  0  0
 41 42  1  0  0  0  0
 18 21  1  0  0  0  0
 31 32  1  0  0  0  0
  7  8  1  0  0  0  0
 17 18  1  0  0  0  0
  3  4  1  0  0  0  0
  3  5  1  0  0  0  0
  3  6  1  0  0  0  0
 35 38  1  0  0  0  0
 35 39  1  0  0  0  0
 35 40  1  0  0  0  0
 11 14  1  0  0  0  0
 11 15  1  0  0  0  0
 11 16  1  0  0  0  0
 42 44  1  0  0  0  0
 42 45  1  0  0  0  0
 42 46  1  0  0  0  0
 21 27  1  0  0  0  0
 21 28  1  0  0  0  0
 32 37  1  0  0  0  0
  8 13  1  0  0  0  0
 18 26  1  0  0  0  0
 24 29  1  0  0  0  0
 24 30  1  0  0  0  0
 41 43  1  0  0  0  0
  7 12  1  0  0  0  0
 31 36  1  0  0  0  0
 17 25  1  0  0  0  0
M  END
$$$$

  -OEChem-05262214473D

 46 45  0     1  0  0  0  0  0999 V2000
   -0.0543    1.9736    3.8406 C   0  0  0  0  0  0  0  0  0  0  0  0
    0.6744    1.6099    4.7562 O   0  0  0  0  0  0  0  0  0  0  0  0
   -0.5599    3.3779    3.8160 C   0  0  0  0  0  0  0  0  0  0  0  0
   -1.5202    3.4885    4.3450 H   0  0  0  0  0  0  0  0  0  0  0  0
    0.1282    4.0814    4.3116 H   0  0  0  0  0  0  0  0  0  0  0  0
   -0.7317    3.7994    2.8126 H   0  0  0  0  0  0  0  0  0  0  0  0
   -0.4812    1.1968    2.7762 N   0  0  0  0  0  0  0  0  0  0  0  0
   -0.1106   -0.1834    2.6051 C   0  0  2  0  0  0  0  0  0  0  0  0
   -0.0696   -0.4775    1.1113 C   0  0  0  0  0  0  0  0  0  0  0  0
   -0.6805    0.1900    0.2792 O   0  0  0  0  0  0  0  0  0  0  0  0
   -1.0852   -1.1101    3.3150 C   0  0  0  0  0  0  0  0  0  0  0  0
   -1.0883    1.6241    2.0791 H   0  0  0  0  0  0  0  0  0  0  0  0
    0.8937   -0.2959    3.0277 H   0  0  0  0  0  0  0  0  0  0  0  0
   -2.0970   -1.0114    2.9051 H   0  0  0  0  0  0  0  0  0  0  0  0
   -0.7860   -2.1580    3.2078 H   0  0  0  0  0  0  0  0  0  0  0  0
   -1.1357   -0.8775    4.3842 H   0  0  0  0  0  0  0  0  0  0  0  0
    0.6950   -1.6003    0.8178 N   0  0  0  0  0  0  0  0  0  0  0  0
    0.8777   -2.0908   -0.5246 C   0  0  2  0  0  0  0  0  0  0  0  0
    1.7680   -3.3246   -0.4458 C   0  0  0  0  0  0  0  0  0  0  0  0
    1.5553   -4.3487   -1.0918 O   0  0  0  0  0  0  0  0  0  0  0  0
    1.5010   -1.0343   -1.4371 C   0  0  0  0  0  0  0  0  0  0  0  0
    0.5601    0.1161   -1.7487 C   0  0  0  0  0  0  0  0  0  0  0  0
   -0.6311   -0.0212   -2.0111 O   0  0  0  0  0  0  0  0  0  0  0  0
    1.1952    1.3389   -1.6984 N   0  0  0  0  0  0  0  0  0  0  0  0
    1.1810   -2.0803    1.5718 H   0  0  0  0  0  0  0  0  0  0  0  0
   -0.1134   -2.3895   -0.8856 H   0  0  0  0  0  0  0  0  0  0  0  0
    2.3922   -0.6024   -0.9644 H   0  0  0  0  0  0  0  0  0  0  0  0
    1.8243   -1.4858   -2.3838 H   0  0  0  0  0  0  0  0  0  0  0  0
    2.1823    1.4051   -1.4735 H   0  0  0  0  0  0  0  0  0  0  0  0
    0.7093    2.2110   -1.8817 H   0  0  0  0  0  0  0  0  0  0  0  0
    2.8574   -3.1326    0.3922 N   0  0  0  0  0  0  0  0  0  0  0  0
    3.8526   -4.1568    0.6016 C   0  0  2  0  0  0  0  0  0  0  0  0
    4.4424   -4.5235   -0.7538 C   0  0  0  0  0  0  0  0  0  0  0  0
    3.8561   -4.3261   -1.8161 O   0  0  0  0  0  0  0  0  0  0  0  0
    3.2549   -5.3781    1.2826 C   0  0  0  0  0  0  0  0  0  0  0  0
    2.9730   -2.2452    0.8728 H   0  0  0  0  0  0  0  0  0  0  0  0
    4.6321   -3.7161    1.2326 H   0  0  0  0  0  0  0  0  0  0  0  0
    2.4718   -5.8333    0.6652 H   0  0  0  0  0  0  0  0  0  0  0  0
    4.0169   -6.1426    1.4665 H   0  0  0  0  0  0  0  0  0  0  0  0
    2.8048   -5.1072    2.2437 H   0  0  0  0  0  0  0  0  0  0  0  0
    5.6820   -5.1363   -0.6350 N   0  0  0  0  0  0  0  0  0  0  0  0
    6.4404   -5.5895   -1.7776 C   0  0  0  0  0  0  0  0  0  0  0  0
    6.1010   -5.2422    0.2842 H   0  0  0  0  0  0  0  0  0  0  0  0
    6.2036   -6.6444   -1.9805 H   0  0  0  0  0  0  0  0  0  0  0  0
    6.1800   -4.9799   -2.6555 H   0  0  0  0  0  0  0  0  0  0  0  0
    7.5154   -5.4890   -1.5672 H   0  0  0  0  0  0  0  0  0  0  0  0
  1  3  1  0  0  0  0
  1  7  1  0  0  0  0
  1  2  2  0  0  0  0
 21 22  1  0  0  0  0
 22 24  1  0  0  0  0
 22 23  2  0  0  0  0
 32 33  1  0  0  0  0
 33 41  1  0  0  0  0
 33 34  2  0  0  0  0
  8  9  1  0  0  0  0
  9 17  1  0  0  0  0
  9 10  2  0  0  0  0
 18 19  1  0  0  0  0
 19 31  1  0  0  0  0
 19 20  2  0  0  0  0
 32 35  1  0  0  0  0
  8 11  1  0  0  0  0
 41 42  1  0  0  0  0
 18 21  1  0  0  0  0
 31 32  1  0  0  0  0
  7  8  1  0  0  0  0
 17 18  1  0  0  0  0
  3  4  1  0  0  0  0
  3  5  1  0  0  0  0
  3  6  1  0  0  0  0
 35 38  1  0  0  0  0
 35 39  1  0  0  0  0
 35 40  1  0  0  0  0
 11 14  1  0  0  0  0
 11 15  1  0  0  0  0
 11 16  1  0  0  0  0
 42 44  1  0  0  0  0
 42 45  1  0  0  0  0
 42 46  1  0  0  0  0
 21 27  1  0  0  0  0
 21 28  1  0  0  0  0
 32 37  1  0  0  0  0
  8 13  1  0  0  0  0
 18 26  1  0  0  0  0
 24 29  1  0  0  0  0
 24 30  1  0  0  0  0
 41 43  1  0  0  0  0
  7 12  1  0  0  0  0
 31 36  1  0  0  0  0
 17 25  1  0  0  0  0
M  END
$$$$

  -OEChem-05262214473D

 46 45  0     1  0  0  0  0  0999 V2000
   -0.0543    1.9736    3.8406 C   0  0  0  0  0  0  0  0  0  0  0  0
    0.6744    1.6099    4.7562 O   0  0  0  0  0  0  0  0  0  0  0  0
   -0.5599    3.3779    3.8160 C   0  0  0  0  0  0  0  0  0  0  0  0
   -1.5202    3.4885    4.3450 H   0  0  0  0  0  0  0  0  0  0  0  0
    0.1282    4.0814    4.3116 H   0  0  0  0  0  0  0  0  0  0  0  0
   -0.7317    3.7994    2.8126 H   0  0  0  0  0  0  0  0  0  0  0  0
   -0.4812    1.1968    2.7762 N   0  0  0  0  0  0  0  0  0  0  0  0
   -0.1106   -0.1834    2.6051 C   0  0  2  0  0  0  0  0  0  0  0  0
   -0.0696   -0.4775    1.1113 C   0  0  0  0  0  0  0  0  0  0  0  0
   -0.6805    0.1900    0.2792 O   0  0  0  0  0  0  0  0  0  0  0  0
   -1.0852   -1.1101    3.3150 C   0  0  0  0  0  0  0  0  0  0  0  0
   -1.0883    1.6241    2.0791 H   0  0  0  0  0  0  0  0  0  0  0  0
    0.8937   -0.2959    3.0277 H   0  0  0  0  0  0  0  0  0  0  0  0
   -2.0970   -1.0114    2.9051 H   0  0  0  0  0  0  0  0  0  0  0  0
   -0.7860   -2.1580    3.2078 H   0  0  0  0  0  0  0  0  0  0  0  0
   -1.1357   -0.8775    4.3842 H   0  0  0  0  0  0  0  0  0  0  0  0
    0.6950   -1.6003    0.8178 N   0  0  0  0  0  0  0  0  0  0  0  0
    0.8777   -2.0908   -0.5246 C   0  0  2  0  0  0  0  0  0  0  0  0
    1.7680   -3.3246   -0.4458 C   0  0  0  0  0  0  0  0  0  0  0  0
    1.7250   -4.2375   -1.2681 O   0  0  0  0  0  0  0  0  0  0  0  0
    1.5010   -1.0343   -1.4371 C   0  0  0  0  0  0  0  0  0  0  0  0
    0.5601    0.1161   -1.7487 C   0  0  0  0  0  0  0  0  0  0  0  0
   -0.6311   -0.0212   -2.0111 O   0  0  0  0  0  0  0  0  0  0  0  0
    1.1952    1.3389   -1.6984 N   0  0  0  0  0  0  0  0  0  0  0  0
    1.1810   -2.0803    1.5718 H   0  0  0  0  0  0  0  0  0  0  0  0
   -0.1134   -2.3895   -0.8856 H   0  0  0  0  0  0  0  0  0  0  0  0
    2.3922   -0.6024   -0.9644 H   0  0  0  0  0  0  0  0  0  0  0  0
    1.8243   -1.4858   -2.3838 H   0  0  0  0  0  0  0  0  0  0  0  0
    2.1823    1.4051   -1.4735 H   0  0  0  0  0  0  0  0  0  0  0  0
    0.7093    2.2110   -1.8817 H   0  0  0  0  0  0  0  0  0  0  0  0
    2.6525   -3.2658    0.6220 N   0  0  0  0  0  0  0  0  0  0  0  0
    3.6119   -4.3127    0.8804 C   0  0  2  0  0  0  0  0  0  0  0  0
    4.4820   -4.4697   -0.3597 C   0  0  0  0  0  0  0  0  0  0  0  0
    4.1246   -4.1109   -1.4798 O   0  0  0  0  0  0  0  0  0  0  0  0
    2.9216   -5.6220    1.2294 C   0  0  0  0  0  0  0  0  0  0  0  0
    2.6391   -2.4625    1.2435 H   0  0  0  0  0  0  0  0  0  0  0  0
    4.2293   -3.9756    1.7201 H   0  0  0  0  0  0  0  0  0  0  0  0
    2.2983   -5.9754    0.3998 H   0  0  0  0  0  0  0  0  0  0  0  0
    3.6508   -6.4077    1.4530 H   0  0  0  0  0  0  0  0  0  0  0  0
    2.2731   -5.4997    2.1036 H   0  0  0  0  0  0  0  0  0  0  0  0
    5.6871   -5.0969   -0.0757 N   0  0  0  0  0  0  0  0  0  0  0  0
    6.6801   -5.3724   -1.0876 C   0  0  0  0  0  0  0  0  0  0  0  0
    5.9081   -5.3431    0.8847 H   0  0  0  0  0  0  0  0  0  0  0  0
    6.5221   -6.3833   -1.4915 H   0  0  0  0  0  0  0  0  0  0  0  0
    6.5907   -4.6352   -1.8991 H   0  0  0  0  0  0  0  0  0  0  0  0
    7.6842   -5.3082   -0.6429 H   0  0  0  0  0  0  0  0  0  0  0  0
  1  3  1  0  0  0  0
  1  7  1  0  0  0  0
  1  2  2  0  0  0  0
 21 22  1  0  0  0  0
 22 24  1  0  0  0  0
 22 23  2  0  0  0  0
 32 33  1  0  0  0  0
 33 41  1  0  0  0  0
 33 34  2  0  0  0  0
  8  9  1  0  0  0  0
  9 17  1  0  0  0  0
  9 10  2  0  0  0  0
 18 19  1  0  0  0  0
 19 31  1  0  0  0  0
 19 20  2  0  0  0  0
 32 35  1  0  0  0  0
  8 11  1  0  0  0  0
 41 42  1  0  0  0  0
 18 21  1  0  0  0  0
 31 32  1  0  0  0  0
  7  8  1  0  0  0  0
 17 18  1  0  0  0  0
  3  4  1  0  0  0  0
  3  5  1  0  0  0  0
  3  6  1  0  0  0  0
 35 38  1  0  0  0  0
 35 39  1  0  0  0  0
 35 40  1  0  0  0  0
 11 14  1  0  0  0  0
 11 15  1  0  0  0  0
 11 16  1  0  0  0  0
 42 44  1  0  0  0  0
 42 45  1  0  0  0  0
 42 46  1  0  0  0  0
 21 27  1  0  0  0  0
 21 28  1  0  0  0  0
 32 37  1  0  0  0  0
  8 13  1  0  0  0  0
 18 26  1  0  0  0  0
 24 29  1  0  0  0  0
 24 30  1  0  0  0  0
 41 43  1  0  0  0  0
  7 12  1  0  0  0  0
 31 36  1  0  0  0  0
 17 25  1  0  0  0  0
M  END
$$$$

  -OEChem-05262214473D

 46 45  0     1  0  0  0  0  0999 V2000
   -0.0543    1.9736    3.8406 C   0  0  0  0  0  0  0  0  0  0  0  0
    0.6744    1.6099    4.7562 O   0  0  0  0  0  0  0  0  0  0  0  0
   -0.5599    3.3779    3.8160 C   0  0  0  0  0  0  0  0  0  0  0  0
   -1.5202    3.4885    4.3450 H   0  0  0  0  0  0  0  0  0  0  0  0
    0.1282    4.0814    4.3116 H   0  0  0  0  0  0  0  0  0  0  0  0
   -0.7317    3.7994    2.8126 H   0  0  0  0  0  0  0  0  0  0  0  0
   -0.4812    1.1968    2.7762 N   0  0  0  0  0  0  0  0  0  0  0  0
   -0.1106   -0.1834    2.6051 C   0  0  2  0  0  0  0  0  0  0  0  0
   -0.0696   -0.4775    1.1113 C   0  0  0  0  0  0  0  0  0  0  0  0
   -0.6805    0.1900    0.2792 O   0  0  0  0  0  0  0  0  0  0  0  0
   -1.0852   -1.1101    3.3150 C   0  0  0  0  0  0  0  0  0  0  0  0
   -1.0883    1.6241    2.0791 H   0  0  0  0  0  0  0  0  0  0  0  0
    0.8937   -0.2959    3.0277 H   0  0  0  0  0  0  0  0  0  0  0  0
   -2.0970   -1.0114    2.9051 H   0  0  0  0  0  0  0  0  0  0  0  0
   -0.7860   -2.1580    3.2078 H   0  0  0  0  0  0  0  0  0  0  0  0
   -1.1357   -0.8775    4.3842 H   0  0  0  0  0  0  0  0  0  0  0  0
    0.6950   -1.6003    0.8178 N   0  0  0  0  0  0  0  0  0  0  0  0
    0.8777   -2.0908   -0.5246 C   0  0  2  0  0  0  0  0  0  0  0  0
    1.7680   -3.3246   -0.4458 C   0  0  0  0  0  0  0  0  0  0  0  0
    1.9244   -4.1011   -1.3860 O   0  0  0  0  0  0  0  0  0  0  0  0
    1.5010   -1.0343   -1.4371 C   0  0  0  0  0  0  0  0  0  0  0  0
    0.5601    0.1161   -1.7487 C   0  0  0  0  0  0  0  0  0  0  0  0
   -0.6311   -0.0212   -2.0111 O   0  0  0  0  0  0  0  0  0  0  0  0
    1.1952    1.3389   -1.6984 N   0  0  0  0  0  0  0  0  0  0  0  0
    1.1810   -2.0803    1.5718 H   0  0  0  0  0  0  0  0  0  0  0  0
   -0.1134   -2.3895   -0.8856 H   0  0  0  0  0  0  0  0  0  0  0  0
    2.3922   -0.6024   -0.9644 H   0  0  0  0  0  0  0  0  0  0  0  0
    1.8243   -1.4858   -2.3838 H   0  0  0  0  0  0  0  0  0  0  0  0
    2.1823    1.4051   -1.4735 H   0  0  0  0  0  0  0  0  0  0  0  0
    0.7093    2.2110   -1.8817 H   0  0  0  0  0  0  0  0  0  0  0  0
    2.4083   -3.4319    0.7808 N   0  0  0  0  0  0  0  0  0  0  0  0
    3.3231   -4.5086    1.0756 C   0  0  2  0  0  0  0  0  0  0  0  0
    4.4370   -4.4769    0.0375 C   0  0  0  0  0  0  0  0  0  0  0  0
    4.3106   -3.9503   -1.0661 O   0  0  0  0  0  0  0  0  0  0  0  0
    2.6141   -5.8540    1.0712 C   0  0  0  0  0  0  0  0  0  0  0  0
    2.2418   -2.7329    1.4987 H   0  0  0  0  0  0  0  0  0  0  0  0
    3.7416   -4.3054    2.0674 H   0  0  0  0  0  0  0  0  0  0  0  0
    2.1883   -6.0749    0.0856 H   0  0  0  0  0  0  0  0  0  0  0  0
    3.3035   -6.6666    1.3231 H   0  0  0  0  0  0  0  0  0  0  0  0
    1.7943   -5.8649    1.7975 H   0  0  0  0  0  0  0  0  0  0  0  0
    5.5742   -5.1434    0.4717 N   0  0  0  0  0  0  0  0  0  0  0  0
    6.7642   -5.2639   -0.3379 C   0  0  0  0  0  0  0  0  0  0  0  0
    5.5972   -5.5339    1.4091 H   0  0  0  0  0  0  0  0  0  0  0  0
    6.7238   -6.2008   -0.9129 H   0  0  0  0  0  0  0  0  0  0  0  0
    6.8243   -4.4112   -1.0303 H   0  0  0  0  0  0  0  0  0  0  0  0
    7.6511   -5.2710    0.3127 H   0  0  0  0  0  0  0  0  0  0  0  0
  1  3  1  0  0  0  0
  1  7  1  0  0  0  0
  1  2  2  0  0  0  0
 21 22  1  0  0  0  0
 22 24  1  0  0  0  0
 22 23  2  0  0  0  0
 32 33  1  0  0  0  0
 33 41  1  0  0  0  0
 33 34  2  0  0  0  0
  8  9  1  0  0  0  0
  9 17  1  0  0  0  0
  9 10  2  0  0  0  0
 18 19  1  0  0  0  0
 19 31  1  0  0  0  0
 19 20  2  0  0  0  0
 32 35  1  0  0  0  0
  8 11  1  0  0  0  0
 41 42  1  0  0  0  0
 18 21  1  0  0  0  0
 31 32  1  0  0  0  0
  7  8  1  0  0  0  0
 17 18  1  0  0  0  0
  3  4  1  0  0  0  0
  3  5  1  0  0  0  0
  3  6  1  0  0  0  0
 35 38  1  0  0  0  0
 35 39  1  0  0  0  0
 35 40  1  0  0  0  0
 11 14  1  0  0  0  0
 11 15  1  0  0  0  0
 11 16  1  0  0  0  0
 42 44  1  0  0  0  0
 42 45  1  0  0  0  0
 42 46  1  0  0  0  0
 21 27  1  0  0  0  0
 21 28  1  0  0  0  0
 32 37  1  0  0  0  0
  8 13  1  0  0  0  0
 18 26  1  0  0  0  0
 24 29  1  0  0  0  0
 24 30  1  0  0  0  0
 41 43  1  0  0  0  0
  7 12  1  0  0  0  0
 31 36  1  0  0  0  0
 17 25  1  0  0  0  0
M  END
$$$$

  -OEChem-05262214473D

 46 45  0     1  0  0  0  0  0999 V2000
   -0.0543    1.9736    3.8406 C   0  0  0  0  0  0  0  0  0  0  0  0
    0.6744    1.6099    4.7562 O   0  0  0  0  0  0  0  0  0  0  0  0
   -0.5599    3.3779    3.8160 C   0  0  0  0  0  0  0  0  0  0  0  0
   -1.5202    3.4885    4.3450 H   0  0  0  0  0  0  0  0  0  0  0  0
    0.1282    4.0814    4.3116 H   0  0  0  0  0  0  0  0  0  0  0  0
   -0.7317    3.7994    2.8126 H   0  0  0  0  0  0  0  0  0  0  0  0
   -0.4812    1.1968    2.7762 N   0  0  0  0  0  0  0  0  0  0  0  0
   -0.1106   -0.1834    2.6051 C   0  0  2  0  0  0  0  0  0  0  0  0
   -0.0696   -0.4775    1.1113 C   0  0  0  0  0  0  0  0  0  0  0  0
   -0.6805    0.1900    0.2792 O   0  0  0  0  0  0  0  0  0  0  0  0
   -1.0852   -1.1101    3.3150 C   0  0  0  0  0  0  0  0  0  0  0  0
   -1.0883    1.6241    2.0791 H   0  0  0  0  0  0  0  0  0  0  0  0
    0.8937   -0.2959    3.0277 H   0  0  0  0  0  0  0  0  0  0  0  0
   -2.0970   -1.0114    2.9051 H   0  0  0  0  0  0  0  0  0  0  0  0
   -0.7860   -2.1580    3.2078 H   0  0  0  0  0  0  0  0  0  0  0  0
   -1.1357   -0.8775    4.3842 H   0  0  0  0  0  0  0  0  0  0  0  0
    0.6950   -1.6003    0.8178 N   0  0  0  0  0  0  0  0  0  0  0  0
    0.8777   -2.0908   -0.5246 C   0  0  2  0  0  0  0  0  0  0  0  0
    1.7680   -3.3246   -0.4458 C   0  0  0  0  0  0  0  0  0  0  0  0
    2.1399   -3.9489   -1.4375 O   0  0  0  0  0  0  0  0  0  0  0  0
    1.5010   -1.0343   -1.4371 C   0  0  0  0  0  0  0  0  0  0  0  0
    0.5601    0.1161   -1.7487 C   0  0  0  0  0  0  0  0  0  0  0  0
   -0.6311   -0.0212   -2.0111 O   0  0  0  0  0  0  0  0  0  0  0  0
    1.1952    1.3389   -1.6984 N   0  0  0  0  0  0  0  0  0  0  0  0
    1.1810   -2.0803    1.5718 H   0  0  0  0  0  0  0  0  0  0  0  0
   -0.1134   -2.3895   -0.8856 H   0  0  0  0  0  0  0  0  0  0  0  0
    2.3922   -0.6024   -0.9644 H   0  0  0  0  0  0  0  0  0  0  0  0
    1.8243   -1.4858   -2.3838 H   0  0  0  0  0  0  0  0  0  0  0  0
    2.1823    1.4051   -1.4735 H   0  0  0  0  0  0  0  0  0  0  0  0
    0.7093    2.2110   -1.8817 H   0  0  0  0  0  0  0  0  0  0  0  0
    2.1412   -3.6197    0.8579 N   0  0  0  0  0  0  0  0  0  0  0  0
    3.0058   -4.7313    1.1741 C   0  0  2  0  0  0  0  0  0  0  0  0
    4.3103   -4.5445    0.4106 C   0  0  0  0  0  0  0  0  0  0  0  0
    4.4014   -3.8552   -0.6032 O   0  0  0  0  0  0  0  0  0  0  0  0
    2.3534   -6.0582    0.8189 C   0  0  0  0  0  0  0  0  0  0  0  0
    1.8081   -3.0381    1.6211 H   0  0  0  0  0  0  0  0  0  0  0  0
    3.2021   -4.6830    2.2507 H   0  0  0  0  0  0  0  0  0  0  0  0
    2.1492   -6.1250   -0.2560 H   0  0  0  0  0  0  0  0  0  0  0  0
    2.9987   -6.9017    1.0857 H   0  0  0  0  0  0  0  0  0  0  0  0
    1.4008   -6.1776    1.3462 H   0  0  0  0  0  0  0  0  0  0  0  0
    5.3512   -5.2726    0.9697 N   0  0  0  0  0  0  0  0  0  0  0  0
    6.6868   -5.2713    0.4202 C   0  0  0  0  0  0  0  0  0  0  0  0
    5.1897   -5.8017    1.8216 H   0  0  0  0  0  0  0  0  0  0  0  0
    6.7949   -6.1093   -0.2841 H   0  0  0  0  0  0  0  0  0  0  0  0
    6.8648   -4.3231   -0.1083 H   0  0  0  0  0  0  0  0  0  0  0  0
    7.4183   -5.3802    1.2345 H   0  0  0  0  0  0  0  0  0  0  0  0
  1  3  1  0  0  0  0
  1  7  1  0  0  0  0
  1  2  2  0  0  0  0
 21 22  1  0  0  0  0
 22 24  1  0  0  0  0
 22 23  2  0  0  0  0
 32 33  1  0  0  0  0
 33 41  1  0  0  0  0
 33 34  2  0  0  0  0
  8  9  1  0  0  0  0
  9 17  1  0  0  0  0
  9 10  2  0  0  0  0
 18 19  1  0  0  0  0
 19 31  1  0  0  0  0
 19 20  2  0  0  0  0
 32 35  1  0  0  0  0
  8 11  1  0  0  0  0
 41 42  1  0  0  0  0
 18 21  1  0  0  0  0
 31 32  1  0  0  0  0
  7  8  1  0  0  0  0
 17 18  1  0  0  0  0
  3  4  1  0  0  0  0
  3  5  1  0  0  0  0
  3  6  1  0  0  0  0
 35 38  1  0  0  0  0
 35 39  1  0  0  0  0
 35 40  1  0  0  0  0
 11 14  1  0  0  0  0
 11 15  1  0  0  0  0
 11 16  1  0  0  0  0
 42 44  1  0  0  0  0
 42 45  1  0  0  0  0
 42 46  1  0  0  0  0
 21 27  1  0  0  0  0
 21 28  1  0  0  0  0
 32 37  1  0  0  0  0
  8 13  1  0  0  0  0
 18 26  1  0  0  0  0
 24 29  1  0  0  0  0
 24 30  1  0  0  0  0
 41 43  1  0  0  0  0
  7 12  1  0  0  0  0
 31 36  1  0  0  0  0
 17 25  1  0  0  0  0
M  END
$$$$

  -OEChem-05262214473D

 46 45  0     1  0  0  0  0  0999 V2000
   -0.0543    1.9736    3.8406 C   0  0  0  0  0  0  0  0  0  0  0  0
    0.6744    1.6099    4.7562 O   0  0  0  0  0  0  0  0  0  0  0  0
   -0.5599    3.3779    3.8160 C   0  0  0  0  0  0  0  0  0  0  0  0
   -1.5202    3.4885    4.3450 H   0  0  0  0  0  0  0  0  0  0  0  0
    0.1282    4.0814    4.3116 H   0  0  0  0  0  0  0  0  0  0  0  0
   -0.7317    3.7994    2.8126 H   0  0  0  0  0  0  0  0  0  0  0  0
   -0.4812    1.1968    2.7762 N   0  0  0  0  0  0  0  0  0  0  0  0
   -0.1106   -0.1834    2.6051 C   0  0  2  0  0  0  0  0  0  0  0  0
   -0.0696   -0.4775    1.1113 C   0  0  0  0  0  0  0  0  0  0  0  0
   -0.6805    0.1900    0.2792 O   0  0  0  0  0  0  0  0  0  0  0  0
   -1.0852   -1.1101    3.3150 C   0  0  0  0  0  0  0  0  0  0  0  0
   -1.0883    1.6241    2.0791 H   0  0  0  0  0  0  0  0  0  0  0  0
    0.8937   -0.2959    3.0277 H   0  0  0  0  0  0  0  0  0  0  0  0
   -2.0970   -1.0114    2.9051 H   0  0  0  0  0  0  0  0  0  0  0  0
   -0.7860   -2.1580    3.2078 H   0  0  0  0  0  0  0  0  0  0  0  0
   -1.1357   -0.8775    4.3842 H   0  0  0  0  0  0  0  0  0  0  0  0
    0.6950   -1.6003    0.8178 N   0  0  0  0  0  0  0  0  0  0  0  0
    0.8777   -2.0908   -0.5246 C   0  0  2  0  0  0  0  0  0  0  0  0
    1.7680   -3.3246   -0.4458 C   0  0  0  0  0  0  0  0  0  0  0  0
    2.3568   -3.7912   -1.4190 O   0  0  0  0  0  0  0  0  0  0  0  0
    1.5010   -1.0343   -1.4371 C   0  0  0  0  0  0  0  0  0  0  0  0
    0.5601    0.1161   -1.7487 C   0  0  0  0  0  0  0  0  0  0  0  0
   -0.6311   -0.0212   -2.0111 O   0  0  0  0  0  0  0  0  0  0  0  0
    1.1952    1.3389   -1.6984 N   0  0  0  0  0  0  0  0  0  0  0  0
    1.1810   -2.0803    1.5718 H   0  0  0  0  0  0  0  0  0  0  0  0
   -0.1134   -2.3895   -0.8856 H   0  0  0  0  0  0  0  0  0  0  0  0
    2.3922   -0.6024   -0.9644 H   0  0  0  0  0  0  0  0  0  0  0  0
    1.8243   -1.4858   -2.3838 H   0  0  0  0  0  0  0  0  0  0  0  0
    2.1823    1.4051   -1.4735 H   0  0  0  0  0  0  0  0  0  0  0  0
    0.7093    2.2110   -1.8817 H   0  0  0  0  0  0  0  0  0  0  0  0
    1.8697   -3.8163    0.8480 N   0  0  0  0  0  0  0  0  0  0  0  0
    2.6817   -4.9655    1.1690 C   0  0  2  0  0  0  0  0  0  0  0  0
    4.1107   -4.6679    0.7342 C   0  0  0  0  0  0  0  0  0  0  0  0
    4.3908   -3.8322   -0.1227 O   0  0  0  0  0  0  0  0  0  0  0  0
    2.1571   -6.2209    0.4896 C   0  0  0  0  0  0  0  0  0  0  0  0
    1.3677   -3.3571    1.6022 H   0  0  0  0  0  0  0  0  0  0  0  0
    2.6476   -5.0828    2.2576 H   0  0  0  0  0  0  0  0  0  0  0  0
    2.1837   -6.1221   -0.6017 H   0  0  0  0  0  0  0  0  0  0  0  0
    2.7573   -7.0969    0.7569 H   0  0  0  0  0  0  0  0  0  0  0  0
    1.1194   -6.4168    0.7805 H   0  0  0  0  0  0  0  0  0  0  0  0
    5.0330   -5.4757    1.3844 N   0  0  0  0  0  0  0  0  0  0  0  0
    6.4533   -5.3942    1.1351 C   0  0  0  0  0  0  0  0  0  0  0  0
    4.7131   -6.1282    2.0941 H   0  0  0  0  0  0  0  0  0  0  0  0
    6.7306   -6.1151    0.3519 H   0  0  0  0  0  0  0  0  0  0  0  0
    6.7095   -4.3769    0.8042 H   0  0  0  0  0  0  0  0  0  0  0  0
    7.0017   -5.6281    2.0595 H   0  0  0  0  0  0  0  0  0  0  0  0
  1  3  1  0  0  0  0
  1  7  1  0  0  0  0
  1  2  2  0  0  0  0
 21 22  1  0  0  0  0
 22 24  1  0  0  0  0
 22 23  2  0  0  0  0
 32 33  1  0  0  0  0
 33 41  1  0  0  0  0
 33 34  2  0  0  0  0
  8  9  1  0  0  0  0
  9 17  1  0  0  0  0
  9 10  2  0  0  0  0
 18 19  1  0  0  0  0
 19 31  1  0  0  0  0
 19 20  2  0  0  0  0
 32 35  1  0  0  0  0
  8 11  1  0  0  0  0
 41 42  1  0  0  0  0
 18 21  1  0  0  0  0
 31 32  1  0  0  0  0
  7  8  1  0  0  0  0
 17 18  1  0  0  0  0
  3  4  1  0  0  0  0
  3  5  1  0  0  0  0
  3  6  1  0  0  0  0
 35 38  1  0  0  0  0
 35 39  1  0  0  0  0
 35 40  1  0  0  0  0
 11 14  1  0  0  0  0
 11 15  1  0  0  0  0
 11 16  1  0  0  0  0
 42 44  1  0  0  0  0
 42 45  1  0  0  0  0
 42 46  1  0  0  0  0
 21 27  1  0  0  0  0
 21 28  1  0  0  0  0
 32 37  1  0  0  0  0
  8 13  1  0  0  0  0
 18 26  1  0  0  0  0
 24 29  1  0  0  0  0
 24 30  1  0  0  0  0
 41 43  1  0  0  0  0
  7 12  1  0  0  0  0
 31 36  1  0  0  0  0
 17 25  1  0  0  0  0
M  END
$$$$

  -OEChem-05262214473D

 46 45  0     1  0  0  0  0  0999 V2000
   -0.0543    1.9736    3.8406 C   0  0  0  0  0  0  0  0  0  0  0  0
    0.6744    1.6099    4.7562 O   0  0  0  0  0  0  0  0  0  0  0  0
   -0.5599    3.3779    3.8160 C   0  0  0  0  0  0  0  0  0  0  0  0
   -1.5202    3.4885    4.3450 H   0  0  0  0  0  0  0  0  0  0  0  0
    0.1282    4.0814    4.3116 H   0  0  0  0  0  0  0  0  0  0  0  0
   -0.7317    3.7994    2.8126 H   0  0  0  0  0  0  0  0  0  0  0  0
   -0.4812    1.1968    2.7762 N   0  0  0  0  0  0  0  0  0  0  0  0
   -0.1106   -0.1834    2.6051 C   0  0  2  0  0  0  0  0  0  0  0  0
   -0.0696   -0.4775    1.1113 C   0  0  0  0  0  0  0  0  0  0  0  0
   -0.6805    0.1900    0.2792 O   0  0  0  0  0  0  0  0  0  0  0  0
   -1.0852   -1.1101    3.3150 C   0  0  0  0  0  0  0  0  0  0  0  0
   -1.0883    1.6241    2.0791 H   0  0  0  0  0  0  0  0  0  0  0  0
    0.8937   -0.2959    3.0277 H   0  0  0  0  0  0  0  0  0  0  0  0
   -2.0970   -1.0114    2.9051 H   0  0  0  0  0  0  0  0  0  0  0  0
   -0.7860   -2.1580    3.2078 H   0  0  0  0  0  0  0  0  0  0  0  0
   -1.1357   -0.8775    4.3842 H   0  0  0  0  0  0  0  0  0  0  0  0
    0.6950   -1.6003    0.8178 N   0  0  0  0  0  0  0  0  0  0  0  0
    0.8777   -2.0908   -0.5246 C   0  0  2  0  0  0  0  0  0  0  0  0
    1.7680   -3.3246   -0.4458 C   0  0  0  0  0  0  0  0  0  0  0  0
    2.5604   -3.6388   -1.3318 O   0  0  0  0  0  0  0  0  0  0  0  0
    1.5010   -1.0343   -1.4371 C   0  0  0  0  0  0  0  0  0  0  0  0
    0.5601    0.1161   -1.7487 C   0  0  0  0  0  0  0  0  0  0  0  0
   -0.6311   -0.0212   -2.0111 O   0  0  0  0  0  0  0  0  0  0  0  0
    1.1952    1.3389   -1.6984 N   0  0  0  0  0  0  0  0  0  0  0  0
    1.1810   -2.0803    1.5718 H   0  0  0  0  0  0  0  0  0  0  0  0
   -0.1134   -2.3895   -0.8856 H   0  0  0  0  0  0  0  0  0  0  0  0
    2.3922   -0.6024   -0.9644 H   0  0  0  0  0  0  0  0  0  0  0  0
    1.8243   -1.4858   -2.3838 H   0  0  0  0  0  0  0  0  0  0  0  0
    2.1823    1.4051   -1.4735 H   0  0  0  0  0  0  0  0  0  0  0  0
    0.7093    2.2110   -1.8817 H   0  0  0  0  0  0  0  0  0  0  0  0
    1.6121   -4.0084    0.7518 N   0  0  0  0  0  0  0  0  0  0  0  0
    2.3729   -5.1953    1.0607 C   0  0  2  0  0  0  0  0  0  0  0  0
    3.8516   -4.8387    0.9862 C   0  0  0  0  0  0  0  0  0  0  0  0
    4.2795   -3.8827    0.3427 O   0  0  0  0  0  0  0  0  0  0  0  0
    2.0388   -6.3308    0.1059 C   0  0  0  0  0  0  0  0  0  0  0  0
    0.9505   -3.6683    1.4434 H   0  0  0  0  0  0  0  0  0  0  0  0
    2.1159   -5.4773    2.0876 H   0  0  0  0  0  0  0  0  0  0  0  0
    2.2894   -6.0667   -0.9280 H   0  0  0  0  0  0  0  0  0  0  0  0
    2.5956   -7.2390    0.3592 H   0  0  0  0  0  0  0  0  0  0  0  0
    0.9695   -6.5660    0.1389 H   0  0  0  0  0  0  0  0  0  0  0  0
    4.6415   -5.7389    1.6876 N   0  0  0  0  0  0  0  0  0  0  0  0
    6.0795   -5.6241    1.7581 C   0  0  0  0  0  0  0  0  0  0  0  0
    4.2000   -6.4912    2.2080 H   0  0  0  0  0  0  0  0  0  0  0  0
    6.5352   -6.2178    0.9520 H   0  0  0  0  0  0  0  0  0  0  0  0
    6.3690   -4.5690    1.6449 H   0  0  0  0  0  0  0  0  0  0  0  0
    6.4298   -5.9980    2.7316 H   0  0  0  0  0  0  0  0  0  0  0  0
  1  3  1  0  0  0  0
  1  7  1  0  0  0  0
  1  2  2  0  0  0  0
 21 22  1  0  0  0  0
 22 24  1  0  0  0  0
 22 23  2  0  0  0  0
 32 33  1  0  0  0  0
 33 41  1  0  0  0  0
 33 34  2  0  0  0  0
  8  9  1  0  0  0  0
  9 17  1  0  0  0  0
  9 10  2  0  0  0  0
 18 19  1  0  0  0  0
 19 31  1  0  0  0  0
 19 20  2  0  0  0  0
 32 35  1  0  0  0  0
  8 11  1  0  0  0  0
 41 42  1  0  0  0  0
 18 21  1  0  0  0  0
 31 32  1  0  0  0  0
  7  8  1  0  0  0  0
 17 18  1  0  0  0  0
  3  4  1  0  0  0  0
  3  5  1  0  0  0  0
  3  6  1  0  0  0  0
 35 38  1  0  0  0  0
 35 39  1  0  0  0  0
 35 40  1  0  0  0  0
 11 14  1  0  0  0  0
 11 15  1  0  0  0  0
 11 16  1  0  0  0  0
 42 44  1  0  0  0  0
 42 45  1  0  0  0  0
 42 46  1  0  0  0  0
 21 27  1  0  0  0  0
 21 28  1  0  0  0  0
 32 37  1  0  0  0  0
  8 13  1  0  0  0  0
 18 26  1  0  0  0  0
 24 29  1  0  0  0  0
 24 30  1  0  0  0  0
 41 43  1  0  0  0  0
  7 12  1  0  0  0  0
 31 36  1  0  0  0  0
 17 25  1  0  0  0  0
M  END
$$$$

  -OEChem-05262214473D

 46 45  0     1  0  0  0  0  0999 V2000
   -0.0543    1.9736    3.8406 C   0  0  0  0  0  0  0  0  0  0  0  0
    0.6744    1.6099    4.7562 O   0  0  0  0  0  0  0  0  0  0  0  0
   -0.5599    3.3779    3.8160 C   0  0  0  0  0  0  0  0  0  0  0  0
   -1.5202    3.4885    4.3450 H   0  0  0  0  0  0  0  0  0  0  0  0
    0.1282    4.0814    4.3116 H   0  0  0  0  0  0  0  0  0  0  0  0
   -0.7317    3.7994    2.8126 H   0  0  0  0  0  0  0  0  0  0  0  0
   -0.4812    1.1968    2.7762 N   0  0  0  0  0  0  0  0  0  0  0  0
   -0.1106   -0.1834    2.6051 C   0  0  2  0  0  0  0  0  0  0  0  0
   -0.0696   -0.4775    1.1113 C   0  0  0  0  0  0  0  0  0  0  0  0
   -0.6805    0.1900    0.2792 O   0  0  0  0  0  0  0  0  0  0  0  0
   -1.0852   -1.1101    3.3150 C   0  0  0  0  0  0  0  0  0  0  0  0
   -1.0883    1.6241    2.0791 H   0  0  0  0  0  0  0  0  0  0  0  0
    0.8937   -0.2959    3.0277 H   0  0  0  0  0  0  0  0  0  0  0  0
   -2.0970   -1.0114    2.9051 H   0  0  0  0  0  0  0  0  0  0  0  0
   -0.7860   -2.1580    3.2078 H   0  0  0  0  0  0  0  0  0  0  0  0
   -1.1357   -0.8775    4.3842 H   0  0  0  0  0  0  0  0  0  0  0  0
    0.6950   -1.6003    0.8178 N   0  0  0  0  0  0  0  0  0  0  0  0
    0.8777   -2.0908   -0.5246 C   0  0  2  0  0  0  0  0  0  0  0  0
    1.7680   -3.3246   -0.4458 C   0  0  0  0  0  0  0  0  0  0  0  0
    2.7366   -3.5020   -1.1818 O   0  0  0  0  0  0  0  0  0  0  0  0
    1.5010   -1.0343   -1.4371 C   0  0  0  0  0  0  0  0  0  0  0  0
    0.5601    0.1161   -1.7487 C   0  0  0  0  0  0  0  0  0  0  0  0
   -0.6311   -0.0212   -2.0111 O   0  0  0  0  0  0  0  0  0  0  0  0
    1.1952    1.3389   -1.6984 N   0  0  0  0  0  0  0  0  0  0  0  0
    1.1810   -2.0803    1.5718 H   0  0  0  0  0  0  0  0  0  0  0  0
   -0.1134   -2.3895   -0.8856 H   0  0  0  0  0  0  0  0  0  0  0  0
    2.3922   -0.6024   -0.9644 H   0  0  0  0  0  0  0  0  0  0  0  0
    1.8243   -1.4858   -2.3838 H   0  0  0  0  0  0  0  0  0  0  0  0
    2.1823    1.4051   -1.4735 H   0  0  0  0  0  0  0  0  0  0  0  0
    0.7093    2.2110   -1.8817 H   0  0  0  0  0  0  0  0  0  0  0  0
    1.3860   -4.1828    0.5758 N   0  0  0  0  0  0  0  0  0  0  0  0
    2.1003   -5.4050    0.8566 C   0  0  2  0  0  0  0  0  0  0  0  0
    3.5509   -5.0453    1.1496 C   0  0  0  0  0  0  0  0  0  0  0  0
    4.0752   -4.0035    0.7613 O   0  0  0  0  0  0  0  0  0  0  0  0
    2.0064   -6.3805   -0.3062 C   0  0  0  0  0  0  0  0  0  0  0  0
    0.5849   -3.9505    1.1555 H   0  0  0  0  0  0  0  0  0  0  0  0
    1.6432   -5.8398    1.7522 H   0  0  0  0  0  0  0  0  0  0  0  0
    2.4592   -5.9623   -1.2126 H   0  0  0  0  0  0  0  0  0  0  0  0
    2.5246   -7.3183   -0.0803 H   0  0  0  0  0  0  0  0  0  0  0  0
    0.9611   -6.6150   -0.5348 H   0  0  0  0  0  0  0  0  0  0  0  0
    4.2033   -6.0442    1.8586 N   0  0  0  0  0  0  0  0  0  0  0  0
    5.5910   -5.9455    2.2468 C   0  0  0  0  0  0  0  0  0  0  0  0
    3.6854   -6.8659    2.1556 H   0  0  0  0  0  0  0  0  0  0  0  0
    6.2221   -6.4104    1.4751 H   0  0  0  0  0  0  0  0  0  0  0  0
    5.8665   -4.8862    2.3565 H   0  0  0  0  0  0  0  0  0  0  0  0
    5.7414   -6.4645    3.2049 H   0  0  0  0  0  0  0  0  0  0  0  0
  1  3  1  0  0  0  0
  1  7  1  0  0  0  0
  1  2  2  0  0  0  0
 21 22  1  0  0  0  0
 22 24  1  0  0  0  0
 22 23  2  0  0  0  0
 32 33  1  0  0  0  0
 33 41  1  0  0  0  0
 33 34  2  0  0  0  0
  8  9  1  0  0  0  0
  9 17  1  0  0  0  0
  9 10  2  0  0  0  0
 18 19  1  0  0  0  0
 19 31  1  0  0  0  0
 19 20  2  0  0  0  0
 32 35  1  0  0  0  0
  8 11  1  0  0  0  0
 41 42  1  0  0  0  0
 18 21  1  0  0  0  0
 31 32  1  0  0  0  0
  7  8  1  0  0  0  0
 17 18  1  0  0  0  0
  3  4  1  0  0  0  0
  3  5  1  0  0  0  0
  3  6  1  0  0  0  0
 35 38  1  0  0  0  0
 35 39  1  0  0  0  0
 35 40  1  0  0  0  0
 11 14  1  0  0  0  0
 11 15  1  0  0  0  0
 11 16  1  0  0  0  0
 42 44  1  0  0  0  0
 42 45  1  0  0  0  0
 42 46  1  0  0  0  0
 21 27  1  0  0  0  0
 21 28  1  0  0  0  0
 32 37  1  0  0  0  0
  8 13  1  0  0  0  0
 18 26  1  0  0  0  0
 24 29  1  0  0  0  0
 24 30  1  0  0  0  0
 41 43  1  0  0  0  0
  7 12  1  0  0  0  0
 31 36  1  0  0  0  0
 17 25  1  0  0  0  0
M  END
$$$$

  -OEChem-05262214473D

 46 45  0     1  0  0  0  0  0999 V2000
   -0.0543    1.9736    3.8406 C   0  0  0  0  0  0  0  0  0  0  0  0
    0.6744    1.6099    4.7562 O   0  0  0  0  0  0  0  0  0  0  0  0
   -0.5599    3.3779    3.8160 C   0  0  0  0  0  0  0  0  0  0  0  0
   -1.5202    3.4885    4.3450 H   0  0  0  0  0  0  0  0  0  0  0  0
    0.1282    4.0814    4.3116 H   0  0  0  0  0  0  0  0  0  0  0  0
   -0.7317    3.7994    2.8126 H   0  0  0  0  0  0  0  0  0  0  0  0
   -0.4812    1.1968    2.7762 N   0  0  0  0  0  0  0  0  0  0  0  0
   -0.1106   -0.1834    2.6051 C   0  0  2  0  0  0  0  0  0  0  0  0
   -0.0696   -0.4775    1.1113 C   0  0  0  0  0  0  0  0  0  0  0  0
   -0.6805    0.1900    0.2792 O   0  0  0  0  0  0  0  0  0  0  0  0
   -1.0852   -1.1101    3.3150 C   0  0  0  0  0  0  0  0  0  0  0  0
   -1.0883    1.6241    2.0791 H   0  0  0  0  0  0  0  0  0  0  0  0
    0.8937   -0.2959    3.0277 H   0  0  0  0  0  0  0  0  0  0  0  0
   -2.0970   -1.0114    2.9051 H   0  0  0  0  0  0  0  0  0  0  0  0
   -0.7860   -2.1580    3.2078 H   0  0  0  0  0  0  0  0  0  0  0  0
   -1.1357   -0.8775    4.3842 H   0  0  0  0  0  0  0  0  0  0  0  0
    0.6950   -1.6003    0.8178 N   0  0  0  0  0  0  0  0  0  0  0  0
    0.8777   -2.0908   -0.5246 C   0  0  2  0  0  0  0  0  0  0  0  0
    1.7680   -3.3246   -0.4458 C   0  0  0  0  0  0  0  0  0  0  0  0
    2.8737   -3.3902   -0.9794 O   0  0  0  0  0  0  0  0  0  0  0  0
    1.5010   -1.0343   -1.4371 C   0  0  0  0  0  0  0  0  0  0  0  0
    0.5601    0.1161   -1.7487 C   0  0  0  0  0  0  0  0  0  0  0  0
   -0.6311   -0.0212   -2.0111 O   0  0  0  0  0  0  0  0  0  0  0  0
    1.1952    1.3389   -1.6984 N   0  0  0  0  0  0  0  0  0  0  0  0
    1.1810   -2.0803    1.5718 H   0  0  0  0  0  0  0  0  0  0  0  0
   -0.1134   -2.3895   -0.8856 H   0  0  0  0  0  0  0  0  0  0  0  0
    2.3922   -0.6024   -0.9644 H   0  0  0  0  0  0  0  0  0  0  0  0
    1.8243   -1.4858   -2.3838 H   0  0  0  0  0  0  0  0  0  0  0  0
    2.1823    1.4051   -1.4735 H   0  0  0  0  0  0  0  0  0  0  0  0
    0.7093    2.2110   -1.8817 H   0  0  0  0  0  0  0  0  0  0  0  0
    1.2068   -4.3276    0.3320 N   0  0  0  0  0  0  0  0  0  0  0  0
    1.8826   -5.5804    0.5707 C   0  0  2  0  0  0  0  0  0  0  0  0
    3.2289   -5.2736    1.2131 C   0  0  0  0  0  0  0  0  0  0  0  0
    3.7917   -4.1861    1.1045 O   0  0  0  0  0  0  0  0  0  0  0  0
    2.0621   -6.3666   -0.7186 C   0  0  0  0  0  0  0  0  0  0  0  0
    0.2959   -4.1844    0.7582 H   0  0  0  0  0  0  0  0  0  0  0  0
    1.2618   -6.1456    1.2744 H   0  0  0  0  0  0  0  0  0  0  0  0
    2.6815   -5.8162   -1.4362 H   0  0  0  0  0  0  0  0  0  0  0  0
    2.5493   -7.3293   -0.5318 H   0  0  0  0  0  0  0  0  0  0  0  0
    1.0948   -6.5606   -1.1947 H   0  0  0  0  0  0  0  0  0  0  0  0
    3.7483   -6.3708    1.8858 N   0  0  0  0  0  0  0  0  0  0  0  0
    5.0209   -6.3363    2.5679 C   0  0  0  0  0  0  0  0  0  0  0  0
    3.2043   -7.2268    1.9405 H   0  0  0  0  0  0  0  0  0  0  0  0
    5.8126   -6.6797    1.8856 H   0  0  0  0  0  0  0  0  0  0  0  0
    5.2361   -5.3070    2.8905 H   0  0  0  0  0  0  0  0  0  0  0  0
    4.9834   -6.9960    3.4473 H   0  0  0  0  0  0  0  0  0  0  0  0
  1  3  1  0  0  0  0
  1  7  1  0  0  0  0
  1  2  2  0  0  0  0
 21 22  1  0  0  0  0
 22 24  1  0  0  0  0
 22 23  2  0  0  0  0
 32 33  1  0  0  0  0
 33 41  1  0  0  0  0
 33 34  2  0  0  0  0
  8  9  1  0  0  0  0
  9 17  1  0  0  0  0
  9 10  2  0  0  0  0
 18 19  1  0  0  0  0
 19 31  1  0  0  0  0
 19 20  2  0  0  0  0
 32 35  1  0  0  0  0
  8 11  1  0  0  0  0
 41 42  1  0  0  0  0
 18 21  1  0  0  0  0
 31 32  1  0  0  0  0
  7  8  1  0  0  0  0
 17 18  1  0  0  0  0
  3  4  1  0  0  0  0
  3  5  1  0  0  0  0
  3  6  1  0  0  0  0
 35 38  1  0  0  0  0
 35 39  1  0  0  0  0
 35 40  1  0  0  0  0
 11 14  1  0  0  0  0
 11 15  1  0  0  0  0
 11 16  1  0  0  0  0
 42 44  1  0  0  0  0
 42 45  1  0  0  0  0
 42 46  1  0  0  0  0
 21 27  1  0  0  0  0
 21 28  1  0  0  0  0
 32 37  1  0  0  0  0
  8 13  1  0  0  0  0
 18 26  1  0  0  0  0
 24 29  1  0  0  0  0
 24 30  1  0  0  0  0
 41 43  1  0  0  0  0
  7 12  1  0  0  0  0
 31 36  1  0  0  0  0
 17 25  1  0  0  0  0
M  END
$$$$

  -OEChem-05262214473D

 46 45  0     1  0  0  0  0  0999 V2000
   -0.0543    1.9736    3.8406 C   0  0  0  0  0  0  0  0  0  0  0  0
    0.6744    1.6099    4.7562 O   0  0  0  0  0  0  0  0  0  0  0  0
   -0.5599    3.3779    3.8160 C   0  0  0  0  0  0  0  0  0  0  0  0
   -1.5202    3.4885    4.3450 H   0  0  0  0  0  0  0  0  0  0  0  0
    0.1282    4.0814    4.3116 H   0  0  0  0  0  0  0  0  0  0  0  0
   -0.7317    3.7994    2.8126 H   0  0  0  0  0  0  0  0  0  0  0  0
   -0.4812    1.1968    2.7762 N   0  0  0  0  0  0  0  0  0  0  0  0
   -0.1106   -0.1834    2.6051 C   0  0  2  0  0  0  0  0  0  0  0  0
   -0.0696   -0.4775    1.1113 C   0  0  0  0  0  0  0  0  0  0  0  0
   -0.6805    0.1900    0.2792 O   0  0  0  0  0  0  0  0  0  0  0  0
   -1.0852   -1.1101    3.3150 C   0  0  0  0  0  0  0  0  0  0  0  0
   -1.0883    1.6241    2.0791 H   0  0  0  0  0  0  0  0  0  0  0  0
    0.8937   -0.2959    3.0277 H   0  0  0  0  0  0  0  0  0  0  0  0
   -2.0970   -1.0114    2.9051 H   0  0  0  0  0  0  0  0  0  0  0  0
   -0.7860   -2.1580    3.2078 H   0  0  0  0  0  0  0  0  0  0  0  0
   -1.1357   -0.8775    4.3842 H   0  0  0  0  0  0  0  0  0  0  0  0
    0.6950   -1.6003    0.8178 N   0  0  0  0  0  0  0  0  0  0  0  0
    0.8777   -2.0908   -0.5246 C   0  0  2  0  0  0  0  0  0  0  0  0
    1.7680   -3.3246   -0.4458 C   0  0  0  0  0  0  0  0  0  0  0  0
    2.9621   -3.3110   -0.7382 O   0  0  0  0  0  0  0  0  0  0  0  0
    1.5010   -1.0343   -1.4371 C   0  0  0  0  0  0  0  0  0  0  0  0
    0.5601    0.1161   -1.7487 C   0  0  0  0  0  0  0  0  0  0  0  0
   -0.6311   -0.0212   -2.0111 O   0  0  0  0  0  0  0  0  0  0  0  0
    1.1952    1.3389   -1.6984 N   0  0  0  0  0  0  0  0  0  0  0  0
    1.1810   -2.0803    1.5718 H   0  0  0  0  0  0  0  0  0  0  0  0
   -0.1134   -2.3895   -0.8856 H   0  0  0  0  0  0  0  0  0  0  0  0
    2.3922   -0.6024   -0.9644 H   0  0  0  0  0  0  0  0  0  0  0  0
    1.8243   -1.4858   -2.3838 H   0  0  0  0  0  0  0  0  0  0  0  0
    2.1823    1.4051   -1.4735 H   0  0  0  0  0  0  0  0  0  0  0  0
    0.7093    2.2110   -1.8817 H   0  0  0  0  0  0  0  0  0  0  0  0
    1.0868   -4.4331    0.0371 N   0  0  0  0  0  0  0  0  0  0  0  0
    1.7346   -5.7095    0.2223 C   0  0  2  0  0  0  0  0  0  0  0  0
    2.9077   -5.5080    1.1724 C   0  0  0  0  0  0  0  0  0  0  0  0
    3.4484   -4.4183    1.3490 O   0  0  0  0  0  0  0  0  0  0  0  0
    2.2022   -6.2901   -1.1032 C   0  0  0  0  0  0  0  0  0  0  0  0
    0.1032   -4.3541    0.2784 H   0  0  0  0  0  0  0  0  0  0  0  0
    0.9976   -6.3737    0.6867 H   0  0  0  0  0  0  0  0  0  0  0  0
    2.9411   -5.6383   -1.5834 H   0  0  0  0  0  0  0  0  0  0  0  0
    2.6678   -7.2714   -0.9643 H   0  0  0  0  0  0  0  0  0  0  0  0
    1.3616   -6.4065   -1.7959 H   0  0  0  0  0  0  0  0  0  0  0  0
    3.3075   -6.6965    1.7673 N   0  0  0  0  0  0  0  0  0  0  0  0
    4.4083   -6.7701    2.6994 C   0  0  0  0  0  0  0  0  0  0  0  0
    2.7895   -7.5493    1.5773 H   0  0  0  0  0  0  0  0  0  0  0  0
    5.3346   -7.0074    2.1556 H   0  0  0  0  0  0  0  0  0  0  0  0
    4.5210   -5.8026    3.2106 H   0  0  0  0  0  0  0  0  0  0  0  0
    4.2077   -7.5561    3.4422 H   0  0  0  0  0  0  0  0  0  0  0  0
  1  3  1  0  0  0  0
  1  7  1  0  0  0  0
  1  2  2  0  0  0  0
 21 22  1  0  0  0  0
 22 24  1  0  0  0  0
 22 23  2  0  0  0  0
 32 33  1  0  0  0  0
 33 41  1  0  0  0  0
 33 34  2  0  0  0  0
  8  9  1  0  0  0  0
  9 17  1  0  0  0  0
  9 10  2  0  0  0  0
 18 19  1  0  0  0  0
 19 31  1  0  0  0  0
 19 20  2  0  0  0  0
 32 35  1  0  0  0  0
  8 11  1  0  0  0  0
 41 42  1  0  0  0  0
 18 21  1  0  0  0  0
 31 32  1  0  0  0  0
  7  8  1  0  0  0  0
 17 18  1  0  0  0  0
  3  4  1  0  0  0  0
  3  5  1  0  0  0  0
  3  6  1  0  0  0  0
 35 38  1  0  0  0  0
 35 39  1  0  0  0  0
 35 40  1  0  0  0  0
 11 14  1  0  0  0  0
 11 15  1  0  0  0  0
 11 16  1  0  0  0  0
 42 44  1  0  0  0  0
 42 45  1  0  0  0  0
 42 46  1  0  0  0  0
 21 27  1  0  0  0  0
 21 28  1  0  0  0  0
 32 37  1  0  0  0  0
  8 13  1  0  0  0  0
 18 26  1  0  0  0  0
 24 29  1  0  0  0  0
 24 30  1  0  0  0  0
 41 43  1  0  0  0  0
  7 12  1  0  0  0  0
 31 36  1  0  0  0  0
 17 25  1  0  0  0  0
M  END
$$$$

  -OEChem-05262214473D

 46 45  0     1  0  0  0  0  0999 V2000
   -0.0543    1.9736    3.8406 C   0  0  0  0  0  0  0  0  0  0  0  0
    0.6744    1.6099    4.7562 O   0  0  0  0  0  0  0  0  0  0  0  0
   -0.5599    3.3779    3.8160 C   0  0  0  0  0  0  0  0  0  0  0  0
   -1.5202    3.4885    4.3450 H   0  0  0  0  0  0  0  0  0  0  0  0
    0.1282    4.0814    4.3116 H   0  0  0  0  0  0  0  0  0  0  0  0
   -0.7317    3.7994    2.8126 H   0  0  0  0  0  0  0  0  0  0  0  0
   -0.4812    1.1968    2.7762 N   0  0  0  0  0  0  0  0  0  0  0  0
   -0.1106   -0.1834    2.6051 C   0  0  2  0  0  0  0  0  0  0  0  0
   -0.0696   -0.4775    1.1113 C   0  0  0  0  0  0  0  0  0  0  0  0
   -0.6805    0.1900    0.2792 O   0  0  0  0  0  0  0  0  0  0  0  0
   -1.0852   -1.1101    3.3150 C   0  0  0  0  0  0  0  0  0  0  0  0
   -1.0883    1.6241    2.0791 H   0  0  0  0  0  0  0  0  0  0  0  0
    0.8937   -0.2959    3.0277 H   0  0  0  0  0  0  0  0  0  0  0  0
   -2.0970   -1.0114    2.9051 H   0  0  0  0  0  0  0  0  0  0  0  0
   -0.7860   -2.1580    3.2078 H   0  0  0  0  0  0  0  0  0  0  0  0
   -1.1357   -0.8775    4.3842 H   0  0  0  0  0  0  0  0  0  0  0  0
    0.6950   -1.6003    0.8178 N   0  0  0  0  0  0  0  0  0  0  0  0
    0.8777   -2.0908   -0.5246 C   0  0  2  0  0  0  0  0  0  0  0  0
    1.7680   -3.3246   -0.4458 C   0  0  0  0  0  0  0  0  0  0  0  0
    2.9959   -3.2698   -0.4747 O   0  0  0  0  0  0  0  0  0  0  0  0
    1.5010   -1.0343   -1.4371 C   0  0  0  0  0  0  0  0  0  0  0  0
    0.5601    0.1161   -1.7487 C   0  0  0  0  0  0  0  0  0  0  0  0
   -0.6311   -0.0212   -2.0111 O   0  0  0  0  0  0  0  0  0  0  0  0
    1.1952    1.3389   -1.6984 N   0  0  0  0  0  0  0  0  0  0  0  0
    1.1810   -2.0803    1.5718 H   0  0  0  0  0  0  0  0  0  0  0  0
   -0.1134   -2.3895   -0.8856 H   0  0  0  0  0  0  0  0  0  0  0  0
    2.3922   -0.6024   -0.9644 H   0  0  0  0  0  0  0  0  0  0  0  0
    1.8243   -1.4858   -2.3838 H   0  0  0  0  0  0  0  0  0  0  0  0
    2.1823    1.4051   -1.4735 H   0  0  0  0  0  0  0  0  0  0  0  0
    0.7093    2.2110   -1.8817 H   0  0  0  0  0  0  0  0  0  0  0  0
    1.0340   -4.4919   -0.2889 N   0  0  0  0  0  0  0  0  0  0  0  0
    1.6664   -5.7834   -0.1648 C   0  0  2  0  0  0  0  0  0  0  0  0
    2.6090   -5.7326    1.0303 C   0  0  0  0  0  0  0  0  0  0  0  0
    3.0686   -4.6841    1.4781 O   0  0  0  0  0  0  0  0  0  0  0  0
    2.4170   -6.1561   -1.4337 C   0  0  0  0  0  0  0  0  0  0  0  0
    0.0199   -4.4480   -0.2511 H   0  0  0  0  0  0  0  0  0  0  0  0
    0.8687   -6.5088    0.0291 H   0  0  0  0  0  0  0  0  0  0  0  0
    3.2203   -5.4407   -1.6443 H   0  0  0  0  0  0  0  0  0  0  0  0
    2.8722   -7.1484   -1.3485 H   0  0  0  0  0  0  0  0  0  0  0  0
    1.7433   -6.1631   -2.2973 H   0  0  0  0  0  0  0  0  0  0  0  0
    2.9109   -6.9990    1.5111 N   0  0  0  0  0  0  0  0  0  0  0  0
    3.7947   -7.2171    2.6324 C   0  0  0  0  0  0  0  0  0  0  0  0
    2.4693   -7.8115    1.0907 H   0  0  0  0  0  0  0  0  0  0  0  0
    4.8207   -7.3712    2.2667 H   0  0  0  0  0  0  0  0  0  0  0  0
    3.7697   -6.3394    3.2949 H   0  0  0  0  0  0  0  0  0  0  0  0
    3.4669   -8.1068    3.1899 H   0  0  0  0  0  0  0  0  0  0  0  0
  1  3  1  0  0  0  0
  1  7  1  0  0  0  0
  1  2  2  0  0  0  0
 21 22  1  0  0  0  0
 22 24  1  0  0  0  0
 22 23  2  0  0  0  0
 32 33  1  0  0  0  0
 33 41  1  0  0  0  0
 33 34  2  0  0  0  0
  8  9  1  0  0  0  0
  9 17  1  0  0  0  0
  9 10  2  0  0  0  0
 18 19  1  0  0  0  0
 19 31  1  0  0  0  0
 19 20  2  0  0  0  0
 32 35  1  0  0  0  0
  8 11  1  0  0  0  0
 41 42  1  0  0  0  0
 18 21  1  0  0  0  0
 31 32  1  0  0  0  0
  7  8  1  0  0  0  0
 17 18  1  0  0  0  0
  3  4  1  0  0  0  0
  3  5  1  0  0  0  0
  3  6  1  0  0  0  0
 35 38  1  0  0  0  0
 35 39  1  0  0  0  0
 35 40  1  0  0  0  0
 11 14  1  0  0  0  0
 11 15  1  0  0  0  0
 11 16  1  0  0  0  0
 42 44  1  0  0  0  0
 42 45  1  0  0  0  0
 42 46  1  0  0  0  0
 21 27  1  0  0  0  0
 21 28  1  0  0  0  0
 32 37  1  0  0  0  0
  8 13  1  0  0  0  0
 18 26  1  0  0  0  0
 24 29  1  0  0  0  0
 24 30  1  0  0  0  0
 41 43  1  0  0  0  0
  7 12  1  0  0  0  0
 31 36  1  0  0  0  0
 17 25  1  0  0  0  0
M  END
$$$$

  -OEChem-05262214473D

 46 45  0     1  0  0  0  0  0999 V2000
   -0.0543    1.9736    3.8406 C   0  0  0  0  0  0  0  0  0  0  0  0
    0.6744    1.6099    4.7562 O   0  0  0  0  0  0  0  0  0  0  0  0
   -0.5599    3.3779    3.8160 C   0  0  0  0  0  0  0  0  0  0  0  0
   -1.5202    3.4885    4.3450 H   0  0  0  0  0  0  0  0  0  0  0  0
    0.1282    4.0814    4.3116 H   0  0  0  0  0  0  0  0  0  0  0  0
   -0.7317    3.7994    2.8126 H   0  0  0  0  0  0  0  0  0  0  0  0
   -0.4812    1.1968    2.7762 N   0  0  0  0  0  0  0  0  0  0  0  0
   -0.1106   -0.1834    2.6051 C   0  0  2  0  0  0  0  0  0  0  0  0
   -0.0696   -0.4775    1.1113 C   0  0  0  0  0  0  0  0  0  0  0  0
   -0.6805    0.1900    0.2792 O   0  0  0  0  0  0  0  0  0  0  0  0
   -1.0852   -1.1101    3.3150 C   0  0  0  0  0  0  0  0  0  0  0  0
   -1.0883    1.6241    2.0791 H   0  0  0  0  0  0  0  0  0  0  0  0
    0.8937   -0.2959    3.0277 H   0  0  0  0  0  0  0  0  0  0  0  0
   -2.0970   -1.0114    2.9051 H   0  0  0  0  0  0  0  0  0  0  0  0
   -0.7860   -2.1580    3.2078 H   0  0  0  0  0  0  0  0  0  0  0  0
   -1.1357   -0.8775    4.3842 H   0  0  0  0  0  0  0  0  0  0  0  0
    0.6950   -1.6003    0.8178 N   0  0  0  0  0  0  0  0  0  0  0  0
    0.8777   -2.0908   -0.5246 C   0  0  2  0  0  0  0  0  0  0  0  0
    1.7680   -3.3246   -0.4458 C   0  0  0  0  0  0  0  0  0  0  0  0
    2.9727   -3.2694   -0.2069 O   0  0  0  0  0  0  0  0  0  0  0  0
    1.5010   -1.0343   -1.4371 C   0  0  0  0  0  0  0  0  0  0  0  0
    0.5601    0.1161   -1.7487 C   0  0  0  0  0  0  0  0  0  0  0  0
   -0.6311   -0.0212   -2.0111 O   0  0  0  0  0  0  0  0  0  0  0  0
    1.1952    1.3389   -1.6984 N   0  0  0  0  0  0  0  0  0  0  0  0
    1.1810   -2.0803    1.5718 H   0  0  0  0  0  0  0  0  0  0  0  0
   -0.1134   -2.3895   -0.8856 H   0  0  0  0  0  0  0  0  0  0  0  0
    2.3922   -0.6024   -0.9644 H   0  0  0  0  0  0  0  0  0  0  0  0
    1.8243   -1.4858   -2.3838 H   0  0  0  0  0  0  0  0  0  0  0  0
    2.1823    1.4051   -1.4735 H   0  0  0  0  0  0  0  0  0  0  0  0
    0.7093    2.2110   -1.8817 H   0  0  0  0  0  0  0  0  0  0  0  0
    1.0522   -4.5002   -0.6237 N   0  0  0  0  0  0  0  0  0  0  0  0
    1.6826   -5.7972   -0.5641 C   0  0  2  0  0  0  0  0  0  0  0  0
    2.3533   -5.9320    0.7965 C   0  0  0  0  0  0  0  0  0  0  0  0
    2.6783   -4.9654    1.4829 O   0  0  0  0  0  0  0  0  0  0  0  0
    2.6921   -5.9739   -1.6877 C   0  0  0  0  0  0  0  0  0  0  0  0
    0.0517   -4.4598   -0.7943 H   0  0  0  0  0  0  0  0  0  0  0  0
    0.8838   -6.5415   -0.6536 H   0  0  0  0  0  0  0  0  0  0  0  0
    3.5001   -5.2368   -1.6148 H   0  0  0  0  0  0  0  0  0  0  0  0
    3.1486   -6.9688   -1.6581 H   0  0  0  0  0  0  0  0  0  0  0  0
    2.2138   -5.8471   -2.6649 H   0  0  0  0  0  0  0  0  0  0  0  0
    2.5855   -7.2579    1.1348 N   0  0  0  0  0  0  0  0  0  0  0  0
    3.2221   -7.6470    2.3715 C   0  0  0  0  0  0  0  0  0  0  0  0
    2.2655   -7.9954    0.5139 H   0  0  0  0  0  0  0  0  0  0  0  0
    4.3058   -7.7462    2.2112 H   0  0  0  0  0  0  0  0  0  0  0  0
    3.0336   -6.8806    3.1377 H   0  0  0  0  0  0  0  0  0  0  0  0
    2.8116   -8.6105    2.7077 H   0  0  0  0  0  0  0  0  0  0  0  0
  1  3  1  0  0  0  0
  1  7  1  0  0  0  0
  1  2  2  0  0  0  0
 21 22  1  0  0  0  0
 22 24  1  0  0  0  0
 22 23  2  0  0  0  0
 32 33  1  0  0  0  0
 33 41  1  0  0  0  0
 33 34  2  0  0  0  0
  8  9  1  0  0  0  0
  9 17  1  0  0  0  0
  9 10  2  0  0  0  0
 18 19  1  0  0  0  0
 19 31  1  0  0  0  0
 19 20  2  0  0  0  0
 32 35  1  0  0  0  0
  8 11  1  0  0  0  0
 41 42  1  0  0  0  0
 18 21  1  0  0  0  0
 31 32  1  0  0  0  0
  7  8  1  0  0  0  0
 17 18  1  0  0  0  0
  3  4  1  0  0  0  0
  3  5  1  0  0  0  0
  3  6  1  0  0  0  0
 35 38  1  0  0  0  0
 35 39  1  0  0  0  0
 35 40  1  0  0  0  0
 11 14  1  0  0  0  0
 11 15  1  0  0  0  0
 11 16  1  0  0  0  0
 42 44  1  0  0  0  0
 42 45  1  0  0  0  0
 42 46  1  0  0  0  0
 21 27  1  0  0  0  0
 21 28  1  0  0  0  0
 32 37  1  0  0  0  0
  8 13  1  0  0  0  0
 18 26  1  0  0  0  0
 24 29  1  0  0  0  0
 24 30  1  0  0  0  0
 41 43  1  0  0  0  0
  7 12  1  0  0  0  0
 31 36  1  0  0  0  0
 17 25  1  0  0  0  0
M  END
$$$$

  -OEChem-05262214473D

 46 45  0     1  0  0  0  0  0999 V2000
   -0.0543    1.9736    3.8406 C   0  0  0  0  0  0  0  0  0  0  0  0
    0.6744    1.6099    4.7562 O   0  0  0  0  0  0  0  0  0  0  0  0
   -0.5599    3.3779    3.8160 C   0  0  0  0  0  0  0  0  0  0  0  0
   -1.5202    3.4885    4.3450 H   0  0  0  0  0  0  0  0  0  0  0  0
    0.1282    4.0814    4.3116 H   0  0  0  0  0  0  0  0  0  0  0  0
   -0.7317    3.7994    2.8126 H   0  0  0  0  0  0  0  0  0  0  0  0
   -0.4812    1.1968    2.7762 N   0  0  0  0  0  0  0  0  0  0  0  0
   -0.1106   -0.1834    2.6051 C   0  0  2  0  0  0  0  0  0  0  0  0
   -0.0696   -0.4775    1.1113 C   0  0  0  0  0  0  0  0  0  0  0  0
   -0.6805    0.1900    0.2792 O   0  0  0  0  0  0  0  0  0  0  0  0
   -1.0852   -1.1101    3.3150 C   0  0  0  0  0  0  0  0  0  0  0  0
   -1.0883    1.6241    2.0791 H   0  0  0  0  0  0  0  0  0  0  0  0
    0.8937   -0.2959    3.0277 H   0  0  0  0  0  0  0  0  0  0  0  0
   -2.0970   -1.0114    2.9051 H   0  0  0  0  0  0  0  0  0  0  0  0
   -0.7860   -2.1580    3.2078 H   0  0  0  0  0  0  0  0  0  0  0  0
   -1.1357   -0.8775    4.3842 H   0  0  0  0  0  0  0  0  0  0  0  0
    0.6950   -1.6003    0.8178 N   0  0  0  0  0  0  0  0  0  0  0  0
    0.8777   -2.0908   -0.5246 C   0  0  2  0  0  0  0  0  0  0  0  0
    1.7680   -3.3246   -0.4458 C   0  0  0  0  0  0  0  0  0  0  0  0
    2.8942   -3.3098    0.0470 O   0  0  0  0  0  0  0  0  0  0  0  0
    1.5010   -1.0343   -1.4371 C   0  0  0  0  0  0  0  0  0  0  0  0
    0.5601    0.1161   -1.7487 C   0  0  0  0  0  0  0  0  0  0  0  0
   -0.6311   -0.0212   -2.0111 O   0  0  0  0  0  0  0  0  0  0  0  0
    1.1952    1.3389   -1.6984 N   0  0  0  0  0  0  0  0  0  0  0  0
    1.1810   -2.0803    1.5718 H   0  0  0  0  0  0  0  0  0  0  0  0
   -0.1134   -2.3895   -0.8856 H   0  0  0  0  0  0  0  0  0  0  0  0
    2.3922   -0.6024   -0.9644 H   0  0  0  0  0  0  0  0  0  0  0  0
    1.8243   -1.4858   -2.3838 H   0  0  0  0  0  0  0  0  0  0  0  0
    2.1823    1.4051   -1.4735 H   0  0  0  0  0  0  0  0  0  0  0  0
    0.7093    2.2110   -1.8817 H   0  0  0  0  0  0  0  0  0  0  0  0
    1.1401   -4.4573   -0.9445 N   0  0  0  0  0  0  0  0  0  0  0  0
    1.7821   -5.7499   -0.9486 C   0  0  2  0  0  0  0  0  0  0  0  0
    2.1581   -6.0927    0.4869 C   0  0  0  0  0  0  0  0  0  0  0  0
    2.3040   -5.2432    1.3633 O   0  0  0  0  0  0  0  0  0  0  0  0
    3.0085   -5.7557   -1.8478 C   0  0  0  0  0  0  0  0  0  0  0  0
    0.1964   -4.3886   -1.3140 H   0  0  0  0  0  0  0  0  0  0  0  0
    1.0419   -6.4696   -1.3147 H   0  0  0  0  0  0  0  0  0  0  0  0
    3.7615   -5.0407   -1.4967 H   0  0  0  0  0  0  0  0  0  0  0  0
    3.4780   -6.7447   -1.8721 H   0  0  0  0  0  0  0  0  0  0  0  0
    2.7410   -5.4799   -2.8735 H   0  0  0  0  0  0  0  0  0  0  0  0
    2.3536   -7.4553    0.6640 N   0  0  0  0  0  0  0  0  0  0  0  0
    2.7295   -8.0304    1.9344 C   0  0  0  0  0  0  0  0  0  0  0  0
    2.1920   -8.0885   -0.1137 H   0  0  0  0  0  0  0  0  0  0  0  0
    3.8252   -8.1070    1.9929 H   0  0  0  0  0  0  0  0  0  0  0  0
    2.3627   -7.3895    2.7497 H   0  0  0  0  0  0  0  0  0  0  0  0
    2.2864   -9.0329    2.0284 H   0  0  0  0  0  0  0  0  0  0  0  0
  1  3  1  0  0  0  0
  1  7  1  0  0  0  0
  1  2  2  0  0  0  0
 21 22  1  0  0  0  0
 22 24  1  0  0  0  0
 22 23  2  0  0  0  0
 32 33  1  0  0  0  0
 33 41  1  0  0  0  0
 33 34  2  0  0  0  0
  8  9  1  0  0  0  0
  9 17  1  0  0  0  0
  9 10  2  0  0  0  0
 18 19  1  0  0  0  0
 19 31  1  0  0  0  0
 19 20  2  0  0  0  0
 32 35  1  0  0  0  0
  8 11  1  0  0  0  0
 41 42  1  0  0  0  0
 18 21  1  0  0  0  0
 31 32  1  0  0  0  0
  7  8  1  0  0  0  0
 17 18  1  0  0  0  0
  3  4  1  0  0  0  0
  3  5  1  0  0  0  0
  3  6  1  0  0  0  0
 35 38  1  0  0  0  0
 35 39  1  0  0  0  0
 35 40  1  0  0  0  0
 11 14  1  0  0  0  0
 11 15  1  0  0  0  0
 11 16  1  0  0  0  0
 42 44  1  0  0  0  0
 42 45  1  0  0  0  0
 42 46  1  0  0  0  0
 21 27  1  0  0  0  0
 21 28  1  0  0  0  0
 32 37  1  0  0  0  0
  8 13  1  0  0  0  0
 18 26  1  0  0  0  0
 24 29  1  0  0  0  0
 24 30  1  0  0  0  0
 41 43  1  0  0  0  0
  7 12  1  0  0  0  0
 31 36  1  0  0  0  0
 17 25  1  0  0  0  0
M  END
$$$$

  -OEChem-05262214473D

 46 45  0     1  0  0  0  0  0999 V2000
   -0.0543    1.9736    3.8406 C   0  0  0  0  0  0  0  0  0  0  0  0
    0.6744    1.6099    4.7562 O   0  0  0  0  0  0  0  0  0  0  0  0
   -0.5599    3.3779    3.8160 C   0  0  0  0  0  0  0  0  0  0  0  0
   -1.5202    3.4885    4.3450 H   0  0  0  0  0  0  0  0  0  0  0  0
    0.1282    4.0814    4.3116 H   0  0  0  0  0  0  0  0  0  0  0  0
   -0.7317    3.7994    2.8126 H   0  0  0  0  0  0  0  0  0  0  0  0
   -0.4812    1.1968    2.7762 N   0  0  0  0  0  0  0  0  0  0  0  0
   -0.1106   -0.1834    2.6051 C   0  0  2  0  0  0  0  0  0  0  0  0
   -0.0696   -0.4775    1.1113 C   0  0  0  0  0  0  0  0  0  0  0  0
   -0.6805    0.1900    0.2792 O   0  0  0  0  0  0  0  0  0  0  0  0
   -1.0852   -1.1101    3.3150 C   0  0  0  0  0  0  0  0  0  0  0  0
   -1.0883    1.6241    2.0791 H   0  0  0  0  0  0  0  0  0  0  0  0
    0.8937   -0.2959    3.0277 H   0  0  0  0  0  0  0  0  0  0  0  0
   -2.0970   -1.0114    2.9051 H   0  0  0  0  0  0  0  0  0  0  0  0
   -0.7860   -2.1580    3.2078 H   0  0  0  0  0  0  0  0  0  0  0  0
   -1.1357   -0.8775    4.3842 H   0  0  0  0  0  0  0  0  0  0  0  0
    0.6950   -1.6003    0.8178 N   0  0  0  0  0  0  0  0  0  0  0  0
    0.8777   -2.0908   -0.5246 C   0  0  2  0  0  0  0  0  0  0  0  0
    1.7680   -3.3246   -0.4458 C   0  0  0  0  0  0  0  0  0  0  0  0
    2.7658   -3.3883    0.2697 O   0  0  0  0  0  0  0  0  0  0  0  0
    1.5010   -1.0343   -1.4371 C   0  0  0  0  0  0  0  0  0  0  0  0
    0.5601    0.1161   -1.7487 C   0  0  0  0  0  0  0  0  0  0  0  0
   -0.6311   -0.0212   -2.0111 O   0  0  0  0  0  0  0  0  0  0  0  0
    1.1952    1.3389   -1.6984 N   0  0  0  0  0  0  0  0  0  0  0  0
    1.1810   -2.0803    1.5718 H   0  0  0  0  0  0  0  0  0  0  0  0
   -0.1134   -2.3895   -0.8856 H   0  0  0  0  0  0  0  0  0  0  0  0
    2.3922   -0.6024   -0.9644 H   0  0  0  0  0  0  0  0  0  0  0  0
    1.8243   -1.4858   -2.3838 H   0  0  0  0  0  0  0  0  0  0  0  0
    2.1823    1.4051   -1.4735 H   0  0  0  0  0  0  0  0  0  0  0  0
    0.7093    2.2110   -1.8817 H   0  0  0  0  0  0  0  0  0  0  0  0
    1.2916   -4.3661   -1.2296 N   0  0  0  0  0  0  0  0  0  0  0  0
    1.9583   -5.6447   -1.2919 C   0  0  2  0  0  0  0  0  0  0  0  0
    2.0365   -6.2038    0.1226 C   0  0  0  0  0  0  0  0  0  0  0  0
    1.9713   -5.4984    1.1272 O   0  0  0  0  0  0  0  0  0  0  0  0
    3.3449   -5.5166   -1.9031 C   0  0  0  0  0  0  0  0  0  0  0  0
    0.4441   -4.2392   -1.7749 H   0  0  0  0  0  0  0  0  0  0  0  0
    1.3322   -6.2980   -1.9093 H   0  0  0  0  0  0  0  0  0  0  0  0
    3.9866   -4.8656   -1.2982 H   0  0  0  0  0  0  0  0  0  0  0  0
    3.8380   -6.4915   -1.9759 H   0  0  0  0  0  0  0  0  0  0  0  0
    3.2892   -5.0866   -2.9090 H   0  0  0  0  0  0  0  0  0  0  0  0
    2.2308   -7.5779    0.1307 N   0  0  0  0  0  0  0  0  0  0  0  0
    2.3503   -8.3413    1.3509 C   0  0  0  0  0  0  0  0  0  0  0  0
    2.2538   -8.0845   -0.7494 H   0  0  0  0  0  0  0  0  0  0  0  0
    3.4115   -8.4289    1.6268 H   0  0  0  0  0  0  0  0  0  0  0  0
    1.8028   -7.8314    2.1574 H   0  0  0  0  0  0  0  0  0  0  0  0
    1.9272   -9.3451    1.1982 H   0  0  0  0  0  0  0  0  0  0  0  0
  1  3  1  0  0  0  0
  1  7  1  0  0  0  0
  1  2  2  0  0  0  0
 21 22  1  0  0  0  0
 22 24  1  0  0  0  0
 22 23  2  0  0  0  0
 32 33  1  0  0  0  0
 33 41  1  0  0  0  0
 33 34  2  0  0  0  0
  8  9  1  0  0  0  0
  9 17  1  0  0  0  0
  9 10  2  0  0  0  0
 18 19  1  0  0  0  0
 19 31  1  0  0  0  0
 19 20  2  0  0  0  0
 32 35  1  0  0  0  0
  8 11  1  0  0  0  0
 41 42  1  0  0  0  0
 18 21  1  0  0  0  0
 31 32  1  0  0  0  0
  7  8  1  0  0  0  0
 17 18  1  0  0  0  0
  3  4  1  0  0  0  0
  3  5  1  0  0  0  0
  3  6  1  0  0  0  0
 35 38  1  0  0  0  0
 35 39  1  0  0  0  0
 35 40  1  0  0  0  0
 11 14  1  0  0  0  0
 11 15  1  0  0  0  0
 11 16  1  0  0  0  0
 42 44  1  0  0  0  0
 42 45  1  0  0  0  0
 42 46  1  0  0  0  0
 21 27  1  0  0  0  0
 21 28  1  0  0  0  0
 32 37  1  0  0  0  0
  8 13  1  0  0  0  0
 18 26  1  0  0  0  0
 24 29  1  0  0  0  0
 24 30  1  0  0  0  0
 41 43  1  0  0  0  0
  7 12  1  0  0  0  0
 31 36  1  0  0  0  0
 17 25  1  0  0  0  0
M  END
$$$$

  -OEChem-05262214473D

 46 45  0     1  0  0  0  0  0999 V2000
   -0.0543    1.9736    3.8406 C   0  0  0  0  0  0  0  0  0  0  0  0
    0.6744    1.6099    4.7562 O   0  0  0  0  0  0  0  0  0  0  0  0
   -0.5599    3.3779    3.8160 C   0  0  0  0  0  0  0  0  0  0  0  0
   -1.5202    3.4885    4.3450 H   0  0  0  0  0  0  0  0  0  0  0  0
    0.1282    4.0814    4.3116 H   0  0  0  0  0  0  0  0  0  0  0  0
   -0.7317    3.7994    2.8126 H   0  0  0  0  0  0  0  0  0  0  0  0
   -0.4812    1.1968    2.7762 N   0  0  0  0  0  0  0  0  0  0  0  0
   -0.1106   -0.1834    2.6051 C   0  0  2  0  0  0  0  0  0  0  0  0
   -0.0696   -0.4775    1.1113 C   0  0  0  0  0  0  0  0  0  0  0  0
   -0.6805    0.1900    0.2792 O   0  0  0  0  0  0  0  0  0  0  0  0
   -1.0852   -1.1101    3.3150 C   0  0  0  0  0  0  0  0  0  0  0  0
   -1.0883    1.6241    2.0791 H   0  0  0  0  0  0  0  0  0  0  0  0
    0.8937   -0.2959    3.0277 H   0  0  0  0  0  0  0  0  0  0  0  0
   -2.0970   -1.0114    2.9051 H   0  0  0  0  0  0  0  0  0  0  0  0
   -0.7860   -2.1580    3.2078 H   0  0  0  0  0  0  0  0  0  0  0  0
   -1.1357   -0.8775    4.3842 H   0  0  0  0  0  0  0  0  0  0  0  0
    0.6950   -1.6003    0.8178 N   0  0  0  0  0  0  0  0  0  0  0  0
    0.8777   -2.0908   -0.5246 C   0  0  2  0  0  0  0  0  0  0  0  0
    1.7680   -3.3246   -0.4458 C   0  0  0  0  0  0  0  0  0  0  0  0
    2.5960   -3.4995    0.4460 O   0  0  0  0  0  0  0  0  0  0  0  0
    1.5010   -1.0343   -1.4371 C   0  0  0  0  0  0  0  0  0  0  0  0
    0.5601    0.1161   -1.7487 C   0  0  0  0  0  0  0  0  0  0  0  0
   -0.6311   -0.0212   -2.0111 O   0  0  0  0  0  0  0  0  0  0  0  0
    1.1952    1.3389   -1.6984 N   0  0  0  0  0  0  0  0  0  0  0  0
    1.1810   -2.0803    1.5718 H   0  0  0  0  0  0  0  0  0  0  0  0
   -0.1134   -2.3895   -0.8856 H   0  0  0  0  0  0  0  0  0  0  0  0
    2.3922   -0.6024   -0.9644 H   0  0  0  0  0  0  0  0  0  0  0  0
    1.8243   -1.4858   -2.3838 H   0  0  0  0  0  0  0  0  0  0  0  0
    2.1823    1.4051   -1.4735 H   0  0  0  0  0  0  0  0  0  0  0  0
    0.7093    2.2110   -1.8817 H   0  0  0  0  0  0  0  0  0  0  0  0
    1.4965   -4.2329   -1.4593 N   0  0  0  0  0  0  0  0  0  0  0  0
    2.1989   -5.4888   -1.5707 C   0  0  2  0  0  0  0  0  0  0  0  0
    1.9968   -6.2575   -0.2715 C   0  0  0  0  0  0  0  0  0  0  0  0
    1.7028   -5.7136    0.7909 O   0  0  0  0  0  0  0  0  0  0  0  0
    3.6781   -5.2727   -1.8499 C   0  0  0  0  0  0  0  0  0  0  0  0
    0.7780   -4.0219   -2.1456 H   0  0  0  0  0  0  0  0  0  0  0  0
    1.7350   -6.0385   -2.3969 H   0  0  0  0  0  0  0  0  0  0  0  0
    4.1601   -4.7234   -1.0329 H   0  0  0  0  0  0  0  0  0  0  0  0
    4.2042   -6.2264   -1.9624 H   0  0  0  0  0  0  0  0  0  0  0  0
    3.8208   -4.6940   -2.7689 H   0  0  0  0  0  0  0  0  0  0  0  0
    2.2257   -7.6173   -0.4287 N   0  0  0  0  0  0  0  0  0  0  0  0
    2.1105   -8.5583    0.6609 C   0  0  0  0  0  0  0  0  0  0  0  0
    2.4467   -7.9836   -1.3499 H   0  0  0  0  0  0  0  0  0  0  0  0
    3.0930   -8.6900    1.1378 H   0  0  0  0  0  0  0  0  0  0  0  0
    1.3921   -8.1761    1.4010 H   0  0  0  0  0  0  0  0  0  0  0  0
    1.7584   -9.5259    0.2739 H   0  0  0  0  0  0  0  0  0  0  0  0
  1  3  1  0  0  0  0
  1  7  1  0  0  0  0
  1  2  2  0  0  0  0
 21 22  1  0  0  0  0
 22 24  1  0  0  0  0
 22 23  2  0  0  0  0
 32 33  1  0  0  0  0
 33 41  1  0  0  0  0
 33 34  2  0  0  0  0
  8  9  1  0  0  0  0
  9 17  1  0  0  0  0
  9 10  2  0  0  0  0
 18 19  1  0  0  0  0
 19 31  1  0  0  0  0
 19 20  2  0  0  0  0
 32 35  1  0  0  0  0
  8 11  1  0  0  0  0
 41 42  1  0  0  0  0
 18 21  1  0  0  0  0
 31 32  1  0  0  0  0
  7  8  1  0  0  0  0
 17 18  1  0  0  0  0
  3  4  1  0  0  0  0
  3  5  1  0  0  0  0
  3  6  1  0  0  0  0
 35 38  1  0  0  0  0
 35 39  1  0  0  0  0
 35 40  1  0  0  0  0
 11 14  1  0  0  0  0
 11 15  1  0  0  0  0
 11 16  1  0  0  0  0
 42 44  1  0  0  0  0
 42 45  1  0  0  0  0
 42 46  1  0  0  0  0
 21 27  1  0  0  0  0
 21 28  1  0  0  0  0
 32 37  1  0  0  0  0
  8 13  1  0  0  0  0
 18 26  1  0  0  0  0
 24 29  1  0  0  0  0
 24 30  1  0  0  0  0
 41 43  1  0  0  0  0
  7 12  1  0  0  0  0
 31 36  1  0  0  0  0
 17 25  1  0  0  0  0
M  END
$$$$

  -OEChem-05262214473D

 46 45  0     1  0  0  0  0  0999 V2000
   -0.0543    1.9736    3.8406 C   0  0  0  0  0  0  0  0  0  0  0  0
    0.6744    1.6099    4.7562 O   0  0  0  0  0  0  0  0  0  0  0  0
   -0.5599    3.3779    3.8160 C   0  0  0  0  0  0  0  0  0  0  0  0
   -1.5202    3.4885    4.3450 H   0  0  0  0  0  0  0  0  0  0  0  0
    0.1282    4.0814    4.3116 H   0  0  0  0  0  0  0  0  0  0  0  0
   -0.7317    3.7994    2.8126 H   0  0  0  0  0  0  0  0  0  0  0  0
   -0.4812    1.1968    2.7762 N   0  0  0  0  0  0  0  0  0  0  0  0
   -0.1106   -0.1834    2.6051 C   0  0  2  0  0  0  0  0  0  0  0  0
   -0.0696   -0.4775    1.1113 C   0  0  0  0  0  0  0  0  0  0  0  0
   -0.6805    0.1900    0.2792 O   0  0  0  0  0  0  0  0  0  0  0  0
   -1.0852   -1.1101    3.3150 C   0  0  0  0  0  0  0  0  0  0  0  0
   -1.0883    1.6241    2.0791 H   0  0  0  0  0  0  0  0  0  0  0  0
    0.8937   -0.2959    3.0277 H   0  0  0  0  0  0  0  0  0  0  0  0
   -2.0970   -1.0114    2.9051 H   0  0  0  0  0  0  0  0  0  0  0  0
   -0.7860   -2.1580    3.2078 H   0  0  0  0  0  0  0  0  0  0  0  0
   -1.1357   -0.8775    4.3842 H   0  0  0  0  0  0  0  0  0  0  0  0
    0.6950   -1.6003    0.8178 N   0  0  0  0  0  0  0  0  0  0  0  0
    0.8777   -2.0908   -0.5246 C   0  0  2  0  0  0  0  0  0  0  0  0
    1.7680   -3.3246   -0.4458 C   0  0  0  0  0  0  0  0  0  0  0  0
    2.3966   -3.6359    0.5639 O   0  0  0  0  0  0  0  0  0  0  0  0
    1.5010   -1.0343   -1.4371 C   0  0  0  0  0  0  0  0  0  0  0  0
    0.5601    0.1161   -1.7487 C   0  0  0  0  0  0  0  0  0  0  0  0
   -0.6311   -0.0212   -2.0111 O   0  0  0  0  0  0  0  0  0  0  0  0
    1.1952    1.3389   -1.6984 N   0  0  0  0  0  0  0  0  0  0  0  0
    1.1810   -2.0803    1.5718 H   0  0  0  0  0  0  0  0  0  0  0  0
   -0.1134   -2.3895   -0.8856 H   0  0  0  0  0  0  0  0  0  0  0  0
    2.3922   -0.6024   -0.9644 H   0  0  0  0  0  0  0  0  0  0  0  0
    1.8243   -1.4858   -2.3838 H   0  0  0  0  0  0  0  0  0  0  0  0
    2.1823    1.4051   -1.4735 H   0  0  0  0  0  0  0  0  0  0  0  0
    0.7093    2.2110   -1.8817 H   0  0  0  0  0  0  0  0  0  0  0  0
    1.7408   -4.0668   -1.6181 N   0  0  0  0  0  0  0  0  0  0  0  0
    2.4877   -5.2929   -1.7659 C   0  0  2  0  0  0  0  0  0  0  0  0
    2.0419   -6.2503   -0.6687 C   0  0  0  0  0  0  0  0  0  0  0  0
    1.5168   -5.8742    0.3772 O   0  0  0  0  0  0  0  0  0  0  0  0
    3.9856   -5.0407   -1.6917 C   0  0  0  0  0  0  0  0  0  0  0  0
    1.1753   -3.7515   -2.4009 H   0  0  0  0  0  0  0  0  0  0  0  0
    2.2227   -5.7087   -2.7442 H   0  0  0  0  0  0  0  0  0  0  0  0
    4.2701   -4.6239   -0.7187 H   0  0  0  0  0  0  0  0  0  0  0  0
    4.5515   -5.9675   -1.8325 H   0  0  0  0  0  0  0  0  0  0  0  0
    4.2996   -4.3289   -2.4628 H   0  0  0  0  0  0  0  0  0  0  0  0
    2.3386   -7.5708   -0.9760 N   0  0  0  0  0  0  0  0  0  0  0  0
    2.0265   -8.6669   -0.0887 C   0  0  0  0  0  0  0  0  0  0  0  0
    2.7575   -7.7928   -1.8743 H   0  0  0  0  0  0  0  0  0  0  0  0
    2.8913   -8.8725    0.5592 H   0  0  0  0  0  0  0  0  0  0  0  0
    1.1585   -8.4001    0.5322 H   0  0  0  0  0  0  0  0  0  0  0  0
    1.7915   -9.5630   -0.6817 H   0  0  0  0  0  0  0  0  0  0  0  0
  1  3  1  0  0  0  0
  1  7  1  0  0  0  0
  1  2  2  0  0  0  0
 21 22  1  0  0  0  0
 22 24  1  0  0  0  0
 22 23  2  0  0  0  0
 32 33  1  0  0  0  0
 33 41  1  0  0  0  0
 33 34  2  0  0  0  0
  8  9  1  0  0  0  0
  9 17  1  0  0  0  0
  9 10  2  0  0  0  0
 18 19  1  0  0  0  0
 19 31  1  0  0  0  0
 19 20  2  0  0  0  0
 32 35  1  0  0  0  0
  8 11  1  0  0  0  0
 41 42  1  0  0  0  0
 18 21  1  0  0  0  0
 31 32  1  0  0  0  0
  7  8  1  0  0  0  0
 17 18  1  0  0  0  0
  3  4  1  0  0  0  0
  3  5  1  0  0  0  0
  3  6  1  0  0  0  0
 35 38  1  0  0  0  0
 35 39  1  0  0  0  0
 35 40  1  0  0  0  0
 11 14  1  0  0  0  0
 11 15  1  0  0  0  0
 11 16  1  0  0  0  0
 42 44  1  0  0  0  0
 42 45  1  0  0  0  0
 42 46  1  0  0  0  0
 21 27  1  0  0  0  0
 21 28  1  0  0  0  0
 32 37  1  0  0  0  0
  8 13  1  0  0  0  0
 18 26  1  0  0  0  0
 24 29  1  0  0  0  0
 24 30  1  0  0  0  0
 41 43  1  0  0  0  0
  7 12  1  0  0  0  0
 31 36  1  0  0  0  0
 17 25  1  0  0  0  0
M  END
$$$$

  -OEChem-05262214473D

 46 45  0     1  0  0  0  0  0999 V2000
   -0.0543    1.9736    3.8406 C   0  0  0  0  0  0  0  0  0  0  0  0
    0.6744    1.6099    4.7562 O   0  0  0  0  0  0  0  0  0  0  0  0
   -0.5599    3.3779    3.8160 C   0  0  0  0  0  0  0  0  0  0  0  0
   -1.5202    3.4885    4.3450 H   0  0  0  0  0  0  0  0  0  0  0  0
    0.1282    4.0814    4.3116 H   0  0  0  0  0  0  0  0  0  0  0  0
   -0.7317    3.7994    2.8126 H   0  0  0  0  0  0  0  0  0  0  0  0
   -0.4812    1.1968    2.7762 N   0  0  0  0  0  0  0  0  0  0  0  0
   -0.1106   -0.1834    2.6051 C   0  0  2  0  0  0  0  0  0  0  0  0
   -0.0696   -0.4775    1.1113 C   0  0  0  0  0  0  0  0  0  0  0  0
   -0.6805    0.1900    0.2792 O   0  0  0  0  0  0  0  0  0  0  0  0
   -1.0852   -1.1101    3.3150 C   0  0  0  0  0  0  0  0  0  0  0  0
   -1.0883    1.6241    2.0791 H   0  0  0  0  0  0  0  0  0  0  0  0
    0.8937   -0.2959    3.0277 H   0  0  0  0  0  0  0  0  0  0  0  0
   -2.0970   -1.0114    2.9051 H   0  0  0  0  0  0  0  0  0  0  0  0
   -0.7860   -2.1580    3.2078 H   0  0  0  0  0  0  0  0  0  0  0  0
   -1.1357   -0.8775    4.3842 H   0  0  0  0  0  0  0  0  0  0  0  0
    0.6950   -1.6003    0.8178 N   0  0  0  0  0  0  0  0  0  0  0  0
    0.8777   -2.0908   -0.5246 C   0  0  2  0  0  0  0  0  0  0  0  0
    1.4352   -3.5052   -0.4251 C   0  0  0  0  0  0  0  0  0  0  0  0
    1.6256   -4.0783    0.6458 O   0  0  0  0  0  0  0  0  0  0  0  0
    1.8174   -1.1973   -1.3345 C   0  0  0  0  0  0  0  0  0  0  0  0
    1.2124    0.1536   -1.6736 C   0  0  0  0  0  0  0  0  0  0  0  0
    0.0525    0.3152   -2.0410 O   0  0  0  0  0  0  0  0  0  0  0  0
    2.1147    1.1844   -1.5168 N   0  0  0  0  0  0  0  0  0  0  0  0
    1.1810   -2.0803    1.5718 H   0  0  0  0  0  0  0  0  0  0  0  0
   -0.1185   -2.1321   -0.9803 H   0  0  0  0  0  0  0  0  0  0  0  0
    2.7387   -1.0050   -0.7702 H   0  0  0  0  0  0  0  0  0  0  0  0
    2.1088   -1.6928   -2.2695 H   0  0  0  0  0  0  0  0  0  0  0  0
    3.0639    1.0042   -1.2071 H   0  0  0  0  0  0  0  0  0  0  0  0
    1.8710    2.1521   -1.7021 H   0  0  0  0  0  0  0  0  0  0  0  0
    1.6492   -4.0736   -1.6729 N   0  0  0  0  0  0  0  0  0  0  0  0
    2.1498   -5.4186   -1.8262 C   0  0  2  0  0  0  0  0  0  0  0  0
    1.1923   -6.3613   -1.1094 C   0  0  0  0  0  0  0  0  0  0  0  0
    0.4377   -5.9951   -0.2107 O   0  0  0  0  0  0  0  0  0  0  0  0
    3.5597   -5.5508   -1.2718 C   0  0  0  0  0  0  0  0  0  0  0  0
    1.4438   -3.5390   -2.5118 H   0  0  0  0  0  0  0  0  0  0  0  0
    2.1439   -5.6378   -2.8995 H   0  0  0  0  0  0  0  0  0  0  0  0
    3.5855   -5.3349   -0.1974 H   0  0  0  0  0  0  0  0  0  0  0  0
    3.9487   -6.5644   -1.4146 H   0  0  0  0  0  0  0  0  0  0  0  0
    4.2408   -4.8511   -1.7679 H   0  0  0  0  0  0  0  0  0  0  0  0
    1.3103   -7.6681   -1.5615 N   0  0  0  0  0  0  0  0  0  0  0  0
    0.5182   -8.7520   -1.0288 C   0  0  0  0  0  0  0  0  0  0  0  0
    1.9484   -7.8775   -2.3235 H   0  0  0  0  0  0  0  0  0  0  0  0
    1.0659   -9.2382   -0.2080 H   0  0  0  0  0  0  0  0  0  0  0  0
   -0.4357   -8.3568   -0.6493 H   0  0  0  0  0  0  0  0  0  0  0  0
    0.3206   -9.4866   -1.8233 H   0  0  0  0  0  0  0  0  0  0  0  0
  1  3  1  0  0  0  0
  1  7  1  0  0  0  0
  1  2  2  0  0  0  0
 21 22  1  0  0  0  0
 22 24  1  0  0  0  0
 22 23  2  0  0  0  0
 32 33  1  0  0  0  0
 33 41  1  0  0  0  0
 33 34  2  0  0  0  0
  8  9  1  0  0  0  0
  9 17  1  0  0  0  0
  9 10  2  0  0  0  0
 18 19  1  0  0  0  0
 19 31  1  0  0  0  0
 19 20  2  0  0  0  0
 32 35  1  0  0  0  0
  8 11  1  0  0  0  0
 41 42  1  0  0  0  0
 18 21  1  0  0  0  0
 31 32  1  0  0  0  0
  7  8  1  0  0  0  0
 17 18  1  0  0  0  0
  3  4  1  0  0  0  0
  3  5  1  0  0  0  0
  3  6  1  0  0  0  0
 35 38  1  0  0  0  0
 35 39  1  0  0  0  0
 35 40  1  0  0  0  0
 11 14  1  0  0  0  0
 11 15  1  0  0  0  0
 11 16  1  0  0  0  0
 42 44  1  0  0  0  0
 42 45  1  0  0  0  0
 42 46  1  0  0  0  0
 21 27  1  0  0  0  0
 21 28  1  0  0  0  0
 32 37  1  0  0  0  0
  8 13  1  0  0  0  0
 18 26  1  0  0  0  0
 24 29  1  0  0  0  0
 24 30  1  0  0  0  0
 41 43  1  0  0  0  0
  7 12  1  0  0  0  0
 31 36  1  0  0  0  0
 17 25  1  0  0  0  0
M  END
$$$$

  -OEChem-05262214473D

 46 45  0     1  0  0  0  0  0999 V2000
   -0.0543    1.9736    3.8406 C   0  0  0  0  0  0  0  0  0  0  0  0
    0.6744    1.6099    4.7562 O   0  0  0  0  0  0  0  0  0  0  0  0
   -0.5599    3.3779    3.8160 C   0  0  0  0  0  0  0  0  0  0  0  0
   -1.5202    3.4885    4.3450 H   0  0  0  0  0  0  0  0  0  0  0  0
    0.1282    4.0814    4.3116 H   0  0  0  0  0  0  0  0  0  0  0  0
   -0.7317    3.7994    2.8126 H   0  0  0  0  0  0  0  0  0  0  0  0
   -0.4812    1.1968    2.7762 N   0  0  0  0  0  0  0  0  0  0  0  0
   -0.1106   -0.1834    2.6051 C   0  0  2  0  0  0  0  0  0  0  0  0
   -0.0696   -0.4775    1.1113 C   0  0  0  0  0  0  0  0  0  0  0  0
   -0.6805    0.1900    0.2792 O   0  0  0  0  0  0  0  0  0  0  0  0
   -1.0852   -1.1101    3.3150 C   0  0  0  0  0  0  0  0  0  0  0  0
   -1.0883    1.6241    2.0791 H   0  0  0  0  0  0  0  0  0  0  0  0
    0.8937   -0.2959    3.0277 H   0  0  0  0  0  0  0  0  0  0  0  0
   -2.0970   -1.0114    2.9051 H   0  0  0  0  0  0  0  0  0  0  0  0
   -0.7860   -2.1580    3.2078 H   0  0  0  0  0  0  0  0  0  0  0  0
   -1.1357   -0.8775    4.3842 H   0  0  0  0  0  0  0  0  0  0  0  0
    0.6950   -1.6003    0.8178 N   0  0  0  0  0  0  0  0  0  0  0  0
    0.8777   -2.0908   -0.5246 C   0  0  2  0  0  0  0  0  0  0  0  0
    1.4352   -3.5052   -0.4251 C   0  0  0  0  0  0  0  0  0  0  0  0
    1.3799   -4.1782    0.6022 O   0  0  0  0  0  0  0  0  0  0  0  0
    1.8174   -1.1973   -1.3345 C   0  0  0  0  0  0  0  0  0  0  0  0
    1.2124    0.1536   -1.6736 C   0  0  0  0  0  0  0  0  0  0  0  0
    0.0525    0.3152   -2.0410 O   0  0  0  0  0  0  0  0  0  0  0  0
    2.1147    1.1844   -1.5168 N   0  0  0  0  0  0  0  0  0  0  0  0
    1.1810   -2.0803    1.5718 H   0  0  0  0  0  0  0  0  0  0  0  0
   -0.1185   -2.1321   -0.9803 H   0  0  0  0  0  0  0  0  0  0  0  0
    2.7387   -1.0050   -0.7702 H   0  0  0  0  0  0  0  0  0  0  0  0
    2.1088   -1.6928   -2.2695 H   0  0  0  0  0  0  0  0  0  0  0  0
    3.0639    1.0042   -1.2071 H   0  0  0  0  0  0  0  0  0  0  0  0
    1.8710    2.1521   -1.7021 H   0  0  0  0  0  0  0  0  0  0  0  0
    1.9579   -3.9490   -1.6317 N   0  0  0  0  0  0  0  0  0  0  0  0
    2.5187   -5.2702   -1.7837 C   0  0  2  0  0  0  0  0  0  0  0  0
    1.4446   -6.2829   -1.4093 C   0  0  0  0  0  0  0  0  0  0  0  0
    0.4867   -6.0095   -0.6891 O   0  0  0  0  0  0  0  0  0  0  0  0
    3.7580   -5.4479   -0.9204 C   0  0  0  0  0  0  0  0  0  0  0  0
    1.9442   -3.3368   -2.4421 H   0  0  0  0  0  0  0  0  0  0  0  0
    2.7762   -5.3845   -2.8423 H   0  0  0  0  0  0  0  0  0  0  0  0
    3.5196   -5.3368    0.1437 H   0  0  0  0  0  0  0  0  0  0  0  0
    4.1986   -6.4408   -1.0585 H   0  0  0  0  0  0  0  0  0  0  0  0
    4.5179   -4.6998   -1.1706 H   0  0  0  0  0  0  0  0  0  0  0  0
    1.7046   -7.5392   -1.9388 N   0  0  0  0  0  0  0  0  0  0  0  0
    0.8392   -8.6737   -1.7155 C   0  0  0  0  0  0  0  0  0  0  0  0
    2.5124   -7.6704   -2.5405 H   0  0  0  0  0  0  0  0  0  0  0  0
    1.1881   -9.2341   -0.8356 H   0  0  0  0  0  0  0  0  0  0  0  0
   -0.1886   -8.3222   -1.5422 H   0  0  0  0  0  0  0  0  0  0  0  0
    0.8586   -9.3290   -2.5988 H   0  0  0  0  0  0  0  0  0  0  0  0
  1  3  1  0  0  0  0
  1  7  1  0  0  0  0
  1  2  2  0  0  0  0
 21 22  1  0  0  0  0
 22 24  1  0  0  0  0
 22 23  2  0  0  0  0
 32 33  1  0  0  0  0
 33 41  1  0  0  0  0
 33 34  2  0  0  0  0
  8  9  1  0  0  0  0
  9 17  1  0  0  0  0
  9 10  2  0  0  0  0
 18 19  1  0  0  0  0
 19 31  1  0  0  0  0
 19 20  2  0  0  0  0
 32 35  1  0  0  0  0
  8 11  1  0  0  0  0
 41 42  1  0  0  0  0
 18 21  1  0  0  0  0
 31 32  1  0  0  0  0
  7  8  1  0  0  0  0
 17 18  1  0  0  0  0
  3  4  1  0  0  0  0
  3  5  1  0  0  0  0
  3  6  1  0  0  0  0
 35 38  1  0  0  0  0
 35 39  1  0  0  0  0
 35 40  1  0  0  0  0
 11 14  1  0  0  0  0
 11 15  1  0  0  0  0
 11 16  1  0  0  0  0
 42 44  1  0  0  0  0
 42 45  1  0  0  0  0
 42 46  1  0  0  0  0
 21 27  1  0  0  0  0
 21 28  1  0  0  0  0
 32 37  1  0  0  0  0
  8 13  1  0  0  0  0
 18 26  1  0  0  0  0
 24 29  1  0  0  0  0
 24 30  1  0  0  0  0
 41 43  1  0  0  0  0
  7 12  1  0  0  0  0
 31 36  1  0  0  0  0
 17 25  1  0  0  0  0
M  END
$$$$

  -OEChem-05262214473D

 46 45  0     1  0  0  0  0  0999 V2000
   -0.0543    1.9736    3.8406 C   0  0  0  0  0  0  0  0  0  0  0  0
    0.6744    1.6099    4.7562 O   0  0  0  0  0  0  0  0  0  0  0  0
   -0.5599    3.3779    3.8160 C   0  0  0  0  0  0  0  0  0  0  0  0
   -1.5202    3.4885    4.3450 H   0  0  0  0  0  0  0  0  0  0  0  0
    0.1282    4.0814    4.3116 H   0  0  0  0  0  0  0  0  0  0  0  0
   -0.7317    3.7994    2.8126 H   0  0  0  0  0  0  0  0  0  0  0  0
   -0.4812    1.1968    2.7762 N   0  0  0  0  0  0  0  0  0  0  0  0
   -0.1106   -0.1834    2.6051 C   0  0  2  0  0  0  0  0  0  0  0  0
   -0.0696   -0.4775    1.1113 C   0  0  0  0  0  0  0  0  0  0  0  0
   -0.6805    0.1900    0.2792 O   0  0  0  0  0  0  0  0  0  0  0  0
   -1.0852   -1.1101    3.3150 C   0  0  0  0  0  0  0  0  0  0  0  0
   -1.0883    1.6241    2.0791 H   0  0  0  0  0  0  0  0  0  0  0  0
    0.8937   -0.2959    3.0277 H   0  0  0  0  0  0  0  0  0  0  0  0
   -2.0970   -1.0114    2.9051 H   0  0  0  0  0  0  0  0  0  0  0  0
   -0.7860   -2.1580    3.2078 H   0  0  0  0  0  0  0  0  0  0  0  0
   -1.1357   -0.8775    4.3842 H   0  0  0  0  0  0  0  0  0  0  0  0
    0.6950   -1.6003    0.8178 N   0  0  0  0  0  0  0  0  0  0  0  0
    0.8777   -2.0908   -0.5246 C   0  0  2  0  0  0  0  0  0  0  0  0
    1.4352   -3.5052   -0.4251 C   0  0  0  0  0  0  0  0  0  0  0  0
    1.1547   -4.2748    0.4917 O   0  0  0  0  0  0  0  0  0  0  0  0
    1.8174   -1.1973   -1.3345 C   0  0  0  0  0  0  0  0  0  0  0  0
    1.2124    0.1536   -1.6736 C   0  0  0  0  0  0  0  0  0  0  0  0
    0.0525    0.3152   -2.0410 O   0  0  0  0  0  0  0  0  0  0  0  0
    2.1147    1.1844   -1.5168 N   0  0  0  0  0  0  0  0  0  0  0  0
    1.1810   -2.0803    1.5718 H   0  0  0  0  0  0  0  0  0  0  0  0
   -0.1185   -2.1321   -0.9803 H   0  0  0  0  0  0  0  0  0  0  0  0
    2.7387   -1.0050   -0.7702 H   0  0  0  0  0  0  0  0  0  0  0  0
    2.1088   -1.6928   -2.2695 H   0  0  0  0  0  0  0  0  0  0  0  0
    3.0639    1.0042   -1.2071 H   0  0  0  0  0  0  0  0  0  0  0  0
    1.8710    2.1521   -1.7021 H   0  0  0  0  0  0  0  0  0  0  0  0
    2.2440   -3.8273   -1.5058 N   0  0  0  0  0  0  0  0  0  0  0  0
    2.8623   -5.1246   -1.6399 C   0  0  2  0  0  0  0  0  0  0  0  0
    1.7591   -6.1745   -1.6310 C   0  0  0  0  0  0  0  0  0  0  0  0
    0.6492   -5.9772   -1.1409 O   0  0  0  0  0  0  0  0  0  0  0  0
    3.8634   -5.3785   -0.5236 C   0  0  0  0  0  0  0  0  0  0  0  0
    2.4073   -3.1397   -2.2354 H   0  0  0  0  0  0  0  0  0  0  0  0
    3.3690   -5.1346   -2.6111 H   0  0  0  0  0  0  0  0  0  0  0  0
    3.3741   -5.3722    0.4572 H   0  0  0  0  0  0  0  0  0  0  0  0
    4.3523   -6.3510   -0.6427 H   0  0  0  0  0  0  0  0  0  0  0  0
    4.6395   -4.6056   -0.5128 H   0  0  0  0  0  0  0  0  0  0  0  0
    2.1740   -7.3723   -2.1962 N   0  0  0  0  0  0  0  0  0  0  0  0
    1.3130   -8.5277   -2.2943 C   0  0  0  0  0  0  0  0  0  0  0  0
    3.1058   -7.4404   -2.5949 H   0  0  0  0  0  0  0  0  0  0  0  0
    1.4568   -9.1687   -1.4120 H   0  0  0  0  0  0  0  0  0  0  0  0
    0.2640   -8.2000   -2.3421 H   0  0  0  0  0  0  0  0  0  0  0  0
    1.5620   -9.0943   -3.2036 H   0  0  0  0  0  0  0  0  0  0  0  0
  1  3  1  0  0  0  0
  1  7  1  0  0  0  0
  1  2  2  0  0  0  0
 21 22  1  0  0  0  0
 22 24  1  0  0  0  0
 22 23  2  0  0  0  0
 32 33  1  0  0  0  0
 33 41  1  0  0  0  0
 33 34  2  0  0  0  0
  8  9  1  0  0  0  0
  9 17  1  0  0  0  0
  9 10  2  0  0  0  0
 18 19  1  0  0  0  0
 19 31  1  0  0  0  0
 19 20  2  0  0  0  0
 32 35  1  0  0  0  0
  8 11  1  0  0  0  0
 41 42  1  0  0  0  0
 18 21  1  0  0  0  0
 31 32  1  0  0  0  0
  7  8  1  0  0  0  0
 17 18  1  0  0  0  0
  3  4  1  0  0  0  0
  3  5  1  0  0  0  0
  3  6  1  0  0  0  0
 35 38  1  0  0  0  0
 35 39  1  0  0  0  0
 35 40  1  0  0  0  0
 11 14  1  0  0  0  0
 11 15  1  0  0  0  0
 11 16  1  0  0  0  0
 42 44  1  0  0  0  0
 42 45  1  0  0  0  0
 42 46  1  0  0  0  0
 21 27  1  0  0  0  0
 21 28  1  0  0  0  0
 32 37  1  0  0  0  0
  8 13  1  0  0  0  0
 18 26  1  0  0  0  0
 24 29  1  0  0  0  0
 24 30  1  0  0  0  0
 41 43  1  0  0  0  0
  7 12  1  0  0  0  0
 31 36  1  0  0  0  0
 17 25  1  0  0  0  0
M  END
$$$$

  -OEChem-05262214473D

 46 45  0     1  0  0  0  0  0999 V2000
   -0.0543    1.9736    3.8406 C   0  0  0  0  0  0  0  0  0  0  0  0
    0.6744    1.6099    4.7562 O   0  0  0  0  0  0  0  0  0  0  0  0
   -0.5599    3.3779    3.8160 C   0  0  0  0  0  0  0  0  0  0  0  0
   -1.5202    3.4885    4.3450 H   0  0  0  0  0  0  0  0  0  0  0  0
    0.1282    4.0814    4.3116 H   0  0  0  0  0  0  0  0  0  0  0  0
   -0.7317    3.7994    2.8126 H   0  0  0  0  0  0  0  0  0  0  0  0
   -0.4812    1.1968    2.7762 N   0  0  0  0  0  0  0  0  0  0  0  0
   -0.1106   -0.1834    2.6051 C   0  0  2  0  0  0  0  0  0  0  0  0
   -0.0696   -0.4775    1.1113 C   0  0  0  0  0  0  0  0  0  0  0  0
   -0.6805    0.1900    0.2792 O   0  0  0  0  0  0  0  0  0  0  0  0
   -1.0852   -1.1101    3.3150 C   0  0  0  0  0  0  0  0  0  0  0  0
   -1.0883    1.6241    2.0791 H   0  0  0  0  0  0  0  0  0  0  0  0
    0.8937   -0.2959    3.0277 H   0  0  0  0  0  0  0  0  0  0  0  0
   -2.0970   -1.0114    2.9051 H   0  0  0  0  0  0  0  0  0  0  0  0
   -0.7860   -2.1580    3.2078 H   0  0  0  0  0  0  0  0  0  0  0  0
   -1.1357   -0.8775    4.3842 H   0  0  0  0  0  0  0  0  0  0  0  0
    0.6950   -1.6003    0.8178 N   0  0  0  0  0  0  0  0  0  0  0  0
    0.8777   -2.0908   -0.5246 C   0  0  2  0  0  0  0  0  0  0  0  0
    1.4352   -3.5052   -0.4251 C   0  0  0  0  0  0  0  0  0  0  0  0
    0.9653   -4.3614    0.3216 O   0  0  0  0  0  0  0  0  0  0  0  0
    1.8174   -1.1973   -1.3345 C   0  0  0  0  0  0  0  0  0  0  0  0
    1.2124    0.1536   -1.6736 C   0  0  0  0  0  0  0  0  0  0  0  0
    0.0525    0.3152   -2.0410 O   0  0  0  0  0  0  0  0  0  0  0  0
    2.1147    1.1844   -1.5168 N   0  0  0  0  0  0  0  0  0  0  0  0
    1.1810   -2.0803    1.5718 H   0  0  0  0  0  0  0  0  0  0  0  0
   -0.1185   -2.1321   -0.9803 H   0  0  0  0  0  0  0  0  0  0  0  0
    2.7387   -1.0050   -0.7702 H   0  0  0  0  0  0  0  0  0  0  0  0
    2.1088   -1.6928   -2.2695 H   0  0  0  0  0  0  0  0  0  0  0  0
    3.0639    1.0042   -1.2071 H   0  0  0  0  0  0  0  0  0  0  0  0
    1.8710    2.1521   -1.7021 H   0  0  0  0  0  0  0  0  0  0  0  0
    2.4881   -3.7169   -1.3040 N   0  0  0  0  0  0  0  0  0  0  0  0
    3.1572   -4.9918   -1.4047 C   0  0  2  0  0  0  0  0  0  0  0  0
    2.1144   -6.0435   -1.7593 C   0  0  0  0  0  0  0  0  0  0  0  0
    0.9142   -5.9005   -1.5351 O   0  0  0  0  0  0  0  0  0  0  0  0
    3.8686   -5.3472   -0.1084 C   0  0  0  0  0  0  0  0  0  0  0  0
    2.8017   -2.9610   -1.9057 H   0  0  0  0  0  0  0  0  0  0  0  0
    3.8818   -4.9050   -2.2217 H   0  0  0  0  0  0  0  0  0  0  0  0
    3.1587   -5.4384    0.7217 H   0  0  0  0  0  0  0  0  0  0  0  0
    4.3994   -6.3010   -0.1958 H   0  0  0  0  0  0  0  0  0  0  0  0
    4.5973   -4.5749    0.1607 H   0  0  0  0  0  0  0  0  0  0  0  0
    2.6865   -7.1787   -2.3163 N   0  0  0  0  0  0  0  0  0  0  0  0
    1.9072   -8.3238   -2.7257 C   0  0  0  0  0  0  0  0  0  0  0  0
    3.6881   -7.2029   -2.4832 H   0  0  0  0  0  0  0  0  0  0  0  0
    1.8538   -9.0464   -1.8981 H   0  0  0  0  0  0  0  0  0  0  0  0
    0.8913   -7.9986   -2.9944 H   0  0  0  0  0  0  0  0  0  0  0  0
    2.3827   -8.7984   -3.5966 H   0  0  0  0  0  0  0  0  0  0  0  0
  1  3  1  0  0  0  0
  1  7  1  0  0  0  0
  1  2  2  0  0  0  0
 21 22  1  0  0  0  0
 22 24  1  0  0  0  0
 22 23  2  0  0  0  0
 32 33  1  0  0  0  0
 33 41  1  0  0  0  0
 33 34  2  0  0  0  0
  8  9  1  0  0  0  0
  9 17  1  0  0  0  0
  9 10  2  0  0  0  0
 18 19  1  0  0  0  0
 19 31  1  0  0  0  0
 19 20  2  0  0  0  0
 32 35  1  0  0  0  0
  8 11  1  0  0  0  0
 41 42  1  0  0  0  0
 18 21  1  0  0  0  0
 31 32  1  0  0  0  0
  7  8  1  0  0  0  0
 17 18  1  0  0  0  0
  3  4  1  0  0  0  0
  3  5  1  0  0  0  0
  3  6  1  0  0  0  0
 35 38  1  0  0  0  0
 35 39  1  0  0  0  0
 35 40  1  0  0  0  0
 11 14  1  0  0  0  0
 11 15  1  0  0  0  0
 11 16  1  0  0  0  0
 42 44  1  0  0  0  0
 42 45  1  0  0  0  0
 42 46  1  0  0  0  0
 21 27  1  0  0  0  0
 21 28  1  0  0  0  0
 32 37  1  0  0  0  0
  8 13  1  0  0  0  0
 18 26  1  0  0  0  0
 24 29  1  0  0  0  0
 24 30  1  0  0  0  0
 41 43  1  0  0  0  0
  7 12  1  0  0  0  0
 31 36  1  0  0  0  0
 17 25  1  0  0  0  0
M  END
$$$$

  -OEChem-05262214473D

 46 45  0     1  0  0  0  0  0999 V2000
   -0.0543    1.9736    3.8406 C   0  0  0  0  0  0  0  0  0  0  0  0
    0.6744    1.6099    4.7562 O   0  0  0  0  0  0  0  0  0  0  0  0
   -0.5599    3.3779    3.8160 C   0  0  0  0  0  0  0  0  0  0  0  0
   -1.5202    3.4885    4.3450 H   0  0  0  0  0  0  0  0  0  0  0  0
    0.1282    4.0814    4.3116 H   0  0  0  0  0  0  0  0  0  0  0  0
   -0.7317    3.7994    2.8126 H   0  0  0  0  0  0  0  0  0  0  0  0
   -0.4812    1.1968    2.7762 N   0  0  0  0  0  0  0  0  0  0  0  0
   -0.1106   -0.1834    2.6051 C   0  0  2  0  0  0  0  0  0  0  0  0
   -0.0696   -0.4775    1.1113 C   0  0  0  0  0  0  0  0  0  0  0  0
   -0.6805    0.1900    0.2792 O   0  0  0  0  0  0  0  0  0  0  0  0
   -1.0852   -1.1101    3.3150 C   0  0  0  0  0  0  0  0  0  0  0  0
   -1.0883    1.6241    2.0791 H   0  0  0  0  0  0  0  0  0  0  0  0
    0.8937   -0.2959    3.0277 H   0  0  0  0  0  0  0  0  0  0  0  0
   -2.0970   -1.0114    2.9051 H   0  0  0  0  0  0  0  0  0  0  0  0
   -0.7860   -2.1580    3.2078 H   0  0  0  0  0  0  0  0  0  0  0  0
   -1.1357   -0.8775    4.3842 H   0  0  0  0  0  0  0  0  0  0  0  0
    0.6950   -1.6003    0.8178 N   0  0  0  0  0  0  0  0  0  0  0  0
    0.8777   -2.0908   -0.5246 C   0  0  2  0  0  0  0  0  0  0  0  0
    1.4352   -3.5052   -0.4251 C   0  0  0  0  0  0  0  0  0  0  0  0
    0.8248   -4.4321    0.1037 O   0  0  0  0  0  0  0  0  0  0  0  0
    1.8174   -1.1973   -1.3345 C   0  0  0  0  0  0  0  0  0  0  0  0
    1.2124    0.1536   -1.6736 C   0  0  0  0  0  0  0  0  0  0  0  0
    0.0525    0.3152   -2.0410 O   0  0  0  0  0  0  0  0  0  0  0  0
    2.1147    1.1844   -1.5168 N   0  0  0  0  0  0  0  0  0  0  0  0
    1.1810   -2.0803    1.5718 H   0  0  0  0  0  0  0  0  0  0  0  0
   -0.1185   -2.1321   -0.9803 H   0  0  0  0  0  0  0  0  0  0  0  0
    2.7387   -1.0050   -0.7702 H   0  0  0  0  0  0  0  0  0  0  0  0
    2.1088   -1.6928   -2.2695 H   0  0  0  0  0  0  0  0  0  0  0  0
    3.0639    1.0042   -1.2071 H   0  0  0  0  0  0  0  0  0  0  0  0
    1.8710    2.1521   -1.7021 H   0  0  0  0  0  0  0  0  0  0  0  0
    2.6736   -3.6252   -1.0400 N   0  0  0  0  0  0  0  0  0  0  0  0
    3.3833   -4.8808   -1.0940 C   0  0  2  0  0  0  0  0  0  0  0  0
    2.4861   -5.8988   -1.7855 C   0  0  0  0  0  0  0  0  0  0  0  0
    1.2636   -5.7845   -1.8450 O   0  0  0  0  0  0  0  0  0  0  0  0
    3.7734   -5.3562    0.2968 C   0  0  0  0  0  0  0  0  0  0  0  0
    3.1005   -2.8130   -1.4756 H   0  0  0  0  0  0  0  0  0  0  0  0
    4.2797   -4.7115   -1.7006 H   0  0  0  0  0  0  0  0  0  0  0  0
    2.8883   -5.5312    0.9192 H   0  0  0  0  0  0  0  0  0  0  0  0
    4.3366   -6.2943    0.2520 H   0  0  0  0  0  0  0  0  0  0  0  0
    4.3941   -4.6097    0.8040 H   0  0  0  0  0  0  0  0  0  0  0  0
    3.2070   -6.9717   -2.2908 N   0  0  0  0  0  0  0  0  0  0  0  0
    2.5814   -8.0759   -2.9803 C   0  0  0  0  0  0  0  0  0  0  0  0
    4.2197   -6.9743   -2.2128 H   0  0  0  0  0  0  0  0  0  0  0  0
    2.3520   -8.8756   -2.2606 H   0  0  0  0  0  0  0  0  0  0  0  0
    1.6505   -7.7317   -3.4547 H   0  0  0  0  0  0  0  0  0  0  0  0
    3.2650   -8.4615   -3.7510 H   0  0  0  0  0  0  0  0  0  0  0  0
  1  3  1  0  0  0  0
  1  7  1  0  0  0  0
  1  2  2  0  0  0  0
 21 22  1  0  0  0  0
 22 24  1  0  0  0  0
 22 23  2  0  0  0  0
 32 33  1  0  0  0  0
 33 41  1  0  0  0  0
 33 34  2  0  0  0  0
  8  9  1  0  0  0  0
  9 17  1  0  0  0  0
  9 10  2  0  0  0  0
 18 19  1  0  0  0  0
 19 31  1  0  0  0  0
 19 20  2  0  0  0  0
 32 35  1  0  0  0  0
  8 11  1  0  0  0  0
 41 42  1  0  0  0  0
 18 21  1  0  0  0  0
 31 32  1  0  0  0  0
  7  8  1  0  0  0  0
 17 18  1  0  0  0  0
  3  4  1  0  0  0  0
  3  5  1  0  0  0  0
  3  6  1  0  0  0  0
 35 38  1  0  0  0  0
 35 39  1  0  0  0  0
 35 40  1  0  0  0  0
 11 14  1  0  0  0  0
 11 15  1  0  0  0  0
 11 16  1  0  0  0  0
 42 44  1  0  0  0  0
 42 45  1  0  0  0  0
 42 46  1  0  0  0  0
 21 27  1  0  0  0  0
 21 28  1  0  0  0  0
 32 37  1  0  0  0  0
  8 13  1  0  0  0  0
 18 26  1  0  0  0  0
 24 29  1  0  0  0  0
 24 30  1  0  0  0  0
 41 43  1  0  0  0  0
  7 12  1  0  0  0  0
 31 36  1  0  0  0  0
 17 25  1  0  0  0  0
M  END
$$$$

  -OEChem-05262214473D

 46 45  0     1  0  0  0  0  0999 V2000
   -0.0543    1.9736    3.8406 C   0  0  0  0  0  0  0  0  0  0  0  0
    0.6744    1.6099    4.7562 O   0  0  0  0  0  0  0  0  0  0  0  0
   -0.5599    3.3779    3.8160 C   0  0  0  0  0  0  0  0  0  0  0  0
   -1.5202    3.4885    4.3450 H   0  0  0  0  0  0  0  0  0  0  0  0
    0.1282    4.0814    4.3116 H   0  0  0  0  0  0  0  0  0  0  0  0
   -0.7317    3.7994    2.8126 H   0  0  0  0  0  0  0  0  0  0  0  0
   -0.4812    1.1968    2.7762 N   0  0  0  0  0  0  0  0  0  0  0  0
   -0.1106   -0.1834    2.6051 C   0  0  2  0  0  0  0  0  0  0  0  0
   -0.0696   -0.4775    1.1113 C   0  0  0  0  0  0  0  0  0  0  0  0
   -0.6805    0.1900    0.2792 O   0  0  0  0  0  0  0  0  0  0  0  0
   -1.0852   -1.1101    3.3150 C   0  0  0  0  0  0  0  0  0  0  0  0
   -1.0883    1.6241    2.0791 H   0  0  0  0  0  0  0  0  0  0  0  0
    0.8937   -0.2959    3.0277 H   0  0  0  0  0  0  0  0  0  0  0  0
   -2.0970   -1.0114    2.9051 H   0  0  0  0  0  0  0  0  0  0  0  0
   -0.7860   -2.1580    3.2078 H   0  0  0  0  0  0  0  0  0  0  0  0
   -1.1357   -0.8775    4.3842 H   0  0  0  0  0  0  0  0  0  0  0  0
    0.6950   -1.6003    0.8178 N   0  0  0  0  0  0  0  0  0  0  0  0
    0.8777   -2.0908   -0.5246 C   0  0  2  0  0  0  0  0  0  0  0  0
    1.4352   -3.5052   -0.4251 C   0  0  0  0  0  0  0  0  0  0  0  0
    0.7426   -4.4822   -0.1473 O   0  0  0  0  0  0  0  0  0  0  0  0
    1.8174   -1.1973   -1.3345 C   0  0  0  0  0  0  0  0  0  0  0  0
    1.2124    0.1536   -1.6736 C   0  0  0  0  0  0  0  0  0  0  0  0
    0.0525    0.3152   -2.0410 O   0  0  0  0  0  0  0  0  0  0  0  0
    2.1147    1.1844   -1.5168 N   0  0  0  0  0  0  0  0  0  0  0  0
    1.1810   -2.0803    1.5718 H   0  0  0  0  0  0  0  0  0  0  0  0
   -0.1185   -2.1321   -0.9803 H   0  0  0  0  0  0  0  0  0  0  0  0
    2.7387   -1.0050   -0.7702 H   0  0  0  0  0  0  0  0  0  0  0  0
    2.1088   -1.6928   -2.2695 H   0  0  0  0  0  0  0  0  0  0  0  0
    3.0639    1.0042   -1.2071 H   0  0  0  0  0  0  0  0  0  0  0  0
    1.8710    2.1521   -1.7021 H   0  0  0  0  0  0  0  0  0  0  0  0
    2.7877   -3.5586   -0.7317 N   0  0  0  0  0  0  0  0  0  0  0  0
    3.5252   -4.7992   -0.7291 C   0  0  2  0  0  0  0  0  0  0  0  0
    2.8490   -5.7503   -1.7078 C   0  0  0  0  0  0  0  0  0  0  0  0
    1.6736   -5.6373   -2.0494 O   0  0  0  0  0  0  0  0  0  0  0  0
    3.5843   -5.4049    0.6645 C   0  0  0  0  0  0  0  0  0  0  0  0
    3.2832   -2.7057   -0.9744 H   0  0  0  0  0  0  0  0  0  0  0  0
    4.5355   -4.5673   -1.0833 H   0  0  0  0  0  0  0  0  0  0  0  0
    2.5812   -5.6440    1.0362 H   0  0  0  0  0  0  0  0  0  0  0  0
    4.1683   -6.3312    0.6701 H   0  0  0  0  0  0  0  0  0  0  0  0
    4.0439   -4.7077    1.3733 H   0  0  0  0  0  0  0  0  0  0  0  0
    3.7002   -6.7654   -2.1216 N   0  0  0  0  0  0  0  0  0  0  0  0
    3.2895   -7.8010   -3.0407 C   0  0  0  0  0  0  0  0  0  0  0  0
    4.6644   -6.7702   -1.8022 H   0  0  0  0  0  0  0  0  0  0  0  0
    2.9174   -8.6678   -2.4749 H   0  0  0  0  0  0  0  0  0  0  0  0
    2.4900   -7.4174   -3.6916 H   0  0  0  0  0  0  0  0  0  0  0  0
    4.1485   -8.1065   -3.6562 H   0  0  0  0  0  0  0  0  0  0  0  0
  1  3  1  0  0  0  0
  1  7  1  0  0  0  0
  1  2  2  0  0  0  0
 21 22  1  0  0  0  0
 22 24  1  0  0  0  0
 22 23  2  0  0  0  0
 32 33  1  0  0  0  0
 33 41  1  0  0  0  0
 33 34  2  0  0  0  0
  8  9  1  0  0  0  0
  9 17  1  0  0  0  0
  9 10  2  0  0  0  0
 18 19  1  0  0  0  0
 19 31  1  0  0  0  0
 19 20  2  0  0  0  0
 32 35  1  0  0  0  0
  8 11  1  0  0  0  0
 41 42  1  0  0  0  0
 18 21  1  0  0  0  0
 31 32  1  0  0  0  0
  7  8  1  0  0  0  0
 17 18  1  0  0  0  0
  3  4  1  0  0  0  0
  3  5  1  0  0  0  0
  3  6  1  0  0  0  0
 35 38  1  0  0  0  0
 35 39  1  0  0  0  0
 35 40  1  0  0  0  0
 11 14  1  0  0  0  0
 11 15  1  0  0  0  0
 11 16  1  0  0  0  0
 42 44  1  0  0  0  0
 42 45  1  0  0  0  0
 42 46  1  0  0  0  0
 21 27  1  0  0  0  0
 21 28  1  0  0  0  0
 32 37  1  0  0  0  0
  8 13  1  0  0  0  0
 18 26  1  0  0  0  0
 24 29  1  0  0  0  0
 24 30  1  0  0  0  0
 41 43  1  0  0  0  0
  7 12  1  0  0  0  0
 31 36  1  0  0  0  0
 17 25  1  0  0  0  0
M  END
$$$$

  -OEChem-05262214473D

 46 45  0     1  0  0  0  0  0999 V2000
   -0.0543    1.9736    3.8406 C   0  0  0  0  0  0  0  0  0  0  0  0
    0.6744    1.6099    4.7562 O   0  0  0  0  0  0  0  0  0  0  0  0
   -0.5599    3.3779    3.8160 C   0  0  0  0  0  0  0  0  0  0  0  0
   -1.5202    3.4885    4.3450 H   0  0  0  0  0  0  0  0  0  0  0  0
    0.1282    4.0814    4.3116 H   0  0  0  0  0  0  0  0  0  0  0  0
   -0.7317    3.7994    2.8126 H   0  0  0  0  0  0  0  0  0  0  0  0
   -0.4812    1.1968    2.7762 N   0  0  0  0  0  0  0  0  0  0  0  0
   -0.1106   -0.1834    2.6051 C   0  0  2  0  0  0  0  0  0  0  0  0
   -0.0696   -0.4775    1.1113 C   0  0  0  0  0  0  0  0  0  0  0  0
   -0.6805    0.1900    0.2792 O   0  0  0  0  0  0  0  0  0  0  0  0
   -1.0852   -1.1101    3.3150 C   0  0  0  0  0  0  0  0  0  0  0  0
   -1.0883    1.6241    2.0791 H   0  0  0  0  0  0  0  0  0  0  0  0
    0.8937   -0.2959    3.0277 H   0  0  0  0  0  0  0  0  0  0  0  0
   -2.0970   -1.0114    2.9051 H   0  0  0  0  0  0  0  0  0  0  0  0
   -0.7860   -2.1580    3.2078 H   0  0  0  0  0  0  0  0  0  0  0  0
   -1.1357   -0.8775    4.3842 H   0  0  0  0  0  0  0  0  0  0  0  0
    0.6950   -1.6003    0.8178 N   0  0  0  0  0  0  0  0  0  0  0  0
    0.8777   -2.0908   -0.5246 C   0  0  2  0  0  0  0  0  0  0  0  0
    1.4352   -3.5052   -0.4251 C   0  0  0  0  0  0  0  0  0  0  0  0
    0.7243   -4.5082   -0.4142 O   0  0  0  0  0  0  0  0  0  0  0  0
    1.8174   -1.1973   -1.3345 C   0  0  0  0  0  0  0  0  0  0  0  0
    1.2124    0.1536   -1.6736 C   0  0  0  0  0  0  0  0  0  0  0  0
    0.0525    0.3152   -2.0410 O   0  0  0  0  0  0  0  0  0  0  0  0
    2.1147    1.1844   -1.5168 N   0  0  0  0  0  0  0  0  0  0  0  0
    1.1810   -2.0803    1.5718 H   0  0  0  0  0  0  0  0  0  0  0  0
   -0.1185   -2.1321   -0.9803 H   0  0  0  0  0  0  0  0  0  0  0  0
    2.7387   -1.0050   -0.7702 H   0  0  0  0  0  0  0  0  0  0  0  0
    2.1088   -1.6928   -2.2695 H   0  0  0  0  0  0  0  0  0  0  0  0
    3.0639    1.0042   -1.2071 H   0  0  0  0  0  0  0  0  0  0  0  0
    1.8710    2.1521   -1.7021 H   0  0  0  0  0  0  0  0  0  0  0  0
    2.8227   -3.5215   -0.4002 N   0  0  0  0  0  0  0  0  0  0  0  0
    3.5731   -4.7526   -0.3349 C   0  0  2  0  0  0  0  0  0  0  0  0
    3.1784   -5.6080   -1.5314 C   0  0  0  0  0  0  0  0  0  0  0  0
    2.1162   -5.4688   -2.1343 O   0  0  0  0  0  0  0  0  0  0  0  0
    3.3140   -5.4900    0.9697 C   0  0  0  0  0  0  0  0  0  0  0  0
    3.3374   -2.6465   -0.4362 H   0  0  0  0  0  0  0  0  0  0  0  0
    4.6319   -4.4821   -0.4120 H   0  0  0  0  0  0  0  0  0  0  0  0
    2.2584   -5.7692    1.0648 H   0  0  0  0  0  0  0  0  0  0  0  0
    3.9058   -6.4093    1.0300 H   0  0  0  0  0  0  0  0  0  0  0  0
    3.5706   -4.8622    1.8298 H   0  0  0  0  0  0  0  0  0  0  0  0
    4.1324   -6.5738   -1.8200 N   0  0  0  0  0  0  0  0  0  0  0  0
    3.9835   -7.5177   -2.9029 C   0  0  0  0  0  0  0  0  0  0  0  0
    4.9919   -6.6043   -1.2795 H   0  0  0  0  0  0  0  0  0  0  0  0
    3.5115   -8.4372   -2.5263 H   0  0  0  0  0  0  0  0  0  0  0  0
    3.3525   -7.0773   -3.6890 H   0  0  0  0  0  0  0  0  0  0  0  0
    4.9732   -7.7577   -3.3188 H   0  0  0  0  0  0  0  0  0  0  0  0
  1  3  1  0  0  0  0
  1  7  1  0  0  0  0
  1  2  2  0  0  0  0
 21 22  1  0  0  0  0
 22 24  1  0  0  0  0
 22 23  2  0  0  0  0
 32 33  1  0  0  0  0
 33 41  1  0  0  0  0
 33 34  2  0  0  0  0
  8  9  1  0  0  0  0
  9 17  1  0  0  0  0
  9 10  2  0  0  0  0
 18 19  1  0  0  0  0
 19 31  1  0  0  0  0
 19 20  2  0  0  0  0
 32 35  1  0  0  0  0
  8 11  1  0  0  0  0
 41 42  1  0  0  0  0
 18 21  1  0  0  0  0
 31 32  1  0  0  0  0
  7  8  1  0  0  0  0
 17 18  1  0  0  0  0
  3  4  1  0  0  0  0
  3  5  1  0  0  0  0
  3  6  1  0  0  0  0
 35 38  1  0  0  0  0
 35 39  1  0  0  0  0
 35 40  1  0  0  0  0
 11 14  1  0  0  0  0
 11 15  1  0  0  0  0
 11 16  1  0  0  0  0
 42 44  1  0  0  0  0
 42 45  1  0  0  0  0
 42 46  1  0  0  0  0
 21 27  1  0  0  0  0
 21 28  1  0  0  0  0
 32 37  1  0  0  0  0
  8 13  1  0  0  0  0
 18 26  1  0  0  0  0
 24 29  1  0  0  0  0
 24 30  1  0  0  0  0
 41 43  1  0  0  0  0
  7 12  1  0  0  0  0
 31 36  1  0  0  0  0
 17 25  1  0  0  0  0
M  END
$$$$

  -OEChem-05262214473D

 46 45  0     1  0  0  0  0  0999 V2000
   -0.0543    1.9736    3.8406 C   0  0  0  0  0  0  0  0  0  0  0  0
    0.6744    1.6099    4.7562 O   0  0  0  0  0  0  0  0  0  0  0  0
   -0.5599    3.3779    3.8160 C   0  0  0  0  0  0  0  0  0  0  0  0
   -1.5202    3.4885    4.3450 H   0  0  0  0  0  0  0  0  0  0  0  0
    0.1282    4.0814    4.3116 H   0  0  0  0  0  0  0  0  0  0  0  0
   -0.7317    3.7994    2.8126 H   0  0  0  0  0  0  0  0  0  0  0  0
   -0.4812    1.1968    2.7762 N   0  0  0  0  0  0  0  0  0  0  0  0
   -0.1106   -0.1834    2.6051 C   0  0  2  0  0  0  0  0  0  0  0  0
   -0.0696   -0.4775    1.1113 C   0  0  0  0  0  0  0  0  0  0  0  0
   -0.6805    0.1900    0.2792 O   0  0  0  0  0  0  0  0  0  0  0  0
   -1.0852   -1.1101    3.3150 C   0  0  0  0  0  0  0  0  0  0  0  0
   -1.0883    1.6241    2.0791 H   0  0  0  0  0  0  0  0  0  0  0  0
    0.8937   -0.2959    3.0277 H   0  0  0  0  0  0  0  0  0  0  0  0
   -2.0970   -1.0114    2.9051 H   0  0  0  0  0  0  0  0  0  0  0  0
   -0.7860   -2.1580    3.2078 H   0  0  0  0  0  0  0  0  0  0  0  0
   -1.1357   -0.8775    4.3842 H   0  0  0  0  0  0  0  0  0  0  0  0
    0.6950   -1.6003    0.8178 N   0  0  0  0  0  0  0  0  0  0  0  0
    0.8777   -2.0908   -0.5246 C   0  0  2  0  0  0  0  0  0  0  0  0
    1.4352   -3.5052   -0.4251 C   0  0  0  0  0  0  0  0  0  0  0  0
    0.7712   -4.5083   -0.6789 O   0  0  0  0  0  0  0  0  0  0  0  0
    1.8174   -1.1973   -1.3345 C   0  0  0  0  0  0  0  0  0  0  0  0
    1.2124    0.1536   -1.6736 C   0  0  0  0  0  0  0  0  0  0  0  0
    0.0525    0.3152   -2.0410 O   0  0  0  0  0  0  0  0  0  0  0  0
    2.1147    1.1844   -1.5168 N   0  0  0  0  0  0  0  0  0  0  0  0
    1.1810   -2.0803    1.5718 H   0  0  0  0  0  0  0  0  0  0  0  0
   -0.1185   -2.1321   -0.9803 H   0  0  0  0  0  0  0  0  0  0  0  0
    2.7387   -1.0050   -0.7702 H   0  0  0  0  0  0  0  0  0  0  0  0
    2.1088   -1.6928   -2.2695 H   0  0  0  0  0  0  0  0  0  0  0  0
    3.0639    1.0042   -1.2071 H   0  0  0  0  0  0  0  0  0  0  0  0
    1.8710    2.1521   -1.7021 H   0  0  0  0  0  0  0  0  0  0  0  0
    2.7762   -3.5164   -0.0680 N   0  0  0  0  0  0  0  0  0  0  0  0
    3.5240   -4.7440    0.0619 C   0  0  2  0  0  0  0  0  0  0  0  0
    3.4517   -5.4818   -1.2685 C   0  0  0  0  0  0  0  0  0  0  0  0
    2.5613   -5.2905   -2.0941 O   0  0  0  0  0  0  0  0  0  0  0  0
    2.9811   -5.6056    1.1914 C   0  0  0  0  0  0  0  0  0  0  0  0
    3.2595   -2.6393    0.1024 H   0  0  0  0  0  0  0  0  0  0  0  0
    4.5622   -4.4617    0.2677 H   0  0  0  0  0  0  0  0  0  0  0  0
    1.9418   -5.8984    1.0029 H   0  0  0  0  0  0  0  0  0  0  0  0
    3.5672   -6.5233    1.3072 H   0  0  0  0  0  0  0  0  0  0  0  0
    3.0062   -5.0627    2.1424 H   0  0  0  0  0  0  0  0  0  0  0  0
    4.4742   -6.4100   -1.4067 N   0  0  0  0  0  0  0  0  0  0  0  0
    4.6159   -7.2455   -2.5763 C   0  0  0  0  0  0  0  0  0  0  0  0
    5.1798   -6.4881   -0.6802 H   0  0  0  0  0  0  0  0  0  0  0  0
    4.0938   -8.1995   -2.4114 H   0  0  0  0  0  0  0  0  0  0  0  0
    4.1792   -6.7344   -3.4469 H   0  0  0  0  0  0  0  0  0  0  0  0
    5.6828   -7.4387   -2.7616 H   0  0  0  0  0  0  0  0  0  0  0  0
  1  3  1  0  0  0  0
  1  7  1  0  0  0  0
  1  2  2  0  0  0  0
 21 22  1  0  0  0  0
 22 24  1  0  0  0  0
 22 23  2  0  0  0  0
 32 33  1  0  0  0  0
 33 41  1  0  0  0  0
 33 34  2  0  0  0  0
  8  9  1  0  0  0  0
  9 17  1  0  0  0  0
  9 10  2  0  0  0  0
 18 19  1  0  0  0  0
 19 31  1  0  0  0  0
 19 20  2  0  0  0  0
 32 35  1  0  0  0  0
  8 11  1  0  0  0  0
 41 42  1  0  0  0  0
 18 21  1  0  0  0  0
 31 32  1  0  0  0  0
  7  8  1  0  0  0  0
 17 18  1  0  0  0  0
  3  4  1  0  0  0  0
  3  5  1  0  0  0  0
  3  6  1  0  0  0  0
 35 38  1  0  0  0  0
 35 39  1  0  0  0  0
 35 40  1  0  0  0  0
 11 14  1  0  0  0  0
 11 15  1  0  0  0  0
 11 16  1  0  0  0  0
 42 44  1  0  0  0  0
 42 45  1  0  0  0  0
 42 46  1  0  0  0  0
 21 27  1  0  0  0  0
 21 28  1  0  0  0  0
 32 37  1  0  0  0  0
  8 13  1  0  0  0  0
 18 26  1  0  0  0  0
 24 29  1  0  0  0  0
 24 30  1  0  0  0  0
 41 43  1  0  0  0  0
  7 12  1  0  0  0  0
 31 36  1  0  0  0  0
 17 25  1  0  0  0  0
M  END
$$$$

  -OEChem-05262214473D

 46 45  0     1  0  0  0  0  0999 V2000
   -0.0543    1.9736    3.8406 C   0  0  0  0  0  0  0  0  0  0  0  0
    0.6744    1.6099    4.7562 O   0  0  0  0  0  0  0  0  0  0  0  0
   -0.5599    3.3779    3.8160 C   0  0  0  0  0  0  0  0  0  0  0  0
   -1.5202    3.4885    4.3450 H   0  0  0  0  0  0  0  0  0  0  0  0
    0.1282    4.0814    4.3116 H   0  0  0  0  0  0  0  0  0  0  0  0
   -0.7317    3.7994    2.8126 H   0  0  0  0  0  0  0  0  0  0  0  0
   -0.4812    1.1968    2.7762 N   0  0  0  0  0  0  0  0  0  0  0  0
   -0.1106   -0.1834    2.6051 C   0  0  2  0  0  0  0  0  0  0  0  0
   -0.0696   -0.4775    1.1113 C   0  0  0  0  0  0  0  0  0  0  0  0
   -0.6805    0.1900    0.2792 O   0  0  0  0  0  0  0  0  0  0  0  0
   -1.0852   -1.1101    3.3150 C   0  0  0  0  0  0  0  0  0  0  0  0
   -1.0883    1.6241    2.0791 H   0  0  0  0  0  0  0  0  0  0  0  0
    0.8937   -0.2959    3.0277 H   0  0  0  0  0  0  0  0  0  0  0  0
   -2.0970   -1.0114    2.9051 H   0  0  0  0  0  0  0  0  0  0  0  0
   -0.7860   -2.1580    3.2078 H   0  0  0  0  0  0  0  0  0  0  0  0
   -1.1357   -0.8775    4.3842 H   0  0  0  0  0  0  0  0  0  0  0  0
    0.6950   -1.6003    0.8178 N   0  0  0  0  0  0  0  0  0  0  0  0
    0.8777   -2.0908   -0.5246 C   0  0  2  0  0  0  0  0  0  0  0  0
    1.4352   -3.5052   -0.4251 C   0  0  0  0  0  0  0  0  0  0  0  0
    0.8802   -4.4825   -0.9233 O   0  0  0  0  0  0  0  0  0  0  0  0
    1.8174   -1.1973   -1.3345 C   0  0  0  0  0  0  0  0  0  0  0  0
    1.2124    0.1536   -1.6736 C   0  0  0  0  0  0  0  0  0  0  0  0
    0.0525    0.3152   -2.0410 O   0  0  0  0  0  0  0  0  0  0  0  0
    2.1147    1.1844   -1.5168 N   0  0  0  0  0  0  0  0  0  0  0  0
    1.1810   -2.0803    1.5718 H   0  0  0  0  0  0  0  0  0  0  0  0
   -0.1185   -2.1321   -0.9803 H   0  0  0  0  0  0  0  0  0  0  0  0
    2.7387   -1.0050   -0.7702 H   0  0  0  0  0  0  0  0  0  0  0  0
    2.1088   -1.6928   -2.2695 H   0  0  0  0  0  0  0  0  0  0  0  0
    3.0639    1.0042   -1.2071 H   0  0  0  0  0  0  0  0  0  0  0  0
    1.8710    2.1521   -1.7021 H   0  0  0  0  0  0  0  0  0  0  0  0
    2.6515   -3.5438    0.2421 N   0  0  0  0  0  0  0  0  0  0  0  0
    3.3810   -4.7742    0.4342 C   0  0  2  0  0  0  0  0  0  0  0  0
    3.6505   -5.3801   -0.9368 C   0  0  0  0  0  0  0  0  0  0  0  0
    2.9786   -5.1145   -1.9314 O   0  0  0  0  0  0  0  0  0  0  0  0
    2.6082   -5.7440    1.3147 C   0  0  0  0  0  0  0  0  0  0  0  0
    3.0547   -2.6848    0.6045 H   0  0  0  0  0  0  0  0  0  0  0  0
    4.3313   -4.5076    0.9095 H   0  0  0  0  0  0  0  0  0  0  0  0
    1.6530   -6.0226    0.8549 H   0  0  0  0  0  0  0  0  0  0  0  0
    3.1754   -6.6654    1.4828 H   0  0  0  0  0  0  0  0  0  0  0  0
    2.3894   -5.2955    2.2897 H   0  0  0  0  0  0  0  0  0  0  0  0
    4.7023   -6.2851   -0.9099 N   0  0  0  0  0  0  0  0  0  0  0  0
    5.1437   -7.0027   -2.0830 C   0  0  0  0  0  0  0  0  0  0  0  0
    5.2153   -6.4294   -0.0451 H   0  0  0  0  0  0  0  0  0  0  0  0
    4.6247   -7.9710   -2.1380 H   0  0  0  0  0  0  0  0  0  0  0  0
    4.9138   -6.4121   -2.9821 H   0  0  0  0  0  0  0  0  0  0  0  0
    6.2290   -7.1715   -2.0228 H   0  0  0  0  0  0  0  0  0  0  0  0
  1  3  1  0  0  0  0
  1  7  1  0  0  0  0
  1  2  2  0  0  0  0
 21 22  1  0  0  0  0
 22 24  1  0  0  0  0
 22 23  2  0  0  0  0
 32 33  1  0  0  0  0
 33 41  1  0  0  0  0
 33 34  2  0  0  0  0
  8  9  1  0  0  0  0
  9 17  1  0  0  0  0
  9 10  2  0  0  0  0
 18 19  1  0  0  0  0
 19 31  1  0  0  0  0
 19 20  2  0  0  0  0
 32 35  1  0  0  0  0
  8 11  1  0  0  0  0
 41 42  1  0  0  0  0
 18 21  1  0  0  0  0
 31 32  1  0  0  0  0
  7  8  1  0  0  0  0
 17 18  1  0  0  0  0
  3  4  1  0  0  0  0
  3  5  1  0  0  0  0
  3  6  1  0  0  0  0
 35 38  1  0  0  0  0
 35 39  1  0  0  0  0
 35 40  1  0  0  0  0
 11 14  1  0  0  0  0
 11 15  1  0  0  0  0
 11 16  1  0  0  0  0
 42 44  1  0  0  0  0
 42 45  1  0  0  0  0
 42 46  1  0  0  0  0
 21 27  1  0  0  0  0
 21 28  1  0  0  0  0
 32 37  1  0  0  0  0
  8 13  1  0  0  0  0
 18 26  1  0  0  0  0
 24 29  1  0  0  0  0
 24 30  1  0  0  0  0
 41 43  1  0  0  0  0
  7 12  1  0  0  0  0
 31 36  1  0  0  0  0
 17 25  1  0  0  0  0
M  END
$$$$

  -OEChem-05262214473D

 46 45  0     1  0  0  0  0  0999 V2000
   -0.0543    1.9736    3.8406 C   0  0  0  0  0  0  0  0  0  0  0  0
    0.6744    1.6099    4.7562 O   0  0  0  0  0  0  0  0  0  0  0  0
   -0.5599    3.3779    3.8160 C   0  0  0  0  0  0  0  0  0  0  0  0
   -1.5202    3.4885    4.3450 H   0  0  0  0  0  0  0  0  0  0  0  0
    0.1282    4.0814    4.3116 H   0  0  0  0  0  0  0  0  0  0  0  0
   -0.7317    3.7994    2.8126 H   0  0  0  0  0  0  0  0  0  0  0  0
   -0.4812    1.1968    2.7762 N   0  0  0  0  0  0  0  0  0  0  0  0
   -0.1106   -0.1834    2.6051 C   0  0  2  0  0  0  0  0  0  0  0  0
   -0.0696   -0.4775    1.1113 C   0  0  0  0  0  0  0  0  0  0  0  0
   -0.6805    0.1900    0.2792 O   0  0  0  0  0  0  0  0  0  0  0  0
   -1.0852   -1.1101    3.3150 C   0  0  0  0  0  0  0  0  0  0  0  0
   -1.0883    1.6241    2.0791 H   0  0  0  0  0  0  0  0  0  0  0  0
    0.8937   -0.2959    3.0277 H   0  0  0  0  0  0  0  0  0  0  0  0
   -2.0970   -1.0114    2.9051 H   0  0  0  0  0  0  0  0  0  0  0  0
   -0.7860   -2.1580    3.2078 H   0  0  0  0  0  0  0  0  0  0  0  0
   -1.1357   -0.8775    4.3842 H   0  0  0  0  0  0  0  0  0  0  0  0
    0.6950   -1.6003    0.8178 N   0  0  0  0  0  0  0  0  0  0  0  0
    0.8777   -2.0908   -0.5246 C   0  0  2  0  0  0  0  0  0  0  0  0
    1.4352   -3.5052   -0.4251 C   0  0  0  0  0  0  0  0  0  0  0  0
    1.0437   -4.4326   -1.1308 O   0  0  0  0  0  0  0  0  0  0  0  0
    1.8174   -1.1973   -1.3345 C   0  0  0  0  0  0  0  0  0  0  0  0
    1.2124    0.1536   -1.6736 C   0  0  0  0  0  0  0  0  0  0  0  0
    0.0525    0.3152   -2.0410 O   0  0  0  0  0  0  0  0  0  0  0  0
    2.1147    1.1844   -1.5168 N   0  0  0  0  0  0  0  0  0  0  0  0
    1.1810   -2.0803    1.5718 H   0  0  0  0  0  0  0  0  0  0  0  0
   -0.1185   -2.1321   -0.9803 H   0  0  0  0  0  0  0  0  0  0  0  0
    2.7387   -1.0050   -0.7702 H   0  0  0  0  0  0  0  0  0  0  0  0
    2.1088   -1.6928   -2.2695 H   0  0  0  0  0  0  0  0  0  0  0  0
    3.0639    1.0042   -1.2071 H   0  0  0  0  0  0  0  0  0  0  0  0
    1.8710    2.1521   -1.7021 H   0  0  0  0  0  0  0  0  0  0  0  0
    2.4569   -3.6017    0.5091 N   0  0  0  0  0  0  0  0  0  0  0  0
    3.1539   -4.8411    0.7566 C   0  0  2  0  0  0  0  0  0  0  0  0
    3.7610   -5.3100   -0.5591 C   0  0  0  0  0  0  0  0  0  0  0  0
    3.3396   -4.9530   -1.6573 O   0  0  0  0  0  0  0  0  0  0  0  0
    2.2208   -5.8956    1.3310 C   0  0  0  0  0  0  0  0  0  0  0  0
    2.7370   -2.7796    1.0360 H   0  0  0  0  0  0  0  0  0  0  0  0
    3.9548   -4.6166    1.4695 H   0  0  0  0  0  0  0  0  0  0  0  0
    1.4118   -6.1335    0.6307 H   0  0  0  0  0  0  0  0  0  0  0  0
    2.7572   -6.8259    1.5448 H   0  0  0  0  0  0  0  0  0  0  0  0
    1.7622   -5.5447    2.2618 H   0  0  0  0  0  0  0  0  0  0  0  0
    4.8012   -6.2077   -0.3633 N   0  0  0  0  0  0  0  0  0  0  0  0
    5.5308   -6.8061   -1.4568 C   0  0  0  0  0  0  0  0  0  0  0  0
    5.0960   -6.4323    0.5824 H   0  0  0  0  0  0  0  0  0  0  0  0
    5.0679   -7.7672   -1.7247 H   0  0  0  0  0  0  0  0  0  0  0  0
    5.5062   -6.1324   -2.3260 H   0  0  0  0  0  0  0  0  0  0  0  0
    6.5745   -6.9740   -1.1525 H   0  0  0  0  0  0  0  0  0  0  0  0
  1  3  1  0  0  0  0
  1  7  1  0  0  0  0
  1  2  2  0  0  0  0
 21 22  1  0  0  0  0
 22 24  1  0  0  0  0
 22 23  2  0  0  0  0
 32 33  1  0  0  0  0
 33 41  1  0  0  0  0
 33 34  2  0  0  0  0
  8  9  1  0  0  0  0
  9 17  1  0  0  0  0
  9 10  2  0  0  0  0
 18 19  1  0  0  0  0
 19 31  1  0  0  0  0
 19 20  2  0  0  0  0
 32 35  1  0  0  0  0
  8 11  1  0  0  0  0
 41 42  1  0  0  0  0
 18 21  1  0  0  0  0
 31 32  1  0  0  0  0
  7  8  1  0  0  0  0
 17 18  1  0  0  0  0
  3  4  1  0  0  0  0
  3  5  1  0  0  0  0
  3  6  1  0  0  0  0
 35 38  1  0  0  0  0
 35 39  1  0  0  0  0
 35 40  1  0  0  0  0
 11 14  1  0  0  0  0
 11 15  1  0  0  0  0
 11 16  1  0  0  0  0
 42 44  1  0  0  0  0
 42 45  1  0  0  0  0
 42 46  1  0  0  0  0
 21 27  1  0  0  0  0
 21 28  1  0  0  0  0
 32 37  1  0  0  0  0
  8 13  1  0  0  0  0
 18 26  1  0  0  0  0
 24 29  1  0  0  0  0
 24 30  1  0  0  0  0
 41 43  1  0  0  0  0
  7 12  1  0  0  0  0
 31 36  1  0  0  0  0
 17 25  1  0  0  0  0
M  END
$$$$

  -OEChem-05262214473D

 46 45  0     1  0  0  0  0  0999 V2000
   -0.0543    1.9736    3.8406 C   0  0  0  0  0  0  0  0  0  0  0  0
    0.6744    1.6099    4.7562 O   0  0  0  0  0  0  0  0  0  0  0  0
   -0.5599    3.3779    3.8160 C   0  0  0  0  0  0  0  0  0  0  0  0
   -1.5202    3.4885    4.3450 H   0  0  0  0  0  0  0  0  0  0  0  0
    0.1282    4.0814    4.3116 H   0  0  0  0  0  0  0  0  0  0  0  0
   -0.7317    3.7994    2.8126 H   0  0  0  0  0  0  0  0  0  0  0  0
   -0.4812    1.1968    2.7762 N   0  0  0  0  0  0  0  0  0  0  0  0
   -0.1106   -0.1834    2.6051 C   0  0  2  0  0  0  0  0  0  0  0  0
   -0.0696   -0.4775    1.1113 C   0  0  0  0  0  0  0  0  0  0  0  0
   -0.6805    0.1900    0.2792 O   0  0  0  0  0  0  0  0  0  0  0  0
   -1.0852   -1.1101    3.3150 C   0  0  0  0  0  0  0  0  0  0  0  0
   -1.0883    1.6241    2.0791 H   0  0  0  0  0  0  0  0  0  0  0  0
    0.8937   -0.2959    3.0277 H   0  0  0  0  0  0  0  0  0  0  0  0
   -2.0970   -1.0114    2.9051 H   0  0  0  0  0  0  0  0  0  0  0  0
   -0.7860   -2.1580    3.2078 H   0  0  0  0  0  0  0  0  0  0  0  0
   -1.1357   -0.8775    4.3842 H   0  0  0  0  0  0  0  0  0  0  0  0
    0.6950   -1.6003    0.8178 N   0  0  0  0  0  0  0  0  0  0  0  0
    0.8777   -2.0908   -0.5246 C   0  0  2  0  0  0  0  0  0  0  0  0
    1.4352   -3.5052   -0.4251 C   0  0  0  0  0  0  0  0  0  0  0  0
    1.2506   -4.3621   -1.2872 O   0  0  0  0  0  0  0  0  0  0  0  0
    1.8174   -1.1973   -1.3345 C   0  0  0  0  0  0  0  0  0  0  0  0
    1.2124    0.1536   -1.6736 C   0  0  0  0  0  0  0  0  0  0  0  0
    0.0525    0.3152   -2.0410 O   0  0  0  0  0  0  0  0  0  0  0  0
    2.1147    1.1844   -1.5168 N   0  0  0  0  0  0  0  0  0  0  0  0
    1.1810   -2.0803    1.5718 H   0  0  0  0  0  0  0  0  0  0  0  0
   -0.1185   -2.1321   -0.9803 H   0  0  0  0  0  0  0  0  0  0  0  0
    2.7387   -1.0050   -0.7702 H   0  0  0  0  0  0  0  0  0  0  0  0
    2.1088   -1.6928   -2.2695 H   0  0  0  0  0  0  0  0  0  0  0  0
    3.0639    1.0042   -1.2071 H   0  0  0  0  0  0  0  0  0  0  0  0
    1.8710    2.1521   -1.7021 H   0  0  0  0  0  0  0  0  0  0  0  0
    2.2058   -3.6862    0.7148 N   0  0  0  0  0  0  0  0  0  0  0  0
    2.8583   -4.9400    1.0071 C   0  0  2  0  0  0  0  0  0  0  0  0
    3.7759   -5.2761   -0.1611 C   0  0  0  0  0  0  0  0  0  0  0  0
    3.6197   -4.8167   -1.2905 O   0  0  0  0  0  0  0  0  0  0  0  0
    1.8452   -6.0501    1.2393 C   0  0  0  0  0  0  0  0  0  0  0  0
    2.3280   -2.9175    1.3675 H   0  0  0  0  0  0  0  0  0  0  0  0
    3.4584   -4.7813    1.9097 H   0  0  0  0  0  0  0  0  0  0  0  0
    1.2345   -6.2234    0.3457 H   0  0  0  0  0  0  0  0  0  0  0  0
    2.3410   -6.9939    1.4890 H   0  0  0  0  0  0  0  0  0  0  0  0
    1.1672   -5.7934    2.0605 H   0  0  0  0  0  0  0  0  0  0  0  0
    4.7640   -6.1830    0.1957 N   0  0  0  0  0  0  0  0  0  0  0  0
    5.7510   -6.6689   -0.7402 C   0  0  0  0  0  0  0  0  0  0  0  0
    4.8301   -6.4965    1.1596 H   0  0  0  0  0  0  0  0  0  0  0  0
    5.3933   -7.6021   -1.1997 H   0  0  0  0  0  0  0  0  0  0  0  0
    5.9160   -5.9144   -1.5235 H   0  0  0  0  0  0  0  0  0  0  0  0
    6.6958   -6.8599   -0.2103 H   0  0  0  0  0  0  0  0  0  0  0  0
  1  3  1  0  0  0  0
  1  7  1  0  0  0  0
  1  2  2  0  0  0  0
 21 22  1  0  0  0  0
 22 24  1  0  0  0  0
 22 23  2  0  0  0  0
 32 33  1  0  0  0  0
 33 41  1  0  0  0  0
 33 34  2  0  0  0  0
  8  9  1  0  0  0  0
  9 17  1  0  0  0  0
  9 10  2  0  0  0  0
 18 19  1  0  0  0  0
 19 31  1  0  0  0  0
 19 20  2  0  0  0  0
 32 35  1  0  0  0  0
  8 11  1  0  0  0  0
 41 42  1  0  0  0  0
 18 21  1  0  0  0  0
 31 32  1  0  0  0  0
  7  8  1  0  0  0  0
 17 18  1  0  0  0  0
  3  4  1  0  0  0  0
  3  5  1  0  0  0  0
  3  6  1  0  0  0  0
 35 38  1  0  0  0  0
 35 39  1  0  0  0  0
 35 40  1  0  0  0  0
 11 14  1  0  0  0  0
 11 15  1  0  0  0  0
 11 16  1  0  0  0  0
 42 44  1  0  0  0  0
 42 45  1  0  0  0  0
 42 46  1  0  0  0  0
 21 27  1  0  0  0  0
 21 28  1  0  0  0  0
 32 37  1  0  0  0  0
  8 13  1  0  0  0  0
 18 26  1  0  0  0  0
 24 29  1  0  0  0  0
 24 30  1  0  0  0  0
 41 43  1  0  0  0  0
  7 12  1  0  0  0  0
 31 36  1  0  0  0  0
 17 25  1  0  0  0  0
M  END
$$$$

  -OEChem-05262214473D

 46 45  0     1  0  0  0  0  0999 V2000
   -0.0543    1.9736    3.8406 C   0  0  0  0  0  0  0  0  0  0  0  0
    0.6744    1.6099    4.7562 O   0  0  0  0  0  0  0  0  0  0  0  0
   -0.5599    3.3779    3.8160 C   0  0  0  0  0  0  0  0  0  0  0  0
   -1.5202    3.4885    4.3450 H   0  0  0  0  0  0  0  0  0  0  0  0
    0.1282    4.0814    4.3116 H   0  0  0  0  0  0  0  0  0  0  0  0
   -0.7317    3.7994    2.8126 H   0  0  0  0  0  0  0  0  0  0  0  0
   -0.4812    1.1968    2.7762 N   0  0  0  0  0  0  0  0  0  0  0  0
   -0.1106   -0.1834    2.6051 C   0  0  2  0  0  0  0  0  0  0  0  0
   -0.0696   -0.4775    1.1113 C   0  0  0  0  0  0  0  0  0  0  0  0
   -0.6805    0.1900    0.2792 O   0  0  0  0  0  0  0  0  0  0  0  0
   -1.0852   -1.1101    3.3150 C   0  0  0  0  0  0  0  0  0  0  0  0
   -1.0883    1.6241    2.0791 H   0  0  0  0  0  0  0  0  0  0  0  0
    0.8937   -0.2959    3.0277 H   0  0  0  0  0  0  0  0  0  0  0  0
   -2.0970   -1.0114    2.9051 H   0  0  0  0  0  0  0  0  0  0  0  0
   -0.7860   -2.1580    3.2078 H   0  0  0  0  0  0  0  0  0  0  0  0
   -1.1357   -0.8775    4.3842 H   0  0  0  0  0  0  0  0  0  0  0  0
    0.6950   -1.6003    0.8178 N   0  0  0  0  0  0  0  0  0  0  0  0
    0.8777   -2.0908   -0.5246 C   0  0  2  0  0  0  0  0  0  0  0  0
    1.4352   -3.5052   -0.4251 C   0  0  0  0  0  0  0  0  0  0  0  0
    1.4869   -4.2756   -1.3818 O   0  0  0  0  0  0  0  0  0  0  0  0
    1.8174   -1.1973   -1.3345 C   0  0  0  0  0  0  0  0  0  0  0  0
    1.2124    0.1536   -1.6736 C   0  0  0  0  0  0  0  0  0  0  0  0
    0.0525    0.3152   -2.0410 O   0  0  0  0  0  0  0  0  0  0  0  0
    2.1147    1.1844   -1.5168 N   0  0  0  0  0  0  0  0  0  0  0  0
    1.1810   -2.0803    1.5718 H   0  0  0  0  0  0  0  0  0  0  0  0
   -0.1185   -2.1321   -0.9803 H   0  0  0  0  0  0  0  0  0  0  0  0
    2.7387   -1.0050   -0.7702 H   0  0  0  0  0  0  0  0  0  0  0  0
    2.1088   -1.6928   -2.2695 H   0  0  0  0  0  0  0  0  0  0  0  0
    3.0639    1.0042   -1.2071 H   0  0  0  0  0  0  0  0  0  0  0  0
    1.8710    2.1521   -1.7021 H   0  0  0  0  0  0  0  0  0  0  0  0
    1.9153   -3.7916    0.8452 N   0  0  0  0  0  0  0  0  0  0  0  0
    2.5142   -5.0643    1.1686 C   0  0  2  0  0  0  0  0  0  0  0  0
    3.6940   -5.2809    0.2302 C   0  0  0  0  0  0  0  0  0  0  0  0
    3.7998   -4.7152   -0.8560 O   0  0  0  0  0  0  0  0  0  0  0  0
    1.5070   -6.1970    1.0459 C   0  0  0  0  0  0  0  0  0  0  0  0
    1.8557   -3.0890    1.5764 H   0  0  0  0  0  0  0  0  0  0  0  0
    2.8759   -4.9905    2.2000 H   0  0  0  0  0  0  0  0  0  0  0  0
    1.1333   -6.2863    0.0193 H   0  0  0  0  0  0  0  0  0  0  0  0
    1.9553   -7.1579    1.3192 H   0  0  0  0  0  0  0  0  0  0  0  0
    0.6451   -6.0246    1.6995 H   0  0  0  0  0  0  0  0  0  0  0  0
    4.5934   -6.2128    0.7290 N   0  0  0  0  0  0  0  0  0  0  0  0
    5.7892   -6.6005    0.0178 C   0  0  0  0  0  0  0  0  0  0  0  0
    4.4357   -6.6177    1.6471 H   0  0  0  0  0  0  0  0  0  0  0  0
    5.5786   -7.4867   -0.5988 H   0  0  0  0  0  0  0  0  0  0  0  0
    6.1154   -5.7729   -0.6292 H   0  0  0  0  0  0  0  0  0  0  0  0
    6.5846   -6.8369    0.7399 H   0  0  0  0  0  0  0  0  0  0  0  0
  1  3  1  0  0  0  0
  1  7  1  0  0  0  0
  1  2  2  0  0  0  0
 21 22  1  0  0  0  0
 22 24  1  0  0  0  0
 22 23  2  0  0  0  0
 32 33  1  0  0  0  0
 33 41  1  0  0  0  0
 33 34  2  0  0  0  0
  8  9  1  0  0  0  0
  9 17  1  0  0  0  0
  9 10  2  0  0  0  0
 18 19  1  0  0  0  0
 19 31  1  0  0  0  0
 19 20  2  0  0  0  0
 32 35  1  0  0  0  0
  8 11  1  0  0  0  0
 41 42  1  0  0  0  0
 18 21  1  0  0  0  0
 31 32  1  0  0  0  0
  7  8  1  0  0  0  0
 17 18  1  0  0  0  0
  3  4  1  0  0  0  0
  3  5  1  0  0  0  0
  3  6  1  0  0  0  0
 35 38  1  0  0  0  0
 35 39  1  0  0  0  0
 35 40  1  0  0  0  0
 11 14  1  0  0  0  0
 11 15  1  0  0  0  0
 11 16  1  0  0  0  0
 42 44  1  0  0  0  0
 42 45  1  0  0  0  0
 42 46  1  0  0  0  0
 21 27  1  0  0  0  0
 21 28  1  0  0  0  0
 32 37  1  0  0  0  0
  8 13  1  0  0  0  0
 18 26  1  0  0  0  0
 24 29  1  0  0  0  0
 24 30  1  0  0  0  0
 41 43  1  0  0  0  0
  7 12  1  0  0  0  0
 31 36  1  0  0  0  0
 17 25  1  0  0  0  0
M  END
$$$$

  -OEChem-05262214473D

 46 45  0     1  0  0  0  0  0999 V2000
   -0.0543    1.9736    3.8406 C   0  0  0  0  0  0  0  0  0  0  0  0
    0.6744    1.6099    4.7562 O   0  0  0  0  0  0  0  0  0  0  0  0
   -0.5599    3.3779    3.8160 C   0  0  0  0  0  0  0  0  0  0  0  0
   -1.5202    3.4885    4.3450 H   0  0  0  0  0  0  0  0  0  0  0  0
    0.1282    4.0814    4.3116 H   0  0  0  0  0  0  0  0  0  0  0  0
   -0.7317    3.7994    2.8126 H   0  0  0  0  0  0  0  0  0  0  0  0
   -0.4812    1.1968    2.7762 N   0  0  0  0  0  0  0  0  0  0  0  0
   -0.1106   -0.1834    2.6051 C   0  0  2  0  0  0  0  0  0  0  0  0
   -0.0696   -0.4775    1.1113 C   0  0  0  0  0  0  0  0  0  0  0  0
   -0.6805    0.1900    0.2792 O   0  0  0  0  0  0  0  0  0  0  0  0
   -1.0852   -1.1101    3.3150 C   0  0  0  0  0  0  0  0  0  0  0  0
   -1.0883    1.6241    2.0791 H   0  0  0  0  0  0  0  0  0  0  0  0
    0.8937   -0.2959    3.0277 H   0  0  0  0  0  0  0  0  0  0  0  0
   -2.0970   -1.0114    2.9051 H   0  0  0  0  0  0  0  0  0  0  0  0
   -0.7860   -2.1580    3.2078 H   0  0  0  0  0  0  0  0  0  0  0  0
   -1.1357   -0.8775    4.3842 H   0  0  0  0  0  0  0  0  0  0  0  0
    0.6950   -1.6003    0.8178 N   0  0  0  0  0  0  0  0  0  0  0  0
    0.8777   -2.0908   -0.5246 C   0  0  2  0  0  0  0  0  0  0  0  0
    1.4352   -3.5052   -0.4251 C   0  0  0  0  0  0  0  0  0  0  0  0
    1.7364   -4.1791   -1.4082 O   0  0  0  0  0  0  0  0  0  0  0  0
    1.8174   -1.1973   -1.3345 C   0  0  0  0  0  0  0  0  0  0  0  0
    1.2124    0.1536   -1.6736 C   0  0  0  0  0  0  0  0  0  0  0  0
    0.0525    0.3152   -2.0410 O   0  0  0  0  0  0  0  0  0  0  0  0
    2.1147    1.1844   -1.5168 N   0  0  0  0  0  0  0  0  0  0  0  0
    1.1810   -2.0803    1.5718 H   0  0  0  0  0  0  0  0  0  0  0  0
   -0.1185   -2.1321   -0.9803 H   0  0  0  0  0  0  0  0  0  0  0  0
    2.7387   -1.0050   -0.7702 H   0  0  0  0  0  0  0  0  0  0  0  0
    2.1088   -1.6928   -2.2695 H   0  0  0  0  0  0  0  0  0  0  0  0
    3.0639    1.0042   -1.2071 H   0  0  0  0  0  0  0  0  0  0  0  0
    1.8710    2.1521   -1.7021 H   0  0  0  0  0  0  0  0  0  0  0  0
    1.6051   -3.9106    0.8912 N   0  0  0  0  0  0  0  0  0  0  0  0
    2.1451   -5.2054    1.2302 C   0  0  2  0  0  0  0  0  0  0  0  0
    3.5210   -5.3239    0.5880 C   0  0  0  0  0  0  0  0  0  0  0  0
    3.8676   -4.6552   -0.3835 O   0  0  0  0  0  0  0  0  0  0  0  0
    1.2293   -6.3263    0.7639 C   0  0  0  0  0  0  0  0  0  0  0  0
    1.3522   -3.2825    1.6484 H   0  0  0  0  0  0  0  0  0  0  0  0
    2.2471   -5.2299    2.3207 H   0  0  0  0  0  0  0  0  0  0  0  0
    1.1150   -6.3178   -0.3262 H   0  0  0  0  0  0  0  0  0  0  0  0
    1.6263   -7.3068    1.0470 H   0  0  0  0  0  0  0  0  0  0  0  0
    0.2314   -6.2226    1.2035 H   0  0  0  0  0  0  0  0  0  0  0  0
    4.3009   -6.2949    1.2004 N   0  0  0  0  0  0  0  0  0  0  0  0
    5.6428   -6.6056    0.7657 C   0  0  0  0  0  0  0  0  0  0  0  0
    3.9395   -6.7877    2.0118 H   0  0  0  0  0  0  0  0  0  0  0  0
    5.6113   -7.4291    0.0371 H   0  0  0  0  0  0  0  0  0  0  0  0
    6.0908   -5.7175    0.2960 H   0  0  0  0  0  0  0  0  0  0  0  0
    6.2486   -6.9066    1.6331 H   0  0  0  0  0  0  0  0  0  0  0  0
  1  3  1  0  0  0  0
  1  7  1  0  0  0  0
  1  2  2  0  0  0  0
 21 22  1  0  0  0  0
 22 24  1  0  0  0  0
 22 23  2  0  0  0  0
 32 33  1  0  0  0  0
 33 41  1  0  0  0  0
 33 34  2  0  0  0  0
  8  9  1  0  0  0  0
  9 17  1  0  0  0  0
  9 10  2  0  0  0  0
 18 19  1  0  0  0  0
 19 31  1  0  0  0  0
 19 20  2  0  0  0  0
 32 35  1  0  0  0  0
  8 11  1  0  0  0  0
 41 42  1  0  0  0  0
 18 21  1  0  0  0  0
 31 32  1  0  0  0  0
  7  8  1  0  0  0  0
 17 18  1  0  0  0  0
  3  4  1  0  0  0  0
  3  5  1  0  0  0  0
  3  6  1  0  0  0  0
 35 38  1  0  0  0  0
 35 39  1  0  0  0  0
 35 40  1  0  0  0  0
 11 14  1  0  0  0  0
 11 15  1  0  0  0  0
 11 16  1  0  0  0  0
 42 44  1  0  0  0  0
 42 45  1  0  0  0  0
 42 46  1  0  0  0  0
 21 27  1  0  0  0  0
 21 28  1  0  0  0  0
 32 37  1  0  0  0  0
  8 13  1  0  0  0  0
 18 26  1  0  0  0  0
 24 29  1  0  0  0  0
 24 30  1  0  0  0  0
 41 43  1  0  0  0  0
  7 12  1  0  0  0  0
 31 36  1  0  0  0  0
 17 25  1  0  0  0  0
M  END
$$$$

  -OEChem-05262214473D

 46 45  0     1  0  0  0  0  0999 V2000
   -0.0543    1.9736    3.8406 C   0  0  0  0  0  0  0  0  0  0  0  0
    0.6744    1.6099    4.7562 O   0  0  0  0  0  0  0  0  0  0  0  0
   -0.5599    3.3779    3.8160 C   0  0  0  0  0  0  0  0  0  0  0  0
   -1.5202    3.4885    4.3450 H   0  0  0  0  0  0  0  0  0  0  0  0
    0.1282    4.0814    4.3116 H   0  0  0  0  0  0  0  0  0  0  0  0
   -0.7317    3.7994    2.8126 H   0  0  0  0  0  0  0  0  0  0  0  0
   -0.4812    1.1968    2.7762 N   0  0  0  0  0  0  0  0  0  0  0  0
   -0.1106   -0.1834    2.6051 C   0  0  2  0  0  0  0  0  0  0  0  0
   -0.0696   -0.4775    1.1113 C   0  0  0  0  0  0  0  0  0  0  0  0
   -0.6805    0.1900    0.2792 O   0  0  0  0  0  0  0  0  0  0  0  0
   -1.0852   -1.1101    3.3150 C   0  0  0  0  0  0  0  0  0  0  0  0
   -1.0883    1.6241    2.0791 H   0  0  0  0  0  0  0  0  0  0  0  0
    0.8937   -0.2959    3.0277 H   0  0  0  0  0  0  0  0  0  0  0  0
   -2.0970   -1.0114    2.9051 H   0  0  0  0  0  0  0  0  0  0  0  0
   -0.7860   -2.1580    3.2078 H   0  0  0  0  0  0  0  0  0  0  0  0
   -1.1357   -0.8775    4.3842 H   0  0  0  0  0  0  0  0  0  0  0  0
    0.6950   -1.6003    0.8178 N   0  0  0  0  0  0  0  0  0  0  0  0
    0.8777   -2.0908   -0.5246 C   0  0  2  0  0  0  0  0  0  0  0  0
    1.4352   -3.5052   -0.4251 C   0  0  0  0  0  0  0  0  0  0  0  0
    1.9821   -4.0792   -1.3647 O   0  0  0  0  0  0  0  0  0  0  0  0
    1.8174   -1.1973   -1.3345 C   0  0  0  0  0  0  0  0  0  0  0  0
    1.2124    0.1536   -1.6736 C   0  0  0  0  0  0  0  0  0  0  0  0
    0.0525    0.3152   -2.0410 O   0  0  0  0  0  0  0  0  0  0  0  0
    2.1147    1.1844   -1.5168 N   0  0  0  0  0  0  0  0  0  0  0  0
    1.1810   -2.0803    1.5718 H   0  0  0  0  0  0  0  0  0  0  0  0
   -0.1185   -2.1321   -0.9803 H   0  0  0  0  0  0  0  0  0  0  0  0
    2.7387   -1.0050   -0.7702 H   0  0  0  0  0  0  0  0  0  0  0  0
    2.1088   -1.6928   -2.2695 H   0  0  0  0  0  0  0  0  0  0  0  0
    3.0639    1.0042   -1.2071 H   0  0  0  0  0  0  0  0  0  0  0  0
    1.8710    2.1521   -1.7021 H   0  0  0  0  0  0  0  0  0  0  0  0
    1.2964   -4.0352    0.8500 N   0  0  0  0  0  0  0  0  0  0  0  0
    1.7762   -5.3538    1.1877 C   0  0  2  0  0  0  0  0  0  0  0  0
    3.2687   -5.4023    0.8880 C   0  0  0  0  0  0  0  0  0  0  0  0
    3.8186   -4.6408    0.0950 O   0  0  0  0  0  0  0  0  0  0  0  0
    1.0310   -6.4292    0.4125 C   0  0  0  0  0  0  0  0  0  0  0  0
    0.8518   -3.4846    1.5786 H   0  0  0  0  0  0  0  0  0  0  0  0
    1.6148   -5.4832    2.2634 H   0  0  0  0  0  0  0  0  0  0  0  0
    1.1808   -6.3159   -0.6674 H   0  0  0  0  0  0  0  0  0  0  0  0
    1.3764   -7.4303    0.6909 H   0  0  0  0  0  0  0  0  0  0  0  0
   -0.0457   -6.3738    0.6063 H   0  0  0  0  0  0  0  0  0  0  0  0
    3.9066   -6.4238    1.5776 N   0  0  0  0  0  0  0  0  0  0  0  0
    5.3217   -6.6838    1.4524 C   0  0  0  0  0  0  0  0  0  0  0  0
    3.3756   -6.9947    2.2287 H   0  0  0  0  0  0  0  0  0  0  0  0
    5.4891   -7.4331    0.6647 H   0  0  0  0  0  0  0  0  0  0  0  0
    5.8437   -5.7521    1.1889 H   0  0  0  0  0  0  0  0  0  0  0  0
    5.7105   -7.0641    2.4086 H   0  0  0  0  0  0  0  0  0  0  0  0
  1  3  1  0  0  0  0
  1  7  1  0  0  0  0
  1  2  2  0  0  0  0
 21 22  1  0  0  0  0
 22 24  1  0  0  0  0
 22 23  2  0  0  0  0
 32 33  1  0  0  0  0
 33 41  1  0  0  0  0
 33 34  2  0  0  0  0
  8  9  1  0  0  0  0
  9 17  1  0  0  0  0
  9 10  2  0  0  0  0
 18 19  1  0  0  0  0
 19 31  1  0  0  0  0
 19 20  2  0  0  0  0
 32 35  1  0  0  0  0
  8 11  1  0  0  0  0
 41 42  1  0  0  0  0
 18 21  1  0  0  0  0
 31 32  1  0  0  0  0
  7  8  1  0  0  0  0
 17 18  1  0  0  0  0
  3  4  1  0  0  0  0
  3  5  1  0  0  0  0
  3  6  1  0  0  0  0
 35 38  1  0  0  0  0
 35 39  1  0  0  0  0
 35 40  1  0  0  0  0
 11 14  1  0  0  0  0
 11 15  1  0  0  0  0
 11 16  1  0  0  0  0
 42 44  1  0  0  0  0
 42 45  1  0  0  0  0
 42 46  1  0  0  0  0
 21 27  1  0  0  0  0
 21 28  1  0  0  0  0
 32 37  1  0  0  0  0
  8 13  1  0  0  0  0
 18 26  1  0  0  0  0
 24 29  1  0  0  0  0
 24 30  1  0  0  0  0
 41 43  1  0  0  0  0
  7 12  1  0  0  0  0
 31 36  1  0  0  0  0
 17 25  1  0  0  0  0
M  END
$$$$

  -OEChem-05262214473D

 46 45  0     1  0  0  0  0  0999 V2000
   -0.0543    1.9736    3.8406 C   0  0  0  0  0  0  0  0  0  0  0  0
    0.6744    1.6099    4.7562 O   0  0  0  0  0  0  0  0  0  0  0  0
   -0.5599    3.3779    3.8160 C   0  0  0  0  0  0  0  0  0  0  0  0
   -1.5202    3.4885    4.3450 H   0  0  0  0  0  0  0  0  0  0  0  0
    0.1282    4.0814    4.3116 H   0  0  0  0  0  0  0  0  0  0  0  0
   -0.7317    3.7994    2.8126 H   0  0  0  0  0  0  0  0  0  0  0  0
   -0.4812    1.1968    2.7762 N   0  0  0  0  0  0  0  0  0  0  0  0
   -0.1106   -0.1834    2.6051 C   0  0  2  0  0  0  0  0  0  0  0  0
   -0.0696   -0.4775    1.1113 C   0  0  0  0  0  0  0  0  0  0  0  0
   -0.6805    0.1900    0.2792 O   0  0  0  0  0  0  0  0  0  0  0  0
   -1.0852   -1.1101    3.3150 C   0  0  0  0  0  0  0  0  0  0  0  0
   -1.0883    1.6241    2.0791 H   0  0  0  0  0  0  0  0  0  0  0  0
    0.8937   -0.2959    3.0277 H   0  0  0  0  0  0  0  0  0  0  0  0
   -2.0970   -1.0114    2.9051 H   0  0  0  0  0  0  0  0  0  0  0  0
   -0.7860   -2.1580    3.2078 H   0  0  0  0  0  0  0  0  0  0  0  0
   -1.1357   -0.8775    4.3842 H   0  0  0  0  0  0  0  0  0  0  0  0
    0.6950   -1.6003    0.8178 N   0  0  0  0  0  0  0  0  0  0  0  0
    0.8777   -2.0908   -0.5246 C   0  0  2  0  0  0  0  0  0  0  0  0
    1.4352   -3.5052   -0.4251 C   0  0  0  0  0  0  0  0  0  0  0  0
    2.2073   -3.9826   -1.2541 O   0  0  0  0  0  0  0  0  0  0  0  0
    1.8174   -1.1973   -1.3345 C   0  0  0  0  0  0  0  0  0  0  0  0
    1.2124    0.1536   -1.6736 C   0  0  0  0  0  0  0  0  0  0  0  0
    0.0525    0.3152   -2.0410 O   0  0  0  0  0  0  0  0  0  0  0  0
    2.1147    1.1844   -1.5168 N   0  0  0  0  0  0  0  0  0  0  0  0
    1.1810   -2.0803    1.5718 H   0  0  0  0  0  0  0  0  0  0  0  0
   -0.1185   -2.1321   -0.9803 H   0  0  0  0  0  0  0  0  0  0  0  0
    2.7387   -1.0050   -0.7702 H   0  0  0  0  0  0  0  0  0  0  0  0
    2.1088   -1.6928   -2.2695 H   0  0  0  0  0  0  0  0  0  0  0  0
    3.0639    1.0042   -1.2071 H   0  0  0  0  0  0  0  0  0  0  0  0
    1.8710    2.1521   -1.7021 H   0  0  0  0  0  0  0  0  0  0  0  0
    1.0103   -4.1568    0.7241 N   0  0  0  0  0  0  0  0  0  0  0  0
    1.4326   -5.4994    1.0439 C   0  0  2  0  0  0  0  0  0  0  0  0
    2.9541   -5.5107    1.1097 C   0  0  0  0  0  0  0  0  0  0  0  0
    3.6561   -4.6731    0.5467 O   0  0  0  0  0  0  0  0  0  0  0  0
    0.9256   -6.4986    0.0157 C   0  0  0  0  0  0  0  0  0  0  0  0
    0.3886   -3.6818    1.3719 H   0  0  0  0  0  0  0  0  0  0  0  0
    1.0220   -5.7332    2.0323 H   0  0  0  0  0  0  0  0  0  0  0  0
    1.3264   -6.2805   -0.9809 H   0  0  0  0  0  0  0  0  0  0  0  0
    1.2227   -7.5202    0.2751 H   0  0  0  0  0  0  0  0  0  0  0  0
   -0.1673   -6.4680   -0.0515 H   0  0  0  0  0  0  0  0  0  0  0  0
    3.4372   -6.5908    1.8351 N   0  0  0  0  0  0  0  0  0  0  0  0
    4.8480   -6.8299    2.0312 C   0  0  0  0  0  0  0  0  0  0  0  0
    2.7822   -7.2248    2.2832 H   0  0  0  0  0  0  0  0  0  0  0  0
    5.2204   -7.4985    1.2411 H   0  0  0  0  0  0  0  0  0  0  0  0
    5.3911   -5.8743    1.9888 H   0  0  0  0  0  0  0  0  0  0  0  0
    5.0072   -7.2989    3.0134 H   0  0  0  0  0  0  0  0  0  0  0  0
  1  3  1  0  0  0  0
  1  7  1  0  0  0  0
  1  2  2  0  0  0  0
 21 22  1  0  0  0  0
 22 24  1  0  0  0  0
 22 23  2  0  0  0  0
 32 33  1  0  0  0  0
 33 41  1  0  0  0  0
 33 34  2  0  0  0  0
  8  9  1  0  0  0  0
  9 17  1  0  0  0  0
  9 10  2  0  0  0  0
 18 19  1  0  0  0  0
 19 31  1  0  0  0  0
 19 20  2  0  0  0  0
 32 35  1  0  0  0  0
  8 11  1  0  0  0  0
 41 42  1  0  0  0  0
 18 21  1  0  0  0  0
 31 32  1  0  0  0  0
  7  8  1  0  0  0  0
 17 18  1  0  0  0  0
  3  4  1  0  0  0  0
  3  5  1  0  0  0  0
  3  6  1  0  0  0  0
 35 38  1  0  0  0  0
 35 39  1  0  0  0  0
 35 40  1  0  0  0  0
 11 14  1  0  0  0  0
 11 15  1  0  0  0  0
 11 16  1  0  0  0  0
 42 44  1  0  0  0  0
 42 45  1  0  0  0  0
 42 46  1  0  0  0  0
 21 27  1  0  0  0  0
 21 28  1  0  0  0  0
 32 37  1  0  0  0  0
  8 13  1  0  0  0  0
 18 26  1  0  0  0  0
 24 29  1  0  0  0  0
 24 30  1  0  0  0  0
 41 43  1  0  0  0  0
  7 12  1  0  0  0  0
 31 36  1  0  0  0  0
 17 25  1  0  0  0  0
M  END
$$$$

  -OEChem-05262214473D

 46 45  0     1  0  0  0  0  0999 V2000
   -0.0543    1.9736    3.8406 C   0  0  0  0  0  0  0  0  0  0  0  0
    0.6744    1.6099    4.7562 O   0  0  0  0  0  0  0  0  0  0  0  0
   -0.5599    3.3779    3.8160 C   0  0  0  0  0  0  0  0  0  0  0  0
   -1.5202    3.4885    4.3450 H   0  0  0  0  0  0  0  0  0  0  0  0
    0.1282    4.0814    4.3116 H   0  0  0  0  0  0  0  0  0  0  0  0
   -0.7317    3.7994    2.8126 H   0  0  0  0  0  0  0  0  0  0  0  0
   -0.4812    1.1968    2.7762 N   0  0  0  0  0  0  0  0  0  0  0  0
   -0.1106   -0.1834    2.6051 C   0  0  2  0  0  0  0  0  0  0  0  0
   -0.0696   -0.4775    1.1113 C   0  0  0  0  0  0  0  0  0  0  0  0
   -0.6805    0.1900    0.2792 O   0  0  0  0  0  0  0  0  0  0  0  0
   -1.0852   -1.1101    3.3150 C   0  0  0  0  0  0  0  0  0  0  0  0
   -1.0883    1.6241    2.0791 H   0  0  0  0  0  0  0  0  0  0  0  0
    0.8937   -0.2959    3.0277 H   0  0  0  0  0  0  0  0  0  0  0  0
   -2.0970   -1.0114    2.9051 H   0  0  0  0  0  0  0  0  0  0  0  0
   -0.7860   -2.1580    3.2078 H   0  0  0  0  0  0  0  0  0  0  0  0
   -1.1357   -0.8775    4.3842 H   0  0  0  0  0  0  0  0  0  0  0  0
    0.6950   -1.6003    0.8178 N   0  0  0  0  0  0  0  0  0  0  0  0
    0.8777   -2.0908   -0.5246 C   0  0  2  0  0  0  0  0  0  0  0  0
    1.4352   -3.5052   -0.4251 C   0  0  0  0  0  0  0  0  0  0  0  0
    2.3967   -3.8960   -1.0841 O   0  0  0  0  0  0  0  0  0  0  0  0
    1.8174   -1.1973   -1.3345 C   0  0  0  0  0  0  0  0  0  0  0  0
    1.2124    0.1536   -1.6736 C   0  0  0  0  0  0  0  0  0  0  0  0
    0.0525    0.3152   -2.0410 O   0  0  0  0  0  0  0  0  0  0  0  0
    2.1147    1.1844   -1.5168 N   0  0  0  0  0  0  0  0  0  0  0  0
    1.1810   -2.0803    1.5718 H   0  0  0  0  0  0  0  0  0  0  0  0
   -0.1185   -2.1321   -0.9803 H   0  0  0  0  0  0  0  0  0  0  0  0
    2.7387   -1.0050   -0.7702 H   0  0  0  0  0  0  0  0  0  0  0  0
    2.1088   -1.6928   -2.2695 H   0  0  0  0  0  0  0  0  0  0  0  0
    3.0639    1.0042   -1.2071 H   0  0  0  0  0  0  0  0  0  0  0  0
    1.8710    2.1521   -1.7021 H   0  0  0  0  0  0  0  0  0  0  0  0
    0.7662   -4.2673    0.5223 N   0  0  0  0  0  0  0  0  0  0  0  0
    1.1377   -5.6322    0.8087 C   0  0  2  0  0  0  0  0  0  0  0  0
    2.5989   -5.6417    1.2380 C   0  0  0  0  0  0  0  0  0  0  0  0
    3.3911   -4.7499    0.9410 O   0  0  0  0  0  0  0  0  0  0  0  0
    0.9203   -6.5299   -0.3994 C   0  0  0  0  0  0  0  0  0  0  0  0
   -0.0058   -3.8604    1.0423 H   0  0  0  0  0  0  0  0  0  0  0  0
    0.5092   -5.9627    1.6428 H   0  0  0  0  0  0  0  0  0  0  0  0
    1.5417   -6.2142   -1.2454 H   0  0  0  0  0  0  0  0  0  0  0  0
    1.1756   -7.5701   -0.1718 H   0  0  0  0  0  0  0  0  0  0  0  0
   -0.1251   -6.4988   -0.7251 H   0  0  0  0  0  0  0  0  0  0  0  0
    2.9248   -6.7843    1.9552 N   0  0  0  0  0  0  0  0  0  0  0  0
    4.2538   -7.0338    2.4626 C   0  0  0  0  0  0  0  0  0  0  0  0
    2.1999   -7.4622    2.1714 H   0  0  0  0  0  0  0  0  0  0  0  0
    4.8234   -7.6208    1.7272 H   0  0  0  0  0  0  0  0  0  0  0  0
    4.7638   -6.0757    2.6411 H   0  0  0  0  0  0  0  0  0  0  0  0
    4.1864   -7.5948    3.4064 H   0  0  0  0  0  0  0  0  0  0  0  0
  1  3  1  0  0  0  0
  1  7  1  0  0  0  0
  1  2  2  0  0  0  0
 21 22  1  0  0  0  0
 22 24  1  0  0  0  0
 22 23  2  0  0  0  0
 32 33  1  0  0  0  0
 33 41  1  0  0  0  0
 33 34  2  0  0  0  0
  8  9  1  0  0  0  0
  9 17  1  0  0  0  0
  9 10  2  0  0  0  0
 18 19  1  0  0  0  0
 19 31  1  0  0  0  0
 19 20  2  0  0  0  0
 32 35  1  0  0  0  0
  8 11  1  0  0  0  0
 41 42  1  0  0  0  0
 18 21  1  0  0  0  0
 31 32  1  0  0  0  0
  7  8  1  0  0  0  0
 17 18  1  0  0  0  0
  3  4  1  0  0  0  0
  3  5  1  0  0  0  0
  3  6  1  0  0  0  0
 35 38  1  0  0  0  0
 35 39  1  0  0  0  0
 35 40  1  0  0  0  0
 11 14  1  0  0  0  0
 11 15  1  0  0  0  0
 11 16  1  0  0  0  0
 42 44  1  0  0  0  0
 42 45  1  0  0  0  0
 42 46  1  0  0  0  0
 21 27  1  0  0  0  0
 21 28  1  0  0  0  0
 32 37  1  0  0  0  0
  8 13  1  0  0  0  0
 18 26  1  0  0  0  0
 24 29  1  0  0  0  0
 24 30  1  0  0  0  0
 41 43  1  0  0  0  0
  7 12  1  0  0  0  0
 31 36  1  0  0  0  0
 17 25  1  0  0  0  0
M  END
$$$$

  -OEChem-05262214473D

 46 45  0     1  0  0  0  0  0999 V2000
   -0.0543    1.9736    3.8406 C   0  0  0  0  0  0  0  0  0  0  0  0
    0.6744    1.6099    4.7562 O   0  0  0  0  0  0  0  0  0  0  0  0
   -0.5599    3.3779    3.8160 C   0  0  0  0  0  0  0  0  0  0  0  0
   -1.5202    3.4885    4.3450 H   0  0  0  0  0  0  0  0  0  0  0  0
    0.1282    4.0814    4.3116 H   0  0  0  0  0  0  0  0  0  0  0  0
   -0.7317    3.7994    2.8126 H   0  0  0  0  0  0  0  0  0  0  0  0
   -0.4812    1.1968    2.7762 N   0  0  0  0  0  0  0  0  0  0  0  0
   -0.1106   -0.1834    2.6051 C   0  0  2  0  0  0  0  0  0  0  0  0
   -0.0696   -0.4775    1.1113 C   0  0  0  0  0  0  0  0  0  0  0  0
   -0.6805    0.1900    0.2792 O   0  0  0  0  0  0  0  0  0  0  0  0
   -1.0852   -1.1101    3.3150 C   0  0  0  0  0  0  0  0  0  0  0  0
   -1.0883    1.6241    2.0791 H   0  0  0  0  0  0  0  0  0  0  0  0
    0.8937   -0.2959    3.0277 H   0  0  0  0  0  0  0  0  0  0  0  0
   -2.0970   -1.0114    2.9051 H   0  0  0  0  0  0  0  0  0  0  0  0
   -0.7860   -2.1580    3.2078 H   0  0  0  0  0  0  0  0  0  0  0  0
   -1.1357   -0.8775    4.3842 H   0  0  0  0  0  0  0  0  0  0  0  0
    0.6950   -1.6003    0.8178 N   0  0  0  0  0  0  0  0  0  0  0  0
    0.8777   -2.0908   -0.5246 C   0  0  2  0  0  0  0  0  0  0  0  0
    1.4352   -3.5052   -0.4251 C   0  0  0  0  0  0  0  0  0  0  0  0
    2.5372   -3.8253   -0.8662 O   0  0  0  0  0  0  0  0  0  0  0  0
    1.8174   -1.1973   -1.3345 C   0  0  0  0  0  0  0  0  0  0  0  0
    1.2124    0.1536   -1.6736 C   0  0  0  0  0  0  0  0  0  0  0  0
    0.0525    0.3152   -2.0410 O   0  0  0  0  0  0  0  0  0  0  0  0
    2.1147    1.1844   -1.5168 N   0  0  0  0  0  0  0  0  0  0  0  0
    1.1810   -2.0803    1.5718 H   0  0  0  0  0  0  0  0  0  0  0  0
   -0.1185   -2.1321   -0.9803 H   0  0  0  0  0  0  0  0  0  0  0  0
    2.7387   -1.0050   -0.7702 H   0  0  0  0  0  0  0  0  0  0  0  0
    2.1088   -1.6928   -2.2695 H   0  0  0  0  0  0  0  0  0  0  0  0
    3.0639    1.0042   -1.2071 H   0  0  0  0  0  0  0  0  0  0  0  0
    1.8710    2.1521   -1.7021 H   0  0  0  0  0  0  0  0  0  0  0  0
    0.5808   -4.3589    0.2583 N   0  0  0  0  0  0  0  0  0  0  0  0
    0.9116   -5.7432    0.4980 C   0  0  2  0  0  0  0  0  0  0  0  0
    2.2272   -5.7864    1.2642 C   0  0  0  0  0  0  0  0  0  0  0  0
    3.0417   -4.8658    1.2509 O   0  0  0  0  0  0  0  0  0  0  0  0
    1.0155   -6.5209   -0.8047 C   0  0  0  0  0  0  0  0  0  0  0  0
   -0.3045   -4.0084    0.6121 H   0  0  0  0  0  0  0  0  0  0  0  0
    0.1114   -6.1562    1.1218 H   0  0  0  0  0  0  0  0  0  0  0  0
    1.8121   -6.1215   -1.4429 H   0  0  0  0  0  0  0  0  0  0  0  0
    1.2384   -7.5769   -0.6196 H   0  0  0  0  0  0  0  0  0  0  0  0
    0.0781   -6.4639   -1.3684 H   0  0  0  0  0  0  0  0  0  0  0  0
    2.4042   -6.9913    1.9297 N   0  0  0  0  0  0  0  0  0  0  0  0
    3.5796   -7.2816    2.7172 C   0  0  0  0  0  0  0  0  0  0  0  0
    1.6682   -7.6908    1.9010 H   0  0  0  0  0  0  0  0  0  0  0  0
    4.3253   -7.7917    2.0897 H   0  0  0  0  0  0  0  0  0  0  0  0
    4.0045   -6.3426    3.1014 H   0  0  0  0  0  0  0  0  0  0  0  0
    3.3042   -7.9317    3.5608 H   0  0  0  0  0  0  0  0  0  0  0  0
  1  3  1  0  0  0  0
  1  7  1  0  0  0  0
  1  2  2  0  0  0  0
 21 22  1  0  0  0  0
 22 24  1  0  0  0  0
 22 23  2  0  0  0  0
 32 33  1  0  0  0  0
 33 41  1  0  0  0  0
 33 34  2  0  0  0  0
  8  9  1  0  0  0  0
  9 17  1  0  0  0  0
  9 10  2  0  0  0  0
 18 19  1  0  0  0  0
 19 31  1  0  0  0  0
 19 20  2  0  0  0  0
 32 35  1  0  0  0  0
  8 11  1  0  0  0  0
 41 42  1  0  0  0  0
 18 21  1  0  0  0  0
 31 32  1  0  0  0  0
  7  8  1  0  0  0  0
 17 18  1  0  0  0  0
  3  4  1  0  0  0  0
  3  5  1  0  0  0  0
  3  6  1  0  0  0  0
 35 38  1  0  0  0  0
 35 39  1  0  0  0  0
 35 40  1  0  0  0  0
 11 14  1  0  0  0  0
 11 15  1  0  0  0  0
 11 16  1  0  0  0  0
 42 44  1  0  0  0  0
 42 45  1  0  0  0  0
 42 46  1  0  0  0  0
 21 27  1  0  0  0  0
 21 28  1  0  0  0  0
 32 37  1  0  0  0  0
  8 13  1  0  0  0  0
 18 26  1  0  0  0  0
 24 29  1  0  0  0  0
 24 30  1  0  0  0  0
 41 43  1  0  0  0  0
  7 12  1  0  0  0  0
 31 36  1  0  0  0  0
 17 25  1  0  0  0  0
M  END
$$$$

  -OEChem-05262214473D

 46 45  0     1  0  0  0  0  0999 V2000
   -0.0543    1.9736    3.8406 C   0  0  0  0  0  0  0  0  0  0  0  0
    0.6744    1.6099    4.7562 O   0  0  0  0  0  0  0  0  0  0  0  0
   -0.5599    3.3779    3.8160 C   0  0  0  0  0  0  0  0  0  0  0  0
   -1.5202    3.4885    4.3450 H   0  0  0  0  0  0  0  0  0  0  0  0
    0.1282    4.0814    4.3116 H   0  0  0  0  0  0  0  0  0  0  0  0
   -0.7317    3.7994    2.8126 H   0  0  0  0  0  0  0  0  0  0  0  0
   -0.4812    1.1968    2.7762 N   0  0  0  0  0  0  0  0  0  0  0  0
   -0.1106   -0.1834    2.6051 C   0  0  2  0  0  0  0  0  0  0  0  0
   -0.0696   -0.4775    1.1113 C   0  0  0  0  0  0  0  0  0  0  0  0
   -0.6805    0.1900    0.2792 O   0  0  0  0  0  0  0  0  0  0  0  0
   -1.0852   -1.1101    3.3150 C   0  0  0  0  0  0  0  0  0  0  0  0
   -1.0883    1.6241    2.0791 H   0  0  0  0  0  0  0  0  0  0  0  0
    0.8937   -0.2959    3.0277 H   0  0  0  0  0  0  0  0  0  0  0  0
   -2.0970   -1.0114    2.9051 H   0  0  0  0  0  0  0  0  0  0  0  0
   -0.7860   -2.1580    3.2078 H   0  0  0  0  0  0  0  0  0  0  0  0
   -1.1357   -0.8775    4.3842 H   0  0  0  0  0  0  0  0  0  0  0  0
    0.6950   -1.6003    0.8178 N   0  0  0  0  0  0  0  0  0  0  0  0
    0.8777   -2.0908   -0.5246 C   0  0  2  0  0  0  0  0  0  0  0  0
    1.4352   -3.5052   -0.4251 C   0  0  0  0  0  0  0  0  0  0  0  0
    2.6195   -3.7752   -0.6152 O   0  0  0  0  0  0  0  0  0  0  0  0
    1.8174   -1.1973   -1.3345 C   0  0  0  0  0  0  0  0  0  0  0  0
    1.2124    0.1536   -1.6736 C   0  0  0  0  0  0  0  0  0  0  0  0
    0.0525    0.3152   -2.0410 O   0  0  0  0  0  0  0  0  0  0  0  0
    2.1147    1.1844   -1.5168 N   0  0  0  0  0  0  0  0  0  0  0  0
    1.1810   -2.0803    1.5718 H   0  0  0  0  0  0  0  0  0  0  0  0
   -0.1185   -2.1321   -0.9803 H   0  0  0  0  0  0  0  0  0  0  0  0
    2.7387   -1.0050   -0.7702 H   0  0  0  0  0  0  0  0  0  0  0  0
    2.1088   -1.6928   -2.2695 H   0  0  0  0  0  0  0  0  0  0  0  0
    3.0639    1.0042   -1.2071 H   0  0  0  0  0  0  0  0  0  0  0  0
    1.8710    2.1521   -1.7021 H   0  0  0  0  0  0  0  0  0  0  0  0
    0.4666   -4.4256   -0.0500 N   0  0  0  0  0  0  0  0  0  0  0  0
    0.7698   -5.8248    0.1331 C   0  0  2  0  0  0  0  0  0  0  0  0
    1.8643   -5.9349    1.1864 C   0  0  0  0  0  0  0  0  0  0  0  0
    2.6317   -5.0131    1.4552 O   0  0  0  0  0  0  0  0  0  0  0  0
    1.2047   -6.4722   -1.1724 C   0  0  0  0  0  0  0  0  0  0  0  0
   -0.4872   -4.1157    0.1109 H   0  0  0  0  0  0  0  0  0  0  0  0
   -0.1445   -6.3005    0.5045 H   0  0  0  0  0  0  0  0  0  0  0  0
    2.1192   -6.0087   -1.5599 H   0  0  0  0  0  0  0  0  0  0  0  0
    1.4067   -7.5399   -1.0377 H   0  0  0  0  0  0  0  0  0  0  0  0
    0.4282   -6.3659   -1.9377 H   0  0  0  0  0  0  0  0  0  0  0  0
    1.9110   -7.1976    1.7604 N   0  0  0  0  0  0  0  0  0  0  0  0
    2.8714   -7.5566    2.7777 C   0  0  0  0  0  0  0  0  0  0  0  0
    1.2235   -7.8950    1.4905 H   0  0  0  0  0  0  0  0  0  0  0  0
    3.7599   -7.9995    2.3039 H   0  0  0  0  0  0  0  0  0  0  0  0
    3.1651   -6.6569    3.3383 H   0  0  0  0  0  0  0  0  0  0  0  0
    2.4207   -8.2866    3.4660 H   0  0  0  0  0  0  0  0  0  0  0  0
  1  3  1  0  0  0  0
  1  7  1  0  0  0  0
  1  2  2  0  0  0  0
 21 22  1  0  0  0  0
 22 24  1  0  0  0  0
 22 23  2  0  0  0  0
 32 33  1  0  0  0  0
 33 41  1  0  0  0  0
 33 34  2  0  0  0  0
  8  9  1  0  0  0  0
  9 17  1  0  0  0  0
  9 10  2  0  0  0  0
 18 19  1  0  0  0  0
 19 31  1  0  0  0  0
 19 20  2  0  0  0  0
 32 35  1  0  0  0  0
  8 11  1  0  0  0  0
 41 42  1  0  0  0  0
 18 21  1  0  0  0  0
 31 32  1  0  0  0  0
  7  8  1  0  0  0  0
 17 18  1  0  0  0  0
  3  4  1  0  0  0  0
  3  5  1  0  0  0  0
  3  6  1  0  0  0  0
 35 38  1  0  0  0  0
 35 39  1  0  0  0  0
 35 40  1  0  0  0  0
 11 14  1  0  0  0  0
 11 15  1  0  0  0  0
 11 16  1  0  0  0  0
 42 44  1  0  0  0  0
 42 45  1  0  0  0  0
 42 46  1  0  0  0  0
 21 27  1  0  0  0  0
 21 28  1  0  0  0  0
 32 37  1  0  0  0  0
  8 13  1  0  0  0  0
 18 26  1  0  0  0  0
 24 29  1  0  0  0  0
 24 30  1  0  0  0  0
 41 43  1  0  0  0  0
  7 12  1  0  0  0  0
 31 36  1  0  0  0  0
 17 25  1  0  0  0  0
M  END
$$$$

  -OEChem-05262214473D

 46 45  0     1  0  0  0  0  0999 V2000
   -0.0543    1.9736    3.8406 C   0  0  0  0  0  0  0  0  0  0  0  0
    0.6744    1.6099    4.7562 O   0  0  0  0  0  0  0  0  0  0  0  0
   -0.5599    3.3779    3.8160 C   0  0  0  0  0  0  0  0  0  0  0  0
   -1.5202    3.4885    4.3450 H   0  0  0  0  0  0  0  0  0  0  0  0
    0.1282    4.0814    4.3116 H   0  0  0  0  0  0  0  0  0  0  0  0
   -0.7317    3.7994    2.8126 H   0  0  0  0  0  0  0  0  0  0  0  0
   -0.4812    1.1968    2.7762 N   0  0  0  0  0  0  0  0  0  0  0  0
   -0.1106   -0.1834    2.6051 C   0  0  2  0  0  0  0  0  0  0  0  0
   -0.0696   -0.4775    1.1113 C   0  0  0  0  0  0  0  0  0  0  0  0
   -0.6805    0.1900    0.2792 O   0  0  0  0  0  0  0  0  0  0  0  0
   -1.0852   -1.1101    3.3150 C   0  0  0  0  0  0  0  0  0  0  0  0
   -1.0883    1.6241    2.0791 H   0  0  0  0  0  0  0  0  0  0  0  0
    0.8937   -0.2959    3.0277 H   0  0  0  0  0  0  0  0  0  0  0  0
   -2.0970   -1.0114    2.9051 H   0  0  0  0  0  0  0  0  0  0  0  0
   -0.7860   -2.1580    3.2078 H   0  0  0  0  0  0  0  0  0  0  0  0
   -1.1357   -0.8775    4.3842 H   0  0  0  0  0  0  0  0  0  0  0  0
    0.6950   -1.6003    0.8178 N   0  0  0  0  0  0  0  0  0  0  0  0
    0.8777   -2.0908   -0.5246 C   0  0  2  0  0  0  0  0  0  0  0  0
    1.4352   -3.5052   -0.4251 C   0  0  0  0  0  0  0  0  0  0  0  0
    2.6377   -3.7492   -0.3482 O   0  0  0  0  0  0  0  0  0  0  0  0
    1.8174   -1.1973   -1.3345 C   0  0  0  0  0  0  0  0  0  0  0  0
    1.2124    0.1536   -1.6736 C   0  0  0  0  0  0  0  0  0  0  0  0
    0.0525    0.3152   -2.0410 O   0  0  0  0  0  0  0  0  0  0  0  0
    2.1147    1.1844   -1.5168 N   0  0  0  0  0  0  0  0  0  0  0  0
    1.1810   -2.0803    1.5718 H   0  0  0  0  0  0  0  0  0  0  0  0
   -0.1185   -2.1321   -0.9803 H   0  0  0  0  0  0  0  0  0  0  0  0
    2.7387   -1.0050   -0.7702 H   0  0  0  0  0  0  0  0  0  0  0  0
    2.1088   -1.6928   -2.2695 H   0  0  0  0  0  0  0  0  0  0  0  0
    3.0639    1.0042   -1.2071 H   0  0  0  0  0  0  0  0  0  0  0  0
    1.8710    2.1521   -1.7021 H   0  0  0  0  0  0  0  0  0  0  0  0
    0.4316   -4.4627   -0.3815 N   0  0  0  0  0  0  0  0  0  0  0  0
    0.7218   -5.8714   -0.2611 C   0  0  2  0  0  0  0  0  0  0  0  0
    1.5349   -6.0771    1.0101 C   0  0  0  0  0  0  0  0  0  0  0  0
    2.1891   -5.1816    1.5402 O   0  0  0  0  0  0  0  0  0  0  0  0
    1.4749   -6.3871   -1.4775 C   0  0  0  0  0  0  0  0  0  0  0  0
   -0.5414   -4.1749   -0.4273 H   0  0  0  0  0  0  0  0  0  0  0  0
   -0.2408   -6.3857   -0.1669 H   0  0  0  0  0  0  0  0  0  0  0  0
    2.4421   -5.8834   -1.5884 H   0  0  0  0  0  0  0  0  0  0  0  0
    1.6692   -7.4618   -1.3976 H   0  0  0  0  0  0  0  0  0  0  0  0
    0.9016   -6.2114   -2.3942 H   0  0  0  0  0  0  0  0  0  0  0  0
    1.4788   -7.3892    1.4589 N   0  0  0  0  0  0  0  0  0  0  0  0
    2.1775   -7.8398    2.6399 C   0  0  0  0  0  0  0  0  0  0  0  0
    0.8961   -8.0608    0.9677 H   0  0  0  0  0  0  0  0  0  0  0  0
    3.1658   -8.2301    2.3554 H   0  0  0  0  0  0  0  0  0  0  0  0
    2.3026   -6.9970    3.3356 H   0  0  0  0  0  0  0  0  0  0  0  0
    1.5960   -8.6355    3.1286 H   0  0  0  0  0  0  0  0  0  0  0  0
  1  3  1  0  0  0  0
  1  7  1  0  0  0  0
  1  2  2  0  0  0  0
 21 22  1  0  0  0  0
 22 24  1  0  0  0  0
 22 23  2  0  0  0  0
 32 33  1  0  0  0  0
 33 41  1  0  0  0  0
 33 34  2  0  0  0  0
  8  9  1  0  0  0  0
  9 17  1  0  0  0  0
  9 10  2  0  0  0  0
 18 19  1  0  0  0  0
 19 31  1  0  0  0  0
 19 20  2  0  0  0  0
 32 35  1  0  0  0  0
  8 11  1  0  0  0  0
 41 42  1  0  0  0  0
 18 21  1  0  0  0  0
 31 32  1  0  0  0  0
  7  8  1  0  0  0  0
 17 18  1  0  0  0  0
  3  4  1  0  0  0  0
  3  5  1  0  0  0  0
  3  6  1  0  0  0  0
 35 38  1  0  0  0  0
 35 39  1  0  0  0  0
 35 40  1  0  0  0  0
 11 14  1  0  0  0  0
 11 15  1  0  0  0  0
 11 16  1  0  0  0  0
 42 44  1  0  0  0  0
 42 45  1  0  0  0  0
 42 46  1  0  0  0  0
 21 27  1  0  0  0  0
 21 28  1  0  0  0  0
 32 37  1  0  0  0  0
  8 13  1  0  0  0  0
 18 26  1  0  0  0  0
 24 29  1  0  0  0  0
 24 30  1  0  0  0  0
 41 43  1  0  0  0  0
  7 12  1  0  0  0  0
 31 36  1  0  0  0  0
 17 25  1  0  0  0  0
M  END
$$$$

  -OEChem-05262214473D

 46 45  0     1  0  0  0  0  0999 V2000
   -0.0543    1.9736    3.8406 C   0  0  0  0  0  0  0  0  0  0  0  0
    0.6744    1.6099    4.7562 O   0  0  0  0  0  0  0  0  0  0  0  0
   -0.5599    3.3779    3.8160 C   0  0  0  0  0  0  0  0  0  0  0  0
   -1.5202    3.4885    4.3450 H   0  0  0  0  0  0  0  0  0  0  0  0
    0.1282    4.0814    4.3116 H   0  0  0  0  0  0  0  0  0  0  0  0
   -0.7317    3.7994    2.8126 H   0  0  0  0  0  0  0  0  0  0  0  0
   -0.4812    1.1968    2.7762 N   0  0  0  0  0  0  0  0  0  0  0  0
   -0.1106   -0.1834    2.6051 C   0  0  2  0  0  0  0  0  0  0  0  0
   -0.0696   -0.4775    1.1113 C   0  0  0  0  0  0  0  0  0  0  0  0
   -0.6805    0.1900    0.2792 O   0  0  0  0  0  0  0  0  0  0  0  0
   -1.0852   -1.1101    3.3150 C   0  0  0  0  0  0  0  0  0  0  0  0
   -1.0883    1.6241    2.0791 H   0  0  0  0  0  0  0  0  0  0  0  0
    0.8937   -0.2959    3.0277 H   0  0  0  0  0  0  0  0  0  0  0  0
   -2.0970   -1.0114    2.9051 H   0  0  0  0  0  0  0  0  0  0  0  0
   -0.7860   -2.1580    3.2078 H   0  0  0  0  0  0  0  0  0  0  0  0
   -1.1357   -0.8775    4.3842 H   0  0  0  0  0  0  0  0  0  0  0  0
    0.6950   -1.6003    0.8178 N   0  0  0  0  0  0  0  0  0  0  0  0
    0.8777   -2.0908   -0.5246 C   0  0  2  0  0  0  0  0  0  0  0  0
    1.4352   -3.5052   -0.4251 C   0  0  0  0  0  0  0  0  0  0  0  0
    2.5908   -3.7491   -0.0835 O   0  0  0  0  0  0  0  0  0  0  0  0
    1.8174   -1.1973   -1.3345 C   0  0  0  0  0  0  0  0  0  0  0  0
    1.2124    0.1536   -1.6736 C   0  0  0  0  0  0  0  0  0  0  0  0
    0.0525    0.3152   -2.0410 O   0  0  0  0  0  0  0  0  0  0  0  0
    2.1147    1.1844   -1.5168 N   0  0  0  0  0  0  0  0  0  0  0  0
    1.1810   -2.0803    1.5718 H   0  0  0  0  0  0  0  0  0  0  0  0
   -0.1185   -2.1321   -0.9803 H   0  0  0  0  0  0  0  0  0  0  0  0
    2.7387   -1.0050   -0.7702 H   0  0  0  0  0  0  0  0  0  0  0  0
    2.1088   -1.6928   -2.2695 H   0  0  0  0  0  0  0  0  0  0  0  0
    3.0639    1.0042   -1.2071 H   0  0  0  0  0  0  0  0  0  0  0  0
    1.8710    2.1521   -1.7021 H   0  0  0  0  0  0  0  0  0  0  0  0
    0.4781   -4.4678   -0.7137 N   0  0  0  0  0  0  0  0  0  0  0  0
    0.7710   -5.8799   -0.6579 C   0  0  2  0  0  0  0  0  0  0  0  0
    1.2615   -6.2034    0.7471 C   0  0  0  0  0  0  0  0  0  0  0  0
    1.7440   -5.3599    1.4999 O   0  0  0  0  0  0  0  0  0  0  0  0
    1.8078   -6.2715   -1.6993 C   0  0  0  0  0  0  0  0  0  0  0  0
   -0.4635   -4.1821   -0.9658 H   0  0  0  0  0  0  0  0  0  0  0  0
   -0.1712   -6.4060   -0.8466 H   0  0  0  0  0  0  0  0  0  0  0  0
    2.7587   -5.7543   -1.5266 H   0  0  0  0  0  0  0  0  0  0  0  0
    2.0078   -7.3478   -1.6748 H   0  0  0  0  0  0  0  0  0  0  0  0
    1.4660   -6.0110   -2.7068 H   0  0  0  0  0  0  0  0  0  0  0  0
    1.1370   -7.5531    1.0456 N   0  0  0  0  0  0  0  0  0  0  0  0
    1.5451   -8.1121    2.3132 C   0  0  0  0  0  0  0  0  0  0  0  0
    0.7082   -8.1771    0.3684 H   0  0  0  0  0  0  0  0  0  0  0  0
    2.5834   -8.4677    2.2405 H   0  0  0  0  0  0  0  0  0  0  0  0
    1.4759   -7.3399    3.0936 H   0  0  0  0  0  0  0  0  0  0  0  0
    0.8864   -8.9544    2.5714 H   0  0  0  0  0  0  0  0  0  0  0  0
  1  3  1  0  0  0  0
  1  7  1  0  0  0  0
  1  2  2  0  0  0  0
 21 22  1  0  0  0  0
 22 24  1  0  0  0  0
 22 23  2  0  0  0  0
 32 33  1  0  0  0  0
 33 41  1  0  0  0  0
 33 34  2  0  0  0  0
  8  9  1  0  0  0  0
  9 17  1  0  0  0  0
  9 10  2  0  0  0  0
 18 19  1  0  0  0  0
 19 31  1  0  0  0  0
 19 20  2  0  0  0  0
 32 35  1  0  0  0  0
  8 11  1  0  0  0  0
 41 42  1  0  0  0  0
 18 21  1  0  0  0  0
 31 32  1  0  0  0  0
  7  8  1  0  0  0  0
 17 18  1  0  0  0  0
  3  4  1  0  0  0  0
  3  5  1  0  0  0  0
  3  6  1  0  0  0  0
 35 38  1  0  0  0  0
 35 39  1  0  0  0  0
 35 40  1  0  0  0  0
 11 14  1  0  0  0  0
 11 15  1  0  0  0  0
 11 16  1  0  0  0  0
 42 44  1  0  0  0  0
 42 45  1  0  0  0  0
 42 46  1  0  0  0  0
 21 27  1  0  0  0  0
 21 28  1  0  0  0  0
 32 37  1  0  0  0  0
  8 13  1  0  0  0  0
 18 26  1  0  0  0  0
 24 29  1  0  0  0  0
 24 30  1  0  0  0  0
 41 43  1  0  0  0  0
  7 12  1  0  0  0  0
 31 36  1  0  0  0  0
 17 25  1  0  0  0  0
M  END
$$$$

  -OEChem-05262214473D

 46 45  0     1  0  0  0  0  0999 V2000
   -0.0543    1.9736    3.8406 C   0  0  0  0  0  0  0  0  0  0  0  0
    0.6744    1.6099    4.7562 O   0  0  0  0  0  0  0  0  0  0  0  0
   -0.5599    3.3779    3.8160 C   0  0  0  0  0  0  0  0  0  0  0  0
   -1.5202    3.4885    4.3450 H   0  0  0  0  0  0  0  0  0  0  0  0
    0.1282    4.0814    4.3116 H   0  0  0  0  0  0  0  0  0  0  0  0
   -0.7317    3.7994    2.8126 H   0  0  0  0  0  0  0  0  0  0  0  0
   -0.4812    1.1968    2.7762 N   0  0  0  0  0  0  0  0  0  0  0  0
   -0.1106   -0.1834    2.6051 C   0  0  2  0  0  0  0  0  0  0  0  0
   -0.0696   -0.4775    1.1113 C   0  0  0  0  0  0  0  0  0  0  0  0
   -0.6805    0.1900    0.2792 O   0  0  0  0  0  0  0  0  0  0  0  0
   -1.0852   -1.1101    3.3150 C   0  0  0  0  0  0  0  0  0  0  0  0
   -1.0883    1.6241    2.0791 H   0  0  0  0  0  0  0  0  0  0  0  0
    0.8937   -0.2959    3.0277 H   0  0  0  0  0  0  0  0  0  0  0  0
   -2.0970   -1.0114    2.9051 H   0  0  0  0  0  0  0  0  0  0  0  0
   -0.7860   -2.1580    3.2078 H   0  0  0  0  0  0  0  0  0  0  0  0
   -1.1357   -0.8775    4.3842 H   0  0  0  0  0  0  0  0  0  0  0  0
    0.6950   -1.6003    0.8178 N   0  0  0  0  0  0  0  0  0  0  0  0
    0.8777   -2.0908   -0.5246 C   0  0  2  0  0  0  0  0  0  0  0  0
    1.4352   -3.5052   -0.4251 C   0  0  0  0  0  0  0  0  0  0  0  0
    2.4818   -3.7749    0.1609 O   0  0  0  0  0  0  0  0  0  0  0  0
    1.8174   -1.1973   -1.3345 C   0  0  0  0  0  0  0  0  0  0  0  0
    1.2124    0.1536   -1.6736 C   0  0  0  0  0  0  0  0  0  0  0  0
    0.0525    0.3152   -2.0410 O   0  0  0  0  0  0  0  0  0  0  0  0
    2.1147    1.1844   -1.5168 N   0  0  0  0  0  0  0  0  0  0  0  0
    1.1810   -2.0803    1.5718 H   0  0  0  0  0  0  0  0  0  0  0  0
   -0.1185   -2.1321   -0.9803 H   0  0  0  0  0  0  0  0  0  0  0  0
    2.7387   -1.0050   -0.7702 H   0  0  0  0  0  0  0  0  0  0  0  0
    2.1088   -1.6928   -2.2695 H   0  0  0  0  0  0  0  0  0  0  0  0
    3.0639    1.0042   -1.2071 H   0  0  0  0  0  0  0  0  0  0  0  0
    1.8710    2.1521   -1.7021 H   0  0  0  0  0  0  0  0  0  0  0  0
    0.6028   -4.4404   -1.0238 N   0  0  0  0  0  0  0  0  0  0  0  0
    0.9140   -5.8498   -1.0302 C   0  0  2  0  0  0  0  0  0  0  0  0
    1.0628   -6.3051    0.4155 C   0  0  0  0  0  0  0  0  0  0  0  0
    1.3267   -5.5358    1.3372 O   0  0  0  0  0  0  0  0  0  0  0  0
    2.1807   -6.1332   -1.8225 C   0  0  0  0  0  0  0  0  0  0  0  0
   -0.2587   -4.1367   -1.4680 H   0  0  0  0  0  0  0  0  0  0  0  0
    0.0598   -6.3601   -1.4883 H   0  0  0  0  0  0  0  0  0  0  0  0
    3.0474   -5.6301   -1.3785 H   0  0  0  0  0  0  0  0  0  0  0  0
    2.3996   -7.2057   -1.8504 H   0  0  0  0  0  0  0  0  0  0  0  0
    2.0828   -5.7782   -2.8541 H   0  0  0  0  0  0  0  0  0  0  0  0
    0.9089   -7.6779    0.5488 N   0  0  0  0  0  0  0  0  0  0  0  0
    1.0173   -8.3548    1.8200 C   0  0  0  0  0  0  0  0  0  0  0  0
    0.6727   -8.2357   -0.2666 H   0  0  0  0  0  0  0  0  0  0  0  0
    2.0526   -8.6962    1.9671 H   0  0  0  0  0  0  0  0  0  0  0  0
    0.7413   -7.6622    2.6288 H   0  0  0  0  0  0  0  0  0  0  0  0
    0.3402   -9.2217    1.8326 H   0  0  0  0  0  0  0  0  0  0  0  0
  1  3  1  0  0  0  0
  1  7  1  0  0  0  0
  1  2  2  0  0  0  0
 21 22  1  0  0  0  0
 22 24  1  0  0  0  0
 22 23  2  0  0  0  0
 32 33  1  0  0  0  0
 33 41  1  0  0  0  0
 33 34  2  0  0  0  0
  8  9  1  0  0  0  0
  9 17  1  0  0  0  0
  9 10  2  0  0  0  0
 18 19  1  0  0  0  0
 19 31  1  0  0  0  0
 19 20  2  0  0  0  0
 32 35  1  0  0  0  0
  8 11  1  0  0  0  0
 41 42  1  0  0  0  0
 18 21  1  0  0  0  0
 31 32  1  0  0  0  0
  7  8  1  0  0  0  0
 17 18  1  0  0  0  0
  3  4  1  0  0  0  0
  3  5  1  0  0  0  0
  3  6  1  0  0  0  0
 35 38  1  0  0  0  0
 35 39  1  0  0  0  0
 35 40  1  0  0  0  0
 11 14  1  0  0  0  0
 11 15  1  0  0  0  0
 11 16  1  0  0  0  0
 42 44  1  0  0  0  0
 42 45  1  0  0  0  0
 42 46  1  0  0  0  0
 21 27  1  0  0  0  0
 21 28  1  0  0  0  0
 32 37  1  0  0  0  0
  8 13  1  0  0  0  0
 18 26  1  0  0  0  0
 24 29  1  0  0  0  0
 24 30  1  0  0  0  0
 41 43  1  0  0  0  0
  7 12  1  0  0  0  0
 31 36  1  0  0  0  0
 17 25  1  0  0  0  0
M  END
$$$$

  -OEChem-05262214473D

 46 45  0     1  0  0  0  0  0999 V2000
   -0.0543    1.9736    3.8406 C   0  0  0  0  0  0  0  0  0  0  0  0
    0.6744    1.6099    4.7562 O   0  0  0  0  0  0  0  0  0  0  0  0
   -0.5599    3.3779    3.8160 C   0  0  0  0  0  0  0  0  0  0  0  0
   -1.5202    3.4885    4.3450 H   0  0  0  0  0  0  0  0  0  0  0  0
    0.1282    4.0814    4.3116 H   0  0  0  0  0  0  0  0  0  0  0  0
   -0.7317    3.7994    2.8126 H   0  0  0  0  0  0  0  0  0  0  0  0
   -0.4812    1.1968    2.7762 N   0  0  0  0  0  0  0  0  0  0  0  0
   -0.1106   -0.1834    2.6051 C   0  0  2  0  0  0  0  0  0  0  0  0
   -0.0696   -0.4775    1.1113 C   0  0  0  0  0  0  0  0  0  0  0  0
   -0.6805    0.1900    0.2792 O   0  0  0  0  0  0  0  0  0  0  0  0
   -1.0852   -1.1101    3.3150 C   0  0  0  0  0  0  0  0  0  0  0  0
   -1.0883    1.6241    2.0791 H   0  0  0  0  0  0  0  0  0  0  0  0
    0.8937   -0.2959    3.0277 H   0  0  0  0  0  0  0  0  0  0  0  0
   -2.0970   -1.0114    2.9051 H   0  0  0  0  0  0  0  0  0  0  0  0
   -0.7860   -2.1580    3.2078 H   0  0  0  0  0  0  0  0  0  0  0  0
   -1.1357   -0.8775    4.3842 H   0  0  0  0  0  0  0  0  0  0  0  0
    0.6950   -1.6003    0.8178 N   0  0  0  0  0  0  0  0  0  0  0  0
    0.8777   -2.0908   -0.5246 C   0  0  2  0  0  0  0  0  0  0  0  0
    1.4352   -3.5052   -0.4251 C   0  0  0  0  0  0  0  0  0  0  0  0
    2.3183   -3.8247    0.3683 O   0  0  0  0  0  0  0  0  0  0  0  0
    1.8174   -1.1973   -1.3345 C   0  0  0  0  0  0  0  0  0  0  0  0
    1.2124    0.1536   -1.6736 C   0  0  0  0  0  0  0  0  0  0  0  0
    0.0525    0.3152   -2.0410 O   0  0  0  0  0  0  0  0  0  0  0  0
    2.1147    1.1844   -1.5168 N   0  0  0  0  0  0  0  0  0  0  0  0
    1.1810   -2.0803    1.5718 H   0  0  0  0  0  0  0  0  0  0  0  0
   -0.1185   -2.1321   -0.9803 H   0  0  0  0  0  0  0  0  0  0  0  0
    2.7387   -1.0050   -0.7702 H   0  0  0  0  0  0  0  0  0  0  0  0
    2.1088   -1.6928   -2.2695 H   0  0  0  0  0  0  0  0  0  0  0  0
    3.0639    1.0042   -1.2071 H   0  0  0  0  0  0  0  0  0  0  0  0
    1.8710    2.1521   -1.7021 H   0  0  0  0  0  0  0  0  0  0  0  0
    0.7974   -4.3825   -1.2908 N   0  0  0  0  0  0  0  0  0  0  0  0
    1.1410   -5.7829   -1.3526 C   0  0  2  0  0  0  0  0  0  0  0  0
    0.9522   -6.3752    0.0378 C   0  0  0  0  0  0  0  0  0  0  0  0
    0.9658   -5.6974    1.0632 O   0  0  0  0  0  0  0  0  0  0  0  0
    2.5682   -5.9816   -1.8389 C   0  0  0  0  0  0  0  0  0  0  0  0
    0.0590   -4.0418   -1.8995 H   0  0  0  0  0  0  0  0  0  0  0  0
    0.4362   -6.2511   -2.0484 H   0  0  0  0  0  0  0  0  0  0  0  0
    3.2886   -5.5192   -1.1543 H   0  0  0  0  0  0  0  0  0  0  0  0
    2.8178   -7.0452   -1.9124 H   0  0  0  0  0  0  0  0  0  0  0  0
    2.7100   -5.5289   -2.8262 H   0  0  0  0  0  0  0  0  0  0  0  0
    0.8100   -7.7553    0.0022 N   0  0  0  0  0  0  0  0  0  0  0  0
    0.6301   -8.5515    1.1937 C   0  0  0  0  0  0  0  0  0  0  0  0
    0.7920   -8.2328   -0.8941 H   0  0  0  0  0  0  0  0  0  0  0  0
    1.6094   -8.9000    1.5538 H   0  0  0  0  0  0  0  0  0  0  0  0
    0.1489   -7.9419    1.9727 H   0  0  0  0  0  0  0  0  0  0  0  0
   -0.0053   -9.4191    0.9623 H   0  0  0  0  0  0  0  0  0  0  0  0
  1  3  1  0  0  0  0
  1  7  1  0  0  0  0
  1  2  2  0  0  0  0
 21 22  1  0  0  0  0
 22 24  1  0  0  0  0
 22 23  2  0  0  0  0
 32 33  1  0  0  0  0
 33 41  1  0  0  0  0
 33 34  2  0  0  0  0
  8  9  1  0  0  0  0
  9 17  1  0  0  0  0
  9 10  2  0  0  0  0
 18 19  1  0  0  0  0
 19 31  1  0  0  0  0
 19 20  2  0  0  0  0
 32 35  1  0  0  0  0
  8 11  1  0  0  0  0
 41 42  1  0  0  0  0
 18 21  1  0  0  0  0
 31 32  1  0  0  0  0
  7  8  1  0  0  0  0
 17 18  1  0  0  0  0
  3  4  1  0  0  0  0
  3  5  1  0  0  0  0
  3  6  1  0  0  0  0
 35 38  1  0  0  0  0
 35 39  1  0  0  0  0
 35 40  1  0  0  0  0
 11 14  1  0  0  0  0
 11 15  1  0  0  0  0
 11 16  1  0  0  0  0
 42 44  1  0  0  0  0
 42 45  1  0  0  0  0
 42 46  1  0  0  0  0
 21 27  1  0  0  0  0
 21 28  1  0  0  0  0
 32 37  1  0  0  0  0
  8 13  1  0  0  0  0
 18 26  1  0  0  0  0
 24 29  1  0  0  0  0
 24 30  1  0  0  0  0
 41 43  1  0  0  0  0
  7 12  1  0  0  0  0
 31 36  1  0  0  0  0
 17 25  1  0  0  0  0
M  END
$$$$

  -OEChem-05262214473D

 46 45  0     1  0  0  0  0  0999 V2000
   -0.0543    1.9736    3.8406 C   0  0  0  0  0  0  0  0  0  0  0  0
    0.6744    1.6099    4.7562 O   0  0  0  0  0  0  0  0  0  0  0  0
   -0.5599    3.3779    3.8160 C   0  0  0  0  0  0  0  0  0  0  0  0
   -1.5202    3.4885    4.3450 H   0  0  0  0  0  0  0  0  0  0  0  0
    0.1282    4.0814    4.3116 H   0  0  0  0  0  0  0  0  0  0  0  0
   -0.7317    3.7994    2.8126 H   0  0  0  0  0  0  0  0  0  0  0  0
   -0.4812    1.1968    2.7762 N   0  0  0  0  0  0  0  0  0  0  0  0
   -0.1106   -0.1834    2.6051 C   0  0  2  0  0  0  0  0  0  0  0  0
   -0.0696   -0.4775    1.1113 C   0  0  0  0  0  0  0  0  0  0  0  0
   -0.6805    0.1900    0.2792 O   0  0  0  0  0  0  0  0  0  0  0  0
   -1.0852   -1.1101    3.3150 C   0  0  0  0  0  0  0  0  0  0  0  0
   -1.0883    1.6241    2.0791 H   0  0  0  0  0  0  0  0  0  0  0  0
    0.8937   -0.2959    3.0277 H   0  0  0  0  0  0  0  0  0  0  0  0
   -2.0970   -1.0114    2.9051 H   0  0  0  0  0  0  0  0  0  0  0  0
   -0.7860   -2.1580    3.2078 H   0  0  0  0  0  0  0  0  0  0  0  0
   -1.1357   -0.8775    4.3842 H   0  0  0  0  0  0  0  0  0  0  0  0
    0.6950   -1.6003    0.8178 N   0  0  0  0  0  0  0  0  0  0  0  0
    0.8777   -2.0908   -0.5246 C   0  0  2  0  0  0  0  0  0  0  0  0
    1.4352   -3.5052   -0.4251 C   0  0  0  0  0  0  0  0  0  0  0  0
    2.1114   -3.8953    0.5247 O   0  0  0  0  0  0  0  0  0  0  0  0
    1.8174   -1.1973   -1.3345 C   0  0  0  0  0  0  0  0  0  0  0  0
    1.2124    0.1536   -1.6736 C   0  0  0  0  0  0  0  0  0  0  0  0
    0.0525    0.3152   -2.0410 O   0  0  0  0  0  0  0  0  0  0  0  0
    2.1147    1.1844   -1.5168 N   0  0  0  0  0  0  0  0  0  0  0  0
    1.1810   -2.0803    1.5718 H   0  0  0  0  0  0  0  0  0  0  0  0
   -0.1185   -2.1321   -0.9803 H   0  0  0  0  0  0  0  0  0  0  0  0
    2.7387   -1.0050   -0.7702 H   0  0  0  0  0  0  0  0  0  0  0  0
    2.1088   -1.6928   -2.2695 H   0  0  0  0  0  0  0  0  0  0  0  0
    3.0639    1.0042   -1.2071 H   0  0  0  0  0  0  0  0  0  0  0  0
    1.8710    2.1521   -1.7021 H   0  0  0  0  0  0  0  0  0  0  0  0
    1.0485   -4.2980   -1.4965 N   0  0  0  0  0  0  0  0  0  0  0  0
    1.4366   -5.6840   -1.6031 C   0  0  2  0  0  0  0  0  0  0  0  0
    0.9374   -6.4091   -0.3603 C   0  0  0  0  0  0  0  0  0  0  0  0
    0.6857   -5.8336    0.6964 O   0  0  0  0  0  0  0  0  0  0  0  0
    2.9438   -5.8271   -1.7472 C   0  0  0  0  0  0  0  0  0  0  0  0
    0.4679   -3.9039   -2.2310 H   0  0  0  0  0  0  0  0  0  0  0  0
    0.9326   -6.0864   -2.4886 H   0  0  0  0  0  0  0  0  0  0  0  0
    3.4659   -5.4293   -0.8694 H   0  0  0  0  0  0  0  0  0  0  0  0
    3.2340   -6.8772   -1.8566 H   0  0  0  0  0  0  0  0  0  0  0  0
    3.3050   -5.2802   -2.6249 H   0  0  0  0  0  0  0  0  0  0  0  0
    0.8472   -7.7800   -0.5568 N   0  0  0  0  0  0  0  0  0  0  0  0
    0.4099   -8.6887    0.4772 C   0  0  0  0  0  0  0  0  0  0  0  0
    1.0579   -8.1686   -1.4713 H   0  0  0  0  0  0  0  0  0  0  0  0
    1.2840   -9.0652    1.0288 H   0  0  0  0  0  0  0  0  0  0  0  0
   -0.2610   -8.1599    1.1702 H   0  0  0  0  0  0  0  0  0  0  0  0
   -0.1266   -9.5332    0.0201 H   0  0  0  0  0  0  0  0  0  0  0  0
  1  3  1  0  0  0  0
  1  7  1  0  0  0  0
  1  2  2  0  0  0  0
 21 22  1  0  0  0  0
 22 24  1  0  0  0  0
 22 23  2  0  0  0  0
 32 33  1  0  0  0  0
 33 41  1  0  0  0  0
 33 34  2  0  0  0  0
  8  9  1  0  0  0  0
  9 17  1  0  0  0  0
  9 10  2  0  0  0  0
 18 19  1  0  0  0  0
 19 31  1  0  0  0  0
 19 20  2  0  0  0  0
 32 35  1  0  0  0  0
  8 11  1  0  0  0  0
 41 42  1  0  0  0  0
 18 21  1  0  0  0  0
 31 32  1  0  0  0  0
  7  8  1  0  0  0  0
 17 18  1  0  0  0  0
  3  4  1  0  0  0  0
  3  5  1  0  0  0  0
  3  6  1  0  0  0  0
 35 38  1  0  0  0  0
 35 39  1  0  0  0  0
 35 40  1  0  0  0  0
 11 14  1  0  0  0  0
 11 15  1  0  0  0  0
 11 16  1  0  0  0  0
 42 44  1  0  0  0  0
 42 45  1  0  0  0  0
 42 46  1  0  0  0  0
 21 27  1  0  0  0  0
 21 28  1  0  0  0  0
 32 37  1  0  0  0  0
  8 13  1  0  0  0  0
 18 26  1  0  0  0  0
 24 29  1  0  0  0  0
 24 30  1  0  0  0  0
 41 43  1  0  0  0  0
  7 12  1  0  0  0  0
 31 36  1  0  0  0  0
 17 25  1  0  0  0  0
M  END
$$$$

  -OEChem-05262214473D

 46 45  0     1  0  0  0  0  0999 V2000
   -0.0543    1.9736    3.8406 C   0  0  0  0  0  0  0  0  0  0  0  0
    0.6744    1.6099    4.7562 O   0  0  0  0  0  0  0  0  0  0  0  0
   -0.5599    3.3779    3.8160 C   0  0  0  0  0  0  0  0  0  0  0  0
   -1.5202    3.4885    4.3450 H   0  0  0  0  0  0  0  0  0  0  0  0
    0.1282    4.0814    4.3116 H   0  0  0  0  0  0  0  0  0  0  0  0
   -0.7317    3.7994    2.8126 H   0  0  0  0  0  0  0  0  0  0  0  0
   -0.4812    1.1968    2.7762 N   0  0  0  0  0  0  0  0  0  0  0  0
   -0.1106   -0.1834    2.6051 C   0  0  2  0  0  0  0  0  0  0  0  0
   -0.0696   -0.4775    1.1113 C   0  0  0  0  0  0  0  0  0  0  0  0
   -0.6805    0.1900    0.2792 O   0  0  0  0  0  0  0  0  0  0  0  0
   -1.0852   -1.1101    3.3150 C   0  0  0  0  0  0  0  0  0  0  0  0
   -1.0883    1.6241    2.0791 H   0  0  0  0  0  0  0  0  0  0  0  0
    0.8937   -0.2959    3.0277 H   0  0  0  0  0  0  0  0  0  0  0  0
   -2.0970   -1.0114    2.9051 H   0  0  0  0  0  0  0  0  0  0  0  0
   -0.7860   -2.1580    3.2078 H   0  0  0  0  0  0  0  0  0  0  0  0
   -1.1357   -0.8775    4.3842 H   0  0  0  0  0  0  0  0  0  0  0  0
    0.6950   -1.6003    0.8178 N   0  0  0  0  0  0  0  0  0  0  0  0
    0.8777   -2.0908   -0.5246 C   0  0  2  0  0  0  0  0  0  0  0  0
    1.4352   -3.5052   -0.4251 C   0  0  0  0  0  0  0  0  0  0  0  0
    1.8751   -3.9818    0.6193 O   0  0  0  0  0  0  0  0  0  0  0  0
    1.8174   -1.1973   -1.3345 C   0  0  0  0  0  0  0  0  0  0  0  0
    1.2124    0.1536   -1.6736 C   0  0  0  0  0  0  0  0  0  0  0  0
    0.0525    0.3152   -2.0410 O   0  0  0  0  0  0  0  0  0  0  0  0
    2.1147    1.1844   -1.5168 N   0  0  0  0  0  0  0  0  0  0  0  0
    1.1810   -2.0803    1.5718 H   0  0  0  0  0  0  0  0  0  0  0  0
   -0.1185   -2.1321   -0.9803 H   0  0  0  0  0  0  0  0  0  0  0  0
    2.7387   -1.0050   -0.7702 H   0  0  0  0  0  0  0  0  0  0  0  0
    2.1088   -1.6928   -2.2695 H   0  0  0  0  0  0  0  0  0  0  0  0
    3.0639    1.0042   -1.2071 H   0  0  0  0  0  0  0  0  0  0  0  0
    1.8710    2.1521   -1.7021 H   0  0  0  0  0  0  0  0  0  0  0  0
    1.3391   -4.1926   -1.6268 N   0  0  0  0  0  0  0  0  0  0  0  0
    1.7807   -5.5597   -1.7646 C   0  0  2  0  0  0  0  0  0  0  0  0
    1.0193   -6.4043   -0.7515 C   0  0  0  0  0  0  0  0  0  0  0  0
    0.5055   -5.9352    0.2619 O   0  0  0  0  0  0  0  0  0  0  0  0
    3.2820   -5.6801   -1.5538 C   0  0  0  0  0  0  0  0  0  0  0  0
    0.9403   -3.7324   -2.4398 H   0  0  0  0  0  0  0  0  0  0  0  0
    1.5151   -5.8772   -2.7789 H   0  0  0  0  0  0  0  0  0  0  0  0
    3.5672   -5.3664   -0.5430 H   0  0  0  0  0  0  0  0  0  0  0  0
    3.6197   -6.7132   -1.6868 H   0  0  0  0  0  0  0  0  0  0  0  0
    3.8271   -5.0490   -2.2639 H   0  0  0  0  0  0  0  0  0  0  0  0
    1.0178   -7.7502   -1.0901 N   0  0  0  0  0  0  0  0  0  0  0  0
    0.3718   -8.7571   -0.2809 C   0  0  0  0  0  0  0  0  0  0  0  0
    1.4523   -8.0474   -1.9588 H   0  0  0  0  0  0  0  0  0  0  0  0
    1.0986   -9.1805    0.4279 H   0  0  0  0  0  0  0  0  0  0  0  0
   -0.4604   -8.3014    0.2759 H   0  0  0  0  0  0  0  0  0  0  0  0
   -0.0155   -9.5562   -0.9301 H   0  0  0  0  0  0  0  0  0  0  0  0
  1  3  1  0  0  0  0
  1  7  1  0  0  0  0
  1  2  2  0  0  0  0
 21 22  1  0  0  0  0
 22 24  1  0  0  0  0
 22 23  2  0  0  0  0
 32 33  1  0  0  0  0
 33 41  1  0  0  0  0
 33 34  2  0  0  0  0
  8  9  1  0  0  0  0
  9 17  1  0  0  0  0
  9 10  2  0  0  0  0
 18 19  1  0  0  0  0
 19 31  1  0  0  0  0
 19 20  2  0  0  0  0
 32 35  1  0  0  0  0
  8 11  1  0  0  0  0
 41 42  1  0  0  0  0
 18 21  1  0  0  0  0
 31 32  1  0  0  0  0
  7  8  1  0  0  0  0
 17 18  1  0  0  0  0
  3  4  1  0  0  0  0
  3  5  1  0  0  0  0
  3  6  1  0  0  0  0
 35 38  1  0  0  0  0
 35 39  1  0  0  0  0
 35 40  1  0  0  0  0
 11 14  1  0  0  0  0
 11 15  1  0  0  0  0
 11 16  1  0  0  0  0
 42 44  1  0  0  0  0
 42 45  1  0  0  0  0
 42 46  1  0  0  0  0
 21 27  1  0  0  0  0
 21 28  1  0  0  0  0
 32 37  1  0  0  0  0
  8 13  1  0  0  0  0
 18 26  1  0  0  0  0
 24 29  1  0  0  0  0
 24 30  1  0  0  0  0
 41 43  1  0  0  0  0
  7 12  1  0  0  0  0
 31 36  1  0  0  0  0
 17 25  1  0  0  0  0
M  END
$$$$

  -OEChem-05262214473D

 46 45  0     1  0  0  0  0  0999 V2000
   -0.0543    1.9736    3.8406 C   0  0  0  0  0  0  0  0  0  0  0  0
    0.6744    1.6099    4.7562 O   0  0  0  0  0  0  0  0  0  0  0  0
   -0.5599    3.3779    3.8160 C   0  0  0  0  0  0  0  0  0  0  0  0
   -1.5202    3.4885    4.3450 H   0  0  0  0  0  0  0  0  0  0  0  0
    0.1282    4.0814    4.3116 H   0  0  0  0  0  0  0  0  0  0  0  0
   -0.7317    3.7994    2.8126 H   0  0  0  0  0  0  0  0  0  0  0  0
   -0.4812    1.1968    2.7762 N   0  0  0  0  0  0  0  0  0  0  0  0
   -0.1106   -0.1834    2.6051 C   0  0  2  0  0  0  0  0  0  0  0  0
   -0.0696   -0.4775    1.1113 C   0  0  0  0  0  0  0  0  0  0  0  0
   -0.6805    0.1900    0.2792 O   0  0  0  0  0  0  0  0  0  0  0  0
   -1.0852   -1.1101    3.3150 C   0  0  0  0  0  0  0  0  0  0  0  0
   -1.0883    1.6241    2.0791 H   0  0  0  0  0  0  0  0  0  0  0  0
    0.8937   -0.2959    3.0277 H   0  0  0  0  0  0  0  0  0  0  0  0
   -2.0970   -1.0114    2.9051 H   0  0  0  0  0  0  0  0  0  0  0  0
   -0.7860   -2.1580    3.2078 H   0  0  0  0  0  0  0  0  0  0  0  0
   -1.1357   -0.8775    4.3842 H   0  0  0  0  0  0  0  0  0  0  0  0
    0.6950   -1.6003    0.8178 N   0  0  0  0  0  0  0  0  0  0  0  0
    0.8777   -2.0908   -0.5246 C   0  0  2  0  0  0  0  0  0  0  0  0
    1.0684   -3.6000   -0.4403 C   0  0  0  0  0  0  0  0  0  0  0  0
    1.0163   -4.2256    0.6167 O   0  0  0  0  0  0  0  0  0  0  0  0
    2.0746   -1.4344   -1.2128 C   0  0  0  0  0  0  0  0  0  0  0  0
    1.8450    0.0301   -1.5424 C   0  0  0  0  0  0  0  0  0  0  0  0
    0.7965    0.4763   -1.9986 O   0  0  0  0  0  0  0  0  0  0  0  0
    2.9496    0.8074   -1.2655 N   0  0  0  0  0  0  0  0  0  0  0  0
    1.1810   -2.0803    1.5718 H   0  0  0  0  0  0  0  0  0  0  0  0
   -0.0530   -1.8792   -1.0639 H   0  0  0  0  0  0  0  0  0  0  0  0
    2.9591   -1.4838   -0.5652 H   0  0  0  0  0  0  0  0  0  0  0  0
    2.3237   -1.9651   -2.1407 H   0  0  0  0  0  0  0  0  0  0  0  0
    3.7952    0.3956   -0.8851 H   0  0  0  0  0  0  0  0  0  0  0  0
    2.9631    1.8092   -1.4282 H   0  0  0  0  0  0  0  0  0  0  0  0
    1.2540   -4.1758   -1.6894 N   0  0  0  0  0  0  0  0  0  0  0  0
    1.4295   -5.5983   -1.8586 C   0  0  2  0  0  0  0  0  0  0  0  0
    0.2121   -6.2961   -1.2665 C   0  0  0  0  0  0  0  0  0  0  0  0
   -0.5122   -5.7777   -0.4194 O   0  0  0  0  0  0  0  0  0  0  0  0
    2.7094   -6.0808   -1.1938 C   0  0  0  0  0  0  0  0  0  0  0  0
    1.2608   -3.5890   -2.5185 H   0  0  0  0  0  0  0  0  0  0  0  0
    1.4702   -5.7859   -2.9371 H   0  0  0  0  0  0  0  0  0  0  0  0
    2.6871   -5.9013   -0.1127 H   0  0  0  0  0  0  0  0  0  0  0  0
    2.8556   -7.1551   -1.3474 H   0  0  0  0  0  0  0  0  0  0  0  0
    3.5811   -5.5565   -1.5999 H   0  0  0  0  0  0  0  0  0  0  0  0
    0.0546   -7.5822   -1.7637 N   0  0  0  0  0  0  0  0  0  0  0  0
   -1.0197   -8.4530   -1.3473 C   0  0  0  0  0  0  0  0  0  0  0  0
    0.6915   -7.9234   -2.4778 H   0  0  0  0  0  0  0  0  0  0  0  0
   -0.6825   -9.0755   -0.5054 H   0  0  0  0  0  0  0  0  0  0  0  0
   -1.8819   -7.8467   -1.0325 H   0  0  0  0  0  0  0  0  0  0  0  0
   -1.3136   -9.1000   -2.1869 H   0  0  0  0  0  0  0  0  0  0  0  0
  1  3  1  0  0  0  0
  1  7  1  0  0  0  0
  1  2  2  0  0  0  0
 21 22  1  0  0  0  0
 22 24  1  0  0  0  0
 22 23  2  0  0  0  0
 32 33  1  0  0  0  0
 33 41  1  0  0  0  0
 33 34  2  0  0  0  0
  8  9  1  0  0  0  0
  9 17  1  0  0  0  0
  9 10  2  0  0  0  0
 18 19  1  0  0  0  0
 19 31  1  0  0  0  0
 19 20  2  0  0  0  0
 32 35  1  0  0  0  0
  8 11  1  0  0  0  0
 41 42  1  0  0  0  0
 18 21  1  0  0  0  0
 31 32  1  0  0  0  0
  7  8  1  0  0  0  0
 17 18  1  0  0  0  0
  3  4  1  0  0  0  0
  3  5  1  0  0  0  0
  3  6  1  0  0  0  0
 35 38  1  0  0  0  0
 35 39  1  0  0  0  0
 35 40  1  0  0  0  0
 11 14  1  0  0  0  0
 11 15  1  0  0  0  0
 11 16  1  0  0  0  0
 42 44  1  0  0  0  0
 42 45  1  0  0  0  0
 42 46  1  0  0  0  0
 21 27  1  0  0  0  0
 21 28  1  0  0  0  0
 32 37  1  0  0  0  0
  8 13  1  0  0  0  0
 18 26  1  0  0  0  0
 24 29  1  0  0  0  0
 24 30  1  0  0  0  0
 41 43  1  0  0  0  0
  7 12  1  0  0  0  0
 31 36  1  0  0  0  0
 17 25  1  0  0  0  0
M  END
$$$$

  -OEChem-05262214473D

 46 45  0     1  0  0  0  0  0999 V2000
   -0.0543    1.9736    3.8406 C   0  0  0  0  0  0  0  0  0  0  0  0
    0.6744    1.6099    4.7562 O   0  0  0  0  0  0  0  0  0  0  0  0
   -0.5599    3.3779    3.8160 C   0  0  0  0  0  0  0  0  0  0  0  0
   -1.5202    3.4885    4.3450 H   0  0  0  0  0  0  0  0  0  0  0  0
    0.1282    4.0814    4.3116 H   0  0  0  0  0  0  0  0  0  0  0  0
   -0.7317    3.7994    2.8126 H   0  0  0  0  0  0  0  0  0  0  0  0
   -0.4812    1.1968    2.7762 N   0  0  0  0  0  0  0  0  0  0  0  0
   -0.1106   -0.1834    2.6051 C   0  0  2  0  0  0  0  0  0  0  0  0
   -0.0696   -0.4775    1.1113 C   0  0  0  0  0  0  0  0  0  0  0  0
   -0.6805    0.1900    0.2792 O   0  0  0  0  0  0  0  0  0  0  0  0
   -1.0852   -1.1101    3.3150 C   0  0  0  0  0  0  0  0  0  0  0  0
   -1.0883    1.6241    2.0791 H   0  0  0  0  0  0  0  0  0  0  0  0
    0.8937   -0.2959    3.0277 H   0  0  0  0  0  0  0  0  0  0  0  0
   -2.0970   -1.0114    2.9051 H   0  0  0  0  0  0  0  0  0  0  0  0
   -0.7860   -2.1580    3.2078 H   0  0  0  0  0  0  0  0  0  0  0  0
   -1.1357   -0.8775    4.3842 H   0  0  0  0  0  0  0  0  0  0  0  0
    0.6950   -1.6003    0.8178 N   0  0  0  0  0  0  0  0  0  0  0  0
    0.8777   -2.0908   -0.5246 C   0  0  2  0  0  0  0  0  0  0  0  0
    1.0684   -3.6000   -0.4403 C   0  0  0  0  0  0  0  0  0  0  0  0
    0.7589   -4.2620    0.5484 O   0  0  0  0  0  0  0  0  0  0  0  0
    2.0746   -1.4344   -1.2128 C   0  0  0  0  0  0  0  0  0  0  0  0
    1.8450    0.0301   -1.5424 C   0  0  0  0  0  0  0  0  0  0  0  0
    0.7965    0.4763   -1.9986 O   0  0  0  0  0  0  0  0  0  0  0  0
    2.9496    0.8074   -1.2655 N   0  0  0  0  0  0  0  0  0  0  0  0
    1.1810   -2.0803    1.5718 H   0  0  0  0  0  0  0  0  0  0  0  0
   -0.0530   -1.8792   -1.0639 H   0  0  0  0  0  0  0  0  0  0  0  0
    2.9591   -1.4838   -0.5652 H   0  0  0  0  0  0  0  0  0  0  0  0
    2.3237   -1.9651   -2.1407 H   0  0  0  0  0  0  0  0  0  0  0  0
    3.7952    0.3956   -0.8851 H   0  0  0  0  0  0  0  0  0  0  0  0
    2.9631    1.8092   -1.4282 H   0  0  0  0  0  0  0  0  0  0  0  0
    1.5784   -4.1307   -1.6169 N   0  0  0  0  0  0  0  0  0  0  0  0
    1.8177   -5.5448   -1.7787 C   0  0  2  0  0  0  0  0  0  0  0  0
    0.5024   -6.2747   -1.5405 C   0  0  0  0  0  0  0  0  0  0  0  0
   -0.4242   -5.7930   -0.8922 O   0  0  0  0  0  0  0  0  0  0  0  0
    2.8933   -6.0369   -0.8228 C   0  0  0  0  0  0  0  0  0  0  0  0
    1.7865   -3.5158   -2.3981 H   0  0  0  0  0  0  0  0  0  0  0  0
    2.1368   -5.6949   -2.8159 H   0  0  0  0  0  0  0  0  0  0  0  0
    2.5915   -5.8947    0.2213 H   0  0  0  0  0  0  0  0  0  0  0  0
    3.0939   -7.1037   -0.9665 H   0  0  0  0  0  0  0  0  0  0  0  0
    3.8301   -5.4901   -0.9754 H   0  0  0  0  0  0  0  0  0  0  0  0
    0.5014   -7.5446   -2.1005 N   0  0  0  0  0  0  0  0  0  0  0  0
   -0.6275   -8.4399   -2.0005 C   0  0  0  0  0  0  0  0  0  0  0  0
    1.3061   -7.8546   -2.6373 H   0  0  0  0  0  0  0  0  0  0  0  0
   -0.5056   -9.0874   -1.1197 H   0  0  0  0  0  0  0  0  0  0  0  0
   -1.5525   -7.8534   -1.8991 H   0  0  0  0  0  0  0  0  0  0  0  0
   -0.6843   -9.0607   -2.9068 H   0  0  0  0  0  0  0  0  0  0  0  0
  1  3  1  0  0  0  0
  1  7  1  0  0  0  0
  1  2  2  0  0  0  0
 21 22  1  0  0  0  0
 22 24  1  0  0  0  0
 22 23  2  0  0  0  0
 32 33  1  0  0  0  0
 33 41  1  0  0  0  0
 33 34  2  0  0  0  0
  8  9  1  0  0  0  0
  9 17  1  0  0  0  0
  9 10  2  0  0  0  0
 18 19  1  0  0  0  0
 19 31  1  0  0  0  0
 19 20  2  0  0  0  0
 32 35  1  0  0  0  0
  8 11  1  0  0  0  0
 41 42  1  0  0  0  0
 18 21  1  0  0  0  0
 31 32  1  0  0  0  0
  7  8  1  0  0  0  0
 17 18  1  0  0  0  0
  3  4  1  0  0  0  0
  3  5  1  0  0  0  0
  3  6  1  0  0  0  0
 35 38  1  0  0  0  0
 35 39  1  0  0  0  0
 35 40  1  0  0  0  0
 11 14  1  0  0  0  0
 11 15  1  0  0  0  0
 11 16  1  0  0  0  0
 42 44  1  0  0  0  0
 42 45  1  0  0  0  0
 42 46  1  0  0  0  0
 21 27  1  0  0  0  0
 21 28  1  0  0  0  0
 32 37  1  0  0  0  0
  8 13  1  0  0  0  0
 18 26  1  0  0  0  0
 24 29  1  0  0  0  0
 24 30  1  0  0  0  0
 41 43  1  0  0  0  0
  7 12  1  0  0  0  0
 31 36  1  0  0  0  0
 17 25  1  0  0  0  0
M  END
$$$$

  -OEChem-05262214473D

 46 45  0     1  0  0  0  0  0999 V2000
   -0.0543    1.9736    3.8406 C   0  0  0  0  0  0  0  0  0  0  0  0
    0.6744    1.6099    4.7562 O   0  0  0  0  0  0  0  0  0  0  0  0
   -0.5599    3.3779    3.8160 C   0  0  0  0  0  0  0  0  0  0  0  0
   -1.5202    3.4885    4.3450 H   0  0  0  0  0  0  0  0  0  0  0  0
    0.1282    4.0814    4.3116 H   0  0  0  0  0  0  0  0  0  0  0  0
   -0.7317    3.7994    2.8126 H   0  0  0  0  0  0  0  0  0  0  0  0
   -0.4812    1.1968    2.7762 N   0  0  0  0  0  0  0  0  0  0  0  0
   -0.1106   -0.1834    2.6051 C   0  0  2  0  0  0  0  0  0  0  0  0
   -0.0696   -0.4775    1.1113 C   0  0  0  0  0  0  0  0  0  0  0  0
   -0.6805    0.1900    0.2792 O   0  0  0  0  0  0  0  0  0  0  0  0
   -1.0852   -1.1101    3.3150 C   0  0  0  0  0  0  0  0  0  0  0  0
   -1.0883    1.6241    2.0791 H   0  0  0  0  0  0  0  0  0  0  0  0
    0.8937   -0.2959    3.0277 H   0  0  0  0  0  0  0  0  0  0  0  0
   -2.0970   -1.0114    2.9051 H   0  0  0  0  0  0  0  0  0  0  0  0
   -0.7860   -2.1580    3.2078 H   0  0  0  0  0  0  0  0  0  0  0  0
   -1.1357   -0.8775    4.3842 H   0  0  0  0  0  0  0  0  0  0  0  0
    0.6950   -1.6003    0.8178 N   0  0  0  0  0  0  0  0  0  0  0  0
    0.8777   -2.0908   -0.5246 C   0  0  2  0  0  0  0  0  0  0  0  0
    1.0684   -3.6000   -0.4403 C   0  0  0  0  0  0  0  0  0  0  0  0
    0.5283   -4.2985    0.4151 O   0  0  0  0  0  0  0  0  0  0  0  0
    2.0746   -1.4344   -1.2128 C   0  0  0  0  0  0  0  0  0  0  0  0
    1.8450    0.0301   -1.5424 C   0  0  0  0  0  0  0  0  0  0  0  0
    0.7965    0.4763   -1.9986 O   0  0  0  0  0  0  0  0  0  0  0  0
    2.9496    0.8074   -1.2655 N   0  0  0  0  0  0  0  0  0  0  0  0
    1.1810   -2.0803    1.5718 H   0  0  0  0  0  0  0  0  0  0  0  0
   -0.0530   -1.8792   -1.0639 H   0  0  0  0  0  0  0  0  0  0  0  0
    2.9591   -1.4838   -0.5652 H   0  0  0  0  0  0  0  0  0  0  0  0
    2.3237   -1.9651   -2.1407 H   0  0  0  0  0  0  0  0  0  0  0  0
    3.7952    0.3956   -0.8851 H   0  0  0  0  0  0  0  0  0  0  0  0
    2.9631    1.8092   -1.4282 H   0  0  0  0  0  0  0  0  0  0  0  0
    1.8725   -4.0849   -1.4622 N   0  0  0  0  0  0  0  0  0  0  0  0
    2.1715   -5.4901   -1.6003 C   0  0  2  0  0  0  0  0  0  0  0  0
    0.8528   -6.2410   -1.7301 C   0  0  0  0  0  0  0  0  0  0  0  0
   -0.2178   -5.7911   -1.3268 O   0  0  0  0  0  0  0  0  0  0  0  0
    2.9752   -6.0038   -0.4159 C   0  0  0  0  0  0  0  0  0  0  0  0
    2.2623   -3.4416   -2.1448 H   0  0  0  0  0  0  0  0  0  0  0  0
    2.7482   -5.6014   -2.5250 H   0  0  0  0  0  0  0  0  0  0  0  0
    2.4135   -5.9006    0.5196 H   0  0  0  0  0  0  0  0  0  0  0  0
    3.2257   -7.0630   -0.5358 H   0  0  0  0  0  0  0  0  0  0  0  0
    3.9096   -5.4428   -0.3062 H   0  0  0  0  0  0  0  0  0  0  0  0
    1.0188   -7.4909   -2.3101 N   0  0  0  0  0  0  0  0  0  0  0  0
   -0.0812   -8.4004   -2.5305 C   0  0  0  0  0  0  0  0  0  0  0  0
    1.9398   -7.7742   -2.6316 H   0  0  0  0  0  0  0  0  0  0  0  0
   -0.1771   -9.0765   -1.6681 H   0  0  0  0  0  0  0  0  0  0  0  0
   -1.0121   -7.8271   -2.6520 H   0  0  0  0  0  0  0  0  0  0  0  0
    0.1074   -8.9904   -3.4395 H   0  0  0  0  0  0  0  0  0  0  0  0
  1  3  1  0  0  0  0
  1  7  1  0  0  0  0
  1  2  2  0  0  0  0
 21 22  1  0  0  0  0
 22 24  1  0  0  0  0
 22 23  2  0  0  0  0
 32 33  1  0  0  0  0
 33 41  1  0  0  0  0
 33 34  2  0  0  0  0
  8  9  1  0  0  0  0
  9 17  1  0  0  0  0
  9 10  2  0  0  0  0
 18 19  1  0  0  0  0
 19 31  1  0  0  0  0
 19 20  2  0  0  0  0
 32 35  1  0  0  0  0
  8 11  1  0  0  0  0
 41 42  1  0  0  0  0
 18 21  1  0  0  0  0
 31 32  1  0  0  0  0
  7  8  1  0  0  0  0
 17 18  1  0  0  0  0
  3  4  1  0  0  0  0
  3  5  1  0  0  0  0
  3  6  1  0  0  0  0
 35 38  1  0  0  0  0
 35 39  1  0  0  0  0
 35 40  1  0  0  0  0
 11 14  1  0  0  0  0
 11 15  1  0  0  0  0
 11 16  1  0  0  0  0
 42 44  1  0  0  0  0
 42 45  1  0  0  0  0
 42 46  1  0  0  0  0
 21 27  1  0  0  0  0
 21 28  1  0  0  0  0
 32 37  1  0  0  0  0
  8 13  1  0  0  0  0
 18 26  1  0  0  0  0
 24 29  1  0  0  0  0
 24 30  1  0  0  0  0
 41 43  1  0  0  0  0
  7 12  1  0  0  0  0
 31 36  1  0  0  0  0
 17 25  1  0  0  0  0
M  END
$$$$

  -OEChem-05262214473D

 46 45  0     1  0  0  0  0  0999 V2000
   -0.0543    1.9736    3.8406 C   0  0  0  0  0  0  0  0  0  0  0  0
    0.6744    1.6099    4.7562 O   0  0  0  0  0  0  0  0  0  0  0  0
   -0.5599    3.3779    3.8160 C   0  0  0  0  0  0  0  0  0  0  0  0
   -1.5202    3.4885    4.3450 H   0  0  0  0  0  0  0  0  0  0  0  0
    0.1282    4.0814    4.3116 H   0  0  0  0  0  0  0  0  0  0  0  0
   -0.7317    3.7994    2.8126 H   0  0  0  0  0  0  0  0  0  0  0  0
   -0.4812    1.1968    2.7762 N   0  0  0  0  0  0  0  0  0  0  0  0
   -0.1106   -0.1834    2.6051 C   0  0  2  0  0  0  0  0  0  0  0  0
   -0.0696   -0.4775    1.1113 C   0  0  0  0  0  0  0  0  0  0  0  0
   -0.6805    0.1900    0.2792 O   0  0  0  0  0  0  0  0  0  0  0  0
   -1.0852   -1.1101    3.3150 C   0  0  0  0  0  0  0  0  0  0  0  0
   -1.0883    1.6241    2.0791 H   0  0  0  0  0  0  0  0  0  0  0  0
    0.8937   -0.2959    3.0277 H   0  0  0  0  0  0  0  0  0  0  0  0
   -2.0970   -1.0114    2.9051 H   0  0  0  0  0  0  0  0  0  0  0  0
   -0.7860   -2.1580    3.2078 H   0  0  0  0  0  0  0  0  0  0  0  0
   -1.1357   -0.8775    4.3842 H   0  0  0  0  0  0  0  0  0  0  0  0
    0.6950   -1.6003    0.8178 N   0  0  0  0  0  0  0  0  0  0  0  0
    0.8777   -2.0908   -0.5246 C   0  0  2  0  0  0  0  0  0  0  0  0
    1.0684   -3.6000   -0.4403 C   0  0  0  0  0  0  0  0  0  0  0  0
    0.3402   -4.3329    0.2262 O   0  0  0  0  0  0  0  0  0  0  0  0
    2.0746   -1.4344   -1.2128 C   0  0  0  0  0  0  0  0  0  0  0  0
    1.8450    0.0301   -1.5424 C   0  0  0  0  0  0  0  0  0  0  0  0
    0.7965    0.4763   -1.9986 O   0  0  0  0  0  0  0  0  0  0  0  0
    2.9496    0.8074   -1.2655 N   0  0  0  0  0  0  0  0  0  0  0  0
    1.1810   -2.0803    1.5718 H   0  0  0  0  0  0  0  0  0  0  0  0
   -0.0530   -1.8792   -1.0639 H   0  0  0  0  0  0  0  0  0  0  0  0
    2.9591   -1.4838   -0.5652 H   0  0  0  0  0  0  0  0  0  0  0  0
    2.3237   -1.9651   -2.1407 H   0  0  0  0  0  0  0  0  0  0  0  0
    3.7952    0.3956   -0.8851 H   0  0  0  0  0  0  0  0  0  0  0  0
    2.9631    1.8092   -1.4282 H   0  0  0  0  0  0  0  0  0  0  0  0
    2.1162   -4.0415   -1.2360 N   0  0  0  0  0  0  0  0  0  0  0  0
    2.4666   -5.4381   -1.3356 C   0  0  2  0  0  0  0  0  0  0  0  0
    1.2393   -6.1973   -1.8222 C   0  0  0  0  0  0  0  0  0  0  0  0
    0.0931   -5.7723   -1.6937 O   0  0  0  0  0  0  0  0  0  0  0  0
    2.9496   -5.9839   -0.0008 C   0  0  0  0  0  0  0  0  0  0  0  0
    2.6559   -3.3712   -1.7757 H   0  0  0  0  0  0  0  0  0  0  0  0
    3.2630   -5.5117   -2.0842 H   0  0  0  0  0  0  0  0  0  0  0  0
    2.1651   -5.9184    0.7620 H   0  0  0  0  0  0  0  0  0  0  0  0
    3.2420   -7.0358   -0.0847 H   0  0  0  0  0  0  0  0  0  0  0  0
    3.8141   -5.4175    0.3621 H   0  0  0  0  0  0  0  0  0  0  0  0
    1.5715   -7.4248   -2.3781 N   0  0  0  0  0  0  0  0  0  0  0  0
    0.5817   -8.3373   -2.9010 C   0  0  0  0  0  0  0  0  0  0  0  0
    2.5492   -7.6877   -2.4610 H   0  0  0  0  0  0  0  0  0  0  0  0
    0.2806   -9.0435   -2.1132 H   0  0  0  0  0  0  0  0  0  0  0  0
   -0.2975   -7.7696   -3.2399 H   0  0  0  0  0  0  0  0  0  0  0  0
    1.0078   -8.8939   -3.7488 H   0  0  0  0  0  0  0  0  0  0  0  0
  1  3  1  0  0  0  0
  1  7  1  0  0  0  0
  1  2  2  0  0  0  0
 21 22  1  0  0  0  0
 22 24  1  0  0  0  0
 22 23  2  0  0  0  0
 32 33  1  0  0  0  0
 33 41  1  0  0  0  0
 33 34  2  0  0  0  0
  8  9  1  0  0  0  0
  9 17  1  0  0  0  0
  9 10  2  0  0  0  0
 18 19  1  0  0  0  0
 19 31  1  0  0  0  0
 19 20  2  0  0  0  0
 32 35  1  0  0  0  0
  8 11  1  0  0  0  0
 41 42  1  0  0  0  0
 18 21  1  0  0  0  0
 31 32  1  0  0  0  0
  7  8  1  0  0  0  0
 17 18  1  0  0  0  0
  3  4  1  0  0  0  0
  3  5  1  0  0  0  0
  3  6  1  0  0  0  0
 35 38  1  0  0  0  0
 35 39  1  0  0  0  0
 35 40  1  0  0  0  0
 11 14  1  0  0  0  0
 11 15  1  0  0  0  0
 11 16  1  0  0  0  0
 42 44  1  0  0  0  0
 42 45  1  0  0  0  0
 42 46  1  0  0  0  0
 21 27  1  0  0  0  0
 21 28  1  0  0  0  0
 32 37  1  0  0  0  0
  8 13  1  0  0  0  0
 18 26  1  0  0  0  0
 24 29  1  0  0  0  0
 24 30  1  0  0  0  0
 41 43  1  0  0  0  0
  7 12  1  0  0  0  0
 31 36  1  0  0  0  0
 17 25  1  0  0  0  0
M  END
$$$$

  -OEChem-05262214473D

 46 45  0     1  0  0  0  0  0999 V2000
   -0.0543    1.9736    3.8406 C   0  0  0  0  0  0  0  0  0  0  0  0
    0.6744    1.6099    4.7562 O   0  0  0  0  0  0  0  0  0  0  0  0
   -0.5599    3.3779    3.8160 C   0  0  0  0  0  0  0  0  0  0  0  0
   -1.5202    3.4885    4.3450 H   0  0  0  0  0  0  0  0  0  0  0  0
    0.1282    4.0814    4.3116 H   0  0  0  0  0  0  0  0  0  0  0  0
   -0.7317    3.7994    2.8126 H   0  0  0  0  0  0  0  0  0  0  0  0
   -0.4812    1.1968    2.7762 N   0  0  0  0  0  0  0  0  0  0  0  0
   -0.1106   -0.1834    2.6051 C   0  0  2  0  0  0  0  0  0  0  0  0
   -0.0696   -0.4775    1.1113 C   0  0  0  0  0  0  0  0  0  0  0  0
   -0.6805    0.1900    0.2792 O   0  0  0  0  0  0  0  0  0  0  0  0
   -1.0852   -1.1101    3.3150 C   0  0  0  0  0  0  0  0  0  0  0  0
   -1.0883    1.6241    2.0791 H   0  0  0  0  0  0  0  0  0  0  0  0
    0.8937   -0.2959    3.0277 H   0  0  0  0  0  0  0  0  0  0  0  0
   -2.0970   -1.0114    2.9051 H   0  0  0  0  0  0  0  0  0  0  0  0
   -0.7860   -2.1580    3.2078 H   0  0  0  0  0  0  0  0  0  0  0  0
   -1.1357   -0.8775    4.3842 H   0  0  0  0  0  0  0  0  0  0  0  0
    0.6950   -1.6003    0.8178 N   0  0  0  0  0  0  0  0  0  0  0  0
    0.8777   -2.0908   -0.5246 C   0  0  2  0  0  0  0  0  0  0  0  0
    1.0684   -3.6000   -0.4403 C   0  0  0  0  0  0  0  0  0  0  0  0
    0.2075   -4.3626   -0.0057 O   0  0  0  0  0  0  0  0  0  0  0  0
    2.0746   -1.4344   -1.2128 C   0  0  0  0  0  0  0  0  0  0  0  0
    1.8450    0.0301   -1.5424 C   0  0  0  0  0  0  0  0  0  0  0  0
    0.7965    0.4763   -1.9986 O   0  0  0  0  0  0  0  0  0  0  0  0
    2.9496    0.8074   -1.2655 N   0  0  0  0  0  0  0  0  0  0  0  0
    1.1810   -2.0803    1.5718 H   0  0  0  0  0  0  0  0  0  0  0  0
   -0.0530   -1.8792   -1.0639 H   0  0  0  0  0  0  0  0  0  0  0  0
    2.9591   -1.4838   -0.5652 H   0  0  0  0  0  0  0  0  0  0  0  0
    2.3237   -1.9651   -2.1407 H   0  0  0  0  0  0  0  0  0  0  0  0
    3.7952    0.3956   -0.8851 H   0  0  0  0  0  0  0  0  0  0  0  0
    2.9631    1.8092   -1.4282 H   0  0  0  0  0  0  0  0  0  0  0  0
    2.2931   -4.0034   -0.9535 N   0  0  0  0  0  0  0  0  0  0  0  0
    2.6831   -5.3921   -1.0024 C   0  0  2  0  0  0  0  0  0  0  0  0
    1.6357   -6.1466   -1.8107 C   0  0  0  0  0  0  0  0  0  0  0  0
    0.4871   -5.7378   -1.9677 O   0  0  0  0  0  0  0  0  0  0  0  0
    2.8181   -5.9785    0.3942 C   0  0  0  0  0  0  0  0  0  0  0  0
    2.9405   -3.3096   -1.3159 H   0  0  0  0  0  0  0  0  0  0  0  0
    3.6459   -5.4321   -1.5235 H   0  0  0  0  0  0  0  0  0  0  0  0
    1.8633   -5.9471    0.9318 H   0  0  0  0  0  0  0  0  0  0  0  0
    3.1417   -7.0239    0.3561 H   0  0  0  0  0  0  0  0  0  0  0  0
    3.5501   -5.4162    0.9839 H   0  0  0  0  0  0  0  0  0  0  0  0
    2.1219   -7.3509   -2.2999 N   0  0  0  0  0  0  0  0  0  0  0  0
    1.3161   -8.2549   -3.0870 C   0  0  0  0  0  0  0  0  0  0  0  0
    3.0929   -7.6009   -2.1371 H   0  0  0  0  0  0  0  0  0  0  0  0
    0.8365   -8.9907   -2.4247 H   0  0  0  0  0  0  0  0  0  0  0  0
    0.5427   -7.6848   -3.6226 H   0  0  0  0  0  0  0  0  0  0  0  0
    1.9554   -8.7777   -3.8136 H   0  0  0  0  0  0  0  0  0  0  0  0
  1  3  1  0  0  0  0
  1  7  1  0  0  0  0
  1  2  2  0  0  0  0
 21 22  1  0  0  0  0
 22 24  1  0  0  0  0
 22 23  2  0  0  0  0
 32 33  1  0  0  0  0
 33 41  1  0  0  0  0
 33 34  2  0  0  0  0
  8  9  1  0  0  0  0
  9 17  1  0  0  0  0
  9 10  2  0  0  0  0
 18 19  1  0  0  0  0
 19 31  1  0  0  0  0
 19 20  2  0  0  0  0
 32 35  1  0  0  0  0
  8 11  1  0  0  0  0
 41 42  1  0  0  0  0
 18 21  1  0  0  0  0
 31 32  1  0  0  0  0
  7  8  1  0  0  0  0
 17 18  1  0  0  0  0
  3  4  1  0  0  0  0
  3  5  1  0  0  0  0
  3  6  1  0  0  0  0
 35 38  1  0  0  0  0
 35 39  1  0  0  0  0
 35 40  1  0  0  0  0
 11 14  1  0  0  0  0
 11 15  1  0  0  0  0
 11 16  1  0  0  0  0
 42 44  1  0  0  0  0
 42 45  1  0  0  0  0
 42 46  1  0  0  0  0
 21 27  1  0  0  0  0
 21 28  1  0  0  0  0
 32 37  1  0  0  0  0
  8 13  1  0  0  0  0
 18 26  1  0  0  0  0
 24 29  1  0  0  0  0
 24 30  1  0  0  0  0
 41 43  1  0  0  0  0
  7 12  1  0  0  0  0
 31 36  1  0  0  0  0
 17 25  1  0  0  0  0
M  END
$$$$

  -OEChem-05262214473D

 46 45  0     1  0  0  0  0  0999 V2000
   -0.0543    1.9736    3.8406 C   0  0  0  0  0  0  0  0  0  0  0  0
    0.6744    1.6099    4.7562 O   0  0  0  0  0  0  0  0  0  0  0  0
   -0.5599    3.3779    3.8160 C   0  0  0  0  0  0  0  0  0  0  0  0
   -1.5202    3.4885    4.3450 H   0  0  0  0  0  0  0  0  0  0  0  0
    0.1282    4.0814    4.3116 H   0  0  0  0  0  0  0  0  0  0  0  0
   -0.7317    3.7994    2.8126 H   0  0  0  0  0  0  0  0  0  0  0  0
   -0.4812    1.1968    2.7762 N   0  0  0  0  0  0  0  0  0  0  0  0
   -0.1106   -0.1834    2.6051 C   0  0  2  0  0  0  0  0  0  0  0  0
   -0.0696   -0.4775    1.1113 C   0  0  0  0  0  0  0  0  0  0  0  0
   -0.6805    0.1900    0.2792 O   0  0  0  0  0  0  0  0  0  0  0  0
   -1.0852   -1.1101    3.3150 C   0  0  0  0  0  0  0  0  0  0  0  0
   -1.0883    1.6241    2.0791 H   0  0  0  0  0  0  0  0  0  0  0  0
    0.8937   -0.2959    3.0277 H   0  0  0  0  0  0  0  0  0  0  0  0
   -2.0970   -1.0114    2.9051 H   0  0  0  0  0  0  0  0  0  0  0  0
   -0.7860   -2.1580    3.2078 H   0  0  0  0  0  0  0  0  0  0  0  0
   -1.1357   -0.8775    4.3842 H   0  0  0  0  0  0  0  0  0  0  0  0
    0.6950   -1.6003    0.8178 N   0  0  0  0  0  0  0  0  0  0  0  0
    0.8777   -2.0908   -0.5246 C   0  0  2  0  0  0  0  0  0  0  0  0
    1.0684   -3.6000   -0.4403 C   0  0  0  0  0  0  0  0  0  0  0  0
    0.1392   -4.3857   -0.2647 O   0  0  0  0  0  0  0  0  0  0  0  0
    2.0746   -1.4344   -1.2128 C   0  0  0  0  0  0  0  0  0  0  0  0
    1.8450    0.0301   -1.5424 C   0  0  0  0  0  0  0  0  0  0  0  0
    0.7965    0.4763   -1.9986 O   0  0  0  0  0  0  0  0  0  0  0  0
    2.9496    0.8074   -1.2655 N   0  0  0  0  0  0  0  0  0  0  0  0
    1.1810   -2.0803    1.5718 H   0  0  0  0  0  0  0  0  0  0  0  0
   -0.0530   -1.8792   -1.0639 H   0  0  0  0  0  0  0  0  0  0  0  0
    2.9591   -1.4838   -0.5652 H   0  0  0  0  0  0  0  0  0  0  0  0
    2.3237   -1.9651   -2.1407 H   0  0  0  0  0  0  0  0  0  0  0  0
    3.7952    0.3956   -0.8851 H   0  0  0  0  0  0  0  0  0  0  0  0
    2.9631    1.8092   -1.4282 H   0  0  0  0  0  0  0  0  0  0  0  0
    2.3909   -3.9732   -0.6341 N   0  0  0  0  0  0  0  0  0  0  0  0
    2.8061   -5.3554   -0.6237 C   0  0  2  0  0  0  0  0  0  0  0  0
    2.0149   -6.0923   -1.6963 C   0  0  0  0  0  0  0  0  0  0  0  0
    0.9374   -5.6900   -2.1303 O   0  0  0  0  0  0  0  0  0  0  0  0
    2.5897   -5.9879    0.7423 C   0  0  0  0  0  0  0  0  0  0  0  0
    3.0966   -3.2609   -0.7969 H   0  0  0  0  0  0  0  0  0  0  0  0
    3.8708   -5.3678   -0.8812 H   0  0  0  0  0  0  0  0  0  0  0  0
    1.5287   -5.9846    1.0175 H   0  0  0  0  0  0  0  0  0  0  0  0
    2.9316   -7.0281    0.7565 H   0  0  0  0  0  0  0  0  0  0  0  0
    3.1357   -5.4388    1.5169 H   0  0  0  0  0  0  0  0  0  0  0  0
    2.6324   -7.2742   -2.0809 N   0  0  0  0  0  0  0  0  0  0  0  0
    2.0720   -8.1588   -3.0756 C   0  0  0  0  0  0  0  0  0  0  0  0
    3.5337   -7.5198   -1.6821 H   0  0  0  0  0  0  0  0  0  0  0  0
    1.4524   -8.9216   -2.5814 H   0  0  0  0  0  0  0  0  0  0  0  0
    1.4512   -7.5785   -3.7741 H   0  0  0  0  0  0  0  0  0  0  0  0
    2.8857   -8.6499   -3.6295 H   0  0  0  0  0  0  0  0  0  0  0  0
  1  3  1  0  0  0  0
  1  7  1  0  0  0  0
  1  2  2  0  0  0  0
 21 22  1  0  0  0  0
 22 24  1  0  0  0  0
 22 23  2  0  0  0  0
 32 33  1  0  0  0  0
 33 41  1  0  0  0  0
 33 34  2  0  0  0  0
  8  9  1  0  0  0  0
  9 17  1  0  0  0  0
  9 10  2  0  0  0  0
 18 19  1  0  0  0  0
 19 31  1  0  0  0  0
 19 20  2  0  0  0  0
 32 35  1  0  0  0  0
  8 11  1  0  0  0  0
 41 42  1  0  0  0  0
 18 21  1  0  0  0  0
 31 32  1  0  0  0  0
  7  8  1  0  0  0  0
 17 18  1  0  0  0  0
  3  4  1  0  0  0  0
  3  5  1  0  0  0  0
  3  6  1  0  0  0  0
 35 38  1  0  0  0  0
 35 39  1  0  0  0  0
 35 40  1  0  0  0  0
 11 14  1  0  0  0  0
 11 15  1  0  0  0  0
 11 16  1  0  0  0  0
 42 44  1  0  0  0  0
 42 45  1  0  0  0  0
 42 46  1  0  0  0  0
 21 27  1  0  0  0  0
 21 28  1  0  0  0  0
 32 37  1  0  0  0  0
  8 13  1  0  0  0  0
 18 26  1  0  0  0  0
 24 29  1  0  0  0  0
 24 30  1  0  0  0  0
 41 43  1  0  0  0  0
  7 12  1  0  0  0  0
 31 36  1  0  0  0  0
 17 25  1  0  0  0  0
M  END
$$$$

  -OEChem-05262214473D

 46 45  0     1  0  0  0  0  0999 V2000
   -0.0543    1.9736    3.8406 C   0  0  0  0  0  0  0  0  0  0  0  0
    0.6744    1.6099    4.7562 O   0  0  0  0  0  0  0  0  0  0  0  0
   -0.5599    3.3779    3.8160 C   0  0  0  0  0  0  0  0  0  0  0  0
   -1.5202    3.4885    4.3450 H   0  0  0  0  0  0  0  0  0  0  0  0
    0.1282    4.0814    4.3116 H   0  0  0  0  0  0  0  0  0  0  0  0
   -0.7317    3.7994    2.8126 H   0  0  0  0  0  0  0  0  0  0  0  0
   -0.4812    1.1968    2.7762 N   0  0  0  0  0  0  0  0  0  0  0  0
   -0.1106   -0.1834    2.6051 C   0  0  2  0  0  0  0  0  0  0  0  0
   -0.0696   -0.4775    1.1113 C   0  0  0  0  0  0  0  0  0  0  0  0
   -0.6805    0.1900    0.2792 O   0  0  0  0  0  0  0  0  0  0  0  0
   -1.0852   -1.1101    3.3150 C   0  0  0  0  0  0  0  0  0  0  0  0
   -1.0883    1.6241    2.0791 H   0  0  0  0  0  0  0  0  0  0  0  0
    0.8937   -0.2959    3.0277 H   0  0  0  0  0  0  0  0  0  0  0  0
   -2.0970   -1.0114    2.9051 H   0  0  0  0  0  0  0  0  0  0  0  0
   -0.7860   -2.1580    3.2078 H   0  0  0  0  0  0  0  0  0  0  0  0
   -1.1357   -0.8775    4.3842 H   0  0  0  0  0  0  0  0  0  0  0  0
    0.6950   -1.6003    0.8178 N   0  0  0  0  0  0  0  0  0  0  0  0
    0.8777   -2.0908   -0.5246 C   0  0  2  0  0  0  0  0  0  0  0  0
    1.0684   -3.6000   -0.4403 C   0  0  0  0  0  0  0  0  0  0  0  0
    0.1399   -4.4006   -0.5331 O   0  0  0  0  0  0  0  0  0  0  0  0
    2.0746   -1.4344   -1.2128 C   0  0  0  0  0  0  0  0  0  0  0  0
    1.8450    0.0301   -1.5424 C   0  0  0  0  0  0  0  0  0  0  0  0
    0.7965    0.4763   -1.9986 O   0  0  0  0  0  0  0  0  0  0  0  0
    2.9496    0.8074   -1.2655 N   0  0  0  0  0  0  0  0  0  0  0  0
    1.1810   -2.0803    1.5718 H   0  0  0  0  0  0  0  0  0  0  0  0
   -0.0530   -1.8792   -1.0639 H   0  0  0  0  0  0  0  0  0  0  0  0
    2.9591   -1.4838   -0.5652 H   0  0  0  0  0  0  0  0  0  0  0  0
    2.3237   -1.9651   -2.1407 H   0  0  0  0  0  0  0  0  0  0  0  0
    3.7952    0.3956   -0.8851 H   0  0  0  0  0  0  0  0  0  0  0  0
    2.9631    1.8092   -1.4282 H   0  0  0  0  0  0  0  0  0  0  0  0
    2.4031   -3.9530   -0.2996 N   0  0  0  0  0  0  0  0  0  0  0  0
    2.8274   -5.3305   -0.2251 C   0  0  2  0  0  0  0  0  0  0  0  0
    2.3511   -6.0381   -1.4868 C   0  0  0  0  0  0  0  0  0  0  0  0
    1.4134   -5.6321   -2.1703 O   0  0  0  0  0  0  0  0  0  0  0  0
    2.2800   -6.0116    1.0196 C   0  0  0  0  0  0  0  0  0  0  0  0
    3.1136   -3.2285   -0.2539 H   0  0  0  0  0  0  0  0  0  0  0  0
    3.9225   -5.3233   -0.2011 H   0  0  0  0  0  0  0  0  0  0  0  0
    1.1840   -6.0284    1.0133 H   0  0  0  0  0  0  0  0  0  0  0  0
    2.6260   -7.0481    1.0893 H   0  0  0  0  0  0  0  0  0  0  0  0
    2.5991   -5.4838    1.9248 H   0  0  0  0  0  0  0  0  0  0  0  0
    3.0683   -7.1999   -1.7360 N   0  0  0  0  0  0  0  0  0  0  0  0
    2.7979   -8.0554   -2.8678 C   0  0  0  0  0  0  0  0  0  0  0  0
    3.8418   -7.4499   -1.1270 H   0  0  0  0  0  0  0  0  0  0  0  0
    2.0866   -8.8409   -2.5726 H   0  0  0  0  0  0  0  0  0  0  0  0
    2.3660   -7.4578   -3.6841 H   0  0  0  0  0  0  0  0  0  0  0  0
    3.7352   -8.5191   -3.2090 H   0  0  0  0  0  0  0  0  0  0  0  0
  1  3  1  0  0  0  0
  1  7  1  0  0  0  0
  1  2  2  0  0  0  0
 21 22  1  0  0  0  0
 22 24  1  0  0  0  0
 22 23  2  0  0  0  0
 32 33  1  0  0  0  0
 33 41  1  0  0  0  0
 33 34  2  0  0  0  0
  8  9  1  0  0  0  0
  9 17  1  0  0  0  0
  9 10  2  0  0  0  0
 18 19  1  0  0  0  0
 19 31  1  0  0  0  0
 19 20  2  0  0  0  0
 32 35  1  0  0  0  0
  8 11  1  0  0  0  0
 41 42  1  0  0  0  0
 18 21  1  0  0  0  0
 31 32  1  0  0  0  0
  7  8  1  0  0  0  0
 17 18  1  0  0  0  0
  3  4  1  0  0  0  0
  3  5  1  0  0  0  0
  3  6  1  0  0  0  0
 35 38  1  0  0  0  0
 35 39  1  0  0  0  0
 35 40  1  0  0  0  0
 11 14  1  0  0  0  0
 11 15  1  0  0  0  0
 11 16  1  0  0  0  0
 42 44  1  0  0  0  0
 42 45  1  0  0  0  0
 42 46  1  0  0  0  0
 21 27  1  0  0  0  0
 21 28  1  0  0  0  0
 32 37  1  0  0  0  0
  8 13  1  0  0  0  0
 18 26  1  0  0  0  0
 24 29  1  0  0  0  0
 24 30  1  0  0  0  0
 41 43  1  0  0  0  0
  7 12  1  0  0  0  0
 31 36  1  0  0  0  0
 17 25  1  0  0  0  0
M  END
$$$$

  -OEChem-05262214473D

 46 45  0     1  0  0  0  0  0999 V2000
   -0.0543    1.9736    3.8406 C   0  0  0  0  0  0  0  0  0  0  0  0
    0.6744    1.6099    4.7562 O   0  0  0  0  0  0  0  0  0  0  0  0
   -0.5599    3.3779    3.8160 C   0  0  0  0  0  0  0  0  0  0  0  0
   -1.5202    3.4885    4.3450 H   0  0  0  0  0  0  0  0  0  0  0  0
    0.1282    4.0814    4.3116 H   0  0  0  0  0  0  0  0  0  0  0  0
   -0.7317    3.7994    2.8126 H   0  0  0  0  0  0  0  0  0  0  0  0
   -0.4812    1.1968    2.7762 N   0  0  0  0  0  0  0  0  0  0  0  0
   -0.1106   -0.1834    2.6051 C   0  0  2  0  0  0  0  0  0  0  0  0
   -0.0696   -0.4775    1.1113 C   0  0  0  0  0  0  0  0  0  0  0  0
   -0.6805    0.1900    0.2792 O   0  0  0  0  0  0  0  0  0  0  0  0
   -1.0852   -1.1101    3.3150 C   0  0  0  0  0  0  0  0  0  0  0  0
   -1.0883    1.6241    2.0791 H   0  0  0  0  0  0  0  0  0  0  0  0
    0.8937   -0.2959    3.0277 H   0  0  0  0  0  0  0  0  0  0  0  0
   -2.0970   -1.0114    2.9051 H   0  0  0  0  0  0  0  0  0  0  0  0
   -0.7860   -2.1580    3.2078 H   0  0  0  0  0  0  0  0  0  0  0  0
   -1.1357   -0.8775    4.3842 H   0  0  0  0  0  0  0  0  0  0  0  0
    0.6950   -1.6003    0.8178 N   0  0  0  0  0  0  0  0  0  0  0  0
    0.8777   -2.0908   -0.5246 C   0  0  2  0  0  0  0  0  0  0  0  0
    1.0684   -3.6000   -0.4403 C   0  0  0  0  0  0  0  0  0  0  0  0
    0.2097   -4.4062   -0.7926 O   0  0  0  0  0  0  0  0  0  0  0  0
    2.0746   -1.4344   -1.2128 C   0  0  0  0  0  0  0  0  0  0  0  0
    1.8450    0.0301   -1.5424 C   0  0  0  0  0  0  0  0  0  0  0  0
    0.7965    0.4763   -1.9986 O   0  0  0  0  0  0  0  0  0  0  0  0
    2.9496    0.8074   -1.2655 N   0  0  0  0  0  0  0  0  0  0  0  0
    1.1810   -2.0803    1.5718 H   0  0  0  0  0  0  0  0  0  0  0  0
   -0.0530   -1.8792   -1.0639 H   0  0  0  0  0  0  0  0  0  0  0  0
    2.9591   -1.4838   -0.5652 H   0  0  0  0  0  0  0  0  0  0  0  0
    2.3237   -1.9651   -2.1407 H   0  0  0  0  0  0  0  0  0  0  0  0
    3.7952    0.3956   -0.8851 H   0  0  0  0  0  0  0  0  0  0  0  0
    2.9631    1.8092   -1.4282 H   0  0  0  0  0  0  0  0  0  0  0  0
    2.3288   -3.9441    0.0274 N   0  0  0  0  0  0  0  0  0  0  0  0
    2.7453   -5.3190    0.1661 C   0  0  2  0  0  0  0  0  0  0  0  0
    2.6213   -5.9878   -1.1966 C   0  0  0  0  0  0  0  0  0  0  0  0
    1.8827   -5.5680   -2.0850 O   0  0  0  0  0  0  0  0  0  0  0  0
    1.9101   -6.0478    1.2073 C   0  0  0  0  0  0  0  0  0  0  0  0
    2.9904   -3.2145    0.2759 H   0  0  0  0  0  0  0  0  0  0  0  0
    3.7975   -5.3016    0.4706 H   0  0  0  0  0  0  0  0  0  0  0  0
    0.8528   -6.0755    0.9195 H   0  0  0  0  0  0  0  0  0  0  0  0
    2.2459   -7.0826    1.3318 H   0  0  0  0  0  0  0  0  0  0  0  0
    1.9769   -5.5482    2.1798 H   0  0  0  0  0  0  0  0  0  0  0  0
    3.3998   -7.1330   -1.2887 N   0  0  0  0  0  0  0  0  0  0  0  0
    3.4442   -7.9520   -2.4775 C   0  0  0  0  0  0  0  0  0  0  0  0
    3.9960   -7.3959   -0.5095 H   0  0  0  0  0  0  0  0  0  0  0  0
    2.6958   -8.7543   -2.3989 H   0  0  0  0  0  0  0  0  0  0  0  0
    3.2249   -7.3311   -3.3587 H   0  0  0  0  0  0  0  0  0  0  0  0
    4.4461   -8.3942   -2.5808 H   0  0  0  0  0  0  0  0  0  0  0  0
  1  3  1  0  0  0  0
  1  7  1  0  0  0  0
  1  2  2  0  0  0  0
 21 22  1  0  0  0  0
 22 24  1  0  0  0  0
 22 23  2  0  0  0  0
 32 33  1  0  0  0  0
 33 41  1  0  0  0  0
 33 34  2  0  0  0  0
  8  9  1  0  0  0  0
  9 17  1  0  0  0  0
  9 10  2  0  0  0  0
 18 19  1  0  0  0  0
 19 31  1  0  0  0  0
 19 20  2  0  0  0  0
 32 35  1  0  0  0  0
  8 11  1  0  0  0  0
 41 42  1  0  0  0  0
 18 21  1  0  0  0  0
 31 32  1  0  0  0  0
  7  8  1  0  0  0  0
 17 18  1  0  0  0  0
  3  4  1  0  0  0  0
  3  5  1  0  0  0  0
  3  6  1  0  0  0  0
 35 38  1  0  0  0  0
 35 39  1  0  0  0  0
 35 40  1  0  0  0  0
 11 14  1  0  0  0  0
 11 15  1  0  0  0  0
 11 16  1  0  0  0  0
 42 44  1  0  0  0  0
 42 45  1  0  0  0  0
 42 46  1  0  0  0  0
 21 27  1  0  0  0  0
 21 28  1  0  0  0  0
 32 37  1  0  0  0  0
  8 13  1  0  0  0  0
 18 26  1  0  0  0  0
 24 29  1  0  0  0  0
 24 30  1  0  0  0  0
 41 43  1  0  0  0  0
  7 12  1  0  0  0  0
 31 36  1  0  0  0  0
 17 25  1  0  0  0  0
M  END
$$$$

  -OEChem-05262214473D

 46 45  0     1  0  0  0  0  0999 V2000
   -0.0543    1.9736    3.8406 C   0  0  0  0  0  0  0  0  0  0  0  0
    0.6744    1.6099    4.7562 O   0  0  0  0  0  0  0  0  0  0  0  0
   -0.5599    3.3779    3.8160 C   0  0  0  0  0  0  0  0  0  0  0  0
   -1.5202    3.4885    4.3450 H   0  0  0  0  0  0  0  0  0  0  0  0
    0.1282    4.0814    4.3116 H   0  0  0  0  0  0  0  0  0  0  0  0
   -0.7317    3.7994    2.8126 H   0  0  0  0  0  0  0  0  0  0  0  0
   -0.4812    1.1968    2.7762 N   0  0  0  0  0  0  0  0  0  0  0  0
   -0.1106   -0.1834    2.6051 C   0  0  2  0  0  0  0  0  0  0  0  0
   -0.0696   -0.4775    1.1113 C   0  0  0  0  0  0  0  0  0  0  0  0
   -0.6805    0.1900    0.2792 O   0  0  0  0  0  0  0  0  0  0  0  0
   -1.0852   -1.1101    3.3150 C   0  0  0  0  0  0  0  0  0  0  0  0
   -1.0883    1.6241    2.0791 H   0  0  0  0  0  0  0  0  0  0  0  0
    0.8937   -0.2959    3.0277 H   0  0  0  0  0  0  0  0  0  0  0  0
   -2.0970   -1.0114    2.9051 H   0  0  0  0  0  0  0  0  0  0  0  0
   -0.7860   -2.1580    3.2078 H   0  0  0  0  0  0  0  0  0  0  0  0
   -1.1357   -0.8775    4.3842 H   0  0  0  0  0  0  0  0  0  0  0  0
    0.6950   -1.6003    0.8178 N   0  0  0  0  0  0  0  0  0  0  0  0
    0.8777   -2.0908   -0.5246 C   0  0  2  0  0  0  0  0  0  0  0  0
    1.0684   -3.6000   -0.4403 C   0  0  0  0  0  0  0  0  0  0  0  0
    0.3436   -4.4023   -1.0256 O   0  0  0  0  0  0  0  0  0  0  0  0
    2.0746   -1.4344   -1.2128 C   0  0  0  0  0  0  0  0  0  0  0  0
    1.8450    0.0301   -1.5424 C   0  0  0  0  0  0  0  0  0  0  0  0
    0.7965    0.4763   -1.9986 O   0  0  0  0  0  0  0  0  0  0  0  0
    2.9496    0.8074   -1.2655 N   0  0  0  0  0  0  0  0  0  0  0  0
    1.1810   -2.0803    1.5718 H   0  0  0  0  0  0  0  0  0  0  0  0
   -0.0530   -1.8792   -1.0639 H   0  0  0  0  0  0  0  0  0  0  0  0
    2.9591   -1.4838   -0.5652 H   0  0  0  0  0  0  0  0  0  0  0  0
    2.3237   -1.9651   -2.1407 H   0  0  0  0  0  0  0  0  0  0  0  0
    3.7952    0.3956   -0.8851 H   0  0  0  0  0  0  0  0  0  0  0  0
    2.9631    1.8092   -1.4282 H   0  0  0  0  0  0  0  0  0  0  0  0
    2.1731   -3.9472    0.3245 N   0  0  0  0  0  0  0  0  0  0  0  0
    2.5656   -5.3218    0.5234 C   0  0  2  0  0  0  0  0  0  0  0  0
    2.8072   -5.9447   -0.8453 C   0  0  0  0  0  0  0  0  0  0  0  0
    2.3131   -5.5022   -1.8803 O   0  0  0  0  0  0  0  0  0  0  0  0
    1.5052   -6.0942    1.2926 C   0  0  0  0  0  0  0  0  0  0  0  0
    2.7353   -3.2199    0.7566 H   0  0  0  0  0  0  0  0  0  0  0  0
    3.5041   -5.3042    1.0881 H   0  0  0  0  0  0  0  0  0  0  0  0
    0.5576   -6.1226    0.7424 H   0  0  0  0  0  0  0  0  0  0  0  0
    1.8170   -7.1292    1.4675 H   0  0  0  0  0  0  0  0  0  0  0  0
    1.3114   -5.6276    2.2644 H   0  0  0  0  0  0  0  0  0  0  0  0
    3.6044   -7.0782   -0.7695 N   0  0  0  0  0  0  0  0  0  0  0  0
    3.9670   -7.8554   -1.9315 C   0  0  0  0  0  0  0  0  0  0  0  0
    3.9859   -7.3616    0.1282 H   0  0  0  0  0  0  0  0  0  0  0  0
    3.2384   -8.6674   -2.0721 H   0  0  0  0  0  0  0  0  0  0  0  0
    3.9692   -7.2070   -2.8201 H   0  0  0  0  0  0  0  0  0  0  0  0
    4.9700   -8.2837   -1.7876 H   0  0  0  0  0  0  0  0  0  0  0  0
  1  3  1  0  0  0  0
  1  7  1  0  0  0  0
  1  2  2  0  0  0  0
 21 22  1  0  0  0  0
 22 24  1  0  0  0  0
 22 23  2  0  0  0  0
 32 33  1  0  0  0  0
 33 41  1  0  0  0  0
 33 34  2  0  0  0  0
  8  9  1  0  0  0  0
  9 17  1  0  0  0  0
  9 10  2  0  0  0  0
 18 19  1  0  0  0  0
 19 31  1  0  0  0  0
 19 20  2  0  0  0  0
 32 35  1  0  0  0  0
  8 11  1  0  0  0  0
 41 42  1  0  0  0  0
 18 21  1  0  0  0  0
 31 32  1  0  0  0  0
  7  8  1  0  0  0  0
 17 18  1  0  0  0  0
  3  4  1  0  0  0  0
  3  5  1  0  0  0  0
  3  6  1  0  0  0  0
 35 38  1  0  0  0  0
 35 39  1  0  0  0  0
 35 40  1  0  0  0  0
 11 14  1  0  0  0  0
 11 15  1  0  0  0  0
 11 16  1  0  0  0  0
 42 44  1  0  0  0  0
 42 45  1  0  0  0  0
 42 46  1  0  0  0  0
 21 27  1  0  0  0  0
 21 28  1  0  0  0  0
 32 37  1  0  0  0  0
  8 13  1  0  0  0  0
 18 26  1  0  0  0  0
 24 29  1  0  0  0  0
 24 30  1  0  0  0  0
 41 43  1  0  0  0  0
  7 12  1  0  0  0  0
 31 36  1  0  0  0  0
 17 25  1  0  0  0  0
M  END
$$$$

  -OEChem-05262214473D

 46 45  0     1  0  0  0  0  0999 V2000
   -0.0543    1.9736    3.8406 C   0  0  0  0  0  0  0  0  0  0  0  0
    0.6744    1.6099    4.7562 O   0  0  0  0  0  0  0  0  0  0  0  0
   -0.5599    3.3779    3.8160 C   0  0  0  0  0  0  0  0  0  0  0  0
   -1.5202    3.4885    4.3450 H   0  0  0  0  0  0  0  0  0  0  0  0
    0.1282    4.0814    4.3116 H   0  0  0  0  0  0  0  0  0  0  0  0
   -0.7317    3.7994    2.8126 H   0  0  0  0  0  0  0  0  0  0  0  0
   -0.4812    1.1968    2.7762 N   0  0  0  0  0  0  0  0  0  0  0  0
   -0.1106   -0.1834    2.6051 C   0  0  2  0  0  0  0  0  0  0  0  0
   -0.0696   -0.4775    1.1113 C   0  0  0  0  0  0  0  0  0  0  0  0
   -0.6805    0.1900    0.2792 O   0  0  0  0  0  0  0  0  0  0  0  0
   -1.0852   -1.1101    3.3150 C   0  0  0  0  0  0  0  0  0  0  0  0
   -1.0883    1.6241    2.0791 H   0  0  0  0  0  0  0  0  0  0  0  0
    0.8937   -0.2959    3.0277 H   0  0  0  0  0  0  0  0  0  0  0  0
   -2.0970   -1.0114    2.9051 H   0  0  0  0  0  0  0  0  0  0  0  0
   -0.7860   -2.1580    3.2078 H   0  0  0  0  0  0  0  0  0  0  0  0
   -1.1357   -0.8775    4.3842 H   0  0  0  0  0  0  0  0  0  0  0  0
    0.6950   -1.6003    0.8178 N   0  0  0  0  0  0  0  0  0  0  0  0
    0.8777   -2.0908   -0.5246 C   0  0  2  0  0  0  0  0  0  0  0  0
    1.0684   -3.6000   -0.4403 C   0  0  0  0  0  0  0  0  0  0  0  0
    0.5327   -4.3890   -1.2162 O   0  0  0  0  0  0  0  0  0  0  0  0
    2.0746   -1.4344   -1.2128 C   0  0  0  0  0  0  0  0  0  0  0  0
    1.8450    0.0301   -1.5424 C   0  0  0  0  0  0  0  0  0  0  0  0
    0.7965    0.4763   -1.9986 O   0  0  0  0  0  0  0  0  0  0  0  0
    2.9496    0.8074   -1.2655 N   0  0  0  0  0  0  0  0  0  0  0  0
    1.1810   -2.0803    1.5718 H   0  0  0  0  0  0  0  0  0  0  0  0
   -0.0530   -1.8792   -1.0639 H   0  0  0  0  0  0  0  0  0  0  0  0
    2.9591   -1.4838   -0.5652 H   0  0  0  0  0  0  0  0  0  0  0  0
    2.3237   -1.9651   -2.1407 H   0  0  0  0  0  0  0  0  0  0  0  0
    3.7952    0.3956   -0.8851 H   0  0  0  0  0  0  0  0  0  0  0  0
    2.9631    1.8092   -1.4282 H   0  0  0  0  0  0  0  0  0  0  0  0
    1.9466   -3.9621    0.5714 N   0  0  0  0  0  0  0  0  0  0  0  0
    2.3004   -5.3386    0.8223 C   0  0  2  0  0  0  0  0  0  0  0  0
    2.8960   -5.9118   -0.4569 C   0  0  0  0  0  0  0  0  0  0  0  0
    2.6754   -5.4391   -1.5700 O   0  0  0  0  0  0  0  0  0  0  0  0
    1.0929   -6.1476    1.2697 C   0  0  0  0  0  0  0  0  0  0  0  0
    2.3657   -3.2443    1.1553 H   0  0  0  0  0  0  0  0  0  0  0  0
    3.0625   -5.3309    1.6092 H   0  0  0  0  0  0  0  0  0  0  0  0
    0.3186   -6.1667    0.4941 H   0  0  0  0  0  0  0  0  0  0  0  0
    1.3686   -7.1848    1.4870 H   0  0  0  0  0  0  0  0  0  0  0  0
    0.6480   -5.7166    2.1730 H   0  0  0  0  0  0  0  0  0  0  0  0
    3.6681   -7.0391   -0.2137 N   0  0  0  0  0  0  0  0  0  0  0  0
    4.3306   -7.7724   -1.2669 C   0  0  0  0  0  0  0  0  0  0  0  0
    3.8121   -7.3493    0.7428 H   0  0  0  0  0  0  0  0  0  0  0  0
    3.6776   -8.5864   -1.6145 H   0  0  0  0  0  0  0  0  0  0  0  0
    4.5484   -7.0939   -2.1050 H   0  0  0  0  0  0  0  0  0  0  0  0
    5.2710   -8.1952   -0.8836 H   0  0  0  0  0  0  0  0  0  0  0  0
  1  3  1  0  0  0  0
  1  7  1  0  0  0  0
  1  2  2  0  0  0  0
 21 22  1  0  0  0  0
 22 24  1  0  0  0  0
 22 23  2  0  0  0  0
 32 33  1  0  0  0  0
 33 41  1  0  0  0  0
 33 34  2  0  0  0  0
  8  9  1  0  0  0  0
  9 17  1  0  0  0  0
  9 10  2  0  0  0  0
 18 19  1  0  0  0  0
 19 31  1  0  0  0  0
 19 20  2  0  0  0  0
 32 35  1  0  0  0  0
  8 11  1  0  0  0  0
 41 42  1  0  0  0  0
 18 21  1  0  0  0  0
 31 32  1  0  0  0  0
  7  8  1  0  0  0  0
 17 18  1  0  0  0  0
  3  4  1  0  0  0  0
  3  5  1  0  0  0  0
  3  6  1  0  0  0  0
 35 38  1  0  0  0  0
 35 39  1  0  0  0  0
 35 40  1  0  0  0  0
 11 14  1  0  0  0  0
 11 15  1  0  0  0  0
 11 16  1  0  0  0  0
 42 44  1  0  0  0  0
 42 45  1  0  0  0  0
 42 46  1  0  0  0  0
 21 27  1  0  0  0  0
 21 28  1  0  0  0  0
 32 37  1  0  0  0  0
  8 13  1  0  0  0  0
 18 26  1  0  0  0  0
 24 29  1  0  0  0  0
 24 30  1  0  0  0  0
 41 43  1  0  0  0  0
  7 12  1  0  0  0  0
 31 36  1  0  0  0  0
 17 25  1  0  0  0  0
M  END
$$$$

  -OEChem-05262214473D

 46 45  0     1  0  0  0  0  0999 V2000
   -0.0543    1.9736    3.8406 C   0  0  0  0  0  0  0  0  0  0  0  0
    0.6744    1.6099    4.7562 O   0  0  0  0  0  0  0  0  0  0  0  0
   -0.5599    3.3779    3.8160 C   0  0  0  0  0  0  0  0  0  0  0  0
   -1.5202    3.4885    4.3450 H   0  0  0  0  0  0  0  0  0  0  0  0
    0.1282    4.0814    4.3116 H   0  0  0  0  0  0  0  0  0  0  0  0
   -0.7317    3.7994    2.8126 H   0  0  0  0  0  0  0  0  0  0  0  0
   -0.4812    1.1968    2.7762 N   0  0  0  0  0  0  0  0  0  0  0  0
   -0.1106   -0.1834    2.6051 C   0  0  2  0  0  0  0  0  0  0  0  0
   -0.0696   -0.4775    1.1113 C   0  0  0  0  0  0  0  0  0  0  0  0
   -0.6805    0.1900    0.2792 O   0  0  0  0  0  0  0  0  0  0  0  0
   -1.0852   -1.1101    3.3150 C   0  0  0  0  0  0  0  0  0  0  0  0
   -1.0883    1.6241    2.0791 H   0  0  0  0  0  0  0  0  0  0  0  0
    0.8937   -0.2959    3.0277 H   0  0  0  0  0  0  0  0  0  0  0  0
   -2.0970   -1.0114    2.9051 H   0  0  0  0  0  0  0  0  0  0  0  0
   -0.7860   -2.1580    3.2078 H   0  0  0  0  0  0  0  0  0  0  0  0
   -1.1357   -0.8775    4.3842 H   0  0  0  0  0  0  0  0  0  0  0  0
    0.6950   -1.6003    0.8178 N   0  0  0  0  0  0  0  0  0  0  0  0
    0.8777   -2.0908   -0.5246 C   0  0  2  0  0  0  0  0  0  0  0  0
    1.0684   -3.6000   -0.4403 C   0  0  0  0  0  0  0  0  0  0  0  0
    0.7641   -4.3674   -1.3514 O   0  0  0  0  0  0  0  0  0  0  0  0
    2.0746   -1.4344   -1.2128 C   0  0  0  0  0  0  0  0  0  0  0  0
    1.8450    0.0301   -1.5424 C   0  0  0  0  0  0  0  0  0  0  0  0
    0.7965    0.4763   -1.9986 O   0  0  0  0  0  0  0  0  0  0  0  0
    2.9496    0.8074   -1.2655 N   0  0  0  0  0  0  0  0  0  0  0  0
    1.1810   -2.0803    1.5718 H   0  0  0  0  0  0  0  0  0  0  0  0
   -0.0530   -1.8792   -1.0639 H   0  0  0  0  0  0  0  0  0  0  0  0
    2.9591   -1.4838   -0.5652 H   0  0  0  0  0  0  0  0  0  0  0  0
    2.3237   -1.9651   -2.1407 H   0  0  0  0  0  0  0  0  0  0  0  0
    3.7952    0.3956   -0.8851 H   0  0  0  0  0  0  0  0  0  0  0  0
    2.9631    1.8092   -1.4282 H   0  0  0  0  0  0  0  0  0  0  0  0
    1.6647   -3.9876    0.7514 N   0  0  0  0  0  0  0  0  0  0  0  0
    1.9679   -5.3684    1.0425 C   0  0  2  0  0  0  0  0  0  0  0  0
    2.8818   -5.8913   -0.0579 C   0  0  0  0  0  0  0  0  0  0  0  0
    2.9450   -5.3830   -1.1754 O   0  0  0  0  0  0  0  0  0  0  0  0
    0.7013   -6.2043    1.1401 C   0  0  0  0  0  0  0  0  0  0  0  0
    1.9069   -3.2861    1.4449 H   0  0  0  0  0  0  0  0  0  0  0  0
    2.5027   -5.3800    1.9984 H   0  0  0  0  0  0  0  0  0  0  0  0
    0.1519   -6.2047    0.1916 H   0  0  0  0  0  0  0  0  0  0  0  0
    0.9313   -7.2455    1.3891 H   0  0  0  0  0  0  0  0  0  0  0  0
    0.0319   -5.8090    1.9117 H   0  0  0  0  0  0  0  0  0  0  0  0
    3.5866   -7.0185    0.3407 N   0  0  0  0  0  0  0  0  0  0  0  0
    4.5103   -7.7085   -0.5291 C   0  0  0  0  0  0  0  0  0  0  0  0
    3.4865   -7.3597    1.2922 H   0  0  0  0  0  0  0  0  0  0  0  0
    3.9832   -8.5167   -1.0573 H   0  0  0  0  0  0  0  0  0  0  0  0
    4.9228   -6.9996   -1.2621 H   0  0  0  0  0  0  0  0  0  0  0  0
    5.3288   -8.1347    0.0696 H   0  0  0  0  0  0  0  0  0  0  0  0
  1  3  1  0  0  0  0
  1  7  1  0  0  0  0
  1  2  2  0  0  0  0
 21 22  1  0  0  0  0
 22 24  1  0  0  0  0
 22 23  2  0  0  0  0
 32 33  1  0  0  0  0
 33 41  1  0  0  0  0
 33 34  2  0  0  0  0
  8  9  1  0  0  0  0
  9 17  1  0  0  0  0
  9 10  2  0  0  0  0
 18 19  1  0  0  0  0
 19 31  1  0  0  0  0
 19 20  2  0  0  0  0
 32 35  1  0  0  0  0
  8 11  1  0  0  0  0
 41 42  1  0  0  0  0
 18 21  1  0  0  0  0
 31 32  1  0  0  0  0
  7  8  1  0  0  0  0
 17 18  1  0  0  0  0
  3  4  1  0  0  0  0
  3  5  1  0  0  0  0
  3  6  1  0  0  0  0
 35 38  1  0  0  0  0
 35 39  1  0  0  0  0
 35 40  1  0  0  0  0
 11 14  1  0  0  0  0
 11 15  1  0  0  0  0
 11 16  1  0  0  0  0
 42 44  1  0  0  0  0
 42 45  1  0  0  0  0
 42 46  1  0  0  0  0
 21 27  1  0  0  0  0
 21 28  1  0  0  0  0
 32 37  1  0  0  0  0
  8 13  1  0  0  0  0
 18 26  1  0  0  0  0
 24 29  1  0  0  0  0
 24 30  1  0  0  0  0
 41 43  1  0  0  0  0
  7 12  1  0  0  0  0
 31 36  1  0  0  0  0
 17 25  1  0  0  0  0
M  END
$$$$

  -OEChem-05262214473D

 46 45  0     1  0  0  0  0  0999 V2000
   -0.0543    1.9736    3.8406 C   0  0  0  0  0  0  0  0  0  0  0  0
    0.6744    1.6099    4.7562 O   0  0  0  0  0  0  0  0  0  0  0  0
   -0.5599    3.3779    3.8160 C   0  0  0  0  0  0  0  0  0  0  0  0
   -1.5202    3.4885    4.3450 H   0  0  0  0  0  0  0  0  0  0  0  0
    0.1282    4.0814    4.3116 H   0  0  0  0  0  0  0  0  0  0  0  0
   -0.7317    3.7994    2.8126 H   0  0  0  0  0  0  0  0  0  0  0  0
   -0.4812    1.1968    2.7762 N   0  0  0  0  0  0  0  0  0  0  0  0
   -0.1106   -0.1834    2.6051 C   0  0  2  0  0  0  0  0  0  0  0  0
   -0.0696   -0.4775    1.1113 C   0  0  0  0  0  0  0  0  0  0  0  0
   -0.6805    0.1900    0.2792 O   0  0  0  0  0  0  0  0  0  0  0  0
   -1.0852   -1.1101    3.3150 C   0  0  0  0  0  0  0  0  0  0  0  0
   -1.0883    1.6241    2.0791 H   0  0  0  0  0  0  0  0  0  0  0  0
    0.8937   -0.2959    3.0277 H   0  0  0  0  0  0  0  0  0  0  0  0
   -2.0970   -1.0114    2.9051 H   0  0  0  0  0  0  0  0  0  0  0  0
   -0.7860   -2.1580    3.2078 H   0  0  0  0  0  0  0  0  0  0  0  0
   -1.1357   -0.8775    4.3842 H   0  0  0  0  0  0  0  0  0  0  0  0
    0.6950   -1.6003    0.8178 N   0  0  0  0  0  0  0  0  0  0  0  0
    0.8777   -2.0908   -0.5246 C   0  0  2  0  0  0  0  0  0  0  0  0
    1.0684   -3.6000   -0.4403 C   0  0  0  0  0  0  0  0  0  0  0  0
    1.0219   -4.3387   -1.4220 O   0  0  0  0  0  0  0  0  0  0  0  0
    2.0746   -1.4344   -1.2128 C   0  0  0  0  0  0  0  0  0  0  0  0
    1.8450    0.0301   -1.5424 C   0  0  0  0  0  0  0  0  0  0  0  0
    0.7965    0.4763   -1.9986 O   0  0  0  0  0  0  0  0  0  0  0  0
    2.9496    0.8074   -1.2655 N   0  0  0  0  0  0  0  0  0  0  0  0
    1.1810   -2.0803    1.5718 H   0  0  0  0  0  0  0  0  0  0  0  0
   -0.0530   -1.8792   -1.0639 H   0  0  0  0  0  0  0  0  0  0  0  0
    2.9591   -1.4838   -0.5652 H   0  0  0  0  0  0  0  0  0  0  0  0
    2.3237   -1.9651   -2.1407 H   0  0  0  0  0  0  0  0  0  0  0  0
    3.7952    0.3956   -0.8851 H   0  0  0  0  0  0  0  0  0  0  0  0
    2.9631    1.8092   -1.4282 H   0  0  0  0  0  0  0  0  0  0  0  0
    1.3466   -4.0222    0.8521 N   0  0  0  0  0  0  0  0  0  0  0  0
    1.5907   -5.4090    1.1689 C   0  0  2  0  0  0  0  0  0  0  0  0
    2.7655   -5.8846    0.3245 C   0  0  0  0  0  0  0  0  0  0  0  0
    3.1034   -5.3377   -0.7233 O   0  0  0  0  0  0  0  0  0  0  0  0
    0.3571   -6.2605    0.9127 C   0  0  0  0  0  0  0  0  0  0  0  0
    1.3901   -3.3425    1.6056 H   0  0  0  0  0  0  0  0  0  0  0  0
    1.8629   -5.4479    2.2293 H   0  0  0  0  0  0  0  0  0  0  0  0
    0.0691   -6.2339   -0.1446 H   0  0  0  0  0  0  0  0  0  0  0  0
    0.5349   -7.3073    1.1805 H   0  0  0  0  0  0  0  0  0  0  0  0
   -0.4949   -5.8986    1.4984 H   0  0  0  0  0  0  0  0  0  0  0  0
    3.3654   -7.0176    0.8561 N   0  0  0  0  0  0  0  0  0  0  0  0
    4.4937   -7.6681    0.2317 C   0  0  0  0  0  0  0  0  0  0  0  0
    3.0313   -7.3923    1.7391 H   0  0  0  0  0  0  0  0  0  0  0  0
    4.1346   -8.4630   -0.4385 H   0  0  0  0  0  0  0  0  0  0  0  0
    5.0670   -6.9304   -0.3488 H   0  0  0  0  0  0  0  0  0  0  0  0
    5.1393   -8.1063    1.0071 H   0  0  0  0  0  0  0  0  0  0  0  0
  1  3  1  0  0  0  0
  1  7  1  0  0  0  0
  1  2  2  0  0  0  0
 21 22  1  0  0  0  0
 22 24  1  0  0  0  0
 22 23  2  0  0  0  0
 32 33  1  0  0  0  0
 33 41  1  0  0  0  0
 33 34  2  0  0  0  0
  8  9  1  0  0  0  0
  9 17  1  0  0  0  0
  9 10  2  0  0  0  0
 18 19  1  0  0  0  0
 19 31  1  0  0  0  0
 19 20  2  0  0  0  0
 32 35  1  0  0  0  0
  8 11  1  0  0  0  0
 41 42  1  0  0  0  0
 18 21  1  0  0  0  0
 31 32  1  0  0  0  0
  7  8  1  0  0  0  0
 17 18  1  0  0  0  0
  3  4  1  0  0  0  0
  3  5  1  0  0  0  0
  3  6  1  0  0  0  0
 35 38  1  0  0  0  0
 35 39  1  0  0  0  0
 35 40  1  0  0  0  0
 11 14  1  0  0  0  0
 11 15  1  0  0  0  0
 11 16  1  0  0  0  0
 42 44  1  0  0  0  0
 42 45  1  0  0  0  0
 42 46  1  0  0  0  0
 21 27  1  0  0  0  0
 21 28  1  0  0  0  0
 32 37  1  0  0  0  0
  8 13  1  0  0  0  0
 18 26  1  0  0  0  0
 24 29  1  0  0  0  0
 24 30  1  0  0  0  0
 41 43  1  0  0  0  0
  7 12  1  0  0  0  0
 31 36  1  0  0  0  0
 17 25  1  0  0  0  0
M  END
$$$$

  -OEChem-05262214473D

 46 45  0     1  0  0  0  0  0999 V2000
   -0.0543    1.9736    3.8406 C   0  0  0  0  0  0  0  0  0  0  0  0
    0.6744    1.6099    4.7562 O   0  0  0  0  0  0  0  0  0  0  0  0
   -0.5599    3.3779    3.8160 C   0  0  0  0  0  0  0  0  0  0  0  0
   -1.5202    3.4885    4.3450 H   0  0  0  0  0  0  0  0  0  0  0  0
    0.1282    4.0814    4.3116 H   0  0  0  0  0  0  0  0  0  0  0  0
   -0.7317    3.7994    2.8126 H   0  0  0  0  0  0  0  0  0  0  0  0
   -0.4812    1.1968    2.7762 N   0  0  0  0  0  0  0  0  0  0  0  0
   -0.1106   -0.1834    2.6051 C   0  0  2  0  0  0  0  0  0  0  0  0
   -0.0696   -0.4775    1.1113 C   0  0  0  0  0  0  0  0  0  0  0  0
   -0.6805    0.1900    0.2792 O   0  0  0  0  0  0  0  0  0  0  0  0
   -1.0852   -1.1101    3.3150 C   0  0  0  0  0  0  0  0  0  0  0  0
   -1.0883    1.6241    2.0791 H   0  0  0  0  0  0  0  0  0  0  0  0
    0.8937   -0.2959    3.0277 H   0  0  0  0  0  0  0  0  0  0  0  0
   -2.0970   -1.0114    2.9051 H   0  0  0  0  0  0  0  0  0  0  0  0
   -0.7860   -2.1580    3.2078 H   0  0  0  0  0  0  0  0  0  0  0  0
   -1.1357   -0.8775    4.3842 H   0  0  0  0  0  0  0  0  0  0  0  0
    0.6950   -1.6003    0.8178 N   0  0  0  0  0  0  0  0  0  0  0  0
    0.8777   -2.0908   -0.5246 C   0  0  2  0  0  0  0  0  0  0  0  0
    1.0684   -3.6000   -0.4403 C   0  0  0  0  0  0  0  0  0  0  0  0
    1.2886   -4.3051   -1.4231 O   0  0  0  0  0  0  0  0  0  0  0  0
    2.0746   -1.4344   -1.2128 C   0  0  0  0  0  0  0  0  0  0  0  0
    1.8450    0.0301   -1.5424 C   0  0  0  0  0  0  0  0  0  0  0  0
    0.7965    0.4763   -1.9986 O   0  0  0  0  0  0  0  0  0  0  0  0
    2.9496    0.8074   -1.2655 N   0  0  0  0  0  0  0  0  0  0  0  0
    1.1810   -2.0803    1.5718 H   0  0  0  0  0  0  0  0  0  0  0  0
   -0.0530   -1.8792   -1.0639 H   0  0  0  0  0  0  0  0  0  0  0  0
    2.9591   -1.4838   -0.5652 H   0  0  0  0  0  0  0  0  0  0  0  0
    2.3237   -1.9651   -2.1407 H   0  0  0  0  0  0  0  0  0  0  0  0
    3.7952    0.3956   -0.8851 H   0  0  0  0  0  0  0  0  0  0  0  0
    2.9631    1.8092   -1.4282 H   0  0  0  0  0  0  0  0  0  0  0  0
    1.0141   -4.0634    0.8667 N   0  0  0  0  0  0  0  0  0  0  0  0
    1.1945   -5.4577    1.1931 C   0  0  2  0  0  0  0  0  0  0  0  0
    2.5550   -5.8923    0.6643 C   0  0  0  0  0  0  0  0  0  0  0  0
    3.1398   -5.3064   -0.2445 O   0  0  0  0  0  0  0  0  0  0  0  0
    0.0837   -6.3124    0.6029 C   0  0  0  0  0  0  0  0  0  0  0  0
    0.8504   -3.4095    1.6265 H   0  0  0  0  0  0  0  0  0  0  0  0
    1.1867   -5.5302    2.2861 H   0  0  0  0  0  0  0  0  0  0  0  0
    0.0757   -6.2524   -0.4915 H   0  0  0  0  0  0  0  0  0  0  0  0
    0.2063   -7.3658    0.8753 H   0  0  0  0  0  0  0  0  0  0  0  0
   -0.8964   -5.9794    0.9612 H   0  0  0  0  0  0  0  0  0  0  0  0
    3.0196   -7.0367    1.2971 N   0  0  0  0  0  0  0  0  0  0  0  0
    4.2821   -7.6540    0.9637 C   0  0  0  0  0  0  0  0  0  0  0  0
    2.4775   -7.4448    2.0530 H   0  0  0  0  0  0  0  0  0  0  0  0
    4.1215   -8.4290    0.1998 H   0  0  0  0  0  0  0  0  0  0  0  0
    4.9712   -6.8910    0.5725 H   0  0  0  0  0  0  0  0  0  0  0  0
    4.7155   -8.1120    1.8650 H   0  0  0  0  0  0  0  0  0  0  0  0
  1  3  1  0  0  0  0
  1  7  1  0  0  0  0
  1  2  2  0  0  0  0
 21 22  1  0  0  0  0
 22 24  1  0  0  0  0
 22 23  2  0  0  0  0
 32 33  1  0  0  0  0
 33 41  1  0  0  0  0
 33 34  2  0  0  0  0
  8  9  1  0  0  0  0
  9 17  1  0  0  0  0
  9 10  2  0  0  0  0
 18 19  1  0  0  0  0
 19 31  1  0  0  0  0
 19 20  2  0  0  0  0
 32 35  1  0  0  0  0
  8 11  1  0  0  0  0
 41 42  1  0  0  0  0
 18 21  1  0  0  0  0
 31 32  1  0  0  0  0
  7  8  1  0  0  0  0
 17 18  1  0  0  0  0
  3  4  1  0  0  0  0
  3  5  1  0  0  0  0
  3  6  1  0  0  0  0
 35 38  1  0  0  0  0
 35 39  1  0  0  0  0
 35 40  1  0  0  0  0
 11 14  1  0  0  0  0
 11 15  1  0  0  0  0
 11 16  1  0  0  0  0
 42 44  1  0  0  0  0
 42 45  1  0  0  0  0
 42 46  1  0  0  0  0
 21 27  1  0  0  0  0
 21 28  1  0  0  0  0
 32 37  1  0  0  0  0
  8 13  1  0  0  0  0
 18 26  1  0  0  0  0
 24 29  1  0  0  0  0
 24 30  1  0  0  0  0
 41 43  1  0  0  0  0
  7 12  1  0  0  0  0
 31 36  1  0  0  0  0
 17 25  1  0  0  0  0
M  END
$$$$

  -OEChem-05262214473D

 46 45  0     1  0  0  0  0  0999 V2000
   -0.0543    1.9736    3.8406 C   0  0  0  0  0  0  0  0  0  0  0  0
    0.6744    1.6099    4.7562 O   0  0  0  0  0  0  0  0  0  0  0  0
   -0.5599    3.3779    3.8160 C   0  0  0  0  0  0  0  0  0  0  0  0
   -1.5202    3.4885    4.3450 H   0  0  0  0  0  0  0  0  0  0  0  0
    0.1282    4.0814    4.3116 H   0  0  0  0  0  0  0  0  0  0  0  0
   -0.7317    3.7994    2.8126 H   0  0  0  0  0  0  0  0  0  0  0  0
   -0.4812    1.1968    2.7762 N   0  0  0  0  0  0  0  0  0  0  0  0
   -0.1106   -0.1834    2.6051 C   0  0  2  0  0  0  0  0  0  0  0  0
   -0.0696   -0.4775    1.1113 C   0  0  0  0  0  0  0  0  0  0  0  0
   -0.6805    0.1900    0.2792 O   0  0  0  0  0  0  0  0  0  0  0  0
   -1.0852   -1.1101    3.3150 C   0  0  0  0  0  0  0  0  0  0  0  0
   -1.0883    1.6241    2.0791 H   0  0  0  0  0  0  0  0  0  0  0  0
    0.8937   -0.2959    3.0277 H   0  0  0  0  0  0  0  0  0  0  0  0
   -2.0970   -1.0114    2.9051 H   0  0  0  0  0  0  0  0  0  0  0  0
   -0.7860   -2.1580    3.2078 H   0  0  0  0  0  0  0  0  0  0  0  0
   -1.1357   -0.8775    4.3842 H   0  0  0  0  0  0  0  0  0  0  0  0
    0.6950   -1.6003    0.8178 N   0  0  0  0  0  0  0  0  0  0  0  0
    0.8777   -2.0908   -0.5246 C   0  0  2  0  0  0  0  0  0  0  0  0
    1.0684   -3.6000   -0.4403 C   0  0  0  0  0  0  0  0  0  0  0  0
    1.5460   -4.2687   -1.3548 O   0  0  0  0  0  0  0  0  0  0  0  0
    2.0746   -1.4344   -1.2128 C   0  0  0  0  0  0  0  0  0  0  0  0
    1.8450    0.0301   -1.5424 C   0  0  0  0  0  0  0  0  0  0  0  0
    0.7965    0.4763   -1.9986 O   0  0  0  0  0  0  0  0  0  0  0  0
    2.9496    0.8074   -1.2655 N   0  0  0  0  0  0  0  0  0  0  0  0
    1.1810   -2.0803    1.5718 H   0  0  0  0  0  0  0  0  0  0  0  0
   -0.0530   -1.8792   -1.0639 H   0  0  0  0  0  0  0  0  0  0  0  0
    2.9591   -1.4838   -0.5652 H   0  0  0  0  0  0  0  0  0  0  0  0
    2.3237   -1.9651   -2.1407 H   0  0  0  0  0  0  0  0  0  0  0  0
    3.7952    0.3956   -0.8851 H   0  0  0  0  0  0  0  0  0  0  0  0
    2.9631    1.8092   -1.4282 H   0  0  0  0  0  0  0  0  0  0  0  0
    0.6897   -4.1085    0.7942 N   0  0  0  0  0  0  0  0  0  0  0  0
    0.8063   -5.5112    1.1132 C   0  0  2  0  0  0  0  0  0  0  0  0
    2.2647   -5.9137    0.9383 C   0  0  0  0  0  0  0  0  0  0  0  0
    3.0518   -5.2912    0.2283 O   0  0  0  0  0  0  0  0  0  0  0  0
   -0.1003   -6.3563    0.2320 C   0  0  0  0  0  0  0  0  0  0  0  0
    0.3248   -3.4826    1.5062 H   0  0  0  0  0  0  0  0  0  0  0  0
    0.5201   -5.6212    2.1649 H   0  0  0  0  0  0  0  0  0  0  0  0
    0.1712   -6.2590   -0.8255 H   0  0  0  0  0  0  0  0  0  0  0  0
   -0.0320   -7.4172    0.4944 H   0  0  0  0  0  0  0  0  0  0  0  0
   -1.1454   -6.0457    0.3367 H   0  0  0  0  0  0  0  0  0  0  0  0
    2.5728   -7.0744    1.6339 N   0  0  0  0  0  0  0  0  0  0  0  0
    3.8898   -7.6671    1.6169 C   0  0  0  0  0  0  0  0  0  0  0  0
    1.8629   -7.5136    2.2125 H   0  0  0  0  0  0  0  0  0  0  0  0
    3.9446   -8.4171    0.8141 H   0  0  0  0  0  0  0  0  0  0  0  0
    4.6418   -6.8843    1.4392 H   0  0  0  0  0  0  0  0  0  0  0  0
    4.0863   -8.1513    2.5849 H   0  0  0  0  0  0  0  0  0  0  0  0
  1  3  1  0  0  0  0
  1  7  1  0  0  0  0
  1  2  2  0  0  0  0
 21 22  1  0  0  0  0
 22 24  1  0  0  0  0
 22 23  2  0  0  0  0
 32 33  1  0  0  0  0
 33 41  1  0  0  0  0
 33 34  2  0  0  0  0
  8  9  1  0  0  0  0
  9 17  1  0  0  0  0
  9 10  2  0  0  0  0
 18 19  1  0  0  0  0
 19 31  1  0  0  0  0
 19 20  2  0  0  0  0
 32 35  1  0  0  0  0
  8 11  1  0  0  0  0
 41 42  1  0  0  0  0
 18 21  1  0  0  0  0
 31 32  1  0  0  0  0
  7  8  1  0  0  0  0
 17 18  1  0  0  0  0
  3  4  1  0  0  0  0
  3  5  1  0  0  0  0
  3  6  1  0  0  0  0
 35 38  1  0  0  0  0
 35 39  1  0  0  0  0
 35 40  1  0  0  0  0
 11 14  1  0  0  0  0
 11 15  1  0  0  0  0
 11 16  1  0  0  0  0
 42 44  1  0  0  0  0
 42 45  1  0  0  0  0
 42 46  1  0  0  0  0
 21 27  1  0  0  0  0
 21 28  1  0  0  0  0
 32 37  1  0  0  0  0
  8 13  1  0  0  0  0
 18 26  1  0  0  0  0
 24 29  1  0  0  0  0
 24 30  1  0  0  0  0
 41 43  1  0  0  0  0
  7 12  1  0  0  0  0
 31 36  1  0  0  0  0
 17 25  1  0  0  0  0
M  END
$$$$

  -OEChem-05262214473D

 46 45  0     1  0  0  0  0  0999 V2000
   -0.0543    1.9736    3.8406 C   0  0  0  0  0  0  0  0  0  0  0  0
    0.6744    1.6099    4.7562 O   0  0  0  0  0  0  0  0  0  0  0  0
   -0.5599    3.3779    3.8160 C   0  0  0  0  0  0  0  0  0  0  0  0
   -1.5202    3.4885    4.3450 H   0  0  0  0  0  0  0  0  0  0  0  0
    0.1282    4.0814    4.3116 H   0  0  0  0  0  0  0  0  0  0  0  0
   -0.7317    3.7994    2.8126 H   0  0  0  0  0  0  0  0  0  0  0  0
   -0.4812    1.1968    2.7762 N   0  0  0  0  0  0  0  0  0  0  0  0
   -0.1106   -0.1834    2.6051 C   0  0  2  0  0  0  0  0  0  0  0  0
   -0.0696   -0.4775    1.1113 C   0  0  0  0  0  0  0  0  0  0  0  0
   -0.6805    0.1900    0.2792 O   0  0  0  0  0  0  0  0  0  0  0  0
   -1.0852   -1.1101    3.3150 C   0  0  0  0  0  0  0  0  0  0  0  0
   -1.0883    1.6241    2.0791 H   0  0  0  0  0  0  0  0  0  0  0  0
    0.8937   -0.2959    3.0277 H   0  0  0  0  0  0  0  0  0  0  0  0
   -2.0970   -1.0114    2.9051 H   0  0  0  0  0  0  0  0  0  0  0  0
   -0.7860   -2.1580    3.2078 H   0  0  0  0  0  0  0  0  0  0  0  0
   -1.1357   -0.8775    4.3842 H   0  0  0  0  0  0  0  0  0  0  0  0
    0.6950   -1.6003    0.8178 N   0  0  0  0  0  0  0  0  0  0  0  0
    0.8777   -2.0908   -0.5246 C   0  0  2  0  0  0  0  0  0  0  0  0
    1.0684   -3.6000   -0.4403 C   0  0  0  0  0  0  0  0  0  0  0  0
    1.7766   -4.2322   -1.2216 O   0  0  0  0  0  0  0  0  0  0  0  0
    2.0746   -1.4344   -1.2128 C   0  0  0  0  0  0  0  0  0  0  0  0
    1.8450    0.0301   -1.5424 C   0  0  0  0  0  0  0  0  0  0  0  0
    0.7965    0.4763   -1.9986 O   0  0  0  0  0  0  0  0  0  0  0  0
    2.9496    0.8074   -1.2655 N   0  0  0  0  0  0  0  0  0  0  0  0
    1.1810   -2.0803    1.5718 H   0  0  0  0  0  0  0  0  0  0  0  0
   -0.0530   -1.8792   -1.0639 H   0  0  0  0  0  0  0  0  0  0  0  0
    2.9591   -1.4838   -0.5652 H   0  0  0  0  0  0  0  0  0  0  0  0
    2.3237   -1.9651   -2.1407 H   0  0  0  0  0  0  0  0  0  0  0  0
    3.7952    0.3956   -0.8851 H   0  0  0  0  0  0  0  0  0  0  0  0
    2.9631    1.8092   -1.4282 H   0  0  0  0  0  0  0  0  0  0  0  0
    0.3956   -4.1543    0.6396 N   0  0  0  0  0  0  0  0  0  0  0  0
    0.4526   -5.5659    0.9349 C   0  0  2  0  0  0  0  0  0  0  0  0
    1.9143   -5.9474    1.1278 C   0  0  0  0  0  0  0  0  0  0  0  0
    2.8453   -5.2930    0.6629 O   0  0  0  0  0  0  0  0  0  0  0  0
   -0.1822   -6.3894   -0.1749 C   0  0  0  0  0  0  0  0  0  0  0  0
   -0.1510   -3.5569    1.2529 H   0  0  0  0  0  0  0  0  0  0  0  0
   -0.0913   -5.7147    1.8740 H   0  0  0  0  0  0  0  0  0  0  0  0
    0.3493   -6.2531   -1.1238 H   0  0  0  0  0  0  0  0  0  0  0  0
   -0.1638   -7.4579    0.0637 H   0  0  0  0  0  0  0  0  0  0  0  0
   -1.2249   -6.0931   -0.3325 H   0  0  0  0  0  0  0  0  0  0  0  0
    2.0555   -7.1281    1.8434 N   0  0  0  0  0  0  0  0  0  0  0  0
    3.3436   -7.7066    2.1469 C   0  0  0  0  0  0  0  0  0  0  0  0
    1.2292   -7.5940    2.2068 H   0  0  0  0  0  0  0  0  0  0  0  0
    3.6161   -8.4280    1.3625 H   0  0  0  0  0  0  0  0  0  0  0  0
    4.1014   -6.9106    2.1920 H   0  0  0  0  0  0  0  0  0  0  0  0
    3.2945   -8.2216    3.1176 H   0  0  0  0  0  0  0  0  0  0  0  0
  1  3  1  0  0  0  0
  1  7  1  0  0  0  0
  1  2  2  0  0  0  0
 21 22  1  0  0  0  0
 22 24  1  0  0  0  0
 22 23  2  0  0  0  0
 32 33  1  0  0  0  0
 33 41  1  0  0  0  0
 33 34  2  0  0  0  0
  8  9  1  0  0  0  0
  9 17  1  0  0  0  0
  9 10  2  0  0  0  0
 18 19  1  0  0  0  0
 19 31  1  0  0  0  0
 19 20  2  0  0  0  0
 32 35  1  0  0  0  0
  8 11  1  0  0  0  0
 41 42  1  0  0  0  0
 18 21  1  0  0  0  0
 31 32  1  0  0  0  0
  7  8  1  0  0  0  0
 17 18  1  0  0  0  0
  3  4  1  0  0  0  0
  3  5  1  0  0  0  0
  3  6  1  0  0  0  0
 35 38  1  0  0  0  0
 35 39  1  0  0  0  0
 35 40  1  0  0  0  0
 11 14  1  0  0  0  0
 11 15  1  0  0  0  0
 11 16  1  0  0  0  0
 42 44  1  0  0  0  0
 42 45  1  0  0  0  0
 42 46  1  0  0  0  0
 21 27  1  0  0  0  0
 21 28  1  0  0  0  0
 32 37  1  0  0  0  0
  8 13  1  0  0  0  0
 18 26  1  0  0  0  0
 24 29  1  0  0  0  0
 24 30  1  0  0  0  0
 41 43  1  0  0  0  0
  7 12  1  0  0  0  0
 31 36  1  0  0  0  0
 17 25  1  0  0  0  0
M  END
$$$$

  -OEChem-05262214473D

 46 45  0     1  0  0  0  0  0999 V2000
   -0.0543    1.9736    3.8406 C   0  0  0  0  0  0  0  0  0  0  0  0
    0.6744    1.6099    4.7562 O   0  0  0  0  0  0  0  0  0  0  0  0
   -0.5599    3.3779    3.8160 C   0  0  0  0  0  0  0  0  0  0  0  0
   -1.5202    3.4885    4.3450 H   0  0  0  0  0  0  0  0  0  0  0  0
    0.1282    4.0814    4.3116 H   0  0  0  0  0  0  0  0  0  0  0  0
   -0.7317    3.7994    2.8126 H   0  0  0  0  0  0  0  0  0  0  0  0
   -0.4812    1.1968    2.7762 N   0  0  0  0  0  0  0  0  0  0  0  0
   -0.1106   -0.1834    2.6051 C   0  0  2  0  0  0  0  0  0  0  0  0
   -0.0696   -0.4775    1.1113 C   0  0  0  0  0  0  0  0  0  0  0  0
   -0.6805    0.1900    0.2792 O   0  0  0  0  0  0  0  0  0  0  0  0
   -1.0852   -1.1101    3.3150 C   0  0  0  0  0  0  0  0  0  0  0  0
   -1.0883    1.6241    2.0791 H   0  0  0  0  0  0  0  0  0  0  0  0
    0.8937   -0.2959    3.0277 H   0  0  0  0  0  0  0  0  0  0  0  0
   -2.0970   -1.0114    2.9051 H   0  0  0  0  0  0  0  0  0  0  0  0
   -0.7860   -2.1580    3.2078 H   0  0  0  0  0  0  0  0  0  0  0  0
   -1.1357   -0.8775    4.3842 H   0  0  0  0  0  0  0  0  0  0  0  0
    0.6950   -1.6003    0.8178 N   0  0  0  0  0  0  0  0  0  0  0  0
    0.8777   -2.0908   -0.5246 C   0  0  2  0  0  0  0  0  0  0  0  0
    1.0684   -3.6000   -0.4403 C   0  0  0  0  0  0  0  0  0  0  0  0
    1.9647   -4.1978   -1.0326 O   0  0  0  0  0  0  0  0  0  0  0  0
    2.0746   -1.4344   -1.2128 C   0  0  0  0  0  0  0  0  0  0  0  0
    1.8450    0.0301   -1.5424 C   0  0  0  0  0  0  0  0  0  0  0  0
    0.7965    0.4763   -1.9986 O   0  0  0  0  0  0  0  0  0  0  0  0
    2.9496    0.8074   -1.2655 N   0  0  0  0  0  0  0  0  0  0  0  0
    1.1810   -2.0803    1.5718 H   0  0  0  0  0  0  0  0  0  0  0  0
   -0.0530   -1.8792   -1.0639 H   0  0  0  0  0  0  0  0  0  0  0  0
    2.9591   -1.4838   -0.5652 H   0  0  0  0  0  0  0  0  0  0  0  0
    2.3237   -1.9651   -2.1407 H   0  0  0  0  0  0  0  0  0  0  0  0
    3.7952    0.3956   -0.8851 H   0  0  0  0  0  0  0  0  0  0  0  0
    2.9631    1.8092   -1.4282 H   0  0  0  0  0  0  0  0  0  0  0  0
    0.1518   -4.1977    0.4133 N   0  0  0  0  0  0  0  0  0  0  0  0
    0.1574   -5.6179    0.6701 C   0  0  2  0  0  0  0  0  0  0  0  0
    1.5278   -5.9911    1.2199 C   0  0  0  0  0  0  0  0  0  0  0  0
    2.5345   -5.3118    1.0298 O   0  0  0  0  0  0  0  0  0  0  0  0
   -0.1565   -6.4093   -0.5900 C   0  0  0  0  0  0  0  0  0  0  0  0
   -0.5447   -3.6273    0.8837 H   0  0  0  0  0  0  0  0  0  0  0  0
   -0.6061   -5.8044    1.4332 H   0  0  0  0  0  0  0  0  0  0  0  0
    0.5976   -6.2353   -1.3662 H   0  0  0  0  0  0  0  0  0  0  0  0
   -0.1801   -7.4851   -0.3874 H   0  0  0  0  0  0  0  0  0  0  0  0
   -1.1294   -6.1183   -1.0007 H   0  0  0  0  0  0  0  0  0  0  0  0
    1.5028   -7.1941    1.9114 N   0  0  0  0  0  0  0  0  0  0  0  0
    2.6807   -7.7697    2.5175 C   0  0  0  0  0  0  0  0  0  0  0  0
    0.6198   -7.6805    2.0362 H   0  0  0  0  0  0  0  0  0  0  0  0
    3.1583   -8.4610    1.8076 H   0  0  0  0  0  0  0  0  0  0  0  0
    3.3868   -6.9681    2.7799 H   0  0  0  0  0  0  0  0  0  0  0  0
    2.3942   -8.3182    3.4269 H   0  0  0  0  0  0  0  0  0  0  0  0
  1  3  1  0  0  0  0
  1  7  1  0  0  0  0
  1  2  2  0  0  0  0
 21 22  1  0  0  0  0
 22 24  1  0  0  0  0
 22 23  2  0  0  0  0
 32 33  1  0  0  0  0
 33 41  1  0  0  0  0
 33 34  2  0  0  0  0
  8  9  1  0  0  0  0
  9 17  1  0  0  0  0
  9 10  2  0  0  0  0
 18 19  1  0  0  0  0
 19 31  1  0  0  0  0
 19 20  2  0  0  0  0
 32 35  1  0  0  0  0
  8 11  1  0  0  0  0
 41 42  1  0  0  0  0
 18 21  1  0  0  0  0
 31 32  1  0  0  0  0
  7  8  1  0  0  0  0
 17 18  1  0  0  0  0
  3  4  1  0  0  0  0
  3  5  1  0  0  0  0
  3  6  1  0  0  0  0
 35 38  1  0  0  0  0
 35 39  1  0  0  0  0
 35 40  1  0  0  0  0
 11 14  1  0  0  0  0
 11 15  1  0  0  0  0
 11 16  1  0  0  0  0
 42 44  1  0  0  0  0
 42 45  1  0  0  0  0
 42 46  1  0  0  0  0
 21 27  1  0  0  0  0
 21 28  1  0  0  0  0
 32 37  1  0  0  0  0
  8 13  1  0  0  0  0
 18 26  1  0  0  0  0
 24 29  1  0  0  0  0
 24 30  1  0  0  0  0
 41 43  1  0  0  0  0
  7 12  1  0  0  0  0
 31 36  1  0  0  0  0
 17 25  1  0  0  0  0
M  END
$$$$

  -OEChem-05262214473D

 46 45  0     1  0  0  0  0  0999 V2000
   -0.0543    1.9736    3.8406 C   0  0  0  0  0  0  0  0  0  0  0  0
    0.6744    1.6099    4.7562 O   0  0  0  0  0  0  0  0  0  0  0  0
   -0.5599    3.3779    3.8160 C   0  0  0  0  0  0  0  0  0  0  0  0
   -1.5202    3.4885    4.3450 H   0  0  0  0  0  0  0  0  0  0  0  0
    0.1282    4.0814    4.3116 H   0  0  0  0  0  0  0  0  0  0  0  0
   -0.7317    3.7994    2.8126 H   0  0  0  0  0  0  0  0  0  0  0  0
   -0.4812    1.1968    2.7762 N   0  0  0  0  0  0  0  0  0  0  0  0
   -0.1106   -0.1834    2.6051 C   0  0  2  0  0  0  0  0  0  0  0  0
   -0.0696   -0.4775    1.1113 C   0  0  0  0  0  0  0  0  0  0  0  0
   -0.6805    0.1900    0.2792 O   0  0  0  0  0  0  0  0  0  0  0  0
   -1.0852   -1.1101    3.3150 C   0  0  0  0  0  0  0  0  0  0  0  0
   -1.0883    1.6241    2.0791 H   0  0  0  0  0  0  0  0  0  0  0  0
    0.8937   -0.2959    3.0277 H   0  0  0  0  0  0  0  0  0  0  0  0
   -2.0970   -1.0114    2.9051 H   0  0  0  0  0  0  0  0  0  0  0  0
   -0.7860   -2.1580    3.2078 H   0  0  0  0  0  0  0  0  0  0  0  0
   -1.1357   -0.8775    4.3842 H   0  0  0  0  0  0  0  0  0  0  0  0
    0.6950   -1.6003    0.8178 N   0  0  0  0  0  0  0  0  0  0  0  0
    0.8777   -2.0908   -0.5246 C   0  0  2  0  0  0  0  0  0  0  0  0
    1.0684   -3.6000   -0.4403 C   0  0  0  0  0  0  0  0  0  0  0  0
    2.0974   -4.1681   -0.8007 O   0  0  0  0  0  0  0  0  0  0  0  0
    2.0746   -1.4344   -1.2128 C   0  0  0  0  0  0  0  0  0  0  0  0
    1.8450    0.0301   -1.5424 C   0  0  0  0  0  0  0  0  0  0  0  0
    0.7965    0.4763   -1.9986 O   0  0  0  0  0  0  0  0  0  0  0  0
    2.9496    0.8074   -1.2655 N   0  0  0  0  0  0  0  0  0  0  0  0
    1.1810   -2.0803    1.5718 H   0  0  0  0  0  0  0  0  0  0  0  0
   -0.0530   -1.8792   -1.0639 H   0  0  0  0  0  0  0  0  0  0  0  0
    2.9591   -1.4838   -0.5652 H   0  0  0  0  0  0  0  0  0  0  0  0
    2.3237   -1.9651   -2.1407 H   0  0  0  0  0  0  0  0  0  0  0  0
    3.7952    0.3956   -0.8851 H   0  0  0  0  0  0  0  0  0  0  0  0
    2.9631    1.8092   -1.4282 H   0  0  0  0  0  0  0  0  0  0  0  0
   -0.0250   -4.2358    0.1309 N   0  0  0  0  0  0  0  0  0  0  0  0
   -0.0591   -5.6639    0.3370 C   0  0  2  0  0  0  0  0  0  0  0  0
    1.1314   -6.0418    1.2084 C   0  0  0  0  0  0  0  0  0  0  0  0
    2.1405   -5.3463    1.3038 O   0  0  0  0  0  0  0  0  0  0  0  0
   -0.0251   -6.4147   -0.9851 C   0  0  0  0  0  0  0  0  0  0  0  0
   -0.8292   -3.6889    0.4240 H   0  0  0  0  0  0  0  0  0  0  0  0
   -0.9890   -5.8840    0.8726 H   0  0  0  0  0  0  0  0  0  0  0  0
    0.8994   -6.2066   -1.5360 H   0  0  0  0  0  0  0  0  0  0  0  0
   -0.0798   -7.4971   -0.8282 H   0  0  0  0  0  0  0  0  0  0  0  0
   -0.8655   -6.1197   -1.6226 H   0  0  0  0  0  0  0  0  0  0  0  0
    0.9524   -7.2680    1.8333 N   0  0  0  0  0  0  0  0  0  0  0  0
    1.9462   -7.8521    2.7034 C   0  0  0  0  0  0  0  0  0  0  0  0
    0.0761   -7.7673    1.7124 H   0  0  0  0  0  0  0  0  0  0  0  0
    2.6025   -8.5139    2.1192 H   0  0  0  0  0  0  0  0  0  0  0  0
    2.5466   -7.0529    3.1626 H   0  0  0  0  0  0  0  0  0  0  0  0
    1.4466   -8.4343    3.4917 H   0  0  0  0  0  0  0  0  0  0  0  0
  1  3  1  0  0  0  0
  1  7  1  0  0  0  0
  1  2  2  0  0  0  0
 21 22  1  0  0  0  0
 22 24  1  0  0  0  0
 22 23  2  0  0  0  0
 32 33  1  0  0  0  0
 33 41  1  0  0  0  0
 33 34  2  0  0  0  0
  8  9  1  0  0  0  0
  9 17  1  0  0  0  0
  9 10  2  0  0  0  0
 18 19  1  0  0  0  0
 19 31  1  0  0  0  0
 19 20  2  0  0  0  0
 32 35  1  0  0  0  0
  8 11  1  0  0  0  0
 41 42  1  0  0  0  0
 18 21  1  0  0  0  0
 31 32  1  0  0  0  0
  7  8  1  0  0  0  0
 17 18  1  0  0  0  0
  3  4  1  0  0  0  0
  3  5  1  0  0  0  0
  3  6  1  0  0  0  0
 35 38  1  0  0  0  0
 35 39  1  0  0  0  0
 35 40  1  0  0  0  0
 11 14  1  0  0  0  0
 11 15  1  0  0  0  0
 11 16  1  0  0  0  0
 42 44  1  0  0  0  0
 42 45  1  0  0  0  0
 42 46  1  0  0  0  0
 21 27  1  0  0  0  0
 21 28  1  0  0  0  0
 32 37  1  0  0  0  0
  8 13  1  0  0  0  0
 18 26  1  0  0  0  0
 24 29  1  0  0  0  0
 24 30  1  0  0  0  0
 41 43  1  0  0  0  0
  7 12  1  0  0  0  0
 31 36  1  0  0  0  0
 17 25  1  0  0  0  0
M  END
$$$$

  -OEChem-05262214473D

 46 45  0     1  0  0  0  0  0999 V2000
   -0.0543    1.9736    3.8406 C   0  0  0  0  0  0  0  0  0  0  0  0
    0.6744    1.6099    4.7562 O   0  0  0  0  0  0  0  0  0  0  0  0
   -0.5599    3.3779    3.8160 C   0  0  0  0  0  0  0  0  0  0  0  0
   -1.5202    3.4885    4.3450 H   0  0  0  0  0  0  0  0  0  0  0  0
    0.1282    4.0814    4.3116 H   0  0  0  0  0  0  0  0  0  0  0  0
   -0.7317    3.7994    2.8126 H   0  0  0  0  0  0  0  0  0  0  0  0
   -0.4812    1.1968    2.7762 N   0  0  0  0  0  0  0  0  0  0  0  0
   -0.1106   -0.1834    2.6051 C   0  0  2  0  0  0  0  0  0  0  0  0
   -0.0696   -0.4775    1.1113 C   0  0  0  0  0  0  0  0  0  0  0  0
   -0.6805    0.1900    0.2792 O   0  0  0  0  0  0  0  0  0  0  0  0
   -1.0852   -1.1101    3.3150 C   0  0  0  0  0  0  0  0  0  0  0  0
   -1.0883    1.6241    2.0791 H   0  0  0  0  0  0  0  0  0  0  0  0
    0.8937   -0.2959    3.0277 H   0  0  0  0  0  0  0  0  0  0  0  0
   -2.0970   -1.0114    2.9051 H   0  0  0  0  0  0  0  0  0  0  0  0
   -0.7860   -2.1580    3.2078 H   0  0  0  0  0  0  0  0  0  0  0  0
   -1.1357   -0.8775    4.3842 H   0  0  0  0  0  0  0  0  0  0  0  0
    0.6950   -1.6003    0.8178 N   0  0  0  0  0  0  0  0  0  0  0  0
    0.8777   -2.0908   -0.5246 C   0  0  2  0  0  0  0  0  0  0  0  0
    1.0684   -3.6000   -0.4403 C   0  0  0  0  0  0  0  0  0  0  0  0
    2.1657   -4.1450   -0.5417 O   0  0  0  0  0  0  0  0  0  0  0  0
    2.0746   -1.4344   -1.2128 C   0  0  0  0  0  0  0  0  0  0  0  0
    1.8450    0.0301   -1.5424 C   0  0  0  0  0  0  0  0  0  0  0  0
    0.7965    0.4763   -1.9986 O   0  0  0  0  0  0  0  0  0  0  0  0
    2.9496    0.8074   -1.2655 N   0  0  0  0  0  0  0  0  0  0  0  0
    1.1810   -2.0803    1.5718 H   0  0  0  0  0  0  0  0  0  0  0  0
   -0.0530   -1.8792   -1.0639 H   0  0  0  0  0  0  0  0  0  0  0  0
    2.9591   -1.4838   -0.5652 H   0  0  0  0  0  0  0  0  0  0  0  0
    2.3237   -1.9651   -2.1407 H   0  0  0  0  0  0  0  0  0  0  0  0
    3.7952    0.3956   -0.8851 H   0  0  0  0  0  0  0  0  0  0  0  0
    2.9631    1.8092   -1.4282 H   0  0  0  0  0  0  0  0  0  0  0  0
   -0.1229   -4.2660   -0.1885 N   0  0  0  0  0  0  0  0  0  0  0  0
   -0.1821   -5.7006   -0.0418 C   0  0  2  0  0  0  0  0  0  0  0  0
    0.7522   -6.0961    1.0940 C   0  0  0  0  0  0  0  0  0  0  0  0
    1.6901   -5.3941    1.4664 O   0  0  0  0  0  0  0  0  0  0  0  0
    0.2033   -6.4053   -1.3331 C   0  0  0  0  0  0  0  0  0  0  0  0
   -0.9853   -3.7376   -0.0951 H   0  0  0  0  0  0  0  0  0  0  0  0
   -1.2139   -5.9483    0.2303 H   0  0  0  0  0  0  0  0  0  0  0  0
    1.2340   -6.1691   -1.6217 H   0  0  0  0  0  0  0  0  0  0  0  0
    0.1303   -7.4929   -1.2286 H   0  0  0  0  0  0  0  0  0  0  0  0
   -0.4511   -6.0970   -2.1556 H   0  0  0  0  0  0  0  0  0  0  0  0
    0.4419   -7.3448    1.6143 N   0  0  0  0  0  0  0  0  0  0  0  0
    1.1903   -7.9483    2.6921 C   0  0  0  0  0  0  0  0  0  0  0  0
   -0.3648   -7.8484    1.2573 H   0  0  0  0  0  0  0  0  0  0  0  0
    1.9865   -8.5830    2.2759 H   0  0  0  0  0  0  0  0  0  0  0  0
    1.6381   -7.1592    3.3141 H   0  0  0  0  0  0  0  0  0  0  0  0
    0.5163   -8.5621    3.3076 H   0  0  0  0  0  0  0  0  0  0  0  0
  1  3  1  0  0  0  0
  1  7  1  0  0  0  0
  1  2  2  0  0  0  0
 21 22  1  0  0  0  0
 22 24  1  0  0  0  0
 22 23  2  0  0  0  0
 32 33  1  0  0  0  0
 33 41  1  0  0  0  0
 33 34  2  0  0  0  0
  8  9  1  0  0  0  0
  9 17  1  0  0  0  0
  9 10  2  0  0  0  0
 18 19  1  0  0  0  0
 19 31  1  0  0  0  0
 19 20  2  0  0  0  0
 32 35  1  0  0  0  0
  8 11  1  0  0  0  0
 41 42  1  0  0  0  0
 18 21  1  0  0  0  0
 31 32  1  0  0  0  0
  7  8  1  0  0  0  0
 17 18  1  0  0  0  0
  3  4  1  0  0  0  0
  3  5  1  0  0  0  0
  3  6  1  0  0  0  0
 35 38  1  0  0  0  0
 35 39  1  0  0  0  0
 35 40  1  0  0  0  0
 11 14  1  0  0  0  0
 11 15  1  0  0  0  0
 11 16  1  0  0  0  0
 42 44  1  0  0  0  0
 42 45  1  0  0  0  0
 42 46  1  0  0  0  0
 21 27  1  0  0  0  0
 21 28  1  0  0  0  0
 32 37  1  0  0  0  0
  8 13  1  0  0  0  0
 18 26  1  0  0  0  0
 24 29  1  0  0  0  0
 24 30  1  0  0  0  0
 41 43  1  0  0  0  0
  7 12  1  0  0  0  0
 31 36  1  0  0  0  0
 17 25  1  0  0  0  0
M  END
$$$$

  -OEChem-05262214473D

 46 45  0     1  0  0  0  0  0999 V2000
   -0.0543    1.9736    3.8406 C   0  0  0  0  0  0  0  0  0  0  0  0
    0.6744    1.6099    4.7562 O   0  0  0  0  0  0  0  0  0  0  0  0
   -0.5599    3.3779    3.8160 C   0  0  0  0  0  0  0  0  0  0  0  0
   -1.5202    3.4885    4.3450 H   0  0  0  0  0  0  0  0  0  0  0  0
    0.1282    4.0814    4.3116 H   0  0  0  0  0  0  0  0  0  0  0  0
   -0.7317    3.7994    2.8126 H   0  0  0  0  0  0  0  0  0  0  0  0
   -0.4812    1.1968    2.7762 N   0  0  0  0  0  0  0  0  0  0  0  0
   -0.1106   -0.1834    2.6051 C   0  0  2  0  0  0  0  0  0  0  0  0
   -0.0696   -0.4775    1.1113 C   0  0  0  0  0  0  0  0  0  0  0  0
   -0.6805    0.1900    0.2792 O   0  0  0  0  0  0  0  0  0  0  0  0
   -1.0852   -1.1101    3.3150 C   0  0  0  0  0  0  0  0  0  0  0  0
   -1.0883    1.6241    2.0791 H   0  0  0  0  0  0  0  0  0  0  0  0
    0.8937   -0.2959    3.0277 H   0  0  0  0  0  0  0  0  0  0  0  0
   -2.0970   -1.0114    2.9051 H   0  0  0  0  0  0  0  0  0  0  0  0
   -0.7860   -2.1580    3.2078 H   0  0  0  0  0  0  0  0  0  0  0  0
   -1.1357   -0.8775    4.3842 H   0  0  0  0  0  0  0  0  0  0  0  0
    0.6950   -1.6003    0.8178 N   0  0  0  0  0  0  0  0  0  0  0  0
    0.8777   -2.0908   -0.5246 C   0  0  2  0  0  0  0  0  0  0  0  0
    1.0684   -3.6000   -0.4403 C   0  0  0  0  0  0  0  0  0  0  0  0
    2.1650   -4.1301   -0.2733 O   0  0  0  0  0  0  0  0  0  0  0  0
    2.0746   -1.4344   -1.2128 C   0  0  0  0  0  0  0  0  0  0  0  0
    1.8450    0.0301   -1.5424 C   0  0  0  0  0  0  0  0  0  0  0  0
    0.7965    0.4763   -1.9986 O   0  0  0  0  0  0  0  0  0  0  0  0
    2.9496    0.8074   -1.2655 N   0  0  0  0  0  0  0  0  0  0  0  0
    1.1810   -2.0803    1.5718 H   0  0  0  0  0  0  0  0  0  0  0  0
   -0.0530   -1.8792   -1.0639 H   0  0  0  0  0  0  0  0  0  0  0  0
    2.9591   -1.4838   -0.5652 H   0  0  0  0  0  0  0  0  0  0  0  0
    2.3237   -1.9651   -2.1407 H   0  0  0  0  0  0  0  0  0  0  0  0
    3.7952    0.3956   -0.8851 H   0  0  0  0  0  0  0  0  0  0  0  0
    2.9631    1.8092   -1.4282 H   0  0  0  0  0  0  0  0  0  0  0  0
   -0.1351   -4.2862   -0.5231 N   0  0  0  0  0  0  0  0  0  0  0  0
   -0.2033   -5.7255   -0.4403 C   0  0  2  0  0  0  0  0  0  0  0  0
    0.4161   -6.1503    0.8846 C   0  0  0  0  0  0  0  0  0  0  0  0
    1.2141   -5.4521    1.5064 O   0  0  0  0  0  0  0  0  0  0  0  0
    0.5130   -6.3816   -1.6104 C   0  0  0  0  0  0  0  0  0  0  0  0
   -1.0023   -3.7700   -0.6380 H   0  0  0  0  0  0  0  0  0  0  0  0
   -1.2656   -5.9928   -0.4499 H   0  0  0  0  0  0  0  0  0  0  0  0
    1.5787   -6.1253   -1.6175 H   0  0  0  0  0  0  0  0  0  0  0  0
    0.4359   -7.4728   -1.5614 H   0  0  0  0  0  0  0  0  0  0  0  0
    0.0855   -6.0520   -2.5635 H   0  0  0  0  0  0  0  0  0  0  0  0
    0.0060   -7.4191    1.2694 N   0  0  0  0  0  0  0  0  0  0  0  0
    0.4645   -8.0516    2.4842 C   0  0  0  0  0  0  0  0  0  0  0  0
   -0.6728   -7.9183    0.7022 H   0  0  0  0  0  0  0  0  0  0  0  0
    1.3523   -8.6636    2.2671 H   0  0  0  0  0  0  0  0  0  0  0  0
    0.7233   -7.2799    3.2241 H   0  0  0  0  0  0  0  0  0  0  0  0
   -0.3332   -8.6930    2.8871 H   0  0  0  0  0  0  0  0  0  0  0  0
  1  3  1  0  0  0  0
  1  7  1  0  0  0  0
  1  2  2  0  0  0  0
 21 22  1  0  0  0  0
 22 24  1  0  0  0  0
 22 23  2  0  0  0  0
 32 33  1  0  0  0  0
 33 41  1  0  0  0  0
 33 34  2  0  0  0  0
  8  9  1  0  0  0  0
  9 17  1  0  0  0  0
  9 10  2  0  0  0  0
 18 19  1  0  0  0  0
 19 31  1  0  0  0  0
 19 20  2  0  0  0  0
 32 35  1  0  0  0  0
  8 11  1  0  0  0  0
 41 42  1  0  0  0  0
 18 21  1  0  0  0  0
 31 32  1  0  0  0  0
  7  8  1  0  0  0  0
 17 18  1  0  0  0  0
  3  4  1  0  0  0  0
  3  5  1  0  0  0  0
  3  6  1  0  0  0  0
 35 38  1  0  0  0  0
 35 39  1  0  0  0  0
 35 40  1  0  0  0  0
 11 14  1  0  0  0  0
 11 15  1  0  0  0  0
 11 16  1  0  0  0  0
 42 44  1  0  0  0  0
 42 45  1  0  0  0  0
 42 46  1  0  0  0  0
 21 27  1  0  0  0  0
 21 28  1  0  0  0  0
 32 37  1  0  0  0  0
  8 13  1  0  0  0  0
 18 26  1  0  0  0  0
 24 29  1  0  0  0  0
 24 30  1  0  0  0  0
 41 43  1  0  0  0  0
  7 12  1  0  0  0  0
 31 36  1  0  0  0  0
 17 25  1  0  0  0  0
M  END
$$$$

  -OEChem-05262214473D

 46 45  0     1  0  0  0  0  0999 V2000
   -0.0543    1.9736    3.8406 C   0  0  0  0  0  0  0  0  0  0  0  0
    0.6744    1.6099    4.7562 O   0  0  0  0  0  0  0  0  0  0  0  0
   -0.5599    3.3779    3.8160 C   0  0  0  0  0  0  0  0  0  0  0  0
   -1.5202    3.4885    4.3450 H   0  0  0  0  0  0  0  0  0  0  0  0
    0.1282    4.0814    4.3116 H   0  0  0  0  0  0  0  0  0  0  0  0
   -0.7317    3.7994    2.8126 H   0  0  0  0  0  0  0  0  0  0  0  0
   -0.4812    1.1968    2.7762 N   0  0  0  0  0  0  0  0  0  0  0  0
   -0.1106   -0.1834    2.6051 C   0  0  2  0  0  0  0  0  0  0  0  0
   -0.0696   -0.4775    1.1113 C   0  0  0  0  0  0  0  0  0  0  0  0
   -0.6805    0.1900    0.2792 O   0  0  0  0  0  0  0  0  0  0  0  0
   -1.0852   -1.1101    3.3150 C   0  0  0  0  0  0  0  0  0  0  0  0
   -1.0883    1.6241    2.0791 H   0  0  0  0  0  0  0  0  0  0  0  0
    0.8937   -0.2959    3.0277 H   0  0  0  0  0  0  0  0  0  0  0  0
   -2.0970   -1.0114    2.9051 H   0  0  0  0  0  0  0  0  0  0  0  0
   -0.7860   -2.1580    3.2078 H   0  0  0  0  0  0  0  0  0  0  0  0
   -1.1357   -0.8775    4.3842 H   0  0  0  0  0  0  0  0  0  0  0  0
    0.6950   -1.6003    0.8178 N   0  0  0  0  0  0  0  0  0  0  0  0
    0.8777   -2.0908   -0.5246 C   0  0  2  0  0  0  0  0  0  0  0  0
    1.0684   -3.6000   -0.4403 C   0  0  0  0  0  0  0  0  0  0  0  0
    2.0953   -4.1245   -0.0138 O   0  0  0  0  0  0  0  0  0  0  0  0
    2.0746   -1.4344   -1.2128 C   0  0  0  0  0  0  0  0  0  0  0  0
    1.8450    0.0301   -1.5424 C   0  0  0  0  0  0  0  0  0  0  0  0
    0.7965    0.4763   -1.9986 O   0  0  0  0  0  0  0  0  0  0  0  0
    2.9496    0.8074   -1.2655 N   0  0  0  0  0  0  0  0  0  0  0  0
    1.1810   -2.0803    1.5718 H   0  0  0  0  0  0  0  0  0  0  0  0
   -0.0530   -1.8792   -1.0639 H   0  0  0  0  0  0  0  0  0  0  0  0
    2.9591   -1.4838   -0.5652 H   0  0  0  0  0  0  0  0  0  0  0  0
    2.3237   -1.9651   -2.1407 H   0  0  0  0  0  0  0  0  0  0  0  0
    3.7952    0.3956   -0.8851 H   0  0  0  0  0  0  0  0  0  0  0  0
    2.9631    1.8092   -1.4282 H   0  0  0  0  0  0  0  0  0  0  0  0
   -0.0608   -4.2951   -0.8501 N   0  0  0  0  0  0  0  0  0  0  0  0
   -0.1213   -5.7370   -0.8316 C   0  0  2  0  0  0  0  0  0  0  0  0
    0.1459   -6.2006    0.5943 C   0  0  0  0  0  0  0  0  0  0  0  0
    0.7449   -5.5161    1.4211 O   0  0  0  0  0  0  0  0  0  0  0  0
    0.8829   -6.3454   -1.7981 C   0  0  0  0  0  0  0  0  0  0  0  0
   -0.8791   -3.7840   -1.1679 H   0  0  0  0  0  0  0  0  0  0  0  0
   -1.1406   -6.0145   -1.1216 H   0  0  0  0  0  0  0  0  0  0  0  0
    1.9099   -6.0782   -1.5237 H   0  0  0  0  0  0  0  0  0  0  0  0
    0.8160   -7.4383   -1.8039 H   0  0  0  0  0  0  0  0  0  0  0  0
    0.7078   -5.9876   -2.8185 H   0  0  0  0  0  0  0  0  0  0  0  0
   -0.3255   -7.4860    0.8221 N   0  0  0  0  0  0  0  0  0  0  0  0
   -0.1819   -8.1551    2.0940 C   0  0  0  0  0  0  0  0  0  0  0  0
   -0.8270   -7.9723    0.0847 H   0  0  0  0  0  0  0  0  0  0  0  0
    0.7431   -8.7503    2.0933 H   0  0  0  0  0  0  0  0  0  0  0  0
   -0.1356   -7.4066    2.8987 H   0  0  0  0  0  0  0  0  0  0  0  0
   -1.0441   -8.8179    2.2589 H   0  0  0  0  0  0  0  0  0  0  0  0
  1  3  1  0  0  0  0
  1  7  1  0  0  0  0
  1  2  2  0  0  0  0
 21 22  1  0  0  0  0
 22 24  1  0  0  0  0
 22 23  2  0  0  0  0
 32 33  1  0  0  0  0
 33 41  1  0  0  0  0
 33 34  2  0  0  0  0
  8  9  1  0  0  0  0
  9 17  1  0  0  0  0
  9 10  2  0  0  0  0
 18 19  1  0  0  0  0
 19 31  1  0  0  0  0
 19 20  2  0  0  0  0
 32 35  1  0  0  0  0
  8 11  1  0  0  0  0
 41 42  1  0  0  0  0
 18 21  1  0  0  0  0
 31 32  1  0  0  0  0
  7  8  1  0  0  0  0
 17 18  1  0  0  0  0
  3  4  1  0  0  0  0
  3  5  1  0  0  0  0
  3  6  1  0  0  0  0
 35 38  1  0  0  0  0
 35 39  1  0  0  0  0
 35 40  1  0  0  0  0
 11 14  1  0  0  0  0
 11 15  1  0  0  0  0
 11 16  1  0  0  0  0
 42 44  1  0  0  0  0
 42 45  1  0  0  0  0
 42 46  1  0  0  0  0
 21 27  1  0  0  0  0
 21 28  1  0  0  0  0
 32 37  1  0  0  0  0
  8 13  1  0  0  0  0
 18 26  1  0  0  0  0
 24 29  1  0  0  0  0
 24 30  1  0  0  0  0
 41 43  1  0  0  0  0
  7 12  1  0  0  0  0
 31 36  1  0  0  0  0
 17 25  1  0  0  0  0
M  END
$$$$

  -OEChem-05262214473D

 46 45  0     1  0  0  0  0  0999 V2000
   -0.0543    1.9736    3.8406 C   0  0  0  0  0  0  0  0  0  0  0  0
    0.6744    1.6099    4.7562 O   0  0  0  0  0  0  0  0  0  0  0  0
   -0.5599    3.3779    3.8160 C   0  0  0  0  0  0  0  0  0  0  0  0
   -1.5202    3.4885    4.3450 H   0  0  0  0  0  0  0  0  0  0  0  0
    0.1282    4.0814    4.3116 H   0  0  0  0  0  0  0  0  0  0  0  0
   -0.7317    3.7994    2.8126 H   0  0  0  0  0  0  0  0  0  0  0  0
   -0.4812    1.1968    2.7762 N   0  0  0  0  0  0  0  0  0  0  0  0
   -0.1106   -0.1834    2.6051 C   0  0  2  0  0  0  0  0  0  0  0  0
   -0.0696   -0.4775    1.1113 C   0  0  0  0  0  0  0  0  0  0  0  0
   -0.6805    0.1900    0.2792 O   0  0  0  0  0  0  0  0  0  0  0  0
   -1.0852   -1.1101    3.3150 C   0  0  0  0  0  0  0  0  0  0  0  0
   -1.0883    1.6241    2.0791 H   0  0  0  0  0  0  0  0  0  0  0  0
    0.8937   -0.2959    3.0277 H   0  0  0  0  0  0  0  0  0  0  0  0
   -2.0970   -1.0114    2.9051 H   0  0  0  0  0  0  0  0  0  0  0  0
   -0.7860   -2.1580    3.2078 H   0  0  0  0  0  0  0  0  0  0  0  0
   -1.1357   -0.8775    4.3842 H   0  0  0  0  0  0  0  0  0  0  0  0
    0.6950   -1.6003    0.8178 N   0  0  0  0  0  0  0  0  0  0  0  0
    0.8777   -2.0908   -0.5246 C   0  0  2  0  0  0  0  0  0  0  0  0
    1.0684   -3.6000   -0.4403 C   0  0  0  0  0  0  0  0  0  0  0  0
    1.9613   -4.1284    0.2192 O   0  0  0  0  0  0  0  0  0  0  0  0
    2.0746   -1.4344   -1.2128 C   0  0  0  0  0  0  0  0  0  0  0  0
    1.8450    0.0301   -1.5424 C   0  0  0  0  0  0  0  0  0  0  0  0
    0.7965    0.4763   -1.9986 O   0  0  0  0  0  0  0  0  0  0  0  0
    2.9496    0.8074   -1.2655 N   0  0  0  0  0  0  0  0  0  0  0  0
    1.1810   -2.0803    1.5718 H   0  0  0  0  0  0  0  0  0  0  0  0
   -0.0530   -1.8792   -1.0639 H   0  0  0  0  0  0  0  0  0  0  0  0
    2.9591   -1.4838   -0.5652 H   0  0  0  0  0  0  0  0  0  0  0  0
    2.3237   -1.9651   -2.1407 H   0  0  0  0  0  0  0  0  0  0  0  0
    3.7952    0.3956   -0.8851 H   0  0  0  0  0  0  0  0  0  0  0  0
    2.9631    1.8092   -1.4282 H   0  0  0  0  0  0  0  0  0  0  0  0
    0.0949   -4.2920   -1.1472 N   0  0  0  0  0  0  0  0  0  0  0  0
    0.0584   -5.7342   -1.1888 C   0  0  2  0  0  0  0  0  0  0  0  0
   -0.0400   -6.2437    0.2430 C   0  0  0  0  0  0  0  0  0  0  0  0
    0.3145   -5.5819    1.2164 O   0  0  0  0  0  0  0  0  0  0  0  0
    1.2878   -6.2990   -1.8834 C   0  0  0  0  0  0  0  0  0  0  0  0
   -0.6240   -3.7786   -1.6485 H   0  0  0  0  0  0  0  0  0  0  0  0
   -0.8472   -6.0119   -1.7390 H   0  0  0  0  0  0  0  0  0  0  0  0
    2.2051   -6.0310   -1.3466 H   0  0  0  0  0  0  0  0  0  0  0  0
    1.2449   -7.3917   -1.9395 H   0  0  0  0  0  0  0  0  0  0  0  0
    1.3733   -5.9082   -2.9031 H   0  0  0  0  0  0  0  0  0  0  0  0
   -0.5301   -7.5408    0.3028 N   0  0  0  0  0  0  0  0  0  0  0  0
   -0.7047   -8.2516    1.5479 C   0  0  0  0  0  0  0  0  0  0  0  0
   -0.8169   -8.0066   -0.5530 H   0  0  0  0  0  0  0  0  0  0  0  0
    0.2005   -8.8371    1.7666 H   0  0  0  0  0  0  0  0  0  0  0  0
   -0.8799   -7.5307    2.3601 H   0  0  0  0  0  0  0  0  0  0  0  0
   -1.5680   -8.9283    1.4657 H   0  0  0  0  0  0  0  0  0  0  0  0
  1  3  1  0  0  0  0
  1  7  1  0  0  0  0
  1  2  2  0  0  0  0
 21 22  1  0  0  0  0
 22 24  1  0  0  0  0
 22 23  2  0  0  0  0
 32 33  1  0  0  0  0
 33 41  1  0  0  0  0
 33 34  2  0  0  0  0
  8  9  1  0  0  0  0
  9 17  1  0  0  0  0
  9 10  2  0  0  0  0
 18 19  1  0  0  0  0
 19 31  1  0  0  0  0
 19 20  2  0  0  0  0
 32 35  1  0  0  0  0
  8 11  1  0  0  0  0
 41 42  1  0  0  0  0
 18 21  1  0  0  0  0
 31 32  1  0  0  0  0
  7  8  1  0  0  0  0
 17 18  1  0  0  0  0
  3  4  1  0  0  0  0
  3  5  1  0  0  0  0
  3  6  1  0  0  0  0
 35 38  1  0  0  0  0
 35 39  1  0  0  0  0
 35 40  1  0  0  0  0
 11 14  1  0  0  0  0
 11 15  1  0  0  0  0
 11 16  1  0  0  0  0
 42 44  1  0  0  0  0
 42 45  1  0  0  0  0
 42 46  1  0  0  0  0
 21 27  1  0  0  0  0
 21 28  1  0  0  0  0
 32 37  1  0  0  0  0
  8 13  1  0  0  0  0
 18 26  1  0  0  0  0
 24 29  1  0  0  0  0
 24 30  1  0  0  0  0
 41 43  1  0  0  0  0
  7 12  1  0  0  0  0
 31 36  1  0  0  0  0
 17 25  1  0  0  0  0
M  END
$$$$

  -OEChem-05262214473D

 46 45  0     1  0  0  0  0  0999 V2000
   -0.0543    1.9736    3.8406 C   0  0  0  0  0  0  0  0  0  0  0  0
    0.6744    1.6099    4.7562 O   0  0  0  0  0  0  0  0  0  0  0  0
   -0.5599    3.3779    3.8160 C   0  0  0  0  0  0  0  0  0  0  0  0
   -1.5202    3.4885    4.3450 H   0  0  0  0  0  0  0  0  0  0  0  0
    0.1282    4.0814    4.3116 H   0  0  0  0  0  0  0  0  0  0  0  0
   -0.7317    3.7994    2.8126 H   0  0  0  0  0  0  0  0  0  0  0  0
   -0.4812    1.1968    2.7762 N   0  0  0  0  0  0  0  0  0  0  0  0
   -0.1106   -0.1834    2.6051 C   0  0  2  0  0  0  0  0  0  0  0  0
   -0.0696   -0.4775    1.1113 C   0  0  0  0  0  0  0  0  0  0  0  0
   -0.6805    0.1900    0.2792 O   0  0  0  0  0  0  0  0  0  0  0  0
   -1.0852   -1.1101    3.3150 C   0  0  0  0  0  0  0  0  0  0  0  0
   -1.0883    1.6241    2.0791 H   0  0  0  0  0  0  0  0  0  0  0  0
    0.8937   -0.2959    3.0277 H   0  0  0  0  0  0  0  0  0  0  0  0
   -2.0970   -1.0114    2.9051 H   0  0  0  0  0  0  0  0  0  0  0  0
   -0.7860   -2.1580    3.2078 H   0  0  0  0  0  0  0  0  0  0  0  0
   -1.1357   -0.8775    4.3842 H   0  0  0  0  0  0  0  0  0  0  0  0
    0.6950   -1.6003    0.8178 N   0  0  0  0  0  0  0  0  0  0  0  0
    0.8777   -2.0908   -0.5246 C   0  0  2  0  0  0  0  0  0  0  0  0
    1.0684   -3.6000   -0.4403 C   0  0  0  0  0  0  0  0  0  0  0  0
    1.7722   -4.1417    0.4098 O   0  0  0  0  0  0  0  0  0  0  0  0
    2.0746   -1.4344   -1.2128 C   0  0  0  0  0  0  0  0  0  0  0  0
    1.8450    0.0301   -1.5424 C   0  0  0  0  0  0  0  0  0  0  0  0
    0.7965    0.4763   -1.9986 O   0  0  0  0  0  0  0  0  0  0  0  0
    2.9496    0.8074   -1.2655 N   0  0  0  0  0  0  0  0  0  0  0  0
    1.1810   -2.0803    1.5718 H   0  0  0  0  0  0  0  0  0  0  0  0
   -0.0530   -1.8792   -1.0639 H   0  0  0  0  0  0  0  0  0  0  0  0
    2.9591   -1.4838   -0.5652 H   0  0  0  0  0  0  0  0  0  0  0  0
    2.3237   -1.9651   -2.1407 H   0  0  0  0  0  0  0  0  0  0  0  0
    3.7952    0.3956   -0.8851 H   0  0  0  0  0  0  0  0  0  0  0  0
    2.9631    1.8092   -1.4282 H   0  0  0  0  0  0  0  0  0  0  0  0
    0.3215   -4.2771   -1.3941 N   0  0  0  0  0  0  0  0  0  0  0  0
    0.3236   -5.7174   -1.4877 C   0  0  2  0  0  0  0  0  0  0  0  0
   -0.1289   -6.2766   -0.1454 C   0  0  0  0  0  0  0  0  0  0  0  0
   -0.0479   -5.6450    0.9061 O   0  0  0  0  0  0  0  0  0  0  0  0
    1.7001   -6.2456   -1.8605 C   0  0  0  0  0  0  0  0  0  0  0  0
   -0.2545   -3.7542   -2.0472 H   0  0  0  0  0  0  0  0  0  0  0  0
   -0.4056   -5.9852   -2.2601 H   0  0  0  0  0  0  0  0  0  0  0  0
    2.4442   -5.9870   -1.0983 H   0  0  0  0  0  0  0  0  0  0  0  0
    1.6933   -7.3361   -1.9591 H   0  0  0  0  0  0  0  0  0  0  0  0
    2.0367   -5.8193   -2.8117 H   0  0  0  0  0  0  0  0  0  0  0  0
   -0.5938   -7.5799   -0.2529 N   0  0  0  0  0  0  0  0  0  0  0  0
   -1.0683   -8.3346    0.8834 C   0  0  0  0  0  0  0  0  0  0  0  0
   -0.6431   -8.0189   -1.1676 H   0  0  0  0  0  0  0  0  0  0  0  0
   -0.2386   -8.9181    1.3090 H   0  0  0  0  0  0  0  0  0  0  0  0
   -1.4591   -7.6438    1.6450 H   0  0  0  0  0  0  0  0  0  0  0  0
   -1.8690   -9.0168    0.5618 H   0  0  0  0  0  0  0  0  0  0  0  0
  1  3  1  0  0  0  0
  1  7  1  0  0  0  0
  1  2  2  0  0  0  0
 21 22  1  0  0  0  0
 22 24  1  0  0  0  0
 22 23  2  0  0  0  0
 32 33  1  0  0  0  0
 33 41  1  0  0  0  0
 33 34  2  0  0  0  0
  8  9  1  0  0  0  0
  9 17  1  0  0  0  0
  9 10  2  0  0  0  0
 18 19  1  0  0  0  0
 19 31  1  0  0  0  0
 19 20  2  0  0  0  0
 32 35  1  0  0  0  0
  8 11  1  0  0  0  0
 41 42  1  0  0  0  0
 18 21  1  0  0  0  0
 31 32  1  0  0  0  0
  7  8  1  0  0  0  0
 17 18  1  0  0  0  0
  3  4  1  0  0  0  0
  3  5  1  0  0  0  0
  3  6  1  0  0  0  0
 35 38  1  0  0  0  0
 35 39  1  0  0  0  0
 35 40  1  0  0  0  0
 11 14  1  0  0  0  0
 11 15  1  0  0  0  0
 11 16  1  0  0  0  0
 42 44  1  0  0  0  0
 42 45  1  0  0  0  0
 42 46  1  0  0  0  0
 21 27  1  0  0  0  0
 21 28  1  0  0  0  0
 32 37  1  0  0  0  0
  8 13  1  0  0  0  0
 18 26  1  0  0  0  0
 24 29  1  0  0  0  0
 24 30  1  0  0  0  0
 41 43  1  0  0  0  0
  7 12  1  0  0  0  0
 31 36  1  0  0  0  0
 17 25  1  0  0  0  0
M  END
$$$$

  -OEChem-05262214473D

 46 45  0     1  0  0  0  0  0999 V2000
   -0.0543    1.9736    3.8406 C   0  0  0  0  0  0  0  0  0  0  0  0
    0.6744    1.6099    4.7562 O   0  0  0  0  0  0  0  0  0  0  0  0
   -0.5599    3.3779    3.8160 C   0  0  0  0  0  0  0  0  0  0  0  0
   -1.5202    3.4885    4.3450 H   0  0  0  0  0  0  0  0  0  0  0  0
    0.1282    4.0814    4.3116 H   0  0  0  0  0  0  0  0  0  0  0  0
   -0.7317    3.7994    2.8126 H   0  0  0  0  0  0  0  0  0  0  0  0
   -0.4812    1.1968    2.7762 N   0  0  0  0  0  0  0  0  0  0  0  0
   -0.1106   -0.1834    2.6051 C   0  0  2  0  0  0  0  0  0  0  0  0
   -0.0696   -0.4775    1.1113 C   0  0  0  0  0  0  0  0  0  0  0  0
   -0.6805    0.1900    0.2792 O   0  0  0  0  0  0  0  0  0  0  0  0
   -1.0852   -1.1101    3.3150 C   0  0  0  0  0  0  0  0  0  0  0  0
   -1.0883    1.6241    2.0791 H   0  0  0  0  0  0  0  0  0  0  0  0
    0.8937   -0.2959    3.0277 H   0  0  0  0  0  0  0  0  0  0  0  0
   -2.0970   -1.0114    2.9051 H   0  0  0  0  0  0  0  0  0  0  0  0
   -0.7860   -2.1580    3.2078 H   0  0  0  0  0  0  0  0  0  0  0  0
   -1.1357   -0.8775    4.3842 H   0  0  0  0  0  0  0  0  0  0  0  0
    0.6950   -1.6003    0.8178 N   0  0  0  0  0  0  0  0  0  0  0  0
    0.8777   -2.0908   -0.5246 C   0  0  2  0  0  0  0  0  0  0  0  0
    1.0684   -3.6000   -0.4403 C   0  0  0  0  0  0  0  0  0  0  0  0
    1.5408   -4.1633    0.5450 O   0  0  0  0  0  0  0  0  0  0  0  0
    2.0746   -1.4344   -1.2128 C   0  0  0  0  0  0  0  0  0  0  0  0
    1.8450    0.0301   -1.5424 C   0  0  0  0  0  0  0  0  0  0  0  0
    0.7965    0.4763   -1.9986 O   0  0  0  0  0  0  0  0  0  0  0  0
    2.9496    0.8074   -1.2655 N   0  0  0  0  0  0  0  0  0  0  0  0
    1.1810   -2.0803    1.5718 H   0  0  0  0  0  0  0  0  0  0  0  0
   -0.0530   -1.8792   -1.0639 H   0  0  0  0  0  0  0  0  0  0  0  0
    2.9591   -1.4838   -0.5652 H   0  0  0  0  0  0  0  0  0  0  0  0
    2.3237   -1.9651   -2.1407 H   0  0  0  0  0  0  0  0  0  0  0  0
    3.7952    0.3956   -0.8851 H   0  0  0  0  0  0  0  0  0  0  0  0
    2.9631    1.8092   -1.4282 H   0  0  0  0  0  0  0  0  0  0  0  0
    0.6034   -4.2515   -1.5740 N   0  0  0  0  0  0  0  0  0  0  0  0
    0.6561   -5.6876   -1.7079 C   0  0  2  0  0  0  0  0  0  0  0  0
   -0.1147   -6.2971   -0.5444 C   0  0  0  0  0  0  0  0  0  0  0  0
   -0.3174   -5.7011    0.5115 O   0  0  0  0  0  0  0  0  0  0  0  0
    2.0917   -6.1889   -1.7309 C   0  0  0  0  0  0  0  0  0  0  0  0
    0.2044   -3.7123   -2.3368 H   0  0  0  0  0  0  0  0  0  0  0  0
    0.1542   -5.9362   -2.6494 H   0  0  0  0  0  0  0  0  0  0  0  0
    2.6108   -5.9490   -0.7958 H   0  0  0  0  0  0  0  0  0  0  0  0
    2.1306   -7.2754   -1.8612 H   0  0  0  0  0  0  0  0  0  0  0  0
    2.6528   -5.7268   -2.5504 H   0  0  0  0  0  0  0  0  0  0  0  0
   -0.5123   -7.6005   -0.8074 N   0  0  0  0  0  0  0  0  0  0  0  0
   -1.2479   -8.3985    0.1455 C   0  0  0  0  0  0  0  0  0  0  0  0
   -0.3176   -8.0084   -1.7170 H   0  0  0  0  0  0  0  0  0  0  0  0
   -0.5443   -8.9879    0.7518 H   0  0  0  0  0  0  0  0  0  0  0  0
   -1.8335   -7.7381    0.8021 H   0  0  0  0  0  0  0  0  0  0  0  0
   -1.9268   -9.0773   -0.3915 H   0  0  0  0  0  0  0  0  0  0  0  0
  1  3  1  0  0  0  0
  1  7  1  0  0  0  0
  1  2  2  0  0  0  0
 21 22  1  0  0  0  0
 22 24  1  0  0  0  0
 22 23  2  0  0  0  0
 32 33  1  0  0  0  0
 33 41  1  0  0  0  0
 33 34  2  0  0  0  0
  8  9  1  0  0  0  0
  9 17  1  0  0  0  0
  9 10  2  0  0  0  0
 18 19  1  0  0  0  0
 19 31  1  0  0  0  0
 19 20  2  0  0  0  0
 32 35  1  0  0  0  0
  8 11  1  0  0  0  0
 41 42  1  0  0  0  0
 18 21  1  0  0  0  0
 31 32  1  0  0  0  0
  7  8  1  0  0  0  0
 17 18  1  0  0  0  0
  3  4  1  0  0  0  0
  3  5  1  0  0  0  0
  3  6  1  0  0  0  0
 35 38  1  0  0  0  0
 35 39  1  0  0  0  0
 35 40  1  0  0  0  0
 11 14  1  0  0  0  0
 11 15  1  0  0  0  0
 11 16  1  0  0  0  0
 42 44  1  0  0  0  0
 42 45  1  0  0  0  0
 42 46  1  0  0  0  0
 21 27  1  0  0  0  0
 21 28  1  0  0  0  0
 32 37  1  0  0  0  0
  8 13  1  0  0  0  0
 18 26  1  0  0  0  0
 24 29  1  0  0  0  0
 24 30  1  0  0  0  0
 41 43  1  0  0  0  0
  7 12  1  0  0  0  0
 31 36  1  0  0  0  0
 17 25  1  0  0  0  0
M  END
$$$$

  -OEChem-05262214473D

 46 45  0     1  0  0  0  0  0999 V2000
   -0.0543    1.9736    3.8406 C   0  0  0  0  0  0  0  0  0  0  0  0
    0.6744    1.6099    4.7562 O   0  0  0  0  0  0  0  0  0  0  0  0
   -0.5599    3.3779    3.8160 C   0  0  0  0  0  0  0  0  0  0  0  0
   -1.5202    3.4885    4.3450 H   0  0  0  0  0  0  0  0  0  0  0  0
    0.1282    4.0814    4.3116 H   0  0  0  0  0  0  0  0  0  0  0  0
   -0.7317    3.7994    2.8126 H   0  0  0  0  0  0  0  0  0  0  0  0
   -0.4812    1.1968    2.7762 N   0  0  0  0  0  0  0  0  0  0  0  0
   -0.1106   -0.1834    2.6051 C   0  0  2  0  0  0  0  0  0  0  0  0
   -0.0696   -0.4775    1.1113 C   0  0  0  0  0  0  0  0  0  0  0  0
   -0.6805    0.1900    0.2792 O   0  0  0  0  0  0  0  0  0  0  0  0
   -1.0852   -1.1101    3.3150 C   0  0  0  0  0  0  0  0  0  0  0  0
   -1.0883    1.6241    2.0791 H   0  0  0  0  0  0  0  0  0  0  0  0
    0.8937   -0.2959    3.0277 H   0  0  0  0  0  0  0  0  0  0  0  0
   -2.0970   -1.0114    2.9051 H   0  0  0  0  0  0  0  0  0  0  0  0
   -0.7860   -2.1580    3.2078 H   0  0  0  0  0  0  0  0  0  0  0  0
   -1.1357   -0.8775    4.3842 H   0  0  0  0  0  0  0  0  0  0  0  0
    0.6950   -1.6003    0.8178 N   0  0  0  0  0  0  0  0  0  0  0  0
    0.8777   -2.0908   -0.5246 C   0  0  2  0  0  0  0  0  0  0  0  0
    1.0684   -3.6000   -0.4403 C   0  0  0  0  0  0  0  0  0  0  0  0
    1.2830   -4.1920    0.6156 O   0  0  0  0  0  0  0  0  0  0  0  0
    2.0746   -1.4344   -1.2128 C   0  0  0  0  0  0  0  0  0  0  0  0
    1.8450    0.0301   -1.5424 C   0  0  0  0  0  0  0  0  0  0  0  0
    0.7965    0.4763   -1.9986 O   0  0  0  0  0  0  0  0  0  0  0  0
    2.9496    0.8074   -1.2655 N   0  0  0  0  0  0  0  0  0  0  0  0
    1.1810   -2.0803    1.5718 H   0  0  0  0  0  0  0  0  0  0  0  0
   -0.0530   -1.8792   -1.0639 H   0  0  0  0  0  0  0  0  0  0  0  0
    2.9591   -1.4838   -0.5652 H   0  0  0  0  0  0  0  0  0  0  0  0
    2.3237   -1.9651   -2.1407 H   0  0  0  0  0  0  0  0  0  0  0  0
    3.7952    0.3956   -0.8851 H   0  0  0  0  0  0  0  0  0  0  0  0
    2.9631    1.8092   -1.4282 H   0  0  0  0  0  0  0  0  0  0  0  0
    0.9214   -4.2170   -1.6747 N   0  0  0  0  0  0  0  0  0  0  0  0
    1.0333   -5.6470   -1.8344 C   0  0  2  0  0  0  0  0  0  0  0  0
    0.0016   -6.3037   -0.9268 C   0  0  0  0  0  0  0  0  0  0  0  0
   -0.4758   -5.7464    0.0594 O   0  0  0  0  0  0  0  0  0  0  0  0
    2.4360   -6.1327   -1.5035 C   0  0  0  0  0  0  0  0  0  0  0  0
    0.7212   -3.6560   -2.4975 H   0  0  0  0  0  0  0  0  0  0  0  0
    0.7940   -5.8682   -2.8803 H   0  0  0  0  0  0  0  0  0  0  0  0
    2.6937   -5.9198   -0.4596 H   0  0  0  0  0  0  0  0  0  0  0  0
    2.5270   -7.2136   -1.6526 H   0  0  0  0  0  0  0  0  0  0  0  0
    3.1795   -5.6372   -2.1371 H   0  0  0  0  0  0  0  0  0  0  0  0
   -0.2911   -7.6013   -1.3227 N   0  0  0  0  0  0  0  0  0  0  0  0
   -1.2314   -8.4389   -0.6153 C   0  0  0  0  0  0  0  0  0  0  0  0
    0.1376   -7.9758   -2.1639 H   0  0  0  0  0  0  0  0  0  0  0  0
   -0.6957   -9.0415    0.1329 H   0  0  0  0  0  0  0  0  0  0  0  0
   -1.9777   -7.8073   -0.1112 H   0  0  0  0  0  0  0  0  0  0  0  0
   -1.7373   -9.1057   -1.3290 H   0  0  0  0  0  0  0  0  0  0  0  0
  1  3  1  0  0  0  0
  1  7  1  0  0  0  0
  1  2  2  0  0  0  0
 21 22  1  0  0  0  0
 22 24  1  0  0  0  0
 22 23  2  0  0  0  0
 32 33  1  0  0  0  0
 33 41  1  0  0  0  0
 33 34  2  0  0  0  0
  8  9  1  0  0  0  0
  9 17  1  0  0  0  0
  9 10  2  0  0  0  0
 18 19  1  0  0  0  0
 19 31  1  0  0  0  0
 19 20  2  0  0  0  0
 32 35  1  0  0  0  0
  8 11  1  0  0  0  0
 41 42  1  0  0  0  0
 18 21  1  0  0  0  0
 31 32  1  0  0  0  0
  7  8  1  0  0  0  0
 17 18  1  0  0  0  0
  3  4  1  0  0  0  0
  3  5  1  0  0  0  0
  3  6  1  0  0  0  0
 35 38  1  0  0  0  0
 35 39  1  0  0  0  0
 35 40  1  0  0  0  0
 11 14  1  0  0  0  0
 11 15  1  0  0  0  0
 11 16  1  0  0  0  0
 42 44  1  0  0  0  0
 42 45  1  0  0  0  0
 42 46  1  0  0  0  0
 21 27  1  0  0  0  0
 21 28  1  0  0  0  0
 32 37  1  0  0  0  0
  8 13  1  0  0  0  0
 18 26  1  0  0  0  0
 24 29  1  0  0  0  0
 24 30  1  0  0  0  0
 41 43  1  0  0  0  0
  7 12  1  0  0  0  0
 31 36  1  0  0  0  0
 17 25  1  0  0  0  0
M  END
$$$$

  -OEChem-05262214473D

 46 45  0     1  0  0  0  0  0999 V2000
   -0.0543    1.9736    3.8406 C   0  0  0  0  0  0  0  0  0  0  0  0
    0.6744    1.6099    4.7562 O   0  0  0  0  0  0  0  0  0  0  0  0
   -0.5599    3.3779    3.8160 C   0  0  0  0  0  0  0  0  0  0  0  0
   -1.5202    3.4885    4.3450 H   0  0  0  0  0  0  0  0  0  0  0  0
    0.1282    4.0814    4.3116 H   0  0  0  0  0  0  0  0  0  0  0  0
   -0.7317    3.7994    2.8126 H   0  0  0  0  0  0  0  0  0  0  0  0
   -0.4812    1.1968    2.7762 N   0  0  0  0  0  0  0  0  0  0  0  0
   -0.1106   -0.1834    2.6051 C   0  0  2  0  0  0  0  0  0  0  0  0
   -0.0696   -0.4775    1.1113 C   0  0  0  0  0  0  0  0  0  0  0  0
   -0.6805    0.1900    0.2792 O   0  0  0  0  0  0  0  0  0  0  0  0
   -1.0852   -1.1101    3.3150 C   0  0  0  0  0  0  0  0  0  0  0  0
   -1.0883    1.6241    2.0791 H   0  0  0  0  0  0  0  0  0  0  0  0
    0.8937   -0.2959    3.0277 H   0  0  0  0  0  0  0  0  0  0  0  0
   -2.0970   -1.0114    2.9051 H   0  0  0  0  0  0  0  0  0  0  0  0
   -0.7860   -2.1580    3.2078 H   0  0  0  0  0  0  0  0  0  0  0  0
   -1.1357   -0.8775    4.3842 H   0  0  0  0  0  0  0  0  0  0  0  0
    0.6950   -1.6003    0.8178 N   0  0  0  0  0  0  0  0  0  0  0  0
    0.8777   -2.0908   -0.5246 C   0  0  2  0  0  0  0  0  0  0  0  0
    0.6925   -3.6027   -0.4905 C   0  0  0  0  0  0  0  0  0  0  0  0
    0.3949   -4.2201    0.5301 O   0  0  0  0  0  0  0  0  0  0  0  0
    2.2553   -1.7294   -1.0804 C   0  0  0  0  0  0  0  0  0  0  0  0
    2.4146   -0.2461   -1.3640 C   0  0  0  0  0  0  0  0  0  0  0  0
    1.5503    0.4511   -1.8869 O   0  0  0  0  0  0  0  0  0  0  0  0
    3.6430    0.2337   -0.9615 N   0  0  0  0  0  0  0  0  0  0  0  0
    1.1810   -2.0803    1.5718 H   0  0  0  0  0  0  0  0  0  0  0  0
    0.0786   -1.6479   -1.1305 H   0  0  0  0  0  0  0  0  0  0  0  0
    3.0386   -2.0062   -0.3635 H   0  0  0  0  0  0  0  0  0  0  0  0
    2.4543   -2.2841   -2.0064 H   0  0  0  0  0  0  0  0  0  0  0  0
    4.3265   -0.3792   -0.5297 H   0  0  0  0  0  0  0  0  0  0  0  0
    3.9111    1.2057   -1.0787 H   0  0  0  0  0  0  0  0  0  0  0  0
    0.8490   -4.1786   -1.7434 N   0  0  0  0  0  0  0  0  0  0  0  0
    0.6933   -5.5972   -1.9591 C   0  0  2  0  0  0  0  0  0  0  0  0
   -0.7051   -5.9916   -1.5026 C   0  0  0  0  0  0  0  0  0  0  0  0
   -1.3589   -5.3318   -0.6976 O   0  0  0  0  0  0  0  0  0  0  0  0
    1.7534   -6.3903   -1.2108 C   0  0  0  0  0  0  0  0  0  0  0  0
    1.0727   -3.5929   -2.5426 H   0  0  0  0  0  0  0  0  0  0  0  0
    0.7871   -5.7653   -3.0376 H   0  0  0  0  0  0  0  0  0  0  0  0
    1.6752   -6.2345   -0.1286 H   0  0  0  0  0  0  0  0  0  0  0  0
    1.6514   -7.4643   -1.3983 H   0  0  0  0  0  0  0  0  0  0  0  0
    2.7590   -6.0843   -1.5188 H   0  0  0  0  0  0  0  0  0  0  0  0
   -1.1197   -7.1899   -2.0669 N   0  0  0  0  0  0  0  0  0  0  0  0
   -2.4051   -7.7829   -1.7806 C   0  0  0  0  0  0  0  0  0  0  0  0
   -0.5202   -7.6595   -2.7391 H   0  0  0  0  0  0  0  0  0  0  0  0
   -2.3059   -8.4870   -0.9413 H   0  0  0  0  0  0  0  0  0  0  0  0
   -3.1220   -6.9926   -1.5133 H   0  0  0  0  0  0  0  0  0  0  0  0
   -2.7668   -8.3207   -2.6694 H   0  0  0  0  0  0  0  0  0  0  0  0
  1  3  1  0  0  0  0
  1  7  1  0  0  0  0
  1  2  2  0  0  0  0
 21 22  1  0  0  0  0
 22 24  1  0  0  0  0
 22 23  2  0  0  0  0
 32 33  1  0  0  0  0
 33 41  1  0  0  0  0
 33 34  2  0  0  0  0
  8  9  1  0  0  0  0
  9 17  1  0  0  0  0
  9 10  2  0  0  0  0
 18 19  1  0  0  0  0
 19 31  1  0  0  0  0
 19 20  2  0  0  0  0
 32 35  1  0  0  0  0
  8 11  1  0  0  0  0
 41 42  1  0  0  0  0
 18 21  1  0  0  0  0
 31 32  1  0  0  0  0
  7  8  1  0  0  0  0
 17 18  1  0  0  0  0
  3  4  1  0  0  0  0
  3  5  1  0  0  0  0
  3  6  1  0  0  0  0
 35 38  1  0  0  0  0
 35 39  1  0  0  0  0
 35 40  1  0  0  0  0
 11 14  1  0  0  0  0
 11 15  1  0  0  0  0
 11 16  1  0  0  0  0
 42 44  1  0  0  0  0
 42 45  1  0  0  0  0
 42 46  1  0  0  0  0
 21 27  1  0  0  0  0
 21 28  1  0  0  0  0
 32 37  1  0  0  0  0
  8 13  1  0  0  0  0
 18 26  1  0  0  0  0
 24 29  1  0  0  0  0
 24 30  1  0  0  0  0
 41 43  1  0  0  0  0
  7 12  1  0  0  0  0
 31 36  1  0  0  0  0
 17 25  1  0  0  0  0
M  END
$$$$

  -OEChem-05262214473D

 46 45  0     1  0  0  0  0  0999 V2000
   -0.0543    1.9736    3.8406 C   0  0  0  0  0  0  0  0  0  0  0  0
    0.6744    1.6099    4.7562 O   0  0  0  0  0  0  0  0  0  0  0  0
   -0.5599    3.3779    3.8160 C   0  0  0  0  0  0  0  0  0  0  0  0
   -1.5202    3.4885    4.3450 H   0  0  0  0  0  0  0  0  0  0  0  0
    0.1282    4.0814    4.3116 H   0  0  0  0  0  0  0  0  0  0  0  0
   -0.7317    3.7994    2.8126 H   0  0  0  0  0  0  0  0  0  0  0  0
   -0.4812    1.1968    2.7762 N   0  0  0  0  0  0  0  0  0  0  0  0
   -0.1106   -0.1834    2.6051 C   0  0  2  0  0  0  0  0  0  0  0  0
   -0.0696   -0.4775    1.1113 C   0  0  0  0  0  0  0  0  0  0  0  0
   -0.6805    0.1900    0.2792 O   0  0  0  0  0  0  0  0  0  0  0  0
   -1.0852   -1.1101    3.3150 C   0  0  0  0  0  0  0  0  0  0  0  0
   -1.0883    1.6241    2.0791 H   0  0  0  0  0  0  0  0  0  0  0  0
    0.8937   -0.2959    3.0277 H   0  0  0  0  0  0  0  0  0  0  0  0
   -2.0970   -1.0114    2.9051 H   0  0  0  0  0  0  0  0  0  0  0  0
   -0.7860   -2.1580    3.2078 H   0  0  0  0  0  0  0  0  0  0  0  0
   -1.1357   -0.8775    4.3842 H   0  0  0  0  0  0  0  0  0  0  0  0
    0.6950   -1.6003    0.8178 N   0  0  0  0  0  0  0  0  0  0  0  0
    0.8777   -2.0908   -0.5246 C   0  0  2  0  0  0  0  0  0  0  0  0
    0.6925   -3.6027   -0.4905 C   0  0  0  0  0  0  0  0  0  0  0  0
    0.1437   -4.1914    0.4388 O   0  0  0  0  0  0  0  0  0  0  0  0
    2.2553   -1.7294   -1.0804 C   0  0  0  0  0  0  0  0  0  0  0  0
    2.4146   -0.2461   -1.3640 C   0  0  0  0  0  0  0  0  0  0  0  0
    1.5503    0.4511   -1.8869 O   0  0  0  0  0  0  0  0  0  0  0  0
    3.6430    0.2337   -0.9615 N   0  0  0  0  0  0  0  0  0  0  0  0
    1.1810   -2.0803    1.5718 H   0  0  0  0  0  0  0  0  0  0  0  0
    0.0786   -1.6479   -1.1305 H   0  0  0  0  0  0  0  0  0  0  0  0
    3.0386   -2.0062   -0.3635 H   0  0  0  0  0  0  0  0  0  0  0  0
    2.4543   -2.2841   -2.0064 H   0  0  0  0  0  0  0  0  0  0  0  0
    4.3265   -0.3792   -0.5297 H   0  0  0  0  0  0  0  0  0  0  0  0
    3.9111    1.2057   -1.0787 H   0  0  0  0  0  0  0  0  0  0  0  0
    1.1666   -4.2152   -1.6420 N   0  0  0  0  0  0  0  0  0  0  0  0
    1.0740   -5.6412   -1.8447 C   0  0  2  0  0  0  0  0  0  0  0  0
   -0.3941   -6.0353   -1.7500 C   0  0  0  0  0  0  0  0  0  0  0  0
   -1.2340   -5.3575   -1.1615 O   0  0  0  0  0  0  0  0  0  0  0  0
    1.9075   -6.4005   -0.8241 C   0  0  0  0  0  0  0  0  0  0  0  0
    1.5871   -3.6522   -2.3754 H   0  0  0  0  0  0  0  0  0  0  0  0
    1.4419   -5.8414   -2.8569 H   0  0  0  0  0  0  0  0  0  0  0  0
    1.5537   -6.2123    0.1962 H   0  0  0  0  0  0  0  0  0  0  0  0
    1.8589   -7.4807   -0.9968 H   0  0  0  0  0  0  0  0  0  0  0  0
    2.9580   -6.0941   -0.8734 H   0  0  0  0  0  0  0  0  0  0  0  0
   -0.6478   -7.2543   -2.3630 N   0  0  0  0  0  0  0  0  0  0  0  0
   -1.9626   -7.8510   -2.3974 C   0  0  0  0  0  0  0  0  0  0  0  0
    0.1051   -7.7384   -2.8432 H   0  0  0  0  0  0  0  0  0  0  0  0
   -2.0812   -8.5280   -1.5385 H   0  0  0  0  0  0  0  0  0  0  0  0
   -2.7255   -7.0600   -2.3487 H   0  0  0  0  0  0  0  0  0  0  0  0
   -2.0829   -8.4194   -3.3314 H   0  0  0  0  0  0  0  0  0  0  0  0
  1  3  1  0  0  0  0
  1  7  1  0  0  0  0
  1  2  2  0  0  0  0
 21 22  1  0  0  0  0
 22 24  1  0  0  0  0
 22 23  2  0  0  0  0
 32 33  1  0  0  0  0
 33 41  1  0  0  0  0
 33 34  2  0  0  0  0
  8  9  1  0  0  0  0
  9 17  1  0  0  0  0
  9 10  2  0  0  0  0
 18 19  1  0  0  0  0
 19 31  1  0  0  0  0
 19 20  2  0  0  0  0
 32 35  1  0  0  0  0
  8 11  1  0  0  0  0
 41 42  1  0  0  0  0
 18 21  1  0  0  0  0
 31 32  1  0  0  0  0
  7  8  1  0  0  0  0
 17 18  1  0  0  0  0
  3  4  1  0  0  0  0
  3  5  1  0  0  0  0
  3  6  1  0  0  0  0
 35 38  1  0  0  0  0
 35 39  1  0  0  0  0
 35 40  1  0  0  0  0
 11 14  1  0  0  0  0
 11 15  1  0  0  0  0
 11 16  1  0  0  0  0
 42 44  1  0  0  0  0
 42 45  1  0  0  0  0
 42 46  1  0  0  0  0
 21 27  1  0  0  0  0
 21 28  1  0  0  0  0
 32 37  1  0  0  0  0
  8 13  1  0  0  0  0
 18 26  1  0  0  0  0
 24 29  1  0  0  0  0
 24 30  1  0  0  0  0
 41 43  1  0  0  0  0
  7 12  1  0  0  0  0
 31 36  1  0  0  0  0
 17 25  1  0  0  0  0
M  END
$$$$

  -OEChem-05262214473D

 46 45  0     1  0  0  0  0  0999 V2000
   -0.0543    1.9736    3.8406 C   0  0  0  0  0  0  0  0  0  0  0  0
    0.6744    1.6099    4.7562 O   0  0  0  0  0  0  0  0  0  0  0  0
   -0.5599    3.3779    3.8160 C   0  0  0  0  0  0  0  0  0  0  0  0
   -1.5202    3.4885    4.3450 H   0  0  0  0  0  0  0  0  0  0  0  0
    0.1282    4.0814    4.3116 H   0  0  0  0  0  0  0  0  0  0  0  0
   -0.7317    3.7994    2.8126 H   0  0  0  0  0  0  0  0  0  0  0  0
   -0.4812    1.1968    2.7762 N   0  0  0  0  0  0  0  0  0  0  0  0
   -0.1106   -0.1834    2.6051 C   0  0  2  0  0  0  0  0  0  0  0  0
   -0.0696   -0.4775    1.1113 C   0  0  0  0  0  0  0  0  0  0  0  0
   -0.6805    0.1900    0.2792 O   0  0  0  0  0  0  0  0  0  0  0  0
   -1.0852   -1.1101    3.3150 C   0  0  0  0  0  0  0  0  0  0  0  0
   -1.0883    1.6241    2.0791 H   0  0  0  0  0  0  0  0  0  0  0  0
    0.8937   -0.2959    3.0277 H   0  0  0  0  0  0  0  0  0  0  0  0
   -2.0970   -1.0114    2.9051 H   0  0  0  0  0  0  0  0  0  0  0  0
   -0.7860   -2.1580    3.2078 H   0  0  0  0  0  0  0  0  0  0  0  0
   -1.1357   -0.8775    4.3842 H   0  0  0  0  0  0  0  0  0  0  0  0
    0.6950   -1.6003    0.8178 N   0  0  0  0  0  0  0  0  0  0  0  0
    0.8777   -2.0908   -0.5246 C   0  0  2  0  0  0  0  0  0  0  0  0
    0.6925   -3.6027   -0.4905 C   0  0  0  0  0  0  0  0  0  0  0  0
   -0.0757   -4.1680    0.2852 O   0  0  0  0  0  0  0  0  0  0  0  0
    2.2553   -1.7294   -1.0804 C   0  0  0  0  0  0  0  0  0  0  0  0
    2.4146   -0.2461   -1.3640 C   0  0  0  0  0  0  0  0  0  0  0  0
    1.5503    0.4511   -1.8869 O   0  0  0  0  0  0  0  0  0  0  0  0
    3.6430    0.2337   -0.9615 N   0  0  0  0  0  0  0  0  0  0  0  0
    1.1810   -2.0803    1.5718 H   0  0  0  0  0  0  0  0  0  0  0  0
    0.0786   -1.6479   -1.1305 H   0  0  0  0  0  0  0  0  0  0  0  0
    3.0386   -2.0062   -0.3635 H   0  0  0  0  0  0  0  0  0  0  0  0
    2.4543   -2.2841   -2.0064 H   0  0  0  0  0  0  0  0  0  0  0  0
    4.3265   -0.3792   -0.5297 H   0  0  0  0  0  0  0  0  0  0  0  0
    3.9111    1.2057   -1.0787 H   0  0  0  0  0  0  0  0  0  0  0  0
    1.4476   -4.2456   -1.4613 N   0  0  0  0  0  0  0  0  0  0  0  0
    1.4125   -5.6780   -1.6350 C   0  0  2  0  0  0  0  0  0  0  0  0
   -0.0299   -6.0834   -1.9077 C   0  0  0  0  0  0  0  0  0  0  0  0
   -0.9939   -5.3963   -1.5768 O   0  0  0  0  0  0  0  0  0  0  0  0
    1.9571   -6.3972   -0.4107 C   0  0  0  0  0  0  0  0  0  0  0  0
    2.0415   -3.7012   -2.0800 H   0  0  0  0  0  0  0  0  0  0  0  0
    2.0285   -5.9054   -2.5118 H   0  0  0  0  0  0  0  0  0  0  0  0
    1.3527   -6.1814    0.4779 H   0  0  0  0  0  0  0  0  0  0  0  0
    1.9563   -7.4826   -0.5552 H   0  0  0  0  0  0  0  0  0  0  0  0
    2.9844   -6.0821   -0.1984 H   0  0  0  0  0  0  0  0  0  0  0  0
   -0.1156   -7.3232   -2.5257 N   0  0  0  0  0  0  0  0  0  0  0  0
   -1.3764   -7.9336   -2.8773 C   0  0  0  0  0  0  0  0  0  0  0  0
    0.7362   -7.8143   -2.7807 H   0  0  0  0  0  0  0  0  0  0  0  0
   -1.7106   -8.5850   -2.0563 H   0  0  0  0  0  0  0  0  0  0  0  0
   -2.1275   -7.1491   -3.0516 H   0  0  0  0  0  0  0  0  0  0  0  0
   -1.2517   -8.5315   -3.7921 H   0  0  0  0  0  0  0  0  0  0  0  0
  1  3  1  0  0  0  0
  1  7  1  0  0  0  0
  1  2  2  0  0  0  0
 21 22  1  0  0  0  0
 22 24  1  0  0  0  0
 22 23  2  0  0  0  0
 32 33  1  0  0  0  0
 33 41  1  0  0  0  0
 33 34  2  0  0  0  0
  8  9  1  0  0  0  0
  9 17  1  0  0  0  0
  9 10  2  0  0  0  0
 18 19  1  0  0  0  0
 19 31  1  0  0  0  0
 19 20  2  0  0  0  0
 32 35  1  0  0  0  0
  8 11  1  0  0  0  0
 41 42  1  0  0  0  0
 18 21  1  0  0  0  0
 31 32  1  0  0  0  0
  7  8  1  0  0  0  0
 17 18  1  0  0  0  0
  3  4  1  0  0  0  0
  3  5  1  0  0  0  0
  3  6  1  0  0  0  0
 35 38  1  0  0  0  0
 35 39  1  0  0  0  0
 35 40  1  0  0  0  0
 11 14  1  0  0  0  0
 11 15  1  0  0  0  0
 11 16  1  0  0  0  0
 42 44  1  0  0  0  0
 42 45  1  0  0  0  0
 42 46  1  0  0  0  0
 21 27  1  0  0  0  0
 21 28  1  0  0  0  0
 32 37  1  0  0  0  0
  8 13  1  0  0  0  0
 18 26  1  0  0  0  0
 24 29  1  0  0  0  0
 24 30  1  0  0  0  0
 41 43  1  0  0  0  0
  7 12  1  0  0  0  0
 31 36  1  0  0  0  0
 17 25  1  0  0  0  0
M  END
$$$$

  -OEChem-05262214473D

 46 45  0     1  0  0  0  0  0999 V2000
   -0.0543    1.9736    3.8406 C   0  0  0  0  0  0  0  0  0  0  0  0
    0.6744    1.6099    4.7562 O   0  0  0  0  0  0  0  0  0  0  0  0
   -0.5599    3.3779    3.8160 C   0  0  0  0  0  0  0  0  0  0  0  0
   -1.5202    3.4885    4.3450 H   0  0  0  0  0  0  0  0  0  0  0  0
    0.1282    4.0814    4.3116 H   0  0  0  0  0  0  0  0  0  0  0  0
   -0.7317    3.7994    2.8126 H   0  0  0  0  0  0  0  0  0  0  0  0
   -0.4812    1.1968    2.7762 N   0  0  0  0  0  0  0  0  0  0  0  0
   -0.1106   -0.1834    2.6051 C   0  0  2  0  0  0  0  0  0  0  0  0
   -0.0696   -0.4775    1.1113 C   0  0  0  0  0  0  0  0  0  0  0  0
   -0.6805    0.1900    0.2792 O   0  0  0  0  0  0  0  0  0  0  0  0
   -1.0852   -1.1101    3.3150 C   0  0  0  0  0  0  0  0  0  0  0  0
   -1.0883    1.6241    2.0791 H   0  0  0  0  0  0  0  0  0  0  0  0
    0.8937   -0.2959    3.0277 H   0  0  0  0  0  0  0  0  0  0  0  0
   -2.0970   -1.0114    2.9051 H   0  0  0  0  0  0  0  0  0  0  0  0
   -0.7860   -2.1580    3.2078 H   0  0  0  0  0  0  0  0  0  0  0  0
   -1.1357   -0.8775    4.3842 H   0  0  0  0  0  0  0  0  0  0  0  0
    0.6950   -1.6003    0.8178 N   0  0  0  0  0  0  0  0  0  0  0  0
    0.8777   -2.0908   -0.5246 C   0  0  2  0  0  0  0  0  0  0  0  0
    0.6925   -3.6027   -0.4905 C   0  0  0  0  0  0  0  0  0  0  0  0
   -0.2483   -4.1515    0.0798 O   0  0  0  0  0  0  0  0  0  0  0  0
    2.2553   -1.7294   -1.0804 C   0  0  0  0  0  0  0  0  0  0  0  0
    2.4146   -0.2461   -1.3640 C   0  0  0  0  0  0  0  0  0  0  0  0
    1.5503    0.4511   -1.8869 O   0  0  0  0  0  0  0  0  0  0  0  0
    3.6430    0.2337   -0.9615 N   0  0  0  0  0  0  0  0  0  0  0  0
    1.1810   -2.0803    1.5718 H   0  0  0  0  0  0  0  0  0  0  0  0
    0.0786   -1.6479   -1.1305 H   0  0  0  0  0  0  0  0  0  0  0  0
    3.0386   -2.0062   -0.3635 H   0  0  0  0  0  0  0  0  0  0  0  0
    2.4543   -2.2841   -2.0064 H   0  0  0  0  0  0  0  0  0  0  0  0
    4.3265   -0.3792   -0.5297 H   0  0  0  0  0  0  0  0  0  0  0  0
    3.9111    1.2057   -1.0787 H   0  0  0  0  0  0  0  0  0  0  0  0
    1.6728   -4.2676   -1.2137 N   0  0  0  0  0  0  0  0  0  0  0  0
    1.6859   -5.7049   -1.3443 C   0  0  2  0  0  0  0  0  0  0  0  0
    0.3626   -6.1328   -1.9651 C   0  0  0  0  0  0  0  0  0  0  0  0
   -0.6552   -5.4454   -1.9150 O   0  0  0  0  0  0  0  0  0  0  0  0
    1.8988   -6.3808    0.0013 C   0  0  0  0  0  0  0  0  0  0  0  0
    2.4047   -3.7365   -1.6763 H   0  0  0  0  0  0  0  0  0  0  0  0
    2.5068   -5.9531   -2.0258 H   0  0  0  0  0  0  0  0  0  0  0  0
    1.0861   -6.1438    0.6975 H   0  0  0  0  0  0  0  0  0  0  0  0
    1.9370   -7.4701   -0.1036 H   0  0  0  0  0  0  0  0  0  0  0  0
    2.8366   -6.0492    0.4599 H   0  0  0  0  0  0  0  0  0  0  0  0
    0.4407   -7.3917   -2.5440 N   0  0  0  0  0  0  0  0  0  0  0  0
   -0.6865   -8.0251   -3.1877 C   0  0  0  0  0  0  0  0  0  0  0  0
    1.3302   -7.8820   -2.5558 H   0  0  0  0  0  0  0  0  0  0  0  0
   -1.2193   -8.6543   -2.4595 H   0  0  0  0  0  0  0  0  0  0  0  0
   -1.3689   -7.2537   -3.5742 H   0  0  0  0  0  0  0  0  0  0  0  0
   -0.3299   -8.6496   -4.0201 H   0  0  0  0  0  0  0  0  0  0  0  0
  1  3  1  0  0  0  0
  1  7  1  0  0  0  0
  1  2  2  0  0  0  0
 21 22  1  0  0  0  0
 22 24  1  0  0  0  0
 22 23  2  0  0  0  0
 32 33  1  0  0  0  0
 33 41  1  0  0  0  0
 33 34  2  0  0  0  0
  8  9  1  0  0  0  0
  9 17  1  0  0  0  0
  9 10  2  0  0  0  0
 18 19  1  0  0  0  0
 19 31  1  0  0  0  0
 19 20  2  0  0  0  0
 32 35  1  0  0  0  0
  8 11  1  0  0  0  0
 41 42  1  0  0  0  0
 18 21  1  0  0  0  0
 31 32  1  0  0  0  0
  7  8  1  0  0  0  0
 17 18  1  0  0  0  0
  3  4  1  0  0  0  0
  3  5  1  0  0  0  0
  3  6  1  0  0  0  0
 35 38  1  0  0  0  0
 35 39  1  0  0  0  0
 35 40  1  0  0  0  0
 11 14  1  0  0  0  0
 11 15  1  0  0  0  0
 11 16  1  0  0  0  0
 42 44  1  0  0  0  0
 42 45  1  0  0  0  0
 42 46  1  0  0  0  0
 21 27  1  0  0  0  0
 21 28  1  0  0  0  0
 32 37  1  0  0  0  0
  8 13  1  0  0  0  0
 18 26  1  0  0  0  0
 24 29  1  0  0  0  0
 24 30  1  0  0  0  0
 41 43  1  0  0  0  0
  7 12  1  0  0  0  0
 31 36  1  0  0  0  0
 17 25  1  0  0  0  0
M  END
$$$$

  -OEChem-05262214473D

 46 45  0     1  0  0  0  0  0999 V2000
   -0.0543    1.9736    3.8406 C   0  0  0  0  0  0  0  0  0  0  0  0
    0.6744    1.6099    4.7562 O   0  0  0  0  0  0  0  0  0  0  0  0
   -0.5599    3.3779    3.8160 C   0  0  0  0  0  0  0  0  0  0  0  0
   -1.5202    3.4885    4.3450 H   0  0  0  0  0  0  0  0  0  0  0  0
    0.1282    4.0814    4.3116 H   0  0  0  0  0  0  0  0  0  0  0  0
   -0.7317    3.7994    2.8126 H   0  0  0  0  0  0  0  0  0  0  0  0
   -0.4812    1.1968    2.7762 N   0  0  0  0  0  0  0  0  0  0  0  0
   -0.1106   -0.1834    2.6051 C   0  0  2  0  0  0  0  0  0  0  0  0
   -0.0696   -0.4775    1.1113 C   0  0  0  0  0  0  0  0  0  0  0  0
   -0.6805    0.1900    0.2792 O   0  0  0  0  0  0  0  0  0  0  0  0
   -1.0852   -1.1101    3.3150 C   0  0  0  0  0  0  0  0  0  0  0  0
   -1.0883    1.6241    2.0791 H   0  0  0  0  0  0  0  0  0  0  0  0
    0.8937   -0.2959    3.0277 H   0  0  0  0  0  0  0  0  0  0  0  0
   -2.0970   -1.0114    2.9051 H   0  0  0  0  0  0  0  0  0  0  0  0
   -0.7860   -2.1580    3.2078 H   0  0  0  0  0  0  0  0  0  0  0  0
   -1.1357   -0.8775    4.3842 H   0  0  0  0  0  0  0  0  0  0  0  0
    0.6950   -1.6003    0.8178 N   0  0  0  0  0  0  0  0  0  0  0  0
    0.8777   -2.0908   -0.5246 C   0  0  2  0  0  0  0  0  0  0  0  0
    0.6925   -3.6027   -0.4905 C   0  0  0  0  0  0  0  0  0  0  0  0
   -0.3623   -4.1430   -0.1635 O   0  0  0  0  0  0  0  0  0  0  0  0
    2.2553   -1.7294   -1.0804 C   0  0  0  0  0  0  0  0  0  0  0  0
    2.4146   -0.2461   -1.3640 C   0  0  0  0  0  0  0  0  0  0  0  0
    1.5503    0.4511   -1.8869 O   0  0  0  0  0  0  0  0  0  0  0  0
    3.6430    0.2337   -0.9615 N   0  0  0  0  0  0  0  0  0  0  0  0
    1.1810   -2.0803    1.5718 H   0  0  0  0  0  0  0  0  0  0  0  0
    0.0786   -1.6479   -1.1305 H   0  0  0  0  0  0  0  0  0  0  0  0
    3.0386   -2.0062   -0.3635 H   0  0  0  0  0  0  0  0  0  0  0  0
    2.4543   -2.2841   -2.0064 H   0  0  0  0  0  0  0  0  0  0  0  0
    4.3265   -0.3792   -0.5297 H   0  0  0  0  0  0  0  0  0  0  0  0
    3.9111    1.2057   -1.0787 H   0  0  0  0  0  0  0  0  0  0  0  0
    1.8268   -4.2797   -0.9160 N   0  0  0  0  0  0  0  0  0  0  0  0
    1.8754   -5.7202   -0.9925 C   0  0  2  0  0  0  0  0  0  0  0  0
    0.7568   -6.1800   -1.9181 C   0  0  0  0  0  0  0  0  0  0  0  0
   -0.2409   -5.5015   -2.1531 O   0  0  0  0  0  0  0  0  0  0  0  0
    1.7366   -6.3523    0.3837 C   0  0  0  0  0  0  0  0  0  0  0  0
    2.6521   -3.7559   -1.1920 H   0  0  0  0  0  0  0  0  0  0  0  0
    2.8443   -5.9810   -1.4320 H   0  0  0  0  0  0  0  0  0  0  0  0
    0.7719   -6.1021    0.8399 H   0  0  0  0  0  0  0  0  0  0  0  0
    1.8023   -7.4439    0.3274 H   0  0  0  0  0  0  0  0  0  0  0  0
    2.5246   -5.9975    1.0568 H   0  0  0  0  0  0  0  0  0  0  0  0
    0.9831   -7.4553   -2.4167 N   0  0  0  0  0  0  0  0  0  0  0  0
    0.0602   -8.1192   -3.3075 C   0  0  0  0  0  0  0  0  0  0  0  0
    1.8466   -7.9368   -2.1839 H   0  0  0  0  0  0  0  0  0  0  0  0
   -0.6407   -8.7310   -2.7206 H   0  0  0  0  0  0  0  0  0  0  0  0
   -0.5013   -7.3669   -3.8808 H   0  0  0  0  0  0  0  0  0  0  0  0
    0.6197   -8.7654   -3.9998 H   0  0  0  0  0  0  0  0  0  0  0  0
  1  3  1  0  0  0  0
  1  7  1  0  0  0  0
  1  2  2  0  0  0  0
 21 22  1  0  0  0  0
 22 24  1  0  0  0  0
 22 23  2  0  0  0  0
 32 33  1  0  0  0  0
 33 41  1  0  0  0  0
 33 34  2  0  0  0  0
  8  9  1  0  0  0  0
  9 17  1  0  0  0  0
  9 10  2  0  0  0  0
 18 19  1  0  0  0  0
 19 31  1  0  0  0  0
 19 20  2  0  0  0  0
 32 35  1  0  0  0  0
  8 11  1  0  0  0  0
 41 42  1  0  0  0  0
 18 21  1  0  0  0  0
 31 32  1  0  0  0  0
  7  8  1  0  0  0  0
 17 18  1  0  0  0  0
  3  4  1  0  0  0  0
  3  5  1  0  0  0  0
  3  6  1  0  0  0  0
 35 38  1  0  0  0  0
 35 39  1  0  0  0  0
 35 40  1  0  0  0  0
 11 14  1  0  0  0  0
 11 15  1  0  0  0  0
 11 16  1  0  0  0  0
 42 44  1  0  0  0  0
 42 45  1  0  0  0  0
 42 46  1  0  0  0  0
 21 27  1  0  0  0  0
 21 28  1  0  0  0  0
 32 37  1  0  0  0  0
  8 13  1  0  0  0  0
 18 26  1  0  0  0  0
 24 29  1  0  0  0  0
 24 30  1  0  0  0  0
 41 43  1  0  0  0  0
  7 12  1  0  0  0  0
 31 36  1  0  0  0  0
 17 25  1  0  0  0  0
M  END
$$$$

  -OEChem-05262214473D

 46 45  0     1  0  0  0  0  0999 V2000
   -0.0543    1.9736    3.8406 C   0  0  0  0  0  0  0  0  0  0  0  0
    0.6744    1.6099    4.7562 O   0  0  0  0  0  0  0  0  0  0  0  0
   -0.5599    3.3779    3.8160 C   0  0  0  0  0  0  0  0  0  0  0  0
   -1.5202    3.4885    4.3450 H   0  0  0  0  0  0  0  0  0  0  0  0
    0.1282    4.0814    4.3116 H   0  0  0  0  0  0  0  0  0  0  0  0
   -0.7317    3.7994    2.8126 H   0  0  0  0  0  0  0  0  0  0  0  0
   -0.4812    1.1968    2.7762 N   0  0  0  0  0  0  0  0  0  0  0  0
   -0.1106   -0.1834    2.6051 C   0  0  2  0  0  0  0  0  0  0  0  0
   -0.0696   -0.4775    1.1113 C   0  0  0  0  0  0  0  0  0  0  0  0
   -0.6805    0.1900    0.2792 O   0  0  0  0  0  0  0  0  0  0  0  0
   -1.0852   -1.1101    3.3150 C   0  0  0  0  0  0  0  0  0  0  0  0
   -1.0883    1.6241    2.0791 H   0  0  0  0  0  0  0  0  0  0  0  0
    0.8937   -0.2959    3.0277 H   0  0  0  0  0  0  0  0  0  0  0  0
   -2.0970   -1.0114    2.9051 H   0  0  0  0  0  0  0  0  0  0  0  0
   -0.7860   -2.1580    3.2078 H   0  0  0  0  0  0  0  0  0  0  0  0
   -1.1357   -0.8775    4.3842 H   0  0  0  0  0  0  0  0  0  0  0  0
    0.6950   -1.6003    0.8178 N   0  0  0  0  0  0  0  0  0  0  0  0
    0.8777   -2.0908   -0.5246 C   0  0  2  0  0  0  0  0  0  0  0  0
    0.6925   -3.6027   -0.4905 C   0  0  0  0  0  0  0  0  0  0  0  0
   -0.4100   -4.1431   -0.4280 O   0  0  0  0  0  0  0  0  0  0  0  0
    2.2553   -1.7294   -1.0804 C   0  0  0  0  0  0  0  0  0  0  0  0
    2.4146   -0.2461   -1.3640 C   0  0  0  0  0  0  0  0  0  0  0  0
    1.5503    0.4511   -1.8869 O   0  0  0  0  0  0  0  0  0  0  0  0
    3.6430    0.2337   -0.9615 N   0  0  0  0  0  0  0  0  0  0  0  0
    1.1810   -2.0803    1.5718 H   0  0  0  0  0  0  0  0  0  0  0  0
    0.0786   -1.6479   -1.1305 H   0  0  0  0  0  0  0  0  0  0  0  0
    3.0386   -2.0062   -0.3635 H   0  0  0  0  0  0  0  0  0  0  0  0
    2.4543   -2.2841   -2.0064 H   0  0  0  0  0  0  0  0  0  0  0  0
    4.3265   -0.3792   -0.5297 H   0  0  0  0  0  0  0  0  0  0  0  0
    3.9111    1.2057   -1.0787 H   0  0  0  0  0  0  0  0  0  0  0  0
    1.8992   -4.2812   -0.5885 N   0  0  0  0  0  0  0  0  0  0  0  0
    1.9682   -5.7228   -0.6035 C   0  0  2  0  0  0  0  0  0  0  0  0
    1.1257   -6.2219   -1.7699 C   0  0  0  0  0  0  0  0  0  0  0  0
    0.2208   -5.5607   -2.2750 O   0  0  0  0  0  0  0  0  0  0  0  0
    1.4816   -6.3137    0.7105 C   0  0  0  0  0  0  0  0  0  0  0  0
    2.7669   -3.7580   -0.6601 H   0  0  0  0  0  0  0  0  0  0  0  0
    3.0180   -5.9874   -0.7709 H   0  0  0  0  0  0  0  0  0  0  0  0
    0.4316   -6.0592    0.8955 H   0  0  0  0  0  0  0  0  0  0  0  0
    1.5614   -7.4058    0.7081 H   0  0  0  0  0  0  0  0  0  0  0  0
    2.0695   -5.9307    1.5516 H   0  0  0  0  0  0  0  0  0  0  0  0
    1.4747   -7.5095   -2.1524 N   0  0  0  0  0  0  0  0  0  0  0  0
    0.8128   -8.2096   -3.2284 C   0  0  0  0  0  0  0  0  0  0  0  0
    2.2502   -7.9752   -1.6904 H   0  0  0  0  0  0  0  0  0  0  0  0
   -0.0144   -8.8100   -2.8218 H   0  0  0  0  0  0  0  0  0  0  0  0
    0.4162   -7.4808   -3.9506 H   0  0  0  0  0  0  0  0  0  0  0  0
    1.5325   -8.8711   -3.7327 H   0  0  0  0  0  0  0  0  0  0  0  0
  1  3  1  0  0  0  0
  1  7  1  0  0  0  0
  1  2  2  0  0  0  0
 21 22  1  0  0  0  0
 22 24  1  0  0  0  0
 22 23  2  0  0  0  0
 32 33  1  0  0  0  0
 33 41  1  0  0  0  0
 33 34  2  0  0  0  0
  8  9  1  0  0  0  0
  9 17  1  0  0  0  0
  9 10  2  0  0  0  0
 18 19  1  0  0  0  0
 19 31  1  0  0  0  0
 19 20  2  0  0  0  0
 32 35  1  0  0  0  0
  8 11  1  0  0  0  0
 41 42  1  0  0  0  0
 18 21  1  0  0  0  0
 31 32  1  0  0  0  0
  7  8  1  0  0  0  0
 17 18  1  0  0  0  0
  3  4  1  0  0  0  0
  3  5  1  0  0  0  0
  3  6  1  0  0  0  0
 35 38  1  0  0  0  0
 35 39  1  0  0  0  0
 35 40  1  0  0  0  0
 11 14  1  0  0  0  0
 11 15  1  0  0  0  0
 11 16  1  0  0  0  0
 42 44  1  0  0  0  0
 42 45  1  0  0  0  0
 42 46  1  0  0  0  0
 21 27  1  0  0  0  0
 21 28  1  0  0  0  0
 32 37  1  0  0  0  0
  8 13  1  0  0  0  0
 18 26  1  0  0  0  0
 24 29  1  0  0  0  0
 24 30  1  0  0  0  0
 41 43  1  0  0  0  0
  7 12  1  0  0  0  0
 31 36  1  0  0  0  0
 17 25  1  0  0  0  0
M  END
$$$$

  -OEChem-05262214473D

 46 45  0     1  0  0  0  0  0999 V2000
   -0.0543    1.9736    3.8406 C   0  0  0  0  0  0  0  0  0  0  0  0
    0.6744    1.6099    4.7562 O   0  0  0  0  0  0  0  0  0  0  0  0
   -0.5599    3.3779    3.8160 C   0  0  0  0  0  0  0  0  0  0  0  0
   -1.5202    3.4885    4.3450 H   0  0  0  0  0  0  0  0  0  0  0  0
    0.1282    4.0814    4.3116 H   0  0  0  0  0  0  0  0  0  0  0  0
   -0.7317    3.7994    2.8126 H   0  0  0  0  0  0  0  0  0  0  0  0
   -0.4812    1.1968    2.7762 N   0  0  0  0  0  0  0  0  0  0  0  0
   -0.1106   -0.1834    2.6051 C   0  0  2  0  0  0  0  0  0  0  0  0
   -0.0696   -0.4775    1.1113 C   0  0  0  0  0  0  0  0  0  0  0  0
   -0.6805    0.1900    0.2792 O   0  0  0  0  0  0  0  0  0  0  0  0
   -1.0852   -1.1101    3.3150 C   0  0  0  0  0  0  0  0  0  0  0  0
   -1.0883    1.6241    2.0791 H   0  0  0  0  0  0  0  0  0  0  0  0
    0.8937   -0.2959    3.0277 H   0  0  0  0  0  0  0  0  0  0  0  0
   -2.0970   -1.0114    2.9051 H   0  0  0  0  0  0  0  0  0  0  0  0
   -0.7860   -2.1580    3.2078 H   0  0  0  0  0  0  0  0  0  0  0  0
   -1.1357   -0.8775    4.3842 H   0  0  0  0  0  0  0  0  0  0  0  0
    0.6950   -1.6003    0.8178 N   0  0  0  0  0  0  0  0  0  0  0  0
    0.8777   -2.0908   -0.5246 C   0  0  2  0  0  0  0  0  0  0  0  0
    0.6925   -3.6027   -0.4905 C   0  0  0  0  0  0  0  0  0  0  0  0
   -0.3881   -4.1518   -0.6958 O   0  0  0  0  0  0  0  0  0  0  0  0
    2.2553   -1.7294   -1.0804 C   0  0  0  0  0  0  0  0  0  0  0  0
    2.4146   -0.2461   -1.3640 C   0  0  0  0  0  0  0  0  0  0  0  0
    1.5503    0.4511   -1.8869 O   0  0  0  0  0  0  0  0  0  0  0  0
    3.6430    0.2337   -0.9615 N   0  0  0  0  0  0  0  0  0  0  0  0
    1.1810   -2.0803    1.5718 H   0  0  0  0  0  0  0  0  0  0  0  0
    0.0786   -1.6479   -1.1305 H   0  0  0  0  0  0  0  0  0  0  0  0
    3.0386   -2.0062   -0.3635 H   0  0  0  0  0  0  0  0  0  0  0  0
    2.4543   -2.2841   -2.0064 H   0  0  0  0  0  0  0  0  0  0  0  0
    4.3265   -0.3792   -0.5297 H   0  0  0  0  0  0  0  0  0  0  0  0
    3.9111    1.2057   -1.0787 H   0  0  0  0  0  0  0  0  0  0  0  0
    1.8850   -4.2719   -0.2535 N   0  0  0  0  0  0  0  0  0  0  0  0
    1.9580   -5.7125   -0.2038 C   0  0  2  0  0  0  0  0  0  0  0  0
    1.4443   -6.2555   -1.5308 C   0  0  0  0  0  0  0  0  0  0  0  0
    0.6984   -5.6192   -2.2723 O   0  0  0  0  0  0  0  0  0  0  0  0
    1.1511   -6.2676    0.9595 C   0  0  0  0  0  0  0  0  0  0  0  0
    2.7411   -3.7426   -0.1167 H   0  0  0  0  0  0  0  0  0  0  0  0
    3.0159   -5.9717   -0.0875 H   0  0  0  0  0  0  0  0  0  0  0  0
    0.0884   -6.0179    0.8604 H   0  0  0  0  0  0  0  0  0  0  0  0
    1.2306   -7.3584    1.0129 H   0  0  0  0  0  0  0  0  0  0  0  0
    1.5025   -5.8532    1.9106 H   0  0  0  0  0  0  0  0  0  0  0  0
    1.8820   -7.5508   -1.7692 N   0  0  0  0  0  0  0  0  0  0  0  0
    1.5199   -8.2900   -2.9559 C   0  0  0  0  0  0  0  0  0  0  0  0
    2.5136   -7.9943   -1.1088 H   0  0  0  0  0  0  0  0  0  0  0  0
    0.6171   -8.8858   -2.7562 H   0  0  0  0  0  0  0  0  0  0  0  0
    1.3210   -7.5877   -3.7788 H   0  0  0  0  0  0  0  0  0  0  0  0
    2.3462   -8.9596   -3.2370 H   0  0  0  0  0  0  0  0  0  0  0  0
  1  3  1  0  0  0  0
  1  7  1  0  0  0  0
  1  2  2  0  0  0  0
 21 22  1  0  0  0  0
 22 24  1  0  0  0  0
 22 23  2  0  0  0  0
 32 33  1  0  0  0  0
 33 41  1  0  0  0  0
 33 34  2  0  0  0  0
  8  9  1  0  0  0  0
  9 17  1  0  0  0  0
  9 10  2  0  0  0  0
 18 19  1  0  0  0  0
 19 31  1  0  0  0  0
 19 20  2  0  0  0  0
 32 35  1  0  0  0  0
  8 11  1  0  0  0  0
 41 42  1  0  0  0  0
 18 21  1  0  0  0  0
 31 32  1  0  0  0  0
  7  8  1  0  0  0  0
 17 18  1  0  0  0  0
  3  4  1  0  0  0  0
  3  5  1  0  0  0  0
  3  6  1  0  0  0  0
 35 38  1  0  0  0  0
 35 39  1  0  0  0  0
 35 40  1  0  0  0  0
 11 14  1  0  0  0  0
 11 15  1  0  0  0  0
 11 16  1  0  0  0  0
 42 44  1  0  0  0  0
 42 45  1  0  0  0  0
 42 46  1  0  0  0  0
 21 27  1  0  0  0  0
 21 28  1  0  0  0  0
 32 37  1  0  0  0  0
  8 13  1  0  0  0  0
 18 26  1  0  0  0  0
 24 29  1  0  0  0  0
 24 30  1  0  0  0  0
 41 43  1  0  0  0  0
  7 12  1  0  0  0  0
 31 36  1  0  0  0  0
 17 25  1  0  0  0  0
M  END
$$$$

  -OEChem-05262214473D

 46 45  0     1  0  0  0  0  0999 V2000
   -0.0543    1.9736    3.8406 C   0  0  0  0  0  0  0  0  0  0  0  0
    0.6744    1.6099    4.7562 O   0  0  0  0  0  0  0  0  0  0  0  0
   -0.5599    3.3779    3.8160 C   0  0  0  0  0  0  0  0  0  0  0  0
   -1.5202    3.4885    4.3450 H   0  0  0  0  0  0  0  0  0  0  0  0
    0.1282    4.0814    4.3116 H   0  0  0  0  0  0  0  0  0  0  0  0
   -0.7317    3.7994    2.8126 H   0  0  0  0  0  0  0  0  0  0  0  0
   -0.4812    1.1968    2.7762 N   0  0  0  0  0  0  0  0  0  0  0  0
   -0.1106   -0.1834    2.6051 C   0  0  2  0  0  0  0  0  0  0  0  0
   -0.0696   -0.4775    1.1113 C   0  0  0  0  0  0  0  0  0  0  0  0
   -0.6805    0.1900    0.2792 O   0  0  0  0  0  0  0  0  0  0  0  0
   -1.0852   -1.1101    3.3150 C   0  0  0  0  0  0  0  0  0  0  0  0
   -1.0883    1.6241    2.0791 H   0  0  0  0  0  0  0  0  0  0  0  0
    0.8937   -0.2959    3.0277 H   0  0  0  0  0  0  0  0  0  0  0  0
   -2.0970   -1.0114    2.9051 H   0  0  0  0  0  0  0  0  0  0  0  0
   -0.7860   -2.1580    3.2078 H   0  0  0  0  0  0  0  0  0  0  0  0
   -1.1357   -0.8775    4.3842 H   0  0  0  0  0  0  0  0  0  0  0  0
    0.6950   -1.6003    0.8178 N   0  0  0  0  0  0  0  0  0  0  0  0
    0.8777   -2.0908   -0.5246 C   0  0  2  0  0  0  0  0  0  0  0  0
    0.6925   -3.6027   -0.4905 C   0  0  0  0  0  0  0  0  0  0  0  0
   -0.2982   -4.1685   -0.9486 O   0  0  0  0  0  0  0  0  0  0  0  0
    2.2553   -1.7294   -1.0804 C   0  0  0  0  0  0  0  0  0  0  0  0
    2.4146   -0.2461   -1.3640 C   0  0  0  0  0  0  0  0  0  0  0  0
    1.5503    0.4511   -1.8869 O   0  0  0  0  0  0  0  0  0  0  0  0
    3.6430    0.2337   -0.9615 N   0  0  0  0  0  0  0  0  0  0  0  0
    1.1810   -2.0803    1.5718 H   0  0  0  0  0  0  0  0  0  0  0  0
    0.0786   -1.6479   -1.1305 H   0  0  0  0  0  0  0  0  0  0  0  0
    3.0386   -2.0062   -0.3635 H   0  0  0  0  0  0  0  0  0  0  0  0
    2.4543   -2.2841   -2.0064 H   0  0  0  0  0  0  0  0  0  0  0  0
    4.3265   -0.3792   -0.5297 H   0  0  0  0  0  0  0  0  0  0  0  0
    3.9111    1.2057   -1.0787 H   0  0  0  0  0  0  0  0  0  0  0  0
    1.7852   -4.2525    0.0661 N   0  0  0  0  0  0  0  0  0  0  0  0
    1.8454   -5.6901    0.1793 C   0  0  2  0  0  0  0  0  0  0  0  0
    1.6908   -6.2786   -1.2169 C   0  0  0  0  0  0  0  0  0  0  0  0
    1.1594   -5.6728   -2.1451 O   0  0  0  0  0  0  0  0  0  0  0  0
    0.7676   -6.2172    1.1137 C   0  0  0  0  0  0  0  0  0  0  0  0
    2.5765   -3.7108    0.4010 H   0  0  0  0  0  0  0  0  0  0  0  0
    2.8384   -5.9351    0.5716 H   0  0  0  0  0  0  0  0  0  0  0  0
   -0.2344   -5.9812    0.7371 H   0  0  0  0  0  0  0  0  0  0  0  0
    0.8326   -7.3050    1.2208 H   0  0  0  0  0  0  0  0  0  0  0  0
    0.8622   -5.7703    2.1092 H   0  0  0  0  0  0  0  0  0  0  0  0
    2.1772   -7.5762   -1.2931 N   0  0  0  0  0  0  0  0  0  0  0  0
    2.1334   -8.3551   -2.5086 C   0  0  0  0  0  0  0  0  0  0  0  0
    2.6186   -7.9930   -0.4787 H   0  0  0  0  0  0  0  0  0  0  0  0
    1.2106   -8.9534   -2.5282 H   0  0  0  0  0  0  0  0  0  0  0  0
    2.1514   -7.6804   -3.3771 H   0  0  0  0  0  0  0  0  0  0  0  0
    3.0053   -9.0248   -2.5463 H   0  0  0  0  0  0  0  0  0  0  0  0
  1  3  1  0  0  0  0
  1  7  1  0  0  0  0
  1  2  2  0  0  0  0
 21 22  1  0  0  0  0
 22 24  1  0  0  0  0
 22 23  2  0  0  0  0
 32 33  1  0  0  0  0
 33 41  1  0  0  0  0
 33 34  2  0  0  0  0
  8  9  1  0  0  0  0
  9 17  1  0  0  0  0
  9 10  2  0  0  0  0
 18 19  1  0  0  0  0
 19 31  1  0  0  0  0
 19 20  2  0  0  0  0
 32 35  1  0  0  0  0
  8 11  1  0  0  0  0
 41 42  1  0  0  0  0
 18 21  1  0  0  0  0
 31 32  1  0  0  0  0
  7  8  1  0  0  0  0
 17 18  1  0  0  0  0
  3  4  1  0  0  0  0
  3  5  1  0  0  0  0
  3  6  1  0  0  0  0
 35 38  1  0  0  0  0
 35 39  1  0  0  0  0
 35 40  1  0  0  0  0
 11 14  1  0  0  0  0
 11 15  1  0  0  0  0
 11 16  1  0  0  0  0
 42 44  1  0  0  0  0
 42 45  1  0  0  0  0
 42 46  1  0  0  0  0
 21 27  1  0  0  0  0
 21 28  1  0  0  0  0
 32 37  1  0  0  0  0
  8 13  1  0  0  0  0
 18 26  1  0  0  0  0
 24 29  1  0  0  0  0
 24 30  1  0  0  0  0
 41 43  1  0  0  0  0
  7 12  1  0  0  0  0
 31 36  1  0  0  0  0
 17 25  1  0  0  0  0
M  END
$$$$

  -OEChem-05262214473D

 46 45  0     1  0  0  0  0  0999 V2000
   -0.0543    1.9736    3.8406 C   0  0  0  0  0  0  0  0  0  0  0  0
    0.6744    1.6099    4.7562 O   0  0  0  0  0  0  0  0  0  0  0  0
   -0.5599    3.3779    3.8160 C   0  0  0  0  0  0  0  0  0  0  0  0
   -1.5202    3.4885    4.3450 H   0  0  0  0  0  0  0  0  0  0  0  0
    0.1282    4.0814    4.3116 H   0  0  0  0  0  0  0  0  0  0  0  0
   -0.7317    3.7994    2.8126 H   0  0  0  0  0  0  0  0  0  0  0  0
   -0.4812    1.1968    2.7762 N   0  0  0  0  0  0  0  0  0  0  0  0
   -0.1106   -0.1834    2.6051 C   0  0  2  0  0  0  0  0  0  0  0  0
   -0.0696   -0.4775    1.1113 C   0  0  0  0  0  0  0  0  0  0  0  0
   -0.6805    0.1900    0.2792 O   0  0  0  0  0  0  0  0  0  0  0  0
   -1.0852   -1.1101    3.3150 C   0  0  0  0  0  0  0  0  0  0  0  0
   -1.0883    1.6241    2.0791 H   0  0  0  0  0  0  0  0  0  0  0  0
    0.8937   -0.2959    3.0277 H   0  0  0  0  0  0  0  0  0  0  0  0
   -2.0970   -1.0114    2.9051 H   0  0  0  0  0  0  0  0  0  0  0  0
   -0.7860   -2.1580    3.2078 H   0  0  0  0  0  0  0  0  0  0  0  0
   -1.1357   -0.8775    4.3842 H   0  0  0  0  0  0  0  0  0  0  0  0
    0.6950   -1.6003    0.8178 N   0  0  0  0  0  0  0  0  0  0  0  0
    0.8777   -2.0908   -0.5246 C   0  0  2  0  0  0  0  0  0  0  0  0
    0.6925   -3.6027   -0.4905 C   0  0  0  0  0  0  0  0  0  0  0  0
   -0.1463   -4.1921   -1.1691 O   0  0  0  0  0  0  0  0  0  0  0  0
    2.2553   -1.7294   -1.0804 C   0  0  0  0  0  0  0  0  0  0  0  0
    2.4146   -0.2461   -1.3640 C   0  0  0  0  0  0  0  0  0  0  0  0
    1.5503    0.4511   -1.8869 O   0  0  0  0  0  0  0  0  0  0  0  0
    3.6430    0.2337   -0.9615 N   0  0  0  0  0  0  0  0  0  0  0  0
    1.1810   -2.0803    1.5718 H   0  0  0  0  0  0  0  0  0  0  0  0
    0.0786   -1.6479   -1.1305 H   0  0  0  0  0  0  0  0  0  0  0  0
    3.0386   -2.0062   -0.3635 H   0  0  0  0  0  0  0  0  0  0  0  0
    2.4543   -2.2841   -2.0064 H   0  0  0  0  0  0  0  0  0  0  0  0
    4.3265   -0.3792   -0.5297 H   0  0  0  0  0  0  0  0  0  0  0  0
    3.9111    1.2057   -1.0787 H   0  0  0  0  0  0  0  0  0  0  0  0
    1.6066   -4.2243    0.3486 N   0  0  0  0  0  0  0  0  0  0  0  0
    1.6381   -5.6570    0.5197 C   0  0  2  0  0  0  0  0  0  0  0  0
    1.8484   -6.2896   -0.8497 C   0  0  0  0  0  0  0  0  0  0  0  0
    1.5723   -5.7178   -1.9023 O   0  0  0  0  0  0  0  0  0  0  0  0
    0.3573   -6.1659    1.1626 C   0  0  0  0  0  0  0  0  0  0  0  0
    2.2844   -3.6647    0.8578 H   0  0  0  0  0  0  0  0  0  0  0  0
    2.4973   -5.8801    1.1615 H   0  0  0  0  0  0  0  0  0  0  0  0
   -0.5147   -5.9514    0.5339 H   0  0  0  0  0  0  0  0  0  0  0  0
    0.3944   -7.2492    1.3177 H   0  0  0  0  0  0  0  0  0  0  0  0
    0.1922   -5.6877    2.1341 H   0  0  0  0  0  0  0  0  0  0  0  0
    2.3402   -7.5841   -0.7566 N   0  0  0  0  0  0  0  0  0  0  0  0
    2.6115   -8.4003   -1.9168 C   0  0  0  0  0  0  0  0  0  0  0  0
    2.5583   -7.9713    0.1568 H   0  0  0  0  0  0  0  0  0  0  0  0
    1.7257   -9.0080   -2.1535 H   0  0  0  0  0  0  0  0  0  0  0  0
    2.8509   -7.7524   -2.7729 H   0  0  0  0  0  0  0  0  0  0  0  0
    3.4649   -9.0622   -1.7079 H   0  0  0  0  0  0  0  0  0  0  0  0
  1  3  1  0  0  0  0
  1  7  1  0  0  0  0
  1  2  2  0  0  0  0
 21 22  1  0  0  0  0
 22 24  1  0  0  0  0
 22 23  2  0  0  0  0
 32 33  1  0  0  0  0
 33 41  1  0  0  0  0
 33 34  2  0  0  0  0
  8  9  1  0  0  0  0
  9 17  1  0  0  0  0
  9 10  2  0  0  0  0
 18 19  1  0  0  0  0
 19 31  1  0  0  0  0
 19 20  2  0  0  0  0
 32 35  1  0  0  0  0
  8 11  1  0  0  0  0
 41 42  1  0  0  0  0
 18 21  1  0  0  0  0
 31 32  1  0  0  0  0
  7  8  1  0  0  0  0
 17 18  1  0  0  0  0
  3  4  1  0  0  0  0
  3  5  1  0  0  0  0
  3  6  1  0  0  0  0
 35 38  1  0  0  0  0
 35 39  1  0  0  0  0
 35 40  1  0  0  0  0
 11 14  1  0  0  0  0
 11 15  1  0  0  0  0
 11 16  1  0  0  0  0
 42 44  1  0  0  0  0
 42 45  1  0  0  0  0
 42 46  1  0  0  0  0
 21 27  1  0  0  0  0
 21 28  1  0  0  0  0
 32 37  1  0  0  0  0
  8 13  1  0  0  0  0
 18 26  1  0  0  0  0
 24 29  1  0  0  0  0
 24 30  1  0  0  0  0
 41 43  1  0  0  0  0
  7 12  1  0  0  0  0
 31 36  1  0  0  0  0
 17 25  1  0  0  0  0
M  END
$$$$

  -OEChem-05262214473D

 46 45  0     1  0  0  0  0  0999 V2000
   -0.0543    1.9736    3.8406 C   0  0  0  0  0  0  0  0  0  0  0  0
    0.6744    1.6099    4.7562 O   0  0  0  0  0  0  0  0  0  0  0  0
   -0.5599    3.3779    3.8160 C   0  0  0  0  0  0  0  0  0  0  0  0
   -1.5202    3.4885    4.3450 H   0  0  0  0  0  0  0  0  0  0  0  0
    0.1282    4.0814    4.3116 H   0  0  0  0  0  0  0  0  0  0  0  0
   -0.7317    3.7994    2.8126 H   0  0  0  0  0  0  0  0  0  0  0  0
   -0.4812    1.1968    2.7762 N   0  0  0  0  0  0  0  0  0  0  0  0
   -0.1106   -0.1834    2.6051 C   0  0  2  0  0  0  0  0  0  0  0  0
   -0.0696   -0.4775    1.1113 C   0  0  0  0  0  0  0  0  0  0  0  0
   -0.6805    0.1900    0.2792 O   0  0  0  0  0  0  0  0  0  0  0  0
   -1.0852   -1.1101    3.3150 C   0  0  0  0  0  0  0  0  0  0  0  0
   -1.0883    1.6241    2.0791 H   0  0  0  0  0  0  0  0  0  0  0  0
    0.8937   -0.2959    3.0277 H   0  0  0  0  0  0  0  0  0  0  0  0
   -2.0970   -1.0114    2.9051 H   0  0  0  0  0  0  0  0  0  0  0  0
   -0.7860   -2.1580    3.2078 H   0  0  0  0  0  0  0  0  0  0  0  0
   -1.1357   -0.8775    4.3842 H   0  0  0  0  0  0  0  0  0  0  0  0
    0.6950   -1.6003    0.8178 N   0  0  0  0  0  0  0  0  0  0  0  0
    0.8777   -2.0908   -0.5246 C   0  0  2  0  0  0  0  0  0  0  0  0
    0.6925   -3.6027   -0.4905 C   0  0  0  0  0  0  0  0  0  0  0  0
    0.0572   -4.2209   -1.3424 O   0  0  0  0  0  0  0  0  0  0  0  0
    2.2553   -1.7294   -1.0804 C   0  0  0  0  0  0  0  0  0  0  0  0
    2.4146   -0.2461   -1.3640 C   0  0  0  0  0  0  0  0  0  0  0  0
    1.5503    0.4511   -1.8869 O   0  0  0  0  0  0  0  0  0  0  0  0
    3.6430    0.2337   -0.9615 N   0  0  0  0  0  0  0  0  0  0  0  0
    1.1810   -2.0803    1.5718 H   0  0  0  0  0  0  0  0  0  0  0  0
    0.0786   -1.6479   -1.1305 H   0  0  0  0  0  0  0  0  0  0  0  0
    3.0386   -2.0062   -0.3635 H   0  0  0  0  0  0  0  0  0  0  0  0
    2.4543   -2.2841   -2.0064 H   0  0  0  0  0  0  0  0  0  0  0  0
    4.3265   -0.3792   -0.5297 H   0  0  0  0  0  0  0  0  0  0  0  0
    3.9111    1.2057   -1.0787 H   0  0  0  0  0  0  0  0  0  0  0  0
    1.3613   -4.1891    0.5747 N   0  0  0  0  0  0  0  0  0  0  0  0
    1.3502   -5.6156    0.7942 C   0  0  2  0  0  0  0  0  0  0  0  0
    1.9064   -6.2878   -0.4541 C   0  0  0  0  0  0  0  0  0  0  0  0
    1.9090   -5.7514   -1.5602 O   0  0  0  0  0  0  0  0  0  0  0  0
   -0.0519   -6.1171    1.1027 C   0  0  0  0  0  0  0  0  0  0  0  0
    1.8846   -3.6075    1.2226 H   0  0  0  0  0  0  0  0  0  0  0  0
    2.0161   -5.8103    1.6420 H   0  0  0  0  0  0  0  0  0  0  0  0
   -0.7334   -5.9307    0.2647 H   0  0  0  0  0  0  0  0  0  0  0  0
   -0.0540   -7.1947    1.2971 H   0  0  0  0  0  0  0  0  0  0  0  0
   -0.4618   -5.6110    1.9834 H   0  0  0  0  0  0  0  0  0  0  0  0
    2.3600   -7.5738   -0.1963 N   0  0  0  0  0  0  0  0  0  0  0  0
    2.9216   -8.4226   -1.2210 C   0  0  0  0  0  0  0  0  0  0  0  0
    2.3367   -7.9307    0.7545 H   0  0  0  0  0  0  0  0  0  0  0  0
    2.1274   -9.0460   -1.6575 H   0  0  0  0  0  0  0  0  0  0  0  0
    3.3719   -7.7990   -2.0074 H   0  0  0  0  0  0  0  0  0  0  0  0
    3.6938   -9.0693   -0.7788 H   0  0  0  0  0  0  0  0  0  0  0  0
  1  3  1  0  0  0  0
  1  7  1  0  0  0  0
  1  2  2  0  0  0  0
 21 22  1  0  0  0  0
 22 24  1  0  0  0  0
 22 23  2  0  0  0  0
 32 33  1  0  0  0  0
 33 41  1  0  0  0  0
 33 34  2  0  0  0  0
  8  9  1  0  0  0  0
  9 17  1  0  0  0  0
  9 10  2  0  0  0  0
 18 19  1  0  0  0  0
 19 31  1  0  0  0  0
 19 20  2  0  0  0  0
 32 35  1  0  0  0  0
  8 11  1  0  0  0  0
 41 42  1  0  0  0  0
 18 21  1  0  0  0  0
 31 32  1  0  0  0  0
  7  8  1  0  0  0  0
 17 18  1  0  0  0  0
  3  4  1  0  0  0  0
  3  5  1  0  0  0  0
  3  6  1  0  0  0  0
 35 38  1  0  0  0  0
 35 39  1  0  0  0  0
 35 40  1  0  0  0  0
 11 14  1  0  0  0  0
 11 15  1  0  0  0  0
 11 16  1  0  0  0  0
 42 44  1  0  0  0  0
 42 45  1  0  0  0  0
 42 46  1  0  0  0  0
 21 27  1  0  0  0  0
 21 28  1  0  0  0  0
 32 37  1  0  0  0  0
  8 13  1  0  0  0  0
 18 26  1  0  0  0  0
 24 29  1  0  0  0  0
 24 30  1  0  0  0  0
 41 43  1  0  0  0  0
  7 12  1  0  0  0  0
 31 36  1  0  0  0  0
 17 25  1  0  0  0  0
M  END
$$$$

  -OEChem-05262214473D

 46 45  0     1  0  0  0  0  0999 V2000
   -0.0543    1.9736    3.8406 C   0  0  0  0  0  0  0  0  0  0  0  0
    0.6744    1.6099    4.7562 O   0  0  0  0  0  0  0  0  0  0  0  0
   -0.5599    3.3779    3.8160 C   0  0  0  0  0  0  0  0  0  0  0  0
   -1.5202    3.4885    4.3450 H   0  0  0  0  0  0  0  0  0  0  0  0
    0.1282    4.0814    4.3116 H   0  0  0  0  0  0  0  0  0  0  0  0
   -0.7317    3.7994    2.8126 H   0  0  0  0  0  0  0  0  0  0  0  0
   -0.4812    1.1968    2.7762 N   0  0  0  0  0  0  0  0  0  0  0  0
   -0.1106   -0.1834    2.6051 C   0  0  2  0  0  0  0  0  0  0  0  0
   -0.0696   -0.4775    1.1113 C   0  0  0  0  0  0  0  0  0  0  0  0
   -0.6805    0.1900    0.2792 O   0  0  0  0  0  0  0  0  0  0  0  0
   -1.0852   -1.1101    3.3150 C   0  0  0  0  0  0  0  0  0  0  0  0
   -1.0883    1.6241    2.0791 H   0  0  0  0  0  0  0  0  0  0  0  0
    0.8937   -0.2959    3.0277 H   0  0  0  0  0  0  0  0  0  0  0  0
   -2.0970   -1.0114    2.9051 H   0  0  0  0  0  0  0  0  0  0  0  0
   -0.7860   -2.1580    3.2078 H   0  0  0  0  0  0  0  0  0  0  0  0
   -1.1357   -0.8775    4.3842 H   0  0  0  0  0  0  0  0  0  0  0  0
    0.6950   -1.6003    0.8178 N   0  0  0  0  0  0  0  0  0  0  0  0
    0.8777   -2.0908   -0.5246 C   0  0  2  0  0  0  0  0  0  0  0  0
    0.6925   -3.6027   -0.4905 C   0  0  0  0  0  0  0  0  0  0  0  0
    0.2985   -4.2530   -1.4566 O   0  0  0  0  0  0  0  0  0  0  0  0
    2.2553   -1.7294   -1.0804 C   0  0  0  0  0  0  0  0  0  0  0  0
    2.4146   -0.2461   -1.3640 C   0  0  0  0  0  0  0  0  0  0  0  0
    1.5503    0.4511   -1.8869 O   0  0  0  0  0  0  0  0  0  0  0  0
    3.6430    0.2337   -0.9615 N   0  0  0  0  0  0  0  0  0  0  0  0
    1.1810   -2.0803    1.5718 H   0  0  0  0  0  0  0  0  0  0  0  0
    0.0786   -1.6479   -1.1305 H   0  0  0  0  0  0  0  0  0  0  0  0
    3.0386   -2.0062   -0.3635 H   0  0  0  0  0  0  0  0  0  0  0  0
    2.4543   -2.2841   -2.0064 H   0  0  0  0  0  0  0  0  0  0  0  0
    4.3265   -0.3792   -0.5297 H   0  0  0  0  0  0  0  0  0  0  0  0
    3.9111    1.2057   -1.0787 H   0  0  0  0  0  0  0  0  0  0  0  0
    1.0662   -4.1495    0.7291 N   0  0  0  0  0  0  0  0  0  0  0  0
    1.0015   -5.5686    0.9841 C   0  0  2  0  0  0  0  0  0  0  0  0
    1.8608   -6.2733   -0.0572 C   0  0  0  0  0  0  0  0  0  0  0  0
    2.1466   -5.7710   -1.1422 O   0  0  0  0  0  0  0  0  0  0  0  0
   -0.4320   -6.0743    0.9383 C   0  0  0  0  0  0  0  0  0  0  0  0
    1.4045   -3.5432    1.4704 H   0  0  0  0  0  0  0  0  0  0  0  0
    1.4275   -5.7306    1.9803 H   0  0  0  0  0  0  0  0  0  0  0  0
   -0.8757   -5.9204   -0.0521 H   0  0  0  0  0  0  0  0  0  0  0  0
   -0.4822   -7.1454    1.1602 H   0  0  0  0  0  0  0  0  0  0  0  0
   -1.0553   -5.5454    1.6674 H   0  0  0  0  0  0  0  0  0  0  0  0
    2.2351   -7.5462    0.3497 N   0  0  0  0  0  0  0  0  0  0  0  0
    3.0426   -8.4205   -0.4686 C   0  0  0  0  0  0  0  0  0  0  0  0
    1.9689   -7.8739    1.2736 H   0  0  0  0  0  0  0  0  0  0  0  0
    2.3882   -9.0648   -1.0741 H   0  0  0  0  0  0  0  0  0  0  0  0
    3.6787   -7.8168   -1.1327 H   0  0  0  0  0  0  0  0  0  0  0  0
    3.6763   -9.0456    0.1776 H   0  0  0  0  0  0  0  0  0  0  0  0
  1  3  1  0  0  0  0
  1  7  1  0  0  0  0
  1  2  2  0  0  0  0
 21 22  1  0  0  0  0
 22 24  1  0  0  0  0
 22 23  2  0  0  0  0
 32 33  1  0  0  0  0
 33 41  1  0  0  0  0
 33 34  2  0  0  0  0
  8  9  1  0  0  0  0
  9 17  1  0  0  0  0
  9 10  2  0  0  0  0
 18 19  1  0  0  0  0
 19 31  1  0  0  0  0
 19 20  2  0  0  0  0
 32 35  1  0  0  0  0
  8 11  1  0  0  0  0
 41 42  1  0  0  0  0
 18 21  1  0  0  0  0
 31 32  1  0  0  0  0
  7  8  1  0  0  0  0
 17 18  1  0  0  0  0
  3  4  1  0  0  0  0
  3  5  1  0  0  0  0
  3  6  1  0  0  0  0
 35 38  1  0  0  0  0
 35 39  1  0  0  0  0
 35 40  1  0  0  0  0
 11 14  1  0  0  0  0
 11 15  1  0  0  0  0
 11 16  1  0  0  0  0
 42 44  1  0  0  0  0
 42 45  1  0  0  0  0
 42 46  1  0  0  0  0
 21 27  1  0  0  0  0
 21 28  1  0  0  0  0
 32 37  1  0  0  0  0
  8 13  1  0  0  0  0
 18 26  1  0  0  0  0
 24 29  1  0  0  0  0
 24 30  1  0  0  0  0
 41 43  1  0  0  0  0
  7 12  1  0  0  0  0
 31 36  1  0  0  0  0
 17 25  1  0  0  0  0
M  END
$$$$

  -OEChem-05262214473D

 46 45  0     1  0  0  0  0  0999 V2000
   -0.0543    1.9736    3.8406 C   0  0  0  0  0  0  0  0  0  0  0  0
    0.6744    1.6099    4.7562 O   0  0  0  0  0  0  0  0  0  0  0  0
   -0.5599    3.3779    3.8160 C   0  0  0  0  0  0  0  0  0  0  0  0
   -1.5202    3.4885    4.3450 H   0  0  0  0  0  0  0  0  0  0  0  0
    0.1282    4.0814    4.3116 H   0  0  0  0  0  0  0  0  0  0  0  0
   -0.7317    3.7994    2.8126 H   0  0  0  0  0  0  0  0  0  0  0  0
   -0.4812    1.1968    2.7762 N   0  0  0  0  0  0  0  0  0  0  0  0
   -0.1106   -0.1834    2.6051 C   0  0  2  0  0  0  0  0  0  0  0  0
   -0.0696   -0.4775    1.1113 C   0  0  0  0  0  0  0  0  0  0  0  0
   -0.6805    0.1900    0.2792 O   0  0  0  0  0  0  0  0  0  0  0  0
   -1.0852   -1.1101    3.3150 C   0  0  0  0  0  0  0  0  0  0  0  0
   -1.0883    1.6241    2.0791 H   0  0  0  0  0  0  0  0  0  0  0  0
    0.8937   -0.2959    3.0277 H   0  0  0  0  0  0  0  0  0  0  0  0
   -2.0970   -1.0114    2.9051 H   0  0  0  0  0  0  0  0  0  0  0  0
   -0.7860   -2.1580    3.2078 H   0  0  0  0  0  0  0  0  0  0  0  0
   -1.1357   -0.8775    4.3842 H   0  0  0  0  0  0  0  0  0  0  0  0
    0.6950   -1.6003    0.8178 N   0  0  0  0  0  0  0  0  0  0  0  0
    0.8777   -2.0908   -0.5246 C   0  0  2  0  0  0  0  0  0  0  0  0
    0.6925   -3.6027   -0.4905 C   0  0  0  0  0  0  0  0  0  0  0  0
    0.5610   -4.2862   -1.5039 O   0  0  0  0  0  0  0  0  0  0  0  0
    2.2553   -1.7294   -1.0804 C   0  0  0  0  0  0  0  0  0  0  0  0
    2.4146   -0.2461   -1.3640 C   0  0  0  0  0  0  0  0  0  0  0  0
    1.5503    0.4511   -1.8869 O   0  0  0  0  0  0  0  0  0  0  0  0
    3.6430    0.2337   -0.9615 N   0  0  0  0  0  0  0  0  0  0  0  0
    1.1810   -2.0803    1.5718 H   0  0  0  0  0  0  0  0  0  0  0  0
    0.0786   -1.6479   -1.1305 H   0  0  0  0  0  0  0  0  0  0  0  0
    3.0386   -2.0062   -0.3635 H   0  0  0  0  0  0  0  0  0  0  0  0
    2.4543   -2.2841   -2.0064 H   0  0  0  0  0  0  0  0  0  0  0  0
    4.3265   -0.3792   -0.5297 H   0  0  0  0  0  0  0  0  0  0  0  0
    3.9111    1.2057   -1.0787 H   0  0  0  0  0  0  0  0  0  0  0  0
    0.7412   -4.1081    0.8011 N   0  0  0  0  0  0  0  0  0  0  0  0
    0.6155   -5.5193    1.0766 C   0  0  2  0  0  0  0  0  0  0  0  0
    1.7147   -6.2470    0.3140 C   0  0  0  0  0  0  0  0  0  0  0  0
    2.2689   -5.7755   -0.6768 O   0  0  0  0  0  0  0  0  0  0  0  0
   -0.7572   -6.0402    0.6806 C   0  0  0  0  0  0  0  0  0  0  0  0
    0.8766   -3.4759    1.5845 H   0  0  0  0  0  0  0  0  0  0  0  0
    0.7716   -5.6464    2.1534 H   0  0  0  0  0  0  0  0  0  0  0  0
   -0.9318   -5.9213   -0.3950 H   0  0  0  0  0  0  0  0  0  0  0  0
   -0.8610   -7.1045    0.9165 H   0  0  0  0  0  0  0  0  0  0  0  0
   -1.5478   -5.4955    1.2078 H   0  0  0  0  0  0  0  0  0  0  0  0
    1.9740   -7.5031    0.8442 N   0  0  0  0  0  0  0  0  0  0  0  0
    2.9661   -8.3940    0.2892 C   0  0  0  0  0  0  0  0  0  0  0  0
    1.4800   -7.8049    1.6788 H   0  0  0  0  0  0  0  0  0  0  0  0
    2.4903   -9.0631   -0.4429 H   0  0  0  0  0  0  0  0  0  0  0  0
    3.7505   -7.8048   -0.2084 H   0  0  0  0  0  0  0  0  0  0  0  0
    3.4136   -8.9927    1.0962 H   0  0  0  0  0  0  0  0  0  0  0  0
  1  3  1  0  0  0  0
  1  7  1  0  0  0  0
  1  2  2  0  0  0  0
 21 22  1  0  0  0  0
 22 24  1  0  0  0  0
 22 23  2  0  0  0  0
 32 33  1  0  0  0  0
 33 41  1  0  0  0  0
 33 34  2  0  0  0  0
  8  9  1  0  0  0  0
  9 17  1  0  0  0  0
  9 10  2  0  0  0  0
 18 19  1  0  0  0  0
 19 31  1  0  0  0  0
 19 20  2  0  0  0  0
 32 35  1  0  0  0  0
  8 11  1  0  0  0  0
 41 42  1  0  0  0  0
 18 21  1  0  0  0  0
 31 32  1  0  0  0  0
  7  8  1  0  0  0  0
 17 18  1  0  0  0  0
  3  4  1  0  0  0  0
  3  5  1  0  0  0  0
  3  6  1  0  0  0  0
 35 38  1  0  0  0  0
 35 39  1  0  0  0  0
 35 40  1  0  0  0  0
 11 14  1  0  0  0  0
 11 15  1  0  0  0  0
 11 16  1  0  0  0  0
 42 44  1  0  0  0  0
 42 45  1  0  0  0  0
 42 46  1  0  0  0  0
 21 27  1  0  0  0  0
 21 28  1  0  0  0  0
 32 37  1  0  0  0  0
  8 13  1  0  0  0  0
 18 26  1  0  0  0  0
 24 29  1  0  0  0  0
 24 30  1  0  0  0  0
 41 43  1  0  0  0  0
  7 12  1  0  0  0  0
 31 36  1  0  0  0  0
 17 25  1  0  0  0  0
M  END
$$$$

  -OEChem-05262214473D

 46 45  0     1  0  0  0  0  0999 V2000
   -0.0543    1.9736    3.8406 C   0  0  0  0  0  0  0  0  0  0  0  0
    0.6744    1.6099    4.7562 O   0  0  0  0  0  0  0  0  0  0  0  0
   -0.5599    3.3779    3.8160 C   0  0  0  0  0  0  0  0  0  0  0  0
   -1.5202    3.4885    4.3450 H   0  0  0  0  0  0  0  0  0  0  0  0
    0.1282    4.0814    4.3116 H   0  0  0  0  0  0  0  0  0  0  0  0
   -0.7317    3.7994    2.8126 H   0  0  0  0  0  0  0  0  0  0  0  0
   -0.4812    1.1968    2.7762 N   0  0  0  0  0  0  0  0  0  0  0  0
   -0.1106   -0.1834    2.6051 C   0  0  2  0  0  0  0  0  0  0  0  0
   -0.0696   -0.4775    1.1113 C   0  0  0  0  0  0  0  0  0  0  0  0
   -0.6805    0.1900    0.2792 O   0  0  0  0  0  0  0  0  0  0  0  0
   -1.0852   -1.1101    3.3150 C   0  0  0  0  0  0  0  0  0  0  0  0
   -1.0883    1.6241    2.0791 H   0  0  0  0  0  0  0  0  0  0  0  0
    0.8937   -0.2959    3.0277 H   0  0  0  0  0  0  0  0  0  0  0  0
   -2.0970   -1.0114    2.9051 H   0  0  0  0  0  0  0  0  0  0  0  0
   -0.7860   -2.1580    3.2078 H   0  0  0  0  0  0  0  0  0  0  0  0
   -1.1357   -0.8775    4.3842 H   0  0  0  0  0  0  0  0  0  0  0  0
    0.6950   -1.6003    0.8178 N   0  0  0  0  0  0  0  0  0  0  0  0
    0.8777   -2.0908   -0.5246 C   0  0  2  0  0  0  0  0  0  0  0  0
    0.6925   -3.6027   -0.4905 C   0  0  0  0  0  0  0  0  0  0  0  0
    0.8269   -4.3183   -1.4811 O   0  0  0  0  0  0  0  0  0  0  0  0
    2.2553   -1.7294   -1.0804 C   0  0  0  0  0  0  0  0  0  0  0  0
    2.4146   -0.2461   -1.3640 C   0  0  0  0  0  0  0  0  0  0  0  0
    1.5503    0.4511   -1.8869 O   0  0  0  0  0  0  0  0  0  0  0  0
    3.6430    0.2337   -0.9615 N   0  0  0  0  0  0  0  0  0  0  0  0
    1.1810   -2.0803    1.5718 H   0  0  0  0  0  0  0  0  0  0  0  0
    0.0786   -1.6479   -1.1305 H   0  0  0  0  0  0  0  0  0  0  0  0
    3.0386   -2.0062   -0.3635 H   0  0  0  0  0  0  0  0  0  0  0  0
    2.4543   -2.2841   -2.0064 H   0  0  0  0  0  0  0  0  0  0  0  0
    4.3265   -0.3792   -0.5297 H   0  0  0  0  0  0  0  0  0  0  0  0
    3.9111    1.2057   -1.0787 H   0  0  0  0  0  0  0  0  0  0  0  0
    0.4086   -4.0677    0.7859 N   0  0  0  0  0  0  0  0  0  0  0  0
    0.2187   -5.4709    1.0651 C   0  0  2  0  0  0  0  0  0  0  0  0
    1.4782   -6.2108    0.6342 C   0  0  0  0  0  0  0  0  0  0  0  0
    2.2675   -5.7645   -0.1958 O   0  0  0  0  0  0  0  0  0  0  0  0
   -1.0054   -6.0174    0.3470 C   0  0  0  0  0  0  0  0  0  0  0  0
    0.3371   -3.4105    1.5571 H   0  0  0  0  0  0  0  0  0  0  0  0
    0.0931   -5.5634    2.1494 H   0  0  0  0  0  0  0  0  0  0  0  0
   -0.8979   -5.9332   -0.7406 H   0  0  0  0  0  0  0  0  0  0  0  0
   -1.1644   -7.0749    0.5825 H   0  0  0  0  0  0  0  0  0  0  0  0
   -1.9058   -5.4645    0.6357 H   0  0  0  0  0  0  0  0  0  0  0  0
    1.5946   -7.4475    1.2533 N   0  0  0  0  0  0  0  0  0  0  0  0
    2.6975   -8.3451    1.0007 C   0  0  0  0  0  0  0  0  0  0  0  0
    0.9032   -7.7284    1.9424 H   0  0  0  0  0  0  0  0  0  0  0  0
    2.4269   -9.0410    0.1929 H   0  0  0  0  0  0  0  0  0  0  0  0
    3.5824   -7.7637    0.7025 H   0  0  0  0  0  0  0  0  0  0  0  0
    2.9236   -8.9143    1.9144 H   0  0  0  0  0  0  0  0  0  0  0  0
  1  3  1  0  0  0  0
  1  7  1  0  0  0  0
  1  2  2  0  0  0  0
 21 22  1  0  0  0  0
 22 24  1  0  0  0  0
 22 23  2  0  0  0  0
 32 33  1  0  0  0  0
 33 41  1  0  0  0  0
 33 34  2  0  0  0  0
  8  9  1  0  0  0  0
  9 17  1  0  0  0  0
  9 10  2  0  0  0  0
 18 19  1  0  0  0  0
 19 31  1  0  0  0  0
 19 20  2  0  0  0  0
 32 35  1  0  0  0  0
  8 11  1  0  0  0  0
 41 42  1  0  0  0  0
 18 21  1  0  0  0  0
 31 32  1  0  0  0  0
  7  8  1  0  0  0  0
 17 18  1  0  0  0  0
  3  4  1  0  0  0  0
  3  5  1  0  0  0  0
  3  6  1  0  0  0  0
 35 38  1  0  0  0  0
 35 39  1  0  0  0  0
 35 40  1  0  0  0  0
 11 14  1  0  0  0  0
 11 15  1  0  0  0  0
 11 16  1  0  0  0  0
 42 44  1  0  0  0  0
 42 45  1  0  0  0  0
 42 46  1  0  0  0  0
 21 27  1  0  0  0  0
 21 28  1  0  0  0  0
 32 37  1  0  0  0  0
  8 13  1  0  0  0  0
 18 26  1  0  0  0  0
 24 29  1  0  0  0  0
 24 30  1  0  0  0  0
 41 43  1  0  0  0  0
  7 12  1  0  0  0  0
 31 36  1  0  0  0  0
 17 25  1  0  0  0  0
M  END
$$$$

  -OEChem-05262214473D

 46 45  0     1  0  0  0  0  0999 V2000
   -0.0543    1.9736    3.8406 C   0  0  0  0  0  0  0  0  0  0  0  0
    0.6744    1.6099    4.7562 O   0  0  0  0  0  0  0  0  0  0  0  0
   -0.5599    3.3779    3.8160 C   0  0  0  0  0  0  0  0  0  0  0  0
   -1.5202    3.4885    4.3450 H   0  0  0  0  0  0  0  0  0  0  0  0
    0.1282    4.0814    4.3116 H   0  0  0  0  0  0  0  0  0  0  0  0
   -0.7317    3.7994    2.8126 H   0  0  0  0  0  0  0  0  0  0  0  0
   -0.4812    1.1968    2.7762 N   0  0  0  0  0  0  0  0  0  0  0  0
   -0.1106   -0.1834    2.6051 C   0  0  2  0  0  0  0  0  0  0  0  0
   -0.0696   -0.4775    1.1113 C   0  0  0  0  0  0  0  0  0  0  0  0
   -0.6805    0.1900    0.2792 O   0  0  0  0  0  0  0  0  0  0  0  0
   -1.0852   -1.1101    3.3150 C   0  0  0  0  0  0  0  0  0  0  0  0
   -1.0883    1.6241    2.0791 H   0  0  0  0  0  0  0  0  0  0  0  0
    0.8937   -0.2959    3.0277 H   0  0  0  0  0  0  0  0  0  0  0  0
   -2.0970   -1.0114    2.9051 H   0  0  0  0  0  0  0  0  0  0  0  0
   -0.7860   -2.1580    3.2078 H   0  0  0  0  0  0  0  0  0  0  0  0
   -1.1357   -0.8775    4.3842 H   0  0  0  0  0  0  0  0  0  0  0  0
    0.6950   -1.6003    0.8178 N   0  0  0  0  0  0  0  0  0  0  0  0
    0.8777   -2.0908   -0.5246 C   0  0  2  0  0  0  0  0  0  0  0  0
    0.6925   -3.6027   -0.4905 C   0  0  0  0  0  0  0  0  0  0  0  0
    1.0781   -4.3470   -1.3898 O   0  0  0  0  0  0  0  0  0  0  0  0
    2.2553   -1.7294   -1.0804 C   0  0  0  0  0  0  0  0  0  0  0  0
    2.4146   -0.2461   -1.3640 C   0  0  0  0  0  0  0  0  0  0  0  0
    1.5503    0.4511   -1.8869 O   0  0  0  0  0  0  0  0  0  0  0  0
    3.6430    0.2337   -0.9615 N   0  0  0  0  0  0  0  0  0  0  0  0
    1.1810   -2.0803    1.5718 H   0  0  0  0  0  0  0  0  0  0  0  0
    0.0786   -1.6479   -1.1305 H   0  0  0  0  0  0  0  0  0  0  0  0
    3.0386   -2.0062   -0.3635 H   0  0  0  0  0  0  0  0  0  0  0  0
    2.4543   -2.2841   -2.0064 H   0  0  0  0  0  0  0  0  0  0  0  0
    4.3265   -0.3792   -0.5297 H   0  0  0  0  0  0  0  0  0  0  0  0
    3.9111    1.2057   -1.0787 H   0  0  0  0  0  0  0  0  0  0  0  0
    0.0909   -4.0311    0.6845 N   0  0  0  0  0  0  0  0  0  0  0  0
   -0.1620   -5.4269    0.9507 C   0  0  2  0  0  0  0  0  0  0  0  0
    1.1672   -6.1672    0.8816 C   0  0  0  0  0  0  0  0  0  0  0  0
    2.1425   -5.7388    0.2682 O   0  0  0  0  0  0  0  0  0  0  0  0
   -1.1595   -6.0072   -0.0397 C   0  0  0  0  0  0  0  0  0  0  0  0
   -0.1774   -3.3513    1.3899 H   0  0  0  0  0  0  0  0  0  0  0  0
   -0.5618   -5.4873    1.9688 H   0  0  0  0  0  0  0  0  0  0  0  0
   -0.7763   -5.9554   -1.0654 H   0  0  0  0  0  0  0  0  0  0  0  0
   -1.3719   -7.0585    0.1810 H   0  0  0  0  0  0  0  0  0  0  0  0
   -2.1048   -5.4547   -0.0098 H   0  0  0  0  0  0  0  0  0  0  0  0
    1.1227   -7.3830    1.5494 N   0  0  0  0  0  0  0  0  0  0  0  0
    2.2550   -8.2770    1.6174 C   0  0  0  0  0  0  0  0  0  0  0  0
    0.2780   -7.6494    2.0465 H   0  0  0  0  0  0  0  0  0  0  0  0
    2.2022   -9.0000    0.7901 H   0  0  0  0  0  0  0  0  0  0  0  0
    3.1859   -7.6963    1.5378 H   0  0  0  0  0  0  0  0  0  0  0  0
    2.2397   -8.8156    2.5764 H   0  0  0  0  0  0  0  0  0  0  0  0
  1  3  1  0  0  0  0
  1  7  1  0  0  0  0
  1  2  2  0  0  0  0
 21 22  1  0  0  0  0
 22 24  1  0  0  0  0
 22 23  2  0  0  0  0
 32 33  1  0  0  0  0
 33 41  1  0  0  0  0
 33 34  2  0  0  0  0
  8  9  1  0  0  0  0
  9 17  1  0  0  0  0
  9 10  2  0  0  0  0
 18 19  1  0  0  0  0
 19 31  1  0  0  0  0
 19 20  2  0  0  0  0
 32 35  1  0  0  0  0
  8 11  1  0  0  0  0
 41 42  1  0  0  0  0
 18 21  1  0  0  0  0
 31 32  1  0  0  0  0
  7  8  1  0  0  0  0
 17 18  1  0  0  0  0
  3  4  1  0  0  0  0
  3  5  1  0  0  0  0
  3  6  1  0  0  0  0
 35 38  1  0  0  0  0
 35 39  1  0  0  0  0
 35 40  1  0  0  0  0
 11 14  1  0  0  0  0
 11 15  1  0  0  0  0
 11 16  1  0  0  0  0
 42 44  1  0  0  0  0
 42 45  1  0  0  0  0
 42 46  1  0  0  0  0
 21 27  1  0  0  0  0
 21 28  1  0  0  0  0
 32 37  1  0  0  0  0
  8 13  1  0  0  0  0
 18 26  1  0  0  0  0
 24 29  1  0  0  0  0
 24 30  1  0  0  0  0
 41 43  1  0  0  0  0
  7 12  1  0  0  0  0
 31 36  1  0  0  0  0
 17 25  1  0  0  0  0
M  END
$$$$

  -OEChem-05262214473D

 46 45  0     1  0  0  0  0  0999 V2000
   -0.0543    1.9736    3.8406 C   0  0  0  0  0  0  0  0  0  0  0  0
    0.6744    1.6099    4.7562 O   0  0  0  0  0  0  0  0  0  0  0  0
   -0.5599    3.3779    3.8160 C   0  0  0  0  0  0  0  0  0  0  0  0
   -1.5202    3.4885    4.3450 H   0  0  0  0  0  0  0  0  0  0  0  0
    0.1282    4.0814    4.3116 H   0  0  0  0  0  0  0  0  0  0  0  0
   -0.7317    3.7994    2.8126 H   0  0  0  0  0  0  0  0  0  0  0  0
   -0.4812    1.1968    2.7762 N   0  0  0  0  0  0  0  0  0  0  0  0
   -0.1106   -0.1834    2.6051 C   0  0  2  0  0  0  0  0  0  0  0  0
   -0.0696   -0.4775    1.1113 C   0  0  0  0  0  0  0  0  0  0  0  0
   -0.6805    0.1900    0.2792 O   0  0  0  0  0  0  0  0  0  0  0  0
   -1.0852   -1.1101    3.3150 C   0  0  0  0  0  0  0  0  0  0  0  0
   -1.0883    1.6241    2.0791 H   0  0  0  0  0  0  0  0  0  0  0  0
    0.8937   -0.2959    3.0277 H   0  0  0  0  0  0  0  0  0  0  0  0
   -2.0970   -1.0114    2.9051 H   0  0  0  0  0  0  0  0  0  0  0  0
   -0.7860   -2.1580    3.2078 H   0  0  0  0  0  0  0  0  0  0  0  0
   -1.1357   -0.8775    4.3842 H   0  0  0  0  0  0  0  0  0  0  0  0
    0.6950   -1.6003    0.8178 N   0  0  0  0  0  0  0  0  0  0  0  0
    0.8777   -2.0908   -0.5246 C   0  0  2  0  0  0  0  0  0  0  0  0
    0.6925   -3.6027   -0.4905 C   0  0  0  0  0  0  0  0  0  0  0  0
    1.2975   -4.3704   -1.2362 O   0  0  0  0  0  0  0  0  0  0  0  0
    2.2553   -1.7294   -1.0804 C   0  0  0  0  0  0  0  0  0  0  0  0
    2.4146   -0.2461   -1.3640 C   0  0  0  0  0  0  0  0  0  0  0  0
    1.5503    0.4511   -1.8869 O   0  0  0  0  0  0  0  0  0  0  0  0
    3.6430    0.2337   -0.9615 N   0  0  0  0  0  0  0  0  0  0  0  0
    1.1810   -2.0803    1.5718 H   0  0  0  0  0  0  0  0  0  0  0  0
    0.0786   -1.6479   -1.1305 H   0  0  0  0  0  0  0  0  0  0  0  0
    3.0386   -2.0062   -0.3635 H   0  0  0  0  0  0  0  0  0  0  0  0
    2.4543   -2.2841   -2.0064 H   0  0  0  0  0  0  0  0  0  0  0  0
    4.3265   -0.3792   -0.5297 H   0  0  0  0  0  0  0  0  0  0  0  0
    3.9111    1.2057   -1.0787 H   0  0  0  0  0  0  0  0  0  0  0  0
   -0.1900   -4.0008    0.5038 N   0  0  0  0  0  0  0  0  0  0  0  0
   -0.5005   -5.3902    0.7410 C   0  0  2  0  0  0  0  0  0  0  0  0
    0.8030   -6.1190    1.0393 C   0  0  0  0  0  0  0  0  0  0  0  0
    1.9025   -5.7000    0.6834 O   0  0  0  0  0  0  0  0  0  0  0  0
   -1.2091   -6.0105   -0.4531 C   0  0  0  0  0  0  0  0  0  0  0  0
   -0.6317   -3.3023    1.0944 H   0  0  0  0  0  0  0  0  0  0  0  0
   -1.1484   -5.4232    1.6237 H   0  0  0  0  0  0  0  0  0  0  0  0
   -0.5754   -5.9864   -1.3471 H   0  0  0  0  0  0  0  0  0  0  0  0
   -1.4694   -7.0565   -0.2606 H   0  0  0  0  0  0  0  0  0  0  0  0
   -2.1313   -5.4666   -0.6847 H   0  0  0  0  0  0  0  0  0  0  0  0
    0.5905   -7.3142    1.7121 N   0  0  0  0  0  0  0  0  0  0  0  0
    1.6688   -8.1944    2.0973 C   0  0  0  0  0  0  0  0  0  0  0  0
   -0.3531   -7.5736    1.9840 H   0  0  0  0  0  0  0  0  0  0  0  0
    1.8316   -8.9430    1.3079 H   0  0  0  0  0  0  0  0  0  0  0  0
    2.5879   -7.6072    2.2407 H   0  0  0  0  0  0  0  0  0  0  0  0
    1.4086   -8.7034    3.0371 H   0  0  0  0  0  0  0  0  0  0  0  0
  1  3  1  0  0  0  0
  1  7  1  0  0  0  0
  1  2  2  0  0  0  0
 21 22  1  0  0  0  0
 22 24  1  0  0  0  0
 22 23  2  0  0  0  0
 32 33  1  0  0  0  0
 33 41  1  0  0  0  0
 33 34  2  0  0  0  0
  8  9  1  0  0  0  0
  9 17  1  0  0  0  0
  9 10  2  0  0  0  0
 18 19  1  0  0  0  0
 19 31  1  0  0  0  0
 19 20  2  0  0  0  0
 32 35  1  0  0  0  0
  8 11  1  0  0  0  0
 41 42  1  0  0  0  0
 18 21  1  0  0  0  0
 31 32  1  0  0  0  0
  7  8  1  0  0  0  0
 17 18  1  0  0  0  0
  3  4  1  0  0  0  0
  3  5  1  0  0  0  0
  3  6  1  0  0  0  0
 35 38  1  0  0  0  0
 35 39  1  0  0  0  0
 35 40  1  0  0  0  0
 11 14  1  0  0  0  0
 11 15  1  0  0  0  0
 11 16  1  0  0  0  0
 42 44  1  0  0  0  0
 42 45  1  0  0  0  0
 42 46  1  0  0  0  0
 21 27  1  0  0  0  0
 21 28  1  0  0  0  0
 32 37  1  0  0  0  0
  8 13  1  0  0  0  0
 18 26  1  0  0  0  0
 24 29  1  0  0  0  0
 24 30  1  0  0  0  0
 41 43  1  0  0  0  0
  7 12  1  0  0  0  0
 31 36  1  0  0  0  0
 17 25  1  0  0  0  0
M  END
$$$$

  -OEChem-05262214473D

 46 45  0     1  0  0  0  0  0999 V2000
   -0.0543    1.9736    3.8406 C   0  0  0  0  0  0  0  0  0  0  0  0
    0.6744    1.6099    4.7562 O   0  0  0  0  0  0  0  0  0  0  0  0
   -0.5599    3.3779    3.8160 C   0  0  0  0  0  0  0  0  0  0  0  0
   -1.5202    3.4885    4.3450 H   0  0  0  0  0  0  0  0  0  0  0  0
    0.1282    4.0814    4.3116 H   0  0  0  0  0  0  0  0  0  0  0  0
   -0.7317    3.7994    2.8126 H   0  0  0  0  0  0  0  0  0  0  0  0
   -0.4812    1.1968    2.7762 N   0  0  0  0  0  0  0  0  0  0  0  0
   -0.1106   -0.1834    2.6051 C   0  0  2  0  0  0  0  0  0  0  0  0
   -0.0696   -0.4775    1.1113 C   0  0  0  0  0  0  0  0  0  0  0  0
   -0.6805    0.1900    0.2792 O   0  0  0  0  0  0  0  0  0  0  0  0
   -1.0852   -1.1101    3.3150 C   0  0  0  0  0  0  0  0  0  0  0  0
   -1.0883    1.6241    2.0791 H   0  0  0  0  0  0  0  0  0  0  0  0
    0.8937   -0.2959    3.0277 H   0  0  0  0  0  0  0  0  0  0  0  0
   -2.0970   -1.0114    2.9051 H   0  0  0  0  0  0  0  0  0  0  0  0
   -0.7860   -2.1580    3.2078 H   0  0  0  0  0  0  0  0  0  0  0  0
   -1.1357   -0.8775    4.3842 H   0  0  0  0  0  0  0  0  0  0  0  0
    0.6950   -1.6003    0.8178 N   0  0  0  0  0  0  0  0  0  0  0  0
    0.8777   -2.0908   -0.5246 C   0  0  2  0  0  0  0  0  0  0  0  0
    0.6925   -3.6027   -0.4905 C   0  0  0  0  0  0  0  0  0  0  0  0
    1.4701   -4.3869   -1.0308 O   0  0  0  0  0  0  0  0  0  0  0  0
    2.2553   -1.7294   -1.0804 C   0  0  0  0  0  0  0  0  0  0  0  0
    2.4146   -0.2461   -1.3640 C   0  0  0  0  0  0  0  0  0  0  0  0
    1.5503    0.4511   -1.8869 O   0  0  0  0  0  0  0  0  0  0  0  0
    3.6430    0.2337   -0.9615 N   0  0  0  0  0  0  0  0  0  0  0  0
    1.1810   -2.0803    1.5718 H   0  0  0  0  0  0  0  0  0  0  0  0
    0.0786   -1.6479   -1.1305 H   0  0  0  0  0  0  0  0  0  0  0  0
    3.0386   -2.0062   -0.3635 H   0  0  0  0  0  0  0  0  0  0  0  0
    2.4543   -2.2841   -2.0064 H   0  0  0  0  0  0  0  0  0  0  0  0
    4.3265   -0.3792   -0.5297 H   0  0  0  0  0  0  0  0  0  0  0  0
    3.9111    1.2057   -1.0787 H   0  0  0  0  0  0  0  0  0  0  0  0
   -0.4152   -3.9788    0.2562 N   0  0  0  0  0  0  0  0  0  0  0  0
   -0.7738   -5.3632    0.4503 C   0  0  2  0  0  0  0  0  0  0  0  0
    0.4105   -6.0697    1.0966 C   0  0  0  0  0  0  0  0  0  0  0  0
    1.5638   -5.6509    1.0216 O   0  0  0  0  0  0  0  0  0  0  0  0
   -1.1508   -6.0269   -0.8651 C   0  0  0  0  0  0  0  0  0  0  0  0
   -0.9950   -3.2669    0.6908 H   0  0  0  0  0  0  0  0  0  0  0  0
   -1.6267   -5.3756    1.1377 H   0  0  0  0  0  0  0  0  0  0  0  0
   -0.3087   -6.0240   -1.5667 H   0  0  0  0  0  0  0  0  0  0  0  0
   -1.4501   -7.0690   -0.7122 H   0  0  0  0  0  0  0  0  0  0  0  0
   -1.9835   -5.4996   -1.3431 H   0  0  0  0  0  0  0  0  0  0  0  0
    0.0343   -7.2456    1.7305 N   0  0  0  0  0  0  0  0  0  0  0  0
    0.9789   -8.1029    2.4077 C   0  0  0  0  0  0  0  0  0  0  0  0
   -0.9472   -7.5059    1.7592 H   0  0  0  0  0  0  0  0  0  0  0  0
    1.3402   -8.8737    1.7111 H   0  0  0  0  0  0  0  0  0  0  0  0
    1.8293   -7.5026    2.7633 H   0  0  0  0  0  0  0  0  0  0  0  0
    0.4868   -8.5854    3.2651 H   0  0  0  0  0  0  0  0  0  0  0  0
  1  3  1  0  0  0  0
  1  7  1  0  0  0  0
  1  2  2  0  0  0  0
 21 22  1  0  0  0  0
 22 24  1  0  0  0  0
 22 23  2  0  0  0  0
 32 33  1  0  0  0  0
 33 41  1  0  0  0  0
 33 34  2  0  0  0  0
  8  9  1  0  0  0  0
  9 17  1  0  0  0  0
  9 10  2  0  0  0  0
 18 19  1  0  0  0  0
 19 31  1  0  0  0  0
 19 20  2  0  0  0  0
 32 35  1  0  0  0  0
  8 11  1  0  0  0  0
 41 42  1  0  0  0  0
 18 21  1  0  0  0  0
 31 32  1  0  0  0  0
  7  8  1  0  0  0  0
 17 18  1  0  0  0  0
  3  4  1  0  0  0  0
  3  5  1  0  0  0  0
  3  6  1  0  0  0  0
 35 38  1  0  0  0  0
 35 39  1  0  0  0  0
 35 40  1  0  0  0  0
 11 14  1  0  0  0  0
 11 15  1  0  0  0  0
 11 16  1  0  0  0  0
 42 44  1  0  0  0  0
 42 45  1  0  0  0  0
 42 46  1  0  0  0  0
 21 27  1  0  0  0  0
 21 28  1  0  0  0  0
 32 37  1  0  0  0  0
  8 13  1  0  0  0  0
 18 26  1  0  0  0  0
 24 29  1  0  0  0  0
 24 30  1  0  0  0  0
 41 43  1  0  0  0  0
  7 12  1  0  0  0  0
 31 36  1  0  0  0  0
 17 25  1  0  0  0  0
M  END
$$$$

  -OEChem-05262214473D

 46 45  0     1  0  0  0  0  0999 V2000
   -0.0543    1.9736    3.8406 C   0  0  0  0  0  0  0  0  0  0  0  0
    0.6744    1.6099    4.7562 O   0  0  0  0  0  0  0  0  0  0  0  0
   -0.5599    3.3779    3.8160 C   0  0  0  0  0  0  0  0  0  0  0  0
   -1.5202    3.4885    4.3450 H   0  0  0  0  0  0  0  0  0  0  0  0
    0.1282    4.0814    4.3116 H   0  0  0  0  0  0  0  0  0  0  0  0
   -0.7317    3.7994    2.8126 H   0  0  0  0  0  0  0  0  0  0  0  0
   -0.4812    1.1968    2.7762 N   0  0  0  0  0  0  0  0  0  0  0  0
   -0.1106   -0.1834    2.6051 C   0  0  2  0  0  0  0  0  0  0  0  0
   -0.0696   -0.4775    1.1113 C   0  0  0  0  0  0  0  0  0  0  0  0
   -0.6805    0.1900    0.2792 O   0  0  0  0  0  0  0  0  0  0  0  0
   -1.0852   -1.1101    3.3150 C   0  0  0  0  0  0  0  0  0  0  0  0
   -1.0883    1.6241    2.0791 H   0  0  0  0  0  0  0  0  0  0  0  0
    0.8937   -0.2959    3.0277 H   0  0  0  0  0  0  0  0  0  0  0  0
   -2.0970   -1.0114    2.9051 H   0  0  0  0  0  0  0  0  0  0  0  0
   -0.7860   -2.1580    3.2078 H   0  0  0  0  0  0  0  0  0  0  0  0
   -1.1357   -0.8775    4.3842 H   0  0  0  0  0  0  0  0  0  0  0  0
    0.6950   -1.6003    0.8178 N   0  0  0  0  0  0  0  0  0  0  0  0
    0.8777   -2.0908   -0.5246 C   0  0  2  0  0  0  0  0  0  0  0  0
    0.6925   -3.6027   -0.4905 C   0  0  0  0  0  0  0  0  0  0  0  0
    1.5841   -4.3954   -0.7875 O   0  0  0  0  0  0  0  0  0  0  0  0
    2.2553   -1.7294   -1.0804 C   0  0  0  0  0  0  0  0  0  0  0  0
    2.4146   -0.2461   -1.3640 C   0  0  0  0  0  0  0  0  0  0  0  0
    1.5503    0.4511   -1.8869 O   0  0  0  0  0  0  0  0  0  0  0  0
    3.6430    0.2337   -0.9615 N   0  0  0  0  0  0  0  0  0  0  0  0
    1.1810   -2.0803    1.5718 H   0  0  0  0  0  0  0  0  0  0  0  0
    0.0786   -1.6479   -1.1305 H   0  0  0  0  0  0  0  0  0  0  0  0
    3.0386   -2.0062   -0.3635 H   0  0  0  0  0  0  0  0  0  0  0  0
    2.4543   -2.2841   -2.0064 H   0  0  0  0  0  0  0  0  0  0  0  0
    4.3265   -0.3792   -0.5297 H   0  0  0  0  0  0  0  0  0  0  0  0
    3.9111    1.2057   -1.0787 H   0  0  0  0  0  0  0  0  0  0  0  0
   -0.5692   -3.9666   -0.0416 N   0  0  0  0  0  0  0  0  0  0  0  0
   -0.9634   -5.3480    0.0985 C   0  0  2  0  0  0  0  0  0  0  0  0
    0.0163   -6.0225    1.0496 C   0  0  0  0  0  0  0  0  0  0  0  0
    1.1495   -5.5948    1.2598 O   0  0  0  0  0  0  0  0  0  0  0  0
   -0.9886   -6.0554   -1.2475 C   0  0  0  0  0  0  0  0  0  0  0  0
   -1.2424   -3.2475    0.2065 H   0  0  0  0  0  0  0  0  0  0  0  0
   -1.9642   -5.3477    0.5439 H   0  0  0  0  0  0  0  0  0  0  0  0
    0.0055   -6.0657   -1.7091 H   0  0  0  0  0  0  0  0  0  0  0  0
   -1.3154   -7.0952   -1.1431 H   0  0  0  0  0  0  0  0  0  0  0  0
   -1.6714   -5.5512   -1.9400 H   0  0  0  0  0  0  0  0  0  0  0  0
   -0.5082   -7.1821    1.6031 N   0  0  0  0  0  0  0  0  0  0  0  0
    0.2322   -8.0088    2.5275 C   0  0  0  0  0  0  0  0  0  0  0  0
   -1.4636   -7.4510    1.3873 H   0  0  0  0  0  0  0  0  0  0  0  0
    0.7617   -8.7970    1.9722 H   0  0  0  0  0  0  0  0  0  0  0  0
    0.9616   -7.3894    3.0699 H   0  0  0  0  0  0  0  0  0  0  0  0
   -0.4629   -8.4696    3.2448 H   0  0  0  0  0  0  0  0  0  0  0  0
  1  3  1  0  0  0  0
  1  7  1  0  0  0  0
  1  2  2  0  0  0  0
 21 22  1  0  0  0  0
 22 24  1  0  0  0  0
 22 23  2  0  0  0  0
 32 33  1  0  0  0  0
 33 41  1  0  0  0  0
 33 34  2  0  0  0  0
  8  9  1  0  0  0  0
  9 17  1  0  0  0  0
  9 10  2  0  0  0  0
 18 19  1  0  0  0  0
 19 31  1  0  0  0  0
 19 20  2  0  0  0  0
 32 35  1  0  0  0  0
  8 11  1  0  0  0  0
 41 42  1  0  0  0  0
 18 21  1  0  0  0  0
 31 32  1  0  0  0  0
  7  8  1  0  0  0  0
 17 18  1  0  0  0  0
  3  4  1  0  0  0  0
  3  5  1  0  0  0  0
  3  6  1  0  0  0  0
 35 38  1  0  0  0  0
 35 39  1  0  0  0  0
 35 40  1  0  0  0  0
 11 14  1  0  0  0  0
 11 15  1  0  0  0  0
 11 16  1  0  0  0  0
 42 44  1  0  0  0  0
 42 45  1  0  0  0  0
 42 46  1  0  0  0  0
 21 27  1  0  0  0  0
 21 28  1  0  0  0  0
 32 37  1  0  0  0  0
  8 13  1  0  0  0  0
 18 26  1  0  0  0  0
 24 29  1  0  0  0  0
 24 30  1  0  0  0  0
 41 43  1  0  0  0  0
  7 12  1  0  0  0  0
 31 36  1  0  0  0  0
 17 25  1  0  0  0  0
M  END
$$$$

  -OEChem-05262214473D

 46 45  0     1  0  0  0  0  0999 V2000
   -0.0543    1.9736    3.8406 C   0  0  0  0  0  0  0  0  0  0  0  0
    0.6744    1.6099    4.7562 O   0  0  0  0  0  0  0  0  0  0  0  0
   -0.5599    3.3779    3.8160 C   0  0  0  0  0  0  0  0  0  0  0  0
   -1.5202    3.4885    4.3450 H   0  0  0  0  0  0  0  0  0  0  0  0
    0.1282    4.0814    4.3116 H   0  0  0  0  0  0  0  0  0  0  0  0
   -0.7317    3.7994    2.8126 H   0  0  0  0  0  0  0  0  0  0  0  0
   -0.4812    1.1968    2.7762 N   0  0  0  0  0  0  0  0  0  0  0  0
   -0.1106   -0.1834    2.6051 C   0  0  2  0  0  0  0  0  0  0  0  0
   -0.0696   -0.4775    1.1113 C   0  0  0  0  0  0  0  0  0  0  0  0
   -0.6805    0.1900    0.2792 O   0  0  0  0  0  0  0  0  0  0  0  0
   -1.0852   -1.1101    3.3150 C   0  0  0  0  0  0  0  0  0  0  0  0
   -1.0883    1.6241    2.0791 H   0  0  0  0  0  0  0  0  0  0  0  0
    0.8937   -0.2959    3.0277 H   0  0  0  0  0  0  0  0  0  0  0  0
   -2.0970   -1.0114    2.9051 H   0  0  0  0  0  0  0  0  0  0  0  0
   -0.7860   -2.1580    3.2078 H   0  0  0  0  0  0  0  0  0  0  0  0
   -1.1357   -0.8775    4.3842 H   0  0  0  0  0  0  0  0  0  0  0  0
    0.6950   -1.6003    0.8178 N   0  0  0  0  0  0  0  0  0  0  0  0
    0.8777   -2.0908   -0.5246 C   0  0  2  0  0  0  0  0  0  0  0  0
    0.6925   -3.6027   -0.4905 C   0  0  0  0  0  0  0  0  0  0  0  0
    1.6318   -4.3953   -0.5229 O   0  0  0  0  0  0  0  0  0  0  0  0
    2.2553   -1.7294   -1.0804 C   0  0  0  0  0  0  0  0  0  0  0  0
    2.4146   -0.2461   -1.3640 C   0  0  0  0  0  0  0  0  0  0  0  0
    1.5503    0.4511   -1.8869 O   0  0  0  0  0  0  0  0  0  0  0  0
    3.6430    0.2337   -0.9615 N   0  0  0  0  0  0  0  0  0  0  0  0
    1.1810   -2.0803    1.5718 H   0  0  0  0  0  0  0  0  0  0  0  0
    0.0786   -1.6479   -1.1305 H   0  0  0  0  0  0  0  0  0  0  0  0
    3.0386   -2.0062   -0.3635 H   0  0  0  0  0  0  0  0  0  0  0  0
    2.4543   -2.2841   -2.0064 H   0  0  0  0  0  0  0  0  0  0  0  0
    4.3265   -0.3792   -0.5297 H   0  0  0  0  0  0  0  0  0  0  0  0
    3.9111    1.2057   -1.0787 H   0  0  0  0  0  0  0  0  0  0  0  0
   -0.6416   -3.9651   -0.3691 N   0  0  0  0  0  0  0  0  0  0  0  0
   -1.0562   -5.3454   -0.2905 C   0  0  2  0  0  0  0  0  0  0  0  0
   -0.3526   -5.9806    0.9015 C   0  0  0  0  0  0  0  0  0  0  0  0
    0.6878   -5.5355    1.3817 O   0  0  0  0  0  0  0  0  0  0  0  0
   -0.7336   -6.0939   -1.5744 C   0  0  0  0  0  0  0  0  0  0  0  0
   -1.3571   -3.2454   -0.3255 H   0  0  0  0  0  0  0  0  0  0  0  0
   -2.1379   -5.3413   -0.1173 H   0  0  0  0  0  0  0  0  0  0  0  0
    0.3458   -6.1086   -1.7647 H   0  0  0  0  0  0  0  0  0  0  0  0
   -1.0744   -7.1333   -1.5239 H   0  0  0  0  0  0  0  0  0  0  0  0
   -1.2164   -5.6181   -2.4348 H   0  0  0  0  0  0  0  0  0  0  0  0
   -0.9998   -7.1278    1.3389 N   0  0  0  0  0  0  0  0  0  0  0  0
   -0.5204   -7.9184    2.4484 C   0  0  0  0  0  0  0  0  0  0  0  0
   -1.8672   -7.4127    0.8937 H   0  0  0  0  0  0  0  0  0  0  0  0
    0.1353   -8.7180    2.0733 H   0  0  0  0  0  0  0  0  0  0  0  0
    0.0442   -7.2755    3.1397 H   0  0  0  0  0  0  0  0  0  0  0  0
   -1.3756   -8.3638    2.9777 H   0  0  0  0  0  0  0  0  0  0  0  0
  1  3  1  0  0  0  0
  1  7  1  0  0  0  0
  1  2  2  0  0  0  0
 21 22  1  0  0  0  0
 22 24  1  0  0  0  0
 22 23  2  0  0  0  0
 32 33  1  0  0  0  0
 33 41  1  0  0  0  0
 33 34  2  0  0  0  0
  8  9  1  0  0  0  0
  9 17  1  0  0  0  0
  9 10  2  0  0  0  0
 18 19  1  0  0  0  0
 19 31  1  0  0  0  0
 19 20  2  0  0  0  0
 32 35  1  0  0  0  0
  8 11  1  0  0  0  0
 41 42  1  0  0  0  0
 18 21  1  0  0  0  0
 31 32  1  0  0  0  0
  7  8  1  0  0  0  0
 17 18  1  0  0  0  0
  3  4  1  0  0  0  0
  3  5  1  0  0  0  0
  3  6  1  0  0  0  0
 35 38  1  0  0  0  0
 35 39  1  0  0  0  0
 35 40  1  0  0  0  0
 11 14  1  0  0  0  0
 11 15  1  0  0  0  0
 11 16  1  0  0  0  0
 42 44  1  0  0  0  0
 42 45  1  0  0  0  0
 42 46  1  0  0  0  0
 21 27  1  0  0  0  0
 21 28  1  0  0  0  0
 32 37  1  0  0  0  0
  8 13  1  0  0  0  0
 18 26  1  0  0  0  0
 24 29  1  0  0  0  0
 24 30  1  0  0  0  0
 41 43  1  0  0  0  0
  7 12  1  0  0  0  0
 31 36  1  0  0  0  0
 17 25  1  0  0  0  0
M  END
$$$$

  -OEChem-05262214473D

 46 45  0     1  0  0  0  0  0999 V2000
   -0.0543    1.9736    3.8406 C   0  0  0  0  0  0  0  0  0  0  0  0
    0.6744    1.6099    4.7562 O   0  0  0  0  0  0  0  0  0  0  0  0
   -0.5599    3.3779    3.8160 C   0  0  0  0  0  0  0  0  0  0  0  0
   -1.5202    3.4885    4.3450 H   0  0  0  0  0  0  0  0  0  0  0  0
    0.1282    4.0814    4.3116 H   0  0  0  0  0  0  0  0  0  0  0  0
   -0.7317    3.7994    2.8126 H   0  0  0  0  0  0  0  0  0  0  0  0
   -0.4812    1.1968    2.7762 N   0  0  0  0  0  0  0  0  0  0  0  0
   -0.1106   -0.1834    2.6051 C   0  0  2  0  0  0  0  0  0  0  0  0
   -0.0696   -0.4775    1.1113 C   0  0  0  0  0  0  0  0  0  0  0  0
   -0.6805    0.1900    0.2792 O   0  0  0  0  0  0  0  0  0  0  0  0
   -1.0852   -1.1101    3.3150 C   0  0  0  0  0  0  0  0  0  0  0  0
   -1.0883    1.6241    2.0791 H   0  0  0  0  0  0  0  0  0  0  0  0
    0.8937   -0.2959    3.0277 H   0  0  0  0  0  0  0  0  0  0  0  0
   -2.0970   -1.0114    2.9051 H   0  0  0  0  0  0  0  0  0  0  0  0
   -0.7860   -2.1580    3.2078 H   0  0  0  0  0  0  0  0  0  0  0  0
   -1.1357   -0.8775    4.3842 H   0  0  0  0  0  0  0  0  0  0  0  0
    0.6950   -1.6003    0.8178 N   0  0  0  0  0  0  0  0  0  0  0  0
    0.8777   -2.0908   -0.5246 C   0  0  2  0  0  0  0  0  0  0  0  0
    0.6925   -3.6027   -0.4905 C   0  0  0  0  0  0  0  0  0  0  0  0
    1.6099   -4.3866   -0.2552 O   0  0  0  0  0  0  0  0  0  0  0  0
    2.2553   -1.7294   -1.0804 C   0  0  0  0  0  0  0  0  0  0  0  0
    2.4146   -0.2461   -1.3640 C   0  0  0  0  0  0  0  0  0  0  0  0
    1.5503    0.4511   -1.8869 O   0  0  0  0  0  0  0  0  0  0  0  0
    3.6430    0.2337   -0.9615 N   0  0  0  0  0  0  0  0  0  0  0  0
    1.1810   -2.0803    1.5718 H   0  0  0  0  0  0  0  0  0  0  0  0
    0.0786   -1.6479   -1.1305 H   0  0  0  0  0  0  0  0  0  0  0  0
    3.0386   -2.0062   -0.3635 H   0  0  0  0  0  0  0  0  0  0  0  0
    2.4543   -2.2841   -2.0064 H   0  0  0  0  0  0  0  0  0  0  0  0
    4.3265   -0.3792   -0.5297 H   0  0  0  0  0  0  0  0  0  0  0  0
    3.9111    1.2057   -1.0787 H   0  0  0  0  0  0  0  0  0  0  0  0
   -0.6274   -3.9744   -0.7041 N   0  0  0  0  0  0  0  0  0  0  0  0
   -1.0460   -5.3556   -0.6902 C   0  0  2  0  0  0  0  0  0  0  0  0
   -0.6712   -5.9470    0.6623 C   0  0  0  0  0  0  0  0  0  0  0  0
    0.2102   -5.4771    1.3789 O   0  0  0  0  0  0  0  0  0  0  0  0
   -0.4031   -6.1400   -1.8233 C   0  0  0  0  0  0  0  0  0  0  0  0
   -1.3313   -3.2608   -0.8688 H   0  0  0  0  0  0  0  0  0  0  0  0
   -2.1358   -5.3569   -0.8007 H   0  0  0  0  0  0  0  0  0  0  0  0
    0.6890   -6.1498   -1.7296 H   0  0  0  0  0  0  0  0  0  0  0  0
   -0.7437   -7.1807   -1.8287 H   0  0  0  0  0  0  0  0  0  0  0  0
   -0.6494   -5.6956   -2.7937 H   0  0  0  0  0  0  0  0  0  0  0  0
   -1.4071   -7.0866    0.9556 N   0  0  0  0  0  0  0  0  0  0  0  0
   -1.2275   -7.8380    2.1759 C   0  0  0  0  0  0  0  0  0  0  0  0
   -2.1305   -7.3936    0.3121 H   0  0  0  0  0  0  0  0  0  0  0  0
   -0.4961   -8.6422    2.0077 H   0  0  0  0  0  0  0  0  0  0  0  0
   -0.8606   -7.1686    2.9679 H   0  0  0  0  0  0  0  0  0  0  0  0
   -2.1893   -8.2754    2.4819 H   0  0  0  0  0  0  0  0  0  0  0  0
  1  3  1  0  0  0  0
  1  7  1  0  0  0  0
  1  2  2  0  0  0  0
 21 22  1  0  0  0  0
 22 24  1  0  0  0  0
 22 23  2  0  0  0  0
 32 33  1  0  0  0  0
 33 41  1  0  0  0  0
 33 34  2  0  0  0  0
  8  9  1  0  0  0  0
  9 17  1  0  0  0  0
  9 10  2  0  0  0  0
 18 19  1  0  0  0  0
 19 31  1  0  0  0  0
 19 20  2  0  0  0  0
 32 35  1  0  0  0  0
  8 11  1  0  0  0  0
 41 42  1  0  0  0  0
 18 21  1  0  0  0  0
 31 32  1  0  0  0  0
  7  8  1  0  0  0  0
 17 18  1  0  0  0  0
  3  4  1  0  0  0  0
  3  5  1  0  0  0  0
  3  6  1  0  0  0  0
 35 38  1  0  0  0  0
 35 39  1  0  0  0  0
 35 40  1  0  0  0  0
 11 14  1  0  0  0  0
 11 15  1  0  0  0  0
 11 16  1  0  0  0  0
 42 44  1  0  0  0  0
 42 45  1  0  0  0  0
 42 46  1  0  0  0  0
 21 27  1  0  0  0  0
 21 28  1  0  0  0  0
 32 37  1  0  0  0  0
  8 13  1  0  0  0  0
 18 26  1  0  0  0  0
 24 29  1  0  0  0  0
 24 30  1  0  0  0  0
 41 43  1  0  0  0  0
  7 12  1  0  0  0  0
 31 36  1  0  0  0  0
 17 25  1  0  0  0  0
M  END
$$$$

  -OEChem-05262214473D

 46 45  0     1  0  0  0  0  0999 V2000
   -0.0543    1.9736    3.8406 C   0  0  0  0  0  0  0  0  0  0  0  0
    0.6744    1.6099    4.7562 O   0  0  0  0  0  0  0  0  0  0  0  0
   -0.5599    3.3779    3.8160 C   0  0  0  0  0  0  0  0  0  0  0  0
   -1.5202    3.4885    4.3450 H   0  0  0  0  0  0  0  0  0  0  0  0
    0.1282    4.0814    4.3116 H   0  0  0  0  0  0  0  0  0  0  0  0
   -0.7317    3.7994    2.8126 H   0  0  0  0  0  0  0  0  0  0  0  0
   -0.4812    1.1968    2.7762 N   0  0  0  0  0  0  0  0  0  0  0  0
   -0.1106   -0.1834    2.6051 C   0  0  2  0  0  0  0  0  0  0  0  0
   -0.0696   -0.4775    1.1113 C   0  0  0  0  0  0  0  0  0  0  0  0
   -0.6805    0.1900    0.2792 O   0  0  0  0  0  0  0  0  0  0  0  0
   -1.0852   -1.1101    3.3150 C   0  0  0  0  0  0  0  0  0  0  0  0
   -1.0883    1.6241    2.0791 H   0  0  0  0  0  0  0  0  0  0  0  0
    0.8937   -0.2959    3.0277 H   0  0  0  0  0  0  0  0  0  0  0  0
   -2.0970   -1.0114    2.9051 H   0  0  0  0  0  0  0  0  0  0  0  0
   -0.7860   -2.1580    3.2078 H   0  0  0  0  0  0  0  0  0  0  0  0
   -1.1357   -0.8775    4.3842 H   0  0  0  0  0  0  0  0  0  0  0  0
    0.6950   -1.6003    0.8178 N   0  0  0  0  0  0  0  0  0  0  0  0
    0.8777   -2.0908   -0.5246 C   0  0  2  0  0  0  0  0  0  0  0  0
    0.6925   -3.6027   -0.4905 C   0  0  0  0  0  0  0  0  0  0  0  0
    1.5200   -4.3698   -0.0024 O   0  0  0  0  0  0  0  0  0  0  0  0
    2.2553   -1.7294   -1.0804 C   0  0  0  0  0  0  0  0  0  0  0  0
    2.4146   -0.2461   -1.3640 C   0  0  0  0  0  0  0  0  0  0  0  0
    1.5503    0.4511   -1.8869 O   0  0  0  0  0  0  0  0  0  0  0  0
    3.6430    0.2337   -0.9615 N   0  0  0  0  0  0  0  0  0  0  0  0
    1.1810   -2.0803    1.5718 H   0  0  0  0  0  0  0  0  0  0  0  0
    0.0786   -1.6479   -1.1305 H   0  0  0  0  0  0  0  0  0  0  0  0
    3.0386   -2.0062   -0.3635 H   0  0  0  0  0  0  0  0  0  0  0  0
    2.4543   -2.2841   -2.0064 H   0  0  0  0  0  0  0  0  0  0  0  0
    4.3265   -0.3792   -0.5297 H   0  0  0  0  0  0  0  0  0  0  0  0
    3.9111    1.2057   -1.0787 H   0  0  0  0  0  0  0  0  0  0  0  0
   -0.5276   -3.9938   -1.0237 N   0  0  0  0  0  0  0  0  0  0  0  0
   -0.9333   -5.3780   -1.0733 C   0  0  2  0  0  0  0  0  0  0  0  0
   -0.9177   -5.9239    0.3485 C   0  0  0  0  0  0  0  0  0  0  0  0
   -0.2508   -5.4235    1.2518 O   0  0  0  0  0  0  0  0  0  0  0  0
   -0.0196   -6.1905   -1.9775 C   0  0  0  0  0  0  0  0  0  0  0  0
   -1.1667   -3.2927   -1.3866 H   0  0  0  0  0  0  0  0  0  0  0  0
   -1.9582   -5.3935   -1.4598 H   0  0  0  0  0  0  0  0  0  0  0  0
    1.0117   -6.1866   -1.6063 H   0  0  0  0  0  0  0  0  0  0  0  0
   -0.3456   -7.2341   -2.0366 H   0  0  0  0  0  0  0  0  0  0  0  0
   -0.0090   -5.7785   -2.9924 H   0  0  0  0  0  0  0  0  0  0  0  0
   -1.7023   -7.0612    0.4795 N   0  0  0  0  0  0  0  0  0  0  0  0
   -1.8410   -7.7729    1.7286 C   0  0  0  0  0  0  0  0  0  0  0  0
   -2.2356   -7.3949   -0.3179 H   0  0  0  0  0  0  0  0  0  0  0  0
   -1.0896   -8.5746    1.7798 H   0  0  0  0  0  0  0  0  0  0  0  0
   -1.6910   -7.0759    2.5662 H   0  0  0  0  0  0  0  0  0  0  0  0
   -2.8484   -8.2102    1.7913 H   0  0  0  0  0  0  0  0  0  0  0  0
  1  3  1  0  0  0  0
  1  7  1  0  0  0  0
  1  2  2  0  0  0  0
 21 22  1  0  0  0  0
 22 24  1  0  0  0  0
 22 23  2  0  0  0  0
 32 33  1  0  0  0  0
 33 41  1  0  0  0  0
 33 34  2  0  0  0  0
  8  9  1  0  0  0  0
  9 17  1  0  0  0  0
  9 10  2  0  0  0  0
 18 19  1  0  0  0  0
 19 31  1  0  0  0  0
 19 20  2  0  0  0  0
 32 35  1  0  0  0  0
  8 11  1  0  0  0  0
 41 42  1  0  0  0  0
 18 21  1  0  0  0  0
 31 32  1  0  0  0  0
  7  8  1  0  0  0  0
 17 18  1  0  0  0  0
  3  4  1  0  0  0  0
  3  5  1  0  0  0  0
  3  6  1  0  0  0  0
 35 38  1  0  0  0  0
 35 39  1  0  0  0  0
 35 40  1  0  0  0  0
 11 14  1  0  0  0  0
 11 15  1  0  0  0  0
 11 16  1  0  0  0  0
 42 44  1  0  0  0  0
 42 45  1  0  0  0  0
 42 46  1  0  0  0  0
 21 27  1  0  0  0  0
 21 28  1  0  0  0  0
 32 37  1  0  0  0  0
  8 13  1  0  0  0  0
 18 26  1  0  0  0  0
 24 29  1  0  0  0  0
 24 30  1  0  0  0  0
 41 43  1  0  0  0  0
  7 12  1  0  0  0  0
 31 36  1  0  0  0  0
 17 25  1  0  0  0  0
M  END
$$$$

  -OEChem-05262214473D

 46 45  0     1  0  0  0  0  0999 V2000
   -0.0543    1.9736    3.8406 C   0  0  0  0  0  0  0  0  0  0  0  0
    0.6744    1.6099    4.7562 O   0  0  0  0  0  0  0  0  0  0  0  0
   -0.5599    3.3779    3.8160 C   0  0  0  0  0  0  0  0  0  0  0  0
   -1.5202    3.4885    4.3450 H   0  0  0  0  0  0  0  0  0  0  0  0
    0.1282    4.0814    4.3116 H   0  0  0  0  0  0  0  0  0  0  0  0
   -0.7317    3.7994    2.8126 H   0  0  0  0  0  0  0  0  0  0  0  0
   -0.4812    1.1968    2.7762 N   0  0  0  0  0  0  0  0  0  0  0  0
   -0.1106   -0.1834    2.6051 C   0  0  2  0  0  0  0  0  0  0  0  0
   -0.0696   -0.4775    1.1113 C   0  0  0  0  0  0  0  0  0  0  0  0
   -0.6805    0.1900    0.2792 O   0  0  0  0  0  0  0  0  0  0  0  0
   -1.0852   -1.1101    3.3150 C   0  0  0  0  0  0  0  0  0  0  0  0
   -1.0883    1.6241    2.0791 H   0  0  0  0  0  0  0  0  0  0  0  0
    0.8937   -0.2959    3.0277 H   0  0  0  0  0  0  0  0  0  0  0  0
   -2.0970   -1.0114    2.9051 H   0  0  0  0  0  0  0  0  0  0  0  0
   -0.7860   -2.1580    3.2078 H   0  0  0  0  0  0  0  0  0  0  0  0
   -1.1357   -0.8775    4.3842 H   0  0  0  0  0  0  0  0  0  0  0  0
    0.6950   -1.6003    0.8178 N   0  0  0  0  0  0  0  0  0  0  0  0
    0.8777   -2.0908   -0.5246 C   0  0  2  0  0  0  0  0  0  0  0  0
    0.6925   -3.6027   -0.4905 C   0  0  0  0  0  0  0  0  0  0  0  0
    1.3681   -4.3463    0.2181 O   0  0  0  0  0  0  0  0  0  0  0  0
    2.2553   -1.7294   -1.0804 C   0  0  0  0  0  0  0  0  0  0  0  0
    2.4146   -0.2461   -1.3640 C   0  0  0  0  0  0  0  0  0  0  0  0
    1.5503    0.4511   -1.8869 O   0  0  0  0  0  0  0  0  0  0  0  0
    3.6430    0.2337   -0.9615 N   0  0  0  0  0  0  0  0  0  0  0  0
    1.1810   -2.0803    1.5718 H   0  0  0  0  0  0  0  0  0  0  0  0
    0.0786   -1.6479   -1.1305 H   0  0  0  0  0  0  0  0  0  0  0  0
    3.0386   -2.0062   -0.3635 H   0  0  0  0  0  0  0  0  0  0  0  0
    2.4543   -2.2841   -2.0064 H   0  0  0  0  0  0  0  0  0  0  0  0
    4.3265   -0.3792   -0.5297 H   0  0  0  0  0  0  0  0  0  0  0  0
    3.9111    1.2057   -1.0787 H   0  0  0  0  0  0  0  0  0  0  0  0
   -0.3490   -4.0221   -1.3062 N   0  0  0  0  0  0  0  0  0  0  0  0
   -0.7261   -5.4111   -1.4137 C   0  0  2  0  0  0  0  0  0  0  0  0
   -1.0753   -5.9129   -0.0188 C   0  0  0  0  0  0  0  0  0  0  0  0
   -0.6637   -5.3784    1.0089 O   0  0  0  0  0  0  0  0  0  0  0  0
    0.3907   -6.2418   -2.0264 C   0  0  0  0  0  0  0  0  0  0  0  0
   -0.8746   -3.3387   -1.8434 H   0  0  0  0  0  0  0  0  0  0  0  0
   -1.6172   -5.4486   -2.0496 H   0  0  0  0  0  0  0  0  0  0  0  0
    1.2920   -6.2163   -1.4031 H   0  0  0  0  0  0  0  0  0  0  0  0
    0.0925   -7.2900   -2.1335 H   0  0  0  0  0  0  0  0  0  0  0  0
    0.6610   -5.8611   -3.0172 H   0  0  0  0  0  0  0  0  0  0  0  0
   -1.8653   -7.0533   -0.0570 N   0  0  0  0  0  0  0  0  0  0  0  0
   -2.3191   -7.7277    1.1368 C   0  0  0  0  0  0  0  0  0  0  0  0
   -2.1753   -7.4166   -0.9535 H   0  0  0  0  0  0  0  0  0  0  0  0
   -1.6047   -8.5200    1.4051 H   0  0  0  0  0  0  0  0  0  0  0  0
   -2.3906   -7.0039    1.9620 H   0  0  0  0  0  0  0  0  0  0  0  0
   -3.3081   -8.1728    0.9529 H   0  0  0  0  0  0  0  0  0  0  0  0
  1  3  1  0  0  0  0
  1  7  1  0  0  0  0
  1  2  2  0  0  0  0
 21 22  1  0  0  0  0
 22 24  1  0  0  0  0
 22 23  2  0  0  0  0
 32 33  1  0  0  0  0
 33 41  1  0  0  0  0
 33 34  2  0  0  0  0
  8  9  1  0  0  0  0
  9 17  1  0  0  0  0
  9 10  2  0  0  0  0
 18 19  1  0  0  0  0
 19 31  1  0  0  0  0
 19 20  2  0  0  0  0
 32 35  1  0  0  0  0
  8 11  1  0  0  0  0
 41 42  1  0  0  0  0
 18 21  1  0  0  0  0
 31 32  1  0  0  0  0
  7  8  1  0  0  0  0
 17 18  1  0  0  0  0
  3  4  1  0  0  0  0
  3  5  1  0  0  0  0
  3  6  1  0  0  0  0
 35 38  1  0  0  0  0
 35 39  1  0  0  0  0
 35 40  1  0  0  0  0
 11 14  1  0  0  0  0
 11 15  1  0  0  0  0
 11 16  1  0  0  0  0
 42 44  1  0  0  0  0
 42 45  1  0  0  0  0
 42 46  1  0  0  0  0
 21 27  1  0  0  0  0
 21 28  1  0  0  0  0
 32 37  1  0  0  0  0
  8 13  1  0  0  0  0
 18 26  1  0  0  0  0
 24 29  1  0  0  0  0
 24 30  1  0  0  0  0
 41 43  1  0  0  0  0
  7 12  1  0  0  0  0
 31 36  1  0  0  0  0
 17 25  1  0  0  0  0
M  END
$$$$

  -OEChem-05262214473D

 46 45  0     1  0  0  0  0  0999 V2000
   -0.0543    1.9736    3.8406 C   0  0  0  0  0  0  0  0  0  0  0  0
    0.6744    1.6099    4.7562 O   0  0  0  0  0  0  0  0  0  0  0  0
   -0.5599    3.3779    3.8160 C   0  0  0  0  0  0  0  0  0  0  0  0
   -1.5202    3.4885    4.3450 H   0  0  0  0  0  0  0  0  0  0  0  0
    0.1282    4.0814    4.3116 H   0  0  0  0  0  0  0  0  0  0  0  0
   -0.7317    3.7994    2.8126 H   0  0  0  0  0  0  0  0  0  0  0  0
   -0.4812    1.1968    2.7762 N   0  0  0  0  0  0  0  0  0  0  0  0
   -0.1106   -0.1834    2.6051 C   0  0  2  0  0  0  0  0  0  0  0  0
   -0.0696   -0.4775    1.1113 C   0  0  0  0  0  0  0  0  0  0  0  0
   -0.6805    0.1900    0.2792 O   0  0  0  0  0  0  0  0  0  0  0  0
   -1.0852   -1.1101    3.3150 C   0  0  0  0  0  0  0  0  0  0  0  0
   -1.0883    1.6241    2.0791 H   0  0  0  0  0  0  0  0  0  0  0  0
    0.8937   -0.2959    3.0277 H   0  0  0  0  0  0  0  0  0  0  0  0
   -2.0970   -1.0114    2.9051 H   0  0  0  0  0  0  0  0  0  0  0  0
   -0.7860   -2.1580    3.2078 H   0  0  0  0  0  0  0  0  0  0  0  0
   -1.1357   -0.8775    4.3842 H   0  0  0  0  0  0  0  0  0  0  0  0
    0.6950   -1.6003    0.8178 N   0  0  0  0  0  0  0  0  0  0  0  0
    0.8777   -2.0908   -0.5246 C   0  0  2  0  0  0  0  0  0  0  0  0
    0.6925   -3.6027   -0.4905 C   0  0  0  0  0  0  0  0  0  0  0  0
    1.1646   -4.3175    0.3914 O   0  0  0  0  0  0  0  0  0  0  0  0
    2.2553   -1.7294   -1.0804 C   0  0  0  0  0  0  0  0  0  0  0  0
    2.4146   -0.2461   -1.3640 C   0  0  0  0  0  0  0  0  0  0  0  0
    1.5503    0.4511   -1.8869 O   0  0  0  0  0  0  0  0  0  0  0  0
    3.6430    0.2337   -0.9615 N   0  0  0  0  0  0  0  0  0  0  0  0
    1.1810   -2.0803    1.5718 H   0  0  0  0  0  0  0  0  0  0  0  0
    0.0786   -1.6479   -1.1305 H   0  0  0  0  0  0  0  0  0  0  0  0
    3.0386   -2.0062   -0.3635 H   0  0  0  0  0  0  0  0  0  0  0  0
    2.4543   -2.2841   -2.0064 H   0  0  0  0  0  0  0  0  0  0  0  0
    4.3265   -0.3792   -0.5297 H   0  0  0  0  0  0  0  0  0  0  0  0
    3.9111    1.2057   -1.0787 H   0  0  0  0  0  0  0  0  0  0  0  0
   -0.1037   -4.0572   -1.5323 N   0  0  0  0  0  0  0  0  0  0  0  0
   -0.4382   -5.4525   -1.6882 C   0  0  2  0  0  0  0  0  0  0  0  0
   -1.1333   -5.9147   -0.4143 C   0  0  0  0  0  0  0  0  0  0  0  0
   -1.0005   -5.3449    0.6668 O   0  0  0  0  0  0  0  0  0  0  0  0
    0.7999   -6.2906   -1.9665 C   0  0  0  0  0  0  0  0  0  0  0  0
   -0.4748   -3.3959   -2.2081 H   0  0  0  0  0  0  0  0  0  0  0  0
   -1.1360   -5.5183   -2.5301 H   0  0  0  0  0  0  0  0  0  0  0  0
    1.5108   -6.2370   -1.1339 H   0  0  0  0  0  0  0  0  0  0  0  0
    0.5410   -7.3444   -2.1128 H   0  0  0  0  0  0  0  0  0  0  0  0
    1.3150   -5.9378   -2.8665 H   0  0  0  0  0  0  0  0  0  0  0  0
   -1.8850   -7.0635   -0.6173 N   0  0  0  0  0  0  0  0  0  0  0  0
   -2.6292   -7.7054    0.4410 C   0  0  0  0  0  0  0  0  0  0  0  0
   -1.9536   -7.4572   -1.5511 H   0  0  0  0  0  0  0  0  0  0  0  0
   -2.0064   -8.4820    0.9091 H   0  0  0  0  0  0  0  0  0  0  0  0
   -2.9115   -6.9573    1.1965 H   0  0  0  0  0  0  0  0  0  0  0  0
   -3.5370   -8.1657    0.0238 H   0  0  0  0  0  0  0  0  0  0  0  0
  1  3  1  0  0  0  0
  1  7  1  0  0  0  0
  1  2  2  0  0  0  0
 21 22  1  0  0  0  0
 22 24  1  0  0  0  0
 22 23  2  0  0  0  0
 32 33  1  0  0  0  0
 33 41  1  0  0  0  0
 33 34  2  0  0  0  0
  8  9  1  0  0  0  0
  9 17  1  0  0  0  0
  9 10  2  0  0  0  0
 18 19  1  0  0  0  0
 19 31  1  0  0  0  0
 19 20  2  0  0  0  0
 32 35  1  0  0  0  0
  8 11  1  0  0  0  0
 41 42  1  0  0  0  0
 18 21  1  0  0  0  0
 31 32  1  0  0  0  0
  7  8  1  0  0  0  0
 17 18  1  0  0  0  0
  3  4  1  0  0  0  0
  3  5  1  0  0  0  0
  3  6  1  0  0  0  0
 35 38  1  0  0  0  0
 35 39  1  0  0  0  0
 35 40  1  0  0  0  0
 11 14  1  0  0  0  0
 11 15  1  0  0  0  0
 11 16  1  0  0  0  0
 42 44  1  0  0  0  0
 42 45  1  0  0  0  0
 42 46  1  0  0  0  0
 21 27  1  0  0  0  0
 21 28  1  0  0  0  0
 32 37  1  0  0  0  0
  8 13  1  0  0  0  0
 18 26  1  0  0  0  0
 24 29  1  0  0  0  0
 24 30  1  0  0  0  0
 41 43  1  0  0  0  0
  7 12  1  0  0  0  0
 31 36  1  0  0  0  0
 17 25  1  0  0  0  0
M  END
$$$$

  -OEChem-05262214473D

 46 45  0     1  0  0  0  0  0999 V2000
   -0.0543    1.9736    3.8406 C   0  0  0  0  0  0  0  0  0  0  0  0
    0.6744    1.6099    4.7562 O   0  0  0  0  0  0  0  0  0  0  0  0
   -0.5599    3.3779    3.8160 C   0  0  0  0  0  0  0  0  0  0  0  0
   -1.5202    3.4885    4.3450 H   0  0  0  0  0  0  0  0  0  0  0  0
    0.1282    4.0814    4.3116 H   0  0  0  0  0  0  0  0  0  0  0  0
   -0.7317    3.7994    2.8126 H   0  0  0  0  0  0  0  0  0  0  0  0
   -0.4812    1.1968    2.7762 N   0  0  0  0  0  0  0  0  0  0  0  0
   -0.1106   -0.1834    2.6051 C   0  0  2  0  0  0  0  0  0  0  0  0
   -0.0696   -0.4775    1.1113 C   0  0  0  0  0  0  0  0  0  0  0  0
   -0.6805    0.1900    0.2792 O   0  0  0  0  0  0  0  0  0  0  0  0
   -1.0852   -1.1101    3.3150 C   0  0  0  0  0  0  0  0  0  0  0  0
   -1.0883    1.6241    2.0791 H   0  0  0  0  0  0  0  0  0  0  0  0
    0.8937   -0.2959    3.0277 H   0  0  0  0  0  0  0  0  0  0  0  0
   -2.0970   -1.0114    2.9051 H   0  0  0  0  0  0  0  0  0  0  0  0
   -0.7860   -2.1580    3.2078 H   0  0  0  0  0  0  0  0  0  0  0  0
   -1.1357   -0.8775    4.3842 H   0  0  0  0  0  0  0  0  0  0  0  0
    0.6950   -1.6003    0.8178 N   0  0  0  0  0  0  0  0  0  0  0  0
    0.8777   -2.0908   -0.5246 C   0  0  2  0  0  0  0  0  0  0  0  0
    0.6925   -3.6027   -0.4905 C   0  0  0  0  0  0  0  0  0  0  0  0
    0.9233   -4.2853    0.5056 O   0  0  0  0  0  0  0  0  0  0  0  0
    2.2553   -1.7294   -1.0804 C   0  0  0  0  0  0  0  0  0  0  0  0
    2.4146   -0.2461   -1.3640 C   0  0  0  0  0  0  0  0  0  0  0  0
    1.5503    0.4511   -1.8869 O   0  0  0  0  0  0  0  0  0  0  0  0
    3.6430    0.2337   -0.9615 N   0  0  0  0  0  0  0  0  0  0  0  0
    1.1810   -2.0803    1.5718 H   0  0  0  0  0  0  0  0  0  0  0  0
    0.0786   -1.6479   -1.1305 H   0  0  0  0  0  0  0  0  0  0  0  0
    3.0386   -2.0062   -0.3635 H   0  0  0  0  0  0  0  0  0  0  0  0
    2.4543   -2.2841   -2.0064 H   0  0  0  0  0  0  0  0  0  0  0  0
    4.3265   -0.3792   -0.5297 H   0  0  0  0  0  0  0  0  0  0  0  0
    3.9111    1.2057   -1.0787 H   0  0  0  0  0  0  0  0  0  0  0  0
    0.1914   -4.0968   -1.6866 N   0  0  0  0  0  0  0  0  0  0  0  0
   -0.0894   -5.4995   -1.8781 C   0  0  2  0  0  0  0  0  0  0  0  0
   -1.0877   -5.9292   -0.8112 C   0  0  0  0  0  0  0  0  0  0  0  0
   -1.2381   -5.3252    0.2488 O   0  0  0  0  0  0  0  0  0  0  0  0
    1.1800   -6.3334   -1.8021 C   0  0  0  0  0  0  0  0  0  0  0  0
    0.0053   -3.4603   -2.4560 H   0  0  0  0  0  0  0  0  0  0  0  0
   -0.5474   -5.5980   -2.8684 H   0  0  0  0  0  0  0  0  0  0  0  0
    1.6530   -6.2473   -0.8171 H   0  0  0  0  0  0  0  0  0  0  0  0
    0.9692   -7.3938   -1.9760 H   0  0  0  0  0  0  0  0  0  0  0  0
    1.9085   -6.0034   -2.5506 H   0  0  0  0  0  0  0  0  0  0  0  0
   -1.7601   -7.0911   -1.1633 N   0  0  0  0  0  0  0  0  0  0  0  0
   -2.7502   -7.7076   -0.3114 C   0  0  0  0  0  0  0  0  0  0  0  0
   -1.5858   -7.5140   -2.0703 H   0  0  0  0  0  0  0  0  0  0  0  0
   -2.2672   -8.4632    0.3256 H   0  0  0  0  0  0  0  0  0  0  0  0
   -3.2183   -6.9395    0.3218 H   0  0  0  0  0  0  0  0  0  0  0  0
   -3.5195   -8.1894   -0.9327 H   0  0  0  0  0  0  0  0  0  0  0  0
  1  3  1  0  0  0  0
  1  7  1  0  0  0  0
  1  2  2  0  0  0  0
 21 22  1  0  0  0  0
 22 24  1  0  0  0  0
 22 23  2  0  0  0  0
 32 33  1  0  0  0  0
 33 41  1  0  0  0  0
 33 34  2  0  0  0  0
  8  9  1  0  0  0  0
  9 17  1  0  0  0  0
  9 10  2  0  0  0  0
 18 19  1  0  0  0  0
 19 31  1  0  0  0  0
 19 20  2  0  0  0  0
 32 35  1  0  0  0  0
  8 11  1  0  0  0  0
 41 42  1  0  0  0  0
 18 21  1  0  0  0  0
 31 32  1  0  0  0  0
  7  8  1  0  0  0  0
 17 18  1  0  0  0  0
  3  4  1  0  0  0  0
  3  5  1  0  0  0  0
  3  6  1  0  0  0  0
 35 38  1  0  0  0  0
 35 39  1  0  0  0  0
 35 40  1  0  0  0  0
 11 14  1  0  0  0  0
 11 15  1  0  0  0  0
 11 16  1  0  0  0  0
 42 44  1  0  0  0  0
 42 45  1  0  0  0  0
 42 46  1  0  0  0  0
 21 27  1  0  0  0  0
 21 28  1  0  0  0  0
 32 37  1  0  0  0  0
  8 13  1  0  0  0  0
 18 26  1  0  0  0  0
 24 29  1  0  0  0  0
 24 30  1  0  0  0  0
 41 43  1  0  0  0  0
  7 12  1  0  0  0  0
 31 36  1  0  0  0  0
 17 25  1  0  0  0  0
M  END
$$$$

  -OEChem-05262214473D

 46 45  0     1  0  0  0  0  0999 V2000
   -0.0543    1.9736    3.8406 C   0  0  0  0  0  0  0  0  0  0  0  0
    0.6744    1.6099    4.7562 O   0  0  0  0  0  0  0  0  0  0  0  0
   -0.5599    3.3779    3.8160 C   0  0  0  0  0  0  0  0  0  0  0  0
   -1.5202    3.4885    4.3450 H   0  0  0  0  0  0  0  0  0  0  0  0
    0.1282    4.0814    4.3116 H   0  0  0  0  0  0  0  0  0  0  0  0
   -0.7317    3.7994    2.8126 H   0  0  0  0  0  0  0  0  0  0  0  0
   -0.4812    1.1968    2.7762 N   0  0  0  0  0  0  0  0  0  0  0  0
   -0.1106   -0.1834    2.6051 C   0  0  2  0  0  0  0  0  0  0  0  0
   -0.0696   -0.4775    1.1113 C   0  0  0  0  0  0  0  0  0  0  0  0
   -0.6805    0.1900    0.2792 O   0  0  0  0  0  0  0  0  0  0  0  0
   -1.0852   -1.1101    3.3150 C   0  0  0  0  0  0  0  0  0  0  0  0
   -1.0883    1.6241    2.0791 H   0  0  0  0  0  0  0  0  0  0  0  0
    0.8937   -0.2959    3.0277 H   0  0  0  0  0  0  0  0  0  0  0  0
   -2.0970   -1.0114    2.9051 H   0  0  0  0  0  0  0  0  0  0  0  0
   -0.7860   -2.1580    3.2078 H   0  0  0  0  0  0  0  0  0  0  0  0
   -1.1357   -0.8775    4.3842 H   0  0  0  0  0  0  0  0  0  0  0  0
    0.6950   -1.6003    0.8178 N   0  0  0  0  0  0  0  0  0  0  0  0
    0.8777   -2.0908   -0.5246 C   0  0  2  0  0  0  0  0  0  0  0  0
    0.6925   -3.6027   -0.4905 C   0  0  0  0  0  0  0  0  0  0  0  0
    0.6608   -4.2521    0.5529 O   0  0  0  0  0  0  0  0  0  0  0  0
    2.2553   -1.7294   -1.0804 C   0  0  0  0  0  0  0  0  0  0  0  0
    2.4146   -0.2461   -1.3640 C   0  0  0  0  0  0  0  0  0  0  0  0
    1.5503    0.4511   -1.8869 O   0  0  0  0  0  0  0  0  0  0  0  0
    3.6430    0.2337   -0.9615 N   0  0  0  0  0  0  0  0  0  0  0  0
    1.1810   -2.0803    1.5718 H   0  0  0  0  0  0  0  0  0  0  0  0
    0.0786   -1.6479   -1.1305 H   0  0  0  0  0  0  0  0  0  0  0  0
    3.0386   -2.0062   -0.3635 H   0  0  0  0  0  0  0  0  0  0  0  0
    2.4543   -2.2841   -2.0064 H   0  0  0  0  0  0  0  0  0  0  0  0
    4.3265   -0.3792   -0.5297 H   0  0  0  0  0  0  0  0  0  0  0  0
    3.9111    1.2057   -1.0787 H   0  0  0  0  0  0  0  0  0  0  0  0
    0.5164   -4.1382   -1.7586 N   0  0  0  0  0  0  0  0  0  0  0  0
    0.2965   -5.5489   -1.9705 C   0  0  2  0  0  0  0  0  0  0  0  0
   -0.9416   -5.9555   -1.1824 C   0  0  0  0  0  0  0  0  0  0  0  0
   -1.3603   -5.3207   -0.2165 O   0  0  0  0  0  0  0  0  0  0  0  0
    1.5052   -6.3674   -1.5444 C   0  0  0  0  0  0  0  0  0  0  0  0
    0.5331   -3.5275   -2.5701 H   0  0  0  0  0  0  0  0  0  0  0  0
    0.1085   -5.6823   -3.0415 H   0  0  0  0  0  0  0  0  0  0  0  0
    1.7091   -6.2465   -0.4742 H   0  0  0  0  0  0  0  0  0  0  0  0
    1.3479   -7.4347   -1.7323 H   0  0  0  0  0  0  0  0  0  0  0  0
    2.4010   -6.0533   -2.0909 H   0  0  0  0  0  0  0  0  0  0  0  0
   -1.4991   -7.1342   -1.6577 N   0  0  0  0  0  0  0  0  0  0  0  0
   -2.6737   -7.7340   -1.0691 C   0  0  0  0  0  0  0  0  0  0  0  0
   -1.0969   -7.5830   -2.4754 H   0  0  0  0  0  0  0  0  0  0  0  0
   -2.3694   -8.4649   -0.3055 H   0  0  0  0  0  0  0  0  0  0  0  0
   -3.2901   -6.9515   -0.6025 H   0  0  0  0  0  0  0  0  0  0  0  0
   -3.2568   -8.2423   -1.8513 H   0  0  0  0  0  0  0  0  0  0  0  0
  1  3  1  0  0  0  0
  1  7  1  0  0  0  0
  1  2  2  0  0  0  0
 21 22  1  0  0  0  0
 22 24  1  0  0  0  0
 22 23  2  0  0  0  0
 32 33  1  0  0  0  0
 33 41  1  0  0  0  0
 33 34  2  0  0  0  0
  8  9  1  0  0  0  0
  9 17  1  0  0  0  0
  9 10  2  0  0  0  0
 18 19  1  0  0  0  0
 19 31  1  0  0  0  0
 19 20  2  0  0  0  0
 32 35  1  0  0  0  0
  8 11  1  0  0  0  0
 41 42  1  0  0  0  0
 18 21  1  0  0  0  0
 31 32  1  0  0  0  0
  7  8  1  0  0  0  0
 17 18  1  0  0  0  0
  3  4  1  0  0  0  0
  3  5  1  0  0  0  0
  3  6  1  0  0  0  0
 35 38  1  0  0  0  0
 35 39  1  0  0  0  0
 35 40  1  0  0  0  0
 11 14  1  0  0  0  0
 11 15  1  0  0  0  0
 11 16  1  0  0  0  0
 42 44  1  0  0  0  0
 42 45  1  0  0  0  0
 42 46  1  0  0  0  0
 21 27  1  0  0  0  0
 21 28  1  0  0  0  0
 32 37  1  0  0  0  0
  8 13  1  0  0  0  0
 18 26  1  0  0  0  0
 24 29  1  0  0  0  0
 24 30  1  0  0  0  0
 41 43  1  0  0  0  0
  7 12  1  0  0  0  0
 31 36  1  0  0  0  0
 17 25  1  0  0  0  0
M  END
$$$$

  -OEChem-05262214473D

 46 45  0     1  0  0  0  0  0999 V2000
   -0.0543    1.9736    3.8406 C   0  0  0  0  0  0  0  0  0  0  0  0
    0.6744    1.6099    4.7562 O   0  0  0  0  0  0  0  0  0  0  0  0
   -0.5599    3.3779    3.8160 C   0  0  0  0  0  0  0  0  0  0  0  0
   -1.5202    3.4885    4.3450 H   0  0  0  0  0  0  0  0  0  0  0  0
    0.1282    4.0814    4.3116 H   0  0  0  0  0  0  0  0  0  0  0  0
   -0.7317    3.7994    2.8126 H   0  0  0  0  0  0  0  0  0  0  0  0
   -0.4812    1.1968    2.7762 N   0  0  0  0  0  0  0  0  0  0  0  0
   -0.1106   -0.1834    2.6051 C   0  0  2  0  0  0  0  0  0  0  0  0
   -0.0696   -0.4775    1.1113 C   0  0  0  0  0  0  0  0  0  0  0  0
   -0.6805    0.1900    0.2792 O   0  0  0  0  0  0  0  0  0  0  0  0
   -1.0852   -1.1101    3.3150 C   0  0  0  0  0  0  0  0  0  0  0  0
   -1.0883    1.6241    2.0791 H   0  0  0  0  0  0  0  0  0  0  0  0
    0.8937   -0.2959    3.0277 H   0  0  0  0  0  0  0  0  0  0  0  0
   -2.0970   -1.0114    2.9051 H   0  0  0  0  0  0  0  0  0  0  0  0
   -0.7860   -2.1580    3.2078 H   0  0  0  0  0  0  0  0  0  0  0  0
   -1.1357   -0.8775    4.3842 H   0  0  0  0  0  0  0  0  0  0  0  0
    0.6950   -1.6003    0.8178 N   0  0  0  0  0  0  0  0  0  0  0  0
    0.8777   -2.0908   -0.5246 C   0  0  2  0  0  0  0  0  0  0  0  0
    0.3332   -3.5130   -0.5722 C   0  0  0  0  0  0  0  0  0  0  0  0
   -0.1964   -4.0620    0.3919 O   0  0  0  0  0  0  0  0  0  0  0  0
    2.3469   -2.0623   -0.9463 C   0  0  0  0  0  0  0  0  0  0  0  0
    2.8826   -0.6561   -1.1505 C   0  0  0  0  0  0  0  0  0  0  0  0
    2.2625    0.2413   -1.7133 O   0  0  0  0  0  0  0  0  0  0  0  0
    4.1477   -0.4976   -0.6256 N   0  0  0  0  0  0  0  0  0  0  0  0
    1.1810   -2.0803    1.5718 H   0  0  0  0  0  0  0  0  0  0  0  0
    0.2674   -1.4541   -1.1756 H   0  0  0  0  0  0  0  0  0  0  0  0
    2.9716   -2.5365   -0.1788 H   0  0  0  0  0  0  0  0  0  0  0  0
    2.4916   -2.6282   -1.8755 H   0  0  0  0  0  0  0  0  0  0  0  0
    4.6216   -1.2674   -0.1650 H   0  0  0  0  0  0  0  0  0  0  0  0
    4.6505    0.3826   -0.6773 H   0  0  0  0  0  0  0  0  0  0  0  0
    0.4619   -4.0820   -1.8314 N   0  0  0  0  0  0  0  0  0  0  0  0
   -0.0086   -5.4153   -2.1211 C   0  0  2  0  0  0  0  0  0  0  0  0
   -1.4968   -5.4686   -1.8015 C   0  0  0  0  0  0  0  0  0  0  0  0
   -2.0447   -4.6877   -1.0262 O   0  0  0  0  0  0  0  0  0  0  0  0
    0.7568   -6.4581   -1.3216 C   0  0  0  0  0  0  0  0  0  0  0  0
    0.8921   -3.5506   -2.5827 H   0  0  0  0  0  0  0  0  0  0  0  0
    0.1410   -5.5773   -3.1941 H   0  0  0  0  0  0  0  0  0  0  0  0
    0.6189   -6.3119   -0.2440 H   0  0  0  0  0  0  0  0  0  0  0  0
    0.4181   -7.4709   -1.5637 H   0  0  0  0  0  0  0  0  0  0  0  0
    1.8304   -6.3985   -1.5304 H   0  0  0  0  0  0  0  0  0  0  0  0
   -2.1326   -6.5178   -2.4504 N   0  0  0  0  0  0  0  0  0  0  0  0
   -3.5435   -6.7874   -2.2993 C   0  0  0  0  0  0  0  0  0  0  0  0
   -1.6039   -7.1039   -3.0896 H   0  0  0  0  0  0  0  0  0  0  0  0
   -3.6937   -7.5128   -1.4862 H   0  0  0  0  0  0  0  0  0  0  0  0
   -4.0716   -5.8529   -2.0591 H   0  0  0  0  0  0  0  0  0  0  0  0
   -3.9400   -7.2017   -3.2380 H   0  0  0  0  0  0  0  0  0  0  0  0
  1  3  1  0  0  0  0
  1  7  1  0  0  0  0
  1  2  2  0  0  0  0
 21 22  1  0  0  0  0
 22 24  1  0  0  0  0
 22 23  2  0  0  0  0
 32 33  1  0  0  0  0
 33 41  1  0  0  0  0
 33 34  2  0  0  0  0
  8  9  1  0  0  0  0
  9 17  1  0  0  0  0
  9 10  2  0  0  0  0
 18 19  1  0  0  0  0
 19 31  1  0  0  0  0
 19 20  2  0  0  0  0
 32 35  1  0  0  0  0
  8 11  1  0  0  0  0
 41 42  1  0  0  0  0
 18 21  1  0  0  0  0
 31 32  1  0  0  0  0
  7  8  1  0  0  0  0
 17 18  1  0  0  0  0
  3  4  1  0  0  0  0
  3  5  1  0  0  0  0
  3  6  1  0  0  0  0
 35 38  1  0  0  0  0
 35 39  1  0  0  0  0
 35 40  1  0  0  0  0
 11 14  1  0  0  0  0
 11 15  1  0  0  0  0
 11 16  1  0  0  0  0
 42 44  1  0  0  0  0
 42 45  1  0  0  0  0
 42 46  1  0  0  0  0
 21 27  1  0  0  0  0
 21 28  1  0  0  0  0
 32 37  1  0  0  0  0
  8 13  1  0  0  0  0
 18 26  1  0  0  0  0
 24 29  1  0  0  0  0
 24 30  1  0  0  0  0
 41 43  1  0  0  0  0
  7 12  1  0  0  0  0
 31 36  1  0  0  0  0
 17 25  1  0  0  0  0
M  END
$$$$

  -OEChem-05262214473D

 46 45  0     1  0  0  0  0  0999 V2000
   -0.0543    1.9736    3.8406 C   0  0  0  0  0  0  0  0  0  0  0  0
    0.6744    1.6099    4.7562 O   0  0  0  0  0  0  0  0  0  0  0  0
   -0.5599    3.3779    3.8160 C   0  0  0  0  0  0  0  0  0  0  0  0
   -1.5202    3.4885    4.3450 H   0  0  0  0  0  0  0  0  0  0  0  0
    0.1282    4.0814    4.3116 H   0  0  0  0  0  0  0  0  0  0  0  0
   -0.7317    3.7994    2.8126 H   0  0  0  0  0  0  0  0  0  0  0  0
   -0.4812    1.1968    2.7762 N   0  0  0  0  0  0  0  0  0  0  0  0
   -0.1106   -0.1834    2.6051 C   0  0  2  0  0  0  0  0  0  0  0  0
   -0.0696   -0.4775    1.1113 C   0  0  0  0  0  0  0  0  0  0  0  0
   -0.6805    0.1900    0.2792 O   0  0  0  0  0  0  0  0  0  0  0  0
   -1.0852   -1.1101    3.3150 C   0  0  0  0  0  0  0  0  0  0  0  0
   -1.0883    1.6241    2.0791 H   0  0  0  0  0  0  0  0  0  0  0  0
    0.8937   -0.2959    3.0277 H   0  0  0  0  0  0  0  0  0  0  0  0
   -2.0970   -1.0114    2.9051 H   0  0  0  0  0  0  0  0  0  0  0  0
   -0.7860   -2.1580    3.2078 H   0  0  0  0  0  0  0  0  0  0  0  0
   -1.1357   -0.8775    4.3842 H   0  0  0  0  0  0  0  0  0  0  0  0
    0.6950   -1.6003    0.8178 N   0  0  0  0  0  0  0  0  0  0  0  0
    0.8777   -2.0908   -0.5246 C   0  0  2  0  0  0  0  0  0  0  0  0
    0.3332   -3.5130   -0.5722 C   0  0  0  0  0  0  0  0  0  0  0  0
   -0.4239   -3.9712    0.2812 O   0  0  0  0  0  0  0  0  0  0  0  0
    2.3469   -2.0623   -0.9463 C   0  0  0  0  0  0  0  0  0  0  0  0
    2.8826   -0.6561   -1.1505 C   0  0  0  0  0  0  0  0  0  0  0  0
    2.2625    0.2413   -1.7133 O   0  0  0  0  0  0  0  0  0  0  0  0
    4.1477   -0.4976   -0.6256 N   0  0  0  0  0  0  0  0  0  0  0  0
    1.1810   -2.0803    1.5718 H   0  0  0  0  0  0  0  0  0  0  0  0
    0.2674   -1.4541   -1.1756 H   0  0  0  0  0  0  0  0  0  0  0  0
    2.9716   -2.5365   -0.1788 H   0  0  0  0  0  0  0  0  0  0  0  0
    2.4916   -2.6282   -1.8755 H   0  0  0  0  0  0  0  0  0  0  0  0
    4.6216   -1.2674   -0.1650 H   0  0  0  0  0  0  0  0  0  0  0  0
    4.6505    0.3826   -0.6773 H   0  0  0  0  0  0  0  0  0  0  0  0
    0.7508   -4.1968   -1.7054 N   0  0  0  0  0  0  0  0  0  0  0  0
    0.3381   -5.5529   -1.9771 C   0  0  2  0  0  0  0  0  0  0  0  0
   -1.1839   -5.5810   -2.0235 C   0  0  0  0  0  0  0  0  0  0  0  0
   -1.8874   -4.7328   -1.4787 O   0  0  0  0  0  0  0  0  0  0  0  0
    0.8677   -6.5139   -0.9241 C   0  0  0  0  0  0  0  0  0  0  0  0
    1.3597   -3.7365   -2.3756 H   0  0  0  0  0  0  0  0  0  0  0  0
    0.7390   -5.8140   -2.9625 H   0  0  0  0  0  0  0  0  0  0  0  0
    0.4768   -6.2680    0.0700 H   0  0  0  0  0  0  0  0  0  0  0  0
    0.5778   -7.5460   -1.1473 H   0  0  0  0  0  0  0  0  0  0  0  0
    1.9609   -6.4705   -0.8715 H   0  0  0  0  0  0  0  0  0  0  0  0
   -1.6648   -6.6883   -2.7082 N   0  0  0  0  0  0  0  0  0  0  0  0
   -3.0753   -6.9472   -2.8791 C   0  0  0  0  0  0  0  0  0  0  0  0
   -1.0089   -7.3299   -3.1441 H   0  0  0  0  0  0  0  0  0  0  0  0
   -3.4314   -7.5939   -2.0636 H   0  0  0  0  0  0  0  0  0  0  0  0
   -3.6275   -5.9960   -2.8602 H   0  0  0  0  0  0  0  0  0  0  0  0
   -3.2417   -7.4487   -3.8438 H   0  0  0  0  0  0  0  0  0  0  0  0
  1  3  1  0  0  0  0
  1  7  1  0  0  0  0
  1  2  2  0  0  0  0
 21 22  1  0  0  0  0
 22 24  1  0  0  0  0
 22 23  2  0  0  0  0
 32 33  1  0  0  0  0
 33 41  1  0  0  0  0
 33 34  2  0  0  0  0
  8  9  1  0  0  0  0
  9 17  1  0  0  0  0
  9 10  2  0  0  0  0
 18 19  1  0  0  0  0
 19 31  1  0  0  0  0
 19 20  2  0  0  0  0
 32 35  1  0  0  0  0
  8 11  1  0  0  0  0
 41 42  1  0  0  0  0
 18 21  1  0  0  0  0
 31 32  1  0  0  0  0
  7  8  1  0  0  0  0
 17 18  1  0  0  0  0
  3  4  1  0  0  0  0
  3  5  1  0  0  0  0
  3  6  1  0  0  0  0
 35 38  1  0  0  0  0
 35 39  1  0  0  0  0
 35 40  1  0  0  0  0
 11 14  1  0  0  0  0
 11 15  1  0  0  0  0
 11 16  1  0  0  0  0
 42 44  1  0  0  0  0
 42 45  1  0  0  0  0
 42 46  1  0  0  0  0
 21 27  1  0  0  0  0
 21 28  1  0  0  0  0
 32 37  1  0  0  0  0
  8 13  1  0  0  0  0
 18 26  1  0  0  0  0
 24 29  1  0  0  0  0
 24 30  1  0  0  0  0
 41 43  1  0  0  0  0
  7 12  1  0  0  0  0
 31 36  1  0  0  0  0
 17 25  1  0  0  0  0
M  END
$$$$

  -OEChem-05262214473D

 46 45  0     1  0  0  0  0  0999 V2000
   -0.0543    1.9736    3.8406 C   0  0  0  0  0  0  0  0  0  0  0  0
    0.6744    1.6099    4.7562 O   0  0  0  0  0  0  0  0  0  0  0  0
   -0.5599    3.3779    3.8160 C   0  0  0  0  0  0  0  0  0  0  0  0
   -1.5202    3.4885    4.3450 H   0  0  0  0  0  0  0  0  0  0  0  0
    0.1282    4.0814    4.3116 H   0  0  0  0  0  0  0  0  0  0  0  0
   -0.7317    3.7994    2.8126 H   0  0  0  0  0  0  0  0  0  0  0  0
   -0.4812    1.1968    2.7762 N   0  0  0  0  0  0  0  0  0  0  0  0
   -0.1106   -0.1834    2.6051 C   0  0  2  0  0  0  0  0  0  0  0  0
   -0.0696   -0.4775    1.1113 C   0  0  0  0  0  0  0  0  0  0  0  0
   -0.6805    0.1900    0.2792 O   0  0  0  0  0  0  0  0  0  0  0  0
   -1.0852   -1.1101    3.3150 C   0  0  0  0  0  0  0  0  0  0  0  0
   -1.0883    1.6241    2.0791 H   0  0  0  0  0  0  0  0  0  0  0  0
    0.8937   -0.2959    3.0277 H   0  0  0  0  0  0  0  0  0  0  0  0
   -2.0970   -1.0114    2.9051 H   0  0  0  0  0  0  0  0  0  0  0  0
   -0.7860   -2.1580    3.2078 H   0  0  0  0  0  0  0  0  0  0  0  0
   -1.1357   -0.8775    4.3842 H   0  0  0  0  0  0  0  0  0  0  0  0
    0.6950   -1.6003    0.8178 N   0  0  0  0  0  0  0  0  0  0  0  0
    0.8777   -2.0908   -0.5246 C   0  0  2  0  0  0  0  0  0  0  0  0
    0.3332   -3.5130   -0.5722 C   0  0  0  0  0  0  0  0  0  0  0  0
   -0.6162   -3.8919    0.1108 O   0  0  0  0  0  0  0  0  0  0  0  0
    2.3469   -2.0623   -0.9463 C   0  0  0  0  0  0  0  0  0  0  0  0
    2.8826   -0.6561   -1.1505 C   0  0  0  0  0  0  0  0  0  0  0  0
    2.2625    0.2413   -1.7133 O   0  0  0  0  0  0  0  0  0  0  0  0
    4.1477   -0.4976   -0.6256 N   0  0  0  0  0  0  0  0  0  0  0  0
    1.1810   -2.0803    1.5718 H   0  0  0  0  0  0  0  0  0  0  0  0
    0.2674   -1.4541   -1.1756 H   0  0  0  0  0  0  0  0  0  0  0  0
    2.9716   -2.5365   -0.1788 H   0  0  0  0  0  0  0  0  0  0  0  0
    2.4916   -2.6282   -1.8755 H   0  0  0  0  0  0  0  0  0  0  0  0
    4.6216   -1.2674   -0.1650 H   0  0  0  0  0  0  0  0  0  0  0  0
    4.6505    0.3826   -0.6773 H   0  0  0  0  0  0  0  0  0  0  0  0
    0.9984   -4.2983   -1.5032 N   0  0  0  0  0  0  0  0  0  0  0  0
    0.6372   -5.6752   -1.7414 C   0  0  2  0  0  0  0  0  0  0  0  0
   -0.8289   -5.7126   -2.1520 C   0  0  0  0  0  0  0  0  0  0  0  0
   -1.6264   -4.8195   -1.8736 O   0  0  0  0  0  0  0  0  0  0  0  0
    0.8783   -6.5319   -0.5083 C   0  0  0  0  0  0  0  0  0  0  0  0
    1.7598   -3.9008   -2.0453 H   0  0  0  0  0  0  0  0  0  0  0  0
    1.2588   -6.0260   -2.5725 H   0  0  0  0  0  0  0  0  0  0  0  0
    0.2641   -6.1954    0.3349 H   0  0  0  0  0  0  0  0  0  0  0  0
    0.6308   -7.5812   -0.6995 H   0  0  0  0  0  0  0  0  0  0  0  0
    1.9272   -6.4802   -0.1968 H   0  0  0  0  0  0  0  0  0  0  0  0
   -1.1519   -6.8806   -2.8284 N   0  0  0  0  0  0  0  0  0  0  0  0
   -2.4844   -7.1590   -3.3111 C   0  0  0  0  0  0  0  0  0  0  0  0
   -0.4229   -7.5579   -3.0321 H   0  0  0  0  0  0  0  0  0  0  0  0
   -3.0391   -7.7278   -2.5504 H   0  0  0  0  0  0  0  0  0  0  0  0
   -3.0062   -6.2120   -3.5136 H   0  0  0  0  0  0  0  0  0  0  0  0
   -2.4228   -7.7490   -4.2374 H   0  0  0  0  0  0  0  0  0  0  0  0
  1  3  1  0  0  0  0
  1  7  1  0  0  0  0
  1  2  2  0  0  0  0
 21 22  1  0  0  0  0
 22 24  1  0  0  0  0
 22 23  2  0  0  0  0
 32 33  1  0  0  0  0
 33 41  1  0  0  0  0
 33 34  2  0  0  0  0
  8  9  1  0  0  0  0
  9 17  1  0  0  0  0
  9 10  2  0  0  0  0
 18 19  1  0  0  0  0
 19 31  1  0  0  0  0
 19 20  2  0  0  0  0
 32 35  1  0  0  0  0
  8 11  1  0  0  0  0
 41 42  1  0  0  0  0
 18 21  1  0  0  0  0
 31 32  1  0  0  0  0
  7  8  1  0  0  0  0
 17 18  1  0  0  0  0
  3  4  1  0  0  0  0
  3  5  1  0  0  0  0
  3  6  1  0  0  0  0
 35 38  1  0  0  0  0
 35 39  1  0  0  0  0
 35 40  1  0  0  0  0
 11 14  1  0  0  0  0
 11 15  1  0  0  0  0
 11 16  1  0  0  0  0
 42 44  1  0  0  0  0
 42 45  1  0  0  0  0
 42 46  1  0  0  0  0
 21 27  1  0  0  0  0
 21 28  1  0  0  0  0
 32 37  1  0  0  0  0
  8 13  1  0  0  0  0
 18 26  1  0  0  0  0
 24 29  1  0  0  0  0
 24 30  1  0  0  0  0
 41 43  1  0  0  0  0
  7 12  1  0  0  0  0
 31 36  1  0  0  0  0
 17 25  1  0  0  0  0
M  END
$$$$

  -OEChem-05262214473D

 46 45  0     1  0  0  0  0  0999 V2000
   -0.0543    1.9736    3.8406 C   0  0  0  0  0  0  0  0  0  0  0  0
    0.6744    1.6099    4.7562 O   0  0  0  0  0  0  0  0  0  0  0  0
   -0.5599    3.3779    3.8160 C   0  0  0  0  0  0  0  0  0  0  0  0
   -1.5202    3.4885    4.3450 H   0  0  0  0  0  0  0  0  0  0  0  0
    0.1282    4.0814    4.3116 H   0  0  0  0  0  0  0  0  0  0  0  0
   -0.7317    3.7994    2.8126 H   0  0  0  0  0  0  0  0  0  0  0  0
   -0.4812    1.1968    2.7762 N   0  0  0  0  0  0  0  0  0  0  0  0
   -0.1106   -0.1834    2.6051 C   0  0  2  0  0  0  0  0  0  0  0  0
   -0.0696   -0.4775    1.1113 C   0  0  0  0  0  0  0  0  0  0  0  0
   -0.6805    0.1900    0.2792 O   0  0  0  0  0  0  0  0  0  0  0  0
   -1.0852   -1.1101    3.3150 C   0  0  0  0  0  0  0  0  0  0  0  0
   -1.0883    1.6241    2.0791 H   0  0  0  0  0  0  0  0  0  0  0  0
    0.8937   -0.2959    3.0277 H   0  0  0  0  0  0  0  0  0  0  0  0
   -2.0970   -1.0114    2.9051 H   0  0  0  0  0  0  0  0  0  0  0  0
   -0.7860   -2.1580    3.2078 H   0  0  0  0  0  0  0  0  0  0  0  0
   -1.1357   -0.8775    4.3842 H   0  0  0  0  0  0  0  0  0  0  0  0
    0.6950   -1.6003    0.8178 N   0  0  0  0  0  0  0  0  0  0  0  0
    0.8777   -2.0908   -0.5246 C   0  0  2  0  0  0  0  0  0  0  0  0
    0.3332   -3.5130   -0.5722 C   0  0  0  0  0  0  0  0  0  0  0  0
   -0.7601   -3.8295   -0.1075 O   0  0  0  0  0  0  0  0  0  0  0  0
    2.3469   -2.0623   -0.9463 C   0  0  0  0  0  0  0  0  0  0  0  0
    2.8826   -0.6561   -1.1505 C   0  0  0  0  0  0  0  0  0  0  0  0
    2.2625    0.2413   -1.7133 O   0  0  0  0  0  0  0  0  0  0  0  0
    4.1477   -0.4976   -0.6256 N   0  0  0  0  0  0  0  0  0  0  0  0
    1.1810   -2.0803    1.5718 H   0  0  0  0  0  0  0  0  0  0  0  0
    0.2674   -1.4541   -1.1756 H   0  0  0  0  0  0  0  0  0  0  0  0
    2.9716   -2.5365   -0.1788 H   0  0  0  0  0  0  0  0  0  0  0  0
    2.4916   -2.6282   -1.8755 H   0  0  0  0  0  0  0  0  0  0  0  0
    4.6216   -1.2674   -0.1650 H   0  0  0  0  0  0  0  0  0  0  0  0
    4.6505    0.3826   -0.6773 H   0  0  0  0  0  0  0  0  0  0  0  0
    1.1879   -4.3797   -1.2387 N   0  0  0  0  0  0  0  0  0  0  0  0
    0.8681   -5.7741   -1.4303 C   0  0  2  0  0  0  0  0  0  0  0  0
   -0.4561   -5.8544   -2.1782 C   0  0  0  0  0  0  0  0  0  0  0  0
   -1.2797   -4.9418   -2.1840 O   0  0  0  0  0  0  0  0  0  0  0  0
    0.7880   -6.5109   -0.1023 C   0  0  0  0  0  0  0  0  0  0  0  0
    2.0652   -4.0321   -1.6145 H   0  0  0  0  0  0  0  0  0  0  0  0
    1.6649   -6.1989   -2.0505 H   0  0  0  0  0  0  0  0  0  0  0  0
   -0.0049   -6.0991    0.5327 H   0  0  0  0  0  0  0  0  0  0  0  0
    0.5735   -7.5743   -0.2510 H   0  0  0  0  0  0  0  0  0  0  0  0
    1.7316   -6.4269    0.4476 H   0  0  0  0  0  0  0  0  0  0  0  0
   -0.6290   -7.0816   -2.8029 N   0  0  0  0  0  0  0  0  0  0  0  0
   -1.8109   -7.4083   -3.5661 C   0  0  0  0  0  0  0  0  0  0  0  0
    0.1143   -7.7726   -2.7612 H   0  0  0  0  0  0  0  0  0  0  0  0
   -2.5437   -7.9053   -2.9135 H   0  0  0  0  0  0  0  0  0  0  0  0
   -2.2499   -6.4861   -3.9746 H   0  0  0  0  0  0  0  0  0  0  0  0
   -1.5392   -8.0821   -4.3920 H   0  0  0  0  0  0  0  0  0  0  0  0
  1  3  1  0  0  0  0
  1  7  1  0  0  0  0
  1  2  2  0  0  0  0
 21 22  1  0  0  0  0
 22 24  1  0  0  0  0
 22 23  2  0  0  0  0
 32 33  1  0  0  0  0
 33 41  1  0  0  0  0
 33 34  2  0  0  0  0
  8  9  1  0  0  0  0
  9 17  1  0  0  0  0
  9 10  2  0  0  0  0
 18 19  1  0  0  0  0
 19 31  1  0  0  0  0
 19 20  2  0  0  0  0
 32 35  1  0  0  0  0
  8 11  1  0  0  0  0
 41 42  1  0  0  0  0
 18 21  1  0  0  0  0
 31 32  1  0  0  0  0
  7  8  1  0  0  0  0
 17 18  1  0  0  0  0
  3  4  1  0  0  0  0
  3  5  1  0  0  0  0
  3  6  1  0  0  0  0
 35 38  1  0  0  0  0
 35 39  1  0  0  0  0
 35 40  1  0  0  0  0
 11 14  1  0  0  0  0
 11 15  1  0  0  0  0
 11 16  1  0  0  0  0
 42 44  1  0  0  0  0
 42 45  1  0  0  0  0
 42 46  1  0  0  0  0
 21 27  1  0  0  0  0
 21 28  1  0  0  0  0
 32 37  1  0  0  0  0
  8 13  1  0  0  0  0
 18 26  1  0  0  0  0
 24 29  1  0  0  0  0
 24 30  1  0  0  0  0
 41 43  1  0  0  0  0
  7 12  1  0  0  0  0
 31 36  1  0  0  0  0
 17 25  1  0  0  0  0
M  END
$$$$

  -OEChem-05262214473D

 46 45  0     1  0  0  0  0  0999 V2000
   -0.0543    1.9736    3.8406 C   0  0  0  0  0  0  0  0  0  0  0  0
    0.6744    1.6099    4.7562 O   0  0  0  0  0  0  0  0  0  0  0  0
   -0.5599    3.3779    3.8160 C   0  0  0  0  0  0  0  0  0  0  0  0
   -1.5202    3.4885    4.3450 H   0  0  0  0  0  0  0  0  0  0  0  0
    0.1282    4.0814    4.3116 H   0  0  0  0  0  0  0  0  0  0  0  0
   -0.7317    3.7994    2.8126 H   0  0  0  0  0  0  0  0  0  0  0  0
   -0.4812    1.1968    2.7762 N   0  0  0  0  0  0  0  0  0  0  0  0
   -0.1106   -0.1834    2.6051 C   0  0  2  0  0  0  0  0  0  0  0  0
   -0.0696   -0.4775    1.1113 C   0  0  0  0  0  0  0  0  0  0  0  0
   -0.6805    0.1900    0.2792 O   0  0  0  0  0  0  0  0  0  0  0  0
   -1.0852   -1.1101    3.3150 C   0  0  0  0  0  0  0  0  0  0  0  0
   -1.0883    1.6241    2.0791 H   0  0  0  0  0  0  0  0  0  0  0  0
    0.8937   -0.2959    3.0277 H   0  0  0  0  0  0  0  0  0  0  0  0
   -2.0970   -1.0114    2.9051 H   0  0  0  0  0  0  0  0  0  0  0  0
   -0.7860   -2.1580    3.2078 H   0  0  0  0  0  0  0  0  0  0  0  0
   -1.1357   -0.8775    4.3842 H   0  0  0  0  0  0  0  0  0  0  0  0
    0.6950   -1.6003    0.8178 N   0  0  0  0  0  0  0  0  0  0  0  0
    0.8777   -2.0908   -0.5246 C   0  0  2  0  0  0  0  0  0  0  0  0
    0.3332   -3.5130   -0.5722 C   0  0  0  0  0  0  0  0  0  0  0  0
   -0.8458   -3.7883   -0.3589 O   0  0  0  0  0  0  0  0  0  0  0  0
    2.3469   -2.0623   -0.9463 C   0  0  0  0  0  0  0  0  0  0  0  0
    2.8826   -0.6561   -1.1505 C   0  0  0  0  0  0  0  0  0  0  0  0
    2.2625    0.2413   -1.7133 O   0  0  0  0  0  0  0  0  0  0  0  0
    4.1477   -0.4976   -0.6256 N   0  0  0  0  0  0  0  0  0  0  0  0
    1.1810   -2.0803    1.5718 H   0  0  0  0  0  0  0  0  0  0  0  0
    0.2674   -1.4541   -1.1756 H   0  0  0  0  0  0  0  0  0  0  0  0
    2.9716   -2.5365   -0.1788 H   0  0  0  0  0  0  0  0  0  0  0  0
    2.4916   -2.6282   -1.8755 H   0  0  0  0  0  0  0  0  0  0  0  0
    4.6216   -1.2674   -0.1650 H   0  0  0  0  0  0  0  0  0  0  0  0
    4.6505    0.3826   -0.6773 H   0  0  0  0  0  0  0  0  0  0  0  0
    1.3064   -4.4354   -0.9299 N   0  0  0  0  0  0  0  0  0  0  0  0
    1.0153   -5.8426   -1.0648 C   0  0  2  0  0  0  0  0  0  0  0  0
   -0.0908   -5.9968   -2.1003 C   0  0  0  0  0  0  0  0  0  0  0  0
   -0.8707   -5.0915   -2.3887 O   0  0  0  0  0  0  0  0  0  0  0  0
    0.6028   -6.4523    0.2660 C   0  0  0  0  0  0  0  0  0  0  0  0
    2.2551   -4.1216   -1.1124 H   0  0  0  0  0  0  0  0  0  0  0  0
    1.9297   -6.3210   -1.4322 H   0  0  0  0  0  0  0  0  0  0  0  0
   -0.3116   -5.9856    0.6499 H   0  0  0  0  0  0  0  0  0  0  0  0
    0.4099   -7.5257    0.1678 H   0  0  0  0  0  0  0  0  0  0  0  0
    1.3873   -6.3142    1.0178 H   0  0  0  0  0  0  0  0  0  0  0  0
   -0.1317   -7.2776   -2.6333 N   0  0  0  0  0  0  0  0  0  0  0  0
   -1.1007   -7.6781   -3.6266 C   0  0  0  0  0  0  0  0  0  0  0  0
    0.5659   -7.9593   -2.3500 H   0  0  0  0  0  0  0  0  0  0  0  0
   -1.9789   -8.1143   -3.1281 H   0  0  0  0  0  0  0  0  0  0  0  0
   -1.4103   -6.7996   -4.2118 H   0  0  0  0  0  0  0  0  0  0  0  0
   -0.6510   -8.4253   -4.2970 H   0  0  0  0  0  0  0  0  0  0  0  0
  1  3  1  0  0  0  0
  1  7  1  0  0  0  0
  1  2  2  0  0  0  0
 21 22  1  0  0  0  0
 22 24  1  0  0  0  0
 22 23  2  0  0  0  0
 32 33  1  0  0  0  0
 33 41  1  0  0  0  0
 33 34  2  0  0  0  0
  8  9  1  0  0  0  0
  9 17  1  0  0  0  0
  9 10  2  0  0  0  0
 18 19  1  0  0  0  0
 19 31  1  0  0  0  0
 19 20  2  0  0  0  0
 32 35  1  0  0  0  0
  8 11  1  0  0  0  0
 41 42  1  0  0  0  0
 18 21  1  0  0  0  0
 31 32  1  0  0  0  0
  7  8  1  0  0  0  0
 17 18  1  0  0  0  0
  3  4  1  0  0  0  0
  3  5  1  0  0  0  0
  3  6  1  0  0  0  0
 35 38  1  0  0  0  0
 35 39  1  0  0  0  0
 35 40  1  0  0  0  0
 11 14  1  0  0  0  0
 11 15  1  0  0  0  0
 11 16  1  0  0  0  0
 42 44  1  0  0  0  0
 42 45  1  0  0  0  0
 42 46  1  0  0  0  0
 21 27  1  0  0  0  0
 21 28  1  0  0  0  0
 32 37  1  0  0  0  0
  8 13  1  0  0  0  0
 18 26  1  0  0  0  0
 24 29  1  0  0  0  0
 24 30  1  0  0  0  0
 41 43  1  0  0  0  0
  7 12  1  0  0  0  0
 31 36  1  0  0  0  0
 17 25  1  0  0  0  0
M  END
$$$$

  -OEChem-05262214473D

 46 45  0     1  0  0  0  0  0999 V2000
   -0.0543    1.9736    3.8406 C   0  0  0  0  0  0  0  0  0  0  0  0
    0.6744    1.6099    4.7562 O   0  0  0  0  0  0  0  0  0  0  0  0
   -0.5599    3.3779    3.8160 C   0  0  0  0  0  0  0  0  0  0  0  0
   -1.5202    3.4885    4.3450 H   0  0  0  0  0  0  0  0  0  0  0  0
    0.1282    4.0814    4.3116 H   0  0  0  0  0  0  0  0  0  0  0  0
   -0.7317    3.7994    2.8126 H   0  0  0  0  0  0  0  0  0  0  0  0
   -0.4812    1.1968    2.7762 N   0  0  0  0  0  0  0  0  0  0  0  0
   -0.1106   -0.1834    2.6051 C   0  0  2  0  0  0  0  0  0  0  0  0
   -0.0696   -0.4775    1.1113 C   0  0  0  0  0  0  0  0  0  0  0  0
   -0.6805    0.1900    0.2792 O   0  0  0  0  0  0  0  0  0  0  0  0
   -1.0852   -1.1101    3.3150 C   0  0  0  0  0  0  0  0  0  0  0  0
   -1.0883    1.6241    2.0791 H   0  0  0  0  0  0  0  0  0  0  0  0
    0.8937   -0.2959    3.0277 H   0  0  0  0  0  0  0  0  0  0  0  0
   -2.0970   -1.0114    2.9051 H   0  0  0  0  0  0  0  0  0  0  0  0
   -0.7860   -2.1580    3.2078 H   0  0  0  0  0  0  0  0  0  0  0  0
   -1.1357   -0.8775    4.3842 H   0  0  0  0  0  0  0  0  0  0  0  0
    0.6950   -1.6003    0.8178 N   0  0  0  0  0  0  0  0  0  0  0  0
    0.8777   -2.0908   -0.5246 C   0  0  2  0  0  0  0  0  0  0  0  0
    0.3332   -3.5130   -0.5722 C   0  0  0  0  0  0  0  0  0  0  0  0
   -0.8676   -3.7710   -0.6263 O   0  0  0  0  0  0  0  0  0  0  0  0
    2.3469   -2.0623   -0.9463 C   0  0  0  0  0  0  0  0  0  0  0  0
    2.8826   -0.6561   -1.1505 C   0  0  0  0  0  0  0  0  0  0  0  0
    2.2625    0.2413   -1.7133 O   0  0  0  0  0  0  0  0  0  0  0  0
    4.1477   -0.4976   -0.6256 N   0  0  0  0  0  0  0  0  0  0  0  0
    1.1810   -2.0803    1.5718 H   0  0  0  0  0  0  0  0  0  0  0  0
    0.2674   -1.4541   -1.1756 H   0  0  0  0  0  0  0  0  0  0  0  0
    2.9716   -2.5365   -0.1788 H   0  0  0  0  0  0  0  0  0  0  0  0
    2.4916   -2.6282   -1.8755 H   0  0  0  0  0  0  0  0  0  0  0  0
    4.6216   -1.2674   -0.1650 H   0  0  0  0  0  0  0  0  0  0  0  0
    4.6505    0.3826   -0.6773 H   0  0  0  0  0  0  0  0  0  0  0  0
    1.3459   -4.4616   -0.5978 N   0  0  0  0  0  0  0  0  0  0  0  0
    1.0685   -5.8762   -0.6698 C   0  0  2  0  0  0  0  0  0  0  0  0
    0.2421   -6.1302   -1.9237 C   0  0  0  0  0  0  0  0  0  0  0  0
   -0.4275   -5.2583   -2.4737 O   0  0  0  0  0  0  0  0  0  0  0  0
    0.3354   -6.3602    0.5716 C   0  0  0  0  0  0  0  0  0  0  0  0
    2.3164   -4.1631   -0.5733 H   0  0  0  0  0  0  0  0  0  0  0  0
    2.0350   -6.3838   -0.7597 H   0  0  0  0  0  0  0  0  0  0  0  0
   -0.6354   -5.8626    0.6785 H   0  0  0  0  0  0  0  0  0  0  0  0
    0.1511   -7.4387    0.5283 H   0  0  0  0  0  0  0  0  0  0  0  0
    0.9180   -6.1498    1.4750 H   0  0  0  0  0  0  0  0  0  0  0  0
    0.3060   -7.4553   -2.3313 N   0  0  0  0  0  0  0  0  0  0  0  0
   -0.4023   -7.9500   -3.4886 C   0  0  0  0  0  0  0  0  0  0  0  0
    0.9014   -8.1052   -1.8264 H   0  0  0  0  0  0  0  0  0  0  0  0
   -1.3831   -8.3406   -3.1796 H   0  0  0  0  0  0  0  0  0  0  0  0
   -0.5444   -7.1311   -4.2091 H   0  0  0  0  0  0  0  0  0  0  0  0
    0.1812   -8.7552   -3.9590 H   0  0  0  0  0  0  0  0  0  0  0  0
  1  3  1  0  0  0  0
  1  7  1  0  0  0  0
  1  2  2  0  0  0  0
 21 22  1  0  0  0  0
 22 24  1  0  0  0  0
 22 23  2  0  0  0  0
 32 33  1  0  0  0  0
 33 41  1  0  0  0  0
 33 34  2  0  0  0  0
  8  9  1  0  0  0  0
  9 17  1  0  0  0  0
  9 10  2  0  0  0  0
 18 19  1  0  0  0  0
 19 31  1  0  0  0  0
 19 20  2  0  0  0  0
 32 35  1  0  0  0  0
  8 11  1  0  0  0  0
 41 42  1  0  0  0  0
 18 21  1  0  0  0  0
 31 32  1  0  0  0  0
  7  8  1  0  0  0  0
 17 18  1  0  0  0  0
  3  4  1  0  0  0  0
  3  5  1  0  0  0  0
  3  6  1  0  0  0  0
 35 38  1  0  0  0  0
 35 39  1  0  0  0  0
 35 40  1  0  0  0  0
 11 14  1  0  0  0  0
 11 15  1  0  0  0  0
 11 16  1  0  0  0  0
 42 44  1  0  0  0  0
 42 45  1  0  0  0  0
 42 46  1  0  0  0  0
 21 27  1  0  0  0  0
 21 28  1  0  0  0  0
 32 37  1  0  0  0  0
  8 13  1  0  0  0  0
 18 26  1  0  0  0  0
 24 29  1  0  0  0  0
 24 30  1  0  0  0  0
 41 43  1  0  0  0  0
  7 12  1  0  0  0  0
 31 36  1  0  0  0  0
 17 25  1  0  0  0  0
M  END
$$$$

  -OEChem-05262214473D

 46 45  0     1  0  0  0  0  0999 V2000
   -0.0543    1.9736    3.8406 C   0  0  0  0  0  0  0  0  0  0  0  0
    0.6744    1.6099    4.7562 O   0  0  0  0  0  0  0  0  0  0  0  0
   -0.5599    3.3779    3.8160 C   0  0  0  0  0  0  0  0  0  0  0  0
   -1.5202    3.4885    4.3450 H   0  0  0  0  0  0  0  0  0  0  0  0
    0.1282    4.0814    4.3116 H   0  0  0  0  0  0  0  0  0  0  0  0
   -0.7317    3.7994    2.8126 H   0  0  0  0  0  0  0  0  0  0  0  0
   -0.4812    1.1968    2.7762 N   0  0  0  0  0  0  0  0  0  0  0  0
   -0.1106   -0.1834    2.6051 C   0  0  2  0  0  0  0  0  0  0  0  0
   -0.0696   -0.4775    1.1113 C   0  0  0  0  0  0  0  0  0  0  0  0
   -0.6805    0.1900    0.2792 O   0  0  0  0  0  0  0  0  0  0  0  0
   -1.0852   -1.1101    3.3150 C   0  0  0  0  0  0  0  0  0  0  0  0
   -1.0883    1.6241    2.0791 H   0  0  0  0  0  0  0  0  0  0  0  0
    0.8937   -0.2959    3.0277 H   0  0  0  0  0  0  0  0  0  0  0  0
   -2.0970   -1.0114    2.9051 H   0  0  0  0  0  0  0  0  0  0  0  0
   -0.7860   -2.1580    3.2078 H   0  0  0  0  0  0  0  0  0  0  0  0
   -1.1357   -0.8775    4.3842 H   0  0  0  0  0  0  0  0  0  0  0  0
    0.6950   -1.6003    0.8178 N   0  0  0  0  0  0  0  0  0  0  0  0
    0.8777   -2.0908   -0.5246 C   0  0  2  0  0  0  0  0  0  0  0  0
    0.3332   -3.5130   -0.5722 C   0  0  0  0  0  0  0  0  0  0  0  0
   -0.8238   -3.7789   -0.8914 O   0  0  0  0  0  0  0  0  0  0  0  0
    2.3469   -2.0623   -0.9463 C   0  0  0  0  0  0  0  0  0  0  0  0
    2.8826   -0.6561   -1.1505 C   0  0  0  0  0  0  0  0  0  0  0  0
    2.2625    0.2413   -1.7133 O   0  0  0  0  0  0  0  0  0  0  0  0
    4.1477   -0.4976   -0.6256 N   0  0  0  0  0  0  0  0  0  0  0  0
    1.1810   -2.0803    1.5718 H   0  0  0  0  0  0  0  0  0  0  0  0
    0.2674   -1.4541   -1.1756 H   0  0  0  0  0  0  0  0  0  0  0  0
    2.9716   -2.5365   -0.1788 H   0  0  0  0  0  0  0  0  0  0  0  0
    2.4916   -2.6282   -1.8755 H   0  0  0  0  0  0  0  0  0  0  0  0
    4.6216   -1.2674   -0.1650 H   0  0  0  0  0  0  0  0  0  0  0  0
    4.6505    0.3826   -0.6773 H   0  0  0  0  0  0  0  0  0  0  0  0
    1.3035   -4.4566   -0.2651 N   0  0  0  0  0  0  0  0  0  0  0  0
    1.0242   -5.8726   -0.2724 C   0  0  2  0  0  0  0  0  0  0  0  0
    0.5199   -6.2454   -1.6603 C   0  0  0  0  0  0  0  0  0  0  0  0
    0.0199   -5.4309   -2.4334 O   0  0  0  0  0  0  0  0  0  0  0  0
    0.0041   -6.2408    0.7937 C   0  0  0  0  0  0  0  0  0  0  0  0
    2.2451   -4.1539   -0.0339 H   0  0  0  0  0  0  0  0  0  0  0  0
    1.9739   -6.3832   -0.0789 H   0  0  0  0  0  0  0  0  0  0  0  0
   -0.9540   -5.7386    0.6165 H   0  0  0  0  0  0  0  0  0  0  0  0
   -0.1853   -7.3192    0.8059 H   0  0  0  0  0  0  0  0  0  0  0  0
    0.3555   -5.9450    1.7881 H   0  0  0  0  0  0  0  0  0  0  0  0
    0.6545   -7.6026   -1.9173 N   0  0  0  0  0  0  0  0  0  0  0  0
    0.2367   -8.2056   -3.1614 C   0  0  0  0  0  0  0  0  0  0  0  0
    1.0977   -8.2005   -1.2261 H   0  0  0  0  0  0  0  0  0  0  0  0
   -0.7971   -8.5688   -3.0644 H   0  0  0  0  0  0  0  0  0  0  0  0
    0.2886   -7.4581   -3.9667 H   0  0  0  0  0  0  0  0  0  0  0  0
    0.9007   -9.0493   -3.4009 H   0  0  0  0  0  0  0  0  0  0  0  0
  1  3  1  0  0  0  0
  1  7  1  0  0  0  0
  1  2  2  0  0  0  0
 21 22  1  0  0  0  0
 22 24  1  0  0  0  0
 22 23  2  0  0  0  0
 32 33  1  0  0  0  0
 33 41  1  0  0  0  0
 33 34  2  0  0  0  0
  8  9  1  0  0  0  0
  9 17  1  0  0  0  0
  9 10  2  0  0  0  0
 18 19  1  0  0  0  0
 19 31  1  0  0  0  0
 19 20  2  0  0  0  0
 32 35  1  0  0  0  0
  8 11  1  0  0  0  0
 41 42  1  0  0  0  0
 18 21  1  0  0  0  0
 31 32  1  0  0  0  0
  7  8  1  0  0  0  0
 17 18  1  0  0  0  0
  3  4  1  0  0  0  0
  3  5  1  0  0  0  0
  3  6  1  0  0  0  0
 35 38  1  0  0  0  0
 35 39  1  0  0  0  0
 35 40  1  0  0  0  0
 11 14  1  0  0  0  0
 11 15  1  0  0  0  0
 11 16  1  0  0  0  0
 42 44  1  0  0  0  0
 42 45  1  0  0  0  0
 42 46  1  0  0  0  0
 21 27  1  0  0  0  0
 21 28  1  0  0  0  0
 32 37  1  0  0  0  0
  8 13  1  0  0  0  0
 18 26  1  0  0  0  0
 24 29  1  0  0  0  0
 24 30  1  0  0  0  0
 41 43  1  0  0  0  0
  7 12  1  0  0  0  0
 31 36  1  0  0  0  0
 17 25  1  0  0  0  0
M  END
$$$$

  -OEChem-05262214473D

 46 45  0     1  0  0  0  0  0999 V2000
   -0.0543    1.9736    3.8406 C   0  0  0  0  0  0  0  0  0  0  0  0
    0.6744    1.6099    4.7562 O   0  0  0  0  0  0  0  0  0  0  0  0
   -0.5599    3.3779    3.8160 C   0  0  0  0  0  0  0  0  0  0  0  0
   -1.5202    3.4885    4.3450 H   0  0  0  0  0  0  0  0  0  0  0  0
    0.1282    4.0814    4.3116 H   0  0  0  0  0  0  0  0  0  0  0  0
   -0.7317    3.7994    2.8126 H   0  0  0  0  0  0  0  0  0  0  0  0
   -0.4812    1.1968    2.7762 N   0  0  0  0  0  0  0  0  0  0  0  0
   -0.1106   -0.1834    2.6051 C   0  0  2  0  0  0  0  0  0  0  0  0
   -0.0696   -0.4775    1.1113 C   0  0  0  0  0  0  0  0  0  0  0  0
   -0.6805    0.1900    0.2792 O   0  0  0  0  0  0  0  0  0  0  0  0
   -1.0852   -1.1101    3.3150 C   0  0  0  0  0  0  0  0  0  0  0  0
   -1.0883    1.6241    2.0791 H   0  0  0  0  0  0  0  0  0  0  0  0
    0.8937   -0.2959    3.0277 H   0  0  0  0  0  0  0  0  0  0  0  0
   -2.0970   -1.0114    2.9051 H   0  0  0  0  0  0  0  0  0  0  0  0
   -0.7860   -2.1580    3.2078 H   0  0  0  0  0  0  0  0  0  0  0  0
   -1.1357   -0.8775    4.3842 H   0  0  0  0  0  0  0  0  0  0  0  0
    0.6950   -1.6003    0.8178 N   0  0  0  0  0  0  0  0  0  0  0  0
    0.8777   -2.0908   -0.5246 C   0  0  2  0  0  0  0  0  0  0  0  0
    0.3332   -3.5130   -0.5722 C   0  0  0  0  0  0  0  0  0  0  0  0
   -0.7176   -3.8113   -1.1362 O   0  0  0  0  0  0  0  0  0  0  0  0
    2.3469   -2.0623   -0.9463 C   0  0  0  0  0  0  0  0  0  0  0  0
    2.8826   -0.6561   -1.1505 C   0  0  0  0  0  0  0  0  0  0  0  0
    2.2625    0.2413   -1.7133 O   0  0  0  0  0  0  0  0  0  0  0  0
    4.1477   -0.4976   -0.6256 N   0  0  0  0  0  0  0  0  0  0  0  0
    1.1810   -2.0803    1.5718 H   0  0  0  0  0  0  0  0  0  0  0  0
    0.2674   -1.4541   -1.1756 H   0  0  0  0  0  0  0  0  0  0  0  0
    2.9716   -2.5365   -0.1788 H   0  0  0  0  0  0  0  0  0  0  0  0
    2.4916   -2.6282   -1.8755 H   0  0  0  0  0  0  0  0  0  0  0  0
    4.6216   -1.2674   -0.1650 H   0  0  0  0  0  0  0  0  0  0  0  0
    4.6505    0.3826   -0.6773 H   0  0  0  0  0  0  0  0  0  0  0  0
    1.1822   -4.4205    0.0455 N   0  0  0  0  0  0  0  0  0  0  0  0
    0.8855   -5.8319    0.1005 C   0  0  2  0  0  0  0  0  0  0  0  0
    0.7237   -6.3345   -1.3281 C   0  0  0  0  0  0  0  0  0  0  0  0
    0.4408   -5.5975   -2.2704 O   0  0  0  0  0  0  0  0  0  0  0  0
   -0.3686   -6.1022    0.9171 C   0  0  0  0  0  0  0  0  0  0  0  0
    2.0460   -4.0945    0.4690 H   0  0  0  0  0  0  0  0  0  0  0  0
    1.7503   -6.3191    0.5639 H   0  0  0  0  0  0  0  0  0  0  0  0
   -1.2457   -5.6220    0.4682 H   0  0  0  0  0  0  0  0  0  0  0  0
   -0.5764   -7.1754    0.9817 H   0  0  0  0  0  0  0  0  0  0  0  0
   -0.2618   -5.7136    1.9356 H   0  0  0  0  0  0  0  0  0  0  0  0
    0.8898   -7.7093   -1.4196 N   0  0  0  0  0  0  0  0  0  0  0  0
    0.7728   -8.4274   -2.6673 C   0  0  0  0  0  0  0  0  0  0  0  0
    1.1415   -8.2385   -0.5900 H   0  0  0  0  0  0  0  0  0  0  0  0
   -0.2607   -8.7833   -2.7905 H   0  0  0  0  0  0  0  0  0  0  0  0
    1.0320   -7.7583   -3.5010 H   0  0  0  0  0  0  0  0  0  0  0  0
    1.4584   -9.2876   -2.6608 H   0  0  0  0  0  0  0  0  0  0  0  0
  1  3  1  0  0  0  0
  1  7  1  0  0  0  0
  1  2  2  0  0  0  0
 21 22  1  0  0  0  0
 22 24  1  0  0  0  0
 22 23  2  0  0  0  0
 32 33  1  0  0  0  0
 33 41  1  0  0  0  0
 33 34  2  0  0  0  0
  8  9  1  0  0  0  0
  9 17  1  0  0  0  0
  9 10  2  0  0  0  0
 18 19  1  0  0  0  0
 19 31  1  0  0  0  0
 19 20  2  0  0  0  0
 32 35  1  0  0  0  0
  8 11  1  0  0  0  0
 41 42  1  0  0  0  0
 18 21  1  0  0  0  0
 31 32  1  0  0  0  0
  7  8  1  0  0  0  0
 17 18  1  0  0  0  0
  3  4  1  0  0  0  0
  3  5  1  0  0  0  0
  3  6  1  0  0  0  0
 35 38  1  0  0  0  0
 35 39  1  0  0  0  0
 35 40  1  0  0  0  0
 11 14  1  0  0  0  0
 11 15  1  0  0  0  0
 11 16  1  0  0  0  0
 42 44  1  0  0  0  0
 42 45  1  0  0  0  0
 42 46  1  0  0  0  0
 21 27  1  0  0  0  0
 21 28  1  0  0  0  0
 32 37  1  0  0  0  0
  8 13  1  0  0  0  0
 18 26  1  0  0  0  0
 24 29  1  0  0  0  0
 24 30  1  0  0  0  0
 41 43  1  0  0  0  0
  7 12  1  0  0  0  0
 31 36  1  0  0  0  0
 17 25  1  0  0  0  0
M  END
$$$$

  -OEChem-05262214473D

 46 45  0     1  0  0  0  0  0999 V2000
   -0.0543    1.9736    3.8406 C   0  0  0  0  0  0  0  0  0  0  0  0
    0.6744    1.6099    4.7562 O   0  0  0  0  0  0  0  0  0  0  0  0
   -0.5599    3.3779    3.8160 C   0  0  0  0  0  0  0  0  0  0  0  0
   -1.5202    3.4885    4.3450 H   0  0  0  0  0  0  0  0  0  0  0  0
    0.1282    4.0814    4.3116 H   0  0  0  0  0  0  0  0  0  0  0  0
   -0.7317    3.7994    2.8126 H   0  0  0  0  0  0  0  0  0  0  0  0
   -0.4812    1.1968    2.7762 N   0  0  0  0  0  0  0  0  0  0  0  0
   -0.1106   -0.1834    2.6051 C   0  0  2  0  0  0  0  0  0  0  0  0
   -0.0696   -0.4775    1.1113 C   0  0  0  0  0  0  0  0  0  0  0  0
   -0.6805    0.1900    0.2792 O   0  0  0  0  0  0  0  0  0  0  0  0
   -1.0852   -1.1101    3.3150 C   0  0  0  0  0  0  0  0  0  0  0  0
   -1.0883    1.6241    2.0791 H   0  0  0  0  0  0  0  0  0  0  0  0
    0.8937   -0.2959    3.0277 H   0  0  0  0  0  0  0  0  0  0  0  0
   -2.0970   -1.0114    2.9051 H   0  0  0  0  0  0  0  0  0  0  0  0
   -0.7860   -2.1580    3.2078 H   0  0  0  0  0  0  0  0  0  0  0  0
   -1.1357   -0.8775    4.3842 H   0  0  0  0  0  0  0  0  0  0  0  0
    0.6950   -1.6003    0.8178 N   0  0  0  0  0  0  0  0  0  0  0  0
    0.8777   -2.0908   -0.5246 C   0  0  2  0  0  0  0  0  0  0  0  0
    0.3332   -3.5130   -0.5722 C   0  0  0  0  0  0  0  0  0  0  0  0
   -0.5561   -3.8662   -1.3440 O   0  0  0  0  0  0  0  0  0  0  0  0
    2.3469   -2.0623   -0.9463 C   0  0  0  0  0  0  0  0  0  0  0  0
    2.8826   -0.6561   -1.1505 C   0  0  0  0  0  0  0  0  0  0  0  0
    2.2625    0.2413   -1.7133 O   0  0  0  0  0  0  0  0  0  0  0  0
    4.1477   -0.4976   -0.6256 N   0  0  0  0  0  0  0  0  0  0  0  0
    1.1810   -2.0803    1.5718 H   0  0  0  0  0  0  0  0  0  0  0  0
    0.2674   -1.4541   -1.1756 H   0  0  0  0  0  0  0  0  0  0  0  0
    2.9716   -2.5365   -0.1788 H   0  0  0  0  0  0  0  0  0  0  0  0
    2.4916   -2.6282   -1.8755 H   0  0  0  0  0  0  0  0  0  0  0  0
    4.6216   -1.2674   -0.1650 H   0  0  0  0  0  0  0  0  0  0  0  0
    4.6505    0.3826   -0.6773 H   0  0  0  0  0  0  0  0  0  0  0  0
    0.9904   -4.3560    0.3129 N   0  0  0  0  0  0  0  0  0  0  0  0
    0.6617   -5.7571    0.4234 C   0  0  2  0  0  0  0  0  0  0  0  0
    0.8395   -6.3915   -0.9497 C   0  0  0  0  0  0  0  0  0  0  0  0
    0.8067   -5.7468   -1.9958 O   0  0  0  0  0  0  0  0  0  0  0  0
   -0.7574   -5.9540    0.9335 C   0  0  0  0  0  0  0  0  0  0  0  0
    1.7326   -3.9890    0.9012 H   0  0  0  0  0  0  0  0  0  0  0  0
    1.3795   -6.1960    1.1249 H   0  0  0  0  0  0  0  0  0  0  0  0
   -1.4908   -5.5206    0.2436 H   0  0  0  0  0  0  0  0  0  0  0  0
   -0.9954   -7.0171    1.0438 H   0  0  0  0  0  0  0  0  0  0  0  0
   -0.8918   -5.4715    1.9076 H   0  0  0  0  0  0  0  0  0  0  0  0
    0.9961   -7.7683   -0.8722 N   0  0  0  0  0  0  0  0  0  0  0  0
    1.1695   -8.6003   -2.0400 C   0  0  0  0  0  0  0  0  0  0  0  0
    1.0298   -8.2168    0.0386 H   0  0  0  0  0  0  0  0  0  0  0  0
    0.1896   -8.9695   -2.3766 H   0  0  0  0  0  0  0  0  0  0  0  0
    1.6351   -8.0111   -2.8438 H   0  0  0  0  0  0  0  0  0  0  0  0
    1.8165   -9.4538   -1.7891 H   0  0  0  0  0  0  0  0  0  0  0  0
  1  3  1  0  0  0  0
  1  7  1  0  0  0  0
  1  2  2  0  0  0  0
 21 22  1  0  0  0  0
 22 24  1  0  0  0  0
 22 23  2  0  0  0  0
 32 33  1  0  0  0  0
 33 41  1  0  0  0  0
 33 34  2  0  0  0  0
  8  9  1  0  0  0  0
  9 17  1  0  0  0  0
  9 10  2  0  0  0  0
 18 19  1  0  0  0  0
 19 31  1  0  0  0  0
 19 20  2  0  0  0  0
 32 35  1  0  0  0  0
  8 11  1  0  0  0  0
 41 42  1  0  0  0  0
 18 21  1  0  0  0  0
 31 32  1  0  0  0  0
  7  8  1  0  0  0  0
 17 18  1  0  0  0  0
  3  4  1  0  0  0  0
  3  5  1  0  0  0  0
  3  6  1  0  0  0  0
 35 38  1  0  0  0  0
 35 39  1  0  0  0  0
 35 40  1  0  0  0  0
 11 14  1  0  0  0  0
 11 15  1  0  0  0  0
 11 16  1  0  0  0  0
 42 44  1  0  0  0  0
 42 45  1  0  0  0  0
 42 46  1  0  0  0  0
 21 27  1  0  0  0  0
 21 28  1  0  0  0  0
 32 37  1  0  0  0  0
  8 13  1  0  0  0  0
 18 26  1  0  0  0  0
 24 29  1  0  0  0  0
 24 30  1  0  0  0  0
 41 43  1  0  0  0  0
  7 12  1  0  0  0  0
 31 36  1  0  0  0  0
 17 25  1  0  0  0  0
M  END
$$$$

  -OEChem-05262214473D

 46 45  0     1  0  0  0  0  0999 V2000
   -0.0543    1.9736    3.8406 C   0  0  0  0  0  0  0  0  0  0  0  0
    0.6744    1.6099    4.7562 O   0  0  0  0  0  0  0  0  0  0  0  0
   -0.5599    3.3779    3.8160 C   0  0  0  0  0  0  0  0  0  0  0  0
   -1.5202    3.4885    4.3450 H   0  0  0  0  0  0  0  0  0  0  0  0
    0.1282    4.0814    4.3116 H   0  0  0  0  0  0  0  0  0  0  0  0
   -0.7317    3.7994    2.8126 H   0  0  0  0  0  0  0  0  0  0  0  0
   -0.4812    1.1968    2.7762 N   0  0  0  0  0  0  0  0  0  0  0  0
   -0.1106   -0.1834    2.6051 C   0  0  2  0  0  0  0  0  0  0  0  0
   -0.0696   -0.4775    1.1113 C   0  0  0  0  0  0  0  0  0  0  0  0
   -0.6805    0.1900    0.2792 O   0  0  0  0  0  0  0  0  0  0  0  0
   -1.0852   -1.1101    3.3150 C   0  0  0  0  0  0  0  0  0  0  0  0
   -1.0883    1.6241    2.0791 H   0  0  0  0  0  0  0  0  0  0  0  0
    0.8937   -0.2959    3.0277 H   0  0  0  0  0  0  0  0  0  0  0  0
   -2.0970   -1.0114    2.9051 H   0  0  0  0  0  0  0  0  0  0  0  0
   -0.7860   -2.1580    3.2078 H   0  0  0  0  0  0  0  0  0  0  0  0
   -1.1357   -0.8775    4.3842 H   0  0  0  0  0  0  0  0  0  0  0  0
    0.6950   -1.6003    0.8178 N   0  0  0  0  0  0  0  0  0  0  0  0
    0.8777   -2.0908   -0.5246 C   0  0  2  0  0  0  0  0  0  0  0  0
    0.3332   -3.5130   -0.5722 C   0  0  0  0  0  0  0  0  0  0  0  0
   -0.3504   -3.9397   -1.5006 O   0  0  0  0  0  0  0  0  0  0  0  0
    2.3469   -2.0623   -0.9463 C   0  0  0  0  0  0  0  0  0  0  0  0
    2.8826   -0.6561   -1.1505 C   0  0  0  0  0  0  0  0  0  0  0  0
    2.2625    0.2413   -1.7133 O   0  0  0  0  0  0  0  0  0  0  0  0
    4.1477   -0.4976   -0.6256 N   0  0  0  0  0  0  0  0  0  0  0  0
    1.1810   -2.0803    1.5718 H   0  0  0  0  0  0  0  0  0  0  0  0
    0.2674   -1.4541   -1.1756 H   0  0  0  0  0  0  0  0  0  0  0  0
    2.9716   -2.5365   -0.1788 H   0  0  0  0  0  0  0  0  0  0  0  0
    2.4916   -2.6282   -1.8755 H   0  0  0  0  0  0  0  0  0  0  0  0
    4.6216   -1.2674   -0.1650 H   0  0  0  0  0  0  0  0  0  0  0  0
    4.6505    0.3826   -0.6773 H   0  0  0  0  0  0  0  0  0  0  0  0
    0.7409   -4.2674    0.5190 N   0  0  0  0  0  0  0  0  0  0  0  0
    0.3681   -5.6531    0.6743 C   0  0  2  0  0  0  0  0  0  0  0  0
    0.8595   -6.4125   -0.5510 C   0  0  0  0  0  0  0  0  0  0  0  0
    1.0926   -5.8685   -1.6284 O   0  0  0  0  0  0  0  0  0  0  0  0
   -1.1356   -5.8061    0.8416 C   0  0  0  0  0  0  0  0  0  0  0  0
    1.3264   -3.8446    1.2332 H   0  0  0  0  0  0  0  0  0  0  0  0
    0.8869   -6.0221    1.5657 H   0  0  0  0  0  0  0  0  0  0  0  0
   -1.6724   -5.4416   -0.0418 H   0  0  0  0  0  0  0  0  0  0  0  0
   -1.4139   -6.8550    0.9879 H   0  0  0  0  0  0  0  0  0  0  0  0
   -1.4917   -5.2351    1.7059 H   0  0  0  0  0  0  0  0  0  0  0  0
    0.9659   -7.7755   -0.3122 N   0  0  0  0  0  0  0  0  0  0  0  0
    1.3998   -8.7124   -1.3222 C   0  0  0  0  0  0  0  0  0  0  0  0
    0.7703   -8.1368    0.6167 H   0  0  0  0  0  0  0  0  0  0  0  0
    0.5229   -9.1148   -1.8507 H   0  0  0  0  0  0  0  0  0  0  0  0
    2.0568   -8.1995   -2.0399 H   0  0  0  0  0  0  0  0  0  0  0  0
    1.9503   -9.5367   -0.8452 H   0  0  0  0  0  0  0  0  0  0  0  0
  1  3  1  0  0  0  0
  1  7  1  0  0  0  0
  1  2  2  0  0  0  0
 21 22  1  0  0  0  0
 22 24  1  0  0  0  0
 22 23  2  0  0  0  0
 32 33  1  0  0  0  0
 33 41  1  0  0  0  0
 33 34  2  0  0  0  0
  8  9  1  0  0  0  0
  9 17  1  0  0  0  0
  9 10  2  0  0  0  0
 18 19  1  0  0  0  0
 19 31  1  0  0  0  0
 19 20  2  0  0  0  0
 32 35  1  0  0  0  0
  8 11  1  0  0  0  0
 41 42  1  0  0  0  0
 18 21  1  0  0  0  0
 31 32  1  0  0  0  0
  7  8  1  0  0  0  0
 17 18  1  0  0  0  0
  3  4  1  0  0  0  0
  3  5  1  0  0  0  0
  3  6  1  0  0  0  0
 35 38  1  0  0  0  0
 35 39  1  0  0  0  0
 35 40  1  0  0  0  0
 11 14  1  0  0  0  0
 11 15  1  0  0  0  0
 11 16  1  0  0  0  0
 42 44  1  0  0  0  0
 42 45  1  0  0  0  0
 42 46  1  0  0  0  0
 21 27  1  0  0  0  0
 21 28  1  0  0  0  0
 32 37  1  0  0  0  0
  8 13  1  0  0  0  0
 18 26  1  0  0  0  0
 24 29  1  0  0  0  0
 24 30  1  0  0  0  0
 41 43  1  0  0  0  0
  7 12  1  0  0  0  0
 31 36  1  0  0  0  0
 17 25  1  0  0  0  0
M  END
$$$$

  -OEChem-05262214473D

 46 45  0     1  0  0  0  0  0999 V2000
   -0.0543    1.9736    3.8406 C   0  0  0  0  0  0  0  0  0  0  0  0
    0.6744    1.6099    4.7562 O   0  0  0  0  0  0  0  0  0  0  0  0
   -0.5599    3.3779    3.8160 C   0  0  0  0  0  0  0  0  0  0  0  0
   -1.5202    3.4885    4.3450 H   0  0  0  0  0  0  0  0  0  0  0  0
    0.1282    4.0814    4.3116 H   0  0  0  0  0  0  0  0  0  0  0  0
   -0.7317    3.7994    2.8126 H   0  0  0  0  0  0  0  0  0  0  0  0
   -0.4812    1.1968    2.7762 N   0  0  0  0  0  0  0  0  0  0  0  0
   -0.1106   -0.1834    2.6051 C   0  0  2  0  0  0  0  0  0  0  0  0
   -0.0696   -0.4775    1.1113 C   0  0  0  0  0  0  0  0  0  0  0  0
   -0.6805    0.1900    0.2792 O   0  0  0  0  0  0  0  0  0  0  0  0
   -1.0852   -1.1101    3.3150 C   0  0  0  0  0  0  0  0  0  0  0  0
   -1.0883    1.6241    2.0791 H   0  0  0  0  0  0  0  0  0  0  0  0
    0.8937   -0.2959    3.0277 H   0  0  0  0  0  0  0  0  0  0  0  0
   -2.0970   -1.0114    2.9051 H   0  0  0  0  0  0  0  0  0  0  0  0
   -0.7860   -2.1580    3.2078 H   0  0  0  0  0  0  0  0  0  0  0  0
   -1.1357   -0.8775    4.3842 H   0  0  0  0  0  0  0  0  0  0  0  0
    0.6950   -1.6003    0.8178 N   0  0  0  0  0  0  0  0  0  0  0  0
    0.8777   -2.0908   -0.5246 C   0  0  2  0  0  0  0  0  0  0  0  0
    0.3332   -3.5130   -0.5722 C   0  0  0  0  0  0  0  0  0  0  0  0
   -0.1144   -4.0269   -1.5954 O   0  0  0  0  0  0  0  0  0  0  0  0
    2.3469   -2.0623   -0.9463 C   0  0  0  0  0  0  0  0  0  0  0  0
    2.8826   -0.6561   -1.1505 C   0  0  0  0  0  0  0  0  0  0  0  0
    2.2625    0.2413   -1.7133 O   0  0  0  0  0  0  0  0  0  0  0  0
    4.1477   -0.4976   -0.6256 N   0  0  0  0  0  0  0  0  0  0  0  0
    1.1810   -2.0803    1.5718 H   0  0  0  0  0  0  0  0  0  0  0  0
    0.2674   -1.4541   -1.1756 H   0  0  0  0  0  0  0  0  0  0  0  0
    2.9716   -2.5365   -0.1788 H   0  0  0  0  0  0  0  0  0  0  0  0
    2.4916   -2.6282   -1.8755 H   0  0  0  0  0  0  0  0  0  0  0  0
    4.6216   -1.2674   -0.1650 H   0  0  0  0  0  0  0  0  0  0  0  0
    4.6505    0.3826   -0.6773 H   0  0  0  0  0  0  0  0  0  0  0  0
    0.4509   -4.1608    0.6495 N   0  0  0  0  0  0  0  0  0  0  0  0
    0.0248   -5.5271    0.8361 C   0  0  2  0  0  0  0  0  0  0  0  0
    0.7824   -6.3961   -0.1591 C   0  0  0  0  0  0  0  0  0  0  0  0
    1.2790   -5.9545   -1.1932 O   0  0  0  0  0  0  0  0  0  0  0  0
   -1.4776   -5.6687    0.6479 C   0  0  0  0  0  0  0  0  0  0  0  0
    0.8549   -3.6711    1.4424 H   0  0  0  0  0  0  0  0  0  0  0  0
    0.3059   -5.8095    1.8565 H   0  0  0  0  0  0  0  0  0  0  0  0
   -1.7782   -5.3901   -0.3687 H   0  0  0  0  0  0  0  0  0  0  0  0
   -1.8033   -6.7003    0.8178 H   0  0  0  0  0  0  0  0  0  0  0  0
   -2.0205   -5.0206    1.3443 H   0  0  0  0  0  0  0  0  0  0  0  0
    0.8015   -7.7305    0.2220 N   0  0  0  0  0  0  0  0  0  0  0  0
    1.4478   -8.7562   -0.5629 C   0  0  0  0  0  0  0  0  0  0  0  0
    0.3806   -8.0040    1.1050 H   0  0  0  0  0  0  0  0  0  0  0  0
    0.7167   -9.2091   -1.2487 H   0  0  0  0  0  0  0  0  0  0  0  0
    2.2685   -8.3105   -1.1441 H   0  0  0  0  0  0  0  0  0  0  0  0
    1.8510   -9.5305    0.1065 H   0  0  0  0  0  0  0  0  0  0  0  0
  1  3  1  0  0  0  0
  1  7  1  0  0  0  0
  1  2  2  0  0  0  0
 21 22  1  0  0  0  0
 22 24  1  0  0  0  0
 22 23  2  0  0  0  0
 32 33  1  0  0  0  0
 33 41  1  0  0  0  0
 33 34  2  0  0  0  0
  8  9  1  0  0  0  0
  9 17  1  0  0  0  0
  9 10  2  0  0  0  0
 18 19  1  0  0  0  0
 19 31  1  0  0  0  0
 19 20  2  0  0  0  0
 32 35  1  0  0  0  0
  8 11  1  0  0  0  0
 41 42  1  0  0  0  0
 18 21  1  0  0  0  0
 31 32  1  0  0  0  0
  7  8  1  0  0  0  0
 17 18  1  0  0  0  0
  3  4  1  0  0  0  0
  3  5  1  0  0  0  0
  3  6  1  0  0  0  0
 35 38  1  0  0  0  0
 35 39  1  0  0  0  0
 35 40  1  0  0  0  0
 11 14  1  0  0  0  0
 11 15  1  0  0  0  0
 11 16  1  0  0  0  0
 42 44  1  0  0  0  0
 42 45  1  0  0  0  0
 42 46  1  0  0  0  0
 21 27  1  0  0  0  0
 21 28  1  0  0  0  0
 32 37  1  0  0  0  0
  8 13  1  0  0  0  0
 18 26  1  0  0  0  0
 24 29  1  0  0  0  0
 24 30  1  0  0  0  0
 41 43  1  0  0  0  0
  7 12  1  0  0  0  0
 31 36  1  0  0  0  0
 17 25  1  0  0  0  0
M  END
$$$$

  -OEChem-05262214473D

 46 45  0     1  0  0  0  0  0999 V2000
   -0.0543    1.9736    3.8406 C   0  0  0  0  0  0  0  0  0  0  0  0
    0.6744    1.6099    4.7562 O   0  0  0  0  0  0  0  0  0  0  0  0
   -0.5599    3.3779    3.8160 C   0  0  0  0  0  0  0  0  0  0  0  0
   -1.5202    3.4885    4.3450 H   0  0  0  0  0  0  0  0  0  0  0  0
    0.1282    4.0814    4.3116 H   0  0  0  0  0  0  0  0  0  0  0  0
   -0.7317    3.7994    2.8126 H   0  0  0  0  0  0  0  0  0  0  0  0
   -0.4812    1.1968    2.7762 N   0  0  0  0  0  0  0  0  0  0  0  0
   -0.1106   -0.1834    2.6051 C   0  0  2  0  0  0  0  0  0  0  0  0
   -0.0696   -0.4775    1.1113 C   0  0  0  0  0  0  0  0  0  0  0  0
   -0.6805    0.1900    0.2792 O   0  0  0  0  0  0  0  0  0  0  0  0
   -1.0852   -1.1101    3.3150 C   0  0  0  0  0  0  0  0  0  0  0  0
   -1.0883    1.6241    2.0791 H   0  0  0  0  0  0  0  0  0  0  0  0
    0.8937   -0.2959    3.0277 H   0  0  0  0  0  0  0  0  0  0  0  0
   -2.0970   -1.0114    2.9051 H   0  0  0  0  0  0  0  0  0  0  0  0
   -0.7860   -2.1580    3.2078 H   0  0  0  0  0  0  0  0  0  0  0  0
   -1.1357   -0.8775    4.3842 H   0  0  0  0  0  0  0  0  0  0  0  0
    0.6950   -1.6003    0.8178 N   0  0  0  0  0  0  0  0  0  0  0  0
    0.8777   -2.0908   -0.5246 C   0  0  2  0  0  0  0  0  0  0  0  0
    0.3332   -3.5130   -0.5722 C   0  0  0  0  0  0  0  0  0  0  0  0
    0.1357   -4.1217   -1.6219 O   0  0  0  0  0  0  0  0  0  0  0  0
    2.3469   -2.0623   -0.9463 C   0  0  0  0  0  0  0  0  0  0  0  0
    2.8826   -0.6561   -1.1505 C   0  0  0  0  0  0  0  0  0  0  0  0
    2.2625    0.2413   -1.7133 O   0  0  0  0  0  0  0  0  0  0  0  0
    4.1477   -0.4976   -0.6256 N   0  0  0  0  0  0  0  0  0  0  0  0
    1.1810   -2.0803    1.5718 H   0  0  0  0  0  0  0  0  0  0  0  0
    0.2674   -1.4541   -1.1756 H   0  0  0  0  0  0  0  0  0  0  0  0
    2.9716   -2.5365   -0.1788 H   0  0  0  0  0  0  0  0  0  0  0  0
    2.4916   -2.6282   -1.8755 H   0  0  0  0  0  0  0  0  0  0  0  0
    4.6216   -1.2674   -0.1650 H   0  0  0  0  0  0  0  0  0  0  0  0
    4.6505    0.3826   -0.6773 H   0  0  0  0  0  0  0  0  0  0  0  0
    0.1401   -4.0434    0.6956 N   0  0  0  0  0  0  0  0  0  0  0  0
   -0.3449   -5.3876    0.8978 C   0  0  2  0  0  0  0  0  0  0  0  0
    0.6133   -6.3434    0.1993 C   0  0  0  0  0  0  0  0  0  0  0  0
    1.3532   -5.9987   -0.7199 O   0  0  0  0  0  0  0  0  0  0  0  0
   -1.7600   -5.5511    0.3654 C   0  0  0  0  0  0  0  0  0  0  0  0
    0.3504   -3.4804    1.5145 H   0  0  0  0  0  0  0  0  0  0  0  0
   -0.3238   -5.5725    1.9773 H   0  0  0  0  0  0  0  0  0  0  0  0
   -1.8011   -5.3698   -0.7149 H   0  0  0  0  0  0  0  0  0  0  0  0
   -2.1370   -6.5634    0.5451 H   0  0  0  0  0  0  0  0  0  0  0  0
   -2.4421   -4.8426    0.8475 H   0  0  0  0  0  0  0  0  0  0  0  0
    0.5140   -7.6362    0.6941 N   0  0  0  0  0  0  0  0  0  0  0  0
    1.3105   -8.7287    0.1862 C   0  0  0  0  0  0  0  0  0  0  0  0
   -0.1127   -7.8274    1.4703 H   0  0  0  0  0  0  0  0  0  0  0  0
    0.7577   -9.2461   -0.6118 H   0  0  0  0  0  0  0  0  0  0  0  0
    2.2556   -8.3366   -0.2175 H   0  0  0  0  0  0  0  0  0  0  0  0
    1.5251   -9.4357    1.0012 H   0  0  0  0  0  0  0  0  0  0  0  0
  1  3  1  0  0  0  0
  1  7  1  0  0  0  0
  1  2  2  0  0  0  0
 21 22  1  0  0  0  0
 22 24  1  0  0  0  0
 22 23  2  0  0  0  0
 32 33  1  0  0  0  0
 33 41  1  0  0  0  0
 33 34  2  0  0  0  0
  8  9  1  0  0  0  0
  9 17  1  0  0  0  0
  9 10  2  0  0  0  0
 18 19  1  0  0  0  0
 19 31  1  0  0  0  0
 19 20  2  0  0  0  0
 32 35  1  0  0  0  0
  8 11  1  0  0  0  0
 41 42  1  0  0  0  0
 18 21  1  0  0  0  0
 31 32  1  0  0  0  0
  7  8  1  0  0  0  0
 17 18  1  0  0  0  0
  3  4  1  0  0  0  0
  3  5  1  0  0  0  0
  3  6  1  0  0  0  0
 35 38  1  0  0  0  0
 35 39  1  0  0  0  0
 35 40  1  0  0  0  0
 11 14  1  0  0  0  0
 11 15  1  0  0  0  0
 11 16  1  0  0  0  0
 42 44  1  0  0  0  0
 42 45  1  0  0  0  0
 42 46  1  0  0  0  0
 21 27  1  0  0  0  0
 21 28  1  0  0  0  0
 32 37  1  0  0  0  0
  8 13  1  0  0  0  0
 18 26  1  0  0  0  0
 24 29  1  0  0  0  0
 24 30  1  0  0  0  0
 41 43  1  0  0  0  0
  7 12  1  0  0  0  0
 31 36  1  0  0  0  0
 17 25  1  0  0  0  0
M  END
$$$$

  -OEChem-05262214473D

 46 45  0     1  0  0  0  0  0999 V2000
   -0.0543    1.9736    3.8406 C   0  0  0  0  0  0  0  0  0  0  0  0
    0.6744    1.6099    4.7562 O   0  0  0  0  0  0  0  0  0  0  0  0
   -0.5599    3.3779    3.8160 C   0  0  0  0  0  0  0  0  0  0  0  0
   -1.5202    3.4885    4.3450 H   0  0  0  0  0  0  0  0  0  0  0  0
    0.1282    4.0814    4.3116 H   0  0  0  0  0  0  0  0  0  0  0  0
   -0.7317    3.7994    2.8126 H   0  0  0  0  0  0  0  0  0  0  0  0
   -0.4812    1.1968    2.7762 N   0  0  0  0  0  0  0  0  0  0  0  0
   -0.1106   -0.1834    2.6051 C   0  0  2  0  0  0  0  0  0  0  0  0
   -0.0696   -0.4775    1.1113 C   0  0  0  0  0  0  0  0  0  0  0  0
   -0.6805    0.1900    0.2792 O   0  0  0  0  0  0  0  0  0  0  0  0
   -1.0852   -1.1101    3.3150 C   0  0  0  0  0  0  0  0  0  0  0  0
   -1.0883    1.6241    2.0791 H   0  0  0  0  0  0  0  0  0  0  0  0
    0.8937   -0.2959    3.0277 H   0  0  0  0  0  0  0  0  0  0  0  0
   -2.0970   -1.0114    2.9051 H   0  0  0  0  0  0  0  0  0  0  0  0
   -0.7860   -2.1580    3.2078 H   0  0  0  0  0  0  0  0  0  0  0  0
   -1.1357   -0.8775    4.3842 H   0  0  0  0  0  0  0  0  0  0  0  0
    0.6950   -1.6003    0.8178 N   0  0  0  0  0  0  0  0  0  0  0  0
    0.8777   -2.0908   -0.5246 C   0  0  2  0  0  0  0  0  0  0  0  0
    0.3332   -3.5130   -0.5722 C   0  0  0  0  0  0  0  0  0  0  0  0
    0.3829   -4.2178   -1.5782 O   0  0  0  0  0  0  0  0  0  0  0  0
    2.3469   -2.0623   -0.9463 C   0  0  0  0  0  0  0  0  0  0  0  0
    2.8826   -0.6561   -1.1505 C   0  0  0  0  0  0  0  0  0  0  0  0
    2.2625    0.2413   -1.7133 O   0  0  0  0  0  0  0  0  0  0  0  0
    4.1477   -0.4976   -0.6256 N   0  0  0  0  0  0  0  0  0  0  0  0
    1.1810   -2.0803    1.5718 H   0  0  0  0  0  0  0  0  0  0  0  0
    0.2674   -1.4541   -1.1756 H   0  0  0  0  0  0  0  0  0  0  0  0
    2.9716   -2.5365   -0.1788 H   0  0  0  0  0  0  0  0  0  0  0  0
    2.4916   -2.6282   -1.8755 H   0  0  0  0  0  0  0  0  0  0  0  0
    4.6216   -1.2674   -0.1650 H   0  0  0  0  0  0  0  0  0  0  0  0
    4.6505    0.3826   -0.6773 H   0  0  0  0  0  0  0  0  0  0  0  0
   -0.1703   -3.9232    0.6543 N   0  0  0  0  0  0  0  0  0  0  0  0
   -0.7158   -5.2442    0.8551 C   0  0  2  0  0  0  0  0  0  0  0  0
    0.3638   -6.2579    0.4998 C   0  0  0  0  0  0  0  0  0  0  0  0
    1.3102   -5.9983   -0.2406 O   0  0  0  0  0  0  0  0  0  0  0  0
   -1.9636   -5.4614    0.0134 C   0  0  0  0  0  0  0  0  0  0  0  0
   -0.1529   -3.2854    1.4447 H   0  0  0  0  0  0  0  0  0  0  0  0
   -0.9593   -5.3273    1.9200 H   0  0  0  0  0  0  0  0  0  0  0  0
   -1.7393   -5.3820   -1.0566 H   0  0  0  0  0  0  0  0  0  0  0  0
   -2.3925   -6.4536    0.1884 H   0  0  0  0  0  0  0  0  0  0  0  0
   -2.7279   -4.7131    0.2492 H   0  0  0  0  0  0  0  0  0  0  0  0
    0.1230   -7.4992    1.0720 N   0  0  0  0  0  0  0  0  0  0  0  0
    0.9970   -8.6318    0.8740 C   0  0  0  0  0  0  0  0  0  0  0  0
   -0.6761   -7.6190    1.6876 H   0  0  0  0  0  0  0  0  0  0  0  0
    0.6431   -9.2233    0.0168 H   0  0  0  0  0  0  0  0  0  0  0  0
    2.0191   -8.2760    0.6770 H   0  0  0  0  0  0  0  0  0  0  0  0
    0.9950   -9.2587    1.7779 H   0  0  0  0  0  0  0  0  0  0  0  0
  1  3  1  0  0  0  0
  1  7  1  0  0  0  0
  1  2  2  0  0  0  0
 21 22  1  0  0  0  0
 22 24  1  0  0  0  0
 22 23  2  0  0  0  0
 32 33  1  0  0  0  0
 33 41  1  0  0  0  0
 33 34  2  0  0  0  0
  8  9  1  0  0  0  0
  9 17  1  0  0  0  0
  9 10  2  0  0  0  0
 18 19  1  0  0  0  0
 19 31  1  0  0  0  0
 19 20  2  0  0  0  0
 32 35  1  0  0  0  0
  8 11  1  0  0  0  0
 41 42  1  0  0  0  0
 18 21  1  0  0  0  0
 31 32  1  0  0  0  0
  7  8  1  0  0  0  0
 17 18  1  0  0  0  0
  3  4  1  0  0  0  0
  3  5  1  0  0  0  0
  3  6  1  0  0  0  0
 35 38  1  0  0  0  0
 35 39  1  0  0  0  0
 35 40  1  0  0  0  0
 11 14  1  0  0  0  0
 11 15  1  0  0  0  0
 11 16  1  0  0  0  0
 42 44  1  0  0  0  0
 42 45  1  0  0  0  0
 42 46  1  0  0  0  0
 21 27  1  0  0  0  0
 21 28  1  0  0  0  0
 32 37  1  0  0  0  0
  8 13  1  0  0  0  0
 18 26  1  0  0  0  0
 24 29  1  0  0  0  0
 24 30  1  0  0  0  0
 41 43  1  0  0  0  0
  7 12  1  0  0  0  0
 31 36  1  0  0  0  0
 17 25  1  0  0  0  0
M  END
$$$$

  -OEChem-05262214473D

 46 45  0     1  0  0  0  0  0999 V2000
   -0.0543    1.9736    3.8406 C   0  0  0  0  0  0  0  0  0  0  0  0
    0.6744    1.6099    4.7562 O   0  0  0  0  0  0  0  0  0  0  0  0
   -0.5599    3.3779    3.8160 C   0  0  0  0  0  0  0  0  0  0  0  0
   -1.5202    3.4885    4.3450 H   0  0  0  0  0  0  0  0  0  0  0  0
    0.1282    4.0814    4.3116 H   0  0  0  0  0  0  0  0  0  0  0  0
   -0.7317    3.7994    2.8126 H   0  0  0  0  0  0  0  0  0  0  0  0
   -0.4812    1.1968    2.7762 N   0  0  0  0  0  0  0  0  0  0  0  0
   -0.1106   -0.1834    2.6051 C   0  0  2  0  0  0  0  0  0  0  0  0
   -0.0696   -0.4775    1.1113 C   0  0  0  0  0  0  0  0  0  0  0  0
   -0.6805    0.1900    0.2792 O   0  0  0  0  0  0  0  0  0  0  0  0
   -1.0852   -1.1101    3.3150 C   0  0  0  0  0  0  0  0  0  0  0  0
   -1.0883    1.6241    2.0791 H   0  0  0  0  0  0  0  0  0  0  0  0
    0.8937   -0.2959    3.0277 H   0  0  0  0  0  0  0  0  0  0  0  0
   -2.0970   -1.0114    2.9051 H   0  0  0  0  0  0  0  0  0  0  0  0
   -0.7860   -2.1580    3.2078 H   0  0  0  0  0  0  0  0  0  0  0  0
   -1.1357   -0.8775    4.3842 H   0  0  0  0  0  0  0  0  0  0  0  0
    0.6950   -1.6003    0.8178 N   0  0  0  0  0  0  0  0  0  0  0  0
    0.8777   -2.0908   -0.5246 C   0  0  2  0  0  0  0  0  0  0  0  0
    0.3332   -3.5130   -0.5722 C   0  0  0  0  0  0  0  0  0  0  0  0
    0.6104   -4.3086   -1.4675 O   0  0  0  0  0  0  0  0  0  0  0  0
    2.3469   -2.0623   -0.9463 C   0  0  0  0  0  0  0  0  0  0  0  0
    2.8826   -0.6561   -1.1505 C   0  0  0  0  0  0  0  0  0  0  0  0
    2.2625    0.2413   -1.7133 O   0  0  0  0  0  0  0  0  0  0  0  0
    4.1477   -0.4976   -0.6256 N   0  0  0  0  0  0  0  0  0  0  0  0
    1.1810   -2.0803    1.5718 H   0  0  0  0  0  0  0  0  0  0  0  0
    0.2674   -1.4541   -1.1756 H   0  0  0  0  0  0  0  0  0  0  0  0
    2.9716   -2.5365   -0.1788 H   0  0  0  0  0  0  0  0  0  0  0  0
    2.4916   -2.6282   -1.8755 H   0  0  0  0  0  0  0  0  0  0  0  0
    4.6216   -1.2674   -0.1650 H   0  0  0  0  0  0  0  0  0  0  0  0
    4.6505    0.3826   -0.6773 H   0  0  0  0  0  0  0  0  0  0  0  0
   -0.4591   -3.8084    0.5282 N   0  0  0  0  0  0  0  0  0  0  0  0
   -1.0626   -5.1066    0.7111 C   0  0  2  0  0  0  0  0  0  0  0  0
    0.0510   -6.1456    0.7218 C   0  0  0  0  0  0  0  0  0  0  0  0
    1.1528   -5.9532    0.2119 O   0  0  0  0  0  0  0  0  0  0  0  0
   -2.0745   -5.4057   -0.3840 C   0  0  0  0  0  0  0  0  0  0  0  0
   -0.6205   -3.0995    1.2376 H   0  0  0  0  0  0  0  0  0  0  0  0
   -1.5573   -5.0906    1.6884 H   0  0  0  0  0  0  0  0  0  0  0  0
   -1.5972   -5.4258   -1.3706 H   0  0  0  0  0  0  0  0  0  0  0  0
   -2.5521   -6.3786   -0.2280 H   0  0  0  0  0  0  0  0  0  0  0  0
   -2.8584   -4.6411   -0.4097 H   0  0  0  0  0  0  0  0  0  0  0  0
   -0.3449   -7.3287    1.3298 N   0  0  0  0  0  0  0  0  0  0  0  0
    0.5289   -8.4720    1.4538 C   0  0  0  0  0  0  0  0  0  0  0  0
   -1.2710   -7.3931    1.7421 H   0  0  0  0  0  0  0  0  0  0  0  0
    0.3808   -9.1422    0.5942 H   0  0  0  0  0  0  0  0  0  0  0  0
    1.5750   -8.1328    1.4781 H   0  0  0  0  0  0  0  0  0  0  0  0
    0.2967   -9.0117    2.3837 H   0  0  0  0  0  0  0  0  0  0  0  0
  1  3  1  0  0  0  0
  1  7  1  0  0  0  0
  1  2  2  0  0  0  0
 21 22  1  0  0  0  0
 22 24  1  0  0  0  0
 22 23  2  0  0  0  0
 32 33  1  0  0  0  0
 33 41  1  0  0  0  0
 33 34  2  0  0  0  0
  8  9  1  0  0  0  0
  9 17  1  0  0  0  0
  9 10  2  0  0  0  0
 18 19  1  0  0  0  0
 19 31  1  0  0  0  0
 19 20  2  0  0  0  0
 32 35  1  0  0  0  0
  8 11  1  0  0  0  0
 41 42  1  0  0  0  0
 18 21  1  0  0  0  0
 31 32  1  0  0  0  0
  7  8  1  0  0  0  0
 17 18  1  0  0  0  0
  3  4  1  0  0  0  0
  3  5  1  0  0  0  0
  3  6  1  0  0  0  0
 35 38  1  0  0  0  0
 35 39  1  0  0  0  0
 35 40  1  0  0  0  0
 11 14  1  0  0  0  0
 11 15  1  0  0  0  0
 11 16  1  0  0  0  0
 42 44  1  0  0  0  0
 42 45  1  0  0  0  0
 42 46  1  0  0  0  0
 21 27  1  0  0  0  0
 21 28  1  0  0  0  0
 32 37  1  0  0  0  0
  8 13  1  0  0  0  0
 18 26  1  0  0  0  0
 24 29  1  0  0  0  0
 24 30  1  0  0  0  0
 41 43  1  0  0  0  0
  7 12  1  0  0  0  0
 31 36  1  0  0  0  0
 17 25  1  0  0  0  0
M  END
$$$$

  -OEChem-05262214473D

 46 45  0     1  0  0  0  0  0999 V2000
   -0.0543    1.9736    3.8406 C   0  0  0  0  0  0  0  0  0  0  0  0
    0.6744    1.6099    4.7562 O   0  0  0  0  0  0  0  0  0  0  0  0
   -0.5599    3.3779    3.8160 C   0  0  0  0  0  0  0  0  0  0  0  0
   -1.5202    3.4885    4.3450 H   0  0  0  0  0  0  0  0  0  0  0  0
    0.1282    4.0814    4.3116 H   0  0  0  0  0  0  0  0  0  0  0  0
   -0.7317    3.7994    2.8126 H   0  0  0  0  0  0  0  0  0  0  0  0
   -0.4812    1.1968    2.7762 N   0  0  0  0  0  0  0  0  0  0  0  0
   -0.1106   -0.1834    2.6051 C   0  0  2  0  0  0  0  0  0  0  0  0
   -0.0696   -0.4775    1.1113 C   0  0  0  0  0  0  0  0  0  0  0  0
   -0.6805    0.1900    0.2792 O   0  0  0  0  0  0  0  0  0  0  0  0
   -1.0852   -1.1101    3.3150 C   0  0  0  0  0  0  0  0  0  0  0  0
   -1.0883    1.6241    2.0791 H   0  0  0  0  0  0  0  0  0  0  0  0
    0.8937   -0.2959    3.0277 H   0  0  0  0  0  0  0  0  0  0  0  0
   -2.0970   -1.0114    2.9051 H   0  0  0  0  0  0  0  0  0  0  0  0
   -0.7860   -2.1580    3.2078 H   0  0  0  0  0  0  0  0  0  0  0  0
   -1.1357   -0.8775    4.3842 H   0  0  0  0  0  0  0  0  0  0  0  0
    0.6950   -1.6003    0.8178 N   0  0  0  0  0  0  0  0  0  0  0  0
    0.8777   -2.0908   -0.5246 C   0  0  2  0  0  0  0  0  0  0  0  0
    0.3332   -3.5130   -0.5722 C   0  0  0  0  0  0  0  0  0  0  0  0
    0.8027   -4.3879   -1.2972 O   0  0  0  0  0  0  0  0  0  0  0  0
    2.3469   -2.0623   -0.9463 C   0  0  0  0  0  0  0  0  0  0  0  0
    2.8826   -0.6561   -1.1505 C   0  0  0  0  0  0  0  0  0  0  0  0
    2.2625    0.2413   -1.7133 O   0  0  0  0  0  0  0  0  0  0  0  0
    4.1477   -0.4976   -0.6256 N   0  0  0  0  0  0  0  0  0  0  0  0
    1.1810   -2.0803    1.5718 H   0  0  0  0  0  0  0  0  0  0  0  0
    0.2674   -1.4541   -1.1756 H   0  0  0  0  0  0  0  0  0  0  0  0
    2.9716   -2.5365   -0.1788 H   0  0  0  0  0  0  0  0  0  0  0  0
    2.4916   -2.6282   -1.8755 H   0  0  0  0  0  0  0  0  0  0  0  0
    4.6216   -1.2674   -0.1650 H   0  0  0  0  0  0  0  0  0  0  0  0
    4.6505    0.3826   -0.6773 H   0  0  0  0  0  0  0  0  0  0  0  0
   -0.7067   -3.7068    0.3261 N   0  0  0  0  0  0  0  0  0  0  0  0
   -1.3616   -4.9843    0.4755 C   0  0  2  0  0  0  0  0  0  0  0  0
   -0.3040   -6.0140    0.8503 C   0  0  0  0  0  0  0  0  0  0  0  0
    0.8918   -5.8665    0.6067 O   0  0  0  0  0  0  0  0  0  0  0  0
   -2.0851   -5.3877   -0.7999 C   0  0  0  0  0  0  0  0  0  0  0  0
   -1.0206   -2.9352    0.9073 H   0  0  0  0  0  0  0  0  0  0  0  0
   -2.0771   -4.8786    1.2983 H   0  0  0  0  0  0  0  0  0  0  0  0
   -1.3845   -5.4984   -1.6355 H   0  0  0  0  0  0  0  0  0  0  0  0
   -2.6051   -6.3433   -0.6757 H   0  0  0  0  0  0  0  0  0  0  0  0
   -2.8247   -4.6314   -1.0843 H   0  0  0  0  0  0  0  0  0  0  0  0
   -0.8578   -7.1364    1.4501 N   0  0  0  0  0  0  0  0  0  0  0  0
   -0.0621   -8.2602    1.8858 C   0  0  0  0  0  0  0  0  0  0  0  0
   -1.8571   -7.1650    1.6301 H   0  0  0  0  0  0  0  0  0  0  0  0
   -0.0115   -9.0083    1.0810 H   0  0  0  0  0  0  0  0  0  0  0  0
    0.9537   -7.9168    2.1315 H   0  0  0  0  0  0  0  0  0  0  0  0
   -0.5222   -8.7114    2.7773 H   0  0  0  0  0  0  0  0  0  0  0  0
  1  3  1  0  0  0  0
  1  7  1  0  0  0  0
  1  2  2  0  0  0  0
 21 22  1  0  0  0  0
 22 24  1  0  0  0  0
 22 23  2  0  0  0  0
 32 33  1  0  0  0  0
 33 41  1  0  0  0  0
 33 34  2  0  0  0  0
  8  9  1  0  0  0  0
  9 17  1  0  0  0  0
  9 10  2  0  0  0  0
 18 19  1  0  0  0  0
 19 31  1  0  0  0  0
 19 20  2  0  0  0  0
 32 35  1  0  0  0  0
  8 11  1  0  0  0  0
 41 42  1  0  0  0  0
 18 21  1  0  0  0  0
 31 32  1  0  0  0  0
  7  8  1  0  0  0  0
 17 18  1  0  0  0  0
  3  4  1  0  0  0  0
  3  5  1  0  0  0  0
  3  6  1  0  0  0  0
 35 38  1  0  0  0  0
 35 39  1  0  0  0  0
 35 40  1  0  0  0  0
 11 14  1  0  0  0  0
 11 15  1  0  0  0  0
 11 16  1  0  0  0  0
 42 44  1  0  0  0  0
 42 45  1  0  0  0  0
 42 46  1  0  0  0  0
 21 27  1  0  0  0  0
 21 28  1  0  0  0  0
 32 37  1  0  0  0  0
  8 13  1  0  0  0  0
 18 26  1  0  0  0  0
 24 29  1  0  0  0  0
 24 30  1  0  0  0  0
 41 43  1  0  0  0  0
  7 12  1  0  0  0  0
 31 36  1  0  0  0  0
 17 25  1  0  0  0  0
M  END
$$$$

  -OEChem-05262214473D

 46 45  0     1  0  0  0  0  0999 V2000
   -0.0543    1.9736    3.8406 C   0  0  0  0  0  0  0  0  0  0  0  0
    0.6744    1.6099    4.7562 O   0  0  0  0  0  0  0  0  0  0  0  0
   -0.5599    3.3779    3.8160 C   0  0  0  0  0  0  0  0  0  0  0  0
   -1.5202    3.4885    4.3450 H   0  0  0  0  0  0  0  0  0  0  0  0
    0.1282    4.0814    4.3116 H   0  0  0  0  0  0  0  0  0  0  0  0
   -0.7317    3.7994    2.8126 H   0  0  0  0  0  0  0  0  0  0  0  0
   -0.4812    1.1968    2.7762 N   0  0  0  0  0  0  0  0  0  0  0  0
   -0.1106   -0.1834    2.6051 C   0  0  2  0  0  0  0  0  0  0  0  0
   -0.0696   -0.4775    1.1113 C   0  0  0  0  0  0  0  0  0  0  0  0
   -0.6805    0.1900    0.2792 O   0  0  0  0  0  0  0  0  0  0  0  0
   -1.0852   -1.1101    3.3150 C   0  0  0  0  0  0  0  0  0  0  0  0
   -1.0883    1.6241    2.0791 H   0  0  0  0  0  0  0  0  0  0  0  0
    0.8937   -0.2959    3.0277 H   0  0  0  0  0  0  0  0  0  0  0  0
   -2.0970   -1.0114    2.9051 H   0  0  0  0  0  0  0  0  0  0  0  0
   -0.7860   -2.1580    3.2078 H   0  0  0  0  0  0  0  0  0  0  0  0
   -1.1357   -0.8775    4.3842 H   0  0  0  0  0  0  0  0  0  0  0  0
    0.6950   -1.6003    0.8178 N   0  0  0  0  0  0  0  0  0  0  0  0
    0.8777   -2.0908   -0.5246 C   0  0  2  0  0  0  0  0  0  0  0  0
    0.3332   -3.5130   -0.5722 C   0  0  0  0  0  0  0  0  0  0  0  0
    0.9466   -4.4503   -1.0788 O   0  0  0  0  0  0  0  0  0  0  0  0
    2.3469   -2.0623   -0.9463 C   0  0  0  0  0  0  0  0  0  0  0  0
    2.8826   -0.6561   -1.1505 C   0  0  0  0  0  0  0  0  0  0  0  0
    2.2625    0.2413   -1.7133 O   0  0  0  0  0  0  0  0  0  0  0  0
    4.1477   -0.4976   -0.6256 N   0  0  0  0  0  0  0  0  0  0  0  0
    1.1810   -2.0803    1.5718 H   0  0  0  0  0  0  0  0  0  0  0  0
    0.2674   -1.4541   -1.1756 H   0  0  0  0  0  0  0  0  0  0  0  0
    2.9716   -2.5365   -0.1788 H   0  0  0  0  0  0  0  0  0  0  0  0
    2.4916   -2.6282   -1.8755 H   0  0  0  0  0  0  0  0  0  0  0  0
    4.6216   -1.2674   -0.1650 H   0  0  0  0  0  0  0  0  0  0  0  0
    4.6505    0.3826   -0.6773 H   0  0  0  0  0  0  0  0  0  0  0  0
   -0.8963   -3.6254    0.0616 N   0  0  0  0  0  0  0  0  0  0  0  0
   -1.5926   -4.8854    0.1643 C   0  0  2  0  0  0  0  0  0  0  0  0
   -0.6768   -5.8722    0.8765 C   0  0  0  0  0  0  0  0  0  0  0  0
    0.5451   -5.7442    0.9171 O   0  0  0  0  0  0  0  0  0  0  0  0
   -1.9948   -5.4087   -1.2058 C   0  0  0  0  0  0  0  0  0  0  0  0
   -1.3260   -2.8039    0.4765 H   0  0  0  0  0  0  0  0  0  0  0  0
   -2.4832   -4.7057    0.7763 H   0  0  0  0  0  0  0  0  0  0  0  0
   -1.1155   -5.5948   -1.8333 H   0  0  0  0  0  0  0  0  0  0  0  0
   -2.5478   -6.3502   -1.1243 H   0  0  0  0  0  0  0  0  0  0  0  0
   -2.6291   -4.6848   -1.7287 H   0  0  0  0  0  0  0  0  0  0  0  0
   -1.3807   -6.9354    1.4245 N   0  0  0  0  0  0  0  0  0  0  0  0
   -0.7356   -8.0109    2.1408 C   0  0  0  0  0  0  0  0  0  0  0  0
   -2.3942   -6.9503    1.3592 H   0  0  0  0  0  0  0  0  0  0  0  0
   -0.5069   -8.8308    1.4441 H   0  0  0  0  0  0  0  0  0  0  0  0
    0.1974   -7.6427    2.5925 H   0  0  0  0  0  0  0  0  0  0  0  0
   -1.4059   -8.3783    2.9319 H   0  0  0  0  0  0  0  0  0  0  0  0
  1  3  1  0  0  0  0
  1  7  1  0  0  0  0
  1  2  2  0  0  0  0
 21 22  1  0  0  0  0
 22 24  1  0  0  0  0
 22 23  2  0  0  0  0
 32 33  1  0  0  0  0
 33 41  1  0  0  0  0
 33 34  2  0  0  0  0
  8  9  1  0  0  0  0
  9 17  1  0  0  0  0
  9 10  2  0  0  0  0
 18 19  1  0  0  0  0
 19 31  1  0  0  0  0
 19 20  2  0  0  0  0
 32 35  1  0  0  0  0
  8 11  1  0  0  0  0
 41 42  1  0  0  0  0
 18 21  1  0  0  0  0
 31 32  1  0  0  0  0
  7  8  1  0  0  0  0
 17 18  1  0  0  0  0
  3  4  1  0  0  0  0
  3  5  1  0  0  0  0
  3  6  1  0  0  0  0
 35 38  1  0  0  0  0
 35 39  1  0  0  0  0
 35 40  1  0  0  0  0
 11 14  1  0  0  0  0
 11 15  1  0  0  0  0
 11 16  1  0  0  0  0
 42 44  1  0  0  0  0
 42 45  1  0  0  0  0
 42 46  1  0  0  0  0
 21 27  1  0  0  0  0
 21 28  1  0  0  0  0
 32 37  1  0  0  0  0
  8 13  1  0  0  0  0
 18 26  1  0  0  0  0
 24 29  1  0  0  0  0
 24 30  1  0  0  0  0
 41 43  1  0  0  0  0
  7 12  1  0  0  0  0
 31 36  1  0  0  0  0
 17 25  1  0  0  0  0
M  END
$$$$

  -OEChem-05262214473D

 46 45  0     1  0  0  0  0  0999 V2000
   -0.0543    1.9736    3.8406 C   0  0  0  0  0  0  0  0  0  0  0  0
    0.6744    1.6099    4.7562 O   0  0  0  0  0  0  0  0  0  0  0  0
   -0.5599    3.3779    3.8160 C   0  0  0  0  0  0  0  0  0  0  0  0
   -1.5202    3.4885    4.3450 H   0  0  0  0  0  0  0  0  0  0  0  0
    0.1282    4.0814    4.3116 H   0  0  0  0  0  0  0  0  0  0  0  0
   -0.7317    3.7994    2.8126 H   0  0  0  0  0  0  0  0  0  0  0  0
   -0.4812    1.1968    2.7762 N   0  0  0  0  0  0  0  0  0  0  0  0
   -0.1106   -0.1834    2.6051 C   0  0  2  0  0  0  0  0  0  0  0  0
   -0.0696   -0.4775    1.1113 C   0  0  0  0  0  0  0  0  0  0  0  0
   -0.6805    0.1900    0.2792 O   0  0  0  0  0  0  0  0  0  0  0  0
   -1.0852   -1.1101    3.3150 C   0  0  0  0  0  0  0  0  0  0  0  0
   -1.0883    1.6241    2.0791 H   0  0  0  0  0  0  0  0  0  0  0  0
    0.8937   -0.2959    3.0277 H   0  0  0  0  0  0  0  0  0  0  0  0
   -2.0970   -1.0114    2.9051 H   0  0  0  0  0  0  0  0  0  0  0  0
   -0.7860   -2.1580    3.2078 H   0  0  0  0  0  0  0  0  0  0  0  0
   -1.1357   -0.8775    4.3842 H   0  0  0  0  0  0  0  0  0  0  0  0
    0.6950   -1.6003    0.8178 N   0  0  0  0  0  0  0  0  0  0  0  0
    0.8777   -2.0908   -0.5246 C   0  0  2  0  0  0  0  0  0  0  0  0
    0.3332   -3.5130   -0.5722 C   0  0  0  0  0  0  0  0  0  0  0  0
    1.0323   -4.4916   -0.8274 O   0  0  0  0  0  0  0  0  0  0  0  0
    2.3469   -2.0623   -0.9463 C   0  0  0  0  0  0  0  0  0  0  0  0
    2.8826   -0.6561   -1.1505 C   0  0  0  0  0  0  0  0  0  0  0  0
    2.2625    0.2413   -1.7133 O   0  0  0  0  0  0  0  0  0  0  0  0
    4.1477   -0.4976   -0.6256 N   0  0  0  0  0  0  0  0  0  0  0  0
    1.1810   -2.0803    1.5718 H   0  0  0  0  0  0  0  0  0  0  0  0
    0.2674   -1.4541   -1.1756 H   0  0  0  0  0  0  0  0  0  0  0  0
    2.9716   -2.5365   -0.1788 H   0  0  0  0  0  0  0  0  0  0  0  0
    2.4916   -2.6282   -1.8755 H   0  0  0  0  0  0  0  0  0  0  0  0
    4.6216   -1.2674   -0.1650 H   0  0  0  0  0  0  0  0  0  0  0  0
    4.6505    0.3826   -0.6773 H   0  0  0  0  0  0  0  0  0  0  0  0
   -1.0148   -3.5697   -0.2472 N   0  0  0  0  0  0  0  0  0  0  0  0
   -1.7397   -4.8169   -0.2012 C   0  0  2  0  0  0  0  0  0  0  0  0
   -1.0421   -5.7297    0.7986 C   0  0  0  0  0  0  0  0  0  0  0  0
    0.1361   -5.5945    1.1218 O   0  0  0  0  0  0  0  0  0  0  0  0
   -1.8096   -5.4672   -1.5741 C   0  0  0  0  0  0  0  0  0  0  0  0
   -1.5159   -2.7144   -0.0256 H   0  0  0  0  0  0  0  0  0  0  0  0
   -2.7479   -4.5836    0.1580 H   0  0  0  0  0  0  0  0  0  0  0  0
   -0.8088   -5.7083   -1.9505 H   0  0  0  0  0  0  0  0  0  0  0  0
   -2.3842   -6.3988   -1.5431 H   0  0  0  0  0  0  0  0  0  0  0  0
   -2.2849   -4.7974   -2.2989 H   0  0  0  0  0  0  0  0  0  0  0  0
   -1.8779   -6.7393    1.2550 N   0  0  0  0  0  0  0  0  0  0  0  0
   -1.4457   -7.7411    2.2013 C   0  0  0  0  0  0  0  0  0  0  0  0
   -2.8459   -6.7636    0.9480 H   0  0  0  0  0  0  0  0  0  0  0  0
   -1.0717   -8.6218    1.6587 H   0  0  0  0  0  0  0  0  0  0  0  0
   -0.6423   -7.3293    2.8297 H   0  0  0  0  0  0  0  0  0  0  0  0
   -2.2940   -8.0351    2.8369 H   0  0  0  0  0  0  0  0  0  0  0  0
  1  3  1  0  0  0  0
  1  7  1  0  0  0  0
  1  2  2  0  0  0  0
 21 22  1  0  0  0  0
 22 24  1  0  0  0  0
 22 23  2  0  0  0  0
 32 33  1  0  0  0  0
 33 41  1  0  0  0  0
 33 34  2  0  0  0  0
  8  9  1  0  0  0  0
  9 17  1  0  0  0  0
  9 10  2  0  0  0  0
 18 19  1  0  0  0  0
 19 31  1  0  0  0  0
 19 20  2  0  0  0  0
 32 35  1  0  0  0  0
  8 11  1  0  0  0  0
 41 42  1  0  0  0  0
 18 21  1  0  0  0  0
 31 32  1  0  0  0  0
  7  8  1  0  0  0  0
 17 18  1  0  0  0  0
  3  4  1  0  0  0  0
  3  5  1  0  0  0  0
  3  6  1  0  0  0  0
 35 38  1  0  0  0  0
 35 39  1  0  0  0  0
 35 40  1  0  0  0  0
 11 14  1  0  0  0  0
 11 15  1  0  0  0  0
 11 16  1  0  0  0  0
 42 44  1  0  0  0  0
 42 45  1  0  0  0  0
 42 46  1  0  0  0  0
 21 27  1  0  0  0  0
 21 28  1  0  0  0  0
 32 37  1  0  0  0  0
  8 13  1  0  0  0  0
 18 26  1  0  0  0  0
 24 29  1  0  0  0  0
 24 30  1  0  0  0  0
 41 43  1  0  0  0  0
  7 12  1  0  0  0  0
 31 36  1  0  0  0  0
 17 25  1  0  0  0  0
M  END
$$$$

  -OEChem-05262214473D

 46 45  0     1  0  0  0  0  0999 V2000
   -0.0543    1.9736    3.8406 C   0  0  0  0  0  0  0  0  0  0  0  0
    0.6744    1.6099    4.7562 O   0  0  0  0  0  0  0  0  0  0  0  0
   -0.5599    3.3779    3.8160 C   0  0  0  0  0  0  0  0  0  0  0  0
   -1.5202    3.4885    4.3450 H   0  0  0  0  0  0  0  0  0  0  0  0
    0.1282    4.0814    4.3116 H   0  0  0  0  0  0  0  0  0  0  0  0
   -0.7317    3.7994    2.8126 H   0  0  0  0  0  0  0  0  0  0  0  0
   -0.4812    1.1968    2.7762 N   0  0  0  0  0  0  0  0  0  0  0  0
   -0.1106   -0.1834    2.6051 C   0  0  2  0  0  0  0  0  0  0  0  0
   -0.0696   -0.4775    1.1113 C   0  0  0  0  0  0  0  0  0  0  0  0
   -0.6805    0.1900    0.2792 O   0  0  0  0  0  0  0  0  0  0  0  0
   -1.0852   -1.1101    3.3150 C   0  0  0  0  0  0  0  0  0  0  0  0
   -1.0883    1.6241    2.0791 H   0  0  0  0  0  0  0  0  0  0  0  0
    0.8937   -0.2959    3.0277 H   0  0  0  0  0  0  0  0  0  0  0  0
   -2.0970   -1.0114    2.9051 H   0  0  0  0  0  0  0  0  0  0  0  0
   -0.7860   -2.1580    3.2078 H   0  0  0  0  0  0  0  0  0  0  0  0
   -1.1357   -0.8775    4.3842 H   0  0  0  0  0  0  0  0  0  0  0  0
    0.6950   -1.6003    0.8178 N   0  0  0  0  0  0  0  0  0  0  0  0
    0.8777   -2.0908   -0.5246 C   0  0  2  0  0  0  0  0  0  0  0  0
    0.3332   -3.5130   -0.5722 C   0  0  0  0  0  0  0  0  0  0  0  0
    1.0541   -4.5088   -0.5601 O   0  0  0  0  0  0  0  0  0  0  0  0
    2.3469   -2.0623   -0.9463 C   0  0  0  0  0  0  0  0  0  0  0  0
    2.8826   -0.6561   -1.1505 C   0  0  0  0  0  0  0  0  0  0  0  0
    2.2625    0.2413   -1.7133 O   0  0  0  0  0  0  0  0  0  0  0  0
    4.1477   -0.4976   -0.6256 N   0  0  0  0  0  0  0  0  0  0  0  0
    1.1810   -2.0803    1.5718 H   0  0  0  0  0  0  0  0  0  0  0  0
    0.2674   -1.4541   -1.1756 H   0  0  0  0  0  0  0  0  0  0  0  0
    2.9716   -2.5365   -0.1788 H   0  0  0  0  0  0  0  0  0  0  0  0
    2.4916   -2.6282   -1.8755 H   0  0  0  0  0  0  0  0  0  0  0  0
    4.6216   -1.2674   -0.1650 H   0  0  0  0  0  0  0  0  0  0  0  0
    4.6505    0.3826   -0.6773 H   0  0  0  0  0  0  0  0  0  0  0  0
   -1.0542   -3.5435   -0.5793 N   0  0  0  0  0  0  0  0  0  0  0  0
   -1.7929   -4.7833   -0.5962 C   0  0  2  0  0  0  0  0  0  0  0  0
   -1.3750   -5.5964    0.6220 C   0  0  0  0  0  0  0  0  0  0  0  0
   -0.3071   -5.4276    1.2069 O   0  0  0  0  0  0  0  0  0  0  0  0
   -1.5422   -5.5594   -1.8797 C   0  0  0  0  0  0  0  0  0  0  0  0
   -1.5772   -2.6729   -0.5647 H   0  0  0  0  0  0  0  0  0  0  0  0
   -2.8533   -4.5208   -0.5145 H   0  0  0  0  0  0  0  0  0  0  0  0
   -0.4850   -5.8312   -1.9791 H   0  0  0  0  0  0  0  0  0  0  0  0
   -2.1254   -6.4859   -1.9035 H   0  0  0  0  0  0  0  0  0  0  0  0
   -1.8155   -4.9618   -2.7561 H   0  0  0  0  0  0  0  0  0  0  0  0
   -2.3157   -6.5616    0.9529 N   0  0  0  0  0  0  0  0  0  0  0  0
   -2.1441   -7.4691    2.0633 C   0  0  0  0  0  0  0  0  0  0  0  0
   -3.1813   -6.6177    0.4244 H   0  0  0  0  0  0  0  0  0  0  0  0
   -1.6675   -8.3955    1.7102 H   0  0  0  0  0  0  0  0  0  0  0  0
   -1.5081   -6.9977    2.8270 H   0  0  0  0  0  0  0  0  0  0  0  0
   -3.1262   -7.7053    2.4988 H   0  0  0  0  0  0  0  0  0  0  0  0
  1  3  1  0  0  0  0
  1  7  1  0  0  0  0
  1  2  2  0  0  0  0
 21 22  1  0  0  0  0
 22 24  1  0  0  0  0
 22 23  2  0  0  0  0
 32 33  1  0  0  0  0
 33 41  1  0  0  0  0
 33 34  2  0  0  0  0
  8  9  1  0  0  0  0
  9 17  1  0  0  0  0
  9 10  2  0  0  0  0
 18 19  1  0  0  0  0
 19 31  1  0  0  0  0
 19 20  2  0  0  0  0
 32 35  1  0  0  0  0
  8 11  1  0  0  0  0
 41 42  1  0  0  0  0
 18 21  1  0  0  0  0
 31 32  1  0  0  0  0
  7  8  1  0  0  0  0
 17 18  1  0  0  0  0
  3  4  1  0  0  0  0
  3  5  1  0  0  0  0
  3  6  1  0  0  0  0
 35 38  1  0  0  0  0
 35 39  1  0  0  0  0
 35 40  1  0  0  0  0
 11 14  1  0  0  0  0
 11 15  1  0  0  0  0
 11 16  1  0  0  0  0
 42 44  1  0  0  0  0
 42 45  1  0  0  0  0
 42 46  1  0  0  0  0
 21 27  1  0  0  0  0
 21 28  1  0  0  0  0
 32 37  1  0  0  0  0
  8 13  1  0  0  0  0
 18 26  1  0  0  0  0
 24 29  1  0  0  0  0
 24 30  1  0  0  0  0
 41 43  1  0  0  0  0
  7 12  1  0  0  0  0
 31 36  1  0  0  0  0
 17 25  1  0  0  0  0
M  END
$$$$

  -OEChem-05262214473D

 46 45  0     1  0  0  0  0  0999 V2000
   -0.0543    1.9736    3.8406 C   0  0  0  0  0  0  0  0  0  0  0  0
    0.6744    1.6099    4.7562 O   0  0  0  0  0  0  0  0  0  0  0  0
   -0.5599    3.3779    3.8160 C   0  0  0  0  0  0  0  0  0  0  0  0
   -1.5202    3.4885    4.3450 H   0  0  0  0  0  0  0  0  0  0  0  0
    0.1282    4.0814    4.3116 H   0  0  0  0  0  0  0  0  0  0  0  0
   -0.7317    3.7994    2.8126 H   0  0  0  0  0  0  0  0  0  0  0  0
   -0.4812    1.1968    2.7762 N   0  0  0  0  0  0  0  0  0  0  0  0
   -0.1106   -0.1834    2.6051 C   0  0  2  0  0  0  0  0  0  0  0  0
   -0.0696   -0.4775    1.1113 C   0  0  0  0  0  0  0  0  0  0  0  0
   -0.6805    0.1900    0.2792 O   0  0  0  0  0  0  0  0  0  0  0  0
   -1.0852   -1.1101    3.3150 C   0  0  0  0  0  0  0  0  0  0  0  0
   -1.0883    1.6241    2.0791 H   0  0  0  0  0  0  0  0  0  0  0  0
    0.8937   -0.2959    3.0277 H   0  0  0  0  0  0  0  0  0  0  0  0
   -2.0970   -1.0114    2.9051 H   0  0  0  0  0  0  0  0  0  0  0  0
   -0.7860   -2.1580    3.2078 H   0  0  0  0  0  0  0  0  0  0  0  0
   -1.1357   -0.8775    4.3842 H   0  0  0  0  0  0  0  0  0  0  0  0
    0.6950   -1.6003    0.8178 N   0  0  0  0  0  0  0  0  0  0  0  0
    0.8777   -2.0908   -0.5246 C   0  0  2  0  0  0  0  0  0  0  0  0
    0.3332   -3.5130   -0.5722 C   0  0  0  0  0  0  0  0  0  0  0  0
    1.0103   -4.5010   -0.2949 O   0  0  0  0  0  0  0  0  0  0  0  0
    2.3469   -2.0623   -0.9463 C   0  0  0  0  0  0  0  0  0  0  0  0
    2.8826   -0.6561   -1.1505 C   0  0  0  0  0  0  0  0  0  0  0  0
    2.2625    0.2413   -1.7133 O   0  0  0  0  0  0  0  0  0  0  0  0
    4.1477   -0.4976   -0.6256 N   0  0  0  0  0  0  0  0  0  0  0  0
    1.1810   -2.0803    1.5718 H   0  0  0  0  0  0  0  0  0  0  0  0
    0.2674   -1.4541   -1.1756 H   0  0  0  0  0  0  0  0  0  0  0  0
    2.9716   -2.5365   -0.1788 H   0  0  0  0  0  0  0  0  0  0  0  0
    2.4916   -2.6282   -1.8755 H   0  0  0  0  0  0  0  0  0  0  0  0
    4.6216   -1.2674   -0.1650 H   0  0  0  0  0  0  0  0  0  0  0  0
    4.6505    0.3826   -0.6773 H   0  0  0  0  0  0  0  0  0  0  0  0
   -1.0118   -3.5486   -0.9120 N   0  0  0  0  0  0  0  0  0  0  0  0
   -1.7487   -4.7869   -0.9936 C   0  0  2  0  0  0  0  0  0  0  0  0
   -1.6528   -5.4812    0.3586 C   0  0  0  0  0  0  0  0  0  0  0  0
   -0.7544   -5.2550    1.1665 O   0  0  0  0  0  0  0  0  0  0  0  0
   -1.2109   -5.6788   -2.1018 C   0  0  0  0  0  0  0  0  0  0  0  0
   -1.5059   -2.6821   -1.1041 H   0  0  0  0  0  0  0  0  0  0  0  0
   -2.7921   -4.5214   -1.1953 H   0  0  0  0  0  0  0  0  0  0  0  0
   -0.1664   -5.9553   -1.9171 H   0  0  0  0  0  0  0  0  0  0  0  0
   -1.7890   -6.6053   -2.1812 H   0  0  0  0  0  0  0  0  0  0  0  0
   -1.2530   -5.1667   -3.0692 H   0  0  0  0  0  0  0  0  0  0  0  0
   -2.6642   -6.4144    0.5389 N   0  0  0  0  0  0  0  0  0  0  0  0
   -2.7832   -7.2135    1.7361 C   0  0  0  0  0  0  0  0  0  0  0  0
   -3.3776   -6.5225   -0.1759 H   0  0  0  0  0  0  0  0  0  0  0  0
   -2.2535   -8.1673    1.5951 H   0  0  0  0  0  0  0  0  0  0  0  0
   -2.3411   -6.6707    2.5846 H   0  0  0  0  0  0  0  0  0  0  0  0
   -3.8457   -7.4112    1.9407 H   0  0  0  0  0  0  0  0  0  0  0  0
  1  3  1  0  0  0  0
  1  7  1  0  0  0  0
  1  2  2  0  0  0  0
 21 22  1  0  0  0  0
 22 24  1  0  0  0  0
 22 23  2  0  0  0  0
 32 33  1  0  0  0  0
 33 41  1  0  0  0  0
 33 34  2  0  0  0  0
  8  9  1  0  0  0  0
  9 17  1  0  0  0  0
  9 10  2  0  0  0  0
 18 19  1  0  0  0  0
 19 31  1  0  0  0  0
 19 20  2  0  0  0  0
 32 35  1  0  0  0  0
  8 11  1  0  0  0  0
 41 42  1  0  0  0  0
 18 21  1  0  0  0  0
 31 32  1  0  0  0  0
  7  8  1  0  0  0  0
 17 18  1  0  0  0  0
  3  4  1  0  0  0  0
  3  5  1  0  0  0  0
  3  6  1  0  0  0  0
 35 38  1  0  0  0  0
 35 39  1  0  0  0  0
 35 40  1  0  0  0  0
 11 14  1  0  0  0  0
 11 15  1  0  0  0  0
 11 16  1  0  0  0  0
 42 44  1  0  0  0  0
 42 45  1  0  0  0  0
 42 46  1  0  0  0  0
 21 27  1  0  0  0  0
 21 28  1  0  0  0  0
 32 37  1  0  0  0  0
  8 13  1  0  0  0  0
 18 26  1  0  0  0  0
 24 29  1  0  0  0  0
 24 30  1  0  0  0  0
 41 43  1  0  0  0  0
  7 12  1  0  0  0  0
 31 36  1  0  0  0  0
 17 25  1  0  0  0  0
M  END
$$$$

  -OEChem-05262214473D

 46 45  0     1  0  0  0  0  0999 V2000
   -0.0543    1.9736    3.8406 C   0  0  0  0  0  0  0  0  0  0  0  0
    0.6744    1.6099    4.7562 O   0  0  0  0  0  0  0  0  0  0  0  0
   -0.5599    3.3779    3.8160 C   0  0  0  0  0  0  0  0  0  0  0  0
   -1.5202    3.4885    4.3450 H   0  0  0  0  0  0  0  0  0  0  0  0
    0.1282    4.0814    4.3116 H   0  0  0  0  0  0  0  0  0  0  0  0
   -0.7317    3.7994    2.8126 H   0  0  0  0  0  0  0  0  0  0  0  0
   -0.4812    1.1968    2.7762 N   0  0  0  0  0  0  0  0  0  0  0  0
   -0.1106   -0.1834    2.6051 C   0  0  2  0  0  0  0  0  0  0  0  0
   -0.0696   -0.4775    1.1113 C   0  0  0  0  0  0  0  0  0  0  0  0
   -0.6805    0.1900    0.2792 O   0  0  0  0  0  0  0  0  0  0  0  0
   -1.0852   -1.1101    3.3150 C   0  0  0  0  0  0  0  0  0  0  0  0
   -1.0883    1.6241    2.0791 H   0  0  0  0  0  0  0  0  0  0  0  0
    0.8937   -0.2959    3.0277 H   0  0  0  0  0  0  0  0  0  0  0  0
   -2.0970   -1.0114    2.9051 H   0  0  0  0  0  0  0  0  0  0  0  0
   -0.7860   -2.1580    3.2078 H   0  0  0  0  0  0  0  0  0  0  0  0
   -1.1357   -0.8775    4.3842 H   0  0  0  0  0  0  0  0  0  0  0  0
    0.6950   -1.6003    0.8178 N   0  0  0  0  0  0  0  0  0  0  0  0
    0.8777   -2.0908   -0.5246 C   0  0  2  0  0  0  0  0  0  0  0  0
    0.3332   -3.5130   -0.5722 C   0  0  0  0  0  0  0  0  0  0  0  0
    0.9041   -4.4685   -0.0501 O   0  0  0  0  0  0  0  0  0  0  0  0
    2.3469   -2.0623   -0.9463 C   0  0  0  0  0  0  0  0  0  0  0  0
    2.8826   -0.6561   -1.1505 C   0  0  0  0  0  0  0  0  0  0  0  0
    2.2625    0.2413   -1.7133 O   0  0  0  0  0  0  0  0  0  0  0  0
    4.1477   -0.4976   -0.6256 N   0  0  0  0  0  0  0  0  0  0  0  0
    1.1810   -2.0803    1.5718 H   0  0  0  0  0  0  0  0  0  0  0  0
    0.2674   -1.4541   -1.1756 H   0  0  0  0  0  0  0  0  0  0  0  0
    2.9716   -2.5365   -0.1788 H   0  0  0  0  0  0  0  0  0  0  0  0
    2.4916   -2.6282   -1.8755 H   0  0  0  0  0  0  0  0  0  0  0  0
    4.6216   -1.2674   -0.1650 H   0  0  0  0  0  0  0  0  0  0  0  0
    4.6505    0.3826   -0.6773 H   0  0  0  0  0  0  0  0  0  0  0  0
   -0.8906   -3.5846   -1.2226 N   0  0  0  0  0  0  0  0  0  0  0  0
   -1.6099   -4.8276   -1.3665 C   0  0  2  0  0  0  0  0  0  0  0  0
   -1.8566   -5.3921    0.0264 C   0  0  0  0  0  0  0  0  0  0  0  0
   -1.1754   -5.0884    1.0035 O   0  0  0  0  0  0  0  0  0  0  0  0
   -0.8382   -5.8173   -2.2253 C   0  0  0  0  0  0  0  0  0  0  0  0
   -1.3068   -2.7415   -1.6070 H   0  0  0  0  0  0  0  0  0  0  0  0
   -2.5685   -4.5855   -1.8381 H   0  0  0  0  0  0  0  0  0  0  0  0
    0.1253   -6.0719   -1.7688 H   0  0  0  0  0  0  0  0  0  0  0  0
   -1.3980   -6.7491   -2.3570 H   0  0  0  0  0  0  0  0  0  0  0  0
   -0.6357   -5.3980   -3.2167 H   0  0  0  0  0  0  0  0  0  0  0  0
   -2.8995   -6.3076    0.0412 N   0  0  0  0  0  0  0  0  0  0  0  0
   -3.3193   -6.9918    1.2420 C   0  0  0  0  0  0  0  0  0  0  0  0
   -3.4215   -6.4844   -0.8120 H   0  0  0  0  0  0  0  0  0  0  0  0
   -2.7899   -7.9528    1.3212 H   0  0  0  0  0  0  0  0  0  0  0  0
   -3.0845   -6.3706    2.1189 H   0  0  0  0  0  0  0  0  0  0  0  0
   -4.4035   -7.1729    1.2006 H   0  0  0  0  0  0  0  0  0  0  0  0
  1  3  1  0  0  0  0
  1  7  1  0  0  0  0
  1  2  2  0  0  0  0
 21 22  1  0  0  0  0
 22 24  1  0  0  0  0
 22 23  2  0  0  0  0
 32 33  1  0  0  0  0
 33 41  1  0  0  0  0
 33 34  2  0  0  0  0
  8  9  1  0  0  0  0
  9 17  1  0  0  0  0
  9 10  2  0  0  0  0
 18 19  1  0  0  0  0
 19 31  1  0  0  0  0
 19 20  2  0  0  0  0
 32 35  1  0  0  0  0
  8 11  1  0  0  0  0
 41 42  1  0  0  0  0
 18 21  1  0  0  0  0
 31 32  1  0  0  0  0
  7  8  1  0  0  0  0
 17 18  1  0  0  0  0
  3  4  1  0  0  0  0
  3  5  1  0  0  0  0
  3  6  1  0  0  0  0
 35 38  1  0  0  0  0
 35 39  1  0  0  0  0
 35 40  1  0  0  0  0
 11 14  1  0  0  0  0
 11 15  1  0  0  0  0
 11 16  1  0  0  0  0
 42 44  1  0  0  0  0
 42 45  1  0  0  0  0
 42 46  1  0  0  0  0
 21 27  1  0  0  0  0
 21 28  1  0  0  0  0
 32 37  1  0  0  0  0
  8 13  1  0  0  0  0
 18 26  1  0  0  0  0
 24 29  1  0  0  0  0
 24 30  1  0  0  0  0
 41 43  1  0  0  0  0
  7 12  1  0  0  0  0
 31 36  1  0  0  0  0
 17 25  1  0  0  0  0
M  END
$$$$

  -OEChem-05262214473D

 46 45  0     1  0  0  0  0  0999 V2000
   -0.0543    1.9736    3.8406 C   0  0  0  0  0  0  0  0  0  0  0  0
    0.6744    1.6099    4.7562 O   0  0  0  0  0  0  0  0  0  0  0  0
   -0.5599    3.3779    3.8160 C   0  0  0  0  0  0  0  0  0  0  0  0
   -1.5202    3.4885    4.3450 H   0  0  0  0  0  0  0  0  0  0  0  0
    0.1282    4.0814    4.3116 H   0  0  0  0  0  0  0  0  0  0  0  0
   -0.7317    3.7994    2.8126 H   0  0  0  0  0  0  0  0  0  0  0  0
   -0.4812    1.1968    2.7762 N   0  0  0  0  0  0  0  0  0  0  0  0
   -0.1106   -0.1834    2.6051 C   0  0  2  0  0  0  0  0  0  0  0  0
   -0.0696   -0.4775    1.1113 C   0  0  0  0  0  0  0  0  0  0  0  0
   -0.6805    0.1900    0.2792 O   0  0  0  0  0  0  0  0  0  0  0  0
   -1.0852   -1.1101    3.3150 C   0  0  0  0  0  0  0  0  0  0  0  0
   -1.0883    1.6241    2.0791 H   0  0  0  0  0  0  0  0  0  0  0  0
    0.8937   -0.2959    3.0277 H   0  0  0  0  0  0  0  0  0  0  0  0
   -2.0970   -1.0114    2.9051 H   0  0  0  0  0  0  0  0  0  0  0  0
   -0.7860   -2.1580    3.2078 H   0  0  0  0  0  0  0  0  0  0  0  0
   -1.1357   -0.8775    4.3842 H   0  0  0  0  0  0  0  0  0  0  0  0
    0.6950   -1.6003    0.8178 N   0  0  0  0  0  0  0  0  0  0  0  0
    0.8777   -2.0908   -0.5246 C   0  0  2  0  0  0  0  0  0  0  0  0
    0.3332   -3.5130   -0.5722 C   0  0  0  0  0  0  0  0  0  0  0  0
    0.7426   -4.4136    0.1577 O   0  0  0  0  0  0  0  0  0  0  0  0
    2.3469   -2.0623   -0.9463 C   0  0  0  0  0  0  0  0  0  0  0  0
    2.8826   -0.6561   -1.1505 C   0  0  0  0  0  0  0  0  0  0  0  0
    2.2625    0.2413   -1.7133 O   0  0  0  0  0  0  0  0  0  0  0  0
    4.1477   -0.4976   -0.6256 N   0  0  0  0  0  0  0  0  0  0  0  0
    1.1810   -2.0803    1.5718 H   0  0  0  0  0  0  0  0  0  0  0  0
    0.2674   -1.4541   -1.1756 H   0  0  0  0  0  0  0  0  0  0  0  0
    2.9716   -2.5365   -0.1788 H   0  0  0  0  0  0  0  0  0  0  0  0
    2.4916   -2.6282   -1.8755 H   0  0  0  0  0  0  0  0  0  0  0  0
    4.6216   -1.2674   -0.1650 H   0  0  0  0  0  0  0  0  0  0  0  0
    4.6505    0.3826   -0.6773 H   0  0  0  0  0  0  0  0  0  0  0  0
   -0.6987   -3.6491   -1.4901 N   0  0  0  0  0  0  0  0  0  0  0  0
   -1.3861   -4.9024   -1.6894 C   0  0  2  0  0  0  0  0  0  0  0  0
   -1.9724   -5.3351   -0.3520 C   0  0  0  0  0  0  0  0  0  0  0  0
   -1.5413   -4.9392    0.7290 O   0  0  0  0  0  0  0  0  0  0  0  0
   -0.4494   -5.9656   -2.2416 C   0  0  0  0  0  0  0  0  0  0  0  0
   -0.9934   -2.8470   -2.0392 H   0  0  0  0  0  0  0  0  0  0  0  0
   -2.1978   -4.7086   -2.3990 H   0  0  0  0  0  0  0  0  0  0  0  0
    0.3704   -6.1732   -1.5442 H   0  0  0  0  0  0  0  0  0  0  0  0
   -0.9789   -6.9075   -2.4191 H   0  0  0  0  0  0  0  0  0  0  0  0
   -0.0057   -5.6401   -3.1887 H   0  0  0  0  0  0  0  0  0  0  0  0
   -3.0057   -6.2486   -0.5062 N   0  0  0  0  0  0  0  0  0  0  0  0
   -3.7160   -6.8189    0.6147 C   0  0  0  0  0  0  0  0  0  0  0  0
   -3.3098   -6.5061   -1.4406 H   0  0  0  0  0  0  0  0  0  0  0  0
   -3.2402   -7.7665    0.9072 H   0  0  0  0  0  0  0  0  0  0  0  0
   -3.6876   -6.1177    1.4617 H   0  0  0  0  0  0  0  0  0  0  0  0
   -4.7615   -7.0066    0.3289 H   0  0  0  0  0  0  0  0  0  0  0  0
  1  3  1  0  0  0  0
  1  7  1  0  0  0  0
  1  2  2  0  0  0  0
 21 22  1  0  0  0  0
 22 24  1  0  0  0  0
 22 23  2  0  0  0  0
 32 33  1  0  0  0  0
 33 41  1  0  0  0  0
 33 34  2  0  0  0  0
  8  9  1  0  0  0  0
  9 17  1  0  0  0  0
  9 10  2  0  0  0  0
 18 19  1  0  0  0  0
 19 31  1  0  0  0  0
 19 20  2  0  0  0  0
 32 35  1  0  0  0  0
  8 11  1  0  0  0  0
 41 42  1  0  0  0  0
 18 21  1  0  0  0  0
 31 32  1  0  0  0  0
  7  8  1  0  0  0  0
 17 18  1  0  0  0  0
  3  4  1  0  0  0  0
  3  5  1  0  0  0  0
  3  6  1  0  0  0  0
 35 38  1  0  0  0  0
 35 39  1  0  0  0  0
 35 40  1  0  0  0  0
 11 14  1  0  0  0  0
 11 15  1  0  0  0  0
 11 16  1  0  0  0  0
 42 44  1  0  0  0  0
 42 45  1  0  0  0  0
 42 46  1  0  0  0  0
 21 27  1  0  0  0  0
 21 28  1  0  0  0  0
 32 37  1  0  0  0  0
  8 13  1  0  0  0  0
 18 26  1  0  0  0  0
 24 29  1  0  0  0  0
 24 30  1  0  0  0  0
 41 43  1  0  0  0  0
  7 12  1  0  0  0  0
 31 36  1  0  0  0  0
 17 25  1  0  0  0  0
M  END
$$$$

  -OEChem-05262214473D

 46 45  0     1  0  0  0  0  0999 V2000
   -0.0543    1.9736    3.8406 C   0  0  0  0  0  0  0  0  0  0  0  0
    0.6744    1.6099    4.7562 O   0  0  0  0  0  0  0  0  0  0  0  0
   -0.5599    3.3779    3.8160 C   0  0  0  0  0  0  0  0  0  0  0  0
   -1.5202    3.4885    4.3450 H   0  0  0  0  0  0  0  0  0  0  0  0
    0.1282    4.0814    4.3116 H   0  0  0  0  0  0  0  0  0  0  0  0
   -0.7317    3.7994    2.8126 H   0  0  0  0  0  0  0  0  0  0  0  0
   -0.4812    1.1968    2.7762 N   0  0  0  0  0  0  0  0  0  0  0  0
   -0.1106   -0.1834    2.6051 C   0  0  2  0  0  0  0  0  0  0  0  0
   -0.0696   -0.4775    1.1113 C   0  0  0  0  0  0  0  0  0  0  0  0
   -0.6805    0.1900    0.2792 O   0  0  0  0  0  0  0  0  0  0  0  0
   -1.0852   -1.1101    3.3150 C   0  0  0  0  0  0  0  0  0  0  0  0
   -1.0883    1.6241    2.0791 H   0  0  0  0  0  0  0  0  0  0  0  0
    0.8937   -0.2959    3.0277 H   0  0  0  0  0  0  0  0  0  0  0  0
   -2.0970   -1.0114    2.9051 H   0  0  0  0  0  0  0  0  0  0  0  0
   -0.7860   -2.1580    3.2078 H   0  0  0  0  0  0  0  0  0  0  0  0
   -1.1357   -0.8775    4.3842 H   0  0  0  0  0  0  0  0  0  0  0  0
    0.6950   -1.6003    0.8178 N   0  0  0  0  0  0  0  0  0  0  0  0
    0.8777   -2.0908   -0.5246 C   0  0  2  0  0  0  0  0  0  0  0  0
    0.3332   -3.5130   -0.5722 C   0  0  0  0  0  0  0  0  0  0  0  0
    0.5369   -4.3401    0.3143 O   0  0  0  0  0  0  0  0  0  0  0  0
    2.3469   -2.0623   -0.9463 C   0  0  0  0  0  0  0  0  0  0  0  0
    2.8826   -0.6561   -1.1505 C   0  0  0  0  0  0  0  0  0  0  0  0
    2.2625    0.2413   -1.7133 O   0  0  0  0  0  0  0  0  0  0  0  0
    4.1477   -0.4976   -0.6256 N   0  0  0  0  0  0  0  0  0  0  0  0
    1.1810   -2.0803    1.5718 H   0  0  0  0  0  0  0  0  0  0  0  0
    0.2674   -1.4541   -1.1756 H   0  0  0  0  0  0  0  0  0  0  0  0
    2.9716   -2.5365   -0.1788 H   0  0  0  0  0  0  0  0  0  0  0  0
    2.4916   -2.6282   -1.8755 H   0  0  0  0  0  0  0  0  0  0  0  0
    4.6216   -1.2674   -0.1650 H   0  0  0  0  0  0  0  0  0  0  0  0
    4.6505    0.3826   -0.6773 H   0  0  0  0  0  0  0  0  0  0  0  0
   -0.4493   -3.7377   -1.6961 N   0  0  0  0  0  0  0  0  0  0  0  0
   -1.0926   -5.0064   -1.9402 C   0  0  2  0  0  0  0  0  0  0  0  0
   -1.9925   -5.3141   -0.7507 C   0  0  0  0  0  0  0  0  0  0  0  0
   -1.8272   -4.8174    0.3616 O   0  0  0  0  0  0  0  0  0  0  0  0
   -0.0712   -6.1135   -2.1498 C   0  0  0  0  0  0  0  0  0  0  0  0
   -0.5871   -2.9914   -2.3712 H   0  0  0  0  0  0  0  0  0  0  0  0
   -1.7051   -4.8824   -2.8399 H   0  0  0  0  0  0  0  0  0  0  0  0
    0.5520   -6.2523   -1.2588 H   0  0  0  0  0  0  0  0  0  0  0  0
   -0.5604   -7.0695   -2.3632 H   0  0  0  0  0  0  0  0  0  0  0  0
    0.5942   -5.8765   -2.9870 H   0  0  0  0  0  0  0  0  0  0  0  0
   -2.9756   -6.2414   -1.0661 N   0  0  0  0  0  0  0  0  0  0  0  0
   -3.9462   -6.7067   -0.1031 C   0  0  0  0  0  0  0  0  0  0  0  0
   -3.0503   -6.5861   -2.0187 H   0  0  0  0  0  0  0  0  0  0  0  0
   -3.5735   -7.6213    0.3813 H   0  0  0  0  0  0  0  0  0  0  0  0
   -4.1094   -5.9293    0.6578 H   0  0  0  0  0  0  0  0  0  0  0  0
   -4.8954   -6.9238   -0.6149 H   0  0  0  0  0  0  0  0  0  0  0  0
  1  3  1  0  0  0  0
  1  7  1  0  0  0  0
  1  2  2  0  0  0  0
 21 22  1  0  0  0  0
 22 24  1  0  0  0  0
 22 23  2  0  0  0  0
 32 33  1  0  0  0  0
 33 41  1  0  0  0  0
 33 34  2  0  0  0  0
  8  9  1  0  0  0  0
  9 17  1  0  0  0  0
  9 10  2  0  0  0  0
 18 19  1  0  0  0  0
 19 31  1  0  0  0  0
 19 20  2  0  0  0  0
 32 35  1  0  0  0  0
  8 11  1  0  0  0  0
 41 42  1  0  0  0  0
 18 21  1  0  0  0  0
 31 32  1  0  0  0  0
  7  8  1  0  0  0  0
 17 18  1  0  0  0  0
  3  4  1  0  0  0  0
  3  5  1  0  0  0  0
  3  6  1  0  0  0  0
 35 38  1  0  0  0  0
 35 39  1  0  0  0  0
 35 40  1  0  0  0  0
 11 14  1  0  0  0  0
 11 15  1  0  0  0  0
 11 16  1  0  0  0  0
 42 44  1  0  0  0  0
 42 45  1  0  0  0  0
 42 46  1  0  0  0  0
 21 27  1  0  0  0  0
 21 28  1  0  0  0  0
 32 37  1  0  0  0  0
  8 13  1  0  0  0  0
 18 26  1  0  0  0  0
 24 29  1  0  0  0  0
 24 30  1  0  0  0  0
 41 43  1  0  0  0  0
  7 12  1  0  0  0  0
 31 36  1  0  0  0  0
 17 25  1  0  0  0  0
M  END
$$$$

  -OEChem-05262214473D

 46 45  0     1  0  0  0  0  0999 V2000
   -0.0543    1.9736    3.8406 C   0  0  0  0  0  0  0  0  0  0  0  0
    0.6744    1.6099    4.7562 O   0  0  0  0  0  0  0  0  0  0  0  0
   -0.5599    3.3779    3.8160 C   0  0  0  0  0  0  0  0  0  0  0  0
   -1.5202    3.4885    4.3450 H   0  0  0  0  0  0  0  0  0  0  0  0
    0.1282    4.0814    4.3116 H   0  0  0  0  0  0  0  0  0  0  0  0
   -0.7317    3.7994    2.8126 H   0  0  0  0  0  0  0  0  0  0  0  0
   -0.4812    1.1968    2.7762 N   0  0  0  0  0  0  0  0  0  0  0  0
   -0.1106   -0.1834    2.6051 C   0  0  2  0  0  0  0  0  0  0  0  0
   -0.0696   -0.4775    1.1113 C   0  0  0  0  0  0  0  0  0  0  0  0
   -0.6805    0.1900    0.2792 O   0  0  0  0  0  0  0  0  0  0  0  0
   -1.0852   -1.1101    3.3150 C   0  0  0  0  0  0  0  0  0  0  0  0
   -1.0883    1.6241    2.0791 H   0  0  0  0  0  0  0  0  0  0  0  0
    0.8937   -0.2959    3.0277 H   0  0  0  0  0  0  0  0  0  0  0  0
   -2.0970   -1.0114    2.9051 H   0  0  0  0  0  0  0  0  0  0  0  0
   -0.7860   -2.1580    3.2078 H   0  0  0  0  0  0  0  0  0  0  0  0
   -1.1357   -0.8775    4.3842 H   0  0  0  0  0  0  0  0  0  0  0  0
    0.6950   -1.6003    0.8178 N   0  0  0  0  0  0  0  0  0  0  0  0
    0.8777   -2.0908   -0.5246 C   0  0  2  0  0  0  0  0  0  0  0  0
    0.3332   -3.5130   -0.5722 C   0  0  0  0  0  0  0  0  0  0  0  0
    0.3009   -4.2530    0.4091 O   0  0  0  0  0  0  0  0  0  0  0  0
    2.3469   -2.0623   -0.9463 C   0  0  0  0  0  0  0  0  0  0  0  0
    2.8826   -0.6561   -1.1505 C   0  0  0  0  0  0  0  0  0  0  0  0
    2.2625    0.2413   -1.7133 O   0  0  0  0  0  0  0  0  0  0  0  0
    4.1477   -0.4976   -0.6256 N   0  0  0  0  0  0  0  0  0  0  0  0
    1.1810   -2.0803    1.5718 H   0  0  0  0  0  0  0  0  0  0  0  0
    0.2674   -1.4541   -1.1756 H   0  0  0  0  0  0  0  0  0  0  0  0
    2.9716   -2.5365   -0.1788 H   0  0  0  0  0  0  0  0  0  0  0  0
    2.4916   -2.6282   -1.8755 H   0  0  0  0  0  0  0  0  0  0  0  0
    4.6216   -1.2674   -0.1650 H   0  0  0  0  0  0  0  0  0  0  0  0
    4.6505    0.3826   -0.6773 H   0  0  0  0  0  0  0  0  0  0  0  0
   -0.1593   -3.8443   -1.8266 N   0  0  0  0  0  0  0  0  0  0  0  0
   -0.7492   -5.1324   -2.1021 C   0  0  2  0  0  0  0  0  0  0  0  0
   -1.9153   -5.3305   -1.1426 C   0  0  0  0  0  0  0  0  0  0  0  0
   -2.0136   -4.7315   -0.0736 O   0  0  0  0  0  0  0  0  0  0  0  0
    0.2708   -6.2509   -1.9560 C   0  0  0  0  0  0  0  0  0  0  0  0
   -0.1157   -3.1649   -2.5804 H   0  0  0  0  0  0  0  0  0  0  0  0
   -1.1242   -5.0951   -3.1307 H   0  0  0  0  0  0  0  0  0  0  0  0
    0.6578   -6.3038   -0.9319 H   0  0  0  0  0  0  0  0  0  0  0  0
   -0.1711   -7.2243   -2.1931 H   0  0  0  0  0  0  0  0  0  0  0  0
    1.1229   -6.0910   -2.6255 H   0  0  0  0  0  0  0  0  0  0  0  0
   -2.8112   -6.2865   -1.6004 N   0  0  0  0  0  0  0  0  0  0  0  0
   -3.9943   -6.6629   -0.8624 C   0  0  0  0  0  0  0  0  0  0  0  0
   -2.6606   -6.7189   -2.5070 H   0  0  0  0  0  0  0  0  0  0  0  0
   -3.7673   -7.5270   -0.2206 H   0  0  0  0  0  0  0  0  0  0  0  0
   -4.3210   -5.8183   -0.2380 H   0  0  0  0  0  0  0  0  0  0  0  0
   -4.7960   -6.9300   -1.5666 H   0  0  0  0  0  0  0  0  0  0  0  0
  1  3  1  0  0  0  0
  1  7  1  0  0  0  0
  1  2  2  0  0  0  0
 21 22  1  0  0  0  0
 22 24  1  0  0  0  0
 22 23  2  0  0  0  0
 32 33  1  0  0  0  0
 33 41  1  0  0  0  0
 33 34  2  0  0  0  0
  8  9  1  0  0  0  0
  9 17  1  0  0  0  0
  9 10  2  0  0  0  0
 18 19  1  0  0  0  0
 19 31  1  0  0  0  0
 19 20  2  0  0  0  0
 32 35  1  0  0  0  0
  8 11  1  0  0  0  0
 41 42  1  0  0  0  0
 18 21  1  0  0  0  0
 31 32  1  0  0  0  0
  7  8  1  0  0  0  0
 17 18  1  0  0  0  0
  3  4  1  0  0  0  0
  3  5  1  0  0  0  0
  3  6  1  0  0  0  0
 35 38  1  0  0  0  0
 35 39  1  0  0  0  0
 35 40  1  0  0  0  0
 11 14  1  0  0  0  0
 11 15  1  0  0  0  0
 11 16  1  0  0  0  0
 42 44  1  0  0  0  0
 42 45  1  0  0  0  0
 42 46  1  0  0  0  0
 21 27  1  0  0  0  0
 21 28  1  0  0  0  0
 32 37  1  0  0  0  0
  8 13  1  0  0  0  0
 18 26  1  0  0  0  0
 24 29  1  0  0  0  0
 24 30  1  0  0  0  0
 41 43  1  0  0  0  0
  7 12  1  0  0  0  0
 31 36  1  0  0  0  0
 17 25  1  0  0  0  0
M  END
$$$$

  -OEChem-05262214473D

 46 45  0     1  0  0  0  0  0999 V2000
   -0.0543    1.9736    3.8406 C   0  0  0  0  0  0  0  0  0  0  0  0
    0.6744    1.6099    4.7562 O   0  0  0  0  0  0  0  0  0  0  0  0
   -0.5599    3.3779    3.8160 C   0  0  0  0  0  0  0  0  0  0  0  0
   -1.5202    3.4885    4.3450 H   0  0  0  0  0  0  0  0  0  0  0  0
    0.1282    4.0814    4.3116 H   0  0  0  0  0  0  0  0  0  0  0  0
   -0.7317    3.7994    2.8126 H   0  0  0  0  0  0  0  0  0  0  0  0
   -0.4812    1.1968    2.7762 N   0  0  0  0  0  0  0  0  0  0  0  0
   -0.1106   -0.1834    2.6051 C   0  0  2  0  0  0  0  0  0  0  0  0
   -0.0696   -0.4775    1.1113 C   0  0  0  0  0  0  0  0  0  0  0  0
   -0.6805    0.1900    0.2792 O   0  0  0  0  0  0  0  0  0  0  0  0
   -1.0852   -1.1101    3.3150 C   0  0  0  0  0  0  0  0  0  0  0  0
   -1.0883    1.6241    2.0791 H   0  0  0  0  0  0  0  0  0  0  0  0
    0.8937   -0.2959    3.0277 H   0  0  0  0  0  0  0  0  0  0  0  0
   -2.0970   -1.0114    2.9051 H   0  0  0  0  0  0  0  0  0  0  0  0
   -0.7860   -2.1580    3.2078 H   0  0  0  0  0  0  0  0  0  0  0  0
   -1.1357   -0.8775    4.3842 H   0  0  0  0  0  0  0  0  0  0  0  0
    0.6950   -1.6003    0.8178 N   0  0  0  0  0  0  0  0  0  0  0  0
    0.8777   -2.0908   -0.5246 C   0  0  2  0  0  0  0  0  0  0  0  0
    0.3332   -3.5130   -0.5722 C   0  0  0  0  0  0  0  0  0  0  0  0
    0.0508   -4.1581    0.4355 O   0  0  0  0  0  0  0  0  0  0  0  0
    2.3469   -2.0623   -0.9463 C   0  0  0  0  0  0  0  0  0  0  0  0
    2.8826   -0.6561   -1.1505 C   0  0  0  0  0  0  0  0  0  0  0  0
    2.2625    0.2413   -1.7133 O   0  0  0  0  0  0  0  0  0  0  0  0
    4.1477   -0.4976   -0.6256 N   0  0  0  0  0  0  0  0  0  0  0  0
    1.1810   -2.0803    1.5718 H   0  0  0  0  0  0  0  0  0  0  0  0
    0.2674   -1.4541   -1.1756 H   0  0  0  0  0  0  0  0  0  0  0  0
    2.9716   -2.5365   -0.1788 H   0  0  0  0  0  0  0  0  0  0  0  0
    2.4916   -2.6282   -1.8755 H   0  0  0  0  0  0  0  0  0  0  0  0
    4.6216   -1.2674   -0.1650 H   0  0  0  0  0  0  0  0  0  0  0  0
    4.6505    0.3826   -0.6773 H   0  0  0  0  0  0  0  0  0  0  0  0
    0.1515   -3.9618   -1.8728 N   0  0  0  0  0  0  0  0  0  0  0  0
   -0.3795   -5.2719   -2.1637 C   0  0  2  0  0  0  0  0  0  0  0  0
   -1.7462   -5.3832   -1.5010 C   0  0  0  0  0  0  0  0  0  0  0  0
   -2.0878   -4.6873   -0.5470 O   0  0  0  0  0  0  0  0  0  0  0  0
    0.5532   -6.3684   -1.6735 C   0  0  0  0  0  0  0  0  0  0  0  0
    0.3889   -3.3556   -2.6525 H   0  0  0  0  0  0  0  0  0  0  0  0
   -0.4945   -5.3321   -3.2515 H   0  0  0  0  0  0  0  0  0  0  0  0
    0.6806   -6.3241   -0.5857 H   0  0  0  0  0  0  0  0  0  0  0  0
    0.1627   -7.3612   -1.9204 H   0  0  0  0  0  0  0  0  0  0  0  0
    1.5446   -6.2691   -2.1286 H   0  0  0  0  0  0  0  0  0  0  0  0
   -2.5237   -6.3808   -2.0725 N   0  0  0  0  0  0  0  0  0  0  0  0
   -3.8569   -6.6904   -1.6115 C   0  0  0  0  0  0  0  0  0  0  0  0
   -2.1672   -6.8956   -2.8723 H   0  0  0  0  0  0  0  0  0  0  0  0
   -3.8083   -7.4900   -0.8576 H   0  0  0  0  0  0  0  0  0  0  0  0
   -4.3081   -5.7922   -1.1647 H   0  0  0  0  0  0  0  0  0  0  0  0
   -4.4702   -7.0248   -2.4613 H   0  0  0  0  0  0  0  0  0  0  0  0
  1  3  1  0  0  0  0
  1  7  1  0  0  0  0
  1  2  2  0  0  0  0
 21 22  1  0  0  0  0
 22 24  1  0  0  0  0
 22 23  2  0  0  0  0
 32 33  1  0  0  0  0
 33 41  1  0  0  0  0
 33 34  2  0  0  0  0
  8  9  1  0  0  0  0
  9 17  1  0  0  0  0
  9 10  2  0  0  0  0
 18 19  1  0  0  0  0
 19 31  1  0  0  0  0
 19 20  2  0  0  0  0
 32 35  1  0  0  0  0
  8 11  1  0  0  0  0
 41 42  1  0  0  0  0
 18 21  1  0  0  0  0
 31 32  1  0  0  0  0
  7  8  1  0  0  0  0
 17 18  1  0  0  0  0
  3  4  1  0  0  0  0
  3  5  1  0  0  0  0
  3  6  1  0  0  0  0
 35 38  1  0  0  0  0
 35 39  1  0  0  0  0
 35 40  1  0  0  0  0
 11 14  1  0  0  0  0
 11 15  1  0  0  0  0
 11 16  1  0  0  0  0
 42 44  1  0  0  0  0
 42 45  1  0  0  0  0
 42 46  1  0  0  0  0
 21 27  1  0  0  0  0
 21 28  1  0  0  0  0
 32 37  1  0  0  0  0
  8 13  1  0  0  0  0
 18 26  1  0  0  0  0
 24 29  1  0  0  0  0
 24 30  1  0  0  0  0
 41 43  1  0  0  0  0
  7 12  1  0  0  0  0
 31 36  1  0  0  0  0
 17 25  1  0  0  0  0
M  END
$$$$

  -OEChem-05262214473D

 46 45  0     1  0  0  0  0  0999 V2000
   -0.0543    1.9736    3.8406 C   0  0  0  0  0  0  0  0  0  0  0  0
    0.6744    1.6099    4.7562 O   0  0  0  0  0  0  0  0  0  0  0  0
   -0.5599    3.3779    3.8160 C   0  0  0  0  0  0  0  0  0  0  0  0
   -1.5202    3.4885    4.3450 H   0  0  0  0  0  0  0  0  0  0  0  0
    0.1282    4.0814    4.3116 H   0  0  0  0  0  0  0  0  0  0  0  0
   -0.7317    3.7994    2.8126 H   0  0  0  0  0  0  0  0  0  0  0  0
   -0.4812    1.1968    2.7762 N   0  0  0  0  0  0  0  0  0  0  0  0
   -0.1106   -0.1834    2.6051 C   0  0  2  0  0  0  0  0  0  0  0  0
   -0.0696   -0.4775    1.1113 C   0  0  0  0  0  0  0  0  0  0  0  0
   -0.6805    0.1900    0.2792 O   0  0  0  0  0  0  0  0  0  0  0  0
   -1.0852   -1.1101    3.3150 C   0  0  0  0  0  0  0  0  0  0  0  0
   -1.0883    1.6241    2.0791 H   0  0  0  0  0  0  0  0  0  0  0  0
    0.8937   -0.2959    3.0277 H   0  0  0  0  0  0  0  0  0  0  0  0
   -2.0970   -1.0114    2.9051 H   0  0  0  0  0  0  0  0  0  0  0  0
   -0.7860   -2.1580    3.2078 H   0  0  0  0  0  0  0  0  0  0  0  0
   -1.1357   -0.8775    4.3842 H   0  0  0  0  0  0  0  0  0  0  0  0
    0.6950   -1.6003    0.8178 N   0  0  0  0  0  0  0  0  0  0  0  0
    0.8777   -2.0908   -0.5246 C   0  0  2  0  0  0  0  0  0  0  0  0
    0.0150   -3.3370   -0.6798 C   0  0  0  0  0  0  0  0  0  0  0  0
   -0.7173   -3.7622    0.2115 O   0  0  0  0  0  0  0  0  0  0  0  0
    2.3433   -2.4103   -0.8196 C   0  0  0  0  0  0  0  0  0  0  0  0
    3.2169   -1.1719   -0.9165 C   0  0  0  0  0  0  0  0  0  0  0  0
    2.8845   -0.1388   -1.4898 O   0  0  0  0  0  0  0  0  0  0  0  0
    4.4292   -1.3367   -0.2806 N   0  0  0  0  0  0  0  0  0  0  0  0
    1.1810   -2.0803    1.5718 H   0  0  0  0  0  0  0  0  0  0  0  0
    0.5004   -1.3109   -1.1963 H   0  0  0  0  0  0  0  0  0  0  0  0
    2.7627   -3.0387   -0.0237 H   0  0  0  0  0  0  0  0  0  0  0  0
    2.4332   -2.9739   -1.7572 H   0  0  0  0  0  0  0  0  0  0  0  0
    4.6603   -2.2084    0.1842 H   0  0  0  0  0  0  0  0  0  0  0  0
    5.1309   -0.6038   -0.2514 H   0  0  0  0  0  0  0  0  0  0  0  0
    0.1191   -3.8924   -1.9473 N   0  0  0  0  0  0  0  0  0  0  0  0
   -0.6286   -5.0650   -2.3335 C   0  0  2  0  0  0  0  0  0  0  0  0
   -2.1090   -4.7628   -2.1427 C   0  0  0  0  0  0  0  0  0  0  0  0
   -2.5229   -3.8895   -1.3830 O   0  0  0  0  0  0  0  0  0  0  0  0
   -0.2124   -6.2797   -1.5186 C   0  0  0  0  0  0  0  0  0  0  0  0
    0.7314   -3.4648   -2.6359 H   0  0  0  0  0  0  0  0  0  0  0  0
   -0.4239   -5.2348   -3.3962 H   0  0  0  0  0  0  0  0  0  0  0  0
   -0.4099   -6.1281   -0.4512 H   0  0  0  0  0  0  0  0  0  0  0  0
   -0.7601   -7.1745   -1.8323 H   0  0  0  0  0  0  0  0  0  0  0  0
    0.8588   -6.4778   -1.6336 H   0  0  0  0  0  0  0  0  0  0  0  0
   -2.9153   -5.6117   -2.8879 N   0  0  0  0  0  0  0  0  0  0  0  0
   -4.3573   -5.5343   -2.8680 C   0  0  0  0  0  0  0  0  0  0  0  0
   -2.4858   -6.2945   -3.5054 H   0  0  0  0  0  0  0  0  0  0  0  0
   -4.7513   -6.2193   -2.1028 H   0  0  0  0  0  0  0  0  0  0  0  0
   -4.6659   -4.5051   -2.6325 H   0  0  0  0  0  0  0  0  0  0  0  0
   -4.7534   -5.8193   -3.8539 H   0  0  0  0  0  0  0  0  0  0  0  0
  1  3  1  0  0  0  0
  1  7  1  0  0  0  0
  1  2  2  0  0  0  0
 21 22  1  0  0  0  0
 22 24  1  0  0  0  0
 22 23  2  0  0  0  0
 32 33  1  0  0  0  0
 33 41  1  0  0  0  0
 33 34  2  0  0  0  0
  8  9  1  0  0  0  0
  9 17  1  0  0  0  0
  9 10  2  0  0  0  0
 18 19  1  0  0  0  0
 19 31  1  0  0  0  0
 19 20  2  0  0  0  0
 32 35  1  0  0  0  0
  8 11  1  0  0  0  0
 41 42  1  0  0  0  0
 18 21  1  0  0  0  0
 31 32  1  0  0  0  0
  7  8  1  0  0  0  0
 17 18  1  0  0  0  0
  3  4  1  0  0  0  0
  3  5  1  0  0  0  0
  3  6  1  0  0  0  0
 35 38  1  0  0  0  0
 35 39  1  0  0  0  0
 35 40  1  0  0  0  0
 11 14  1  0  0  0  0
 11 15  1  0  0  0  0
 11 16  1  0  0  0  0
 42 44  1  0  0  0  0
 42 45  1  0  0  0  0
 42 46  1  0  0  0  0
 21 27  1  0  0  0  0
 21 28  1  0  0  0  0
 32 37  1  0  0  0  0
  8 13  1  0  0  0  0
 18 26  1  0  0  0  0
 24 29  1  0  0  0  0
 24 30  1  0  0  0  0
 41 43  1  0  0  0  0
  7 12  1  0  0  0  0
 31 36  1  0  0  0  0
 17 25  1  0  0  0  0
M  END
$$$$

  -OEChem-05262214473D

 46 45  0     1  0  0  0  0  0999 V2000
   -0.0543    1.9736    3.8406 C   0  0  0  0  0  0  0  0  0  0  0  0
    0.6744    1.6099    4.7562 O   0  0  0  0  0  0  0  0  0  0  0  0
   -0.5599    3.3779    3.8160 C   0  0  0  0  0  0  0  0  0  0  0  0
   -1.5202    3.4885    4.3450 H   0  0  0  0  0  0  0  0  0  0  0  0
    0.1282    4.0814    4.3116 H   0  0  0  0  0  0  0  0  0  0  0  0
   -0.7317    3.7994    2.8126 H   0  0  0  0  0  0  0  0  0  0  0  0
   -0.4812    1.1968    2.7762 N   0  0  0  0  0  0  0  0  0  0  0  0
   -0.1106   -0.1834    2.6051 C   0  0  2  0  0  0  0  0  0  0  0  0
   -0.0696   -0.4775    1.1113 C   0  0  0  0  0  0  0  0  0  0  0  0
   -0.6805    0.1900    0.2792 O   0  0  0  0  0  0  0  0  0  0  0  0
   -1.0852   -1.1101    3.3150 C   0  0  0  0  0  0  0  0  0  0  0  0
   -1.0883    1.6241    2.0791 H   0  0  0  0  0  0  0  0  0  0  0  0
    0.8937   -0.2959    3.0277 H   0  0  0  0  0  0  0  0  0  0  0  0
   -2.0970   -1.0114    2.9051 H   0  0  0  0  0  0  0  0  0  0  0  0
   -0.7860   -2.1580    3.2078 H   0  0  0  0  0  0  0  0  0  0  0  0
   -1.1357   -0.8775    4.3842 H   0  0  0  0  0  0  0  0  0  0  0  0
    0.6950   -1.6003    0.8178 N   0  0  0  0  0  0  0  0  0  0  0  0
    0.8777   -2.0908   -0.5246 C   0  0  2  0  0  0  0  0  0  0  0  0
    0.0150   -3.3370   -0.6798 C   0  0  0  0  0  0  0  0  0  0  0  0
   -0.9052   -3.6165    0.0861 O   0  0  0  0  0  0  0  0  0  0  0  0
    2.3433   -2.4103   -0.8196 C   0  0  0  0  0  0  0  0  0  0  0  0
    3.2169   -1.1719   -0.9165 C   0  0  0  0  0  0  0  0  0  0  0  0
    2.8845   -0.1388   -1.4898 O   0  0  0  0  0  0  0  0  0  0  0  0
    4.4292   -1.3367   -0.2806 N   0  0  0  0  0  0  0  0  0  0  0  0
    1.1810   -2.0803    1.5718 H   0  0  0  0  0  0  0  0  0  0  0  0
    0.5004   -1.3109   -1.1963 H   0  0  0  0  0  0  0  0  0  0  0  0
    2.7627   -3.0387   -0.0237 H   0  0  0  0  0  0  0  0  0  0  0  0
    2.4332   -2.9739   -1.7572 H   0  0  0  0  0  0  0  0  0  0  0  0
    4.6603   -2.2084    0.1842 H   0  0  0  0  0  0  0  0  0  0  0  0
    5.1309   -0.6038   -0.2514 H   0  0  0  0  0  0  0  0  0  0  0  0
    0.3591   -4.0766   -1.8026 N   0  0  0  0  0  0  0  0  0  0  0  0
   -0.3397   -5.2857   -2.1669 C   0  0  2  0  0  0  0  0  0  0  0  0
   -1.8131   -4.9427   -2.3424 C   0  0  0  0  0  0  0  0  0  0  0  0
   -2.3399   -3.9614   -1.8222 O   0  0  0  0  0  0  0  0  0  0  0  0
   -0.1552   -6.3694   -1.1161 C   0  0  0  0  0  0  0  0  0  0  0  0
    1.1197   -3.7632   -2.3985 H   0  0  0  0  0  0  0  0  0  0  0  0
    0.0760   -5.6146   -3.1256 H   0  0  0  0  0  0  0  0  0  0  0  0
   -0.5656   -6.0580   -0.1486 H   0  0  0  0  0  0  0  0  0  0  0  0
   -0.6622   -7.2952   -1.4076 H   0  0  0  0  0  0  0  0  0  0  0  0
    0.9069   -6.5938   -0.9698 H   0  0  0  0  0  0  0  0  0  0  0  0
   -2.4802   -5.8849   -3.1127 N   0  0  0  0  0  0  0  0  0  0  0  0
   -3.8898   -5.7901   -3.4127 C   0  0  0  0  0  0  0  0  0  0  0  0
   -1.9599   -6.6567   -3.5195 H   0  0  0  0  0  0  0  0  0  0  0  0
   -4.4640   -6.3489   -2.6590 H   0  0  0  0  0  0  0  0  0  0  0  0
   -4.1972   -4.7340   -3.3989 H   0  0  0  0  0  0  0  0  0  0  0  0
   -4.0819   -6.2149   -4.4090 H   0  0  0  0  0  0  0  0  0  0  0  0
  1  3  1  0  0  0  0
  1  7  1  0  0  0  0
  1  2  2  0  0  0  0
 21 22  1  0  0  0  0
 22 24  1  0  0  0  0
 22 23  2  0  0  0  0
 32 33  1  0  0  0  0
 33 41  1  0  0  0  0
 33 34  2  0  0  0  0
  8  9  1  0  0  0  0
  9 17  1  0  0  0  0
  9 10  2  0  0  0  0
 18 19  1  0  0  0  0
 19 31  1  0  0  0  0
 19 20  2  0  0  0  0
 32 35  1  0  0  0  0
  8 11  1  0  0  0  0
 41 42  1  0  0  0  0
 18 21  1  0  0  0  0
 31 32  1  0  0  0  0
  7  8  1  0  0  0  0
 17 18  1  0  0  0  0
  3  4  1  0  0  0  0
  3  5  1  0  0  0  0
  3  6  1  0  0  0  0
 35 38  1  0  0  0  0
 35 39  1  0  0  0  0
 35 40  1  0  0  0  0
 11 14  1  0  0  0  0
 11 15  1  0  0  0  0
 11 16  1  0  0  0  0
 42 44  1  0  0  0  0
 42 45  1  0  0  0  0
 42 46  1  0  0  0  0
 21 27  1  0  0  0  0
 21 28  1  0  0  0  0
 32 37  1  0  0  0  0
  8 13  1  0  0  0  0
 18 26  1  0  0  0  0
 24 29  1  0  0  0  0
 24 30  1  0  0  0  0
 41 43  1  0  0  0  0
  7 12  1  0  0  0  0
 31 36  1  0  0  0  0
 17 25  1  0  0  0  0
M  END
$$$$

  -OEChem-05262214473D

 46 45  0     1  0  0  0  0  0999 V2000
   -0.0543    1.9736    3.8406 C   0  0  0  0  0  0  0  0  0  0  0  0
    0.6744    1.6099    4.7562 O   0  0  0  0  0  0  0  0  0  0  0  0
   -0.5599    3.3779    3.8160 C   0  0  0  0  0  0  0  0  0  0  0  0
   -1.5202    3.4885    4.3450 H   0  0  0  0  0  0  0  0  0  0  0  0
    0.1282    4.0814    4.3116 H   0  0  0  0  0  0  0  0  0  0  0  0
   -0.7317    3.7994    2.8126 H   0  0  0  0  0  0  0  0  0  0  0  0
   -0.4812    1.1968    2.7762 N   0  0  0  0  0  0  0  0  0  0  0  0
   -0.1106   -0.1834    2.6051 C   0  0  2  0  0  0  0  0  0  0  0  0
   -0.0696   -0.4775    1.1113 C   0  0  0  0  0  0  0  0  0  0  0  0
   -0.6805    0.1900    0.2792 O   0  0  0  0  0  0  0  0  0  0  0  0
   -1.0852   -1.1101    3.3150 C   0  0  0  0  0  0  0  0  0  0  0  0
   -1.0883    1.6241    2.0791 H   0  0  0  0  0  0  0  0  0  0  0  0
    0.8937   -0.2959    3.0277 H   0  0  0  0  0  0  0  0  0  0  0  0
   -2.0970   -1.0114    2.9051 H   0  0  0  0  0  0  0  0  0  0  0  0
   -0.7860   -2.1580    3.2078 H   0  0  0  0  0  0  0  0  0  0  0  0
   -1.1357   -0.8775    4.3842 H   0  0  0  0  0  0  0  0  0  0  0  0
    0.6950   -1.6003    0.8178 N   0  0  0  0  0  0  0  0  0  0  0  0
    0.8777   -2.0908   -0.5246 C   0  0  2  0  0  0  0  0  0  0  0  0
    0.0150   -3.3370   -0.6798 C   0  0  0  0  0  0  0  0  0  0  0  0
   -1.0563   -3.4892   -0.0962 O   0  0  0  0  0  0  0  0  0  0  0  0
    2.3433   -2.4103   -0.8196 C   0  0  0  0  0  0  0  0  0  0  0  0
    3.2169   -1.1719   -0.9165 C   0  0  0  0  0  0  0  0  0  0  0  0
    2.8845   -0.1388   -1.4898 O   0  0  0  0  0  0  0  0  0  0  0  0
    4.4292   -1.3367   -0.2806 N   0  0  0  0  0  0  0  0  0  0  0  0
    1.1810   -2.0803    1.5718 H   0  0  0  0  0  0  0  0  0  0  0  0
    0.5004   -1.3109   -1.1963 H   0  0  0  0  0  0  0  0  0  0  0  0
    2.7627   -3.0387   -0.0237 H   0  0  0  0  0  0  0  0  0  0  0  0
    2.4332   -2.9739   -1.7572 H   0  0  0  0  0  0  0  0  0  0  0  0
    4.6603   -2.2084    0.1842 H   0  0  0  0  0  0  0  0  0  0  0  0
    5.1309   -0.6038   -0.2514 H   0  0  0  0  0  0  0  0  0  0  0  0
    0.5555   -4.2396   -1.5849 N   0  0  0  0  0  0  0  0  0  0  0  0
   -0.1017   -5.4821   -1.9125 C   0  0  2  0  0  0  0  0  0  0  0  0
   -1.4898   -5.1536   -2.4462 C   0  0  0  0  0  0  0  0  0  0  0  0
   -2.0721   -4.1001   -2.1971 O   0  0  0  0  0  0  0  0  0  0  0  0
   -0.1876   -6.3986   -0.7020 C   0  0  0  0  0  0  0  0  0  0  0  0
    1.4366   -4.0268   -2.0433 H   0  0  0  0  0  0  0  0  0  0  0  0
    0.4916   -5.9549   -2.7028 H   0  0  0  0  0  0  0  0  0  0  0  0
   -0.7783   -5.9418    0.1004 H   0  0  0  0  0  0  0  0  0  0  0  0
   -0.6607   -7.3521   -0.9590 H   0  0  0  0  0  0  0  0  0  0  0  0
    0.8098   -6.6098   -0.3015 H   0  0  0  0  0  0  0  0  0  0  0  0
   -2.0195   -6.1932   -3.1977 N   0  0  0  0  0  0  0  0  0  0  0  0
   -3.3295   -6.1293   -3.8024 C   0  0  0  0  0  0  0  0  0  0  0  0
   -1.4585   -7.0226   -3.3686 H   0  0  0  0  0  0  0  0  0  0  0  0
   -4.0721   -6.5632   -3.1165 H   0  0  0  0  0  0  0  0  0  0  0  0
   -3.5882   -5.0799   -4.0065 H   0  0  0  0  0  0  0  0  0  0  0  0
   -3.3261   -6.6962   -4.7451 H   0  0  0  0  0  0  0  0  0  0  0  0
  1  3  1  0  0  0  0
  1  7  1  0  0  0  0
  1  2  2  0  0  0  0
 21 22  1  0  0  0  0
 22 24  1  0  0  0  0
 22 23  2  0  0  0  0
 32 33  1  0  0  0  0
 33 41  1  0  0  0  0
 33 34  2  0  0  0  0
  8  9  1  0  0  0  0
  9 17  1  0  0  0  0
  9 10  2  0  0  0  0
 18 19  1  0  0  0  0
 19 31  1  0  0  0  0
 19 20  2  0  0  0  0
 32 35  1  0  0  0  0
  8 11  1  0  0  0  0
 41 42  1  0  0  0  0
 18 21  1  0  0  0  0
 31 32  1  0  0  0  0
  7  8  1  0  0  0  0
 17 18  1  0  0  0  0
  3  4  1  0  0  0  0
  3  5  1  0  0  0  0
  3  6  1  0  0  0  0
 35 38  1  0  0  0  0
 35 39  1  0  0  0  0
 35 40  1  0  0  0  0
 11 14  1  0  0  0  0
 11 15  1  0  0  0  0
 11 16  1  0  0  0  0
 42 44  1  0  0  0  0
 42 45  1  0  0  0  0
 42 46  1  0  0  0  0
 21 27  1  0  0  0  0
 21 28  1  0  0  0  0
 32 37  1  0  0  0  0
  8 13  1  0  0  0  0
 18 26  1  0  0  0  0
 24 29  1  0  0  0  0
 24 30  1  0  0  0  0
 41 43  1  0  0  0  0
  7 12  1  0  0  0  0
 31 36  1  0  0  0  0
 17 25  1  0  0  0  0
M  END
$$$$

  -OEChem-05262214473D

 46 45  0     1  0  0  0  0  0999 V2000
   -0.0543    1.9736    3.8406 C   0  0  0  0  0  0  0  0  0  0  0  0
    0.6744    1.6099    4.7562 O   0  0  0  0  0  0  0  0  0  0  0  0
   -0.5599    3.3779    3.8160 C   0  0  0  0  0  0  0  0  0  0  0  0
   -1.5202    3.4885    4.3450 H   0  0  0  0  0  0  0  0  0  0  0  0
    0.1282    4.0814    4.3116 H   0  0  0  0  0  0  0  0  0  0  0  0
   -0.7317    3.7994    2.8126 H   0  0  0  0  0  0  0  0  0  0  0  0
   -0.4812    1.1968    2.7762 N   0  0  0  0  0  0  0  0  0  0  0  0
   -0.1106   -0.1834    2.6051 C   0  0  2  0  0  0  0  0  0  0  0  0
   -0.0696   -0.4775    1.1113 C   0  0  0  0  0  0  0  0  0  0  0  0
   -0.6805    0.1900    0.2792 O   0  0  0  0  0  0  0  0  0  0  0  0
   -1.0852   -1.1101    3.3150 C   0  0  0  0  0  0  0  0  0  0  0  0
   -1.0883    1.6241    2.0791 H   0  0  0  0  0  0  0  0  0  0  0  0
    0.8937   -0.2959    3.0277 H   0  0  0  0  0  0  0  0  0  0  0  0
   -2.0970   -1.0114    2.9051 H   0  0  0  0  0  0  0  0  0  0  0  0
   -0.7860   -2.1580    3.2078 H   0  0  0  0  0  0  0  0  0  0  0  0
   -1.1357   -0.8775    4.3842 H   0  0  0  0  0  0  0  0  0  0  0  0
    0.6950   -1.6003    0.8178 N   0  0  0  0  0  0  0  0  0  0  0  0
    0.8777   -2.0908   -0.5246 C   0  0  2  0  0  0  0  0  0  0  0  0
    0.0150   -3.3370   -0.6798 C   0  0  0  0  0  0  0  0  0  0  0  0
   -1.1603   -3.3890   -0.3229 O   0  0  0  0  0  0  0  0  0  0  0  0
    2.3433   -2.4103   -0.8196 C   0  0  0  0  0  0  0  0  0  0  0  0
    3.2169   -1.1719   -0.9165 C   0  0  0  0  0  0  0  0  0  0  0  0
    2.8845   -0.1388   -1.4898 O   0  0  0  0  0  0  0  0  0  0  0  0
    4.4292   -1.3367   -0.2806 N   0  0  0  0  0  0  0  0  0  0  0  0
    1.1810   -2.0803    1.5718 H   0  0  0  0  0  0  0  0  0  0  0  0
    0.5004   -1.3109   -1.1963 H   0  0  0  0  0  0  0  0  0  0  0  0
    2.7627   -3.0387   -0.0237 H   0  0  0  0  0  0  0  0  0  0  0  0
    2.4332   -2.9739   -1.7572 H   0  0  0  0  0  0  0  0  0  0  0  0
    4.6603   -2.2084    0.1842 H   0  0  0  0  0  0  0  0  0  0  0  0
    5.1309   -0.6038   -0.2514 H   0  0  0  0  0  0  0  0  0  0  0  0
    0.6948   -4.3703   -1.3092 N   0  0  0  0  0  0  0  0  0  0  0  0
    0.0692   -5.6409   -1.5877 C   0  0  2  0  0  0  0  0  0  0  0  0
   -1.1610   -5.3811   -2.4471 C   0  0  0  0  0  0  0  0  0  0  0  0
   -1.7377   -4.2961   -2.4823 O   0  0  0  0  0  0  0  0  0  0  0  0
   -0.3073   -6.3653   -0.3046 C   0  0  0  0  0  0  0  0  0  0  0  0
    1.6606   -4.2378   -1.5944 H   0  0  0  0  0  0  0  0  0  0  0  0
    0.7946   -6.2326   -2.1566 H   0  0  0  0  0  0  0  0  0  0  0  0
   -1.0334   -5.7875    0.2789 H   0  0  0  0  0  0  0  0  0  0  0  0
   -0.7557   -7.3414   -0.5170 H   0  0  0  0  0  0  0  0  0  0  0  0
    0.5742   -6.5248    0.3259 H   0  0  0  0  0  0  0  0  0  0  0  0
   -1.5647   -6.5156   -3.1371 N   0  0  0  0  0  0  0  0  0  0  0  0
   -2.7149   -6.5289   -4.0105 C   0  0  0  0  0  0  0  0  0  0  0  0
   -1.0158   -7.3671   -3.0632 H   0  0  0  0  0  0  0  0  0  0  0  0
   -3.6024   -6.8475   -3.4441 H   0  0  0  0  0  0  0  0  0  0  0  0
   -2.8805   -5.5190   -4.4138 H   0  0  0  0  0  0  0  0  0  0  0  0
   -2.5377   -7.2302   -4.8392 H   0  0  0  0  0  0  0  0  0  0  0  0
  1  3  1  0  0  0  0
  1  7  1  0  0  0  0
  1  2  2  0  0  0  0
 21 22  1  0  0  0  0
 22 24  1  0  0  0  0
 22 23  2  0  0  0  0
 32 33  1  0  0  0  0
 33 41  1  0  0  0  0
 33 34  2  0  0  0  0
  8  9  1  0  0  0  0
  9 17  1  0  0  0  0
  9 10  2  0  0  0  0
 18 19  1  0  0  0  0
 19 31  1  0  0  0  0
 19 20  2  0  0  0  0
 32 35  1  0  0  0  0
  8 11  1  0  0  0  0
 41 42  1  0  0  0  0
 18 21  1  0  0  0  0
 31 32  1  0  0  0  0
  7  8  1  0  0  0  0
 17 18  1  0  0  0  0
  3  4  1  0  0  0  0
  3  5  1  0  0  0  0
  3  6  1  0  0  0  0
 35 38  1  0  0  0  0
 35 39  1  0  0  0  0
 35 40  1  0  0  0  0
 11 14  1  0  0  0  0
 11 15  1  0  0  0  0
 11 16  1  0  0  0  0
 42 44  1  0  0  0  0
 42 45  1  0  0  0  0
 42 46  1  0  0  0  0
 21 27  1  0  0  0  0
 21 28  1  0  0  0  0
 32 37  1  0  0  0  0
  8 13  1  0  0  0  0
 18 26  1  0  0  0  0
 24 29  1  0  0  0  0
 24 30  1  0  0  0  0
 41 43  1  0  0  0  0
  7 12  1  0  0  0  0
 31 36  1  0  0  0  0
 17 25  1  0  0  0  0
M  END
$$$$

  -OEChem-05262214473D

 46 45  0     1  0  0  0  0  0999 V2000
   -0.0543    1.9736    3.8406 C   0  0  0  0  0  0  0  0  0  0  0  0
    0.6744    1.6099    4.7562 O   0  0  0  0  0  0  0  0  0  0  0  0
   -0.5599    3.3779    3.8160 C   0  0  0  0  0  0  0  0  0  0  0  0
   -1.5202    3.4885    4.3450 H   0  0  0  0  0  0  0  0  0  0  0  0
    0.1282    4.0814    4.3116 H   0  0  0  0  0  0  0  0  0  0  0  0
   -0.7317    3.7994    2.8126 H   0  0  0  0  0  0  0  0  0  0  0  0
   -0.4812    1.1968    2.7762 N   0  0  0  0  0  0  0  0  0  0  0  0
   -0.1106   -0.1834    2.6051 C   0  0  2  0  0  0  0  0  0  0  0  0
   -0.0696   -0.4775    1.1113 C   0  0  0  0  0  0  0  0  0  0  0  0
   -0.6805    0.1900    0.2792 O   0  0  0  0  0  0  0  0  0  0  0  0
   -1.0852   -1.1101    3.3150 C   0  0  0  0  0  0  0  0  0  0  0  0
   -1.0883    1.6241    2.0791 H   0  0  0  0  0  0  0  0  0  0  0  0
    0.8937   -0.2959    3.0277 H   0  0  0  0  0  0  0  0  0  0  0  0
   -2.0970   -1.0114    2.9051 H   0  0  0  0  0  0  0  0  0  0  0  0
   -0.7860   -2.1580    3.2078 H   0  0  0  0  0  0  0  0  0  0  0  0
   -1.1357   -0.8775    4.3842 H   0  0  0  0  0  0  0  0  0  0  0  0
    0.6950   -1.6003    0.8178 N   0  0  0  0  0  0  0  0  0  0  0  0
    0.8777   -2.0908   -0.5246 C   0  0  2  0  0  0  0  0  0  0  0  0
    0.0150   -3.3370   -0.6798 C   0  0  0  0  0  0  0  0  0  0  0  0
   -1.2101   -3.3227   -0.5786 O   0  0  0  0  0  0  0  0  0  0  0  0
    2.3433   -2.4103   -0.8196 C   0  0  0  0  0  0  0  0  0  0  0  0
    3.2169   -1.1719   -0.9165 C   0  0  0  0  0  0  0  0  0  0  0  0
    2.8845   -0.1388   -1.4898 O   0  0  0  0  0  0  0  0  0  0  0  0
    4.4292   -1.3367   -0.2806 N   0  0  0  0  0  0  0  0  0  0  0  0
    1.1810   -2.0803    1.5718 H   0  0  0  0  0  0  0  0  0  0  0  0
    0.5004   -1.3109   -1.1963 H   0  0  0  0  0  0  0  0  0  0  0  0
    2.7627   -3.0387   -0.0237 H   0  0  0  0  0  0  0  0  0  0  0  0
    2.4332   -2.9739   -1.7572 H   0  0  0  0  0  0  0  0  0  0  0  0
    4.6603   -2.2084    0.1842 H   0  0  0  0  0  0  0  0  0  0  0  0
    5.1309   -0.6038   -0.2514 H   0  0  0  0  0  0  0  0  0  0  0  0
    0.7675   -4.4599   -0.9943 N   0  0  0  0  0  0  0  0  0  0  0  0
    0.1613   -5.7511   -1.2144 C   0  0  2  0  0  0  0  0  0  0  0  0
   -0.8493   -5.6096   -2.3450 C   0  0  0  0  0  0  0  0  0  0  0  0
   -1.3595   -4.5359   -2.6582 O   0  0  0  0  0  0  0  0  0  0  0  0
   -0.5061   -6.2716    0.0491 C   0  0  0  0  0  0  0  0  0  0  0  0
    1.7764   -4.3816   -1.0825 H   0  0  0  0  0  0  0  0  0  0  0  0
    0.9642   -6.4288   -1.5242 H   0  0  0  0  0  0  0  0  0  0  0  0
   -1.3134   -5.6056    0.3747 H   0  0  0  0  0  0  0  0  0  0  0  0
   -0.9408   -7.2637   -0.1117 H   0  0  0  0  0  0  0  0  0  0  0  0
    0.2159   -6.3446    0.8695 H   0  0  0  0  0  0  0  0  0  0  0  0
   -1.1467   -6.8301   -2.9350 N   0  0  0  0  0  0  0  0  0  0  0  0
   -2.0876   -6.9615   -4.0228 C   0  0  0  0  0  0  0  0  0  0  0  0
   -0.6619   -7.6667   -2.6240 H   0  0  0  0  0  0  0  0  0  0  0  0
   -3.0868   -7.1826   -3.6193 H   0  0  0  0  0  0  0  0  0  0  0  0
   -2.1223   -6.0215   -4.5930 H   0  0  0  0  0  0  0  0  0  0  0  0
   -1.7703   -7.7806   -4.6849 H   0  0  0  0  0  0  0  0  0  0  0  0
  1  3  1  0  0  0  0
  1  7  1  0  0  0  0
  1  2  2  0  0  0  0
 21 22  1  0  0  0  0
 22 24  1  0  0  0  0
 22 23  2  0  0  0  0
 32 33  1  0  0  0  0
 33 41  1  0  0  0  0
 33 34  2  0  0  0  0
  8  9  1  0  0  0  0
  9 17  1  0  0  0  0
  9 10  2  0  0  0  0
 18 19  1  0  0  0  0
 19 31  1  0  0  0  0
 19 20  2  0  0  0  0
 32 35  1  0  0  0  0
  8 11  1  0  0  0  0
 41 42  1  0  0  0  0
 18 21  1  0  0  0  0
 31 32  1  0  0  0  0
  7  8  1  0  0  0  0
 17 18  1  0  0  0  0
  3  4  1  0  0  0  0
  3  5  1  0  0  0  0
  3  6  1  0  0  0  0
 35 38  1  0  0  0  0
 35 39  1  0  0  0  0
 35 40  1  0  0  0  0
 11 14  1  0  0  0  0
 11 15  1  0  0  0  0
 11 16  1  0  0  0  0
 42 44  1  0  0  0  0
 42 45  1  0  0  0  0
 42 46  1  0  0  0  0
 21 27  1  0  0  0  0
 21 28  1  0  0  0  0
 32 37  1  0  0  0  0
  8 13  1  0  0  0  0
 18 26  1  0  0  0  0
 24 29  1  0  0  0  0
 24 30  1  0  0  0  0
 41 43  1  0  0  0  0
  7 12  1  0  0  0  0
 31 36  1  0  0  0  0
 17 25  1  0  0  0  0
M  END
$$$$

  -OEChem-05262214473D

 46 45  0     1  0  0  0  0  0999 V2000
   -0.0543    1.9736    3.8406 C   0  0  0  0  0  0  0  0  0  0  0  0
    0.6744    1.6099    4.7562 O   0  0  0  0  0  0  0  0  0  0  0  0
   -0.5599    3.3779    3.8160 C   0  0  0  0  0  0  0  0  0  0  0  0
   -1.5202    3.4885    4.3450 H   0  0  0  0  0  0  0  0  0  0  0  0
    0.1282    4.0814    4.3116 H   0  0  0  0  0  0  0  0  0  0  0  0
   -0.7317    3.7994    2.8126 H   0  0  0  0  0  0  0  0  0  0  0  0
   -0.4812    1.1968    2.7762 N   0  0  0  0  0  0  0  0  0  0  0  0
   -0.1106   -0.1834    2.6051 C   0  0  2  0  0  0  0  0  0  0  0  0
   -0.0696   -0.4775    1.1113 C   0  0  0  0  0  0  0  0  0  0  0  0
   -0.6805    0.1900    0.2792 O   0  0  0  0  0  0  0  0  0  0  0  0
   -1.0852   -1.1101    3.3150 C   0  0  0  0  0  0  0  0  0  0  0  0
   -1.0883    1.6241    2.0791 H   0  0  0  0  0  0  0  0  0  0  0  0
    0.8937   -0.2959    3.0277 H   0  0  0  0  0  0  0  0  0  0  0  0
   -2.0970   -1.0114    2.9051 H   0  0  0  0  0  0  0  0  0  0  0  0
   -0.7860   -2.1580    3.2078 H   0  0  0  0  0  0  0  0  0  0  0  0
   -1.1357   -0.8775    4.3842 H   0  0  0  0  0  0  0  0  0  0  0  0
    0.6950   -1.6003    0.8178 N   0  0  0  0  0  0  0  0  0  0  0  0
    0.8777   -2.0908   -0.5246 C   0  0  2  0  0  0  0  0  0  0  0  0
    0.0150   -3.3370   -0.6798 C   0  0  0  0  0  0  0  0  0  0  0  0
   -1.2024   -3.2948   -0.8459 O   0  0  0  0  0  0  0  0  0  0  0  0
    2.3433   -2.4103   -0.8196 C   0  0  0  0  0  0  0  0  0  0  0  0
    3.2169   -1.1719   -0.9165 C   0  0  0  0  0  0  0  0  0  0  0  0
    2.8845   -0.1388   -1.4898 O   0  0  0  0  0  0  0  0  0  0  0  0
    4.4292   -1.3367   -0.2806 N   0  0  0  0  0  0  0  0  0  0  0  0
    1.1810   -2.0803    1.5718 H   0  0  0  0  0  0  0  0  0  0  0  0
    0.5004   -1.3109   -1.1963 H   0  0  0  0  0  0  0  0  0  0  0  0
    2.7627   -3.0387   -0.0237 H   0  0  0  0  0  0  0  0  0  0  0  0
    2.4332   -2.9739   -1.7572 H   0  0  0  0  0  0  0  0  0  0  0  0
    4.6603   -2.2084    0.1842 H   0  0  0  0  0  0  0  0  0  0  0  0
    5.1309   -0.6038   -0.2514 H   0  0  0  0  0  0  0  0  0  0  0  0
    0.7687   -4.5022   -0.6615 N   0  0  0  0  0  0  0  0  0  0  0  0
    0.1683   -5.8053   -0.8182 C   0  0  2  0  0  0  0  0  0  0  0  0
   -0.5758   -5.8235   -2.1470 C   0  0  0  0  0  0  0  0  0  0  0  0
   -0.9633   -4.8034   -2.7129 O   0  0  0  0  0  0  0  0  0  0  0  0
   -0.7706   -6.1242    0.3348 C   0  0  0  0  0  0  0  0  0  0  0  0
    1.7760   -4.4487   -0.5425 H   0  0  0  0  0  0  0  0  0  0  0  0
    0.9890   -6.5301   -0.8486 H   0  0  0  0  0  0  0  0  0  0  0  0
   -1.5995   -5.4084    0.3813 H   0  0  0  0  0  0  0  0  0  0  0  0
   -1.2033   -7.1245    0.2292 H   0  0  0  0  0  0  0  0  0  0  0  0
   -0.2404   -6.0813    1.2924 H   0  0  0  0  0  0  0  0  0  0  0  0
   -0.7940   -7.1153   -2.6052 N   0  0  0  0  0  0  0  0  0  0  0  0
   -1.4906   -7.3978   -3.8385 C   0  0  0  0  0  0  0  0  0  0  0  0
   -0.4209   -7.9012   -2.0809 H   0  0  0  0  0  0  0  0  0  0  0  0
   -2.5605   -7.5455   -3.6303 H   0  0  0  0  0  0  0  0  0  0  0  0
   -1.3652   -6.5532   -4.5320 H   0  0  0  0  0  0  0  0  0  0  0  0
   -1.0762   -8.3099   -4.2928 H   0  0  0  0  0  0  0  0  0  0  0  0
  1  3  1  0  0  0  0
  1  7  1  0  0  0  0
  1  2  2  0  0  0  0
 21 22  1  0  0  0  0
 22 24  1  0  0  0  0
 22 23  2  0  0  0  0
 32 33  1  0  0  0  0
 33 41  1  0  0  0  0
 33 34  2  0  0  0  0
  8  9  1  0  0  0  0
  9 17  1  0  0  0  0
  9 10  2  0  0  0  0
 18 19  1  0  0  0  0
 19 31  1  0  0  0  0
 19 20  2  0  0  0  0
 32 35  1  0  0  0  0
  8 11  1  0  0  0  0
 41 42  1  0  0  0  0
 18 21  1  0  0  0  0
 31 32  1  0  0  0  0
  7  8  1  0  0  0  0
 17 18  1  0  0  0  0
  3  4  1  0  0  0  0
  3  5  1  0  0  0  0
  3  6  1  0  0  0  0
 35 38  1  0  0  0  0
 35 39  1  0  0  0  0
 35 40  1  0  0  0  0
 11 14  1  0  0  0  0
 11 15  1  0  0  0  0
 11 16  1  0  0  0  0
 42 44  1  0  0  0  0
 42 45  1  0  0  0  0
 42 46  1  0  0  0  0
 21 27  1  0  0  0  0
 21 28  1  0  0  0  0
 32 37  1  0  0  0  0
  8 13  1  0  0  0  0
 18 26  1  0  0  0  0
 24 29  1  0  0  0  0
 24 30  1  0  0  0  0
 41 43  1  0  0  0  0
  7 12  1  0  0  0  0
 31 36  1  0  0  0  0
 17 25  1  0  0  0  0
M  END
$$$$

  -OEChem-05262214473D

 46 45  0     1  0  0  0  0  0999 V2000
   -0.0543    1.9736    3.8406 C   0  0  0  0  0  0  0  0  0  0  0  0
    0.6744    1.6099    4.7562 O   0  0  0  0  0  0  0  0  0  0  0  0
   -0.5599    3.3779    3.8160 C   0  0  0  0  0  0  0  0  0  0  0  0
   -1.5202    3.4885    4.3450 H   0  0  0  0  0  0  0  0  0  0  0  0
    0.1282    4.0814    4.3116 H   0  0  0  0  0  0  0  0  0  0  0  0
   -0.7317    3.7994    2.8126 H   0  0  0  0  0  0  0  0  0  0  0  0
   -0.4812    1.1968    2.7762 N   0  0  0  0  0  0  0  0  0  0  0  0
   -0.1106   -0.1834    2.6051 C   0  0  2  0  0  0  0  0  0  0  0  0
   -0.0696   -0.4775    1.1113 C   0  0  0  0  0  0  0  0  0  0  0  0
   -0.6805    0.1900    0.2792 O   0  0  0  0  0  0  0  0  0  0  0  0
   -1.0852   -1.1101    3.3150 C   0  0  0  0  0  0  0  0  0  0  0  0
   -1.0883    1.6241    2.0791 H   0  0  0  0  0  0  0  0  0  0  0  0
    0.8937   -0.2959    3.0277 H   0  0  0  0  0  0  0  0  0  0  0  0
   -2.0970   -1.0114    2.9051 H   0  0  0  0  0  0  0  0  0  0  0  0
   -0.7860   -2.1580    3.2078 H   0  0  0  0  0  0  0  0  0  0  0  0
   -1.1357   -0.8775    4.3842 H   0  0  0  0  0  0  0  0  0  0  0  0
    0.6950   -1.6003    0.8178 N   0  0  0  0  0  0  0  0  0  0  0  0
    0.8777   -2.0908   -0.5246 C   0  0  2  0  0  0  0  0  0  0  0  0
    0.0150   -3.3370   -0.6798 C   0  0  0  0  0  0  0  0  0  0  0  0
   -1.1376   -3.3072   -1.1065 O   0  0  0  0  0  0  0  0  0  0  0  0
    2.3433   -2.4103   -0.8196 C   0  0  0  0  0  0  0  0  0  0  0  0
    3.2169   -1.1719   -0.9165 C   0  0  0  0  0  0  0  0  0  0  0  0
    2.8845   -0.1388   -1.4898 O   0  0  0  0  0  0  0  0  0  0  0  0
    4.4292   -1.3367   -0.2806 N   0  0  0  0  0  0  0  0  0  0  0  0
    1.1810   -2.0803    1.5718 H   0  0  0  0  0  0  0  0  0  0  0  0
    0.5004   -1.3109   -1.1963 H   0  0  0  0  0  0  0  0  0  0  0  0
    2.7627   -3.0387   -0.0237 H   0  0  0  0  0  0  0  0  0  0  0  0
    2.4332   -2.9739   -1.7572 H   0  0  0  0  0  0  0  0  0  0  0  0
    4.6603   -2.2084    0.1842 H   0  0  0  0  0  0  0  0  0  0  0  0
    5.1309   -0.6038   -0.2514 H   0  0  0  0  0  0  0  0  0  0  0  0
    0.6983   -4.4943   -0.3337 N   0  0  0  0  0  0  0  0  0  0  0  0
    0.0897   -5.7997   -0.4261 C   0  0  2  0  0  0  0  0  0  0  0  0
   -0.3591   -6.0084   -1.8664 C   0  0  0  0  0  0  0  0  0  0  0  0
   -0.5760   -5.0802   -2.6426 O   0  0  0  0  0  0  0  0  0  0  0  0
   -1.0827   -5.9329    0.5333 C   0  0  0  0  0  0  0  0  0  0  0  0
    1.6596   -4.4343   -0.0111 H   0  0  0  0  0  0  0  0  0  0  0  0
    0.8673   -6.5296   -0.1759 H   0  0  0  0  0  0  0  0  0  0  0  0
   -1.8719   -5.2095    0.2982 H   0  0  0  0  0  0  0  0  0  0  0  0
   -1.5253   -6.9331    0.4825 H   0  0  0  0  0  0  0  0  0  0  0  0
   -0.7638   -5.7531    1.5656 H   0  0  0  0  0  0  0  0  0  0  0  0
   -0.5307   -7.3517   -2.1702 N   0  0  0  0  0  0  0  0  0  0  0  0
   -0.9643   -7.8079   -3.4701 C   0  0  0  0  0  0  0  0  0  0  0  0
   -0.3093   -8.0544   -1.4709 H   0  0  0  0  0  0  0  0  0  0  0  0
   -2.0594   -7.9115   -3.4764 H   0  0  0  0  0  0  0  0  0  0  0  0
   -0.6608   -7.0778   -4.2348 H   0  0  0  0  0  0  0  0  0  0  0  0
   -0.5028   -8.7820   -3.6895 H   0  0  0  0  0  0  0  0  0  0  0  0
  1  3  1  0  0  0  0
  1  7  1  0  0  0  0
  1  2  2  0  0  0  0
 21 22  1  0  0  0  0
 22 24  1  0  0  0  0
 22 23  2  0  0  0  0
 32 33  1  0  0  0  0
 33 41  1  0  0  0  0
 33 34  2  0  0  0  0
  8  9  1  0  0  0  0
  9 17  1  0  0  0  0
  9 10  2  0  0  0  0
 18 19  1  0  0  0  0
 19 31  1  0  0  0  0
 19 20  2  0  0  0  0
 32 35  1  0  0  0  0
  8 11  1  0  0  0  0
 41 42  1  0  0  0  0
 18 21  1  0  0  0  0
 31 32  1  0  0  0  0
  7  8  1  0  0  0  0
 17 18  1  0  0  0  0
  3  4  1  0  0  0  0
  3  5  1  0  0  0  0
  3  6  1  0  0  0  0
 35 38  1  0  0  0  0
 35 39  1  0  0  0  0
 35 40  1  0  0  0  0
 11 14  1  0  0  0  0
 11 15  1  0  0  0  0
 11 16  1  0  0  0  0
 42 44  1  0  0  0  0
 42 45  1  0  0  0  0
 42 46  1  0  0  0  0
 21 27  1  0  0  0  0
 21 28  1  0  0  0  0
 32 37  1  0  0  0  0
  8 13  1  0  0  0  0
 18 26  1  0  0  0  0
 24 29  1  0  0  0  0
 24 30  1  0  0  0  0
 41 43  1  0  0  0  0
  7 12  1  0  0  0  0
 31 36  1  0  0  0  0
 17 25  1  0  0  0  0
M  END
$$$$

  -OEChem-05262214473D

 46 45  0     1  0  0  0  0  0999 V2000
   -0.0543    1.9736    3.8406 C   0  0  0  0  0  0  0  0  0  0  0  0
    0.6744    1.6099    4.7562 O   0  0  0  0  0  0  0  0  0  0  0  0
   -0.5599    3.3779    3.8160 C   0  0  0  0  0  0  0  0  0  0  0  0
   -1.5202    3.4885    4.3450 H   0  0  0  0  0  0  0  0  0  0  0  0
    0.1282    4.0814    4.3116 H   0  0  0  0  0  0  0  0  0  0  0  0
   -0.7317    3.7994    2.8126 H   0  0  0  0  0  0  0  0  0  0  0  0
   -0.4812    1.1968    2.7762 N   0  0  0  0  0  0  0  0  0  0  0  0
   -0.1106   -0.1834    2.6051 C   0  0  2  0  0  0  0  0  0  0  0  0
   -0.0696   -0.4775    1.1113 C   0  0  0  0  0  0  0  0  0  0  0  0
   -0.6805    0.1900    0.2792 O   0  0  0  0  0  0  0  0  0  0  0  0
   -1.0852   -1.1101    3.3150 C   0  0  0  0  0  0  0  0  0  0  0  0
   -1.0883    1.6241    2.0791 H   0  0  0  0  0  0  0  0  0  0  0  0
    0.8937   -0.2959    3.0277 H   0  0  0  0  0  0  0  0  0  0  0  0
   -2.0970   -1.0114    2.9051 H   0  0  0  0  0  0  0  0  0  0  0  0
   -0.7860   -2.1580    3.2078 H   0  0  0  0  0  0  0  0  0  0  0  0
   -1.1357   -0.8775    4.3842 H   0  0  0  0  0  0  0  0  0  0  0  0
    0.6950   -1.6003    0.8178 N   0  0  0  0  0  0  0  0  0  0  0  0
    0.8777   -2.0908   -0.5246 C   0  0  2  0  0  0  0  0  0  0  0  0
    0.0150   -3.3370   -0.6798 C   0  0  0  0  0  0  0  0  0  0  0  0
   -1.0201   -3.3590   -1.3426 O   0  0  0  0  0  0  0  0  0  0  0  0
    2.3433   -2.4103   -0.8196 C   0  0  0  0  0  0  0  0  0  0  0  0
    3.2169   -1.1719   -0.9165 C   0  0  0  0  0  0  0  0  0  0  0  0
    2.8845   -0.1388   -1.4898 O   0  0  0  0  0  0  0  0  0  0  0  0
    4.4292   -1.3367   -0.2806 N   0  0  0  0  0  0  0  0  0  0  0  0
    1.1810   -2.0803    1.5718 H   0  0  0  0  0  0  0  0  0  0  0  0
    0.5004   -1.3109   -1.1963 H   0  0  0  0  0  0  0  0  0  0  0  0
    2.7627   -3.0387   -0.0237 H   0  0  0  0  0  0  0  0  0  0  0  0
    2.4332   -2.9739   -1.7572 H   0  0  0  0  0  0  0  0  0  0  0  0
    4.6603   -2.2084    0.1842 H   0  0  0  0  0  0  0  0  0  0  0  0
    5.1309   -0.6038   -0.2514 H   0  0  0  0  0  0  0  0  0  0  0  0
    0.5611   -4.4368   -0.0331 N   0  0  0  0  0  0  0  0  0  0  0  0
   -0.0690   -5.7349   -0.0648 C   0  0  2  0  0  0  0  0  0  0  0  0
   -0.2142   -6.1516   -1.5225 C   0  0  0  0  0  0  0  0  0  0  0  0
   -0.2241   -5.3475   -2.4522 O   0  0  0  0  0  0  0  0  0  0  0  0
   -1.4211   -5.7108    0.6308 C   0  0  0  0  0  0  0  0  0  0  0  0
    1.4351   -4.3394    0.4754 H   0  0  0  0  0  0  0  0  0  0  0  0
    0.6073   -6.4274    0.4480 H   0  0  0  0  0  0  0  0  0  0  0  0
   -2.1123   -5.0223    0.1311 H   0  0  0  0  0  0  0  0  0  0  0  0
   -1.8850   -6.7026    0.6309 H   0  0  0  0  0  0  0  0  0  0  0  0
   -1.3185   -5.3822    1.6707 H   0  0  0  0  0  0  0  0  0  0  0  0
   -0.3747   -7.5233   -1.6596 N   0  0  0  0  0  0  0  0  0  0  0  0
   -0.5449   -8.1639   -2.9428 C   0  0  0  0  0  0  0  0  0  0  0  0
   -0.3347   -8.1159   -0.8356 H   0  0  0  0  0  0  0  0  0  0  0  0
   -1.6176   -8.2557   -3.1680 H   0  0  0  0  0  0  0  0  0  0  0  0
   -0.0572   -7.5595   -3.7218 H   0  0  0  0  0  0  0  0  0  0  0  0
   -0.0890   -9.1647   -2.9162 H   0  0  0  0  0  0  0  0  0  0  0  0
  1  3  1  0  0  0  0
  1  7  1  0  0  0  0
  1  2  2  0  0  0  0
 21 22  1  0  0  0  0
 22 24  1  0  0  0  0
 22 23  2  0  0  0  0
 32 33  1  0  0  0  0
 33 41  1  0  0  0  0
 33 34  2  0  0  0  0
  8  9  1  0  0  0  0
  9 17  1  0  0  0  0
  9 10  2  0  0  0  0
 18 19  1  0  0  0  0
 19 31  1  0  0  0  0
 19 20  2  0  0  0  0
 32 35  1  0  0  0  0
  8 11  1  0  0  0  0
 41 42  1  0  0  0  0
 18 21  1  0  0  0  0
 31 32  1  0  0  0  0
  7  8  1  0  0  0  0
 17 18  1  0  0  0  0
  3  4  1  0  0  0  0
  3  5  1  0  0  0  0
  3  6  1  0  0  0  0
 35 38  1  0  0  0  0
 35 39  1  0  0  0  0
 35 40  1  0  0  0  0
 11 14  1  0  0  0  0
 11 15  1  0  0  0  0
 11 16  1  0  0  0  0
 42 44  1  0  0  0  0
 42 45  1  0  0  0  0
 42 46  1  0  0  0  0
 21 27  1  0  0  0  0
 21 28  1  0  0  0  0
 32 37  1  0  0  0  0
  8 13  1  0  0  0  0
 18 26  1  0  0  0  0
 24 29  1  0  0  0  0
 24 30  1  0  0  0  0
 41 43  1  0  0  0  0
  7 12  1  0  0  0  0
 31 36  1  0  0  0  0
 17 25  1  0  0  0  0
M  END
$$$$

  -OEChem-05262214473D

 46 45  0     1  0  0  0  0  0999 V2000
   -0.0543    1.9736    3.8406 C   0  0  0  0  0  0  0  0  0  0  0  0
    0.6744    1.6099    4.7562 O   0  0  0  0  0  0  0  0  0  0  0  0
   -0.5599    3.3779    3.8160 C   0  0  0  0  0  0  0  0  0  0  0  0
   -1.5202    3.4885    4.3450 H   0  0  0  0  0  0  0  0  0  0  0  0
    0.1282    4.0814    4.3116 H   0  0  0  0  0  0  0  0  0  0  0  0
   -0.7317    3.7994    2.8126 H   0  0  0  0  0  0  0  0  0  0  0  0
   -0.4812    1.1968    2.7762 N   0  0  0  0  0  0  0  0  0  0  0  0
   -0.1106   -0.1834    2.6051 C   0  0  2  0  0  0  0  0  0  0  0  0
   -0.0696   -0.4775    1.1113 C   0  0  0  0  0  0  0  0  0  0  0  0
   -0.6805    0.1900    0.2792 O   0  0  0  0  0  0  0  0  0  0  0  0
   -1.0852   -1.1101    3.3150 C   0  0  0  0  0  0  0  0  0  0  0  0
   -1.0883    1.6241    2.0791 H   0  0  0  0  0  0  0  0  0  0  0  0
    0.8937   -0.2959    3.0277 H   0  0  0  0  0  0  0  0  0  0  0  0
   -2.0970   -1.0114    2.9051 H   0  0  0  0  0  0  0  0  0  0  0  0
   -0.7860   -2.1580    3.2078 H   0  0  0  0  0  0  0  0  0  0  0  0
   -1.1357   -0.8775    4.3842 H   0  0  0  0  0  0  0  0  0  0  0  0
    0.6950   -1.6003    0.8178 N   0  0  0  0  0  0  0  0  0  0  0  0
    0.8777   -2.0908   -0.5246 C   0  0  2  0  0  0  0  0  0  0  0  0
    0.0150   -3.3370   -0.6798 C   0  0  0  0  0  0  0  0  0  0  0  0
   -0.8581   -3.4468   -1.5383 O   0  0  0  0  0  0  0  0  0  0  0  0
    2.3433   -2.4103   -0.8196 C   0  0  0  0  0  0  0  0  0  0  0  0
    3.2169   -1.1719   -0.9165 C   0  0  0  0  0  0  0  0  0  0  0  0
    2.8845   -0.1388   -1.4898 O   0  0  0  0  0  0  0  0  0  0  0  0
    4.4292   -1.3367   -0.2806 N   0  0  0  0  0  0  0  0  0  0  0  0
    1.1810   -2.0803    1.5718 H   0  0  0  0  0  0  0  0  0  0  0  0
    0.5004   -1.3109   -1.1963 H   0  0  0  0  0  0  0  0  0  0  0  0
    2.7627   -3.0387   -0.0237 H   0  0  0  0  0  0  0  0  0  0  0  0
    2.4332   -2.9739   -1.7572 H   0  0  0  0  0  0  0  0  0  0  0  0
    4.6603   -2.2084    0.1842 H   0  0  0  0  0  0  0  0  0  0  0  0
    5.1309   -0.6038   -0.2514 H   0  0  0  0  0  0  0  0  0  0  0  0
    0.3665   -4.3336    0.2199 N   0  0  0  0  0  0  0  0  0  0  0  0
   -0.2971   -5.6151    0.2410 C   0  0  2  0  0  0  0  0  0  0  0  0
   -0.1507   -6.2433   -1.1386 C   0  0  0  0  0  0  0  0  0  0  0  0
    0.0685   -5.5871   -2.1547 O   0  0  0  0  0  0  0  0  0  0  0  0
   -1.7628   -5.4730    0.6209 C   0  0  0  0  0  0  0  0  0  0  0  0
    1.1177   -4.1706    0.8839 H   0  0  0  0  0  0  0  0  0  0  0  0
    0.2269   -6.2304    0.9806 H   0  0  0  0  0  0  0  0  0  0  0  0
   -2.3041   -4.8596   -0.1086 H   0  0  0  0  0  0  0  0  0  0  0  0
   -2.2578   -6.4488    0.6644 H   0  0  0  0  0  0  0  0  0  0  0  0
   -1.8669   -4.9939    1.6004 H   0  0  0  0  0  0  0  0  0  0  0  0
   -0.3366   -7.6184   -1.1083 N   0  0  0  0  0  0  0  0  0  0  0  0
   -0.2607   -8.4416   -2.2925 C   0  0  0  0  0  0  0  0  0  0  0  0
   -0.4953   -8.0816   -0.2184 H   0  0  0  0  0  0  0  0  0  0  0  0
   -1.2653   -8.5546   -2.7261 H   0  0  0  0  0  0  0  0  0  0  0  0
    0.4045   -7.9655   -3.0279 H   0  0  0  0  0  0  0  0  0  0  0  0
    0.1369   -9.4319   -2.0256 H   0  0  0  0  0  0  0  0  0  0  0  0
  1  3  1  0  0  0  0
  1  7  1  0  0  0  0
  1  2  2  0  0  0  0
 21 22  1  0  0  0  0
 22 24  1  0  0  0  0
 22 23  2  0  0  0  0
 32 33  1  0  0  0  0
 33 41  1  0  0  0  0
 33 34  2  0  0  0  0
  8  9  1  0  0  0  0
  9 17  1  0  0  0  0
  9 10  2  0  0  0  0
 18 19  1  0  0  0  0
 19 31  1  0  0  0  0
 19 20  2  0  0  0  0
 32 35  1  0  0  0  0
  8 11  1  0  0  0  0
 41 42  1  0  0  0  0
 18 21  1  0  0  0  0
 31 32  1  0  0  0  0
  7  8  1  0  0  0  0
 17 18  1  0  0  0  0
  3  4  1  0  0  0  0
  3  5  1  0  0  0  0
  3  6  1  0  0  0  0
 35 38  1  0  0  0  0
 35 39  1  0  0  0  0
 35 40  1  0  0  0  0
 11 14  1  0  0  0  0
 11 15  1  0  0  0  0
 11 16  1  0  0  0  0
 42 44  1  0  0  0  0
 42 45  1  0  0  0  0
 42 46  1  0  0  0  0
 21 27  1  0  0  0  0
 21 28  1  0  0  0  0
 32 37  1  0  0  0  0
  8 13  1  0  0  0  0
 18 26  1  0  0  0  0
 24 29  1  0  0  0  0
 24 30  1  0  0  0  0
 41 43  1  0  0  0  0
  7 12  1  0  0  0  0
 31 36  1  0  0  0  0
 17 25  1  0  0  0  0
M  END
$$$$

  -OEChem-05262214473D

 46 45  0     1  0  0  0  0  0999 V2000
   -0.0543    1.9736    3.8406 C   0  0  0  0  0  0  0  0  0  0  0  0
    0.6744    1.6099    4.7562 O   0  0  0  0  0  0  0  0  0  0  0  0
   -0.5599    3.3779    3.8160 C   0  0  0  0  0  0  0  0  0  0  0  0
   -1.5202    3.4885    4.3450 H   0  0  0  0  0  0  0  0  0  0  0  0
    0.1282    4.0814    4.3116 H   0  0  0  0  0  0  0  0  0  0  0  0
   -0.7317    3.7994    2.8126 H   0  0  0  0  0  0  0  0  0  0  0  0
   -0.4812    1.1968    2.7762 N   0  0  0  0  0  0  0  0  0  0  0  0
   -0.1106   -0.1834    2.6051 C   0  0  2  0  0  0  0  0  0  0  0  0
   -0.0696   -0.4775    1.1113 C   0  0  0  0  0  0  0  0  0  0  0  0
   -0.6805    0.1900    0.2792 O   0  0  0  0  0  0  0  0  0  0  0  0
   -1.0852   -1.1101    3.3150 C   0  0  0  0  0  0  0  0  0  0  0  0
   -1.0883    1.6241    2.0791 H   0  0  0  0  0  0  0  0  0  0  0  0
    0.8937   -0.2959    3.0277 H   0  0  0  0  0  0  0  0  0  0  0  0
   -2.0970   -1.0114    2.9051 H   0  0  0  0  0  0  0  0  0  0  0  0
   -0.7860   -2.1580    3.2078 H   0  0  0  0  0  0  0  0  0  0  0  0
   -1.1357   -0.8775    4.3842 H   0  0  0  0  0  0  0  0  0  0  0  0
    0.6950   -1.6003    0.8178 N   0  0  0  0  0  0  0  0  0  0  0  0
    0.8777   -2.0908   -0.5246 C   0  0  2  0  0  0  0  0  0  0  0  0
    0.0150   -3.3370   -0.6798 C   0  0  0  0  0  0  0  0  0  0  0  0
   -0.6624   -3.5646   -1.6801 O   0  0  0  0  0  0  0  0  0  0  0  0
    2.3433   -2.4103   -0.8196 C   0  0  0  0  0  0  0  0  0  0  0  0
    3.2169   -1.1719   -0.9165 C   0  0  0  0  0  0  0  0  0  0  0  0
    2.8845   -0.1388   -1.4898 O   0  0  0  0  0  0  0  0  0  0  0  0
    4.4292   -1.3367   -0.2806 N   0  0  0  0  0  0  0  0  0  0  0  0
    1.1810   -2.0803    1.5718 H   0  0  0  0  0  0  0  0  0  0  0  0
    0.5004   -1.3109   -1.1963 H   0  0  0  0  0  0  0  0  0  0  0  0
    2.7627   -3.0387   -0.0237 H   0  0  0  0  0  0  0  0  0  0  0  0
    2.4332   -2.9739   -1.7572 H   0  0  0  0  0  0  0  0  0  0  0  0
    4.6603   -2.2084    0.1842 H   0  0  0  0  0  0  0  0  0  0  0  0
    5.1309   -0.6038   -0.2514 H   0  0  0  0  0  0  0  0  0  0  0  0
    0.1277   -4.1917    0.4078 N   0  0  0  0  0  0  0  0  0  0  0  0
   -0.5790   -5.4485    0.4706 C   0  0  2  0  0  0  0  0  0  0  0  0
   -0.1732   -6.2773   -0.7409 C   0  0  0  0  0  0  0  0  0  0  0  0
    0.2817   -5.7826   -1.7702 O   0  0  0  0  0  0  0  0  0  0  0  0
   -2.0844   -5.2358    0.5041 C   0  0  0  0  0  0  0  0  0  0  0  0
    0.7290   -3.9393    1.1866 H   0  0  0  0  0  0  0  0  0  0  0  0
   -0.2482   -5.9519    1.3856 H   0  0  0  0  0  0  0  0  0  0  0  0
   -2.4344   -4.7326   -0.4046 H   0  0  0  0  0  0  0  0  0  0  0  0
   -2.6182   -6.1888    0.5806 H   0  0  0  0  0  0  0  0  0  0  0  0
   -2.3714   -4.6147    1.3595 H   0  0  0  0  0  0  0  0  0  0  0  0
   -0.4190   -7.6304   -0.5537 N   0  0  0  0  0  0  0  0  0  0  0  0
   -0.1312   -8.6221   -1.5635 C   0  0  0  0  0  0  0  0  0  0  0  0
   -0.7803   -7.9538    0.3388 H   0  0  0  0  0  0  0  0  0  0  0  0
   -1.0263   -8.7879   -2.1809 H   0  0  0  0  0  0  0  0  0  0  0  0
    0.6929   -8.2682   -2.2004 H   0  0  0  0  0  0  0  0  0  0  0  0
    0.1594   -9.5655   -1.0784 H   0  0  0  0  0  0  0  0  0  0  0  0
  1  3  1  0  0  0  0
  1  7  1  0  0  0  0
  1  2  2  0  0  0  0
 21 22  1  0  0  0  0
 22 24  1  0  0  0  0
 22 23  2  0  0  0  0
 32 33  1  0  0  0  0
 33 41  1  0  0  0  0
 33 34  2  0  0  0  0
  8  9  1  0  0  0  0
  9 17  1  0  0  0  0
  9 10  2  0  0  0  0
 18 19  1  0  0  0  0
 19 31  1  0  0  0  0
 19 20  2  0  0  0  0
 32 35  1  0  0  0  0
  8 11  1  0  0  0  0
 41 42  1  0  0  0  0
 18 21  1  0  0  0  0
 31 32  1  0  0  0  0
  7  8  1  0  0  0  0
 17 18  1  0  0  0  0
  3  4  1  0  0  0  0
  3  5  1  0  0  0  0
  3  6  1  0  0  0  0
 35 38  1  0  0  0  0
 35 39  1  0  0  0  0
 35 40  1  0  0  0  0
 11 14  1  0  0  0  0
 11 15  1  0  0  0  0
 11 16  1  0  0  0  0
 42 44  1  0  0  0  0
 42 45  1  0  0  0  0
 42 46  1  0  0  0  0
 21 27  1  0  0  0  0
 21 28  1  0  0  0  0
 32 37  1  0  0  0  0
  8 13  1  0  0  0  0
 18 26  1  0  0  0  0
 24 29  1  0  0  0  0
 24 30  1  0  0  0  0
 41 43  1  0  0  0  0
  7 12  1  0  0  0  0
 31 36  1  0  0  0  0
 17 25  1  0  0  0  0
M  END
$$$$

  -OEChem-05262214473D

 46 45  0     1  0  0  0  0  0999 V2000
   -0.0543    1.9736    3.8406 C   0  0  0  0  0  0  0  0  0  0  0  0
    0.6744    1.6099    4.7562 O   0  0  0  0  0  0  0  0  0  0  0  0
   -0.5599    3.3779    3.8160 C   0  0  0  0  0  0  0  0  0  0  0  0
   -1.5202    3.4885    4.3450 H   0  0  0  0  0  0  0  0  0  0  0  0
    0.1282    4.0814    4.3116 H   0  0  0  0  0  0  0  0  0  0  0  0
   -0.7317    3.7994    2.8126 H   0  0  0  0  0  0  0  0  0  0  0  0
   -0.4812    1.1968    2.7762 N   0  0  0  0  0  0  0  0  0  0  0  0
   -0.1106   -0.1834    2.6051 C   0  0  2  0  0  0  0  0  0  0  0  0
   -0.0696   -0.4775    1.1113 C   0  0  0  0  0  0  0  0  0  0  0  0
   -0.6805    0.1900    0.2792 O   0  0  0  0  0  0  0  0  0  0  0  0
   -1.0852   -1.1101    3.3150 C   0  0  0  0  0  0  0  0  0  0  0  0
   -1.0883    1.6241    2.0791 H   0  0  0  0  0  0  0  0  0  0  0  0
    0.8937   -0.2959    3.0277 H   0  0  0  0  0  0  0  0  0  0  0  0
   -2.0970   -1.0114    2.9051 H   0  0  0  0  0  0  0  0  0  0  0  0
   -0.7860   -2.1580    3.2078 H   0  0  0  0  0  0  0  0  0  0  0  0
   -1.1357   -0.8775    4.3842 H   0  0  0  0  0  0  0  0  0  0  0  0
    0.6950   -1.6003    0.8178 N   0  0  0  0  0  0  0  0  0  0  0  0
    0.8777   -2.0908   -0.5246 C   0  0  2  0  0  0  0  0  0  0  0  0
    0.0150   -3.3370   -0.6798 C   0  0  0  0  0  0  0  0  0  0  0  0
   -0.4465   -3.7043   -1.7584 O   0  0  0  0  0  0  0  0  0  0  0  0
    2.3433   -2.4103   -0.8196 C   0  0  0  0  0  0  0  0  0  0  0  0
    3.2169   -1.1719   -0.9165 C   0  0  0  0  0  0  0  0  0  0  0  0
    2.8845   -0.1388   -1.4898 O   0  0  0  0  0  0  0  0  0  0  0  0
    4.4292   -1.3367   -0.2806 N   0  0  0  0  0  0  0  0  0  0  0  0
    1.1810   -2.0803    1.5718 H   0  0  0  0  0  0  0  0  0  0  0  0
    0.5004   -1.3109   -1.1963 H   0  0  0  0  0  0  0  0  0  0  0  0
    2.7627   -3.0387   -0.0237 H   0  0  0  0  0  0  0  0  0  0  0  0
    2.4332   -2.9739   -1.7572 H   0  0  0  0  0  0  0  0  0  0  0  0
    4.6603   -2.2084    0.1842 H   0  0  0  0  0  0  0  0  0  0  0  0
    5.1309   -0.6038   -0.2514 H   0  0  0  0  0  0  0  0  0  0  0  0
   -0.1391   -4.0207    0.5180 N   0  0  0  0  0  0  0  0  0  0  0  0
   -0.8955   -5.2466    0.6084 C   0  0  2  0  0  0  0  0  0  0  0  0
   -0.2799   -6.2513   -0.3565 C   0  0  0  0  0  0  0  0  0  0  0  0
    0.4012   -5.9207   -1.3250 O   0  0  0  0  0  0  0  0  0  0  0  0
   -2.3642   -5.0153    0.2885 C   0  0  0  0  0  0  0  0  0  0  0  0
    0.2957   -3.6612    1.3627 H   0  0  0  0  0  0  0  0  0  0  0  0
   -0.7855   -5.6111    1.6355 H   0  0  0  0  0  0  0  0  0  0  0  0
   -2.4943   -4.6498   -0.7367 H   0  0  0  0  0  0  0  0  0  0  0  0
   -2.9418   -5.9405    0.3852 H   0  0  0  0  0  0  0  0  0  0  0  0
   -2.7977   -4.2704    0.9644 H   0  0  0  0  0  0  0  0  0  0  0  0
   -0.6163   -7.5585   -0.0338 N   0  0  0  0  0  0  0  0  0  0  0  0
   -0.1652   -8.6929   -0.8055 C   0  0  0  0  0  0  0  0  0  0  0  0
   -1.1701   -7.7411    0.7980 H   0  0  0  0  0  0  0  0  0  0  0  0
   -0.9171   -8.9397   -1.5695 H   0  0  0  0  0  0  0  0  0  0  0  0
    0.7883   -8.4469   -1.2957 H   0  0  0  0  0  0  0  0  0  0  0  0
   -0.0228   -9.5564   -0.1390 H   0  0  0  0  0  0  0  0  0  0  0  0
  1  3  1  0  0  0  0
  1  7  1  0  0  0  0
  1  2  2  0  0  0  0
 21 22  1  0  0  0  0
 22 24  1  0  0  0  0
 22 23  2  0  0  0  0
 32 33  1  0  0  0  0
 33 41  1  0  0  0  0
 33 34  2  0  0  0  0
  8  9  1  0  0  0  0
  9 17  1  0  0  0  0
  9 10  2  0  0  0  0
 18 19  1  0  0  0  0
 19 31  1  0  0  0  0
 19 20  2  0  0  0  0
 32 35  1  0  0  0  0
  8 11  1  0  0  0  0
 41 42  1  0  0  0  0
 18 21  1  0  0  0  0
 31 32  1  0  0  0  0
  7  8  1  0  0  0  0
 17 18  1  0  0  0  0
  3  4  1  0  0  0  0
  3  5  1  0  0  0  0
  3  6  1  0  0  0  0
 35 38  1  0  0  0  0
 35 39  1  0  0  0  0
 35 40  1  0  0  0  0
 11 14  1  0  0  0  0
 11 15  1  0  0  0  0
 11 16  1  0  0  0  0
 42 44  1  0  0  0  0
 42 45  1  0  0  0  0
 42 46  1  0  0  0  0
 21 27  1  0  0  0  0
 21 28  1  0  0  0  0
 32 37  1  0  0  0  0
  8 13  1  0  0  0  0
 18 26  1  0  0  0  0
 24 29  1  0  0  0  0
 24 30  1  0  0  0  0
 41 43  1  0  0  0  0
  7 12  1  0  0  0  0
 31 36  1  0  0  0  0
 17 25  1  0  0  0  0
M  END
$$$$

  -OEChem-05262214473D

 46 45  0     1  0  0  0  0  0999 V2000
   -0.0543    1.9736    3.8406 C   0  0  0  0  0  0  0  0  0  0  0  0
    0.6744    1.6099    4.7562 O   0  0  0  0  0  0  0  0  0  0  0  0
   -0.5599    3.3779    3.8160 C   0  0  0  0  0  0  0  0  0  0  0  0
   -1.5202    3.4885    4.3450 H   0  0  0  0  0  0  0  0  0  0  0  0
    0.1282    4.0814    4.3116 H   0  0  0  0  0  0  0  0  0  0  0  0
   -0.7317    3.7994    2.8126 H   0  0  0  0  0  0  0  0  0  0  0  0
   -0.4812    1.1968    2.7762 N   0  0  0  0  0  0  0  0  0  0  0  0
   -0.1106   -0.1834    2.6051 C   0  0  2  0  0  0  0  0  0  0  0  0
   -0.0696   -0.4775    1.1113 C   0  0  0  0  0  0  0  0  0  0  0  0
   -0.6805    0.1900    0.2792 O   0  0  0  0  0  0  0  0  0  0  0  0
   -1.0852   -1.1101    3.3150 C   0  0  0  0  0  0  0  0  0  0  0  0
   -1.0883    1.6241    2.0791 H   0  0  0  0  0  0  0  0  0  0  0  0
    0.8937   -0.2959    3.0277 H   0  0  0  0  0  0  0  0  0  0  0  0
   -2.0970   -1.0114    2.9051 H   0  0  0  0  0  0  0  0  0  0  0  0
   -0.7860   -2.1580    3.2078 H   0  0  0  0  0  0  0  0  0  0  0  0
   -1.1357   -0.8775    4.3842 H   0  0  0  0  0  0  0  0  0  0  0  0
    0.6950   -1.6003    0.8178 N   0  0  0  0  0  0  0  0  0  0  0  0
    0.8777   -2.0908   -0.5246 C   0  0  2  0  0  0  0  0  0  0  0  0
    0.0150   -3.3370   -0.6798 C   0  0  0  0  0  0  0  0  0  0  0  0
   -0.2251   -3.8564   -1.7679 O   0  0  0  0  0  0  0  0  0  0  0  0
    2.3433   -2.4103   -0.8196 C   0  0  0  0  0  0  0  0  0  0  0  0
    3.2169   -1.1719   -0.9165 C   0  0  0  0  0  0  0  0  0  0  0  0
    2.8845   -0.1388   -1.4898 O   0  0  0  0  0  0  0  0  0  0  0  0
    4.4292   -1.3367   -0.2806 N   0  0  0  0  0  0  0  0  0  0  0  0
    1.1810   -2.0803    1.5718 H   0  0  0  0  0  0  0  0  0  0  0  0
    0.5004   -1.3109   -1.1963 H   0  0  0  0  0  0  0  0  0  0  0  0
    2.7627   -3.0387   -0.0237 H   0  0  0  0  0  0  0  0  0  0  0  0
    2.4332   -2.9739   -1.7572 H   0  0  0  0  0  0  0  0  0  0  0  0
    4.6603   -2.2084    0.1842 H   0  0  0  0  0  0  0  0  0  0  0  0
    5.1309   -0.6038   -0.2514 H   0  0  0  0  0  0  0  0  0  0  0  0
   -0.4155   -3.8325    0.5430 N   0  0  0  0  0  0  0  0  0  0  0  0
   -1.2251   -5.0230    0.6448 C   0  0  2  0  0  0  0  0  0  0  0  0
   -0.4637   -6.1670   -0.0117 C   0  0  0  0  0  0  0  0  0  0  0  0
    0.4187   -5.9921   -0.8495 O   0  0  0  0  0  0  0  0  0  0  0  0
   -2.5829   -4.8266   -0.0114 C   0  0  0  0  0  0  0  0  0  0  0  0
   -0.1529   -3.3555    1.4004 H   0  0  0  0  0  0  0  0  0  0  0  0
   -1.3485   -5.2312    1.7132 H   0  0  0  0  0  0  0  0  0  0  0  0
   -2.4796   -4.6169   -1.0823 H   0  0  0  0  0  0  0  0  0  0  0  0
   -3.2064   -5.7208    0.0917 H   0  0  0  0  0  0  0  0  0  0  0  0
   -3.1167   -3.9845    0.4421 H   0  0  0  0  0  0  0  0  0  0  0  0
   -0.9151   -7.4077    0.4162 N   0  0  0  0  0  0  0  0  0  0  0  0
   -0.3604   -8.6494   -0.0701 C   0  0  0  0  0  0  0  0  0  0  0  0
   -1.6382   -7.4582    1.1278 H   0  0  0  0  0  0  0  0  0  0  0  0
   -0.9451   -8.9995   -0.9336 H   0  0  0  0  0  0  0  0  0  0  0  0
    0.6842   -8.4895   -0.3754 H   0  0  0  0  0  0  0  0  0  0  0  0
   -0.3975   -9.4051    0.7284 H   0  0  0  0  0  0  0  0  0  0  0  0
  1  3  1  0  0  0  0
  1  7  1  0  0  0  0
  1  2  2  0  0  0  0
 21 22  1  0  0  0  0
 22 24  1  0  0  0  0
 22 23  2  0  0  0  0
 32 33  1  0  0  0  0
 33 41  1  0  0  0  0
 33 34  2  0  0  0  0
  8  9  1  0  0  0  0
  9 17  1  0  0  0  0
  9 10  2  0  0  0  0
 18 19  1  0  0  0  0
 19 31  1  0  0  0  0
 19 20  2  0  0  0  0
 32 35  1  0  0  0  0
  8 11  1  0  0  0  0
 41 42  1  0  0  0  0
 18 21  1  0  0  0  0
 31 32  1  0  0  0  0
  7  8  1  0  0  0  0
 17 18  1  0  0  0  0
  3  4  1  0  0  0  0
  3  5  1  0  0  0  0
  3  6  1  0  0  0  0
 35 38  1  0  0  0  0
 35 39  1  0  0  0  0
 35 40  1  0  0  0  0
 11 14  1  0  0  0  0
 11 15  1  0  0  0  0
 11 16  1  0  0  0  0
 42 44  1  0  0  0  0
 42 45  1  0  0  0  0
 42 46  1  0  0  0  0
 21 27  1  0  0  0  0
 21 28  1  0  0  0  0
 32 37  1  0  0  0  0
  8 13  1  0  0  0  0
 18 26  1  0  0  0  0
 24 29  1  0  0  0  0
 24 30  1  0  0  0  0
 41 43  1  0  0  0  0
  7 12  1  0  0  0  0
 31 36  1  0  0  0  0
 17 25  1  0  0  0  0
M  END
$$$$

  -OEChem-05262214473D

 46 45  0     1  0  0  0  0  0999 V2000
   -0.0543    1.9736    3.8406 C   0  0  0  0  0  0  0  0  0  0  0  0
    0.6744    1.6099    4.7562 O   0  0  0  0  0  0  0  0  0  0  0  0
   -0.5599    3.3779    3.8160 C   0  0  0  0  0  0  0  0  0  0  0  0
   -1.5202    3.4885    4.3450 H   0  0  0  0  0  0  0  0  0  0  0  0
    0.1282    4.0814    4.3116 H   0  0  0  0  0  0  0  0  0  0  0  0
   -0.7317    3.7994    2.8126 H   0  0  0  0  0  0  0  0  0  0  0  0
   -0.4812    1.1968    2.7762 N   0  0  0  0  0  0  0  0  0  0  0  0
   -0.1106   -0.1834    2.6051 C   0  0  2  0  0  0  0  0  0  0  0  0
   -0.0696   -0.4775    1.1113 C   0  0  0  0  0  0  0  0  0  0  0  0
   -0.6805    0.1900    0.2792 O   0  0  0  0  0  0  0  0  0  0  0  0
   -1.0852   -1.1101    3.3150 C   0  0  0  0  0  0  0  0  0  0  0  0
   -1.0883    1.6241    2.0791 H   0  0  0  0  0  0  0  0  0  0  0  0
    0.8937   -0.2959    3.0277 H   0  0  0  0  0  0  0  0  0  0  0  0
   -2.0970   -1.0114    2.9051 H   0  0  0  0  0  0  0  0  0  0  0  0
   -0.7860   -2.1580    3.2078 H   0  0  0  0  0  0  0  0  0  0  0  0
   -1.1357   -0.8775    4.3842 H   0  0  0  0  0  0  0  0  0  0  0  0
    0.6950   -1.6003    0.8178 N   0  0  0  0  0  0  0  0  0  0  0  0
    0.8777   -2.0908   -0.5246 C   0  0  2  0  0  0  0  0  0  0  0  0
    0.0150   -3.3370   -0.6798 C   0  0  0  0  0  0  0  0  0  0  0  0
   -0.0132   -4.0106   -1.7079 O   0  0  0  0  0  0  0  0  0  0  0  0
    2.3433   -2.4103   -0.8196 C   0  0  0  0  0  0  0  0  0  0  0  0
    3.2169   -1.1719   -0.9165 C   0  0  0  0  0  0  0  0  0  0  0  0
    2.8845   -0.1388   -1.4898 O   0  0  0  0  0  0  0  0  0  0  0  0
    4.4292   -1.3367   -0.2806 N   0  0  0  0  0  0  0  0  0  0  0  0
    1.1810   -2.0803    1.5718 H   0  0  0  0  0  0  0  0  0  0  0  0
    0.5004   -1.3109   -1.1963 H   0  0  0  0  0  0  0  0  0  0  0  0
    2.7627   -3.0387   -0.0237 H   0  0  0  0  0  0  0  0  0  0  0  0
    2.4332   -2.9739   -1.7572 H   0  0  0  0  0  0  0  0  0  0  0  0
    4.6603   -2.2084    0.1842 H   0  0  0  0  0  0  0  0  0  0  0  0
    5.1309   -0.6038   -0.2514 H   0  0  0  0  0  0  0  0  0  0  0  0
   -0.6829   -3.6397    0.4809 N   0  0  0  0  0  0  0  0  0  0  0  0
   -1.5453   -4.7930    0.5774 C   0  0  2  0  0  0  0  0  0  0  0  0
   -0.7120   -6.0303    0.2702 C   0  0  0  0  0  0  0  0  0  0  0  0
    0.3330   -5.9917   -0.3760 O   0  0  0  0  0  0  0  0  0  0  0  0
   -2.7257   -4.6824   -0.3750 C   0  0  0  0  0  0  0  0  0  0  0  0
   -0.5861   -3.0427    1.2970 H   0  0  0  0  0  0  0  0  0  0  0  0
   -1.8986   -4.8379    1.6133 H   0  0  0  0  0  0  0  0  0  0  0  0
   -2.3913   -4.6362   -1.4178 H   0  0  0  0  0  0  0  0  0  0  0  0
   -3.3941   -5.5446   -0.2801 H   0  0  0  0  0  0  0  0  0  0  0  0
   -3.3068   -3.7764   -0.1718 H   0  0  0  0  0  0  0  0  0  0  0  0
   -1.2950   -7.1883    0.7654 N   0  0  0  0  0  0  0  0  0  0  0  0
   -0.7035   -8.4945    0.5925 C   0  0  0  0  0  0  0  0  0  0  0  0
   -2.1527   -7.1242    1.3058 H   0  0  0  0  0  0  0  0  0  0  0  0
   -1.1083   -8.9634   -0.3165 H   0  0  0  0  0  0  0  0  0  0  0  0
    0.3877   -8.3930    0.4978 H   0  0  0  0  0  0  0  0  0  0  0  0
   -0.9390   -9.1219    1.4647 H   0  0  0  0  0  0  0  0  0  0  0  0
  1  3  1  0  0  0  0
  1  7  1  0  0  0  0
  1  2  2  0  0  0  0
 21 22  1  0  0  0  0
 22 24  1  0  0  0  0
 22 23  2  0  0  0  0
 32 33  1  0  0  0  0
 33 41  1  0  0  0  0
 33 34  2  0  0  0  0
  8  9  1  0  0  0  0
  9 17  1  0  0  0  0
  9 10  2  0  0  0  0
 18 19  1  0  0  0  0
 19 31  1  0  0  0  0
 19 20  2  0  0  0  0
 32 35  1  0  0  0  0
  8 11  1  0  0  0  0
 41 42  1  0  0  0  0
 18 21  1  0  0  0  0
 31 32  1  0  0  0  0
  7  8  1  0  0  0  0
 17 18  1  0  0  0  0
  3  4  1  0  0  0  0
  3  5  1  0  0  0  0
  3  6  1  0  0  0  0
 35 38  1  0  0  0  0
 35 39  1  0  0  0  0
 35 40  1  0  0  0  0
 11 14  1  0  0  0  0
 11 15  1  0  0  0  0
 11 16  1  0  0  0  0
 42 44  1  0  0  0  0
 42 45  1  0  0  0  0
 42 46  1  0  0  0  0
 21 27  1  0  0  0  0
 21 28  1  0  0  0  0
 32 37  1  0  0  0  0
  8 13  1  0  0  0  0
 18 26  1  0  0  0  0
 24 29  1  0  0  0  0
 24 30  1  0  0  0  0
 41 43  1  0  0  0  0
  7 12  1  0  0  0  0
 31 36  1  0  0  0  0
 17 25  1  0  0  0  0
M  END
$$$$

  -OEChem-05262214473D

 46 45  0     1  0  0  0  0  0999 V2000
   -0.0543    1.9736    3.8406 C   0  0  0  0  0  0  0  0  0  0  0  0
    0.6744    1.6099    4.7562 O   0  0  0  0  0  0  0  0  0  0  0  0
   -0.5599    3.3779    3.8160 C   0  0  0  0  0  0  0  0  0  0  0  0
   -1.5202    3.4885    4.3450 H   0  0  0  0  0  0  0  0  0  0  0  0
    0.1282    4.0814    4.3116 H   0  0  0  0  0  0  0  0  0  0  0  0
   -0.7317    3.7994    2.8126 H   0  0  0  0  0  0  0  0  0  0  0  0
   -0.4812    1.1968    2.7762 N   0  0  0  0  0  0  0  0  0  0  0  0
   -0.1106   -0.1834    2.6051 C   0  0  2  0  0  0  0  0  0  0  0  0
   -0.0696   -0.4775    1.1113 C   0  0  0  0  0  0  0  0  0  0  0  0
   -0.6805    0.1900    0.2792 O   0  0  0  0  0  0  0  0  0  0  0  0
   -1.0852   -1.1101    3.3150 C   0  0  0  0  0  0  0  0  0  0  0  0
   -1.0883    1.6241    2.0791 H   0  0  0  0  0  0  0  0  0  0  0  0
    0.8937   -0.2959    3.0277 H   0  0  0  0  0  0  0  0  0  0  0  0
   -2.0970   -1.0114    2.9051 H   0  0  0  0  0  0  0  0  0  0  0  0
   -0.7860   -2.1580    3.2078 H   0  0  0  0  0  0  0  0  0  0  0  0
   -1.1357   -0.8775    4.3842 H   0  0  0  0  0  0  0  0  0  0  0  0
    0.6950   -1.6003    0.8178 N   0  0  0  0  0  0  0  0  0  0  0  0
    0.8777   -2.0908   -0.5246 C   0  0  2  0  0  0  0  0  0  0  0  0
    0.0150   -3.3370   -0.6798 C   0  0  0  0  0  0  0  0  0  0  0  0
    0.1747   -4.1562   -1.5825 O   0  0  0  0  0  0  0  0  0  0  0  0
    2.3433   -2.4103   -0.8196 C   0  0  0  0  0  0  0  0  0  0  0  0
    3.2169   -1.1719   -0.9165 C   0  0  0  0  0  0  0  0  0  0  0  0
    2.8845   -0.1388   -1.4898 O   0  0  0  0  0  0  0  0  0  0  0  0
    4.4292   -1.3367   -0.2806 N   0  0  0  0  0  0  0  0  0  0  0  0
    1.1810   -2.0803    1.5718 H   0  0  0  0  0  0  0  0  0  0  0  0
    0.5004   -1.3109   -1.1963 H   0  0  0  0  0  0  0  0  0  0  0  0
    2.7627   -3.0387   -0.0237 H   0  0  0  0  0  0  0  0  0  0  0  0
    2.4332   -2.9739   -1.7572 H   0  0  0  0  0  0  0  0  0  0  0  0
    4.6603   -2.2084    0.1842 H   0  0  0  0  0  0  0  0  0  0  0  0
    5.1309   -0.6038   -0.2514 H   0  0  0  0  0  0  0  0  0  0  0  0
   -0.9229   -3.4555    0.3362 N   0  0  0  0  0  0  0  0  0  0  0  0
   -1.8342   -4.5723    0.4108 C   0  0  2  0  0  0  0  0  0  0  0  0
   -1.0079   -5.8503    0.4698 C   0  0  0  0  0  0  0  0  0  0  0  0
    0.1500   -5.9198    0.0632 O   0  0  0  0  0  0  0  0  0  0  0  0
   -2.7829   -4.5927   -0.7775 C   0  0  0  0  0  0  0  0  0  0  0  0
   -0.9744   -2.7444    1.0597 H   0  0  0  0  0  0  0  0  0  0  0  0
   -2.3985   -4.4582    1.3428 H   0  0  0  0  0  0  0  0  0  0  0  0
   -2.2356   -4.7063   -1.7204 H   0  0  0  0  0  0  0  0  0  0  0  0
   -3.4921   -5.4239   -0.7048 H   0  0  0  0  0  0  0  0  0  0  0  0
   -3.3550   -3.6604   -0.8356 H   0  0  0  0  0  0  0  0  0  0  0  0
   -1.7301   -6.9151    0.9902 N   0  0  0  0  0  0  0  0  0  0  0  0
   -1.1710   -8.2386    1.1372 C   0  0  0  0  0  0  0  0  0  0  0  0
   -2.6786   -6.7619    1.3199 H   0  0  0  0  0  0  0  0  0  0  0  0
   -1.3956   -8.8338    0.2398 H   0  0  0  0  0  0  0  0  0  0  0  0
   -0.0810   -8.1640    1.2642 H   0  0  0  0  0  0  0  0  0  0  0  0
   -1.6105   -8.7262    2.0199 H   0  0  0  0  0  0  0  0  0  0  0  0
  1  3  1  0  0  0  0
  1  7  1  0  0  0  0
  1  2  2  0  0  0  0
 21 22  1  0  0  0  0
 22 24  1  0  0  0  0
 22 23  2  0  0  0  0
 32 33  1  0  0  0  0
 33 41  1  0  0  0  0
 33 34  2  0  0  0  0
  8  9  1  0  0  0  0
  9 17  1  0  0  0  0
  9 10  2  0  0  0  0
 18 19  1  0  0  0  0
 19 31  1  0  0  0  0
 19 20  2  0  0  0  0
 32 35  1  0  0  0  0
  8 11  1  0  0  0  0
 41 42  1  0  0  0  0
 18 21  1  0  0  0  0
 31 32  1  0  0  0  0
  7  8  1  0  0  0  0
 17 18  1  0  0  0  0
  3  4  1  0  0  0  0
  3  5  1  0  0  0  0
  3  6  1  0  0  0  0
 35 38  1  0  0  0  0
 35 39  1  0  0  0  0
 35 40  1  0  0  0  0
 11 14  1  0  0  0  0
 11 15  1  0  0  0  0
 11 16  1  0  0  0  0
 42 44  1  0  0  0  0
 42 45  1  0  0  0  0
 42 46  1  0  0  0  0
 21 27  1  0  0  0  0
 21 28  1  0  0  0  0
 32 37  1  0  0  0  0
  8 13  1  0  0  0  0
 18 26  1  0  0  0  0
 24 29  1  0  0  0  0
 24 30  1  0  0  0  0
 41 43  1  0  0  0  0
  7 12  1  0  0  0  0
 31 36  1  0  0  0  0
 17 25  1  0  0  0  0
M  END
$$$$

  -OEChem-05262214473D

 46 45  0     1  0  0  0  0  0999 V2000
   -0.0543    1.9736    3.8406 C   0  0  0  0  0  0  0  0  0  0  0  0
    0.6744    1.6099    4.7562 O   0  0  0  0  0  0  0  0  0  0  0  0
   -0.5599    3.3779    3.8160 C   0  0  0  0  0  0  0  0  0  0  0  0
   -1.5202    3.4885    4.3450 H   0  0  0  0  0  0  0  0  0  0  0  0
    0.1282    4.0814    4.3116 H   0  0  0  0  0  0  0  0  0  0  0  0
   -0.7317    3.7994    2.8126 H   0  0  0  0  0  0  0  0  0  0  0  0
   -0.4812    1.1968    2.7762 N   0  0  0  0  0  0  0  0  0  0  0  0
   -0.1106   -0.1834    2.6051 C   0  0  2  0  0  0  0  0  0  0  0  0
   -0.0696   -0.4775    1.1113 C   0  0  0  0  0  0  0  0  0  0  0  0
   -0.6805    0.1900    0.2792 O   0  0  0  0  0  0  0  0  0  0  0  0
   -1.0852   -1.1101    3.3150 C   0  0  0  0  0  0  0  0  0  0  0  0
   -1.0883    1.6241    2.0791 H   0  0  0  0  0  0  0  0  0  0  0  0
    0.8937   -0.2959    3.0277 H   0  0  0  0  0  0  0  0  0  0  0  0
   -2.0970   -1.0114    2.9051 H   0  0  0  0  0  0  0  0  0  0  0  0
   -0.7860   -2.1580    3.2078 H   0  0  0  0  0  0  0  0  0  0  0  0
   -1.1357   -0.8775    4.3842 H   0  0  0  0  0  0  0  0  0  0  0  0
    0.6950   -1.6003    0.8178 N   0  0  0  0  0  0  0  0  0  0  0  0
    0.8777   -2.0908   -0.5246 C   0  0  2  0  0  0  0  0  0  0  0  0
    0.0150   -3.3370   -0.6798 C   0  0  0  0  0  0  0  0  0  0  0  0
    0.3258   -4.2835   -1.4002 O   0  0  0  0  0  0  0  0  0  0  0  0
    2.3433   -2.4103   -0.8196 C   0  0  0  0  0  0  0  0  0  0  0  0
    3.2169   -1.1719   -0.9165 C   0  0  0  0  0  0  0  0  0  0  0  0
    2.8845   -0.1388   -1.4898 O   0  0  0  0  0  0  0  0  0  0  0  0
    4.4292   -1.3367   -0.2806 N   0  0  0  0  0  0  0  0  0  0  0  0
    1.1810   -2.0803    1.5718 H   0  0  0  0  0  0  0  0  0  0  0  0
    0.5004   -1.3109   -1.1963 H   0  0  0  0  0  0  0  0  0  0  0  0
    2.7627   -3.0387   -0.0237 H   0  0  0  0  0  0  0  0  0  0  0  0
    2.4332   -2.9739   -1.7572 H   0  0  0  0  0  0  0  0  0  0  0  0
    4.6603   -2.2084    0.1842 H   0  0  0  0  0  0  0  0  0  0  0  0
    5.1309   -0.6038   -0.2514 H   0  0  0  0  0  0  0  0  0  0  0  0
   -1.1193   -3.2925    0.1185 N   0  0  0  0  0  0  0  0  0  0  0  0
   -2.0722   -4.3758    0.1564 C   0  0  2  0  0  0  0  0  0  0  0  0
   -1.3313   -5.6394    0.5736 C   0  0  0  0  0  0  0  0  0  0  0  0
   -0.1178   -5.7811    0.4382 O   0  0  0  0  0  0  0  0  0  0  0  0
   -2.7506   -4.5635   -1.1916 C   0  0  0  0  0  0  0  0  0  0  0  0
   -1.2913   -2.4808    0.7044 H   0  0  0  0  0  0  0  0  0  0  0  0
   -2.8141   -4.1179    0.9200 H   0  0  0  0  0  0  0  0  0  0  0  0
   -2.0229   -4.8225   -1.9694 H   0  0  0  0  0  0  0  0  0  0  0  0
   -3.4936   -5.3670   -1.1534 H   0  0  0  0  0  0  0  0  0  0  0  0
   -3.2579   -3.6444   -1.5039 H   0  0  0  0  0  0  0  0  0  0  0  0
   -2.1908   -6.6068    1.0752 N   0  0  0  0  0  0  0  0  0  0  0  0
   -1.7313   -7.8994    1.5269 C   0  0  0  0  0  0  0  0  0  0  0  0
   -3.1800   -6.3961    1.1691 H   0  0  0  0  0  0  0  0  0  0  0  0
   -1.7875   -8.6195    0.6973 H   0  0  0  0  0  0  0  0  0  0  0  0
   -0.6899   -7.8182    1.8718 H   0  0  0  0  0  0  0  0  0  0  0  0
   -2.3662   -8.2450    2.3559 H   0  0  0  0  0  0  0  0  0  0  0  0
  1  3  1  0  0  0  0
  1  7  1  0  0  0  0
  1  2  2  0  0  0  0
 21 22  1  0  0  0  0
 22 24  1  0  0  0  0
 22 23  2  0  0  0  0
 32 33  1  0  0  0  0
 33 41  1  0  0  0  0
 33 34  2  0  0  0  0
  8  9  1  0  0  0  0
  9 17  1  0  0  0  0
  9 10  2  0  0  0  0
 18 19  1  0  0  0  0
 19 31  1  0  0  0  0
 19 20  2  0  0  0  0
 32 35  1  0  0  0  0
  8 11  1  0  0  0  0
 41 42  1  0  0  0  0
 18 21  1  0  0  0  0
 31 32  1  0  0  0  0
  7  8  1  0  0  0  0
 17 18  1  0  0  0  0
  3  4  1  0  0  0  0
  3  5  1  0  0  0  0
  3  6  1  0  0  0  0
 35 38  1  0  0  0  0
 35 39  1  0  0  0  0
 35 40  1  0  0  0  0
 11 14  1  0  0  0  0
 11 15  1  0  0  0  0
 11 16  1  0  0  0  0
 42 44  1  0  0  0  0
 42 45  1  0  0  0  0
 42 46  1  0  0  0  0
 21 27  1  0  0  0  0
 21 28  1  0  0  0  0
 32 37  1  0  0  0  0
  8 13  1  0  0  0  0
 18 26  1  0  0  0  0
 24 29  1  0  0  0  0
 24 30  1  0  0  0  0
 41 43  1  0  0  0  0
  7 12  1  0  0  0  0
 31 36  1  0  0  0  0
 17 25  1  0  0  0  0
M  END
$$$$

  -OEChem-05262214473D

 46 45  0     1  0  0  0  0  0999 V2000
   -0.0543    1.9736    3.8406 C   0  0  0  0  0  0  0  0  0  0  0  0
    0.6744    1.6099    4.7562 O   0  0  0  0  0  0  0  0  0  0  0  0
   -0.5599    3.3779    3.8160 C   0  0  0  0  0  0  0  0  0  0  0  0
   -1.5202    3.4885    4.3450 H   0  0  0  0  0  0  0  0  0  0  0  0
    0.1282    4.0814    4.3116 H   0  0  0  0  0  0  0  0  0  0  0  0
   -0.7317    3.7994    2.8126 H   0  0  0  0  0  0  0  0  0  0  0  0
   -0.4812    1.1968    2.7762 N   0  0  0  0  0  0  0  0  0  0  0  0
   -0.1106   -0.1834    2.6051 C   0  0  2  0  0  0  0  0  0  0  0  0
   -0.0696   -0.4775    1.1113 C   0  0  0  0  0  0  0  0  0  0  0  0
   -0.6805    0.1900    0.2792 O   0  0  0  0  0  0  0  0  0  0  0  0
   -1.0852   -1.1101    3.3150 C   0  0  0  0  0  0  0  0  0  0  0  0
   -1.0883    1.6241    2.0791 H   0  0  0  0  0  0  0  0  0  0  0  0
    0.8937   -0.2959    3.0277 H   0  0  0  0  0  0  0  0  0  0  0  0
   -2.0970   -1.0114    2.9051 H   0  0  0  0  0  0  0  0  0  0  0  0
   -0.7860   -2.1580    3.2078 H   0  0  0  0  0  0  0  0  0  0  0  0
   -1.1357   -0.8775    4.3842 H   0  0  0  0  0  0  0  0  0  0  0  0
    0.6950   -1.6003    0.8178 N   0  0  0  0  0  0  0  0  0  0  0  0
    0.8777   -2.0908   -0.5246 C   0  0  2  0  0  0  0  0  0  0  0  0
    0.0150   -3.3370   -0.6798 C   0  0  0  0  0  0  0  0  0  0  0  0
    0.4298   -4.3838   -1.1735 O   0  0  0  0  0  0  0  0  0  0  0  0
    2.3433   -2.4103   -0.8196 C   0  0  0  0  0  0  0  0  0  0  0  0
    3.2169   -1.1719   -0.9165 C   0  0  0  0  0  0  0  0  0  0  0  0
    2.8845   -0.1388   -1.4898 O   0  0  0  0  0  0  0  0  0  0  0  0
    4.4292   -1.3367   -0.2806 N   0  0  0  0  0  0  0  0  0  0  0  0
    1.1810   -2.0803    1.5718 H   0  0  0  0  0  0  0  0  0  0  0  0
    0.5004   -1.3109   -1.1963 H   0  0  0  0  0  0  0  0  0  0  0  0
    2.7627   -3.0387   -0.0237 H   0  0  0  0  0  0  0  0  0  0  0  0
    2.4332   -2.9739   -1.7572 H   0  0  0  0  0  0  0  0  0  0  0  0
    4.6603   -2.2084    0.1842 H   0  0  0  0  0  0  0  0  0  0  0  0
    5.1309   -0.6038   -0.2514 H   0  0  0  0  0  0  0  0  0  0  0  0
   -1.2586   -3.1617   -0.1572 N   0  0  0  0  0  0  0  0  0  0  0  0
   -2.2430   -4.2171   -0.1684 C   0  0  2  0  0  0  0  0  0  0  0  0
   -1.6601   -5.4119    0.5745 C   0  0  0  0  0  0  0  0  0  0  0  0
   -0.4522   -5.5851    0.7233 O   0  0  0  0  0  0  0  0  0  0  0  0
   -2.6309   -4.5969   -1.5890 C   0  0  0  0  0  0  0  0  0  0  0  0
   -1.5153   -2.2698    0.2556 H   0  0  0  0  0  0  0  0  0  0  0  0
   -3.1170   -3.8402    0.3738 H   0  0  0  0  0  0  0  0  0  0  0  0
   -1.7679   -4.9768   -2.1479 H   0  0  0  0  0  0  0  0  0  0  0  0
   -3.3986   -5.3777   -1.5954 H   0  0  0  0  0  0  0  0  0  0  0  0
   -3.0222   -3.7294   -2.1313 H   0  0  0  0  0  0  0  0  0  0  0  0
   -2.6456   -6.2844    1.0146 N   0  0  0  0  0  0  0  0  0  0  0  0
   -2.3459   -7.4998    1.7349 C   0  0  0  0  0  0  0  0  0  0  0  0
   -3.6227   -6.0516    0.8637 H   0  0  0  0  0  0  0  0  0  0  0  0
   -2.2572   -8.3352    1.0248 H   0  0  0  0  0  0  0  0  0  0  0  0
   -1.3976   -7.3790    2.2791 H   0  0  0  0  0  0  0  0  0  0  0  0
   -3.1547   -7.7110    2.4500 H   0  0  0  0  0  0  0  0  0  0  0  0
  1  3  1  0  0  0  0
  1  7  1  0  0  0  0
  1  2  2  0  0  0  0
 21 22  1  0  0  0  0
 22 24  1  0  0  0  0
 22 23  2  0  0  0  0
 32 33  1  0  0  0  0
 33 41  1  0  0  0  0
 33 34  2  0  0  0  0
  8  9  1  0  0  0  0
  9 17  1  0  0  0  0
  9 10  2  0  0  0  0
 18 19  1  0  0  0  0
 19 31  1  0  0  0  0
 19 20  2  0  0  0  0
 32 35  1  0  0  0  0
  8 11  1  0  0  0  0
 41 42  1  0  0  0  0
 18 21  1  0  0  0  0
 31 32  1  0  0  0  0
  7  8  1  0  0  0  0
 17 18  1  0  0  0  0
  3  4  1  0  0  0  0
  3  5  1  0  0  0  0
  3  6  1  0  0  0  0
 35 38  1  0  0  0  0
 35 39  1  0  0  0  0
 35 40  1  0  0  0  0
 11 14  1  0  0  0  0
 11 15  1  0  0  0  0
 11 16  1  0  0  0  0
 42 44  1  0  0  0  0
 42 45  1  0  0  0  0
 42 46  1  0  0  0  0
 21 27  1  0  0  0  0
 21 28  1  0  0  0  0
 32 37  1  0  0  0  0
  8 13  1  0  0  0  0
 18 26  1  0  0  0  0
 24 29  1  0  0  0  0
 24 30  1  0  0  0  0
 41 43  1  0  0  0  0
  7 12  1  0  0  0  0
 31 36  1  0  0  0  0
 17 25  1  0  0  0  0
M  END
$$$$

  -OEChem-05262214473D

 46 45  0     1  0  0  0  0  0999 V2000
   -0.0543    1.9736    3.8406 C   0  0  0  0  0  0  0  0  0  0  0  0
    0.6744    1.6099    4.7562 O   0  0  0  0  0  0  0  0  0  0  0  0
   -0.5599    3.3779    3.8160 C   0  0  0  0  0  0  0  0  0  0  0  0
   -1.5202    3.4885    4.3450 H   0  0  0  0  0  0  0  0  0  0  0  0
    0.1282    4.0814    4.3116 H   0  0  0  0  0  0  0  0  0  0  0  0
   -0.7317    3.7994    2.8126 H   0  0  0  0  0  0  0  0  0  0  0  0
   -0.4812    1.1968    2.7762 N   0  0  0  0  0  0  0  0  0  0  0  0
   -0.1106   -0.1834    2.6051 C   0  0  2  0  0  0  0  0  0  0  0  0
   -0.0696   -0.4775    1.1113 C   0  0  0  0  0  0  0  0  0  0  0  0
   -0.6805    0.1900    0.2792 O   0  0  0  0  0  0  0  0  0  0  0  0
   -1.0852   -1.1101    3.3150 C   0  0  0  0  0  0  0  0  0  0  0  0
   -1.0883    1.6241    2.0791 H   0  0  0  0  0  0  0  0  0  0  0  0
    0.8937   -0.2959    3.0277 H   0  0  0  0  0  0  0  0  0  0  0  0
   -2.0970   -1.0114    2.9051 H   0  0  0  0  0  0  0  0  0  0  0  0
   -0.7860   -2.1580    3.2078 H   0  0  0  0  0  0  0  0  0  0  0  0
   -1.1357   -0.8775    4.3842 H   0  0  0  0  0  0  0  0  0  0  0  0
    0.6950   -1.6003    0.8178 N   0  0  0  0  0  0  0  0  0  0  0  0
    0.8777   -2.0908   -0.5246 C   0  0  2  0  0  0  0  0  0  0  0  0
    0.0150   -3.3370   -0.6798 C   0  0  0  0  0  0  0  0  0  0  0  0
    0.4797   -4.4501   -0.9178 O   0  0  0  0  0  0  0  0  0  0  0  0
    2.3433   -2.4103   -0.8196 C   0  0  0  0  0  0  0  0  0  0  0  0
    3.2169   -1.1719   -0.9165 C   0  0  0  0  0  0  0  0  0  0  0  0
    2.8845   -0.1388   -1.4898 O   0  0  0  0  0  0  0  0  0  0  0  0
    4.4292   -1.3367   -0.2806 N   0  0  0  0  0  0  0  0  0  0  0  0
    1.1810   -2.0803    1.5718 H   0  0  0  0  0  0  0  0  0  0  0  0
    0.5004   -1.3109   -1.1963 H   0  0  0  0  0  0  0  0  0  0  0  0
    2.7627   -3.0387   -0.0237 H   0  0  0  0  0  0  0  0  0  0  0  0
    2.4332   -2.9739   -1.7572 H   0  0  0  0  0  0  0  0  0  0  0  0
    4.6603   -2.2084    0.1842 H   0  0  0  0  0  0  0  0  0  0  0  0
    5.1309   -0.6038   -0.2514 H   0  0  0  0  0  0  0  0  0  0  0  0
   -1.3313   -3.0721   -0.4721 N   0  0  0  0  0  0  0  0  0  0  0  0
   -2.3351   -4.1069   -0.5417 C   0  0  2  0  0  0  0  0  0  0  0  0
   -1.9718   -5.1834    0.4725 C   0  0  0  0  0  0  0  0  0  0  0  0
   -0.8304   -5.3452    0.8992 O   0  0  0  0  0  0  0  0  0  0  0  0
   -2.4320   -4.6905   -1.9427 C   0  0  0  0  0  0  0  0  0  0  0  0
   -1.6311   -2.1259   -0.2563 H   0  0  0  0  0  0  0  0  0  0  0  0
   -3.2867   -3.6439   -0.2587 H   0  0  0  0  0  0  0  0  0  0  0  0
   -1.4878   -5.1588   -2.2437 H   0  0  0  0  0  0  0  0  0  0  0  0
   -3.2135   -5.4553   -2.0007 H   0  0  0  0  0  0  0  0  0  0  0  0
   -2.6640   -3.9096   -2.6749 H   0  0  0  0  0  0  0  0  0  0  0  0
   -3.0636   -5.9699    0.8125 N   0  0  0  0  0  0  0  0  0  0  0  0
   -2.9732   -7.0672    1.7472 C   0  0  0  0  0  0  0  0  0  0  0  0
   -3.9766   -5.7519    0.4244 H   0  0  0  0  0  0  0  0  0  0  0  0
   -2.7728   -8.0001    1.2001 H   0  0  0  0  0  0  0  0  0  0  0  0
   -2.1558   -6.8765    2.4583 H   0  0  0  0  0  0  0  0  0  0  0  0
   -3.9221   -7.1606    2.2958 H   0  0  0  0  0  0  0  0  0  0  0  0
  1  3  1  0  0  0  0
  1  7  1  0  0  0  0
  1  2  2  0  0  0  0
 21 22  1  0  0  0  0
 22 24  1  0  0  0  0
 22 23  2  0  0  0  0
 32 33  1  0  0  0  0
 33 41  1  0  0  0  0
 33 34  2  0  0  0  0
  8  9  1  0  0  0  0
  9 17  1  0  0  0  0
  9 10  2  0  0  0  0
 18 19  1  0  0  0  0
 19 31  1  0  0  0  0
 19 20  2  0  0  0  0
 32 35  1  0  0  0  0
  8 11  1  0  0  0  0
 41 42  1  0  0  0  0
 18 21  1  0  0  0  0
 31 32  1  0  0  0  0
  7  8  1  0  0  0  0
 17 18  1  0  0  0  0
  3  4  1  0  0  0  0
  3  5  1  0  0  0  0
  3  6  1  0  0  0  0
 35 38  1  0  0  0  0
 35 39  1  0  0  0  0
 35 40  1  0  0  0  0
 11 14  1  0  0  0  0
 11 15  1  0  0  0  0
 11 16  1  0  0  0  0
 42 44  1  0  0  0  0
 42 45  1  0  0  0  0
 42 46  1  0  0  0  0
 21 27  1  0  0  0  0
 21 28  1  0  0  0  0
 32 37  1  0  0  0  0
  8 13  1  0  0  0  0
 18 26  1  0  0  0  0
 24 29  1  0  0  0  0
 24 30  1  0  0  0  0
 41 43  1  0  0  0  0
  7 12  1  0  0  0  0
 31 36  1  0  0  0  0
 17 25  1  0  0  0  0
M  END
$$$$

  -OEChem-05262214473D

 46 45  0     1  0  0  0  0  0999 V2000
   -0.0543    1.9736    3.8406 C   0  0  0  0  0  0  0  0  0  0  0  0
    0.6744    1.6099    4.7562 O   0  0  0  0  0  0  0  0  0  0  0  0
   -0.5599    3.3779    3.8160 C   0  0  0  0  0  0  0  0  0  0  0  0
   -1.5202    3.4885    4.3450 H   0  0  0  0  0  0  0  0  0  0  0  0
    0.1282    4.0814    4.3116 H   0  0  0  0  0  0  0  0  0  0  0  0
   -0.7317    3.7994    2.8126 H   0  0  0  0  0  0  0  0  0  0  0  0
   -0.4812    1.1968    2.7762 N   0  0  0  0  0  0  0  0  0  0  0  0
   -0.1106   -0.1834    2.6051 C   0  0  2  0  0  0  0  0  0  0  0  0
   -0.0696   -0.4775    1.1113 C   0  0  0  0  0  0  0  0  0  0  0  0
   -0.6805    0.1900    0.2792 O   0  0  0  0  0  0  0  0  0  0  0  0
   -1.0852   -1.1101    3.3150 C   0  0  0  0  0  0  0  0  0  0  0  0
   -1.0883    1.6241    2.0791 H   0  0  0  0  0  0  0  0  0  0  0  0
    0.8937   -0.2959    3.0277 H   0  0  0  0  0  0  0  0  0  0  0  0
   -2.0970   -1.0114    2.9051 H   0  0  0  0  0  0  0  0  0  0  0  0
   -0.7860   -2.1580    3.2078 H   0  0  0  0  0  0  0  0  0  0  0  0
   -1.1357   -0.8775    4.3842 H   0  0  0  0  0  0  0  0  0  0  0  0
    0.6950   -1.6003    0.8178 N   0  0  0  0  0  0  0  0  0  0  0  0
    0.8777   -2.0908   -0.5246 C   0  0  2  0  0  0  0  0  0  0  0  0
    0.0150   -3.3370   -0.6798 C   0  0  0  0  0  0  0  0  0  0  0  0
    0.4719   -4.4780   -0.6505 O   0  0  0  0  0  0  0  0  0  0  0  0
    2.3433   -2.4103   -0.8196 C   0  0  0  0  0  0  0  0  0  0  0  0
    3.2169   -1.1719   -0.9165 C   0  0  0  0  0  0  0  0  0  0  0  0
    2.8845   -0.1388   -1.4898 O   0  0  0  0  0  0  0  0  0  0  0  0
    4.4292   -1.3367   -0.2806 N   0  0  0  0  0  0  0  0  0  0  0  0
    1.1810   -2.0803    1.5718 H   0  0  0  0  0  0  0  0  0  0  0  0
    0.5004   -1.3109   -1.1963 H   0  0  0  0  0  0  0  0  0  0  0  0
    2.7627   -3.0387   -0.0237 H   0  0  0  0  0  0  0  0  0  0  0  0
    2.4332   -2.9739   -1.7572 H   0  0  0  0  0  0  0  0  0  0  0  0
    4.6603   -2.2084    0.1842 H   0  0  0  0  0  0  0  0  0  0  0  0
    5.1309   -0.6038   -0.2514 H   0  0  0  0  0  0  0  0  0  0  0  0
   -1.3325   -3.0299   -0.8049 N   0  0  0  0  0  0  0  0  0  0  0  0
   -2.3421   -4.0527   -0.9379 C   0  0  2  0  0  0  0  0  0  0  0  0
   -2.2453   -4.9695    0.2745 C   0  0  0  0  0  0  0  0  0  0  0  0
   -1.2266   -5.0778    0.9539 O   0  0  0  0  0  0  0  0  0  0  0  0
   -2.1675   -4.8380   -2.2284 C   0  0  0  0  0  0  0  0  0  0  0  0
   -1.6307   -2.0589   -0.7963 H   0  0  0  0  0  0  0  0  0  0  0  0
   -3.3115   -3.5426   -0.9343 H   0  0  0  0  0  0  0  0  0  0  0  0
   -1.2018   -5.3560   -2.2503 H   0  0  0  0  0  0  0  0  0  0  0  0
   -2.9510   -5.5946   -2.3416 H   0  0  0  0  0  0  0  0  0  0  0  0
   -2.2077   -4.1729   -3.0978 H   0  0  0  0  0  0  0  0  0  0  0  0
   -3.4163   -5.6847    0.4827 N   0  0  0  0  0  0  0  0  0  0  0  0
   -3.5702   -6.6309    1.5629 C   0  0  0  0  0  0  0  0  0  0  0  0
   -4.2176   -5.5175   -0.1187 H   0  0  0  0  0  0  0  0  0  0  0  0
   -3.2990   -7.6372    1.2111 H   0  0  0  0  0  0  0  0  0  0  0  0
   -2.9129   -6.3449    2.3973 H   0  0  0  0  0  0  0  0  0  0  0  0
   -4.6162   -6.6313    1.9036 H   0  0  0  0  0  0  0  0  0  0  0  0
  1  3  1  0  0  0  0
  1  7  1  0  0  0  0
  1  2  2  0  0  0  0
 21 22  1  0  0  0  0
 22 24  1  0  0  0  0
 22 23  2  0  0  0  0
 32 33  1  0  0  0  0
 33 41  1  0  0  0  0
 33 34  2  0  0  0  0
  8  9  1  0  0  0  0
  9 17  1  0  0  0  0
  9 10  2  0  0  0  0
 18 19  1  0  0  0  0
 19 31  1  0  0  0  0
 19 20  2  0  0  0  0
 32 35  1  0  0  0  0
  8 11  1  0  0  0  0
 41 42  1  0  0  0  0
 18 21  1  0  0  0  0
 31 32  1  0  0  0  0
  7  8  1  0  0  0  0
 17 18  1  0  0  0  0
  3  4  1  0  0  0  0
  3  5  1  0  0  0  0
  3  6  1  0  0  0  0
 35 38  1  0  0  0  0
 35 39  1  0  0  0  0
 35 40  1  0  0  0  0
 11 14  1  0  0  0  0
 11 15  1  0  0  0  0
 11 16  1  0  0  0  0
 42 44  1  0  0  0  0
 42 45  1  0  0  0  0
 42 46  1  0  0  0  0
 21 27  1  0  0  0  0
 21 28  1  0  0  0  0
 32 37  1  0  0  0  0
  8 13  1  0  0  0  0
 18 26  1  0  0  0  0
 24 29  1  0  0  0  0
 24 30  1  0  0  0  0
 41 43  1  0  0  0  0
  7 12  1  0  0  0  0
 31 36  1  0  0  0  0
 17 25  1  0  0  0  0
M  END
$$$$

  -OEChem-05262214473D

 46 45  0     1  0  0  0  0  0999 V2000
   -0.0543    1.9736    3.8406 C   0  0  0  0  0  0  0  0  0  0  0  0
    0.6744    1.6099    4.7562 O   0  0  0  0  0  0  0  0  0  0  0  0
   -0.5599    3.3779    3.8160 C   0  0  0  0  0  0  0  0  0  0  0  0
   -1.5202    3.4885    4.3450 H   0  0  0  0  0  0  0  0  0  0  0  0
    0.1282    4.0814    4.3116 H   0  0  0  0  0  0  0  0  0  0  0  0
   -0.7317    3.7994    2.8126 H   0  0  0  0  0  0  0  0  0  0  0  0
   -0.4812    1.1968    2.7762 N   0  0  0  0  0  0  0  0  0  0  0  0
   -0.1106   -0.1834    2.6051 C   0  0  2  0  0  0  0  0  0  0  0  0
   -0.0696   -0.4775    1.1113 C   0  0  0  0  0  0  0  0  0  0  0  0
   -0.6805    0.1900    0.2792 O   0  0  0  0  0  0  0  0  0  0  0  0
   -1.0852   -1.1101    3.3150 C   0  0  0  0  0  0  0  0  0  0  0  0
   -1.0883    1.6241    2.0791 H   0  0  0  0  0  0  0  0  0  0  0  0
    0.8937   -0.2959    3.0277 H   0  0  0  0  0  0  0  0  0  0  0  0
   -2.0970   -1.0114    2.9051 H   0  0  0  0  0  0  0  0  0  0  0  0
   -0.7860   -2.1580    3.2078 H   0  0  0  0  0  0  0  0  0  0  0  0
   -1.1357   -0.8775    4.3842 H   0  0  0  0  0  0  0  0  0  0  0  0
    0.6950   -1.6003    0.8178 N   0  0  0  0  0  0  0  0  0  0  0  0
    0.8777   -2.0908   -0.5246 C   0  0  2  0  0  0  0  0  0  0  0  0
    0.0150   -3.3370   -0.6798 C   0  0  0  0  0  0  0  0  0  0  0  0
    0.4071   -4.4656   -0.3899 O   0  0  0  0  0  0  0  0  0  0  0  0
    2.3433   -2.4103   -0.8196 C   0  0  0  0  0  0  0  0  0  0  0  0
    3.2169   -1.1719   -0.9165 C   0  0  0  0  0  0  0  0  0  0  0  0
    2.8845   -0.1388   -1.4898 O   0  0  0  0  0  0  0  0  0  0  0  0
    4.4292   -1.3367   -0.2806 N   0  0  0  0  0  0  0  0  0  0  0  0
    1.1810   -2.0803    1.5718 H   0  0  0  0  0  0  0  0  0  0  0  0
    0.5004   -1.3109   -1.1963 H   0  0  0  0  0  0  0  0  0  0  0  0
    2.7627   -3.0387   -0.0237 H   0  0  0  0  0  0  0  0  0  0  0  0
    2.4332   -2.9739   -1.7572 H   0  0  0  0  0  0  0  0  0  0  0  0
    4.6603   -2.2084    0.1842 H   0  0  0  0  0  0  0  0  0  0  0  0
    5.1309   -0.6038   -0.2514 H   0  0  0  0  0  0  0  0  0  0  0  0
   -1.2622   -3.0378   -1.1327 N   0  0  0  0  0  0  0  0  0  0  0  0
   -2.2635   -4.0583   -1.3300 C   0  0  2  0  0  0  0  0  0  0  0  0
   -2.4619   -4.7846   -0.0061 C   0  0  0  0  0  0  0  0  0  0  0  0
   -1.6139   -4.8010    0.8837 O   0  0  0  0  0  0  0  0  0  0  0  0
   -1.8554   -5.0293   -2.4269 C   0  0  0  0  0  0  0  0  0  0  0  0
   -1.5143   -2.0733   -1.3277 H   0  0  0  0  0  0  0  0  0  0  0  0
   -3.1898   -3.5431   -1.6069 H   0  0  0  0  0  0  0  0  0  0  0  0
   -0.9293   -5.5549   -2.1672 H   0  0  0  0  0  0  0  0  0  0  0  0
   -2.6289   -5.7860   -2.5949 H   0  0  0  0  0  0  0  0  0  0  0  0
   -1.6843   -4.5011   -3.3711 H   0  0  0  0  0  0  0  0  0  0  0  0
   -3.6796   -5.4483    0.0477 N   0  0  0  0  0  0  0  0  0  0  0  0
   -4.0965   -6.2208    1.1946 C   0  0  0  0  0  0  0  0  0  0  0  0
   -4.3292   -5.3643   -0.7287 H   0  0  0  0  0  0  0  0  0  0  0  0
   -3.8001   -7.2712    1.0572 H   0  0  0  0  0  0  0  0  0  0  0  0
   -3.6173   -5.8203    2.1001 H   0  0  0  0  0  0  0  0  0  0  0  0
   -5.1896   -6.1592    1.3004 H   0  0  0  0  0  0  0  0  0  0  0  0
  1  3  1  0  0  0  0
  1  7  1  0  0  0  0
  1  2  2  0  0  0  0
 21 22  1  0  0  0  0
 22 24  1  0  0  0  0
 22 23  2  0  0  0  0
 32 33  1  0  0  0  0
 33 41  1  0  0  0  0
 33 34  2  0  0  0  0
  8  9  1  0  0  0  0
  9 17  1  0  0  0  0
  9 10  2  0  0  0  0
 18 19  1  0  0  0  0
 19 31  1  0  0  0  0
 19 20  2  0  0  0  0
 32 35  1  0  0  0  0
  8 11  1  0  0  0  0
 41 42  1  0  0  0  0
 18 21  1  0  0  0  0
 31 32  1  0  0  0  0
  7  8  1  0  0  0  0
 17 18  1  0  0  0  0
  3  4  1  0  0  0  0
  3  5  1  0  0  0  0
  3  6  1  0  0  0  0
 35 38  1  0  0  0  0
 35 39  1  0  0  0  0
 35 40  1  0  0  0  0
 11 14  1  0  0  0  0
 11 15  1  0  0  0  0
 11 16  1  0  0  0  0
 42 44  1  0  0  0  0
 42 45  1  0  0  0  0
 42 46  1  0  0  0  0
 21 27  1  0  0  0  0
 21 28  1  0  0  0  0
 32 37  1  0  0  0  0
  8 13  1  0  0  0  0
 18 26  1  0  0  0  0
 24 29  1  0  0  0  0
 24 30  1  0  0  0  0
 41 43  1  0  0  0  0
  7 12  1  0  0  0  0
 31 36  1  0  0  0  0
 17 25  1  0  0  0  0
M  END
$$$$

  -OEChem-05262214473D

 46 45  0     1  0  0  0  0  0999 V2000
   -0.0543    1.9736    3.8406 C   0  0  0  0  0  0  0  0  0  0  0  0
    0.6744    1.6099    4.7562 O   0  0  0  0  0  0  0  0  0  0  0  0
   -0.5599    3.3779    3.8160 C   0  0  0  0  0  0  0  0  0  0  0  0
   -1.5202    3.4885    4.3450 H   0  0  0  0  0  0  0  0  0  0  0  0
    0.1282    4.0814    4.3116 H   0  0  0  0  0  0  0  0  0  0  0  0
   -0.7317    3.7994    2.8126 H   0  0  0  0  0  0  0  0  0  0  0  0
   -0.4812    1.1968    2.7762 N   0  0  0  0  0  0  0  0  0  0  0  0
   -0.1106   -0.1834    2.6051 C   0  0  2  0  0  0  0  0  0  0  0  0
   -0.0696   -0.4775    1.1113 C   0  0  0  0  0  0  0  0  0  0  0  0
   -0.6805    0.1900    0.2792 O   0  0  0  0  0  0  0  0  0  0  0  0
   -1.0852   -1.1101    3.3150 C   0  0  0  0  0  0  0  0  0  0  0  0
   -1.0883    1.6241    2.0791 H   0  0  0  0  0  0  0  0  0  0  0  0
    0.8937   -0.2959    3.0277 H   0  0  0  0  0  0  0  0  0  0  0  0
   -2.0970   -1.0114    2.9051 H   0  0  0  0  0  0  0  0  0  0  0  0
   -0.7860   -2.1580    3.2078 H   0  0  0  0  0  0  0  0  0  0  0  0
   -1.1357   -0.8775    4.3842 H   0  0  0  0  0  0  0  0  0  0  0  0
    0.6950   -1.6003    0.8178 N   0  0  0  0  0  0  0  0  0  0  0  0
    0.8777   -2.0908   -0.5246 C   0  0  2  0  0  0  0  0  0  0  0  0
    0.0150   -3.3370   -0.6798 C   0  0  0  0  0  0  0  0  0  0  0  0
    0.2897   -4.4137   -0.1538 O   0  0  0  0  0  0  0  0  0  0  0  0
    2.3433   -2.4103   -0.8196 C   0  0  0  0  0  0  0  0  0  0  0  0
    3.2169   -1.1719   -0.9165 C   0  0  0  0  0  0  0  0  0  0  0  0
    2.8845   -0.1388   -1.4898 O   0  0  0  0  0  0  0  0  0  0  0  0
    4.4292   -1.3367   -0.2806 N   0  0  0  0  0  0  0  0  0  0  0  0
    1.1810   -2.0803    1.5718 H   0  0  0  0  0  0  0  0  0  0  0  0
    0.5004   -1.3109   -1.1963 H   0  0  0  0  0  0  0  0  0  0  0  0
    2.7627   -3.0387   -0.0237 H   0  0  0  0  0  0  0  0  0  0  0  0
    2.4332   -2.9739   -1.7572 H   0  0  0  0  0  0  0  0  0  0  0  0
    4.6603   -2.2084    0.1842 H   0  0  0  0  0  0  0  0  0  0  0  0
    5.1309   -0.6038   -0.2514 H   0  0  0  0  0  0  0  0  0  0  0  0
   -1.1250   -3.0953   -1.4334 N   0  0  0  0  0  0  0  0  0  0  0  0
   -2.1048   -4.1231   -1.6912 C   0  0  2  0  0  0  0  0  0  0  0  0
   -2.6069   -4.6414   -0.3500 C   0  0  0  0  0  0  0  0  0  0  0  0
   -1.9658   -4.5337    0.6933 O   0  0  0  0  0  0  0  0  0  0  0  0
   -1.5170   -5.2514   -2.5244 C   0  0  0  0  0  0  0  0  0  0  0  0
   -1.2898   -2.1682   -1.8142 H   0  0  0  0  0  0  0  0  0  0  0  0
   -2.9298   -3.6454   -2.2308 H   0  0  0  0  0  0  0  0  0  0  0  0
   -0.6889   -5.7421   -2.0001 H   0  0  0  0  0  0  0  0  0  0  0  0
   -2.2692   -6.0164   -2.7433 H   0  0  0  0  0  0  0  0  0  0  0  0
   -1.1295   -4.8720   -3.4761 H   0  0  0  0  0  0  0  0  0  0  0  0
   -3.8356   -5.2767   -0.4629 N   0  0  0  0  0  0  0  0  0  0  0  0
   -4.5159   -5.8648    0.6673 C   0  0  0  0  0  0  0  0  0  0  0  0
   -4.3038   -5.3027   -1.3639 H   0  0  0  0  0  0  0  0  0  0  0  0
   -4.2419   -6.9270    0.7488 H   0  0  0  0  0  0  0  0  0  0  0  0
   -4.2209   -5.3386    1.5871 H   0  0  0  0  0  0  0  0  0  0  0  0
   -5.6034   -5.7765    0.5271 H   0  0  0  0  0  0  0  0  0  0  0  0
  1  3  1  0  0  0  0
  1  7  1  0  0  0  0
  1  2  2  0  0  0  0
 21 22  1  0  0  0  0
 22 24  1  0  0  0  0
 22 23  2  0  0  0  0
 32 33  1  0  0  0  0
 33 41  1  0  0  0  0
 33 34  2  0  0  0  0
  8  9  1  0  0  0  0
  9 17  1  0  0  0  0
  9 10  2  0  0  0  0
 18 19  1  0  0  0  0
 19 31  1  0  0  0  0
 19 20  2  0  0  0  0
 32 35  1  0  0  0  0
  8 11  1  0  0  0  0
 41 42  1  0  0  0  0
 18 21  1  0  0  0  0
 31 32  1  0  0  0  0
  7  8  1  0  0  0  0
 17 18  1  0  0  0  0
  3  4  1  0  0  0  0
  3  5  1  0  0  0  0
  3  6  1  0  0  0  0
 35 38  1  0  0  0  0
 35 39  1  0  0  0  0
 35 40  1  0  0  0  0
 11 14  1  0  0  0  0
 11 15  1  0  0  0  0
 11 16  1  0  0  0  0
 42 44  1  0  0  0  0
 42 45  1  0  0  0  0
 42 46  1  0  0  0  0
 21 27  1  0  0  0  0
 21 28  1  0  0  0  0
 32 37  1  0  0  0  0
  8 13  1  0  0  0  0
 18 26  1  0  0  0  0
 24 29  1  0  0  0  0
 24 30  1  0  0  0  0
 41 43  1  0  0  0  0
  7 12  1  0  0  0  0
 31 36  1  0  0  0  0
 17 25  1  0  0  0  0
M  END
$$$$

  -OEChem-05262214473D

 46 45  0     1  0  0  0  0  0999 V2000
   -0.0543    1.9736    3.8406 C   0  0  0  0  0  0  0  0  0  0  0  0
    0.6744    1.6099    4.7562 O   0  0  0  0  0  0  0  0  0  0  0  0
   -0.5599    3.3779    3.8160 C   0  0  0  0  0  0  0  0  0  0  0  0
   -1.5202    3.4885    4.3450 H   0  0  0  0  0  0  0  0  0  0  0  0
    0.1282    4.0814    4.3116 H   0  0  0  0  0  0  0  0  0  0  0  0
   -0.7317    3.7994    2.8126 H   0  0  0  0  0  0  0  0  0  0  0  0
   -0.4812    1.1968    2.7762 N   0  0  0  0  0  0  0  0  0  0  0  0
   -0.1106   -0.1834    2.6051 C   0  0  2  0  0  0  0  0  0  0  0  0
   -0.0696   -0.4775    1.1113 C   0  0  0  0  0  0  0  0  0  0  0  0
   -0.6805    0.1900    0.2792 O   0  0  0  0  0  0  0  0  0  0  0  0
   -1.0852   -1.1101    3.3150 C   0  0  0  0  0  0  0  0  0  0  0  0
   -1.0883    1.6241    2.0791 H   0  0  0  0  0  0  0  0  0  0  0  0
    0.8937   -0.2959    3.0277 H   0  0  0  0  0  0  0  0  0  0  0  0
   -2.0970   -1.0114    2.9051 H   0  0  0  0  0  0  0  0  0  0  0  0
   -0.7860   -2.1580    3.2078 H   0  0  0  0  0  0  0  0  0  0  0  0
   -1.1357   -0.8775    4.3842 H   0  0  0  0  0  0  0  0  0  0  0  0
    0.6950   -1.6003    0.8178 N   0  0  0  0  0  0  0  0  0  0  0  0
    0.8777   -2.0908   -0.5246 C   0  0  2  0  0  0  0  0  0  0  0  0
    0.0150   -3.3370   -0.6798 C   0  0  0  0  0  0  0  0  0  0  0  0
    0.1276   -4.3259    0.0419 O   0  0  0  0  0  0  0  0  0  0  0  0
    2.3433   -2.4103   -0.8196 C   0  0  0  0  0  0  0  0  0  0  0  0
    3.2169   -1.1719   -0.9165 C   0  0  0  0  0  0  0  0  0  0  0  0
    2.8845   -0.1388   -1.4898 O   0  0  0  0  0  0  0  0  0  0  0  0
    4.4292   -1.3367   -0.2806 N   0  0  0  0  0  0  0  0  0  0  0  0
    1.1810   -2.0803    1.5718 H   0  0  0  0  0  0  0  0  0  0  0  0
    0.5004   -1.3109   -1.1963 H   0  0  0  0  0  0  0  0  0  0  0  0
    2.7627   -3.0387   -0.0237 H   0  0  0  0  0  0  0  0  0  0  0  0
    2.4332   -2.9739   -1.7572 H   0  0  0  0  0  0  0  0  0  0  0  0
    4.6603   -2.2084    0.1842 H   0  0  0  0  0  0  0  0  0  0  0  0
    5.1309   -0.6038   -0.2514 H   0  0  0  0  0  0  0  0  0  0  0  0
   -0.9303   -3.1985   -1.6863 N   0  0  0  0  0  0  0  0  0  0  0  0
   -1.8767   -4.2429   -1.9971 C   0  0  2  0  0  0  0  0  0  0  0  0
   -2.6703   -4.5497   -0.7339 C   0  0  0  0  0  0  0  0  0  0  0  0
   -2.2583   -4.2941    0.3957 O   0  0  0  0  0  0  0  0  0  0  0  0
   -1.1753   -5.4891   -2.5145 C   0  0  0  0  0  0  0  0  0  0  0  0
   -0.9723   -2.3370   -2.2228 H   0  0  0  0  0  0  0  0  0  0  0  0
   -2.5493   -3.8424   -2.7634 H   0  0  0  0  0  0  0  0  0  0  0  0
   -0.4971   -5.9047   -1.7604 H   0  0  0  0  0  0  0  0  0  0  0  0
   -1.8965   -6.2703   -2.7768 H   0  0  0  0  0  0  0  0  0  0  0  0
   -0.5812   -5.2603   -3.4058 H   0  0  0  0  0  0  0  0  0  0  0  0
   -3.8737   -5.1817   -1.0142 N   0  0  0  0  0  0  0  0  0  0  0  0
   -4.8001   -5.5871    0.0170 C   0  0  0  0  0  0  0  0  0  0  0  0
   -4.1432   -5.3370   -1.9812 H   0  0  0  0  0  0  0  0  0  0  0  0
   -4.5943   -6.6281    0.3069 H   0  0  0  0  0  0  0  0  0  0  0  0
   -4.6827   -4.9325    0.8932 H   0  0  0  0  0  0  0  0  0  0  0  0
   -5.8292   -5.5092   -0.3636 H   0  0  0  0  0  0  0  0  0  0  0  0
  1  3  1  0  0  0  0
  1  7  1  0  0  0  0
  1  2  2  0  0  0  0
 21 22  1  0  0  0  0
 22 24  1  0  0  0  0
 22 23  2  0  0  0  0
 32 33  1  0  0  0  0
 33 41  1  0  0  0  0
 33 34  2  0  0  0  0
  8  9  1  0  0  0  0
  9 17  1  0  0  0  0
  9 10  2  0  0  0  0
 18 19  1  0  0  0  0
 19 31  1  0  0  0  0
 19 20  2  0  0  0  0
 32 35  1  0  0  0  0
  8 11  1  0  0  0  0
 41 42  1  0  0  0  0
 18 21  1  0  0  0  0
 31 32  1  0  0  0  0
  7  8  1  0  0  0  0
 17 18  1  0  0  0  0
  3  4  1  0  0  0  0
  3  5  1  0  0  0  0
  3  6  1  0  0  0  0
 35 38  1  0  0  0  0
 35 39  1  0  0  0  0
 35 40  1  0  0  0  0
 11 14  1  0  0  0  0
 11 15  1  0  0  0  0
 11 16  1  0  0  0  0
 42 44  1  0  0  0  0
 42 45  1  0  0  0  0
 42 46  1  0  0  0  0
 21 27  1  0  0  0  0
 21 28  1  0  0  0  0
 32 37  1  0  0  0  0
  8 13  1  0  0  0  0
 18 26  1  0  0  0  0
 24 29  1  0  0  0  0
 24 30  1  0  0  0  0
 41 43  1  0  0  0  0
  7 12  1  0  0  0  0
 31 36  1  0  0  0  0
 17 25  1  0  0  0  0
M  END
$$$$

  -OEChem-05262214473D

 46 45  0     1  0  0  0  0  0999 V2000
   -0.0543    1.9736    3.8406 C   0  0  0  0  0  0  0  0  0  0  0  0
    0.6744    1.6099    4.7562 O   0  0  0  0  0  0  0  0  0  0  0  0
   -0.5599    3.3779    3.8160 C   0  0  0  0  0  0  0  0  0  0  0  0
   -1.5202    3.4885    4.3450 H   0  0  0  0  0  0  0  0  0  0  0  0
    0.1282    4.0814    4.3116 H   0  0  0  0  0  0  0  0  0  0  0  0
   -0.7317    3.7994    2.8126 H   0  0  0  0  0  0  0  0  0  0  0  0
   -0.4812    1.1968    2.7762 N   0  0  0  0  0  0  0  0  0  0  0  0
   -0.1106   -0.1834    2.6051 C   0  0  2  0  0  0  0  0  0  0  0  0
   -0.0696   -0.4775    1.1113 C   0  0  0  0  0  0  0  0  0  0  0  0
   -0.6805    0.1900    0.2792 O   0  0  0  0  0  0  0  0  0  0  0  0
   -1.0852   -1.1101    3.3150 C   0  0  0  0  0  0  0  0  0  0  0  0
   -1.0883    1.6241    2.0791 H   0  0  0  0  0  0  0  0  0  0  0  0
    0.8937   -0.2959    3.0277 H   0  0  0  0  0  0  0  0  0  0  0  0
   -2.0970   -1.0114    2.9051 H   0  0  0  0  0  0  0  0  0  0  0  0
   -0.7860   -2.1580    3.2078 H   0  0  0  0  0  0  0  0  0  0  0  0
   -1.1357   -0.8775    4.3842 H   0  0  0  0  0  0  0  0  0  0  0  0
    0.6950   -1.6003    0.8178 N   0  0  0  0  0  0  0  0  0  0  0  0
    0.8777   -2.0908   -0.5246 C   0  0  2  0  0  0  0  0  0  0  0  0
    0.0150   -3.3370   -0.6798 C   0  0  0  0  0  0  0  0  0  0  0  0
   -0.0680   -4.2082    0.1837 O   0  0  0  0  0  0  0  0  0  0  0  0
    2.3433   -2.4103   -0.8196 C   0  0  0  0  0  0  0  0  0  0  0  0
    3.2169   -1.1719   -0.9165 C   0  0  0  0  0  0  0  0  0  0  0  0
    2.8845   -0.1388   -1.4898 O   0  0  0  0  0  0  0  0  0  0  0  0
    4.4292   -1.3367   -0.2806 N   0  0  0  0  0  0  0  0  0  0  0  0
    1.1810   -2.0803    1.5718 H   0  0  0  0  0  0  0  0  0  0  0  0
    0.5004   -1.3109   -1.1963 H   0  0  0  0  0  0  0  0  0  0  0  0
    2.7627   -3.0387   -0.0237 H   0  0  0  0  0  0  0  0  0  0  0  0
    2.4332   -2.9739   -1.7572 H   0  0  0  0  0  0  0  0  0  0  0  0
    4.6603   -2.2084    0.1842 H   0  0  0  0  0  0  0  0  0  0  0  0
    5.1309   -0.6038   -0.2514 H   0  0  0  0  0  0  0  0  0  0  0  0
   -0.6915   -3.3404   -1.8742 N   0  0  0  0  0  0  0  0  0  0  0  0
   -1.5948   -4.4095   -2.2267 C   0  0  2  0  0  0  0  0  0  0  0  0
   -2.6479   -4.5157   -1.1316 C   0  0  0  0  0  0  0  0  0  0  0  0
   -2.4716   -4.0986    0.0112 O   0  0  0  0  0  0  0  0  0  0  0  0
   -0.8537   -5.7263   -2.3977 C   0  0  0  0  0  0  0  0  0  0  0  0
   -0.5837   -2.5683   -2.5254 H   0  0  0  0  0  0  0  0  0  0  0  0
   -2.0743   -4.1208   -3.1685 H   0  0  0  0  0  0  0  0  0  0  0  0
   -0.3668   -6.0318   -1.4644 H   0  0  0  0  0  0  0  0  0  0  0  0
   -1.5360   -6.5302   -2.6930 H   0  0  0  0  0  0  0  0  0  0  0  0
   -0.0767   -5.6395   -3.1649 H   0  0  0  0  0  0  0  0  0  0  0  0
   -3.7913   -5.1697   -1.5688 N   0  0  0  0  0  0  0  0  0  0  0  0
   -4.9296   -5.4067   -0.7120 C   0  0  0  0  0  0  0  0  0  0  0  0
   -3.8583   -5.4649   -2.5384 H   0  0  0  0  0  0  0  0  0  0  0  0
   -4.8332   -6.3948   -0.2383 H   0  0  0  0  0  0  0  0  0  0  0  0
   -4.9711   -4.6299    0.0657 H   0  0  0  0  0  0  0  0  0  0  0  0
   -5.8518   -5.3756   -1.3108 H   0  0  0  0  0  0  0  0  0  0  0  0
  1  3  1  0  0  0  0
  1  7  1  0  0  0  0
  1  2  2  0  0  0  0
 21 22  1  0  0  0  0
 22 24  1  0  0  0  0
 22 23  2  0  0  0  0
 32 33  1  0  0  0  0
 33 41  1  0  0  0  0
 33 34  2  0  0  0  0
  8  9  1  0  0  0  0
  9 17  1  0  0  0  0
  9 10  2  0  0  0  0
 18 19  1  0  0  0  0
 19 31  1  0  0  0  0
 19 20  2  0  0  0  0
 32 35  1  0  0  0  0
  8 11  1  0  0  0  0
 41 42  1  0  0  0  0
 18 21  1  0  0  0  0
 31 32  1  0  0  0  0
  7  8  1  0  0  0  0
 17 18  1  0  0  0  0
  3  4  1  0  0  0  0
  3  5  1  0  0  0  0
  3  6  1  0  0  0  0
 35 38  1  0  0  0  0
 35 39  1  0  0  0  0
 35 40  1  0  0  0  0
 11 14  1  0  0  0  0
 11 15  1  0  0  0  0
 11 16  1  0  0  0  0
 42 44  1  0  0  0  0
 42 45  1  0  0  0  0
 42 46  1  0  0  0  0
 21 27  1  0  0  0  0
 21 28  1  0  0  0  0
 32 37  1  0  0  0  0
  8 13  1  0  0  0  0
 18 26  1  0  0  0  0
 24 29  1  0  0  0  0
 24 30  1  0  0  0  0
 41 43  1  0  0  0  0
  7 12  1  0  0  0  0
 31 36  1  0  0  0  0
 17 25  1  0  0  0  0
M  END
$$$$

  -OEChem-05262214473D

 46 45  0     1  0  0  0  0  0999 V2000
   -0.0543    1.9736    3.8406 C   0  0  0  0  0  0  0  0  0  0  0  0
    0.6744    1.6099    4.7562 O   0  0  0  0  0  0  0  0  0  0  0  0
   -0.5599    3.3779    3.8160 C   0  0  0  0  0  0  0  0  0  0  0  0
   -1.5202    3.4885    4.3450 H   0  0  0  0  0  0  0  0  0  0  0  0
    0.1282    4.0814    4.3116 H   0  0  0  0  0  0  0  0  0  0  0  0
   -0.7317    3.7994    2.8126 H   0  0  0  0  0  0  0  0  0  0  0  0
   -0.4812    1.1968    2.7762 N   0  0  0  0  0  0  0  0  0  0  0  0
   -0.1106   -0.1834    2.6051 C   0  0  2  0  0  0  0  0  0  0  0  0
   -0.0696   -0.4775    1.1113 C   0  0  0  0  0  0  0  0  0  0  0  0
   -0.6805    0.1900    0.2792 O   0  0  0  0  0  0  0  0  0  0  0  0
   -1.0852   -1.1101    3.3150 C   0  0  0  0  0  0  0  0  0  0  0  0
   -1.0883    1.6241    2.0791 H   0  0  0  0  0  0  0  0  0  0  0  0
    0.8937   -0.2959    3.0277 H   0  0  0  0  0  0  0  0  0  0  0  0
   -2.0970   -1.0114    2.9051 H   0  0  0  0  0  0  0  0  0  0  0  0
   -0.7860   -2.1580    3.2078 H   0  0  0  0  0  0  0  0  0  0  0  0
   -1.1357   -0.8775    4.3842 H   0  0  0  0  0  0  0  0  0  0  0  0
    0.6950   -1.6003    0.8178 N   0  0  0  0  0  0  0  0  0  0  0  0
    0.8777   -2.0908   -0.5246 C   0  0  2  0  0  0  0  0  0  0  0  0
    0.0150   -3.3370   -0.6798 C   0  0  0  0  0  0  0  0  0  0  0  0
   -0.2839   -4.0685    0.2621 O   0  0  0  0  0  0  0  0  0  0  0  0
    2.3433   -2.4103   -0.8196 C   0  0  0  0  0  0  0  0  0  0  0  0
    3.2169   -1.1719   -0.9165 C   0  0  0  0  0  0  0  0  0  0  0  0
    2.8845   -0.1388   -1.4898 O   0  0  0  0  0  0  0  0  0  0  0  0
    4.4292   -1.3367   -0.2806 N   0  0  0  0  0  0  0  0  0  0  0  0
    1.1810   -2.0803    1.5718 H   0  0  0  0  0  0  0  0  0  0  0  0
    0.5004   -1.3109   -1.1963 H   0  0  0  0  0  0  0  0  0  0  0  0
    2.7627   -3.0387   -0.0237 H   0  0  0  0  0  0  0  0  0  0  0  0
    2.4332   -2.9739   -1.7572 H   0  0  0  0  0  0  0  0  0  0  0  0
    4.6603   -2.2084    0.1842 H   0  0  0  0  0  0  0  0  0  0  0  0
    5.1309   -0.6038   -0.2514 H   0  0  0  0  0  0  0  0  0  0  0  0
   -0.4248   -3.5113   -1.9844 N   0  0  0  0  0  0  0  0  0  0  0  0
   -1.2783   -4.6114   -2.3644 C   0  0  2  0  0  0  0  0  0  0  0  0
   -2.5411   -4.5417   -1.5160 C   0  0  0  0  0  0  0  0  0  0  0  0
   -2.5911   -3.9605   -0.4340 O   0  0  0  0  0  0  0  0  0  0  0  0
   -0.5740   -5.9468   -2.1821 C   0  0  0  0  0  0  0  0  0  0  0  0
   -0.1504   -2.8463   -2.7016 H   0  0  0  0  0  0  0  0  0  0  0  0
   -1.5369   -4.4616   -3.4183 H   0  0  0  0  0  0  0  0  0  0  0  0
   -0.3070   -6.1146   -1.1323 H   0  0  0  0  0  0  0  0  0  0  0  0
   -1.2125   -6.7785   -2.4977 H   0  0  0  0  0  0  0  0  0  0  0  0
    0.3496   -5.9838   -2.7699 H   0  0  0  0  0  0  0  0  0  0  0  0
   -3.5940   -5.2415   -2.0887 N   0  0  0  0  0  0  0  0  0  0  0  0
   -4.8956   -5.3358   -1.4700 C   0  0  0  0  0  0  0  0  0  0  0  0
   -3.4684   -5.6775   -2.9975 H   0  0  0  0  0  0  0  0  0  0  0  0
   -4.9424   -6.2430   -0.8497 H   0  0  0  0  0  0  0  0  0  0  0  0
   -5.0665   -4.4511   -0.8390 H   0  0  0  0  0  0  0  0  0  0  0  0
   -5.6696   -5.3848   -2.2501 H   0  0  0  0  0  0  0  0  0  0  0  0
  1  3  1  0  0  0  0
  1  7  1  0  0  0  0
  1  2  2  0  0  0  0
 21 22  1  0  0  0  0
 22 24  1  0  0  0  0
 22 23  2  0  0  0  0
 32 33  1  0  0  0  0
 33 41  1  0  0  0  0
 33 34  2  0  0  0  0
  8  9  1  0  0  0  0
  9 17  1  0  0  0  0
  9 10  2  0  0  0  0
 18 19  1  0  0  0  0
 19 31  1  0  0  0  0
 19 20  2  0  0  0  0
 32 35  1  0  0  0  0
  8 11  1  0  0  0  0
 41 42  1  0  0  0  0
 18 21  1  0  0  0  0
 31 32  1  0  0  0  0
  7  8  1  0  0  0  0
 17 18  1  0  0  0  0
  3  4  1  0  0  0  0
  3  5  1  0  0  0  0
  3  6  1  0  0  0  0
 35 38  1  0  0  0  0
 35 39  1  0  0  0  0
 35 40  1  0  0  0  0
 11 14  1  0  0  0  0
 11 15  1  0  0  0  0
 11 16  1  0  0  0  0
 42 44  1  0  0  0  0
 42 45  1  0  0  0  0
 42 46  1  0  0  0  0
 21 27  1  0  0  0  0
 21 28  1  0  0  0  0
 32 37  1  0  0  0  0
  8 13  1  0  0  0  0
 18 26  1  0  0  0  0
 24 29  1  0  0  0  0
 24 30  1  0  0  0  0
 41 43  1  0  0  0  0
  7 12  1  0  0  0  0
 31 36  1  0  0  0  0
 17 25  1  0  0  0  0
M  END
$$$$

  -OEChem-05262214473D

 46 45  0     1  0  0  0  0  0999 V2000
   -0.0543    1.9736    3.8406 C   0  0  0  0  0  0  0  0  0  0  0  0
    0.6744    1.6099    4.7562 O   0  0  0  0  0  0  0  0  0  0  0  0
   -0.5599    3.3779    3.8160 C   0  0  0  0  0  0  0  0  0  0  0  0
   -1.5202    3.4885    4.3450 H   0  0  0  0  0  0  0  0  0  0  0  0
    0.1282    4.0814    4.3116 H   0  0  0  0  0  0  0  0  0  0  0  0
   -0.7317    3.7994    2.8126 H   0  0  0  0  0  0  0  0  0  0  0  0
   -0.4812    1.1968    2.7762 N   0  0  0  0  0  0  0  0  0  0  0  0
   -0.1106   -0.1834    2.6051 C   0  0  2  0  0  0  0  0  0  0  0  0
   -0.0696   -0.4775    1.1113 C   0  0  0  0  0  0  0  0  0  0  0  0
   -0.6805    0.1900    0.2792 O   0  0  0  0  0  0  0  0  0  0  0  0
   -1.0852   -1.1101    3.3150 C   0  0  0  0  0  0  0  0  0  0  0  0
   -1.0883    1.6241    2.0791 H   0  0  0  0  0  0  0  0  0  0  0  0
    0.8937   -0.2959    3.0277 H   0  0  0  0  0  0  0  0  0  0  0  0
   -2.0970   -1.0114    2.9051 H   0  0  0  0  0  0  0  0  0  0  0  0
   -0.7860   -2.1580    3.2078 H   0  0  0  0  0  0  0  0  0  0  0  0
   -1.1357   -0.8775    4.3842 H   0  0  0  0  0  0  0  0  0  0  0  0
    0.6950   -1.6003    0.8178 N   0  0  0  0  0  0  0  0  0  0  0  0
    0.8777   -2.0908   -0.5246 C   0  0  2  0  0  0  0  0  0  0  0  0
    0.0150   -3.3370   -0.6798 C   0  0  0  0  0  0  0  0  0  0  0  0
   -0.5054   -3.9164    0.2715 O   0  0  0  0  0  0  0  0  0  0  0  0
    2.3433   -2.4103   -0.8196 C   0  0  0  0  0  0  0  0  0  0  0  0
    3.2169   -1.1719   -0.9165 C   0  0  0  0  0  0  0  0  0  0  0  0
    2.8845   -0.1388   -1.4898 O   0  0  0  0  0  0  0  0  0  0  0  0
    4.4292   -1.3367   -0.2806 N   0  0  0  0  0  0  0  0  0  0  0  0
    1.1810   -2.0803    1.5718 H   0  0  0  0  0  0  0  0  0  0  0  0
    0.5004   -1.3109   -1.1963 H   0  0  0  0  0  0  0  0  0  0  0  0
    2.7627   -3.0387   -0.0237 H   0  0  0  0  0  0  0  0  0  0  0  0
    2.4332   -2.9739   -1.7572 H   0  0  0  0  0  0  0  0  0  0  0  0
    4.6603   -2.2084    0.1842 H   0  0  0  0  0  0  0  0  0  0  0  0
    5.1309   -0.6038   -0.2514 H   0  0  0  0  0  0  0  0  0  0  0  0
   -0.1483   -3.6996   -2.0094 N   0  0  0  0  0  0  0  0  0  0  0  0
   -0.9487   -4.8350   -2.4009 C   0  0  2  0  0  0  0  0  0  0  0  0
   -2.3573   -4.6260   -1.8609 C   0  0  0  0  0  0  0  0  0  0  0  0
   -2.6086   -3.8891   -0.9095 O   0  0  0  0  0  0  0  0  0  0  0  0
   -0.3552   -6.1356   -1.8822 C   0  0  0  0  0  0  0  0  0  0  0  0
    0.2982   -3.1521   -2.7392 H   0  0  0  0  0  0  0  0  0  0  0  0
   -0.9740   -4.8416   -3.4960 H   0  0  0  0  0  0  0  0  0  0  0  0
   -0.3217   -6.1474   -0.7867 H   0  0  0  0  0  0  0  0  0  0  0  0
   -0.9478   -6.9983   -2.2041 H   0  0  0  0  0  0  0  0  0  0  0  0
    0.6687   -6.2697   -2.2476 H   0  0  0  0  0  0  0  0  0  0  0  0
   -3.2952   -5.3923   -2.5387 N   0  0  0  0  0  0  0  0  0  0  0  0
   -4.7004   -5.3793   -2.2054 C   0  0  0  0  0  0  0  0  0  0  0  0
   -3.0003   -5.9605   -3.3274 H   0  0  0  0  0  0  0  0  0  0  0  0
   -4.9145   -6.1832   -1.4857 H   0  0  0  0  0  0  0  0  0  0  0  0
   -4.9624   -4.4086   -1.7593 H   0  0  0  0  0  0  0  0  0  0  0  0
   -5.2949   -5.5361   -3.1175 H   0  0  0  0  0  0  0  0  0  0  0  0
  1  3  1  0  0  0  0
  1  7  1  0  0  0  0
  1  2  2  0  0  0  0
 21 22  1  0  0  0  0
 22 24  1  0  0  0  0
 22 23  2  0  0  0  0
 32 33  1  0  0  0  0
 33 41  1  0  0  0  0
 33 34  2  0  0  0  0
  8  9  1  0  0  0  0
  9 17  1  0  0  0  0
  9 10  2  0  0  0  0
 18 19  1  0  0  0  0
 19 31  1  0  0  0  0
 19 20  2  0  0  0  0
 32 35  1  0  0  0  0
  8 11  1  0  0  0  0
 41 42  1  0  0  0  0
 18 21  1  0  0  0  0
 31 32  1  0  0  0  0
  7  8  1  0  0  0  0
 17 18  1  0  0  0  0
  3  4  1  0  0  0  0
  3  5  1  0  0  0  0
  3  6  1  0  0  0  0
 35 38  1  0  0  0  0
 35 39  1  0  0  0  0
 35 40  1  0  0  0  0
 11 14  1  0  0  0  0
 11 15  1  0  0  0  0
 11 16  1  0  0  0  0
 42 44  1  0  0  0  0
 42 45  1  0  0  0  0
 42 46  1  0  0  0  0
 21 27  1  0  0  0  0
 21 28  1  0  0  0  0
 32 37  1  0  0  0  0
  8 13  1  0  0  0  0
 18 26  1  0  0  0  0
 24 29  1  0  0  0  0
 24 30  1  0  0  0  0
 41 43  1  0  0  0  0
  7 12  1  0  0  0  0
 31 36  1  0  0  0  0
 17 25  1  0  0  0  0
M  END
$$$$

  -OEChem-05262214473D

 46 45  0     1  0  0  0  0  0999 V2000
   -0.0543    1.9736    3.8406 C   0  0  0  0  0  0  0  0  0  0  0  0
    0.6744    1.6099    4.7562 O   0  0  0  0  0  0  0  0  0  0  0  0
   -0.5599    3.3779    3.8160 C   0  0  0  0  0  0  0  0  0  0  0  0
   -1.5202    3.4885    4.3450 H   0  0  0  0  0  0  0  0  0  0  0  0
    0.1282    4.0814    4.3116 H   0  0  0  0  0  0  0  0  0  0  0  0
   -0.7317    3.7994    2.8126 H   0  0  0  0  0  0  0  0  0  0  0  0
   -0.4812    1.1968    2.7762 N   0  0  0  0  0  0  0  0  0  0  0  0
   -0.1106   -0.1834    2.6051 C   0  0  2  0  0  0  0  0  0  0  0  0
   -0.0696   -0.4775    1.1113 C   0  0  0  0  0  0  0  0  0  0  0  0
   -0.6805    0.1900    0.2792 O   0  0  0  0  0  0  0  0  0  0  0  0
   -1.0852   -1.1101    3.3150 C   0  0  0  0  0  0  0  0  0  0  0  0
   -1.0883    1.6241    2.0791 H   0  0  0  0  0  0  0  0  0  0  0  0
    0.8937   -0.2959    3.0277 H   0  0  0  0  0  0  0  0  0  0  0  0
   -2.0970   -1.0114    2.9051 H   0  0  0  0  0  0  0  0  0  0  0  0
   -0.7860   -2.1580    3.2078 H   0  0  0  0  0  0  0  0  0  0  0  0
   -1.1357   -0.8775    4.3842 H   0  0  0  0  0  0  0  0  0  0  0  0
    0.6950   -1.6003    0.8178 N   0  0  0  0  0  0  0  0  0  0  0  0
    0.8777   -2.0908   -0.5246 C   0  0  2  0  0  0  0  0  0  0  0  0
   -0.2404   -3.0868   -0.8060 C   0  0  0  0  0  0  0  0  0  0  0  0
   -1.1322   -3.3411    0.0012 O   0  0  0  0  0  0  0  0  0  0  0  0
    2.2448   -2.7498   -0.7090 C   0  0  0  0  0  0  0  0  0  0  0  0
    3.3948   -1.7585   -0.6779 C   0  0  0  0  0  0  0  0  0  0  0  0
    3.3740   -0.6632   -1.2315 O   0  0  0  0  0  0  0  0  0  0  0  0
    4.4684   -2.2264    0.0498 N   0  0  0  0  0  0  0  0  0  0  0  0
    1.1810   -2.0803    1.5718 H   0  0  0  0  0  0  0  0  0  0  0  0
    0.7619   -1.2281   -1.1909 H   0  0  0  0  0  0  0  0  0  0  0  0
    2.4262   -3.4785    0.0912 H   0  0  0  0  0  0  0  0  0  0  0  0
    2.2830   -3.2975   -1.6593 H   0  0  0  0  0  0  0  0  0  0  0  0
    4.4400   -3.1381    0.4940 H   0  0  0  0  0  0  0  0  0  0  0  0
    5.3195   -1.6865    0.1699 H   0  0  0  0  0  0  0  0  0  0  0  0
   -0.1562   -3.6228   -2.0833 N   0  0  0  0  0  0  0  0  0  0  0  0
   -1.1242   -4.5702   -2.5817 C   0  0  2  0  0  0  0  0  0  0  0  0
   -2.5002   -3.9221   -2.5032 C   0  0  0  0  0  0  0  0  0  0  0  0
   -2.7609   -2.9914   -1.7436 O   0  0  0  0  0  0  0  0  0  0  0  0
   -1.0882   -5.8672   -1.7886 C   0  0  0  0  0  0  0  0  0  0  0  0
    0.6015   -3.3415   -2.6986 H   0  0  0  0  0  0  0  0  0  0  0  0
   -0.8691   -4.7612   -3.6298 H   0  0  0  0  0  0  0  0  0  0  0  0
   -1.3411   -5.6958   -0.7359 H   0  0  0  0  0  0  0  0  0  0  0  0
   -1.8031   -6.5952   -2.1859 H   0  0  0  0  0  0  0  0  0  0  0  0
   -0.0898   -6.3166   -1.8216 H   0  0  0  0  0  0  0  0  0  0  0  0
   -3.4142   -4.5335   -3.3499 N   0  0  0  0  0  0  0  0  0  0  0  0
   -4.7912   -4.1090   -3.4479 C   0  0  0  0  0  0  0  0  0  0  0  0
   -3.1058   -5.2863   -3.9582 H   0  0  0  0  0  0  0  0  0  0  0  0
   -5.4066   -4.6946   -2.7491 H   0  0  0  0  0  0  0  0  0  0  0  0
   -4.8644   -3.0411   -3.1945 H   0  0  0  0  0  0  0  0  0  0  0  0
   -5.1514   -4.2676   -4.4751 H   0  0  0  0  0  0  0  0  0  0  0  0
  1  3  1  0  0  0  0
  1  7  1  0  0  0  0
  1  2  2  0  0  0  0
 21 22  1  0  0  0  0
 22 24  1  0  0  0  0
 22 23  2  0  0  0  0
 32 33  1  0  0  0  0
 33 41  1  0  0  0  0
 33 34  2  0  0  0  0
  8  9  1  0  0  0  0
  9 17  1  0  0  0  0
  9 10  2  0  0  0  0
 18 19  1  0  0  0  0
 19 31  1  0  0  0  0
 19 20  2  0  0  0  0
 32 35  1  0  0  0  0
  8 11  1  0  0  0  0
 41 42  1  0  0  0  0
 18 21  1  0  0  0  0
 31 32  1  0  0  0  0
  7  8  1  0  0  0  0
 17 18  1  0  0  0  0
  3  4  1  0  0  0  0
  3  5  1  0  0  0  0
  3  6  1  0  0  0  0
 35 38  1  0  0  0  0
 35 39  1  0  0  0  0
 35 40  1  0  0  0  0
 11 14  1  0  0  0  0
 11 15  1  0  0  0  0
 11 16  1  0  0  0  0
 42 44  1  0  0  0  0
 42 45  1  0  0  0  0
 42 46  1  0  0  0  0
 21 27  1  0  0  0  0
 21 28  1  0  0  0  0
 32 37  1  0  0  0  0
  8 13  1  0  0  0  0
 18 26  1  0  0  0  0
 24 29  1  0  0  0  0
 24 30  1  0  0  0  0
 41 43  1  0  0  0  0
  7 12  1  0  0  0  0
 31 36  1  0  0  0  0
 17 25  1  0  0  0  0
M  END
$$$$

  -OEChem-05262214473D

 46 45  0     1  0  0  0  0  0999 V2000
   -0.0543    1.9736    3.8406 C   0  0  0  0  0  0  0  0  0  0  0  0
    0.6744    1.6099    4.7562 O   0  0  0  0  0  0  0  0  0  0  0  0
   -0.5599    3.3779    3.8160 C   0  0  0  0  0  0  0  0  0  0  0  0
   -1.5202    3.4885    4.3450 H   0  0  0  0  0  0  0  0  0  0  0  0
    0.1282    4.0814    4.3116 H   0  0  0  0  0  0  0  0  0  0  0  0
   -0.7317    3.7994    2.8126 H   0  0  0  0  0  0  0  0  0  0  0  0
   -0.4812    1.1968    2.7762 N   0  0  0  0  0  0  0  0  0  0  0  0
   -0.1106   -0.1834    2.6051 C   0  0  2  0  0  0  0  0  0  0  0  0
   -0.0696   -0.4775    1.1113 C   0  0  0  0  0  0  0  0  0  0  0  0
   -0.6805    0.1900    0.2792 O   0  0  0  0  0  0  0  0  0  0  0  0
   -1.0852   -1.1101    3.3150 C   0  0  0  0  0  0  0  0  0  0  0  0
   -1.0883    1.6241    2.0791 H   0  0  0  0  0  0  0  0  0  0  0  0
    0.8937   -0.2959    3.0277 H   0  0  0  0  0  0  0  0  0  0  0  0
   -2.0970   -1.0114    2.9051 H   0  0  0  0  0  0  0  0  0  0  0  0
   -0.7860   -2.1580    3.2078 H   0  0  0  0  0  0  0  0  0  0  0  0
   -1.1357   -0.8775    4.3842 H   0  0  0  0  0  0  0  0  0  0  0  0
    0.6950   -1.6003    0.8178 N   0  0  0  0  0  0  0  0  0  0  0  0
    0.8777   -2.0908   -0.5246 C   0  0  2  0  0  0  0  0  0  0  0  0
   -0.2404   -3.0868   -0.8060 C   0  0  0  0  0  0  0  0  0  0  0  0
   -1.2673   -3.1515   -0.1332 O   0  0  0  0  0  0  0  0  0  0  0  0
    2.2448   -2.7498   -0.7090 C   0  0  0  0  0  0  0  0  0  0  0  0
    3.3948   -1.7585   -0.6779 C   0  0  0  0  0  0  0  0  0  0  0  0
    3.3740   -0.6632   -1.2315 O   0  0  0  0  0  0  0  0  0  0  0  0
    4.4684   -2.2264    0.0498 N   0  0  0  0  0  0  0  0  0  0  0  0
    1.1810   -2.0803    1.5718 H   0  0  0  0  0  0  0  0  0  0  0  0
    0.7619   -1.2281   -1.1909 H   0  0  0  0  0  0  0  0  0  0  0  0
    2.4262   -3.4785    0.0912 H   0  0  0  0  0  0  0  0  0  0  0  0
    2.2830   -3.2975   -1.6593 H   0  0  0  0  0  0  0  0  0  0  0  0
    4.4400   -3.1381    0.4940 H   0  0  0  0  0  0  0  0  0  0  0  0
    5.3195   -1.6865    0.1699 H   0  0  0  0  0  0  0  0  0  0  0  0
    0.0183   -3.8628   -1.9270 N   0  0  0  0  0  0  0  0  0  0  0  0
   -0.9132   -4.8580   -2.4013 C   0  0  2  0  0  0  0  0  0  0  0  0
   -2.2389   -4.1640   -2.6849 C   0  0  0  0  0  0  0  0  0  0  0  0
   -2.5608   -3.0959   -2.1685 O   0  0  0  0  0  0  0  0  0  0  0  0
   -1.0915   -5.9769   -1.3869 C   0  0  0  0  0  0  0  0  0  0  0  0
    0.8834   -3.7303   -2.4426 H   0  0  0  0  0  0  0  0  0  0  0  0
   -0.5019   -5.2567   -3.3350 H   0  0  0  0  0  0  0  0  0  0  0  0
   -1.5027   -5.5966   -0.4447 H   0  0  0  0  0  0  0  0  0  0  0  0
   -1.7765   -6.7454   -1.7601 H   0  0  0  0  0  0  0  0  0  0  0  0
   -0.1322   -6.4554   -1.1618 H   0  0  0  0  0  0  0  0  0  0  0  0
   -3.0384   -4.8991   -3.5489 N   0  0  0  0  0  0  0  0  0  0  0  0
   -4.3504   -4.4585   -3.9620 C   0  0  0  0  0  0  0  0  0  0  0  0
   -2.6831   -5.7649   -3.9438 H   0  0  0  0  0  0  0  0  0  0  0  0
   -5.1087   -4.8777   -3.2844 H   0  0  0  0  0  0  0  0  0  0  0  0
   -4.3957   -3.3600   -3.9281 H   0  0  0  0  0  0  0  0  0  0  0  0
   -4.5460   -4.8020   -4.9885 H   0  0  0  0  0  0  0  0  0  0  0  0
  1  3  1  0  0  0  0
  1  7  1  0  0  0  0
  1  2  2  0  0  0  0
 21 22  1  0  0  0  0
 22 24  1  0  0  0  0
 22 23  2  0  0  0  0
 32 33  1  0  0  0  0
 33 41  1  0  0  0  0
 33 34  2  0  0  0  0
  8  9  1  0  0  0  0
  9 17  1  0  0  0  0
  9 10  2  0  0  0  0
 18 19  1  0  0  0  0
 19 31  1  0  0  0  0
 19 20  2  0  0  0  0
 32 35  1  0  0  0  0
  8 11  1  0  0  0  0
 41 42  1  0  0  0  0
 18 21  1  0  0  0  0
 31 32  1  0  0  0  0
  7  8  1  0  0  0  0
 17 18  1  0  0  0  0
  3  4  1  0  0  0  0
  3  5  1  0  0  0  0
  3  6  1  0  0  0  0
 35 38  1  0  0  0  0
 35 39  1  0  0  0  0
 35 40  1  0  0  0  0
 11 14  1  0  0  0  0
 11 15  1  0  0  0  0
 11 16  1  0  0  0  0
 42 44  1  0  0  0  0
 42 45  1  0  0  0  0
 42 46  1  0  0  0  0
 21 27  1  0  0  0  0
 21 28  1  0  0  0  0
 32 37  1  0  0  0  0
  8 13  1  0  0  0  0
 18 26  1  0  0  0  0
 24 29  1  0  0  0  0
 24 30  1  0  0  0  0
 41 43  1  0  0  0  0
  7 12  1  0  0  0  0
 31 36  1  0  0  0  0
 17 25  1  0  0  0  0
M  END
$$$$

  -OEChem-05262214473D

 46 45  0     1  0  0  0  0  0999 V2000
   -0.0543    1.9736    3.8406 C   0  0  0  0  0  0  0  0  0  0  0  0
    0.6744    1.6099    4.7562 O   0  0  0  0  0  0  0  0  0  0  0  0
   -0.5599    3.3779    3.8160 C   0  0  0  0  0  0  0  0  0  0  0  0
   -1.5202    3.4885    4.3450 H   0  0  0  0  0  0  0  0  0  0  0  0
    0.1282    4.0814    4.3116 H   0  0  0  0  0  0  0  0  0  0  0  0
   -0.7317    3.7994    2.8126 H   0  0  0  0  0  0  0  0  0  0  0  0
   -0.4812    1.1968    2.7762 N   0  0  0  0  0  0  0  0  0  0  0  0
   -0.1106   -0.1834    2.6051 C   0  0  2  0  0  0  0  0  0  0  0  0
   -0.0696   -0.4775    1.1113 C   0  0  0  0  0  0  0  0  0  0  0  0
   -0.6805    0.1900    0.2792 O   0  0  0  0  0  0  0  0  0  0  0  0
   -1.0852   -1.1101    3.3150 C   0  0  0  0  0  0  0  0  0  0  0  0
   -1.0883    1.6241    2.0791 H   0  0  0  0  0  0  0  0  0  0  0  0
    0.8937   -0.2959    3.0277 H   0  0  0  0  0  0  0  0  0  0  0  0
   -2.0970   -1.0114    2.9051 H   0  0  0  0  0  0  0  0  0  0  0  0
   -0.7860   -2.1580    3.2078 H   0  0  0  0  0  0  0  0  0  0  0  0
   -1.1357   -0.8775    4.3842 H   0  0  0  0  0  0  0  0  0  0  0  0
    0.6950   -1.6003    0.8178 N   0  0  0  0  0  0  0  0  0  0  0  0
    0.8777   -2.0908   -0.5246 C   0  0  2  0  0  0  0  0  0  0  0  0
   -0.2404   -3.0868   -0.8060 C   0  0  0  0  0  0  0  0  0  0  0  0
   -1.3661   -2.9874   -0.3218 O   0  0  0  0  0  0  0  0  0  0  0  0
    2.2448   -2.7498   -0.7090 C   0  0  0  0  0  0  0  0  0  0  0  0
    3.3948   -1.7585   -0.6779 C   0  0  0  0  0  0  0  0  0  0  0  0
    3.3740   -0.6632   -1.2315 O   0  0  0  0  0  0  0  0  0  0  0  0
    4.4684   -2.2264    0.0498 N   0  0  0  0  0  0  0  0  0  0  0  0
    1.1810   -2.0803    1.5718 H   0  0  0  0  0  0  0  0  0  0  0  0
    0.7619   -1.2281   -1.1909 H   0  0  0  0  0  0  0  0  0  0  0  0
    2.4262   -3.4785    0.0912 H   0  0  0  0  0  0  0  0  0  0  0  0
    2.2830   -3.2975   -1.6593 H   0  0  0  0  0  0  0  0  0  0  0  0
    4.4400   -3.1381    0.4940 H   0  0  0  0  0  0  0  0  0  0  0  0
    5.3195   -1.6865    0.1699 H   0  0  0  0  0  0  0  0  0  0  0  0
    0.1490   -4.0734   -1.7010 N   0  0  0  0  0  0  0  0  0  0  0  0
   -0.7537   -5.1119   -2.1366 C   0  0  2  0  0  0  0  0  0  0  0  0
   -1.9674   -4.4447   -2.7702 C   0  0  0  0  0  0  0  0  0  0  0  0
   -2.3007   -3.2871   -2.5253 O   0  0  0  0  0  0  0  0  0  0  0  0
   -1.1679   -6.0065   -0.9787 C   0  0  0  0  0  0  0  0  0  0  0  0
    1.0938   -4.0707   -2.0739 H   0  0  0  0  0  0  0  0  0  0  0  0
   -0.2208   -5.6969   -2.8941 H   0  0  0  0  0  0  0  0  0  0  0  0
   -1.7033   -5.4378   -0.2096 H   0  0  0  0  0  0  0  0  0  0  0  0
   -1.8300   -6.8108   -1.3159 H   0  0  0  0  0  0  0  0  0  0  0  0
   -0.2915   -6.4621   -0.5053 H   0  0  0  0  0  0  0  0  0  0  0  0
   -2.6592   -5.3080   -3.6082 N   0  0  0  0  0  0  0  0  0  0  0  0
   -3.8543   -4.9149   -4.3176 C   0  0  0  0  0  0  0  0  0  0  0  0
   -2.3001   -6.2447   -3.7674 H   0  0  0  0  0  0  0  0  0  0  0  0
   -4.7392   -5.1706   -3.7162 H   0  0  0  0  0  0  0  0  0  0  0  0
   -3.8340   -3.8298   -4.4968 H   0  0  0  0  0  0  0  0  0  0  0  0
   -3.9000   -5.4447   -5.2805 H   0  0  0  0  0  0  0  0  0  0  0  0
  1  3  1  0  0  0  0
  1  7  1  0  0  0  0
  1  2  2  0  0  0  0
 21 22  1  0  0  0  0
 22 24  1  0  0  0  0
 22 23  2  0  0  0  0
 32 33  1  0  0  0  0
 33 41  1  0  0  0  0
 33 34  2  0  0  0  0
  8  9  1  0  0  0  0
  9 17  1  0  0  0  0
  9 10  2  0  0  0  0
 18 19  1  0  0  0  0
 19 31  1  0  0  0  0
 19 20  2  0  0  0  0
 32 35  1  0  0  0  0
  8 11  1  0  0  0  0
 41 42  1  0  0  0  0
 18 21  1  0  0  0  0
 31 32  1  0  0  0  0
  7  8  1  0  0  0  0
 17 18  1  0  0  0  0
  3  4  1  0  0  0  0
  3  5  1  0  0  0  0
  3  6  1  0  0  0  0
 35 38  1  0  0  0  0
 35 39  1  0  0  0  0
 35 40  1  0  0  0  0
 11 14  1  0  0  0  0
 11 15  1  0  0  0  0
 11 16  1  0  0  0  0
 42 44  1  0  0  0  0
 42 45  1  0  0  0  0
 42 46  1  0  0  0  0
 21 27  1  0  0  0  0
 21 28  1  0  0  0  0
 32 37  1  0  0  0  0
  8 13  1  0  0  0  0
 18 26  1  0  0  0  0
 24 29  1  0  0  0  0
 24 30  1  0  0  0  0
 41 43  1  0  0  0  0
  7 12  1  0  0  0  0
 31 36  1  0  0  0  0
 17 25  1  0  0  0  0
M  END
$$$$

  -OEChem-05262214473D

 46 45  0     1  0  0  0  0  0999 V2000
   -0.0543    1.9736    3.8406 C   0  0  0  0  0  0  0  0  0  0  0  0
    0.6744    1.6099    4.7562 O   0  0  0  0  0  0  0  0  0  0  0  0
   -0.5599    3.3779    3.8160 C   0  0  0  0  0  0  0  0  0  0  0  0
   -1.5202    3.4885    4.3450 H   0  0  0  0  0  0  0  0  0  0  0  0
    0.1282    4.0814    4.3116 H   0  0  0  0  0  0  0  0  0  0  0  0
   -0.7317    3.7994    2.8126 H   0  0  0  0  0  0  0  0  0  0  0  0
   -0.4812    1.1968    2.7762 N   0  0  0  0  0  0  0  0  0  0  0  0
   -0.1106   -0.1834    2.6051 C   0  0  2  0  0  0  0  0  0  0  0  0
   -0.0696   -0.4775    1.1113 C   0  0  0  0  0  0  0  0  0  0  0  0
   -0.6805    0.1900    0.2792 O   0  0  0  0  0  0  0  0  0  0  0  0
   -1.0852   -1.1101    3.3150 C   0  0  0  0  0  0  0  0  0  0  0  0
   -1.0883    1.6241    2.0791 H   0  0  0  0  0  0  0  0  0  0  0  0
    0.8937   -0.2959    3.0277 H   0  0  0  0  0  0  0  0  0  0  0  0
   -2.0970   -1.0114    2.9051 H   0  0  0  0  0  0  0  0  0  0  0  0
   -0.7860   -2.1580    3.2078 H   0  0  0  0  0  0  0  0  0  0  0  0
   -1.1357   -0.8775    4.3842 H   0  0  0  0  0  0  0  0  0  0  0  0
    0.6950   -1.6003    0.8178 N   0  0  0  0  0  0  0  0  0  0  0  0
    0.8777   -2.0908   -0.5246 C   0  0  2  0  0  0  0  0  0  0  0  0
   -0.2404   -3.0868   -0.8060 C   0  0  0  0  0  0  0  0  0  0  0  0
   -1.4217   -2.8599   -0.5518 O   0  0  0  0  0  0  0  0  0  0  0  0
    2.2448   -2.7498   -0.7090 C   0  0  0  0  0  0  0  0  0  0  0  0
    3.3948   -1.7585   -0.6779 C   0  0  0  0  0  0  0  0  0  0  0  0
    3.3740   -0.6632   -1.2315 O   0  0  0  0  0  0  0  0  0  0  0  0
    4.4684   -2.2264    0.0498 N   0  0  0  0  0  0  0  0  0  0  0  0
    1.1810   -2.0803    1.5718 H   0  0  0  0  0  0  0  0  0  0  0  0
    0.7619   -1.2281   -1.1909 H   0  0  0  0  0  0  0  0  0  0  0  0
    2.4262   -3.4785    0.0912 H   0  0  0  0  0  0  0  0  0  0  0  0
    2.2830   -3.2975   -1.6593 H   0  0  0  0  0  0  0  0  0  0  0  0
    4.4400   -3.1381    0.4940 H   0  0  0  0  0  0  0  0  0  0  0  0
    5.3195   -1.6865    0.1699 H   0  0  0  0  0  0  0  0  0  0  0  0
    0.2269   -4.2400   -1.4205 N   0  0  0  0  0  0  0  0  0  0  0  0
   -0.6566   -5.3144   -1.8057 C   0  0  2  0  0  0  0  0  0  0  0  0
   -1.7041   -4.7451   -2.7534 C   0  0  0  0  0  0  0  0  0  0  0  0
   -1.9982   -3.5521   -2.7896 O   0  0  0  0  0  0  0  0  0  0  0  0
   -1.3122   -5.9539   -0.5917 C   0  0  0  0  0  0  0  0  0  0  0  0
    1.2184   -4.3395   -1.6174 H   0  0  0  0  0  0  0  0  0  0  0  0
   -0.0449   -6.0518   -2.3369 H   0  0  0  0  0  0  0  0  0  0  0  0
   -1.9293   -5.2302   -0.0466 H   0  0  0  0  0  0  0  0  0  0  0  0
   -1.9600   -6.7871   -0.8834 H   0  0  0  0  0  0  0  0  0  0  0  0
   -0.5567   -6.3363    0.1031 H   0  0  0  0  0  0  0  0  0  0  0  0
   -2.3025   -5.7323   -3.5237 N   0  0  0  0  0  0  0  0  0  0  0  0
   -3.3369   -5.4470   -4.4905 C   0  0  0  0  0  0  0  0  0  0  0  0
   -1.9829   -6.6929   -3.4412 H   0  0  0  0  0  0  0  0  0  0  0  0
   -4.3232   -5.5531   -4.0152 H   0  0  0  0  0  0  0  0  0  0  0  0
   -3.2178   -4.4184   -4.8619 H   0  0  0  0  0  0  0  0  0  0  0  0
   -3.2574   -6.1519   -5.3312 H   0  0  0  0  0  0  0  0  0  0  0  0
  1  3  1  0  0  0  0
  1  7  1  0  0  0  0
  1  2  2  0  0  0  0
 21 22  1  0  0  0  0
 22 24  1  0  0  0  0
 22 23  2  0  0  0  0
 32 33  1  0  0  0  0
 33 41  1  0  0  0  0
 33 34  2  0  0  0  0
  8  9  1  0  0  0  0
  9 17  1  0  0  0  0
  9 10  2  0  0  0  0
 18 19  1  0  0  0  0
 19 31  1  0  0  0  0
 19 20  2  0  0  0  0
 32 35  1  0  0  0  0
  8 11  1  0  0  0  0
 41 42  1  0  0  0  0
 18 21  1  0  0  0  0
 31 32  1  0  0  0  0
  7  8  1  0  0  0  0
 17 18  1  0  0  0  0
  3  4  1  0  0  0  0
  3  5  1  0  0  0  0
  3  6  1  0  0  0  0
 35 38  1  0  0  0  0
 35 39  1  0  0  0  0
 35 40  1  0  0  0  0
 11 14  1  0  0  0  0
 11 15  1  0  0  0  0
 11 16  1  0  0  0  0
 42 44  1  0  0  0  0
 42 45  1  0  0  0  0
 42 46  1  0  0  0  0
 21 27  1  0  0  0  0
 21 28  1  0  0  0  0
 32 37  1  0  0  0  0
  8 13  1  0  0  0  0
 18 26  1  0  0  0  0
 24 29  1  0  0  0  0
 24 30  1  0  0  0  0
 41 43  1  0  0  0  0
  7 12  1  0  0  0  0
 31 36  1  0  0  0  0
 17 25  1  0  0  0  0
M  END
$$$$

  -OEChem-05262214473D

 46 45  0     1  0  0  0  0  0999 V2000
   -0.0543    1.9736    3.8406 C   0  0  0  0  0  0  0  0  0  0  0  0
    0.6744    1.6099    4.7562 O   0  0  0  0  0  0  0  0  0  0  0  0
   -0.5599    3.3779    3.8160 C   0  0  0  0  0  0  0  0  0  0  0  0
   -1.5202    3.4885    4.3450 H   0  0  0  0  0  0  0  0  0  0  0  0
    0.1282    4.0814    4.3116 H   0  0  0  0  0  0  0  0  0  0  0  0
   -0.7317    3.7994    2.8126 H   0  0  0  0  0  0  0  0  0  0  0  0
   -0.4812    1.1968    2.7762 N   0  0  0  0  0  0  0  0  0  0  0  0
   -0.1106   -0.1834    2.6051 C   0  0  2  0  0  0  0  0  0  0  0  0
   -0.0696   -0.4775    1.1113 C   0  0  0  0  0  0  0  0  0  0  0  0
   -0.6805    0.1900    0.2792 O   0  0  0  0  0  0  0  0  0  0  0  0
   -1.0852   -1.1101    3.3150 C   0  0  0  0  0  0  0  0  0  0  0  0
   -1.0883    1.6241    2.0791 H   0  0  0  0  0  0  0  0  0  0  0  0
    0.8937   -0.2959    3.0277 H   0  0  0  0  0  0  0  0  0  0  0  0
   -2.0970   -1.0114    2.9051 H   0  0  0  0  0  0  0  0  0  0  0  0
   -0.7860   -2.1580    3.2078 H   0  0  0  0  0  0  0  0  0  0  0  0
   -1.1357   -0.8775    4.3842 H   0  0  0  0  0  0  0  0  0  0  0  0
    0.6950   -1.6003    0.8178 N   0  0  0  0  0  0  0  0  0  0  0  0
    0.8777   -2.0908   -0.5246 C   0  0  2  0  0  0  0  0  0  0  0  0
   -0.2404   -3.0868   -0.8060 C   0  0  0  0  0  0  0  0  0  0  0  0
   -1.4304   -2.7779   -0.8077 O   0  0  0  0  0  0  0  0  0  0  0  0
    2.2448   -2.7498   -0.7090 C   0  0  0  0  0  0  0  0  0  0  0  0
    3.3948   -1.7585   -0.6779 C   0  0  0  0  0  0  0  0  0  0  0  0
    3.3740   -0.6632   -1.2315 O   0  0  0  0  0  0  0  0  0  0  0  0
    4.4684   -2.2264    0.0498 N   0  0  0  0  0  0  0  0  0  0  0  0
    1.1810   -2.0803    1.5718 H   0  0  0  0  0  0  0  0  0  0  0  0
    0.7619   -1.2281   -1.1909 H   0  0  0  0  0  0  0  0  0  0  0  0
    2.4262   -3.4785    0.0912 H   0  0  0  0  0  0  0  0  0  0  0  0
    2.2830   -3.2975   -1.6593 H   0  0  0  0  0  0  0  0  0  0  0  0
    4.4400   -3.1381    0.4940 H   0  0  0  0  0  0  0  0  0  0  0  0
    5.3195   -1.6865    0.1699 H   0  0  0  0  0  0  0  0  0  0  0  0
    0.2467   -4.3515   -1.1048 N   0  0  0  0  0  0  0  0  0  0  0  0
   -0.6284   -5.4518   -1.4312 C   0  0  2  0  0  0  0  0  0  0  0  0
   -1.4669   -5.0446   -2.6356 C   0  0  0  0  0  0  0  0  0  0  0  0
   -1.6739   -3.8726   -2.9434 O   0  0  0  0  0  0  0  0  0  0  0  0
   -1.5146   -5.8226   -0.2523 C   0  0  0  0  0  0  0  0  0  0  0  0
    1.2486   -4.5184   -1.1044 H   0  0  0  0  0  0  0  0  0  0  0  0
    0.0138   -6.2971   -1.7016 H   0  0  0  0  0  0  0  0  0  0  0  0
   -2.1652   -4.9879    0.0331 H   0  0  0  0  0  0  0  0  0  0  0  0
   -2.1576   -6.6758   -0.4921 H   0  0  0  0  0  0  0  0  0  0  0  0
   -0.9098   -6.0865    0.6220 H   0  0  0  0  0  0  0  0  0  0  0  0
   -1.9925   -6.1432   -3.3011 N   0  0  0  0  0  0  0  0  0  0  0  0
   -2.8332   -6.0185   -4.4689 C   0  0  0  0  0  0  0  0  0  0  0  0
   -1.7531   -7.0791   -2.9872 H   0  0  0  0  0  0  0  0  0  0  0  0
   -3.8890   -5.9993   -4.1609 H   0  0  0  0  0  0  0  0  0  0  0  0
   -2.5889   -5.0858   -4.9985 H   0  0  0  0  0  0  0  0  0  0  0  0
   -2.6618   -6.8753   -5.1371 H   0  0  0  0  0  0  0  0  0  0  0  0
  1  3  1  0  0  0  0
  1  7  1  0  0  0  0
  1  2  2  0  0  0  0
 21 22  1  0  0  0  0
 22 24  1  0  0  0  0
 22 23  2  0  0  0  0
 32 33  1  0  0  0  0
 33 41  1  0  0  0  0
 33 34  2  0  0  0  0
  8  9  1  0  0  0  0
  9 17  1  0  0  0  0
  9 10  2  0  0  0  0
 18 19  1  0  0  0  0
 19 31  1  0  0  0  0
 19 20  2  0  0  0  0
 32 35  1  0  0  0  0
  8 11  1  0  0  0  0
 41 42  1  0  0  0  0
 18 21  1  0  0  0  0
 31 32  1  0  0  0  0
  7  8  1  0  0  0  0
 17 18  1  0  0  0  0
  3  4  1  0  0  0  0
  3  5  1  0  0  0  0
  3  6  1  0  0  0  0
 35 38  1  0  0  0  0
 35 39  1  0  0  0  0
 35 40  1  0  0  0  0
 11 14  1  0  0  0  0
 11 15  1  0  0  0  0
 11 16  1  0  0  0  0
 42 44  1  0  0  0  0
 42 45  1  0  0  0  0
 42 46  1  0  0  0  0
 21 27  1  0  0  0  0
 21 28  1  0  0  0  0
 32 37  1  0  0  0  0
  8 13  1  0  0  0  0
 18 26  1  0  0  0  0
 24 29  1  0  0  0  0
 24 30  1  0  0  0  0
 41 43  1  0  0  0  0
  7 12  1  0  0  0  0
 31 36  1  0  0  0  0
 17 25  1  0  0  0  0
M  END
$$$$

  -OEChem-05262214473D

 46 45  0     1  0  0  0  0  0999 V2000
   -0.0543    1.9736    3.8406 C   0  0  0  0  0  0  0  0  0  0  0  0
    0.6744    1.6099    4.7562 O   0  0  0  0  0  0  0  0  0  0  0  0
   -0.5599    3.3779    3.8160 C   0  0  0  0  0  0  0  0  0  0  0  0
   -1.5202    3.4885    4.3450 H   0  0  0  0  0  0  0  0  0  0  0  0
    0.1282    4.0814    4.3116 H   0  0  0  0  0  0  0  0  0  0  0  0
   -0.7317    3.7994    2.8126 H   0  0  0  0  0  0  0  0  0  0  0  0
   -0.4812    1.1968    2.7762 N   0  0  0  0  0  0  0  0  0  0  0  0
   -0.1106   -0.1834    2.6051 C   0  0  2  0  0  0  0  0  0  0  0  0
   -0.0696   -0.4775    1.1113 C   0  0  0  0  0  0  0  0  0  0  0  0
   -0.6805    0.1900    0.2792 O   0  0  0  0  0  0  0  0  0  0  0  0
   -1.0852   -1.1101    3.3150 C   0  0  0  0  0  0  0  0  0  0  0  0
   -1.0883    1.6241    2.0791 H   0  0  0  0  0  0  0  0  0  0  0  0
    0.8937   -0.2959    3.0277 H   0  0  0  0  0  0  0  0  0  0  0  0
   -2.0970   -1.0114    2.9051 H   0  0  0  0  0  0  0  0  0  0  0  0
   -0.7860   -2.1580    3.2078 H   0  0  0  0  0  0  0  0  0  0  0  0
   -1.1357   -0.8775    4.3842 H   0  0  0  0  0  0  0  0  0  0  0  0
    0.6950   -1.6003    0.8178 N   0  0  0  0  0  0  0  0  0  0  0  0
    0.8777   -2.0908   -0.5246 C   0  0  2  0  0  0  0  0  0  0  0  0
   -0.2404   -3.0868   -0.8060 C   0  0  0  0  0  0  0  0  0  0  0  0
   -1.3916   -2.7468   -1.0719 O   0  0  0  0  0  0  0  0  0  0  0  0
    2.2448   -2.7498   -0.7090 C   0  0  0  0  0  0  0  0  0  0  0  0
    3.3948   -1.7585   -0.6779 C   0  0  0  0  0  0  0  0  0  0  0  0
    3.3740   -0.6632   -1.2315 O   0  0  0  0  0  0  0  0  0  0  0  0
    4.4684   -2.2264    0.0498 N   0  0  0  0  0  0  0  0  0  0  0  0
    1.1810   -2.0803    1.5718 H   0  0  0  0  0  0  0  0  0  0  0  0
    0.7619   -1.2281   -1.1909 H   0  0  0  0  0  0  0  0  0  0  0  0
    2.4262   -3.4785    0.0912 H   0  0  0  0  0  0  0  0  0  0  0  0
    2.2830   -3.2975   -1.6593 H   0  0  0  0  0  0  0  0  0  0  0  0
    4.4400   -3.1381    0.4940 H   0  0  0  0  0  0  0  0  0  0  0  0
    5.3195   -1.6865    0.1699 H   0  0  0  0  0  0  0  0  0  0  0  0
    0.2071   -4.4001   -0.7753 N   0  0  0  0  0  0  0  0  0  0  0  0
   -0.6711   -5.5148   -1.0386 C   0  0  2  0  0  0  0  0  0  0  0  0
   -1.2721   -5.3228   -2.4247 C   0  0  0  0  0  0  0  0  0  0  0  0
   -1.3500   -4.2269   -2.9762 O   0  0  0  0  0  0  0  0  0  0  0  0
   -1.7612   -5.6217    0.0164 C   0  0  0  0  0  0  0  0  0  0  0  0
    1.1825   -4.5952   -0.5697 H   0  0  0  0  0  0  0  0  0  0  0  0
   -0.0488   -6.4163   -1.0314 H   0  0  0  0  0  0  0  0  0  0  0  0
   -2.3950   -4.7274    0.0242 H   0  0  0  0  0  0  0  0  0  0  0  0
   -2.4094   -6.4846   -0.1688 H   0  0  0  0  0  0  0  0  0  0  0  0
   -1.3267   -5.7298    1.0161 H   0  0  0  0  0  0  0  0  0  0  0  0
   -1.7504   -6.5126   -2.9556 N   0  0  0  0  0  0  0  0  0  0  0  0
   -2.3777   -6.5905   -4.2542 C   0  0  0  0  0  0  0  0  0  0  0  0
   -1.6265   -7.3769   -2.4365 H   0  0  0  0  0  0  0  0  0  0  0  0
   -3.4664   -6.4787   -4.1434 H   0  0  0  0  0  0  0  0  0  0  0  0
   -1.9902   -5.7865   -4.8972 H   0  0  0  0  0  0  0  0  0  0  0  0
   -2.1540   -7.5656   -4.7114 H   0  0  0  0  0  0  0  0  0  0  0  0
  1  3  1  0  0  0  0
  1  7  1  0  0  0  0
  1  2  2  0  0  0  0
 21 22  1  0  0  0  0
 22 24  1  0  0  0  0
 22 23  2  0  0  0  0
 32 33  1  0  0  0  0
 33 41  1  0  0  0  0
 33 34  2  0  0  0  0
  8  9  1  0  0  0  0
  9 17  1  0  0  0  0
  9 10  2  0  0  0  0
 18 19  1  0  0  0  0
 19 31  1  0  0  0  0
 19 20  2  0  0  0  0
 32 35  1  0  0  0  0
  8 11  1  0  0  0  0
 41 42  1  0  0  0  0
 18 21  1  0  0  0  0
 31 32  1  0  0  0  0
  7  8  1  0  0  0  0
 17 18  1  0  0  0  0
  3  4  1  0  0  0  0
  3  5  1  0  0  0  0
  3  6  1  0  0  0  0
 35 38  1  0  0  0  0
 35 39  1  0  0  0  0
 35 40  1  0  0  0  0
 11 14  1  0  0  0  0
 11 15  1  0  0  0  0
 11 16  1  0  0  0  0
 42 44  1  0  0  0  0
 42 45  1  0  0  0  0
 42 46  1  0  0  0  0
 21 27  1  0  0  0  0
 21 28  1  0  0  0  0
 32 37  1  0  0  0  0
  8 13  1  0  0  0  0
 18 26  1  0  0  0  0
 24 29  1  0  0  0  0
 24 30  1  0  0  0  0
 41 43  1  0  0  0  0
  7 12  1  0  0  0  0
 31 36  1  0  0  0  0
 17 25  1  0  0  0  0
M  END
$$$$

  -OEChem-05262214473D

 46 45  0     1  0  0  0  0  0999 V2000
   -0.0543    1.9736    3.8406 C   0  0  0  0  0  0  0  0  0  0  0  0
    0.6744    1.6099    4.7562 O   0  0  0  0  0  0  0  0  0  0  0  0
   -0.5599    3.3779    3.8160 C   0  0  0  0  0  0  0  0  0  0  0  0
   -1.5202    3.4885    4.3450 H   0  0  0  0  0  0  0  0  0  0  0  0
    0.1282    4.0814    4.3116 H   0  0  0  0  0  0  0  0  0  0  0  0
   -0.7317    3.7994    2.8126 H   0  0  0  0  0  0  0  0  0  0  0  0
   -0.4812    1.1968    2.7762 N   0  0  0  0  0  0  0  0  0  0  0  0
   -0.1106   -0.1834    2.6051 C   0  0  2  0  0  0  0  0  0  0  0  0
   -0.0696   -0.4775    1.1113 C   0  0  0  0  0  0  0  0  0  0  0  0
   -0.6805    0.1900    0.2792 O   0  0  0  0  0  0  0  0  0  0  0  0
   -1.0852   -1.1101    3.3150 C   0  0  0  0  0  0  0  0  0  0  0  0
   -1.0883    1.6241    2.0791 H   0  0  0  0  0  0  0  0  0  0  0  0
    0.8937   -0.2959    3.0277 H   0  0  0  0  0  0  0  0  0  0  0  0
   -2.0970   -1.0114    2.9051 H   0  0  0  0  0  0  0  0  0  0  0  0
   -0.7860   -2.1580    3.2078 H   0  0  0  0  0  0  0  0  0  0  0  0
   -1.1357   -0.8775    4.3842 H   0  0  0  0  0  0  0  0  0  0  0  0
    0.6950   -1.6003    0.8178 N   0  0  0  0  0  0  0  0  0  0  0  0
    0.8777   -2.0908   -0.5246 C   0  0  2  0  0  0  0  0  0  0  0  0
   -0.2404   -3.0868   -0.8060 C   0  0  0  0  0  0  0  0  0  0  0  0
   -1.3079   -2.7688   -1.3264 O   0  0  0  0  0  0  0  0  0  0  0  0
    2.2448   -2.7498   -0.7090 C   0  0  0  0  0  0  0  0  0  0  0  0
    3.3948   -1.7585   -0.6779 C   0  0  0  0  0  0  0  0  0  0  0  0
    3.3740   -0.6632   -1.2315 O   0  0  0  0  0  0  0  0  0  0  0  0
    4.4684   -2.2264    0.0498 N   0  0  0  0  0  0  0  0  0  0  0  0
    1.1810   -2.0803    1.5718 H   0  0  0  0  0  0  0  0  0  0  0  0
    0.7619   -1.2281   -1.1909 H   0  0  0  0  0  0  0  0  0  0  0  0
    2.4262   -3.4785    0.0912 H   0  0  0  0  0  0  0  0  0  0  0  0
    2.2830   -3.2975   -1.6593 H   0  0  0  0  0  0  0  0  0  0  0  0
    4.4400   -3.1381    0.4940 H   0  0  0  0  0  0  0  0  0  0  0  0
    5.3195   -1.6865    0.1699 H   0  0  0  0  0  0  0  0  0  0  0  0
    0.1107   -4.3826   -0.4545 N   0  0  0  0  0  0  0  0  0  0  0  0
   -0.7818   -5.4990   -0.6546 C   0  0  2  0  0  0  0  0  0  0  0  0
   -1.1329   -5.5608   -2.1353 C   0  0  0  0  0  0  0  0  0  0  0  0
   -1.0485   -4.5909   -2.8858 O   0  0  0  0  0  0  0  0  0  0  0  0
   -2.0352   -5.3648    0.1961 C   0  0  0  0  0  0  0  0  0  0  0  0
    1.0245   -4.5647   -0.0499 H   0  0  0  0  0  0  0  0  0  0  0  0
   -0.2283   -6.4011   -0.3720 H   0  0  0  0  0  0  0  0  0  0  0  0
   -2.6030   -4.4666   -0.0727 H   0  0  0  0  0  0  0  0  0  0  0  0
   -2.6981   -6.2264    0.0646 H   0  0  0  0  0  0  0  0  0  0  0  0
   -1.7791   -5.2905    1.2585 H   0  0  0  0  0  0  0  0  0  0  0  0
   -1.5927   -6.8154   -2.5107 N   0  0  0  0  0  0  0  0  0  0  0  0
   -2.0013   -7.1240   -3.8612 C   0  0  0  0  0  0  0  0  0  0  0  0
   -1.6116   -7.5659   -1.8266 H   0  0  0  0  0  0  0  0  0  0  0  0
   -3.0840   -6.9587   -3.9640 H   0  0  0  0  0  0  0  0  0  0  0  0
   -1.4626   -6.4727   -4.5651 H   0  0  0  0  0  0  0  0  0  0  0  0
   -1.7685   -8.1759   -4.0832 H   0  0  0  0  0  0  0  0  0  0  0  0
  1  3  1  0  0  0  0
  1  7  1  0  0  0  0
  1  2  2  0  0  0  0
 21 22  1  0  0  0  0
 22 24  1  0  0  0  0
 22 23  2  0  0  0  0
 32 33  1  0  0  0  0
 33 41  1  0  0  0  0
 33 34  2  0  0  0  0
  8  9  1  0  0  0  0
  9 17  1  0  0  0  0
  9 10  2  0  0  0  0
 18 19  1  0  0  0  0
 19 31  1  0  0  0  0
 19 20  2  0  0  0  0
 32 35  1  0  0  0  0
  8 11  1  0  0  0  0
 41 42  1  0  0  0  0
 18 21  1  0  0  0  0
 31 32  1  0  0  0  0
  7  8  1  0  0  0  0
 17 18  1  0  0  0  0
  3  4  1  0  0  0  0
  3  5  1  0  0  0  0
  3  6  1  0  0  0  0
 35 38  1  0  0  0  0
 35 39  1  0  0  0  0
 35 40  1  0  0  0  0
 11 14  1  0  0  0  0
 11 15  1  0  0  0  0
 11 16  1  0  0  0  0
 42 44  1  0  0  0  0
 42 45  1  0  0  0  0
 42 46  1  0  0  0  0
 21 27  1  0  0  0  0
 21 28  1  0  0  0  0
 32 37  1  0  0  0  0
  8 13  1  0  0  0  0
 18 26  1  0  0  0  0
 24 29  1  0  0  0  0
 24 30  1  0  0  0  0
 41 43  1  0  0  0  0
  7 12  1  0  0  0  0
 31 36  1  0  0  0  0
 17 25  1  0  0  0  0
M  END
$$$$

  -OEChem-05262214473D

 46 45  0     1  0  0  0  0  0999 V2000
   -0.0543    1.9736    3.8406 C   0  0  0  0  0  0  0  0  0  0  0  0
    0.6744    1.6099    4.7562 O   0  0  0  0  0  0  0  0  0  0  0  0
   -0.5599    3.3779    3.8160 C   0  0  0  0  0  0  0  0  0  0  0  0
   -1.5202    3.4885    4.3450 H   0  0  0  0  0  0  0  0  0  0  0  0
    0.1282    4.0814    4.3116 H   0  0  0  0  0  0  0  0  0  0  0  0
   -0.7317    3.7994    2.8126 H   0  0  0  0  0  0  0  0  0  0  0  0
   -0.4812    1.1968    2.7762 N   0  0  0  0  0  0  0  0  0  0  0  0
   -0.1106   -0.1834    2.6051 C   0  0  2  0  0  0  0  0  0  0  0  0
   -0.0696   -0.4775    1.1113 C   0  0  0  0  0  0  0  0  0  0  0  0
   -0.6805    0.1900    0.2792 O   0  0  0  0  0  0  0  0  0  0  0  0
   -1.0852   -1.1101    3.3150 C   0  0  0  0  0  0  0  0  0  0  0  0
   -1.0883    1.6241    2.0791 H   0  0  0  0  0  0  0  0  0  0  0  0
    0.8937   -0.2959    3.0277 H   0  0  0  0  0  0  0  0  0  0  0  0
   -2.0970   -1.0114    2.9051 H   0  0  0  0  0  0  0  0  0  0  0  0
   -0.7860   -2.1580    3.2078 H   0  0  0  0  0  0  0  0  0  0  0  0
   -1.1357   -0.8775    4.3842 H   0  0  0  0  0  0  0  0  0  0  0  0
    0.6950   -1.6003    0.8178 N   0  0  0  0  0  0  0  0  0  0  0  0
    0.8777   -2.0908   -0.5246 C   0  0  2  0  0  0  0  0  0  0  0  0
   -0.2404   -3.0868   -0.8060 C   0  0  0  0  0  0  0  0  0  0  0  0
   -1.1851   -2.8424   -1.5539 O   0  0  0  0  0  0  0  0  0  0  0  0
    2.2448   -2.7498   -0.7090 C   0  0  0  0  0  0  0  0  0  0  0  0
    3.3948   -1.7585   -0.6779 C   0  0  0  0  0  0  0  0  0  0  0  0
    3.3740   -0.6632   -1.2315 O   0  0  0  0  0  0  0  0  0  0  0  0
    4.4684   -2.2264    0.0498 N   0  0  0  0  0  0  0  0  0  0  0  0
    1.1810   -2.0803    1.5718 H   0  0  0  0  0  0  0  0  0  0  0  0
    0.7619   -1.2281   -1.1909 H   0  0  0  0  0  0  0  0  0  0  0  0
    2.4262   -3.4785    0.0912 H   0  0  0  0  0  0  0  0  0  0  0  0
    2.2830   -3.2975   -1.6593 H   0  0  0  0  0  0  0  0  0  0  0  0
    4.4400   -3.1381    0.4940 H   0  0  0  0  0  0  0  0  0  0  0  0
    5.3195   -1.6865    0.1699 H   0  0  0  0  0  0  0  0  0  0  0  0
   -0.0358   -4.3001   -0.1642 N   0  0  0  0  0  0  0  0  0  0  0  0
   -0.9530   -5.4055   -0.3055 C   0  0  2  0  0  0  0  0  0  0  0  0
   -1.0588   -5.7424   -1.7870 C   0  0  0  0  0  0  0  0  0  0  0  0
   -0.7901   -4.9397   -2.6783 O   0  0  0  0  0  0  0  0  0  0  0  0
   -2.3181   -5.0694    0.2744 C   0  0  0  0  0  0  0  0  0  0  0  0
    0.7853   -4.4289    0.4197 H   0  0  0  0  0  0  0  0  0  0  0  0
   -0.5125   -6.2526    0.2317 H   0  0  0  0  0  0  0  0  0  0  0  0
   -2.7750   -4.2230   -0.2511 H   0  0  0  0  0  0  0  0  0  0  0  0
   -3.0041   -5.9189    0.1922 H   0  0  0  0  0  0  0  0  0  0  0  0
   -2.2360   -4.7985    1.3326 H   0  0  0  0  0  0  0  0  0  0  0  0
   -1.5301   -7.0309   -1.9968 N   0  0  0  0  0  0  0  0  0  0  0  0
   -1.7298   -7.5827   -3.3165 C   0  0  0  0  0  0  0  0  0  0  0  0
   -1.7094   -7.6335   -1.1990 H   0  0  0  0  0  0  0  0  0  0  0  0
   -2.7679   -7.4065   -3.6349 H   0  0  0  0  0  0  0  0  0  0  0  0
   -1.0419   -7.0976   -4.0246 H   0  0  0  0  0  0  0  0  0  0  0  0
   -1.5316   -8.6644   -3.2953 H   0  0  0  0  0  0  0  0  0  0  0  0
  1  3  1  0  0  0  0
  1  7  1  0  0  0  0
  1  2  2  0  0  0  0
 21 22  1  0  0  0  0
 22 24  1  0  0  0  0
 22 23  2  0  0  0  0
 32 33  1  0  0  0  0
 33 41  1  0  0  0  0
 33 34  2  0  0  0  0
  8  9  1  0  0  0  0
  9 17  1  0  0  0  0
  9 10  2  0  0  0  0
 18 19  1  0  0  0  0
 19 31  1  0  0  0  0
 19 20  2  0  0  0  0
 32 35  1  0  0  0  0
  8 11  1  0  0  0  0
 41 42  1  0  0  0  0
 18 21  1  0  0  0  0
 31 32  1  0  0  0  0
  7  8  1  0  0  0  0
 17 18  1  0  0  0  0
  3  4  1  0  0  0  0
  3  5  1  0  0  0  0
  3  6  1  0  0  0  0
 35 38  1  0  0  0  0
 35 39  1  0  0  0  0
 35 40  1  0  0  0  0
 11 14  1  0  0  0  0
 11 15  1  0  0  0  0
 11 16  1  0  0  0  0
 42 44  1  0  0  0  0
 42 45  1  0  0  0  0
 42 46  1  0  0  0  0
 21 27  1  0  0  0  0
 21 28  1  0  0  0  0
 32 37  1  0  0  0  0
  8 13  1  0  0  0  0
 18 26  1  0  0  0  0
 24 29  1  0  0  0  0
 24 30  1  0  0  0  0
 41 43  1  0  0  0  0
  7 12  1  0  0  0  0
 31 36  1  0  0  0  0
 17 25  1  0  0  0  0
M  END
$$$$

  -OEChem-05262214473D

 46 45  0     1  0  0  0  0  0999 V2000
   -0.0543    1.9736    3.8406 C   0  0  0  0  0  0  0  0  0  0  0  0
    0.6744    1.6099    4.7562 O   0  0  0  0  0  0  0  0  0  0  0  0
   -0.5599    3.3779    3.8160 C   0  0  0  0  0  0  0  0  0  0  0  0
   -1.5202    3.4885    4.3450 H   0  0  0  0  0  0  0  0  0  0  0  0
    0.1282    4.0814    4.3116 H   0  0  0  0  0  0  0  0  0  0  0  0
   -0.7317    3.7994    2.8126 H   0  0  0  0  0  0  0  0  0  0  0  0
   -0.4812    1.1968    2.7762 N   0  0  0  0  0  0  0  0  0  0  0  0
   -0.1106   -0.1834    2.6051 C   0  0  2  0  0  0  0  0  0  0  0  0
   -0.0696   -0.4775    1.1113 C   0  0  0  0  0  0  0  0  0  0  0  0
   -0.6805    0.1900    0.2792 O   0  0  0  0  0  0  0  0  0  0  0  0
   -1.0852   -1.1101    3.3150 C   0  0  0  0  0  0  0  0  0  0  0  0
   -1.0883    1.6241    2.0791 H   0  0  0  0  0  0  0  0  0  0  0  0
    0.8937   -0.2959    3.0277 H   0  0  0  0  0  0  0  0  0  0  0  0
   -2.0970   -1.0114    2.9051 H   0  0  0  0  0  0  0  0  0  0  0  0
   -0.7860   -2.1580    3.2078 H   0  0  0  0  0  0  0  0  0  0  0  0
   -1.1357   -0.8775    4.3842 H   0  0  0  0  0  0  0  0  0  0  0  0
    0.6950   -1.6003    0.8178 N   0  0  0  0  0  0  0  0  0  0  0  0
    0.8777   -2.0908   -0.5246 C   0  0  2  0  0  0  0  0  0  0  0  0
   -0.2404   -3.0868   -0.8060 C   0  0  0  0  0  0  0  0  0  0  0  0
   -1.0315   -2.9626   -1.7389 O   0  0  0  0  0  0  0  0  0  0  0  0
    2.2448   -2.7498   -0.7090 C   0  0  0  0  0  0  0  0  0  0  0  0
    3.3948   -1.7585   -0.6779 C   0  0  0  0  0  0  0  0  0  0  0  0
    3.3740   -0.6632   -1.2315 O   0  0  0  0  0  0  0  0  0  0  0  0
    4.4684   -2.2264    0.0498 N   0  0  0  0  0  0  0  0  0  0  0  0
    1.1810   -2.0803    1.5718 H   0  0  0  0  0  0  0  0  0  0  0  0
    0.7619   -1.2281   -1.1909 H   0  0  0  0  0  0  0  0  0  0  0  0
    2.4262   -3.4785    0.0912 H   0  0  0  0  0  0  0  0  0  0  0  0
    2.2830   -3.2975   -1.6593 H   0  0  0  0  0  0  0  0  0  0  0  0
    4.4400   -3.1381    0.4940 H   0  0  0  0  0  0  0  0  0  0  0  0
    5.3195   -1.6865    0.1699 H   0  0  0  0  0  0  0  0  0  0  0  0
   -0.2225   -4.1584    0.0757 N   0  0  0  0  0  0  0  0  0  0  0  0
   -1.1729   -5.2408   -0.0149 C   0  0  2  0  0  0  0  0  0  0  0  0
   -1.0549   -5.8552   -1.4034 C   0  0  0  0  0  0  0  0  0  0  0  0
   -0.5921   -5.2496   -2.3679 O   0  0  0  0  0  0  0  0  0  0  0  0
   -2.5904   -4.7557    0.2462 C   0  0  0  0  0  0  0  0  0  0  0  0
    0.4814   -4.1971    0.8071 H   0  0  0  0  0  0  0  0  0  0  0  0
   -0.8821   -5.9809    0.7385 H   0  0  0  0  0  0  0  0  0  0  0  0
   -2.8994   -4.0134   -0.4988 H   0  0  0  0  0  0  0  0  0  0  0  0
   -3.3066   -5.5830    0.2053 H   0  0  0  0  0  0  0  0  0  0  0  0
   -2.6664   -4.2873    1.2334 H   0  0  0  0  0  0  0  0  0  0  0  0
   -1.5668   -7.1444   -1.4489 N   0  0  0  0  0  0  0  0  0  0  0  0
   -1.5817   -7.9353   -2.6573 C   0  0  0  0  0  0  0  0  0  0  0  0
   -1.9133   -7.5748   -0.5965 H   0  0  0  0  0  0  0  0  0  0  0  0
   -2.5397   -7.7916   -3.1784 H   0  0  0  0  0  0  0  0  0  0  0  0
   -0.7569   -7.6187   -3.3127 H   0  0  0  0  0  0  0  0  0  0  0  0
   -1.4594   -8.9981   -2.4014 H   0  0  0  0  0  0  0  0  0  0  0  0
  1  3  1  0  0  0  0
  1  7  1  0  0  0  0
  1  2  2  0  0  0  0
 21 22  1  0  0  0  0
 22 24  1  0  0  0  0
 22 23  2  0  0  0  0
 32 33  1  0  0  0  0
 33 41  1  0  0  0  0
 33 34  2  0  0  0  0
  8  9  1  0  0  0  0
  9 17  1  0  0  0  0
  9 10  2  0  0  0  0
 18 19  1  0  0  0  0
 19 31  1  0  0  0  0
 19 20  2  0  0  0  0
 32 35  1  0  0  0  0
  8 11  1  0  0  0  0
 41 42  1  0  0  0  0
 18 21  1  0  0  0  0
 31 32  1  0  0  0  0
  7  8  1  0  0  0  0
 17 18  1  0  0  0  0
  3  4  1  0  0  0  0
  3  5  1  0  0  0  0
  3  6  1  0  0  0  0
 35 38  1  0  0  0  0
 35 39  1  0  0  0  0
 35 40  1  0  0  0  0
 11 14  1  0  0  0  0
 11 15  1  0  0  0  0
 11 16  1  0  0  0  0
 42 44  1  0  0  0  0
 42 45  1  0  0  0  0
 42 46  1  0  0  0  0
 21 27  1  0  0  0  0
 21 28  1  0  0  0  0
 32 37  1  0  0  0  0
  8 13  1  0  0  0  0
 18 26  1  0  0  0  0
 24 29  1  0  0  0  0
 24 30  1  0  0  0  0
 41 43  1  0  0  0  0
  7 12  1  0  0  0  0
 31 36  1  0  0  0  0
 17 25  1  0  0  0  0
M  END
$$$$

  -OEChem-05262214473D

 46 45  0     1  0  0  0  0  0999 V2000
   -0.0543    1.9736    3.8406 C   0  0  0  0  0  0  0  0  0  0  0  0
    0.6744    1.6099    4.7562 O   0  0  0  0  0  0  0  0  0  0  0  0
   -0.5599    3.3779    3.8160 C   0  0  0  0  0  0  0  0  0  0  0  0
   -1.5202    3.4885    4.3450 H   0  0  0  0  0  0  0  0  0  0  0  0
    0.1282    4.0814    4.3116 H   0  0  0  0  0  0  0  0  0  0  0  0
   -0.7317    3.7994    2.8126 H   0  0  0  0  0  0  0  0  0  0  0  0
   -0.4812    1.1968    2.7762 N   0  0  0  0  0  0  0  0  0  0  0  0
   -0.1106   -0.1834    2.6051 C   0  0  2  0  0  0  0  0  0  0  0  0
   -0.0696   -0.4775    1.1113 C   0  0  0  0  0  0  0  0  0  0  0  0
   -0.6805    0.1900    0.2792 O   0  0  0  0  0  0  0  0  0  0  0  0
   -1.0852   -1.1101    3.3150 C   0  0  0  0  0  0  0  0  0  0  0  0
   -1.0883    1.6241    2.0791 H   0  0  0  0  0  0  0  0  0  0  0  0
    0.8937   -0.2959    3.0277 H   0  0  0  0  0  0  0  0  0  0  0  0
   -2.0970   -1.0114    2.9051 H   0  0  0  0  0  0  0  0  0  0  0  0
   -0.7860   -2.1580    3.2078 H   0  0  0  0  0  0  0  0  0  0  0  0
   -1.1357   -0.8775    4.3842 H   0  0  0  0  0  0  0  0  0  0  0  0
    0.6950   -1.6003    0.8178 N   0  0  0  0  0  0  0  0  0  0  0  0
    0.8777   -2.0908   -0.5246 C   0  0  2  0  0  0  0  0  0  0  0  0
   -0.2404   -3.0868   -0.8060 C   0  0  0  0  0  0  0  0  0  0  0  0
   -0.8575   -3.1212   -1.8687 O   0  0  0  0  0  0  0  0  0  0  0  0
    2.2448   -2.7498   -0.7090 C   0  0  0  0  0  0  0  0  0  0  0  0
    3.3948   -1.7585   -0.6779 C   0  0  0  0  0  0  0  0  0  0  0  0
    3.3740   -0.6632   -1.2315 O   0  0  0  0  0  0  0  0  0  0  0  0
    4.4684   -2.2264    0.0498 N   0  0  0  0  0  0  0  0  0  0  0  0
    1.1810   -2.0803    1.5718 H   0  0  0  0  0  0  0  0  0  0  0  0
    0.7619   -1.2281   -1.1909 H   0  0  0  0  0  0  0  0  0  0  0  0
    2.4262   -3.4785    0.0912 H   0  0  0  0  0  0  0  0  0  0  0  0
    2.2830   -3.2975   -1.6593 H   0  0  0  0  0  0  0  0  0  0  0  0
    4.4400   -3.1381    0.4940 H   0  0  0  0  0  0  0  0  0  0  0  0
    5.3195   -1.6865    0.1699 H   0  0  0  0  0  0  0  0  0  0  0  0
   -0.4366   -3.9669    0.2489 N   0  0  0  0  0  0  0  0  0  0  0  0
   -1.4266   -5.0159    0.1972 C   0  0  2  0  0  0  0  0  0  0  0  0
   -1.1214   -5.8915   -1.0109 C   0  0  0  0  0  0  0  0  0  0  0  0
   -0.4683   -5.4994   -1.9757 O   0  0  0  0  0  0  0  0  0  0  0  0
   -2.8337   -4.4451    0.1132 C   0  0  0  0  0  0  0  0  0  0  0  0
    0.1333   -3.8852    1.0858 H   0  0  0  0  0  0  0  0  0  0  0  0
   -1.3119   -5.6045    1.1139 H   0  0  0  0  0  0  0  0  0  0  0  0
   -2.9676   -3.8521   -0.7989 H   0  0  0  0  0  0  0  0  0  0  0  0
   -3.5850   -5.2416    0.1029 H   0  0  0  0  0  0  0  0  0  0  0  0
   -3.0409   -3.7919    0.9677 H   0  0  0  0  0  0  0  0  0  0  0  0
   -1.7005   -7.1483   -0.9043 N   0  0  0  0  0  0  0  0  0  0  0  0
   -1.5669   -8.1577   -1.9286 C   0  0  0  0  0  0  0  0  0  0  0  0
   -2.2094   -7.3939   -0.0602 H   0  0  0  0  0  0  0  0  0  0  0  0
   -2.4149   -8.0878   -2.6257 H   0  0  0  0  0  0  0  0  0  0  0  0
   -0.6270   -8.0004   -2.4779 H   0  0  0  0  0  0  0  0  0  0  0  0
   -1.5569   -9.1539   -1.4623 H   0  0  0  0  0  0  0  0  0  0  0  0
  1  3  1  0  0  0  0
  1  7  1  0  0  0  0
  1  2  2  0  0  0  0
 21 22  1  0  0  0  0
 22 24  1  0  0  0  0
 22 23  2  0  0  0  0
 32 33  1  0  0  0  0
 33 41  1  0  0  0  0
 33 34  2  0  0  0  0
  8  9  1  0  0  0  0
  9 17  1  0  0  0  0
  9 10  2  0  0  0  0
 18 19  1  0  0  0  0
 19 31  1  0  0  0  0
 19 20  2  0  0  0  0
 32 35  1  0  0  0  0
  8 11  1  0  0  0  0
 41 42  1  0  0  0  0
 18 21  1  0  0  0  0
 31 32  1  0  0  0  0
  7  8  1  0  0  0  0
 17 18  1  0  0  0  0
  3  4  1  0  0  0  0
  3  5  1  0  0  0  0
  3  6  1  0  0  0  0
 35 38  1  0  0  0  0
 35 39  1  0  0  0  0
 35 40  1  0  0  0  0
 11 14  1  0  0  0  0
 11 15  1  0  0  0  0
 11 16  1  0  0  0  0
 42 44  1  0  0  0  0
 42 45  1  0  0  0  0
 42 46  1  0  0  0  0
 21 27  1  0  0  0  0
 21 28  1  0  0  0  0
 32 37  1  0  0  0  0
  8 13  1  0  0  0  0
 18 26  1  0  0  0  0
 24 29  1  0  0  0  0
 24 30  1  0  0  0  0
 41 43  1  0  0  0  0
  7 12  1  0  0  0  0
 31 36  1  0  0  0  0
 17 25  1  0  0  0  0
M  END
$$$$

  -OEChem-05262214473D

 46 45  0     1  0  0  0  0  0999 V2000
   -0.0543    1.9736    3.8406 C   0  0  0  0  0  0  0  0  0  0  0  0
    0.6744    1.6099    4.7562 O   0  0  0  0  0  0  0  0  0  0  0  0
   -0.5599    3.3779    3.8160 C   0  0  0  0  0  0  0  0  0  0  0  0
   -1.5202    3.4885    4.3450 H   0  0  0  0  0  0  0  0  0  0  0  0
    0.1282    4.0814    4.3116 H   0  0  0  0  0  0  0  0  0  0  0  0
   -0.7317    3.7994    2.8126 H   0  0  0  0  0  0  0  0  0  0  0  0
   -0.4812    1.1968    2.7762 N   0  0  0  0  0  0  0  0  0  0  0  0
   -0.1106   -0.1834    2.6051 C   0  0  2  0  0  0  0  0  0  0  0  0
   -0.0696   -0.4775    1.1113 C   0  0  0  0  0  0  0  0  0  0  0  0
   -0.6805    0.1900    0.2792 O   0  0  0  0  0  0  0  0  0  0  0  0
   -1.0852   -1.1101    3.3150 C   0  0  0  0  0  0  0  0  0  0  0  0
   -1.0883    1.6241    2.0791 H   0  0  0  0  0  0  0  0  0  0  0  0
    0.8937   -0.2959    3.0277 H   0  0  0  0  0  0  0  0  0  0  0  0
   -2.0970   -1.0114    2.9051 H   0  0  0  0  0  0  0  0  0  0  0  0
   -0.7860   -2.1580    3.2078 H   0  0  0  0  0  0  0  0  0  0  0  0
   -1.1357   -0.8775    4.3842 H   0  0  0  0  0  0  0  0  0  0  0  0
    0.6950   -1.6003    0.8178 N   0  0  0  0  0  0  0  0  0  0  0  0
    0.8777   -2.0908   -0.5246 C   0  0  2  0  0  0  0  0  0  0  0  0
   -0.2404   -3.0868   -0.8060 C   0  0  0  0  0  0  0  0  0  0  0  0
   -0.6751   -3.3073   -1.9346 O   0  0  0  0  0  0  0  0  0  0  0  0
    2.2448   -2.7498   -0.7090 C   0  0  0  0  0  0  0  0  0  0  0  0
    3.3948   -1.7585   -0.6779 C   0  0  0  0  0  0  0  0  0  0  0  0
    3.3740   -0.6632   -1.2315 O   0  0  0  0  0  0  0  0  0  0  0  0
    4.4684   -2.2264    0.0498 N   0  0  0  0  0  0  0  0  0  0  0  0
    1.1810   -2.0803    1.5718 H   0  0  0  0  0  0  0  0  0  0  0  0
    0.7619   -1.2281   -1.1909 H   0  0  0  0  0  0  0  0  0  0  0  0
    2.4262   -3.4785    0.0912 H   0  0  0  0  0  0  0  0  0  0  0  0
    2.2830   -3.2975   -1.6593 H   0  0  0  0  0  0  0  0  0  0  0  0
    4.4400   -3.1381    0.4940 H   0  0  0  0  0  0  0  0  0  0  0  0
    5.3195   -1.6865    0.1699 H   0  0  0  0  0  0  0  0  0  0  0  0
   -0.6636   -3.7389    0.3437 N   0  0  0  0  0  0  0  0  0  0  0  0
   -1.6968   -4.7463    0.3165 C   0  0  2  0  0  0  0  0  0  0  0  0
   -1.2537   -5.8488   -0.6361 C   0  0  0  0  0  0  0  0  0  0  0  0
   -0.4270   -5.6721   -1.5285 O   0  0  0  0  0  0  0  0  0  0  0  0
   -3.0313   -4.1586   -0.1154 C   0  0  0  0  0  0  0  0  0  0  0  0
   -0.2351   -3.5143    1.2368 H   0  0  0  0  0  0  0  0  0  0  0  0
   -1.7725   -5.1491    1.3324 H   0  0  0  0  0  0  0  0  0  0  0  0
   -2.9750   -3.7500   -1.1309 H   0  0  0  0  0  0  0  0  0  0  0  0
   -3.8202   -4.9180   -0.1080 H   0  0  0  0  0  0  0  0  0  0  0  0
   -3.3340   -3.3458    0.5536 H   0  0  0  0  0  0  0  0  0  0  0  0
   -1.9219   -7.0422   -0.4001 N   0  0  0  0  0  0  0  0  0  0  0  0
   -1.6866   -8.2349   -1.1799 C   0  0  0  0  0  0  0  0  0  0  0  0
   -2.5775   -7.1032    0.3734 H   0  0  0  0  0  0  0  0  0  0  0  0
   -2.4021   -8.2750   -2.0145 H   0  0  0  0  0  0  0  0  0  0  0  0
   -0.6610   -8.2168   -1.5770 H   0  0  0  0  0  0  0  0  0  0  0  0
   -1.8174   -9.1215   -0.5421 H   0  0  0  0  0  0  0  0  0  0  0  0
  1  3  1  0  0  0  0
  1  7  1  0  0  0  0
  1  2  2  0  0  0  0
 21 22  1  0  0  0  0
 22 24  1  0  0  0  0
 22 23  2  0  0  0  0
 32 33  1  0  0  0  0
 33 41  1  0  0  0  0
 33 34  2  0  0  0  0
  8  9  1  0  0  0  0
  9 17  1  0  0  0  0
  9 10  2  0  0  0  0
 18 19  1  0  0  0  0
 19 31  1  0  0  0  0
 19 20  2  0  0  0  0
 32 35  1  0  0  0  0
  8 11  1  0  0  0  0
 41 42  1  0  0  0  0
 18 21  1  0  0  0  0
 31 32  1  0  0  0  0
  7  8  1  0  0  0  0
 17 18  1  0  0  0  0
  3  4  1  0  0  0  0
  3  5  1  0  0  0  0
  3  6  1  0  0  0  0
 35 38  1  0  0  0  0
 35 39  1  0  0  0  0
 35 40  1  0  0  0  0
 11 14  1  0  0  0  0
 11 15  1  0  0  0  0
 11 16  1  0  0  0  0
 42 44  1  0  0  0  0
 42 45  1  0  0  0  0
 42 46  1  0  0  0  0
 21 27  1  0  0  0  0
 21 28  1  0  0  0  0
 32 37  1  0  0  0  0
  8 13  1  0  0  0  0
 18 26  1  0  0  0  0
 24 29  1  0  0  0  0
 24 30  1  0  0  0  0
 41 43  1  0  0  0  0
  7 12  1  0  0  0  0
 31 36  1  0  0  0  0
 17 25  1  0  0  0  0
M  END
$$$$

  -OEChem-05262214473D

 46 45  0     1  0  0  0  0  0999 V2000
   -0.0543    1.9736    3.8406 C   0  0  0  0  0  0  0  0  0  0  0  0
    0.6744    1.6099    4.7562 O   0  0  0  0  0  0  0  0  0  0  0  0
   -0.5599    3.3779    3.8160 C   0  0  0  0  0  0  0  0  0  0  0  0
   -1.5202    3.4885    4.3450 H   0  0  0  0  0  0  0  0  0  0  0  0
    0.1282    4.0814    4.3116 H   0  0  0  0  0  0  0  0  0  0  0  0
   -0.7317    3.7994    2.8126 H   0  0  0  0  0  0  0  0  0  0  0  0
   -0.4812    1.1968    2.7762 N   0  0  0  0  0  0  0  0  0  0  0  0
   -0.1106   -0.1834    2.6051 C   0  0  2  0  0  0  0  0  0  0  0  0
   -0.0696   -0.4775    1.1113 C   0  0  0  0  0  0  0  0  0  0  0  0
   -0.6805    0.1900    0.2792 O   0  0  0  0  0  0  0  0  0  0  0  0
   -1.0852   -1.1101    3.3150 C   0  0  0  0  0  0  0  0  0  0  0  0
   -1.0883    1.6241    2.0791 H   0  0  0  0  0  0  0  0  0  0  0  0
    0.8937   -0.2959    3.0277 H   0  0  0  0  0  0  0  0  0  0  0  0
   -2.0970   -1.0114    2.9051 H   0  0  0  0  0  0  0  0  0  0  0  0
   -0.7860   -2.1580    3.2078 H   0  0  0  0  0  0  0  0  0  0  0  0
   -1.1357   -0.8775    4.3842 H   0  0  0  0  0  0  0  0  0  0  0  0
    0.6950   -1.6003    0.8178 N   0  0  0  0  0  0  0  0  0  0  0  0
    0.8777   -2.0908   -0.5246 C   0  0  2  0  0  0  0  0  0  0  0  0
   -0.2404   -3.0868   -0.8060 C   0  0  0  0  0  0  0  0  0  0  0  0
   -0.4967   -3.5083   -1.9321 O   0  0  0  0  0  0  0  0  0  0  0  0
    2.2448   -2.7498   -0.7090 C   0  0  0  0  0  0  0  0  0  0  0  0
    3.3948   -1.7585   -0.6779 C   0  0  0  0  0  0  0  0  0  0  0  0
    3.3740   -0.6632   -1.2315 O   0  0  0  0  0  0  0  0  0  0  0  0
    4.4684   -2.2264    0.0498 N   0  0  0  0  0  0  0  0  0  0  0  0
    1.1810   -2.0803    1.5718 H   0  0  0  0  0  0  0  0  0  0  0  0
    0.7619   -1.2281   -1.1909 H   0  0  0  0  0  0  0  0  0  0  0  0
    2.4262   -3.4785    0.0912 H   0  0  0  0  0  0  0  0  0  0  0  0
    2.2830   -3.2975   -1.6593 H   0  0  0  0  0  0  0  0  0  0  0  0
    4.4400   -3.1381    0.4940 H   0  0  0  0  0  0  0  0  0  0  0  0
    5.3195   -1.6865    0.1699 H   0  0  0  0  0  0  0  0  0  0  0  0
   -0.8880   -3.4898    0.3534 N   0  0  0  0  0  0  0  0  0  0  0  0
   -1.9651   -4.4503    0.3348 C   0  0  2  0  0  0  0  0  0  0  0  0
   -1.4429   -5.7301   -0.3046 C   0  0  0  0  0  0  0  0  0  0  0  0
   -0.4710   -5.7560   -1.0568 O   0  0  0  0  0  0  0  0  0  0  0  0
   -3.1698   -3.9159   -0.4240 C   0  0  0  0  0  0  0  0  0  0  0  0
   -0.5988   -3.1097    1.2499 H   0  0  0  0  0  0  0  0  0  0  0  0
   -2.2326   -4.6457    1.3789 H   0  0  0  0  0  0  0  0  0  0  0  0
   -2.9210   -3.7141   -1.4723 H   0  0  0  0  0  0  0  0  0  0  0  0
   -3.9963   -4.6342   -0.4129 H   0  0  0  0  0  0  0  0  0  0  0  0
   -3.5257   -2.9796    0.0193 H   0  0  0  0  0  0  0  0  0  0  0  0
   -2.2160   -6.8333    0.0293 N   0  0  0  0  0  0  0  0  0  0  0  0
   -1.9326   -8.1615   -0.4624 C   0  0  0  0  0  0  0  0  0  0  0  0
   -2.9925   -6.7225    0.6747 H   0  0  0  0  0  0  0  0  0  0  0  0
   -2.5020   -8.3402   -1.3864 H   0  0  0  0  0  0  0  0  0  0  0  0
   -0.8566   -8.2531   -0.6714 H   0  0  0  0  0  0  0  0  0  0  0  0
   -2.2231   -8.9029    0.2965 H   0  0  0  0  0  0  0  0  0  0  0  0
  1  3  1  0  0  0  0
  1  7  1  0  0  0  0
  1  2  2  0  0  0  0
 21 22  1  0  0  0  0
 22 24  1  0  0  0  0
 22 23  2  0  0  0  0
 32 33  1  0  0  0  0
 33 41  1  0  0  0  0
 33 34  2  0  0  0  0
  8  9  1  0  0  0  0
  9 17  1  0  0  0  0
  9 10  2  0  0  0  0
 18 19  1  0  0  0  0
 19 31  1  0  0  0  0
 19 20  2  0  0  0  0
 32 35  1  0  0  0  0
  8 11  1  0  0  0  0
 41 42  1  0  0  0  0
 18 21  1  0  0  0  0
 31 32  1  0  0  0  0
  7  8  1  0  0  0  0
 17 18  1  0  0  0  0
  3  4  1  0  0  0  0
  3  5  1  0  0  0  0
  3  6  1  0  0  0  0
 35 38  1  0  0  0  0
 35 39  1  0  0  0  0
 35 40  1  0  0  0  0
 11 14  1  0  0  0  0
 11 15  1  0  0  0  0
 11 16  1  0  0  0  0
 42 44  1  0  0  0  0
 42 45  1  0  0  0  0
 42 46  1  0  0  0  0
 21 27  1  0  0  0  0
 21 28  1  0  0  0  0
 32 37  1  0  0  0  0
  8 13  1  0  0  0  0
 18 26  1  0  0  0  0
 24 29  1  0  0  0  0
 24 30  1  0  0  0  0
 41 43  1  0  0  0  0
  7 12  1  0  0  0  0
 31 36  1  0  0  0  0
 17 25  1  0  0  0  0
M  END
$$$$

  -OEChem-05262214473D

 46 45  0     1  0  0  0  0  0999 V2000
   -0.0543    1.9736    3.8406 C   0  0  0  0  0  0  0  0  0  0  0  0
    0.6744    1.6099    4.7562 O   0  0  0  0  0  0  0  0  0  0  0  0
   -0.5599    3.3779    3.8160 C   0  0  0  0  0  0  0  0  0  0  0  0
   -1.5202    3.4885    4.3450 H   0  0  0  0  0  0  0  0  0  0  0  0
    0.1282    4.0814    4.3116 H   0  0  0  0  0  0  0  0  0  0  0  0
   -0.7317    3.7994    2.8126 H   0  0  0  0  0  0  0  0  0  0  0  0
   -0.4812    1.1968    2.7762 N   0  0  0  0  0  0  0  0  0  0  0  0
   -0.1106   -0.1834    2.6051 C   0  0  2  0  0  0  0  0  0  0  0  0
   -0.0696   -0.4775    1.1113 C   0  0  0  0  0  0  0  0  0  0  0  0
   -0.6805    0.1900    0.2792 O   0  0  0  0  0  0  0  0  0  0  0  0
   -1.0852   -1.1101    3.3150 C   0  0  0  0  0  0  0  0  0  0  0  0
   -1.0883    1.6241    2.0791 H   0  0  0  0  0  0  0  0  0  0  0  0
    0.8937   -0.2959    3.0277 H   0  0  0  0  0  0  0  0  0  0  0  0
   -2.0970   -1.0114    2.9051 H   0  0  0  0  0  0  0  0  0  0  0  0
   -0.7860   -2.1580    3.2078 H   0  0  0  0  0  0  0  0  0  0  0  0
   -1.1357   -0.8775    4.3842 H   0  0  0  0  0  0  0  0  0  0  0  0
    0.6950   -1.6003    0.8178 N   0  0  0  0  0  0  0  0  0  0  0  0
    0.8777   -2.0908   -0.5246 C   0  0  2  0  0  0  0  0  0  0  0  0
   -0.2404   -3.0868   -0.8060 C   0  0  0  0  0  0  0  0  0  0  0  0
   -0.3344   -3.7106   -1.8612 O   0  0  0  0  0  0  0  0  0  0  0  0
    2.2448   -2.7498   -0.7090 C   0  0  0  0  0  0  0  0  0  0  0  0
    3.3948   -1.7585   -0.6779 C   0  0  0  0  0  0  0  0  0  0  0  0
    3.3740   -0.6632   -1.2315 O   0  0  0  0  0  0  0  0  0  0  0  0
    4.4684   -2.2264    0.0498 N   0  0  0  0  0  0  0  0  0  0  0  0
    1.1810   -2.0803    1.5718 H   0  0  0  0  0  0  0  0  0  0  0  0
    0.7619   -1.2281   -1.1909 H   0  0  0  0  0  0  0  0  0  0  0  0
    2.4262   -3.4785    0.0912 H   0  0  0  0  0  0  0  0  0  0  0  0
    2.2830   -3.2975   -1.6593 H   0  0  0  0  0  0  0  0  0  0  0  0
    4.4400   -3.1381    0.4940 H   0  0  0  0  0  0  0  0  0  0  0  0
    5.3195   -1.6865    0.1699 H   0  0  0  0  0  0  0  0  0  0  0  0
   -1.0944   -3.2365    0.2776 N   0  0  0  0  0  0  0  0  0  0  0  0
   -2.2132   -4.1480    0.2508 C   0  0  2  0  0  0  0  0  0  0  0  0
   -1.6761   -5.5434   -0.0389 C   0  0  0  0  0  0  0  0  0  0  0  0
   -0.5973   -5.7454   -0.5926 O   0  0  0  0  0  0  0  0  0  0  0  0
   -3.2398   -3.7335   -0.7917 C   0  0  0  0  0  0  0  0  0  0  0  0
   -0.9330   -2.6990    1.1242 H   0  0  0  0  0  0  0  0  0  0  0  0
   -2.6609   -4.1287    1.2504 H   0  0  0  0  0  0  0  0  0  0  0  0
   -2.8095   -3.7468   -1.7997 H   0  0  0  0  0  0  0  0  0  0  0  0
   -4.1012   -4.4095   -0.7911 H   0  0  0  0  0  0  0  0  0  0  0  0
   -3.6030   -2.7182   -0.5988 H   0  0  0  0  0  0  0  0  0  0  0  0
   -2.5627   -6.5360    0.3546 N   0  0  0  0  0  0  0  0  0  0  0  0
   -2.2881   -7.9425    0.1752 C   0  0  0  0  0  0  0  0  0  0  0  0
   -3.4261   -6.2777    0.8232 H   0  0  0  0  0  0  0  0  0  0  0  0
   -2.7080   -8.2792   -0.7842 H   0  0  0  0  0  0  0  0  0  0  0  0
   -1.2004   -8.1068    0.1771 H   0  0  0  0  0  0  0  0  0  0  0  0
   -2.7465   -8.5131    0.9963 H   0  0  0  0  0  0  0  0  0  0  0  0
  1  3  1  0  0  0  0
  1  7  1  0  0  0  0
  1  2  2  0  0  0  0
 21 22  1  0  0  0  0
 22 24  1  0  0  0  0
 22 23  2  0  0  0  0
 32 33  1  0  0  0  0
 33 41  1  0  0  0  0
 33 34  2  0  0  0  0
  8  9  1  0  0  0  0
  9 17  1  0  0  0  0
  9 10  2  0  0  0  0
 18 19  1  0  0  0  0
 19 31  1  0  0  0  0
 19 20  2  0  0  0  0
 32 35  1  0  0  0  0
  8 11  1  0  0  0  0
 41 42  1  0  0  0  0
 18 21  1  0  0  0  0
 31 32  1  0  0  0  0
  7  8  1  0  0  0  0
 17 18  1  0  0  0  0
  3  4  1  0  0  0  0
  3  5  1  0  0  0  0
  3  6  1  0  0  0  0
 35 38  1  0  0  0  0
 35 39  1  0  0  0  0
 35 40  1  0  0  0  0
 11 14  1  0  0  0  0
 11 15  1  0  0  0  0
 11 16  1  0  0  0  0
 42 44  1  0  0  0  0
 42 45  1  0  0  0  0
 42 46  1  0  0  0  0
 21 27  1  0  0  0  0
 21 28  1  0  0  0  0
 32 37  1  0  0  0  0
  8 13  1  0  0  0  0
 18 26  1  0  0  0  0
 24 29  1  0  0  0  0
 24 30  1  0  0  0  0
 41 43  1  0  0  0  0
  7 12  1  0  0  0  0
 31 36  1  0  0  0  0
 17 25  1  0  0  0  0
M  END
$$$$

  -OEChem-05262214473D

 46 45  0     1  0  0  0  0  0999 V2000
   -0.0543    1.9736    3.8406 C   0  0  0  0  0  0  0  0  0  0  0  0
    0.6744    1.6099    4.7562 O   0  0  0  0  0  0  0  0  0  0  0  0
   -0.5599    3.3779    3.8160 C   0  0  0  0  0  0  0  0  0  0  0  0
   -1.5202    3.4885    4.3450 H   0  0  0  0  0  0  0  0  0  0  0  0
    0.1282    4.0814    4.3116 H   0  0  0  0  0  0  0  0  0  0  0  0
   -0.7317    3.7994    2.8126 H   0  0  0  0  0  0  0  0  0  0  0  0
   -0.4812    1.1968    2.7762 N   0  0  0  0  0  0  0  0  0  0  0  0
   -0.1106   -0.1834    2.6051 C   0  0  2  0  0  0  0  0  0  0  0  0
   -0.0696   -0.4775    1.1113 C   0  0  0  0  0  0  0  0  0  0  0  0
   -0.6805    0.1900    0.2792 O   0  0  0  0  0  0  0  0  0  0  0  0
   -1.0852   -1.1101    3.3150 C   0  0  0  0  0  0  0  0  0  0  0  0
   -1.0883    1.6241    2.0791 H   0  0  0  0  0  0  0  0  0  0  0  0
    0.8937   -0.2959    3.0277 H   0  0  0  0  0  0  0  0  0  0  0  0
   -2.0970   -1.0114    2.9051 H   0  0  0  0  0  0  0  0  0  0  0  0
   -0.7860   -2.1580    3.2078 H   0  0  0  0  0  0  0  0  0  0  0  0
   -1.1357   -0.8775    4.3842 H   0  0  0  0  0  0  0  0  0  0  0  0
    0.6950   -1.6003    0.8178 N   0  0  0  0  0  0  0  0  0  0  0  0
    0.8777   -2.0908   -0.5246 C   0  0  2  0  0  0  0  0  0  0  0  0
   -0.2404   -3.0868   -0.8060 C   0  0  0  0  0  0  0  0  0  0  0  0
   -0.1992   -3.9002   -1.7269 O   0  0  0  0  0  0  0  0  0  0  0  0
    2.2448   -2.7498   -0.7090 C   0  0  0  0  0  0  0  0  0  0  0  0
    3.3948   -1.7585   -0.6779 C   0  0  0  0  0  0  0  0  0  0  0  0
    3.3740   -0.6632   -1.2315 O   0  0  0  0  0  0  0  0  0  0  0  0
    4.4684   -2.2264    0.0498 N   0  0  0  0  0  0  0  0  0  0  0  0
    1.1810   -2.0803    1.5718 H   0  0  0  0  0  0  0  0  0  0  0  0
    0.7619   -1.2281   -1.1909 H   0  0  0  0  0  0  0  0  0  0  0  0
    2.4262   -3.4785    0.0912 H   0  0  0  0  0  0  0  0  0  0  0  0
    2.2830   -3.2975   -1.6593 H   0  0  0  0  0  0  0  0  0  0  0  0
    4.4400   -3.1381    0.4940 H   0  0  0  0  0  0  0  0  0  0  0  0
    5.3195   -1.6865    0.1699 H   0  0  0  0  0  0  0  0  0  0  0  0
   -1.2689   -2.9965    0.1213 N   0  0  0  0  0  0  0  0  0  0  0  0
   -2.4242   -3.8602    0.0703 C   0  0  2  0  0  0  0  0  0  0  0  0
   -1.9374   -5.3015    0.1428 C   0  0  0  0  0  0  0  0  0  0  0  0
   -0.7974   -5.6408   -0.1676 O   0  0  0  0  0  0  0  0  0  0  0  0
   -3.2365   -3.6237   -1.1934 C   0  0  0  0  0  0  0  0  0  0  0  0
   -1.2149   -2.3102    0.8683 H   0  0  0  0  0  0  0  0  0  0  0  0
   -3.0281   -3.6332    0.9556 H   0  0  0  0  0  0  0  0  0  0  0  0
   -2.6479   -3.8460   -2.0909 H   0  0  0  0  0  0  0  0  0  0  0  0
   -4.1278   -4.2594   -1.2169 H   0  0  0  0  0  0  0  0  0  0  0  0
   -3.5606   -2.5794   -1.2586 H   0  0  0  0  0  0  0  0  0  0  0  0
   -2.9385   -6.1704    0.5537 N   0  0  0  0  0  0  0  0  0  0  0  0
   -2.7289   -7.5930    0.6893 C   0  0  0  0  0  0  0  0  0  0  0  0
   -3.8488   -5.7990    0.8088 H   0  0  0  0  0  0  0  0  0  0  0  0
   -3.0059   -8.0960   -0.2489 H   0  0  0  0  0  0  0  0  0  0  0  0
   -1.6692   -7.7879    0.9107 H   0  0  0  0  0  0  0  0  0  0  0  0
   -3.3518   -7.9787    1.5097 H   0  0  0  0  0  0  0  0  0  0  0  0
  1  3  1  0  0  0  0
  1  7  1  0  0  0  0
  1  2  2  0  0  0  0
 21 22  1  0  0  0  0
 22 24  1  0  0  0  0
 22 23  2  0  0  0  0
 32 33  1  0  0  0  0
 33 41  1  0  0  0  0
 33 34  2  0  0  0  0
  8  9  1  0  0  0  0
  9 17  1  0  0  0  0
  9 10  2  0  0  0  0
 18 19  1  0  0  0  0
 19 31  1  0  0  0  0
 19 20  2  0  0  0  0
 32 35  1  0  0  0  0
  8 11  1  0  0  0  0
 41 42  1  0  0  0  0
 18 21  1  0  0  0  0
 31 32  1  0  0  0  0
  7  8  1  0  0  0  0
 17 18  1  0  0  0  0
  3  4  1  0  0  0  0
  3  5  1  0  0  0  0
  3  6  1  0  0  0  0
 35 38  1  0  0  0  0
 35 39  1  0  0  0  0
 35 40  1  0  0  0  0
 11 14  1  0  0  0  0
 11 15  1  0  0  0  0
 11 16  1  0  0  0  0
 42 44  1  0  0  0  0
 42 45  1  0  0  0  0
 42 46  1  0  0  0  0
 21 27  1  0  0  0  0
 21 28  1  0  0  0  0
 32 37  1  0  0  0  0
  8 13  1  0  0  0  0
 18 26  1  0  0  0  0
 24 29  1  0  0  0  0
 24 30  1  0  0  0  0
 41 43  1  0  0  0  0
  7 12  1  0  0  0  0
 31 36  1  0  0  0  0
 17 25  1  0  0  0  0
M  END
$$$$

  -OEChem-05262214473D

 46 45  0     1  0  0  0  0  0999 V2000
   -0.0543    1.9736    3.8406 C   0  0  0  0  0  0  0  0  0  0  0  0
    0.6744    1.6099    4.7562 O   0  0  0  0  0  0  0  0  0  0  0  0
   -0.5599    3.3779    3.8160 C   0  0  0  0  0  0  0  0  0  0  0  0
   -1.5202    3.4885    4.3450 H   0  0  0  0  0  0  0  0  0  0  0  0
    0.1282    4.0814    4.3116 H   0  0  0  0  0  0  0  0  0  0  0  0
   -0.7317    3.7994    2.8126 H   0  0  0  0  0  0  0  0  0  0  0  0
   -0.4812    1.1968    2.7762 N   0  0  0  0  0  0  0  0  0  0  0  0
   -0.1106   -0.1834    2.6051 C   0  0  2  0  0  0  0  0  0  0  0  0
   -0.0696   -0.4775    1.1113 C   0  0  0  0  0  0  0  0  0  0  0  0
   -0.6805    0.1900    0.2792 O   0  0  0  0  0  0  0  0  0  0  0  0
   -1.0852   -1.1101    3.3150 C   0  0  0  0  0  0  0  0  0  0  0  0
   -1.0883    1.6241    2.0791 H   0  0  0  0  0  0  0  0  0  0  0  0
    0.8937   -0.2959    3.0277 H   0  0  0  0  0  0  0  0  0  0  0  0
   -2.0970   -1.0114    2.9051 H   0  0  0  0  0  0  0  0  0  0  0  0
   -0.7860   -2.1580    3.2078 H   0  0  0  0  0  0  0  0  0  0  0  0
   -1.1357   -0.8775    4.3842 H   0  0  0  0  0  0  0  0  0  0  0  0
    0.6950   -1.6003    0.8178 N   0  0  0  0  0  0  0  0  0  0  0  0
    0.8777   -2.0908   -0.5246 C   0  0  2  0  0  0  0  0  0  0  0  0
   -0.2404   -3.0868   -0.8060 C   0  0  0  0  0  0  0  0  0  0  0  0
   -0.1005   -4.0643   -1.5383 O   0  0  0  0  0  0  0  0  0  0  0  0
    2.2448   -2.7498   -0.7090 C   0  0  0  0  0  0  0  0  0  0  0  0
    3.3948   -1.7585   -0.6779 C   0  0  0  0  0  0  0  0  0  0  0  0
    3.3740   -0.6632   -1.2315 O   0  0  0  0  0  0  0  0  0  0  0  0
    4.4684   -2.2264    0.0498 N   0  0  0  0  0  0  0  0  0  0  0  0
    1.1810   -2.0803    1.5718 H   0  0  0  0  0  0  0  0  0  0  0  0
    0.7619   -1.2281   -1.1909 H   0  0  0  0  0  0  0  0  0  0  0  0
    2.4262   -3.4785    0.0912 H   0  0  0  0  0  0  0  0  0  0  0  0
    2.2830   -3.2975   -1.6593 H   0  0  0  0  0  0  0  0  0  0  0  0
    4.4400   -3.1381    0.4940 H   0  0  0  0  0  0  0  0  0  0  0  0
    5.3195   -1.6865    0.1699 H   0  0  0  0  0  0  0  0  0  0  0  0
   -1.3996   -2.7860   -0.1047 N   0  0  0  0  0  0  0  0  0  0  0  0
   -2.5837   -3.6064   -0.1944 C   0  0  2  0  0  0  0  0  0  0  0  0
   -2.2089   -5.0208    0.2281 C   0  0  0  0  0  0  0  0  0  0  0  0
   -1.0575   -5.4496    0.1891 O   0  0  0  0  0  0  0  0  0  0  0  0
   -3.1601   -3.5942   -1.6016 C   0  0  0  0  0  0  0  0  0  0  0  0
   -1.4253   -1.9699    0.4995 H   0  0  0  0  0  0  0  0  0  0  0  0
   -3.3093   -3.1930    0.5146 H   0  0  0  0  0  0  0  0  0  0  0  0
   -2.4472   -4.0048   -2.3260 H   0  0  0  0  0  0  0  0  0  0  0  0
   -4.0742   -4.1940   -1.6611 H   0  0  0  0  0  0  0  0  0  0  0  0
   -3.4013   -2.5727   -1.9151 H   0  0  0  0  0  0  0  0  0  0  0  0
   -3.3176   -5.7615    0.6130 N   0  0  0  0  0  0  0  0  0  0  0  0
   -3.2249   -7.1366    1.0449 C   0  0  0  0  0  0  0  0  0  0  0  0
   -4.2318   -5.3193    0.6324 H   0  0  0  0  0  0  0  0  0  0  0  0
   -3.3754   -7.8032    0.1829 H   0  0  0  0  0  0  0  0  0  0  0  0
   -2.2308   -7.3181    1.4794 H   0  0  0  0  0  0  0  0  0  0  0  0
   -3.9978   -7.3360    1.8017 H   0  0  0  0  0  0  0  0  0  0  0  0
  1  3  1  0  0  0  0
  1  7  1  0  0  0  0
  1  2  2  0  0  0  0
 21 22  1  0  0  0  0
 22 24  1  0  0  0  0
 22 23  2  0  0  0  0
 32 33  1  0  0  0  0
 33 41  1  0  0  0  0
 33 34  2  0  0  0  0
  8  9  1  0  0  0  0
  9 17  1  0  0  0  0
  9 10  2  0  0  0  0
 18 19  1  0  0  0  0
 19 31  1  0  0  0  0
 19 20  2  0  0  0  0
 32 35  1  0  0  0  0
  8 11  1  0  0  0  0
 41 42  1  0  0  0  0
 18 21  1  0  0  0  0
 31 32  1  0  0  0  0
  7  8  1  0  0  0  0
 17 18  1  0  0  0  0
  3  4  1  0  0  0  0
  3  5  1  0  0  0  0
  3  6  1  0  0  0  0
 35 38  1  0  0  0  0
 35 39  1  0  0  0  0
 35 40  1  0  0  0  0
 11 14  1  0  0  0  0
 11 15  1  0  0  0  0
 11 16  1  0  0  0  0
 42 44  1  0  0  0  0
 42 45  1  0  0  0  0
 42 46  1  0  0  0  0
 21 27  1  0  0  0  0
 21 28  1  0  0  0  0
 32 37  1  0  0  0  0
  8 13  1  0  0  0  0
 18 26  1  0  0  0  0
 24 29  1  0  0  0  0
 24 30  1  0  0  0  0
 41 43  1  0  0  0  0
  7 12  1  0  0  0  0
 31 36  1  0  0  0  0
 17 25  1  0  0  0  0
M  END
$$$$

  -OEChem-05262214473D

 46 45  0     1  0  0  0  0  0999 V2000
   -0.0543    1.9736    3.8406 C   0  0  0  0  0  0  0  0  0  0  0  0
    0.6744    1.6099    4.7562 O   0  0  0  0  0  0  0  0  0  0  0  0
   -0.5599    3.3779    3.8160 C   0  0  0  0  0  0  0  0  0  0  0  0
   -1.5202    3.4885    4.3450 H   0  0  0  0  0  0  0  0  0  0  0  0
    0.1282    4.0814    4.3116 H   0  0  0  0  0  0  0  0  0  0  0  0
   -0.7317    3.7994    2.8126 H   0  0  0  0  0  0  0  0  0  0  0  0
   -0.4812    1.1968    2.7762 N   0  0  0  0  0  0  0  0  0  0  0  0
   -0.1106   -0.1834    2.6051 C   0  0  2  0  0  0  0  0  0  0  0  0
   -0.0696   -0.4775    1.1113 C   0  0  0  0  0  0  0  0  0  0  0  0
   -0.6805    0.1900    0.2792 O   0  0  0  0  0  0  0  0  0  0  0  0
   -1.0852   -1.1101    3.3150 C   0  0  0  0  0  0  0  0  0  0  0  0
   -1.0883    1.6241    2.0791 H   0  0  0  0  0  0  0  0  0  0  0  0
    0.8937   -0.2959    3.0277 H   0  0  0  0  0  0  0  0  0  0  0  0
   -2.0970   -1.0114    2.9051 H   0  0  0  0  0  0  0  0  0  0  0  0
   -0.7860   -2.1580    3.2078 H   0  0  0  0  0  0  0  0  0  0  0  0
   -1.1357   -0.8775    4.3842 H   0  0  0  0  0  0  0  0  0  0  0  0
    0.6950   -1.6003    0.8178 N   0  0  0  0  0  0  0  0  0  0  0  0
    0.8777   -2.0908   -0.5246 C   0  0  2  0  0  0  0  0  0  0  0  0
   -0.2404   -3.0868   -0.8060 C   0  0  0  0  0  0  0  0  0  0  0  0
   -0.0449   -4.1918   -1.3082 O   0  0  0  0  0  0  0  0  0  0  0  0
    2.2448   -2.7498   -0.7090 C   0  0  0  0  0  0  0  0  0  0  0  0
    3.3948   -1.7585   -0.6779 C   0  0  0  0  0  0  0  0  0  0  0  0
    3.3740   -0.6632   -1.2315 O   0  0  0  0  0  0  0  0  0  0  0  0
    4.4684   -2.2264    0.0498 N   0  0  0  0  0  0  0  0  0  0  0  0
    1.1810   -2.0803    1.5718 H   0  0  0  0  0  0  0  0  0  0  0  0
    0.7619   -1.2281   -1.1909 H   0  0  0  0  0  0  0  0  0  0  0  0
    2.4262   -3.4785    0.0912 H   0  0  0  0  0  0  0  0  0  0  0  0
    2.2830   -3.2975   -1.6593 H   0  0  0  0  0  0  0  0  0  0  0  0
    4.4400   -3.1381    0.4940 H   0  0  0  0  0  0  0  0  0  0  0  0
    5.3195   -1.6865    0.1699 H   0  0  0  0  0  0  0  0  0  0  0  0
   -1.4775   -2.6193   -0.3852 N   0  0  0  0  0  0  0  0  0  0  0  0
   -2.6808   -3.4038   -0.5252 C   0  0  2  0  0  0  0  0  0  0  0  0
   -2.4722   -4.7204    0.2113 C   0  0  0  0  0  0  0  0  0  0  0  0
   -1.3600   -5.1847    0.4534 O   0  0  0  0  0  0  0  0  0  0  0  0
   -3.0158   -3.6468   -1.9886 C   0  0  0  0  0  0  0  0  0  0  0  0
   -1.5499   -1.7010    0.0430 H   0  0  0  0  0  0  0  0  0  0  0  0
   -3.4851   -2.8381   -0.0425 H   0  0  0  0  0  0  0  0  0  0  0  0
   -2.2213   -4.2124   -2.4890 H   0  0  0  0  0  0  0  0  0  0  0  0
   -3.9443   -4.2177   -2.0936 H   0  0  0  0  0  0  0  0  0  0  0  0
   -3.1361   -2.6985   -2.5235 H   0  0  0  0  0  0  0  0  0  0  0  0
   -3.6744   -5.3372    0.5284 N   0  0  0  0  0  0  0  0  0  0  0  0
   -3.7424   -6.6045    1.2178 C   0  0  0  0  0  0  0  0  0  0  0  0
   -4.5490   -4.8710    0.3062 H   0  0  0  0  0  0  0  0  0  0  0  0
   -3.7914   -7.4206    0.4818 H   0  0  0  0  0  0  0  0  0  0  0  0
   -2.8471   -6.7294    1.8445 H   0  0  0  0  0  0  0  0  0  0  0  0
   -4.6405   -6.6288    1.8524 H   0  0  0  0  0  0  0  0  0  0  0  0
  1  3  1  0  0  0  0
  1  7  1  0  0  0  0
  1  2  2  0  0  0  0
 21 22  1  0  0  0  0
 22 24  1  0  0  0  0
 22 23  2  0  0  0  0
 32 33  1  0  0  0  0
 33 41  1  0  0  0  0
 33 34  2  0  0  0  0
  8  9  1  0  0  0  0
  9 17  1  0  0  0  0
  9 10  2  0  0  0  0
 18 19  1  0  0  0  0
 19 31  1  0  0  0  0
 19 20  2  0  0  0  0
 32 35  1  0  0  0  0
  8 11  1  0  0  0  0
 41 42  1  0  0  0  0
 18 21  1  0  0  0  0
 31 32  1  0  0  0  0
  7  8  1  0  0  0  0
 17 18  1  0  0  0  0
  3  4  1  0  0  0  0
  3  5  1  0  0  0  0
  3  6  1  0  0  0  0
 35 38  1  0  0  0  0
 35 39  1  0  0  0  0
 35 40  1  0  0  0  0
 11 14  1  0  0  0  0
 11 15  1  0  0  0  0
 11 16  1  0  0  0  0
 42 44  1  0  0  0  0
 42 45  1  0  0  0  0
 42 46  1  0  0  0  0
 21 27  1  0  0  0  0
 21 28  1  0  0  0  0
 32 37  1  0  0  0  0
  8 13  1  0  0  0  0
 18 26  1  0  0  0  0
 24 29  1  0  0  0  0
 24 30  1  0  0  0  0
 41 43  1  0  0  0  0
  7 12  1  0  0  0  0
 31 36  1  0  0  0  0
 17 25  1  0  0  0  0
M  END
$$$$

  -OEChem-05262214473D

 46 45  0     1  0  0  0  0  0999 V2000
   -0.0543    1.9736    3.8406 C   0  0  0  0  0  0  0  0  0  0  0  0
    0.6744    1.6099    4.7562 O   0  0  0  0  0  0  0  0  0  0  0  0
   -0.5599    3.3779    3.8160 C   0  0  0  0  0  0  0  0  0  0  0  0
   -1.5202    3.4885    4.3450 H   0  0  0  0  0  0  0  0  0  0  0  0
    0.1282    4.0814    4.3116 H   0  0  0  0  0  0  0  0  0  0  0  0
   -0.7317    3.7994    2.8126 H   0  0  0  0  0  0  0  0  0  0  0  0
   -0.4812    1.1968    2.7762 N   0  0  0  0  0  0  0  0  0  0  0  0
   -0.1106   -0.1834    2.6051 C   0  0  2  0  0  0  0  0  0  0  0  0
   -0.0696   -0.4775    1.1113 C   0  0  0  0  0  0  0  0  0  0  0  0
   -0.6805    0.1900    0.2792 O   0  0  0  0  0  0  0  0  0  0  0  0
   -1.0852   -1.1101    3.3150 C   0  0  0  0  0  0  0  0  0  0  0  0
   -1.0883    1.6241    2.0791 H   0  0  0  0  0  0  0  0  0  0  0  0
    0.8937   -0.2959    3.0277 H   0  0  0  0  0  0  0  0  0  0  0  0
   -2.0970   -1.0114    2.9051 H   0  0  0  0  0  0  0  0  0  0  0  0
   -0.7860   -2.1580    3.2078 H   0  0  0  0  0  0  0  0  0  0  0  0
   -1.1357   -0.8775    4.3842 H   0  0  0  0  0  0  0  0  0  0  0  0
    0.6950   -1.6003    0.8178 N   0  0  0  0  0  0  0  0  0  0  0  0
    0.8777   -2.0908   -0.5246 C   0  0  2  0  0  0  0  0  0  0  0  0
   -0.2404   -3.0868   -0.8060 C   0  0  0  0  0  0  0  0  0  0  0  0
   -0.0362   -4.2738   -1.0524 O   0  0  0  0  0  0  0  0  0  0  0  0
    2.2448   -2.7498   -0.7090 C   0  0  0  0  0  0  0  0  0  0  0  0
    3.3948   -1.7585   -0.6779 C   0  0  0  0  0  0  0  0  0  0  0  0
    3.3740   -0.6632   -1.2315 O   0  0  0  0  0  0  0  0  0  0  0  0
    4.4684   -2.2264    0.0498 N   0  0  0  0  0  0  0  0  0  0  0  0
    1.1810   -2.0803    1.5718 H   0  0  0  0  0  0  0  0  0  0  0  0
    0.7619   -1.2281   -1.1909 H   0  0  0  0  0  0  0  0  0  0  0  0
    2.4262   -3.4785    0.0912 H   0  0  0  0  0  0  0  0  0  0  0  0
    2.2830   -3.2975   -1.6593 H   0  0  0  0  0  0  0  0  0  0  0  0
    4.4400   -3.1381    0.4940 H   0  0  0  0  0  0  0  0  0  0  0  0
    5.3195   -1.6865    0.1699 H   0  0  0  0  0  0  0  0  0  0  0  0
   -1.4973   -2.5078   -0.7009 N   0  0  0  0  0  0  0  0  0  0  0  0
   -2.7090   -3.2664   -0.8997 C   0  0  2  0  0  0  0  0  0  0  0  0
   -2.7093   -4.4209    0.0935 C   0  0  0  0  0  0  0  0  0  0  0  0
   -1.6843   -4.8642    0.6072 O   0  0  0  0  0  0  0  0  0  0  0  0
   -2.8134   -3.7780   -2.3280 C   0  0  0  0  0  0  0  0  0  0  0  0
   -1.5801   -1.5221   -0.4700 H   0  0  0  0  0  0  0  0  0  0  0  0
   -3.5438   -2.5927   -0.6778 H   0  0  0  0  0  0  0  0  0  0  0  0
   -1.9854   -4.4547   -2.5687 H   0  0  0  0  0  0  0  0  0  0  0  0
   -3.7467   -4.3290   -2.4849 H   0  0  0  0  0  0  0  0  0  0  0  0
   -2.7830   -2.9483   -3.0424 H   0  0  0  0  0  0  0  0  0  0  0  0
   -3.9844   -4.9263    0.3058 N   0  0  0  0  0  0  0  0  0  0  0  0
   -4.2461   -6.0330    1.1961 C   0  0  0  0  0  0  0  0  0  0  0  0
   -4.7788   -4.4848   -0.1478 H   0  0  0  0  0  0  0  0  0  0  0  0
   -4.2256   -6.9745    0.6276 H   0  0  0  0  0  0  0  0  0  0  0  0
   -3.4760   -6.0620    1.9810 H   0  0  0  0  0  0  0  0  0  0  0  0
   -5.2361   -5.9055    1.6583 H   0  0  0  0  0  0  0  0  0  0  0  0
  1  3  1  0  0  0  0
  1  7  1  0  0  0  0
  1  2  2  0  0  0  0
 21 22  1  0  0  0  0
 22 24  1  0  0  0  0
 22 23  2  0  0  0  0
 32 33  1  0  0  0  0
 33 41  1  0  0  0  0
 33 34  2  0  0  0  0
  8  9  1  0  0  0  0
  9 17  1  0  0  0  0
  9 10  2  0  0  0  0
 18 19  1  0  0  0  0
 19 31  1  0  0  0  0
 19 20  2  0  0  0  0
 32 35  1  0  0  0  0
  8 11  1  0  0  0  0
 41 42  1  0  0  0  0
 18 21  1  0  0  0  0
 31 32  1  0  0  0  0
  7  8  1  0  0  0  0
 17 18  1  0  0  0  0
  3  4  1  0  0  0  0
  3  5  1  0  0  0  0
  3  6  1  0  0  0  0
 35 38  1  0  0  0  0
 35 39  1  0  0  0  0
 35 40  1  0  0  0  0
 11 14  1  0  0  0  0
 11 15  1  0  0  0  0
 11 16  1  0  0  0  0
 42 44  1  0  0  0  0
 42 45  1  0  0  0  0
 42 46  1  0  0  0  0
 21 27  1  0  0  0  0
 21 28  1  0  0  0  0
 32 37  1  0  0  0  0
  8 13  1  0  0  0  0
 18 26  1  0  0  0  0
 24 29  1  0  0  0  0
 24 30  1  0  0  0  0
 41 43  1  0  0  0  0
  7 12  1  0  0  0  0
 31 36  1  0  0  0  0
 17 25  1  0  0  0  0
M  END
$$$$

  -OEChem-05262214473D

 46 45  0     1  0  0  0  0  0999 V2000
   -0.0543    1.9736    3.8406 C   0  0  0  0  0  0  0  0  0  0  0  0
    0.6744    1.6099    4.7562 O   0  0  0  0  0  0  0  0  0  0  0  0
   -0.5599    3.3779    3.8160 C   0  0  0  0  0  0  0  0  0  0  0  0
   -1.5202    3.4885    4.3450 H   0  0  0  0  0  0  0  0  0  0  0  0
    0.1282    4.0814    4.3116 H   0  0  0  0  0  0  0  0  0  0  0  0
   -0.7317    3.7994    2.8126 H   0  0  0  0  0  0  0  0  0  0  0  0
   -0.4812    1.1968    2.7762 N   0  0  0  0  0  0  0  0  0  0  0  0
   -0.1106   -0.1834    2.6051 C   0  0  2  0  0  0  0  0  0  0  0  0
   -0.0696   -0.4775    1.1113 C   0  0  0  0  0  0  0  0  0  0  0  0
   -0.6805    0.1900    0.2792 O   0  0  0  0  0  0  0  0  0  0  0  0
   -1.0852   -1.1101    3.3150 C   0  0  0  0  0  0  0  0  0  0  0  0
   -1.0883    1.6241    2.0791 H   0  0  0  0  0  0  0  0  0  0  0  0
    0.8937   -0.2959    3.0277 H   0  0  0  0  0  0  0  0  0  0  0  0
   -2.0970   -1.0114    2.9051 H   0  0  0  0  0  0  0  0  0  0  0  0
   -0.7860   -2.1580    3.2078 H   0  0  0  0  0  0  0  0  0  0  0  0
   -1.1357   -0.8775    4.3842 H   0  0  0  0  0  0  0  0  0  0  0  0
    0.6950   -1.6003    0.8178 N   0  0  0  0  0  0  0  0  0  0  0  0
    0.8777   -2.0908   -0.5246 C   0  0  2  0  0  0  0  0  0  0  0  0
   -0.2404   -3.0868   -0.8060 C   0  0  0  0  0  0  0  0  0  0  0  0
   -0.0750   -4.3049   -0.7882 O   0  0  0  0  0  0  0  0  0  0  0  0
    2.2448   -2.7498   -0.7090 C   0  0  0  0  0  0  0  0  0  0  0  0
    3.3948   -1.7585   -0.6779 C   0  0  0  0  0  0  0  0  0  0  0  0
    3.3740   -0.6632   -1.2315 O   0  0  0  0  0  0  0  0  0  0  0  0
    4.4684   -2.2264    0.0498 N   0  0  0  0  0  0  0  0  0  0  0  0
    1.1810   -2.0803    1.5718 H   0  0  0  0  0  0  0  0  0  0  0  0
    0.7619   -1.2281   -1.1909 H   0  0  0  0  0  0  0  0  0  0  0  0
    2.4262   -3.4785    0.0912 H   0  0  0  0  0  0  0  0  0  0  0  0
    2.2830   -3.2975   -1.6593 H   0  0  0  0  0  0  0  0  0  0  0  0
    4.4400   -3.1381    0.4940 H   0  0  0  0  0  0  0  0  0  0  0  0
    5.3195   -1.6865    0.1699 H   0  0  0  0  0  0  0  0  0  0  0  0
   -1.4577   -2.4592   -1.0304 N   0  0  0  0  0  0  0  0  0  0  0  0
   -2.6663   -3.2034   -1.2923 C   0  0  2  0  0  0  0  0  0  0  0  0
   -2.9041   -4.1427   -0.1173 C   0  0  0  0  0  0  0  0  0  0  0  0
   -2.0082   -4.5098    0.6400 O   0  0  0  0  0  0  0  0  0  0  0  0
   -2.5668   -3.9790   -2.5967 C   0  0  0  0  0  0  0  0  0  0  0  0
   -1.5140   -1.4453   -1.0047 H   0  0  0  0  0  0  0  0  0  0  0  0
   -3.4813   -2.4736   -1.3480 H   0  0  0  0  0  0  0  0  0  0  0  0
   -1.7556   -4.7152   -2.5598 H   0  0  0  0  0  0  0  0  0  0  0  0
   -3.4949   -4.5202   -2.8082 H   0  0  0  0  0  0  0  0  0  0  0  0
   -2.3661   -3.3050   -3.4365 H   0  0  0  0  0  0  0  0  0  0  0  0
   -4.2265   -4.5569   -0.0397 N   0  0  0  0  0  0  0  0  0  0  0  0
   -4.7016   -5.4610    0.9815 C   0  0  0  0  0  0  0  0  0  0  0  0
   -4.9054   -4.1871   -0.6985 H   0  0  0  0  0  0  0  0  0  0  0  0
   -4.6482   -6.4951    0.6101 H   0  0  0  0  0  0  0  0  0  0  0  0
   -4.0746   -5.3614    1.8798 H   0  0  0  0  0  0  0  0  0  0  0  0
   -5.7439   -5.2151    1.2327 H   0  0  0  0  0  0  0  0  0  0  0  0
  1  3  1  0  0  0  0
  1  7  1  0  0  0  0
  1  2  2  0  0  0  0
 21 22  1  0  0  0  0
 22 24  1  0  0  0  0
 22 23  2  0  0  0  0
 32 33  1  0  0  0  0
 33 41  1  0  0  0  0
 33 34  2  0  0  0  0
  8  9  1  0  0  0  0
  9 17  1  0  0  0  0
  9 10  2  0  0  0  0
 18 19  1  0  0  0  0
 19 31  1  0  0  0  0
 19 20  2  0  0  0  0
 32 35  1  0  0  0  0
  8 11  1  0  0  0  0
 41 42  1  0  0  0  0
 18 21  1  0  0  0  0
 31 32  1  0  0  0  0
  7  8  1  0  0  0  0
 17 18  1  0  0  0  0
  3  4  1  0  0  0  0
  3  5  1  0  0  0  0
  3  6  1  0  0  0  0
 35 38  1  0  0  0  0
 35 39  1  0  0  0  0
 35 40  1  0  0  0  0
 11 14  1  0  0  0  0
 11 15  1  0  0  0  0
 11 16  1  0  0  0  0
 42 44  1  0  0  0  0
 42 45  1  0  0  0  0
 42 46  1  0  0  0  0
 21 27  1  0  0  0  0
 21 28  1  0  0  0  0
 32 37  1  0  0  0  0
  8 13  1  0  0  0  0
 18 26  1  0  0  0  0
 24 29  1  0  0  0  0
 24 30  1  0  0  0  0
 41 43  1  0  0  0  0
  7 12  1  0  0  0  0
 31 36  1  0  0  0  0
 17 25  1  0  0  0  0
M  END
$$$$

  -OEChem-05262214473D

 46 45  0     1  0  0  0  0  0999 V2000
   -0.0543    1.9736    3.8406 C   0  0  0  0  0  0  0  0  0  0  0  0
    0.6744    1.6099    4.7562 O   0  0  0  0  0  0  0  0  0  0  0  0
   -0.5599    3.3779    3.8160 C   0  0  0  0  0  0  0  0  0  0  0  0
   -1.5202    3.4885    4.3450 H   0  0  0  0  0  0  0  0  0  0  0  0
    0.1282    4.0814    4.3116 H   0  0  0  0  0  0  0  0  0  0  0  0
   -0.7317    3.7994    2.8126 H   0  0  0  0  0  0  0  0  0  0  0  0
   -0.4812    1.1968    2.7762 N   0  0  0  0  0  0  0  0  0  0  0  0
   -0.1106   -0.1834    2.6051 C   0  0  2  0  0  0  0  0  0  0  0  0
   -0.0696   -0.4775    1.1113 C   0  0  0  0  0  0  0  0  0  0  0  0
   -0.6805    0.1900    0.2792 O   0  0  0  0  0  0  0  0  0  0  0  0
   -1.0852   -1.1101    3.3150 C   0  0  0  0  0  0  0  0  0  0  0  0
   -1.0883    1.6241    2.0791 H   0  0  0  0  0  0  0  0  0  0  0  0
    0.8937   -0.2959    3.0277 H   0  0  0  0  0  0  0  0  0  0  0  0
   -2.0970   -1.0114    2.9051 H   0  0  0  0  0  0  0  0  0  0  0  0
   -0.7860   -2.1580    3.2078 H   0  0  0  0  0  0  0  0  0  0  0  0
   -1.1357   -0.8775    4.3842 H   0  0  0  0  0  0  0  0  0  0  0  0
    0.6950   -1.6003    0.8178 N   0  0  0  0  0  0  0  0  0  0  0  0
    0.8777   -2.0908   -0.5246 C   0  0  2  0  0  0  0  0  0  0  0  0
   -0.2404   -3.0868   -0.8060 C   0  0  0  0  0  0  0  0  0  0  0  0
   -0.1587   -4.2829   -0.5337 O   0  0  0  0  0  0  0  0  0  0  0  0
    2.2448   -2.7498   -0.7090 C   0  0  0  0  0  0  0  0  0  0  0  0
    3.3948   -1.7585   -0.6779 C   0  0  0  0  0  0  0  0  0  0  0  0
    3.3740   -0.6632   -1.2315 O   0  0  0  0  0  0  0  0  0  0  0  0
    4.4684   -2.2264    0.0498 N   0  0  0  0  0  0  0  0  0  0  0  0
    1.1810   -2.0803    1.5718 H   0  0  0  0  0  0  0  0  0  0  0  0
    0.7619   -1.2281   -1.1909 H   0  0  0  0  0  0  0  0  0  0  0  0
    2.4262   -3.4785    0.0912 H   0  0  0  0  0  0  0  0  0  0  0  0
    2.2830   -3.2975   -1.6593 H   0  0  0  0  0  0  0  0  0  0  0  0
    4.4400   -3.1381    0.4940 H   0  0  0  0  0  0  0  0  0  0  0  0
    5.3195   -1.6865    0.1699 H   0  0  0  0  0  0  0  0  0  0  0  0
   -1.3613   -2.4767   -1.3512 N   0  0  0  0  0  0  0  0  0  0  0  0
   -2.5555   -3.2192   -1.6763 C   0  0  2  0  0  0  0  0  0  0  0  0
   -3.0433   -3.9047   -0.4068 C   0  0  0  0  0  0  0  0  0  0  0  0
   -2.3096   -4.1459    0.5496 O   0  0  0  0  0  0  0  0  0  0  0  0
   -2.2928   -4.2359   -2.7763 C   0  0  0  0  0  0  0  0  0  0  0  0
   -1.3559   -1.4759   -1.5245 H   0  0  0  0  0  0  0  0  0  0  0  0
   -3.3018   -2.4888   -2.0075 H   0  0  0  0  0  0  0  0  0  0  0  0
   -1.5476   -4.9760   -2.4629 H   0  0  0  0  0  0  0  0  0  0  0  0
   -3.2062   -4.7784   -3.0416 H   0  0  0  0  0  0  0  0  0  0  0  0
   -1.9137   -3.7443   -3.6789 H   0  0  0  0  0  0  0  0  0  0  0  0
   -4.3842   -4.2541   -0.4846 N   0  0  0  0  0  0  0  0  0  0  0  0
   -5.0779   -4.9275    0.5884 C   0  0  0  0  0  0  0  0  0  0  0  0
   -4.9204   -3.9980   -1.3084 H   0  0  0  0  0  0  0  0  0  0  0  0
   -5.0306   -6.0151    0.4307 H   0  0  0  0  0  0  0  0  0  0  0  0
   -4.6023   -4.6752    1.5476 H   0  0  0  0  0  0  0  0  0  0  0  0
   -6.1294   -4.6049    0.6045 H   0  0  0  0  0  0  0  0  0  0  0  0
  1  3  1  0  0  0  0
  1  7  1  0  0  0  0
  1  2  2  0  0  0  0
 21 22  1  0  0  0  0
 22 24  1  0  0  0  0
 22 23  2  0  0  0  0
 32 33  1  0  0  0  0
 33 41  1  0  0  0  0
 33 34  2  0  0  0  0
  8  9  1  0  0  0  0
  9 17  1  0  0  0  0
  9 10  2  0  0  0  0
 18 19  1  0  0  0  0
 19 31  1  0  0  0  0
 19 20  2  0  0  0  0
 32 35  1  0  0  0  0
  8 11  1  0  0  0  0
 41 42  1  0  0  0  0
 18 21  1  0  0  0  0
 31 32  1  0  0  0  0
  7  8  1  0  0  0  0
 17 18  1  0  0  0  0
  3  4  1  0  0  0  0
  3  5  1  0  0  0  0
  3  6  1  0  0  0  0
 35 38  1  0  0  0  0
 35 39  1  0  0  0  0
 35 40  1  0  0  0  0
 11 14  1  0  0  0  0
 11 15  1  0  0  0  0
 11 16  1  0  0  0  0
 42 44  1  0  0  0  0
 42 45  1  0  0  0  0
 42 46  1  0  0  0  0
 21 27  1  0  0  0  0
 21 28  1  0  0  0  0
 32 37  1  0  0  0  0
  8 13  1  0  0  0  0
 18 26  1  0  0  0  0
 24 29  1  0  0  0  0
 24 30  1  0  0  0  0
 41 43  1  0  0  0  0
  7 12  1  0  0  0  0
 31 36  1  0  0  0  0
 17 25  1  0  0  0  0
M  END
$$$$

  -OEChem-05262214473D

 46 45  0     1  0  0  0  0  0999 V2000
   -0.0543    1.9736    3.8406 C   0  0  0  0  0  0  0  0  0  0  0  0
    0.6744    1.6099    4.7562 O   0  0  0  0  0  0  0  0  0  0  0  0
   -0.5599    3.3779    3.8160 C   0  0  0  0  0  0  0  0  0  0  0  0
   -1.5202    3.4885    4.3450 H   0  0  0  0  0  0  0  0  0  0  0  0
    0.1282    4.0814    4.3116 H   0  0  0  0  0  0  0  0  0  0  0  0
   -0.7317    3.7994    2.8126 H   0  0  0  0  0  0  0  0  0  0  0  0
   -0.4812    1.1968    2.7762 N   0  0  0  0  0  0  0  0  0  0  0  0
   -0.1106   -0.1834    2.6051 C   0  0  2  0  0  0  0  0  0  0  0  0
   -0.0696   -0.4775    1.1113 C   0  0  0  0  0  0  0  0  0  0  0  0
   -0.6805    0.1900    0.2792 O   0  0  0  0  0  0  0  0  0  0  0  0
   -1.0852   -1.1101    3.3150 C   0  0  0  0  0  0  0  0  0  0  0  0
   -1.0883    1.6241    2.0791 H   0  0  0  0  0  0  0  0  0  0  0  0
    0.8937   -0.2959    3.0277 H   0  0  0  0  0  0  0  0  0  0  0  0
   -2.0970   -1.0114    2.9051 H   0  0  0  0  0  0  0  0  0  0  0  0
   -0.7860   -2.1580    3.2078 H   0  0  0  0  0  0  0  0  0  0  0  0
   -1.1357   -0.8775    4.3842 H   0  0  0  0  0  0  0  0  0  0  0  0
    0.6950   -1.6003    0.8178 N   0  0  0  0  0  0  0  0  0  0  0  0
    0.8777   -2.0908   -0.5246 C   0  0  2  0  0  0  0  0  0  0  0  0
   -0.2404   -3.0868   -0.8060 C   0  0  0  0  0  0  0  0  0  0  0  0
   -0.2815   -4.2093   -0.3062 O   0  0  0  0  0  0  0  0  0  0  0  0
    2.2448   -2.7498   -0.7090 C   0  0  0  0  0  0  0  0  0  0  0  0
    3.3948   -1.7585   -0.6779 C   0  0  0  0  0  0  0  0  0  0  0  0
    3.3740   -0.6632   -1.2315 O   0  0  0  0  0  0  0  0  0  0  0  0
    4.4684   -2.2264    0.0498 N   0  0  0  0  0  0  0  0  0  0  0  0
    1.1810   -2.0803    1.5718 H   0  0  0  0  0  0  0  0  0  0  0  0
    0.7619   -1.2281   -1.1909 H   0  0  0  0  0  0  0  0  0  0  0  0
    2.4262   -3.4785    0.0912 H   0  0  0  0  0  0  0  0  0  0  0  0
    2.2830   -3.2975   -1.6593 H   0  0  0  0  0  0  0  0  0  0  0  0
    4.4400   -3.1381    0.4940 H   0  0  0  0  0  0  0  0  0  0  0  0
    5.3195   -1.6865    0.1699 H   0  0  0  0  0  0  0  0  0  0  0  0
   -1.2148   -2.5592   -1.6415 N   0  0  0  0  0  0  0  0  0  0  0  0
   -2.3844   -3.3127   -2.0255 C   0  0  2  0  0  0  0  0  0  0  0  0
   -3.1174   -3.7231   -0.7551 C   0  0  0  0  0  0  0  0  0  0  0  0
   -2.5681   -3.7970    0.3421 O   0  0  0  0  0  0  0  0  0  0  0  0
   -2.0099   -4.5312   -2.8547 C   0  0  0  0  0  0  0  0  0  0  0  0
   -1.1168   -1.6116   -1.9941 H   0  0  0  0  0  0  0  0  0  0  0  0
   -3.0175   -2.6373   -2.6111 H   0  0  0  0  0  0  0  0  0  0  0  0
   -1.3755   -5.2196   -2.2845 H   0  0  0  0  0  0  0  0  0  0  0  0
   -2.9001   -5.0859   -3.1692 H   0  0  0  0  0  0  0  0  0  0  0  0
   -1.4568   -4.2363   -3.7530 H   0  0  0  0  0  0  0  0  0  0  0  0
   -4.4468   -4.0386   -0.9985 N   0  0  0  0  0  0  0  0  0  0  0  0
   -5.3494   -4.4688    0.0437 C   0  0  0  0  0  0  0  0  0  0  0  0
   -4.8225   -3.9305   -1.9360 H   0  0  0  0  0  0  0  0  0  0  0  0
   -5.3467   -5.5673    0.1015 H   0  0  0  0  0  0  0  0  0  0  0  0
   -5.0229   -4.0503    1.0072 H   0  0  0  0  0  0  0  0  0  0  0  0
   -6.3663   -4.1163   -0.1835 H   0  0  0  0  0  0  0  0  0  0  0  0
  1  3  1  0  0  0  0
  1  7  1  0  0  0  0
  1  2  2  0  0  0  0
 21 22  1  0  0  0  0
 22 24  1  0  0  0  0
 22 23  2  0  0  0  0
 32 33  1  0  0  0  0
 33 41  1  0  0  0  0
 33 34  2  0  0  0  0
  8  9  1  0  0  0  0
  9 17  1  0  0  0  0
  9 10  2  0  0  0  0
 18 19  1  0  0  0  0
 19 31  1  0  0  0  0
 19 20  2  0  0  0  0
 32 35  1  0  0  0  0
  8 11  1  0  0  0  0
 41 42  1  0  0  0  0
 18 21  1  0  0  0  0
 31 32  1  0  0  0  0
  7  8  1  0  0  0  0
 17 18  1  0  0  0  0
  3  4  1  0  0  0  0
  3  5  1  0  0  0  0
  3  6  1  0  0  0  0
 35 38  1  0  0  0  0
 35 39  1  0  0  0  0
 35 40  1  0  0  0  0
 11 14  1  0  0  0  0
 11 15  1  0  0  0  0
 11 16  1  0  0  0  0
 42 44  1  0  0  0  0
 42 45  1  0  0  0  0
 42 46  1  0  0  0  0
 21 27  1  0  0  0  0
 21 28  1  0  0  0  0
 32 37  1  0  0  0  0
  8 13  1  0  0  0  0
 18 26  1  0  0  0  0
 24 29  1  0  0  0  0
 24 30  1  0  0  0  0
 41 43  1  0  0  0  0
  7 12  1  0  0  0  0
 31 36  1  0  0  0  0
 17 25  1  0  0  0  0
M  END
$$$$

  -OEChem-05262214473D

 46 45  0     1  0  0  0  0  0999 V2000
   -0.0543    1.9736    3.8406 C   0  0  0  0  0  0  0  0  0  0  0  0
    0.6744    1.6099    4.7562 O   0  0  0  0  0  0  0  0  0  0  0  0
   -0.5599    3.3779    3.8160 C   0  0  0  0  0  0  0  0  0  0  0  0
   -1.5202    3.4885    4.3450 H   0  0  0  0  0  0  0  0  0  0  0  0
    0.1282    4.0814    4.3116 H   0  0  0  0  0  0  0  0  0  0  0  0
   -0.7317    3.7994    2.8126 H   0  0  0  0  0  0  0  0  0  0  0  0
   -0.4812    1.1968    2.7762 N   0  0  0  0  0  0  0  0  0  0  0  0
   -0.1106   -0.1834    2.6051 C   0  0  2  0  0  0  0  0  0  0  0  0
   -0.0696   -0.4775    1.1113 C   0  0  0  0  0  0  0  0  0  0  0  0
   -0.6805    0.1900    0.2792 O   0  0  0  0  0  0  0  0  0  0  0  0
   -1.0852   -1.1101    3.3150 C   0  0  0  0  0  0  0  0  0  0  0  0
   -1.0883    1.6241    2.0791 H   0  0  0  0  0  0  0  0  0  0  0  0
    0.8937   -0.2959    3.0277 H   0  0  0  0  0  0  0  0  0  0  0  0
   -2.0970   -1.0114    2.9051 H   0  0  0  0  0  0  0  0  0  0  0  0
   -0.7860   -2.1580    3.2078 H   0  0  0  0  0  0  0  0  0  0  0  0
   -1.1357   -0.8775    4.3842 H   0  0  0  0  0  0  0  0  0  0  0  0
    0.6950   -1.6003    0.8178 N   0  0  0  0  0  0  0  0  0  0  0  0
    0.8777   -2.0908   -0.5246 C   0  0  2  0  0  0  0  0  0  0  0  0
   -0.2404   -3.0868   -0.8060 C   0  0  0  0  0  0  0  0  0  0  0  0
   -0.4351   -4.0891   -0.1212 O   0  0  0  0  0  0  0  0  0  0  0  0
    2.2448   -2.7498   -0.7090 C   0  0  0  0  0  0  0  0  0  0  0  0
    3.3948   -1.7585   -0.6779 C   0  0  0  0  0  0  0  0  0  0  0  0
    3.3740   -0.6632   -1.2315 O   0  0  0  0  0  0  0  0  0  0  0  0
    4.4684   -2.2264    0.0498 N   0  0  0  0  0  0  0  0  0  0  0  0
    1.1810   -2.0803    1.5718 H   0  0  0  0  0  0  0  0  0  0  0  0
    0.7619   -1.2281   -1.1909 H   0  0  0  0  0  0  0  0  0  0  0  0
    2.4262   -3.4785    0.0912 H   0  0  0  0  0  0  0  0  0  0  0  0
    2.2830   -3.2975   -1.6593 H   0  0  0  0  0  0  0  0  0  0  0  0
    4.4400   -3.1381    0.4940 H   0  0  0  0  0  0  0  0  0  0  0  0
    5.3195   -1.6865    0.1699 H   0  0  0  0  0  0  0  0  0  0  0  0
   -1.0282   -2.7009   -1.8814 N   0  0  0  0  0  0  0  0  0  0  0  0
   -2.1645   -3.4775   -2.3160 C   0  0  2  0  0  0  0  0  0  0  0  0
   -3.1214   -3.6103   -1.1386 C   0  0  0  0  0  0  0  0  0  0  0  0
   -2.7661   -3.4872    0.0317 O   0  0  0  0  0  0  0  0  0  0  0  0
   -1.7376   -4.8449   -2.8264 C   0  0  0  0  0  0  0  0  0  0  0  0
   -0.8128   -1.8434   -2.3814 H   0  0  0  0  0  0  0  0  0  0  0  0
   -2.6479   -2.9090   -3.1180 H   0  0  0  0  0  0  0  0  0  0  0  0
   -1.2512   -5.4291   -2.0368 H   0  0  0  0  0  0  0  0  0  0  0  0
   -2.5976   -5.4218   -3.1823 H   0  0  0  0  0  0  0  0  0  0  0  0
   -1.0264   -4.7475   -3.6538 H   0  0  0  0  0  0  0  0  0  0  0  0
   -4.4101   -3.9251   -1.5464 N   0  0  0  0  0  0  0  0  0  0  0  0
   -5.4976   -4.1162   -0.6154 C   0  0  0  0  0  0  0  0  0  0  0  0
   -4.6186   -3.9891   -2.5385 H   0  0  0  0  0  0  0  0  0  0  0  0
   -5.5749   -5.1822   -0.3549 H   0  0  0  0  0  0  0  0  0  0  0  0
   -5.3079   -3.5292    0.2953 H   0  0  0  0  0  0  0  0  0  0  0  0
   -6.4385   -3.7827   -1.0774 H   0  0  0  0  0  0  0  0  0  0  0  0
  1  3  1  0  0  0  0
  1  7  1  0  0  0  0
  1  2  2  0  0  0  0
 21 22  1  0  0  0  0
 22 24  1  0  0  0  0
 22 23  2  0  0  0  0
 32 33  1  0  0  0  0
 33 41  1  0  0  0  0
 33 34  2  0  0  0  0
  8  9  1  0  0  0  0
  9 17  1  0  0  0  0
  9 10  2  0  0  0  0
 18 19  1  0  0  0  0
 19 31  1  0  0  0  0
 19 20  2  0  0  0  0
 32 35  1  0  0  0  0
  8 11  1  0  0  0  0
 41 42  1  0  0  0  0
 18 21  1  0  0  0  0
 31 32  1  0  0  0  0
  7  8  1  0  0  0  0
 17 18  1  0  0  0  0
  3  4  1  0  0  0  0
  3  5  1  0  0  0  0
  3  6  1  0  0  0  0
 35 38  1  0  0  0  0
 35 39  1  0  0  0  0
 35 40  1  0  0  0  0
 11 14  1  0  0  0  0
 11 15  1  0  0  0  0
 11 16  1  0  0  0  0
 42 44  1  0  0  0  0
 42 45  1  0  0  0  0
 42 46  1  0  0  0  0
 21 27  1  0  0  0  0
 21 28  1  0  0  0  0
 32 37  1  0  0  0  0
  8 13  1  0  0  0  0
 18 26  1  0  0  0  0
 24 29  1  0  0  0  0
 24 30  1  0  0  0  0
 41 43  1  0  0  0  0
  7 12  1  0  0  0  0
 31 36  1  0  0  0  0
 17 25  1  0  0  0  0
M  END
$$$$

  -OEChem-05262214473D

 46 45  0     1  0  0  0  0  0999 V2000
   -0.0543    1.9736    3.8406 C   0  0  0  0  0  0  0  0  0  0  0  0
    0.6744    1.6099    4.7562 O   0  0  0  0  0  0  0  0  0  0  0  0
   -0.5599    3.3779    3.8160 C   0  0  0  0  0  0  0  0  0  0  0  0
   -1.5202    3.4885    4.3450 H   0  0  0  0  0  0  0  0  0  0  0  0
    0.1282    4.0814    4.3116 H   0  0  0  0  0  0  0  0  0  0  0  0
   -0.7317    3.7994    2.8126 H   0  0  0  0  0  0  0  0  0  0  0  0
   -0.4812    1.1968    2.7762 N   0  0  0  0  0  0  0  0  0  0  0  0
   -0.1106   -0.1834    2.6051 C   0  0  2  0  0  0  0  0  0  0  0  0
   -0.0696   -0.4775    1.1113 C   0  0  0  0  0  0  0  0  0  0  0  0
   -0.6805    0.1900    0.2792 O   0  0  0  0  0  0  0  0  0  0  0  0
   -1.0852   -1.1101    3.3150 C   0  0  0  0  0  0  0  0  0  0  0  0
   -1.0883    1.6241    2.0791 H   0  0  0  0  0  0  0  0  0  0  0  0
    0.8937   -0.2959    3.0277 H   0  0  0  0  0  0  0  0  0  0  0  0
   -2.0970   -1.0114    2.9051 H   0  0  0  0  0  0  0  0  0  0  0  0
   -0.7860   -2.1580    3.2078 H   0  0  0  0  0  0  0  0  0  0  0  0
   -1.1357   -0.8775    4.3842 H   0  0  0  0  0  0  0  0  0  0  0  0
    0.6950   -1.6003    0.8178 N   0  0  0  0  0  0  0  0  0  0  0  0
    0.8777   -2.0908   -0.5246 C   0  0  2  0  0  0  0  0  0  0  0  0
   -0.2404   -3.0868   -0.8060 C   0  0  0  0  0  0  0  0  0  0  0  0
   -0.6091   -3.9305    0.0087 O   0  0  0  0  0  0  0  0  0  0  0  0
    2.2448   -2.7498   -0.7090 C   0  0  0  0  0  0  0  0  0  0  0  0
    3.3948   -1.7585   -0.6779 C   0  0  0  0  0  0  0  0  0  0  0  0
    3.3740   -0.6632   -1.2315 O   0  0  0  0  0  0  0  0  0  0  0  0
    4.4684   -2.2264    0.0498 N   0  0  0  0  0  0  0  0  0  0  0  0
    1.1810   -2.0803    1.5718 H   0  0  0  0  0  0  0  0  0  0  0  0
    0.7619   -1.2281   -1.1909 H   0  0  0  0  0  0  0  0  0  0  0  0
    2.4262   -3.4785    0.0912 H   0  0  0  0  0  0  0  0  0  0  0  0
    2.2830   -3.2975   -1.6593 H   0  0  0  0  0  0  0  0  0  0  0  0
    4.4400   -3.1381    0.4940 H   0  0  0  0  0  0  0  0  0  0  0  0
    5.3195   -1.6865    0.1699 H   0  0  0  0  0  0  0  0  0  0  0  0
   -0.8140   -2.8924   -2.0546 N   0  0  0  0  0  0  0  0  0  0  0  0
   -1.9108   -3.7023   -2.5281 C   0  0  2  0  0  0  0  0  0  0  0  0
   -3.0549   -3.5740   -1.5312 C   0  0  0  0  0  0  0  0  0  0  0  0
   -2.8899   -3.2374   -0.3605 O   0  0  0  0  0  0  0  0  0  0  0  0
   -1.4943   -5.1556   -2.6935 C   0  0  0  0  0  0  0  0  0  0  0  0
   -0.4648   -2.1554   -2.6601 H   0  0  0  0  0  0  0  0  0  0  0  0
   -2.2182   -3.2853   -3.4934 H   0  0  0  0  0  0  0  0  0  0  0  0
   -1.1830   -5.5905   -1.7367 H   0  0  0  0  0  0  0  0  0  0  0  0
   -2.3193   -5.7632   -3.0799 H   0  0  0  0  0  0  0  0  0  0  0  0
   -0.6519   -5.2430   -3.3881 H   0  0  0  0  0  0  0  0  0  0  0  0
   -4.2764   -3.9212   -2.0910 N   0  0  0  0  0  0  0  0  0  0  0  0
   -5.5123   -3.8938   -1.3442 C   0  0  0  0  0  0  0  0  0  0  0  0
   -4.3225   -4.1700   -3.0748 H   0  0  0  0  0  0  0  0  0  0  0  0
   -5.6996   -4.8859   -0.9076 H   0  0  0  0  0  0  0  0  0  0  0  0
   -5.4379   -3.1474   -0.5396 H   0  0  0  0  0  0  0  0  0  0  0  0
   -6.3410   -3.6268   -2.0165 H   0  0  0  0  0  0  0  0  0  0  0  0
  1  3  1  0  0  0  0
  1  7  1  0  0  0  0
  1  2  2  0  0  0  0
 21 22  1  0  0  0  0
 22 24  1  0  0  0  0
 22 23  2  0  0  0  0
 32 33  1  0  0  0  0
 33 41  1  0  0  0  0
 33 34  2  0  0  0  0
  8  9  1  0  0  0  0
  9 17  1  0  0  0  0
  9 10  2  0  0  0  0
 18 19  1  0  0  0  0
 19 31  1  0  0  0  0
 19 20  2  0  0  0  0
 32 35  1  0  0  0  0
  8 11  1  0  0  0  0
 41 42  1  0  0  0  0
 18 21  1  0  0  0  0
 31 32  1  0  0  0  0
  7  8  1  0  0  0  0
 17 18  1  0  0  0  0
  3  4  1  0  0  0  0
  3  5  1  0  0  0  0
  3  6  1  0  0  0  0
 35 38  1  0  0  0  0
 35 39  1  0  0  0  0
 35 40  1  0  0  0  0
 11 14  1  0  0  0  0
 11 15  1  0  0  0  0
 11 16  1  0  0  0  0
 42 44  1  0  0  0  0
 42 45  1  0  0  0  0
 42 46  1  0  0  0  0
 21 27  1  0  0  0  0
 21 28  1  0  0  0  0
 32 37  1  0  0  0  0
  8 13  1  0  0  0  0
 18 26  1  0  0  0  0
 24 29  1  0  0  0  0
 24 30  1  0  0  0  0
 41 43  1  0  0  0  0
  7 12  1  0  0  0  0
 31 36  1  0  0  0  0
 17 25  1  0  0  0  0
M  END
$$$$

  -OEChem-05262214473D

 46 45  0     1  0  0  0  0  0999 V2000
   -0.0543    1.9736    3.8406 C   0  0  0  0  0  0  0  0  0  0  0  0
    0.6744    1.6099    4.7562 O   0  0  0  0  0  0  0  0  0  0  0  0
   -0.5599    3.3779    3.8160 C   0  0  0  0  0  0  0  0  0  0  0  0
   -1.5202    3.4885    4.3450 H   0  0  0  0  0  0  0  0  0  0  0  0
    0.1282    4.0814    4.3116 H   0  0  0  0  0  0  0  0  0  0  0  0
   -0.7317    3.7994    2.8126 H   0  0  0  0  0  0  0  0  0  0  0  0
   -0.4812    1.1968    2.7762 N   0  0  0  0  0  0  0  0  0  0  0  0
   -0.1106   -0.1834    2.6051 C   0  0  2  0  0  0  0  0  0  0  0  0
   -0.0696   -0.4775    1.1113 C   0  0  0  0  0  0  0  0  0  0  0  0
   -0.6805    0.1900    0.2792 O   0  0  0  0  0  0  0  0  0  0  0  0
   -1.0852   -1.1101    3.3150 C   0  0  0  0  0  0  0  0  0  0  0  0
   -1.0883    1.6241    2.0791 H   0  0  0  0  0  0  0  0  0  0  0  0
    0.8937   -0.2959    3.0277 H   0  0  0  0  0  0  0  0  0  0  0  0
   -2.0970   -1.0114    2.9051 H   0  0  0  0  0  0  0  0  0  0  0  0
   -0.7860   -2.1580    3.2078 H   0  0  0  0  0  0  0  0  0  0  0  0
   -1.1357   -0.8775    4.3842 H   0  0  0  0  0  0  0  0  0  0  0  0
    0.6950   -1.6003    0.8178 N   0  0  0  0  0  0  0  0  0  0  0  0
    0.8777   -2.0908   -0.5246 C   0  0  2  0  0  0  0  0  0  0  0  0
   -0.2404   -3.0868   -0.8060 C   0  0  0  0  0  0  0  0  0  0  0  0
   -0.7915   -3.7444    0.0746 O   0  0  0  0  0  0  0  0  0  0  0  0
    2.2448   -2.7498   -0.7090 C   0  0  0  0  0  0  0  0  0  0  0  0
    3.3948   -1.7585   -0.6779 C   0  0  0  0  0  0  0  0  0  0  0  0
    3.3740   -0.6632   -1.2315 O   0  0  0  0  0  0  0  0  0  0  0  0
    4.4684   -2.2264    0.0498 N   0  0  0  0  0  0  0  0  0  0  0  0
    1.1810   -2.0803    1.5718 H   0  0  0  0  0  0  0  0  0  0  0  0
    0.7619   -1.2281   -1.1909 H   0  0  0  0  0  0  0  0  0  0  0  0
    2.4262   -3.4785    0.0912 H   0  0  0  0  0  0  0  0  0  0  0  0
    2.2830   -3.2975   -1.6593 H   0  0  0  0  0  0  0  0  0  0  0  0
    4.4400   -3.1381    0.4940 H   0  0  0  0  0  0  0  0  0  0  0  0
    5.3195   -1.6865    0.1699 H   0  0  0  0  0  0  0  0  0  0  0  0
   -0.5870   -3.1204   -2.1494 N   0  0  0  0  0  0  0  0  0  0  0  0
   -1.6406   -3.9719   -2.6474 C   0  0  2  0  0  0  0  0  0  0  0  0
   -2.9226   -3.6166   -1.9060 C   0  0  0  0  0  0  0  0  0  0  0  0
   -2.9312   -3.0646   -0.8077 O   0  0  0  0  0  0  0  0  0  0  0  0
   -1.2967   -5.4420   -2.4649 C   0  0  0  0  0  0  0  0  0  0  0  0
   -0.0964   -2.5263   -2.8112 H   0  0  0  0  0  0  0  0  0  0  0  0
   -1.7575   -3.7407   -3.7118 H   0  0  0  0  0  0  0  0  0  0  0  0
   -1.1756   -5.6926   -1.4047 H   0  0  0  0  0  0  0  0  0  0  0  0
   -2.0840   -6.0868   -2.8690 H   0  0  0  0  0  0  0  0  0  0  0  0
   -0.3588   -5.6890   -2.9740 H   0  0  0  0  0  0  0  0  0  0  0  0
   -4.0550   -4.0273   -2.5952 N   0  0  0  0  0  0  0  0  0  0  0  0
   -5.3926   -3.8166   -2.0928 C   0  0  0  0  0  0  0  0  0  0  0  0
   -3.9545   -4.4607   -3.5083 H   0  0  0  0  0  0  0  0  0  0  0  0
   -5.7125   -4.6988   -1.5188 H   0  0  0  0  0  0  0  0  0  0  0  0
   -5.4039   -2.9310   -1.4405 H   0  0  0  0  0  0  0  0  0  0  0  0
   -6.0805   -3.6592   -2.9367 H   0  0  0  0  0  0  0  0  0  0  0  0
  1  3  1  0  0  0  0
  1  7  1  0  0  0  0
  1  2  2  0  0  0  0
 21 22  1  0  0  0  0
 22 24  1  0  0  0  0
 22 23  2  0  0  0  0
 32 33  1  0  0  0  0
 33 41  1  0  0  0  0
 33 34  2  0  0  0  0
  8  9  1  0  0  0  0
  9 17  1  0  0  0  0
  9 10  2  0  0  0  0
 18 19  1  0  0  0  0
 19 31  1  0  0  0  0
 19 20  2  0  0  0  0
 32 35  1  0  0  0  0
  8 11  1  0  0  0  0
 41 42  1  0  0  0  0
 18 21  1  0  0  0  0
 31 32  1  0  0  0  0
  7  8  1  0  0  0  0
 17 18  1  0  0  0  0
  3  4  1  0  0  0  0
  3  5  1  0  0  0  0
  3  6  1  0  0  0  0
 35 38  1  0  0  0  0
 35 39  1  0  0  0  0
 35 40  1  0  0  0  0
 11 14  1  0  0  0  0
 11 15  1  0  0  0  0
 11 16  1  0  0  0  0
 42 44  1  0  0  0  0
 42 45  1  0  0  0  0
 42 46  1  0  0  0  0
 21 27  1  0  0  0  0
 21 28  1  0  0  0  0
 32 37  1  0  0  0  0
  8 13  1  0  0  0  0
 18 26  1  0  0  0  0
 24 29  1  0  0  0  0
 24 30  1  0  0  0  0
 41 43  1  0  0  0  0
  7 12  1  0  0  0  0
 31 36  1  0  0  0  0
 17 25  1  0  0  0  0
M  END
$$$$

  -OEChem-05262214473D

 46 45  0     1  0  0  0  0  0999 V2000
   -0.0543    1.9736    3.8406 C   0  0  0  0  0  0  0  0  0  0  0  0
    0.6744    1.6099    4.7562 O   0  0  0  0  0  0  0  0  0  0  0  0
   -0.5599    3.3779    3.8160 C   0  0  0  0  0  0  0  0  0  0  0  0
   -1.5202    3.4885    4.3450 H   0  0  0  0  0  0  0  0  0  0  0  0
    0.1282    4.0814    4.3116 H   0  0  0  0  0  0  0  0  0  0  0  0
   -0.7317    3.7994    2.8126 H   0  0  0  0  0  0  0  0  0  0  0  0
   -0.4812    1.1968    2.7762 N   0  0  0  0  0  0  0  0  0  0  0  0
   -0.1106   -0.1834    2.6051 C   0  0  2  0  0  0  0  0  0  0  0  0
   -0.0696   -0.4775    1.1113 C   0  0  0  0  0  0  0  0  0  0  0  0
   -0.6805    0.1900    0.2792 O   0  0  0  0  0  0  0  0  0  0  0  0
   -1.0852   -1.1101    3.3150 C   0  0  0  0  0  0  0  0  0  0  0  0
   -1.0883    1.6241    2.0791 H   0  0  0  0  0  0  0  0  0  0  0  0
    0.8937   -0.2959    3.0277 H   0  0  0  0  0  0  0  0  0  0  0  0
   -2.0970   -1.0114    2.9051 H   0  0  0  0  0  0  0  0  0  0  0  0
   -0.7860   -2.1580    3.2078 H   0  0  0  0  0  0  0  0  0  0  0  0
   -1.1357   -0.8775    4.3842 H   0  0  0  0  0  0  0  0  0  0  0  0
    0.6950   -1.6003    0.8178 N   0  0  0  0  0  0  0  0  0  0  0  0
    0.8777   -2.0908   -0.5246 C   0  0  2  0  0  0  0  0  0  0  0  0
   -0.2404   -3.0868   -0.8060 C   0  0  0  0  0  0  0  0  0  0  0  0
   -0.9699   -3.5434    0.0720 O   0  0  0  0  0  0  0  0  0  0  0  0
    2.2448   -2.7498   -0.7090 C   0  0  0  0  0  0  0  0  0  0  0  0
    3.3948   -1.7585   -0.6779 C   0  0  0  0  0  0  0  0  0  0  0  0
    3.3740   -0.6632   -1.2315 O   0  0  0  0  0  0  0  0  0  0  0  0
    4.4684   -2.2264    0.0498 N   0  0  0  0  0  0  0  0  0  0  0  0
    1.1810   -2.0803    1.5718 H   0  0  0  0  0  0  0  0  0  0  0  0
    0.7619   -1.2281   -1.1909 H   0  0  0  0  0  0  0  0  0  0  0  0
    2.4262   -3.4785    0.0912 H   0  0  0  0  0  0  0  0  0  0  0  0
    2.2830   -3.2975   -1.6593 H   0  0  0  0  0  0  0  0  0  0  0  0
    4.4400   -3.1381    0.4940 H   0  0  0  0  0  0  0  0  0  0  0  0
    5.3195   -1.6865    0.1699 H   0  0  0  0  0  0  0  0  0  0  0  0
   -0.3627   -3.3695   -2.1592 N   0  0  0  0  0  0  0  0  0  0  0  0
   -1.3723   -4.2680   -2.6657 C   0  0  2  0  0  0  0  0  0  0  0  0
   -2.7333   -3.7354   -2.2375 C   0  0  0  0  0  0  0  0  0  0  0  0
   -2.8872   -2.9807   -1.2794 O   0  0  0  0  0  0  0  0  0  0  0  0
   -1.1582   -5.6847   -2.1562 C   0  0  0  0  0  0  0  0  0  0  0  0
    0.2673   -2.9308   -2.8243 H   0  0  0  0  0  0  0  0  0  0  0  0
   -1.2974   -4.2441   -3.7583 H   0  0  0  0  0  0  0  0  0  0  0  0
   -1.2295   -5.7285   -1.0633 H   0  0  0  0  0  0  0  0  0  0  0  0
   -1.9080   -6.3706   -2.5641 H   0  0  0  0  0  0  0  0  0  0  0  0
   -0.1671   -6.0552   -2.4397 H   0  0  0  0  0  0  0  0  0  0  0  0
   -3.7609   -4.2362   -3.0246 N   0  0  0  0  0  0  0  0  0  0  0  0
   -5.1467   -3.8900   -2.8104 C   0  0  0  0  0  0  0  0  0  0  0  0
   -3.5395   -4.8414   -3.8097 H   0  0  0  0  0  0  0  0  0  0  0  0
   -5.6125   -4.6335   -2.1470 H   0  0  0  0  0  0  0  0  0  0  0  0
   -5.2083   -2.8948   -2.3460 H   0  0  0  0  0  0  0  0  0  0  0  0
   -5.6747   -3.8778   -3.7752 H   0  0  0  0  0  0  0  0  0  0  0  0
  1  3  1  0  0  0  0
  1  7  1  0  0  0  0
  1  2  2  0  0  0  0
 21 22  1  0  0  0  0
 22 24  1  0  0  0  0
 22 23  2  0  0  0  0
 32 33  1  0  0  0  0
 33 41  1  0  0  0  0
 33 34  2  0  0  0  0
  8  9  1  0  0  0  0
  9 17  1  0  0  0  0
  9 10  2  0  0  0  0
 18 19  1  0  0  0  0
 19 31  1  0  0  0  0
 19 20  2  0  0  0  0
 32 35  1  0  0  0  0
  8 11  1  0  0  0  0
 41 42  1  0  0  0  0
 18 21  1  0  0  0  0
 31 32  1  0  0  0  0
  7  8  1  0  0  0  0
 17 18  1  0  0  0  0
  3  4  1  0  0  0  0
  3  5  1  0  0  0  0
  3  6  1  0  0  0  0
 35 38  1  0  0  0  0
 35 39  1  0  0  0  0
 35 40  1  0  0  0  0
 11 14  1  0  0  0  0
 11 15  1  0  0  0  0
 11 16  1  0  0  0  0
 42 44  1  0  0  0  0
 42 45  1  0  0  0  0
 42 46  1  0  0  0  0
 21 27  1  0  0  0  0
 21 28  1  0  0  0  0
 32 37  1  0  0  0  0
  8 13  1  0  0  0  0
 18 26  1  0  0  0  0
 24 29  1  0  0  0  0
 24 30  1  0  0  0  0
 41 43  1  0  0  0  0
  7 12  1  0  0  0  0
 31 36  1  0  0  0  0
 17 25  1  0  0  0  0
M  END
$$$$

  -OEChem-05262214473D

 46 45  0     1  0  0  0  0  0999 V2000
   -0.0543    1.9736    3.8406 C   0  0  0  0  0  0  0  0  0  0  0  0
    0.6744    1.6099    4.7562 O   0  0  0  0  0  0  0  0  0  0  0  0
   -0.5599    3.3779    3.8160 C   0  0  0  0  0  0  0  0  0  0  0  0
   -1.5202    3.4885    4.3450 H   0  0  0  0  0  0  0  0  0  0  0  0
    0.1282    4.0814    4.3116 H   0  0  0  0  0  0  0  0  0  0  0  0
   -0.7317    3.7994    2.8126 H   0  0  0  0  0  0  0  0  0  0  0  0
   -0.4812    1.1968    2.7762 N   0  0  0  0  0  0  0  0  0  0  0  0
   -0.1106   -0.1834    2.6051 C   0  0  2  0  0  0  0  0  0  0  0  0
   -0.0696   -0.4775    1.1113 C   0  0  0  0  0  0  0  0  0  0  0  0
   -0.6805    0.1900    0.2792 O   0  0  0  0  0  0  0  0  0  0  0  0
   -1.0852   -1.1101    3.3150 C   0  0  0  0  0  0  0  0  0  0  0  0
   -1.0883    1.6241    2.0791 H   0  0  0  0  0  0  0  0  0  0  0  0
    0.8937   -0.2959    3.0277 H   0  0  0  0  0  0  0  0  0  0  0  0
   -2.0970   -1.0114    2.9051 H   0  0  0  0  0  0  0  0  0  0  0  0
   -0.7860   -2.1580    3.2078 H   0  0  0  0  0  0  0  0  0  0  0  0
   -1.1357   -0.8775    4.3842 H   0  0  0  0  0  0  0  0  0  0  0  0
    0.6950   -1.6003    0.8178 N   0  0  0  0  0  0  0  0  0  0  0  0
    0.8777   -2.0908   -0.5246 C   0  0  2  0  0  0  0  0  0  0  0  0
   -0.4157   -2.7793   -0.9422 C   0  0  0  0  0  0  0  0  0  0  0  0
   -1.4129   -2.8274   -0.2248 O   0  0  0  0  0  0  0  0  0  0  0  0
    2.0580   -3.0575   -0.6219 C   0  0  0  0  0  0  0  0  0  0  0  0
    3.4042   -2.3758   -0.4511 C   0  0  0  0  0  0  0  0  0  0  0  0
    3.6976   -1.2963   -0.9561 O   0  0  0  0  0  0  0  0  0  0  0  0
    4.2626   -3.1061    0.3433 N   0  0  0  0  0  0  0  0  0  0  0  0
    1.1810   -2.0803    1.5718 H   0  0  0  0  0  0  0  0  0  0  0  0
    1.0340   -1.2113   -1.1600 H   0  0  0  0  0  0  0  0  0  0  0  0
    1.9849   -3.8259    0.1581 H   0  0  0  0  0  0  0  0  0  0  0  0
    2.0512   -3.5772   -1.5887 H   0  0  0  0  0  0  0  0  0  0  0  0
    3.9757   -3.9932    0.7433 H   0  0  0  0  0  0  0  0  0  0  0  0
    5.2035   -2.7916    0.5580 H   0  0  0  0  0  0  0  0  0  0  0  0
   -0.3450   -3.2915   -2.2301 N   0  0  0  0  0  0  0  0  0  0  0  0
   -1.4617   -3.9646   -2.8490 C   0  0  2  0  0  0  0  0  0  0  0  0
   -2.6435   -3.0039   -2.8582 C   0  0  0  0  0  0  0  0  0  0  0  0
   -2.7424   -2.0547   -2.0834 O   0  0  0  0  0  0  0  0  0  0  0  0
   -1.8109   -5.2487   -2.1129 C   0  0  0  0  0  0  0  0  0  0  0  0
    0.5114   -3.1890   -2.7666 H   0  0  0  0  0  0  0  0  0  0  0  0
   -1.1644   -4.1886   -3.8792 H   0  0  0  0  0  0  0  0  0  0  0  0
   -2.1112   -5.0442   -1.0788 H   0  0  0  0  0  0  0  0  0  0  0  0
   -2.6397   -5.7726   -2.6003 H   0  0  0  0  0  0  0  0  0  0  0  0
   -0.9506   -5.9261   -2.0814 H   0  0  0  0  0  0  0  0  0  0  0  0
   -3.5954   -3.3566   -3.8046 N   0  0  0  0  0  0  0  0  0  0  0  0
   -4.8154   -2.6086   -3.9995 C   0  0  0  0  0  0  0  0  0  0  0  0
   -3.4217   -4.1480   -4.4171 H   0  0  0  0  0  0  0  0  0  0  0  0
   -5.6150   -3.0426   -3.3812 H   0  0  0  0  0  0  0  0  0  0  0  0
   -4.6536   -1.5606   -3.7068 H   0  0  0  0  0  0  0  0  0  0  0  0
   -5.1069   -2.6524   -5.0593 H   0  0  0  0  0  0  0  0  0  0  0  0
  1  3  1  0  0  0  0
  1  7  1  0  0  0  0
  1  2  2  0  0  0  0
 21 22  1  0  0  0  0
 22 24  1  0  0  0  0
 22 23  2  0  0  0  0
 32 33  1  0  0  0  0
 33 41  1  0  0  0  0
 33 34  2  0  0  0  0
  8  9  1  0  0  0  0
  9 17  1  0  0  0  0
  9 10  2  0  0  0  0
 18 19  1  0  0  0  0
 19 31  1  0  0  0  0
 19 20  2  0  0  0  0
 32 35  1  0  0  0  0
  8 11  1  0  0  0  0
 41 42  1  0  0  0  0
 18 21  1  0  0  0  0
 31 32  1  0  0  0  0
  7  8  1  0  0  0  0
 17 18  1  0  0  0  0
  3  4  1  0  0  0  0
  3  5  1  0  0  0  0
  3  6  1  0  0  0  0
 35 38  1  0  0  0  0
 35 39  1  0  0  0  0
 35 40  1  0  0  0  0
 11 14  1  0  0  0  0
 11 15  1  0  0  0  0
 11 16  1  0  0  0  0
 42 44  1  0  0  0  0
 42 45  1  0  0  0  0
 42 46  1  0  0  0  0
 21 27  1  0  0  0  0
 21 28  1  0  0  0  0
 32 37  1  0  0  0  0
  8 13  1  0  0  0  0
 18 26  1  0  0  0  0
 24 29  1  0  0  0  0
 24 30  1  0  0  0  0
 41 43  1  0  0  0  0
  7 12  1  0  0  0  0
 31 36  1  0  0  0  0
 17 25  1  0  0  0  0
M  END
$$$$

  -OEChem-05262214473D

 46 45  0     1  0  0  0  0  0999 V2000
   -0.0543    1.9736    3.8406 C   0  0  0  0  0  0  0  0  0  0  0  0
    0.6744    1.6099    4.7562 O   0  0  0  0  0  0  0  0  0  0  0  0
   -0.5599    3.3779    3.8160 C   0  0  0  0  0  0  0  0  0  0  0  0
   -1.5202    3.4885    4.3450 H   0  0  0  0  0  0  0  0  0  0  0  0
    0.1282    4.0814    4.3116 H   0  0  0  0  0  0  0  0  0  0  0  0
   -0.7317    3.7994    2.8126 H   0  0  0  0  0  0  0  0  0  0  0  0
   -0.4812    1.1968    2.7762 N   0  0  0  0  0  0  0  0  0  0  0  0
   -0.1106   -0.1834    2.6051 C   0  0  2  0  0  0  0  0  0  0  0  0
   -0.0696   -0.4775    1.1113 C   0  0  0  0  0  0  0  0  0  0  0  0
   -0.6805    0.1900    0.2792 O   0  0  0  0  0  0  0  0  0  0  0  0
   -1.0852   -1.1101    3.3150 C   0  0  0  0  0  0  0  0  0  0  0  0
   -1.0883    1.6241    2.0791 H   0  0  0  0  0  0  0  0  0  0  0  0
    0.8937   -0.2959    3.0277 H   0  0  0  0  0  0  0  0  0  0  0  0
   -2.0970   -1.0114    2.9051 H   0  0  0  0  0  0  0  0  0  0  0  0
   -0.7860   -2.1580    3.2078 H   0  0  0  0  0  0  0  0  0  0  0  0
   -1.1357   -0.8775    4.3842 H   0  0  0  0  0  0  0  0  0  0  0  0
    0.6950   -1.6003    0.8178 N   0  0  0  0  0  0  0  0  0  0  0  0
    0.8777   -2.0908   -0.5246 C   0  0  2  0  0  0  0  0  0  0  0  0
   -0.4157   -2.7793   -0.9422 C   0  0  0  0  0  0  0  0  0  0  0  0
   -1.4857   -2.6078   -0.3616 O   0  0  0  0  0  0  0  0  0  0  0  0
    2.0580   -3.0575   -0.6219 C   0  0  0  0  0  0  0  0  0  0  0  0
    3.4042   -2.3758   -0.4511 C   0  0  0  0  0  0  0  0  0  0  0  0
    3.6976   -1.2963   -0.9561 O   0  0  0  0  0  0  0  0  0  0  0  0
    4.2626   -3.1061    0.3433 N   0  0  0  0  0  0  0  0  0  0  0  0
    1.1810   -2.0803    1.5718 H   0  0  0  0  0  0  0  0  0  0  0  0
    1.0340   -1.2113   -1.1600 H   0  0  0  0  0  0  0  0  0  0  0  0
    1.9849   -3.8259    0.1581 H   0  0  0  0  0  0  0  0  0  0  0  0
    2.0512   -3.5772   -1.5887 H   0  0  0  0  0  0  0  0  0  0  0  0
    3.9757   -3.9932    0.7433 H   0  0  0  0  0  0  0  0  0  0  0  0
    5.2035   -2.7916    0.5580 H   0  0  0  0  0  0  0  0  0  0  0  0
   -0.2483   -3.5701   -2.0703 N   0  0  0  0  0  0  0  0  0  0  0  0
   -1.3434   -4.2989   -2.6641 C   0  0  2  0  0  0  0  0  0  0  0  0
   -2.4322   -3.2980   -3.0277 C   0  0  0  0  0  0  0  0  0  0  0  0
   -2.5349   -2.1953   -2.4942 O   0  0  0  0  0  0  0  0  0  0  0  0
   -1.8774   -5.3632   -1.7181 C   0  0  0  0  0  0  0  0  0  0  0  0
    0.6670   -3.6401   -2.5050 H   0  0  0  0  0  0  0  0  0  0  0  0
   -0.9555   -4.7648   -3.5765 H   0  0  0  0  0  0  0  0  0  0  0  0
   -2.2705   -4.9153   -0.7982 H   0  0  0  0  0  0  0  0  0  0  0  0
   -2.6892   -5.9341   -2.1808 H   0  0  0  0  0  0  0  0  0  0  0  0
   -1.0857   -6.0649   -1.4342 H   0  0  0  0  0  0  0  0  0  0  0  0
   -3.3015   -3.7979   -3.9872 N   0  0  0  0  0  0  0  0  0  0  0  0
   -4.4258   -3.0432   -4.4895 C   0  0  0  0  0  0  0  0  0  0  0  0
   -3.1292   -4.7151   -4.3881 H   0  0  0  0  0  0  0  0  0  0  0  0
   -5.3216   -3.2807   -3.8970 H   0  0  0  0  0  0  0  0  0  0  0  0
   -4.2094   -1.9675   -4.4116 H   0  0  0  0  0  0  0  0  0  0  0  0
   -4.6027   -3.3063   -5.5428 H   0  0  0  0  0  0  0  0  0  0  0  0
  1  3  1  0  0  0  0
  1  7  1  0  0  0  0
  1  2  2  0  0  0  0
 21 22  1  0  0  0  0
 22 24  1  0  0  0  0
 22 23  2  0  0  0  0
 32 33  1  0  0  0  0
 33 41  1  0  0  0  0
 33 34  2  0  0  0  0
  8  9  1  0  0  0  0
  9 17  1  0  0  0  0
  9 10  2  0  0  0  0
 18 19  1  0  0  0  0
 19 31  1  0  0  0  0
 19 20  2  0  0  0  0
 32 35  1  0  0  0  0
  8 11  1  0  0  0  0
 41 42  1  0  0  0  0
 18 21  1  0  0  0  0
 31 32  1  0  0  0  0
  7  8  1  0  0  0  0
 17 18  1  0  0  0  0
  3  4  1  0  0  0  0
  3  5  1  0  0  0  0
  3  6  1  0  0  0  0
 35 38  1  0  0  0  0
 35 39  1  0  0  0  0
 35 40  1  0  0  0  0
 11 14  1  0  0  0  0
 11 15  1  0  0  0  0
 11 16  1  0  0  0  0
 42 44  1  0  0  0  0
 42 45  1  0  0  0  0
 42 46  1  0  0  0  0
 21 27  1  0  0  0  0
 21 28  1  0  0  0  0
 32 37  1  0  0  0  0
  8 13  1  0  0  0  0
 18 26  1  0  0  0  0
 24 29  1  0  0  0  0
 24 30  1  0  0  0  0
 41 43  1  0  0  0  0
  7 12  1  0  0  0  0
 31 36  1  0  0  0  0
 17 25  1  0  0  0  0
M  END
$$$$

  -OEChem-05262214473D

 46 45  0     1  0  0  0  0  0999 V2000
   -0.0543    1.9736    3.8406 C   0  0  0  0  0  0  0  0  0  0  0  0
    0.6744    1.6099    4.7562 O   0  0  0  0  0  0  0  0  0  0  0  0
   -0.5599    3.3779    3.8160 C   0  0  0  0  0  0  0  0  0  0  0  0
   -1.5202    3.4885    4.3450 H   0  0  0  0  0  0  0  0  0  0  0  0
    0.1282    4.0814    4.3116 H   0  0  0  0  0  0  0  0  0  0  0  0
   -0.7317    3.7994    2.8126 H   0  0  0  0  0  0  0  0  0  0  0  0
   -0.4812    1.1968    2.7762 N   0  0  0  0  0  0  0  0  0  0  0  0
   -0.1106   -0.1834    2.6051 C   0  0  2  0  0  0  0  0  0  0  0  0
   -0.0696   -0.4775    1.1113 C   0  0  0  0  0  0  0  0  0  0  0  0
   -0.6805    0.1900    0.2792 O   0  0  0  0  0  0  0  0  0  0  0  0
   -1.0852   -1.1101    3.3150 C   0  0  0  0  0  0  0  0  0  0  0  0
   -1.0883    1.6241    2.0791 H   0  0  0  0  0  0  0  0  0  0  0  0
    0.8937   -0.2959    3.0277 H   0  0  0  0  0  0  0  0  0  0  0  0
   -2.0970   -1.0114    2.9051 H   0  0  0  0  0  0  0  0  0  0  0  0
   -0.7860   -2.1580    3.2078 H   0  0  0  0  0  0  0  0  0  0  0  0
   -1.1357   -0.8775    4.3842 H   0  0  0  0  0  0  0  0  0  0  0  0
    0.6950   -1.6003    0.8178 N   0  0  0  0  0  0  0  0  0  0  0  0
    0.8777   -2.0908   -0.5246 C   0  0  2  0  0  0  0  0  0  0  0  0
   -0.4157   -2.7793   -0.9422 C   0  0  0  0  0  0  0  0  0  0  0  0
   -1.5244   -2.4205   -0.5505 O   0  0  0  0  0  0  0  0  0  0  0  0
    2.0580   -3.0575   -0.6219 C   0  0  0  0  0  0  0  0  0  0  0  0
    3.4042   -2.3758   -0.4511 C   0  0  0  0  0  0  0  0  0  0  0  0
    3.6976   -1.2963   -0.9561 O   0  0  0  0  0  0  0  0  0  0  0  0
    4.2626   -3.1061    0.3433 N   0  0  0  0  0  0  0  0  0  0  0  0
    1.1810   -2.0803    1.5718 H   0  0  0  0  0  0  0  0  0  0  0  0
    1.0340   -1.2113   -1.1600 H   0  0  0  0  0  0  0  0  0  0  0  0
    1.9849   -3.8259    0.1581 H   0  0  0  0  0  0  0  0  0  0  0  0
    2.0512   -3.5772   -1.5887 H   0  0  0  0  0  0  0  0  0  0  0  0
    3.9757   -3.9932    0.7433 H   0  0  0  0  0  0  0  0  0  0  0  0
    5.2035   -2.7916    0.5580 H   0  0  0  0  0  0  0  0  0  0  0  0
   -0.1933   -3.8110   -1.8434 N   0  0  0  0  0  0  0  0  0  0  0  0
   -1.2745   -4.5896   -2.3983 C   0  0  2  0  0  0  0  0  0  0  0  0
   -2.2292   -3.6342   -3.1020 C   0  0  0  0  0  0  0  0  0  0  0  0
   -2.2965   -2.4360   -2.8358 O   0  0  0  0  0  0  0  0  0  0  0  0
   -1.9959   -5.3823   -1.3195 C   0  0  0  0  0  0  0  0  0  0  0  0
    0.7548   -4.0294   -2.1351 H   0  0  0  0  0  0  0  0  0  0  0  0
   -0.8299   -5.2696   -3.1331 H   0  0  0  0  0  0  0  0  0  0  0  0
   -2.4480   -4.7178   -0.5741 H   0  0  0  0  0  0  0  0  0  0  0  0
   -2.7975   -5.9944   -1.7459 H   0  0  0  0  0  0  0  0  0  0  0  0
   -1.3017   -6.0472   -0.7944 H   0  0  0  0  0  0  0  0  0  0  0  0
   -3.0276   -4.2851   -4.0321 N   0  0  0  0  0  0  0  0  0  0  0  0
   -4.0230   -3.5984   -4.8217 C   0  0  0  0  0  0  0  0  0  0  0  0
   -2.8902   -5.2773   -4.2013 H   0  0  0  0  0  0  0  0  0  0  0  0
   -4.9949   -3.6449   -4.3085 H   0  0  0  0  0  0  0  0  0  0  0  0
   -3.7268   -2.5469   -4.9510 H   0  0  0  0  0  0  0  0  0  0  0  0
   -4.1054   -4.0800   -5.8072 H   0  0  0  0  0  0  0  0  0  0  0  0
  1  3  1  0  0  0  0
  1  7  1  0  0  0  0
  1  2  2  0  0  0  0
 21 22  1  0  0  0  0
 22 24  1  0  0  0  0
 22 23  2  0  0  0  0
 32 33  1  0  0  0  0
 33 41  1  0  0  0  0
 33 34  2  0  0  0  0
  8  9  1  0  0  0  0
  9 17  1  0  0  0  0
  9 10  2  0  0  0  0
 18 19  1  0  0  0  0
 19 31  1  0  0  0  0
 19 20  2  0  0  0  0
 32 35  1  0  0  0  0
  8 11  1  0  0  0  0
 41 42  1  0  0  0  0
 18 21  1  0  0  0  0
 31 32  1  0  0  0  0
  7  8  1  0  0  0  0
 17 18  1  0  0  0  0
  3  4  1  0  0  0  0
  3  5  1  0  0  0  0
  3  6  1  0  0  0  0
 35 38  1  0  0  0  0
 35 39  1  0  0  0  0
 35 40  1  0  0  0  0
 11 14  1  0  0  0  0
 11 15  1  0  0  0  0
 11 16  1  0  0  0  0
 42 44  1  0  0  0  0
 42 45  1  0  0  0  0
 42 46  1  0  0  0  0
 21 27  1  0  0  0  0
 21 28  1  0  0  0  0
 32 37  1  0  0  0  0
  8 13  1  0  0  0  0
 18 26  1  0  0  0  0
 24 29  1  0  0  0  0
 24 30  1  0  0  0  0
 41 43  1  0  0  0  0
  7 12  1  0  0  0  0
 31 36  1  0  0  0  0
 17 25  1  0  0  0  0
M  END
$$$$

  -OEChem-05262214473D

 46 45  0     1  0  0  0  0  0999 V2000
   -0.0543    1.9736    3.8406 C   0  0  0  0  0  0  0  0  0  0  0  0
    0.6744    1.6099    4.7562 O   0  0  0  0  0  0  0  0  0  0  0  0
   -0.5599    3.3779    3.8160 C   0  0  0  0  0  0  0  0  0  0  0  0
   -1.5202    3.4885    4.3450 H   0  0  0  0  0  0  0  0  0  0  0  0
    0.1282    4.0814    4.3116 H   0  0  0  0  0  0  0  0  0  0  0  0
   -0.7317    3.7994    2.8126 H   0  0  0  0  0  0  0  0  0  0  0  0
   -0.4812    1.1968    2.7762 N   0  0  0  0  0  0  0  0  0  0  0  0
   -0.1106   -0.1834    2.6051 C   0  0  2  0  0  0  0  0  0  0  0  0
   -0.0696   -0.4775    1.1113 C   0  0  0  0  0  0  0  0  0  0  0  0
   -0.6805    0.1900    0.2792 O   0  0  0  0  0  0  0  0  0  0  0  0
   -1.0852   -1.1101    3.3150 C   0  0  0  0  0  0  0  0  0  0  0  0
   -1.0883    1.6241    2.0791 H   0  0  0  0  0  0  0  0  0  0  0  0
    0.8937   -0.2959    3.0277 H   0  0  0  0  0  0  0  0  0  0  0  0
   -2.0970   -1.0114    2.9051 H   0  0  0  0  0  0  0  0  0  0  0  0
   -0.7860   -2.1580    3.2078 H   0  0  0  0  0  0  0  0  0  0  0  0
   -1.1357   -0.8775    4.3842 H   0  0  0  0  0  0  0  0  0  0  0  0
    0.6950   -1.6003    0.8178 N   0  0  0  0  0  0  0  0  0  0  0  0
    0.8777   -2.0908   -0.5246 C   0  0  2  0  0  0  0  0  0  0  0  0
   -0.4157   -2.7793   -0.9422 C   0  0  0  0  0  0  0  0  0  0  0  0
   -1.5264   -2.2783   -0.7786 O   0  0  0  0  0  0  0  0  0  0  0  0
    2.0580   -3.0575   -0.6219 C   0  0  0  0  0  0  0  0  0  0  0  0
    3.4042   -2.3758   -0.4511 C   0  0  0  0  0  0  0  0  0  0  0  0
    3.6976   -1.2963   -0.9561 O   0  0  0  0  0  0  0  0  0  0  0  0
    4.2626   -3.1061    0.3433 N   0  0  0  0  0  0  0  0  0  0  0  0
    1.1810   -2.0803    1.5718 H   0  0  0  0  0  0  0  0  0  0  0  0
    1.0340   -1.2113   -1.1600 H   0  0  0  0  0  0  0  0  0  0  0  0
    1.9849   -3.8259    0.1581 H   0  0  0  0  0  0  0  0  0  0  0  0
    2.0512   -3.5772   -1.5887 H   0  0  0  0  0  0  0  0  0  0  0  0
    3.9757   -3.9932    0.7433 H   0  0  0  0  0  0  0  0  0  0  0  0
    5.2035   -2.7916    0.5580 H   0  0  0  0  0  0  0  0  0  0  0  0
   -0.1838   -3.9977   -1.5650 N   0  0  0  0  0  0  0  0  0  0  0  0
   -1.2597   -4.8169   -2.0696 C   0  0  2  0  0  0  0  0  0  0  0  0
   -2.0482   -3.9897   -3.0763 C   0  0  0  0  0  0  0  0  0  0  0  0
   -2.0432   -2.7605   -3.0850 O   0  0  0  0  0  0  0  0  0  0  0  0
   -2.1585   -5.3047   -0.9440 C   0  0  0  0  0  0  0  0  0  0  0  0
    0.7687   -4.3304   -1.6819 H   0  0  0  0  0  0  0  0  0  0  0  0
   -0.7963   -5.6688   -2.5791 H   0  0  0  0  0  0  0  0  0  0  0  0
   -2.6316   -4.4652   -0.4218 H   0  0  0  0  0  0  0  0  0  0  0  0
   -2.9573   -5.9493   -1.3253 H   0  0  0  0  0  0  0  0  0  0  0  0
   -1.5839   -5.8742   -0.2055 H   0  0  0  0  0  0  0  0  0  0  0  0
   -2.7923   -4.7851   -3.9365 N   0  0  0  0  0  0  0  0  0  0  0  0
   -3.6345   -4.2361   -4.9735 C   0  0  0  0  0  0  0  0  0  0  0  0
   -2.7212   -5.7961   -3.8693 H   0  0  0  0  0  0  0  0  0  0  0  0
   -4.6569   -4.1103   -4.5878 H   0  0  0  0  0  0  0  0  0  0  0  0
   -3.2387   -3.2593   -5.2883 H   0  0  0  0  0  0  0  0  0  0  0  0
   -3.6491   -4.9206   -5.8344 H   0  0  0  0  0  0  0  0  0  0  0  0
  1  3  1  0  0  0  0
  1  7  1  0  0  0  0
  1  2  2  0  0  0  0
 21 22  1  0  0  0  0
 22 24  1  0  0  0  0
 22 23  2  0  0  0  0
 32 33  1  0  0  0  0
 33 41  1  0  0  0  0
 33 34  2  0  0  0  0
  8  9  1  0  0  0  0
  9 17  1  0  0  0  0
  9 10  2  0  0  0  0
 18 19  1  0  0  0  0
 19 31  1  0  0  0  0
 19 20  2  0  0  0  0
 32 35  1  0  0  0  0
  8 11  1  0  0  0  0
 41 42  1  0  0  0  0
 18 21  1  0  0  0  0
 31 32  1  0  0  0  0
  7  8  1  0  0  0  0
 17 18  1  0  0  0  0
  3  4  1  0  0  0  0
  3  5  1  0  0  0  0
  3  6  1  0  0  0  0
 35 38  1  0  0  0  0
 35 39  1  0  0  0  0
 35 40  1  0  0  0  0
 11 14  1  0  0  0  0
 11 15  1  0  0  0  0
 11 16  1  0  0  0  0
 42 44  1  0  0  0  0
 42 45  1  0  0  0  0
 42 46  1  0  0  0  0
 21 27  1  0  0  0  0
 21 28  1  0  0  0  0
 32 37  1  0  0  0  0
  8 13  1  0  0  0  0
 18 26  1  0  0  0  0
 24 29  1  0  0  0  0
 24 30  1  0  0  0  0
 41 43  1  0  0  0  0
  7 12  1  0  0  0  0
 31 36  1  0  0  0  0
 17 25  1  0  0  0  0
M  END
$$$$

  -OEChem-05262214473D

 46 45  0     1  0  0  0  0  0999 V2000
   -0.0543    1.9736    3.8406 C   0  0  0  0  0  0  0  0  0  0  0  0
    0.6744    1.6099    4.7562 O   0  0  0  0  0  0  0  0  0  0  0  0
   -0.5599    3.3779    3.8160 C   0  0  0  0  0  0  0  0  0  0  0  0
   -1.5202    3.4885    4.3450 H   0  0  0  0  0  0  0  0  0  0  0  0
    0.1282    4.0814    4.3116 H   0  0  0  0  0  0  0  0  0  0  0  0
   -0.7317    3.7994    2.8126 H   0  0  0  0  0  0  0  0  0  0  0  0
   -0.4812    1.1968    2.7762 N   0  0  0  0  0  0  0  0  0  0  0  0
   -0.1106   -0.1834    2.6051 C   0  0  2  0  0  0  0  0  0  0  0  0
   -0.0696   -0.4775    1.1113 C   0  0  0  0  0  0  0  0  0  0  0  0
   -0.6805    0.1900    0.2792 O   0  0  0  0  0  0  0  0  0  0  0  0
   -1.0852   -1.1101    3.3150 C   0  0  0  0  0  0  0  0  0  0  0  0
   -1.0883    1.6241    2.0791 H   0  0  0  0  0  0  0  0  0  0  0  0
    0.8937   -0.2959    3.0277 H   0  0  0  0  0  0  0  0  0  0  0  0
   -2.0970   -1.0114    2.9051 H   0  0  0  0  0  0  0  0  0  0  0  0
   -0.7860   -2.1580    3.2078 H   0  0  0  0  0  0  0  0  0  0  0  0
   -1.1357   -0.8775    4.3842 H   0  0  0  0  0  0  0  0  0  0  0  0
    0.6950   -1.6003    0.8178 N   0  0  0  0  0  0  0  0  0  0  0  0
    0.8777   -2.0908   -0.5246 C   0  0  2  0  0  0  0  0  0  0  0  0
   -0.4157   -2.7793   -0.9422 C   0  0  0  0  0  0  0  0  0  0  0  0
   -1.4916   -2.1910   -1.0305 O   0  0  0  0  0  0  0  0  0  0  0  0
    2.0580   -3.0575   -0.6219 C   0  0  0  0  0  0  0  0  0  0  0  0
    3.4042   -2.3758   -0.4511 C   0  0  0  0  0  0  0  0  0  0  0  0
    3.6976   -1.2963   -0.9561 O   0  0  0  0  0  0  0  0  0  0  0  0
    4.2626   -3.1061    0.3433 N   0  0  0  0  0  0  0  0  0  0  0  0
    1.1810   -2.0803    1.5718 H   0  0  0  0  0  0  0  0  0  0  0  0
    1.0340   -1.2113   -1.1600 H   0  0  0  0  0  0  0  0  0  0  0  0
    1.9849   -3.8259    0.1581 H   0  0  0  0  0  0  0  0  0  0  0  0
    2.0512   -3.5772   -1.5887 H   0  0  0  0  0  0  0  0  0  0  0  0
    3.9757   -3.9932    0.7433 H   0  0  0  0  0  0  0  0  0  0  0  0
    5.2035   -2.7916    0.5580 H   0  0  0  0  0  0  0  0  0  0  0  0
   -0.2205   -4.1175   -1.2538 N   0  0  0  0  0  0  0  0  0  0  0  0
   -1.2999   -4.9653   -1.7004 C   0  0  2  0  0  0  0  0  0  0  0  0
   -1.9017   -4.3403   -2.9521 C   0  0  0  0  0  0  0  0  0  0  0  0
   -1.7925   -3.1467   -3.2248 O   0  0  0  0  0  0  0  0  0  0  0  0
   -2.3538   -5.1358   -0.6174 C   0  0  0  0  0  0  0  0  0  0  0  0
    0.7078   -4.5225   -1.1764 H   0  0  0  0  0  0  0  0  0  0  0  0
   -0.8569   -5.9349   -1.9524 H   0  0  0  0  0  0  0  0  0  0  0  0
   -2.8089   -4.1747   -0.3517 H   0  0  0  0  0  0  0  0  0  0  0  0
   -3.1577   -5.8021   -0.9475 H   0  0  0  0  0  0  0  0  0  0  0  0
   -1.9132   -5.5578    0.2923 H   0  0  0  0  0  0  0  0  0  0  0  0
   -2.6117   -5.2637   -3.7067 N   0  0  0  0  0  0  0  0  0  0  0  0
   -3.2867   -4.9131   -4.9345 C   0  0  0  0  0  0  0  0  0  0  0  0
   -2.6335   -6.2364   -3.4149 H   0  0  0  0  0  0  0  0  0  0  0  0
   -4.3309   -4.6451   -4.7159 H   0  0  0  0  0  0  0  0  0  0  0  0
   -2.7782   -4.0562   -5.4005 H   0  0  0  0  0  0  0  0  0  0  0  0
   -3.2648   -5.7710   -5.6227 H   0  0  0  0  0  0  0  0  0  0  0  0
  1  3  1  0  0  0  0
  1  7  1  0  0  0  0
  1  2  2  0  0  0  0
 21 22  1  0  0  0  0
 22 24  1  0  0  0  0
 22 23  2  0  0  0  0
 32 33  1  0  0  0  0
 33 41  1  0  0  0  0
 33 34  2  0  0  0  0
  8  9  1  0  0  0  0
  9 17  1  0  0  0  0
  9 10  2  0  0  0  0
 18 19  1  0  0  0  0
 19 31  1  0  0  0  0
 19 20  2  0  0  0  0
 32 35  1  0  0  0  0
  8 11  1  0  0  0  0
 41 42  1  0  0  0  0
 18 21  1  0  0  0  0
 31 32  1  0  0  0  0
  7  8  1  0  0  0  0
 17 18  1  0  0  0  0
  3  4  1  0  0  0  0
  3  5  1  0  0  0  0
  3  6  1  0  0  0  0
 35 38  1  0  0  0  0
 35 39  1  0  0  0  0
 35 40  1  0  0  0  0
 11 14  1  0  0  0  0
 11 15  1  0  0  0  0
 11 16  1  0  0  0  0
 42 44  1  0  0  0  0
 42 45  1  0  0  0  0
 42 46  1  0  0  0  0
 21 27  1  0  0  0  0
 21 28  1  0  0  0  0
 32 37  1  0  0  0  0
  8 13  1  0  0  0  0
 18 26  1  0  0  0  0
 24 29  1  0  0  0  0
 24 30  1  0  0  0  0
 41 43  1  0  0  0  0
  7 12  1  0  0  0  0
 31 36  1  0  0  0  0
 17 25  1  0  0  0  0
M  END
$$$$

  -OEChem-05262214473D

 46 45  0     1  0  0  0  0  0999 V2000
   -0.0543    1.9736    3.8406 C   0  0  0  0  0  0  0  0  0  0  0  0
    0.6744    1.6099    4.7562 O   0  0  0  0  0  0  0  0  0  0  0  0
   -0.5599    3.3779    3.8160 C   0  0  0  0  0  0  0  0  0  0  0  0
   -1.5202    3.4885    4.3450 H   0  0  0  0  0  0  0  0  0  0  0  0
    0.1282    4.0814    4.3116 H   0  0  0  0  0  0  0  0  0  0  0  0
   -0.7317    3.7994    2.8126 H   0  0  0  0  0  0  0  0  0  0  0  0
   -0.4812    1.1968    2.7762 N   0  0  0  0  0  0  0  0  0  0  0  0
   -0.1106   -0.1834    2.6051 C   0  0  2  0  0  0  0  0  0  0  0  0
   -0.0696   -0.4775    1.1113 C   0  0  0  0  0  0  0  0  0  0  0  0
   -0.6805    0.1900    0.2792 O   0  0  0  0  0  0  0  0  0  0  0  0
   -1.0852   -1.1101    3.3150 C   0  0  0  0  0  0  0  0  0  0  0  0
   -1.0883    1.6241    2.0791 H   0  0  0  0  0  0  0  0  0  0  0  0
    0.8937   -0.2959    3.0277 H   0  0  0  0  0  0  0  0  0  0  0  0
   -2.0970   -1.0114    2.9051 H   0  0  0  0  0  0  0  0  0  0  0  0
   -0.7860   -2.1580    3.2078 H   0  0  0  0  0  0  0  0  0  0  0  0
   -1.1357   -0.8775    4.3842 H   0  0  0  0  0  0  0  0  0  0  0  0
    0.6950   -1.6003    0.8178 N   0  0  0  0  0  0  0  0  0  0  0  0
    0.8777   -2.0908   -0.5246 C   0  0  2  0  0  0  0  0  0  0  0  0
   -0.4157   -2.7793   -0.9422 C   0  0  0  0  0  0  0  0  0  0  0  0
   -1.4223   -2.1645   -1.2888 O   0  0  0  0  0  0  0  0  0  0  0  0
    2.0580   -3.0575   -0.6219 C   0  0  0  0  0  0  0  0  0  0  0  0
    3.4042   -2.3758   -0.4511 C   0  0  0  0  0  0  0  0  0  0  0  0
    3.6976   -1.2963   -0.9561 O   0  0  0  0  0  0  0  0  0  0  0  0
    4.2626   -3.1061    0.3433 N   0  0  0  0  0  0  0  0  0  0  0  0
    1.1810   -2.0803    1.5718 H   0  0  0  0  0  0  0  0  0  0  0  0
    1.0340   -1.2113   -1.1600 H   0  0  0  0  0  0  0  0  0  0  0  0
    1.9849   -3.8259    0.1581 H   0  0  0  0  0  0  0  0  0  0  0  0
    2.0512   -3.5772   -1.5887 H   0  0  0  0  0  0  0  0  0  0  0  0
    3.9757   -3.9932    0.7433 H   0  0  0  0  0  0  0  0  0  0  0  0
    5.2035   -2.7916    0.5580 H   0  0  0  0  0  0  0  0  0  0  0  0
   -0.3008   -4.1623   -0.9313 N   0  0  0  0  0  0  0  0  0  0  0  0
   -1.3924   -5.0246   -1.3159 C   0  0  2  0  0  0  0  0  0  0  0  0
   -1.7995   -4.6621   -2.7380 C   0  0  0  0  0  0  0  0  0  0  0  0
   -1.5614   -3.5682   -3.2457 O   0  0  0  0  0  0  0  0  0  0  0  0
   -2.5688   -4.8870   -0.3619 C   0  0  0  0  0  0  0  0  0  0  0  0
    0.5762   -4.5927   -0.6531 H   0  0  0  0  0  0  0  0  0  0  0  0
   -1.0077   -6.0501   -1.2957 H   0  0  0  0  0  0  0  0  0  0  0  0
   -2.9677   -3.8661   -0.3685 H   0  0  0  0  0  0  0  0  0  0  0  0
   -3.3850   -5.5626   -0.6385 H   0  0  0  0  0  0  0  0  0  0  0  0
   -2.2669   -5.1193    0.6651 H   0  0  0  0  0  0  0  0  0  0  0  0
   -2.4980   -5.6883   -3.3585 N   0  0  0  0  0  0  0  0  0  0  0  0
   -3.0033   -5.5831   -4.7075 C   0  0  0  0  0  0  0  0  0  0  0  0
   -2.6332   -6.5680   -2.8691 H   0  0  0  0  0  0  0  0  0  0  0  0
   -4.0389   -5.2130   -4.6839 H   0  0  0  0  0  0  0  0  0  0  0  0
   -2.3769   -4.8832   -5.2799 H   0  0  0  0  0  0  0  0  0  0  0  0
   -2.9786   -6.5731   -5.1864 H   0  0  0  0  0  0  0  0  0  0  0  0
  1  3  1  0  0  0  0
  1  7  1  0  0  0  0
  1  2  2  0  0  0  0
 21 22  1  0  0  0  0
 22 24  1  0  0  0  0
 22 23  2  0  0  0  0
 32 33  1  0  0  0  0
 33 41  1  0  0  0  0
 33 34  2  0  0  0  0
  8  9  1  0  0  0  0
  9 17  1  0  0  0  0
  9 10  2  0  0  0  0
 18 19  1  0  0  0  0
 19 31  1  0  0  0  0
 19 20  2  0  0  0  0
 32 35  1  0  0  0  0
  8 11  1  0  0  0  0
 41 42  1  0  0  0  0
 18 21  1  0  0  0  0
 31 32  1  0  0  0  0
  7  8  1  0  0  0  0
 17 18  1  0  0  0  0
  3  4  1  0  0  0  0
  3  5  1  0  0  0  0
  3  6  1  0  0  0  0
 35 38  1  0  0  0  0
 35 39  1  0  0  0  0
 35 40  1  0  0  0  0
 11 14  1  0  0  0  0
 11 15  1  0  0  0  0
 11 16  1  0  0  0  0
 42 44  1  0  0  0  0
 42 45  1  0  0  0  0
 42 46  1  0  0  0  0
 21 27  1  0  0  0  0
 21 28  1  0  0  0  0
 32 37  1  0  0  0  0
  8 13  1  0  0  0  0
 18 26  1  0  0  0  0
 24 29  1  0  0  0  0
 24 30  1  0  0  0  0
 41 43  1  0  0  0  0
  7 12  1  0  0  0  0
 31 36  1  0  0  0  0
 17 25  1  0  0  0  0
M  END
$$$$

  -OEChem-05262214473D

 46 45  0     1  0  0  0  0  0999 V2000
   -0.0543    1.9736    3.8406 C   0  0  0  0  0  0  0  0  0  0  0  0
    0.6744    1.6099    4.7562 O   0  0  0  0  0  0  0  0  0  0  0  0
   -0.5599    3.3779    3.8160 C   0  0  0  0  0  0  0  0  0  0  0  0
   -1.5202    3.4885    4.3450 H   0  0  0  0  0  0  0  0  0  0  0  0
    0.1282    4.0814    4.3116 H   0  0  0  0  0  0  0  0  0  0  0  0
   -0.7317    3.7994    2.8126 H   0  0  0  0  0  0  0  0  0  0  0  0
   -0.4812    1.1968    2.7762 N   0  0  0  0  0  0  0  0  0  0  0  0
   -0.1106   -0.1834    2.6051 C   0  0  2  0  0  0  0  0  0  0  0  0
   -0.0696   -0.4775    1.1113 C   0  0  0  0  0  0  0  0  0  0  0  0
   -0.6805    0.1900    0.2792 O   0  0  0  0  0  0  0  0  0  0  0  0
   -1.0852   -1.1101    3.3150 C   0  0  0  0  0  0  0  0  0  0  0  0
   -1.0883    1.6241    2.0791 H   0  0  0  0  0  0  0  0  0  0  0  0
    0.8937   -0.2959    3.0277 H   0  0  0  0  0  0  0  0  0  0  0  0
   -2.0970   -1.0114    2.9051 H   0  0  0  0  0  0  0  0  0  0  0  0
   -0.7860   -2.1580    3.2078 H   0  0  0  0  0  0  0  0  0  0  0  0
   -1.1357   -0.8775    4.3842 H   0  0  0  0  0  0  0  0  0  0  0  0
    0.6950   -1.6003    0.8178 N   0  0  0  0  0  0  0  0  0  0  0  0
    0.8777   -2.0908   -0.5246 C   0  0  2  0  0  0  0  0  0  0  0  0
   -0.4157   -2.7793   -0.9422 C   0  0  0  0  0  0  0  0  0  0  0  0
   -1.3232   -2.2005   -1.5361 O   0  0  0  0  0  0  0  0  0  0  0  0
    2.0580   -3.0575   -0.6219 C   0  0  0  0  0  0  0  0  0  0  0  0
    3.4042   -2.3758   -0.4511 C   0  0  0  0  0  0  0  0  0  0  0  0
    3.6976   -1.2963   -0.9561 O   0  0  0  0  0  0  0  0  0  0  0  0
    4.2626   -3.1061    0.3433 N   0  0  0  0  0  0  0  0  0  0  0  0
    1.1810   -2.0803    1.5718 H   0  0  0  0  0  0  0  0  0  0  0  0
    1.0340   -1.2113   -1.1600 H   0  0  0  0  0  0  0  0  0  0  0  0
    1.9849   -3.8259    0.1581 H   0  0  0  0  0  0  0  0  0  0  0  0
    2.0512   -3.5772   -1.5887 H   0  0  0  0  0  0  0  0  0  0  0  0
    3.9757   -3.9932    0.7433 H   0  0  0  0  0  0  0  0  0  0  0  0
    5.2035   -2.7916    0.5580 H   0  0  0  0  0  0  0  0  0  0  0  0
   -0.4193   -4.1290   -0.6192 N   0  0  0  0  0  0  0  0  0  0  0  0
   -1.5310   -4.9909   -0.9423 C   0  0  2  0  0  0  0  0  0  0  0  0
   -1.7487   -4.9331   -2.4485 C   0  0  0  0  0  0  0  0  0  0  0  0
   -1.3656   -3.9963   -3.1462 O   0  0  0  0  0  0  0  0  0  0  0  0
   -2.7886   -4.5754   -0.1949 C   0  0  0  0  0  0  0  0  0  0  0  0
    0.3829   -4.5362   -0.1476 H   0  0  0  0  0  0  0  0  0  0  0  0
   -1.2383   -6.0063   -0.6537 H   0  0  0  0  0  0  0  0  0  0  0  0
   -3.0973   -3.5605   -0.4711 H   0  0  0  0  0  0  0  0  0  0  0  0
   -3.6236   -5.2473   -0.4191 H   0  0  0  0  0  0  0  0  0  0  0  0
   -2.6212   -4.5888    0.8875 H   0  0  0  0  0  0  0  0  0  0  0  0
   -2.4591   -6.0300   -2.9156 N   0  0  0  0  0  0  0  0  0  0  0  0
   -2.8036   -6.2005   -4.3078 C   0  0  0  0  0  0  0  0  0  0  0  0
   -2.7203   -6.7685   -2.2689 H   0  0  0  0  0  0  0  0  0  0  0  0
   -3.8009   -5.7752   -4.4940 H   0  0  0  0  0  0  0  0  0  0  0  0
   -2.0620   -5.6840   -4.9348 H   0  0  0  0  0  0  0  0  0  0  0  0
   -2.8102   -7.2723   -4.5552 H   0  0  0  0  0  0  0  0  0  0  0  0
  1  3  1  0  0  0  0
  1  7  1  0  0  0  0
  1  2  2  0  0  0  0
 21 22  1  0  0  0  0
 22 24  1  0  0  0  0
 22 23  2  0  0  0  0
 32 33  1  0  0  0  0
 33 41  1  0  0  0  0
 33 34  2  0  0  0  0
  8  9  1  0  0  0  0
  9 17  1  0  0  0  0
  9 10  2  0  0  0  0
 18 19  1  0  0  0  0
 19 31  1  0  0  0  0
 19 20  2  0  0  0  0
 32 35  1  0  0  0  0
  8 11  1  0  0  0  0
 41 42  1  0  0  0  0
 18 21  1  0  0  0  0
 31 32  1  0  0  0  0
  7  8  1  0  0  0  0
 17 18  1  0  0  0  0
  3  4  1  0  0  0  0
  3  5  1  0  0  0  0
  3  6  1  0  0  0  0
 35 38  1  0  0  0  0
 35 39  1  0  0  0  0
 35 40  1  0  0  0  0
 11 14  1  0  0  0  0
 11 15  1  0  0  0  0
 11 16  1  0  0  0  0
 42 44  1  0  0  0  0
 42 45  1  0  0  0  0
 42 46  1  0  0  0  0
 21 27  1  0  0  0  0
 21 28  1  0  0  0  0
 32 37  1  0  0  0  0
  8 13  1  0  0  0  0
 18 26  1  0  0  0  0
 24 29  1  0  0  0  0
 24 30  1  0  0  0  0
 41 43  1  0  0  0  0
  7 12  1  0  0  0  0
 31 36  1  0  0  0  0
 17 25  1  0  0  0  0
M  END
$$$$

  -OEChem-05262214473D

 46 45  0     1  0  0  0  0  0999 V2000
   -0.0543    1.9736    3.8406 C   0  0  0  0  0  0  0  0  0  0  0  0
    0.6744    1.6099    4.7562 O   0  0  0  0  0  0  0  0  0  0  0  0
   -0.5599    3.3779    3.8160 C   0  0  0  0  0  0  0  0  0  0  0  0
   -1.5202    3.4885    4.3450 H   0  0  0  0  0  0  0  0  0  0  0  0
    0.1282    4.0814    4.3116 H   0  0  0  0  0  0  0  0  0  0  0  0
   -0.7317    3.7994    2.8126 H   0  0  0  0  0  0  0  0  0  0  0  0
   -0.4812    1.1968    2.7762 N   0  0  0  0  0  0  0  0  0  0  0  0
   -0.1106   -0.1834    2.6051 C   0  0  2  0  0  0  0  0  0  0  0  0
   -0.0696   -0.4775    1.1113 C   0  0  0  0  0  0  0  0  0  0  0  0
   -0.6805    0.1900    0.2792 O   0  0  0  0  0  0  0  0  0  0  0  0
   -1.0852   -1.1101    3.3150 C   0  0  0  0  0  0  0  0  0  0  0  0
   -1.0883    1.6241    2.0791 H   0  0  0  0  0  0  0  0  0  0  0  0
    0.8937   -0.2959    3.0277 H   0  0  0  0  0  0  0  0  0  0  0  0
   -2.0970   -1.0114    2.9051 H   0  0  0  0  0  0  0  0  0  0  0  0
   -0.7860   -2.1580    3.2078 H   0  0  0  0  0  0  0  0  0  0  0  0
   -1.1357   -0.8775    4.3842 H   0  0  0  0  0  0  0  0  0  0  0  0
    0.6950   -1.6003    0.8178 N   0  0  0  0  0  0  0  0  0  0  0  0
    0.8777   -2.0908   -0.5246 C   0  0  2  0  0  0  0  0  0  0  0  0
   -0.4157   -2.7793   -0.9422 C   0  0  0  0  0  0  0  0  0  0  0  0
   -1.2012   -2.2967   -1.7555 O   0  0  0  0  0  0  0  0  0  0  0  0
    2.0580   -3.0575   -0.6219 C   0  0  0  0  0  0  0  0  0  0  0  0
    3.4042   -2.3758   -0.4511 C   0  0  0  0  0  0  0  0  0  0  0  0
    3.6976   -1.2963   -0.9561 O   0  0  0  0  0  0  0  0  0  0  0  0
    4.2626   -3.1061    0.3433 N   0  0  0  0  0  0  0  0  0  0  0  0
    1.1810   -2.0803    1.5718 H   0  0  0  0  0  0  0  0  0  0  0  0
    1.0340   -1.2113   -1.1600 H   0  0  0  0  0  0  0  0  0  0  0  0
    1.9849   -3.8259    0.1581 H   0  0  0  0  0  0  0  0  0  0  0  0
    2.0512   -3.5772   -1.5887 H   0  0  0  0  0  0  0  0  0  0  0  0
    3.9757   -3.9932    0.7433 H   0  0  0  0  0  0  0  0  0  0  0  0
    5.2035   -2.7916    0.5580 H   0  0  0  0  0  0  0  0  0  0  0  0
   -0.5679   -4.0199   -0.3390 N   0  0  0  0  0  0  0  0  0  0  0  0
   -1.7062   -4.8664   -0.6050 C   0  0  2  0  0  0  0  0  0  0  0  0
   -1.7528   -5.1349   -2.1034 C   0  0  0  0  0  0  0  0  0  0  0  0
   -1.2185   -4.4019   -2.9331 O   0  0  0  0  0  0  0  0  0  0  0  0
   -2.9984   -4.2220   -0.1278 C   0  0  0  0  0  0  0  0  0  0  0  0
    0.1411   -4.3569    0.3057 H   0  0  0  0  0  0  0  0  0  0  0  0
   -1.5330   -5.8066   -0.0701 H   0  0  0  0  0  0  0  0  0  0  0  0
   -3.1888   -3.2786   -0.6525 H   0  0  0  0  0  0  0  0  0  0  0  0
   -3.8575   -4.8776   -0.3044 H   0  0  0  0  0  0  0  0  0  0  0  0
   -2.9517   -4.0024    0.9443 H   0  0  0  0  0  0  0  0  0  0  0  0
   -2.4976   -6.2655   -2.4081 N   0  0  0  0  0  0  0  0  0  0  0  0
   -2.7014   -6.7232   -3.7628 C   0  0  0  0  0  0  0  0  0  0  0  0
   -2.8889   -6.8240   -1.6553 H   0  0  0  0  0  0  0  0  0  0  0  0
   -3.6331   -6.2935   -4.1593 H   0  0  0  0  0  0  0  0  0  0  0  0
   -1.8550   -6.4041   -4.3887 H   0  0  0  0  0  0  0  0  0  0  0  0
   -2.7709   -7.8210   -3.7722 H   0  0  0  0  0  0  0  0  0  0  0  0
  1  3  1  0  0  0  0
  1  7  1  0  0  0  0
  1  2  2  0  0  0  0
 21 22  1  0  0  0  0
 22 24  1  0  0  0  0
 22 23  2  0  0  0  0
 32 33  1  0  0  0  0
 33 41  1  0  0  0  0
 33 34  2  0  0  0  0
  8  9  1  0  0  0  0
  9 17  1  0  0  0  0
  9 10  2  0  0  0  0
 18 19  1  0  0  0  0
 19 31  1  0  0  0  0
 19 20  2  0  0  0  0
 32 35  1  0  0  0  0
  8 11  1  0  0  0  0
 41 42  1  0  0  0  0
 18 21  1  0  0  0  0
 31 32  1  0  0  0  0
  7  8  1  0  0  0  0
 17 18  1  0  0  0  0
  3  4  1  0  0  0  0
  3  5  1  0  0  0  0
  3  6  1  0  0  0  0
 35 38  1  0  0  0  0
 35 39  1  0  0  0  0
 35 40  1  0  0  0  0
 11 14  1  0  0  0  0
 11 15  1  0  0  0  0
 11 16  1  0  0  0  0
 42 44  1  0  0  0  0
 42 45  1  0  0  0  0
 42 46  1  0  0  0  0
 21 27  1  0  0  0  0
 21 28  1  0  0  0  0
 32 37  1  0  0  0  0
  8 13  1  0  0  0  0
 18 26  1  0  0  0  0
 24 29  1  0  0  0  0
 24 30  1  0  0  0  0
 41 43  1  0  0  0  0
  7 12  1  0  0  0  0
 31 36  1  0  0  0  0
 17 25  1  0  0  0  0
M  END
$$$$

  -OEChem-05262214473D

 46 45  0     1  0  0  0  0  0999 V2000
   -0.0543    1.9736    3.8406 C   0  0  0  0  0  0  0  0  0  0  0  0
    0.6744    1.6099    4.7562 O   0  0  0  0  0  0  0  0  0  0  0  0
   -0.5599    3.3779    3.8160 C   0  0  0  0  0  0  0  0  0  0  0  0
   -1.5202    3.4885    4.3450 H   0  0  0  0  0  0  0  0  0  0  0  0
    0.1282    4.0814    4.3116 H   0  0  0  0  0  0  0  0  0  0  0  0
   -0.7317    3.7994    2.8126 H   0  0  0  0  0  0  0  0  0  0  0  0
   -0.4812    1.1968    2.7762 N   0  0  0  0  0  0  0  0  0  0  0  0
   -0.1106   -0.1834    2.6051 C   0  0  2  0  0  0  0  0  0  0  0  0
   -0.0696   -0.4775    1.1113 C   0  0  0  0  0  0  0  0  0  0  0  0
   -0.6805    0.1900    0.2792 O   0  0  0  0  0  0  0  0  0  0  0  0
   -1.0852   -1.1101    3.3150 C   0  0  0  0  0  0  0  0  0  0  0  0
   -1.0883    1.6241    2.0791 H   0  0  0  0  0  0  0  0  0  0  0  0
    0.8937   -0.2959    3.0277 H   0  0  0  0  0  0  0  0  0  0  0  0
   -2.0970   -1.0114    2.9051 H   0  0  0  0  0  0  0  0  0  0  0  0
   -0.7860   -2.1580    3.2078 H   0  0  0  0  0  0  0  0  0  0  0  0
   -1.1357   -0.8775    4.3842 H   0  0  0  0  0  0  0  0  0  0  0  0
    0.6950   -1.6003    0.8178 N   0  0  0  0  0  0  0  0  0  0  0  0
    0.8777   -2.0908   -0.5246 C   0  0  2  0  0  0  0  0  0  0  0  0
   -0.4157   -2.7793   -0.9422 C   0  0  0  0  0  0  0  0  0  0  0  0
   -1.0645   -2.4465   -1.9320 O   0  0  0  0  0  0  0  0  0  0  0  0
    2.0580   -3.0575   -0.6219 C   0  0  0  0  0  0  0  0  0  0  0  0
    3.4042   -2.3758   -0.4511 C   0  0  0  0  0  0  0  0  0  0  0  0
    3.6976   -1.2963   -0.9561 O   0  0  0  0  0  0  0  0  0  0  0  0
    4.2626   -3.1061    0.3433 N   0  0  0  0  0  0  0  0  0  0  0  0
    1.1810   -2.0803    1.5718 H   0  0  0  0  0  0  0  0  0  0  0  0
    1.0340   -1.2113   -1.1600 H   0  0  0  0  0  0  0  0  0  0  0  0
    1.9849   -3.8259    0.1581 H   0  0  0  0  0  0  0  0  0  0  0  0
    2.0512   -3.5772   -1.5887 H   0  0  0  0  0  0  0  0  0  0  0  0
    3.9757   -3.9932    0.7433 H   0  0  0  0  0  0  0  0  0  0  0  0
    5.2035   -2.7916    0.5580 H   0  0  0  0  0  0  0  0  0  0  0  0
   -0.7364   -3.8424   -0.1097 N   0  0  0  0  0  0  0  0  0  0  0  0
   -1.9060   -4.6596   -0.3271 C   0  0  2  0  0  0  0  0  0  0  0  0
   -1.8113   -5.2536   -1.7262 C   0  0  0  0  0  0  0  0  0  0  0  0
   -1.1301   -4.7573   -2.6210 O   0  0  0  0  0  0  0  0  0  0  0  0
   -3.1838   -3.8511   -0.1652 C   0  0  0  0  0  0  0  0  0  0  0  0
   -0.1329   -4.0669    0.6759 H   0  0  0  0  0  0  0  0  0  0  0  0
   -1.8718   -5.4646    0.4152 H   0  0  0  0  0  0  0  0  0  0  0  0
   -3.2359   -3.0398   -0.9004 H   0  0  0  0  0  0  0  0  0  0  0  0
   -4.0706   -4.4787   -0.3022 H   0  0  0  0  0  0  0  0  0  0  0  0
   -3.2360   -3.4001    0.8316 H   0  0  0  0  0  0  0  0  0  0  0  0
   -2.6109   -6.3788   -1.8707 N   0  0  0  0  0  0  0  0  0  0  0  0
   -2.7034   -7.1156   -3.1095 C   0  0  0  0  0  0  0  0  0  0  0  0
   -3.1274   -6.7309   -1.0701 H   0  0  0  0  0  0  0  0  0  0  0  0
   -3.5469   -6.7324   -3.7025 H   0  0  0  0  0  0  0  0  0  0  0  0
   -1.7700   -6.9943   -3.6787 H   0  0  0  0  0  0  0  0  0  0  0  0
   -2.8635   -8.1817   -2.8908 H   0  0  0  0  0  0  0  0  0  0  0  0
  1  3  1  0  0  0  0
  1  7  1  0  0  0  0
  1  2  2  0  0  0  0
 21 22  1  0  0  0  0
 22 24  1  0  0  0  0
 22 23  2  0  0  0  0
 32 33  1  0  0  0  0
 33 41  1  0  0  0  0
 33 34  2  0  0  0  0
  8  9  1  0  0  0  0
  9 17  1  0  0  0  0
  9 10  2  0  0  0  0
 18 19  1  0  0  0  0
 19 31  1  0  0  0  0
 19 20  2  0  0  0  0
 32 35  1  0  0  0  0
  8 11  1  0  0  0  0
 41 42  1  0  0  0  0
 18 21  1  0  0  0  0
 31 32  1  0  0  0  0
  7  8  1  0  0  0  0
 17 18  1  0  0  0  0
  3  4  1  0  0  0  0
  3  5  1  0  0  0  0
  3  6  1  0  0  0  0
 35 38  1  0  0  0  0
 35 39  1  0  0  0  0
 35 40  1  0  0  0  0
 11 14  1  0  0  0  0
 11 15  1  0  0  0  0
 11 16  1  0  0  0  0
 42 44  1  0  0  0  0
 42 45  1  0  0  0  0
 42 46  1  0  0  0  0
 21 27  1  0  0  0  0
 21 28  1  0  0  0  0
 32 37  1  0  0  0  0
  8 13  1  0  0  0  0
 18 26  1  0  0  0  0
 24 29  1  0  0  0  0
 24 30  1  0  0  0  0
 41 43  1  0  0  0  0
  7 12  1  0  0  0  0
 31 36  1  0  0  0  0
 17 25  1  0  0  0  0
M  END
$$$$

  -OEChem-05262214473D

 46 45  0     1  0  0  0  0  0999 V2000
   -0.0543    1.9736    3.8406 C   0  0  0  0  0  0  0  0  0  0  0  0
    0.6744    1.6099    4.7562 O   0  0  0  0  0  0  0  0  0  0  0  0
   -0.5599    3.3779    3.8160 C   0  0  0  0  0  0  0  0  0  0  0  0
   -1.5202    3.4885    4.3450 H   0  0  0  0  0  0  0  0  0  0  0  0
    0.1282    4.0814    4.3116 H   0  0  0  0  0  0  0  0  0  0  0  0
   -0.7317    3.7994    2.8126 H   0  0  0  0  0  0  0  0  0  0  0  0
   -0.4812    1.1968    2.7762 N   0  0  0  0  0  0  0  0  0  0  0  0
   -0.1106   -0.1834    2.6051 C   0  0  2  0  0  0  0  0  0  0  0  0
   -0.0696   -0.4775    1.1113 C   0  0  0  0  0  0  0  0  0  0  0  0
   -0.6805    0.1900    0.2792 O   0  0  0  0  0  0  0  0  0  0  0  0
   -1.0852   -1.1101    3.3150 C   0  0  0  0  0  0  0  0  0  0  0  0
   -1.0883    1.6241    2.0791 H   0  0  0  0  0  0  0  0  0  0  0  0
    0.8937   -0.2959    3.0277 H   0  0  0  0  0  0  0  0  0  0  0  0
   -2.0970   -1.0114    2.9051 H   0  0  0  0  0  0  0  0  0  0  0  0
   -0.7860   -2.1580    3.2078 H   0  0  0  0  0  0  0  0  0  0  0  0
   -1.1357   -0.8775    4.3842 H   0  0  0  0  0  0  0  0  0  0  0  0
    0.6950   -1.6003    0.8178 N   0  0  0  0  0  0  0  0  0  0  0  0
    0.8777   -2.0908   -0.5246 C   0  0  2  0  0  0  0  0  0  0  0  0
   -0.4157   -2.7793   -0.9422 C   0  0  0  0  0  0  0  0  0  0  0  0
   -0.9224   -2.6396   -2.0536 O   0  0  0  0  0  0  0  0  0  0  0  0
    2.0580   -3.0575   -0.6219 C   0  0  0  0  0  0  0  0  0  0  0  0
    3.4042   -2.3758   -0.4511 C   0  0  0  0  0  0  0  0  0  0  0  0
    3.6976   -1.2963   -0.9561 O   0  0  0  0  0  0  0  0  0  0  0  0
    4.2626   -3.1061    0.3433 N   0  0  0  0  0  0  0  0  0  0  0  0
    1.1810   -2.0803    1.5718 H   0  0  0  0  0  0  0  0  0  0  0  0
    1.0340   -1.2113   -1.1600 H   0  0  0  0  0  0  0  0  0  0  0  0
    1.9849   -3.8259    0.1581 H   0  0  0  0  0  0  0  0  0  0  0  0
    2.0512   -3.5772   -1.5887 H   0  0  0  0  0  0  0  0  0  0  0  0
    3.9757   -3.9932    0.7433 H   0  0  0  0  0  0  0  0  0  0  0  0
    5.2035   -2.7916    0.5580 H   0  0  0  0  0  0  0  0  0  0  0  0
   -0.9134   -3.6086    0.0531 N   0  0  0  0  0  0  0  0  0  0  0  0
   -2.1169   -4.3846   -0.1274 C   0  0  2  0  0  0  0  0  0  0  0  0
   -1.9204   -5.2814   -1.3426 C   0  0  0  0  0  0  0  0  0  0  0  0
   -1.1064   -5.0383   -2.2311 O   0  0  0  0  0  0  0  0  0  0  0  0
   -3.3322   -3.4878   -0.3045 C   0  0  0  0  0  0  0  0  0  0  0  0
   -0.4201   -3.6860    0.9376 H   0  0  0  0  0  0  0  0  0  0  0  0
   -2.2316   -5.0035    0.7692 H   0  0  0  0  0  0  0  0  0  0  0  0
   -3.2355   -2.8601   -1.1979 H   0  0  0  0  0  0  0  0  0  0  0  0
   -4.2483   -4.0778   -0.4127 H   0  0  0  0  0  0  0  0  0  0  0  0
   -3.4547   -2.8228    0.5573 H   0  0  0  0  0  0  0  0  0  0  0  0
   -2.7911   -6.3621   -1.3400 N   0  0  0  0  0  0  0  0  0  0  0  0
   -2.8096   -7.3510   -2.3925 C   0  0  0  0  0  0  0  0  0  0  0  0
   -3.4196   -6.4955   -0.5532 H   0  0  0  0  0  0  0  0  0  0  0  0
   -3.5482   -7.0621   -3.1547 H   0  0  0  0  0  0  0  0  0  0  0  0
   -1.8129   -7.4144   -2.8534 H   0  0  0  0  0  0  0  0  0  0  0  0
   -3.0816   -8.3299   -1.9709 H   0  0  0  0  0  0  0  0  0  0  0  0
  1  3  1  0  0  0  0
  1  7  1  0  0  0  0
  1  2  2  0  0  0  0
 21 22  1  0  0  0  0
 22 24  1  0  0  0  0
 22 23  2  0  0  0  0
 32 33  1  0  0  0  0
 33 41  1  0  0  0  0
 33 34  2  0  0  0  0
  8  9  1  0  0  0  0
  9 17  1  0  0  0  0
  9 10  2  0  0  0  0
 18 19  1  0  0  0  0
 19 31  1  0  0  0  0
 19 20  2  0  0  0  0
 32 35  1  0  0  0  0
  8 11  1  0  0  0  0
 41 42  1  0  0  0  0
 18 21  1  0  0  0  0
 31 32  1  0  0  0  0
  7  8  1  0  0  0  0
 17 18  1  0  0  0  0
  3  4  1  0  0  0  0
  3  5  1  0  0  0  0
  3  6  1  0  0  0  0
 35 38  1  0  0  0  0
 35 39  1  0  0  0  0
 35 40  1  0  0  0  0
 11 14  1  0  0  0  0
 11 15  1  0  0  0  0
 11 16  1  0  0  0  0
 42 44  1  0  0  0  0
 42 45  1  0  0  0  0
 42 46  1  0  0  0  0
 21 27  1  0  0  0  0
 21 28  1  0  0  0  0
 32 37  1  0  0  0  0
  8 13  1  0  0  0  0
 18 26  1  0  0  0  0
 24 29  1  0  0  0  0
 24 30  1  0  0  0  0
 41 43  1  0  0  0  0
  7 12  1  0  0  0  0
 31 36  1  0  0  0  0
 17 25  1  0  0  0  0
M  END
$$$$

  -OEChem-05262214473D

 46 45  0     1  0  0  0  0  0999 V2000
   -0.0543    1.9736    3.8406 C   0  0  0  0  0  0  0  0  0  0  0  0
    0.6744    1.6099    4.7562 O   0  0  0  0  0  0  0  0  0  0  0  0
   -0.5599    3.3779    3.8160 C   0  0  0  0  0  0  0  0  0  0  0  0
   -1.5202    3.4885    4.3450 H   0  0  0  0  0  0  0  0  0  0  0  0
    0.1282    4.0814    4.3116 H   0  0  0  0  0  0  0  0  0  0  0  0
   -0.7317    3.7994    2.8126 H   0  0  0  0  0  0  0  0  0  0  0  0
   -0.4812    1.1968    2.7762 N   0  0  0  0  0  0  0  0  0  0  0  0
   -0.1106   -0.1834    2.6051 C   0  0  2  0  0  0  0  0  0  0  0  0
   -0.0696   -0.4775    1.1113 C   0  0  0  0  0  0  0  0  0  0  0  0
   -0.6805    0.1900    0.2792 O   0  0  0  0  0  0  0  0  0  0  0  0
   -1.0852   -1.1101    3.3150 C   0  0  0  0  0  0  0  0  0  0  0  0
   -1.0883    1.6241    2.0791 H   0  0  0  0  0  0  0  0  0  0  0  0
    0.8937   -0.2959    3.0277 H   0  0  0  0  0  0  0  0  0  0  0  0
   -2.0970   -1.0114    2.9051 H   0  0  0  0  0  0  0  0  0  0  0  0
   -0.7860   -2.1580    3.2078 H   0  0  0  0  0  0  0  0  0  0  0  0
   -1.1357   -0.8775    4.3842 H   0  0  0  0  0  0  0  0  0  0  0  0
    0.6950   -1.6003    0.8178 N   0  0  0  0  0  0  0  0  0  0  0  0
    0.8777   -2.0908   -0.5246 C   0  0  2  0  0  0  0  0  0  0  0  0
   -0.4157   -2.7793   -0.9422 C   0  0  0  0  0  0  0  0  0  0  0  0
   -0.7847   -2.8629   -2.1119 O   0  0  0  0  0  0  0  0  0  0  0  0
    2.0580   -3.0575   -0.6219 C   0  0  0  0  0  0  0  0  0  0  0  0
    3.4042   -2.3758   -0.4511 C   0  0  0  0  0  0  0  0  0  0  0  0
    3.6976   -1.2963   -0.9561 O   0  0  0  0  0  0  0  0  0  0  0  0
    4.2626   -3.1061    0.3433 N   0  0  0  0  0  0  0  0  0  0  0  0
    1.1810   -2.0803    1.5718 H   0  0  0  0  0  0  0  0  0  0  0  0
    1.0340   -1.2113   -1.1600 H   0  0  0  0  0  0  0  0  0  0  0  0
    1.9849   -3.8259    0.1581 H   0  0  0  0  0  0  0  0  0  0  0  0
    2.0512   -3.5772   -1.5887 H   0  0  0  0  0  0  0  0  0  0  0  0
    3.9757   -3.9932    0.7433 H   0  0  0  0  0  0  0  0  0  0  0  0
    5.2035   -2.7916    0.5580 H   0  0  0  0  0  0  0  0  0  0  0  0
   -1.0869   -3.3344    0.1383 N   0  0  0  0  0  0  0  0  0  0  0  0
   -2.3244   -4.0602   -0.0196 C   0  0  2  0  0  0  0  0  0  0  0  0
   -2.0726   -5.2161   -0.9788 C   0  0  0  0  0  0  0  0  0  0  0  0
   -1.1490   -5.2257   -1.7899 O   0  0  0  0  0  0  0  0  0  0  0  0
   -3.4335   -3.1570   -0.5361 C   0  0  0  0  0  0  0  0  0  0  0  0
   -0.7012   -3.2402    1.0732 H   0  0  0  0  0  0  0  0  0  0  0  0
   -2.5877   -4.4549    0.9677 H   0  0  0  0  0  0  0  0  0  0  0  0
   -3.1876   -2.7520   -1.5246 H   0  0  0  0  0  0  0  0  0  0  0  0
   -4.3787   -3.7022   -0.6282 H   0  0  0  0  0  0  0  0  0  0  0  0
   -3.5929   -2.3100    0.1398 H   0  0  0  0  0  0  0  0  0  0  0  0
   -3.0261   -6.2166   -0.8521 N   0  0  0  0  0  0  0  0  0  0  0  0
   -3.0128   -7.4132   -1.6606 C   0  0  0  0  0  0  0  0  0  0  0  0
   -3.7457   -6.1338   -0.1399 H   0  0  0  0  0  0  0  0  0  0  0  0
   -3.6370   -7.2602   -2.5533 H   0  0  0  0  0  0  0  0  0  0  0  0
   -1.9806   -7.6358   -1.9688 H   0  0  0  0  0  0  0  0  0  0  0  0
   -3.4104   -8.2555   -1.0754 H   0  0  0  0  0  0  0  0  0  0  0  0
  1  3  1  0  0  0  0
  1  7  1  0  0  0  0
  1  2  2  0  0  0  0
 21 22  1  0  0  0  0
 22 24  1  0  0  0  0
 22 23  2  0  0  0  0
 32 33  1  0  0  0  0
 33 41  1  0  0  0  0
 33 34  2  0  0  0  0
  8  9  1  0  0  0  0
  9 17  1  0  0  0  0
  9 10  2  0  0  0  0
 18 19  1  0  0  0  0
 19 31  1  0  0  0  0
 19 20  2  0  0  0  0
 32 35  1  0  0  0  0
  8 11  1  0  0  0  0
 41 42  1  0  0  0  0
 18 21  1  0  0  0  0
 31 32  1  0  0  0  0
  7  8  1  0  0  0  0
 17 18  1  0  0  0  0
  3  4  1  0  0  0  0
  3  5  1  0  0  0  0
  3  6  1  0  0  0  0
 35 38  1  0  0  0  0
 35 39  1  0  0  0  0
 35 40  1  0  0  0  0
 11 14  1  0  0  0  0
 11 15  1  0  0  0  0
 11 16  1  0  0  0  0
 42 44  1  0  0  0  0
 42 45  1  0  0  0  0
 42 46  1  0  0  0  0
 21 27  1  0  0  0  0
 21 28  1  0  0  0  0
 32 37  1  0  0  0  0
  8 13  1  0  0  0  0
 18 26  1  0  0  0  0
 24 29  1  0  0  0  0
 24 30  1  0  0  0  0
 41 43  1  0  0  0  0
  7 12  1  0  0  0  0
 31 36  1  0  0  0  0
 17 25  1  0  0  0  0
M  END
$$$$

  -OEChem-05262214473D

 46 45  0     1  0  0  0  0  0999 V2000
   -0.0543    1.9736    3.8406 C   0  0  0  0  0  0  0  0  0  0  0  0
    0.6744    1.6099    4.7562 O   0  0  0  0  0  0  0  0  0  0  0  0
   -0.5599    3.3779    3.8160 C   0  0  0  0  0  0  0  0  0  0  0  0
   -1.5202    3.4885    4.3450 H   0  0  0  0  0  0  0  0  0  0  0  0
    0.1282    4.0814    4.3116 H   0  0  0  0  0  0  0  0  0  0  0  0
   -0.7317    3.7994    2.8126 H   0  0  0  0  0  0  0  0  0  0  0  0
   -0.4812    1.1968    2.7762 N   0  0  0  0  0  0  0  0  0  0  0  0
   -0.1106   -0.1834    2.6051 C   0  0  2  0  0  0  0  0  0  0  0  0
   -0.0696   -0.4775    1.1113 C   0  0  0  0  0  0  0  0  0  0  0  0
   -0.6805    0.1900    0.2792 O   0  0  0  0  0  0  0  0  0  0  0  0
   -1.0852   -1.1101    3.3150 C   0  0  0  0  0  0  0  0  0  0  0  0
   -1.0883    1.6241    2.0791 H   0  0  0  0  0  0  0  0  0  0  0  0
    0.8937   -0.2959    3.0277 H   0  0  0  0  0  0  0  0  0  0  0  0
   -2.0970   -1.0114    2.9051 H   0  0  0  0  0  0  0  0  0  0  0  0
   -0.7860   -2.1580    3.2078 H   0  0  0  0  0  0  0  0  0  0  0  0
   -1.1357   -0.8775    4.3842 H   0  0  0  0  0  0  0  0  0  0  0  0
    0.6950   -1.6003    0.8178 N   0  0  0  0  0  0  0  0  0  0  0  0
    0.8777   -2.0908   -0.5246 C   0  0  2  0  0  0  0  0  0  0  0  0
   -0.4157   -2.7793   -0.9422 C   0  0  0  0  0  0  0  0  0  0  0  0
   -0.6606   -3.1012   -2.1031 O   0  0  0  0  0  0  0  0  0  0  0  0
    2.0580   -3.0575   -0.6219 C   0  0  0  0  0  0  0  0  0  0  0  0
    3.4042   -2.3758   -0.4511 C   0  0  0  0  0  0  0  0  0  0  0  0
    3.6976   -1.2963   -0.9561 O   0  0  0  0  0  0  0  0  0  0  0  0
    4.2626   -3.1061    0.3433 N   0  0  0  0  0  0  0  0  0  0  0  0
    1.1810   -2.0803    1.5718 H   0  0  0  0  0  0  0  0  0  0  0  0
    1.0340   -1.2113   -1.1600 H   0  0  0  0  0  0  0  0  0  0  0  0
    1.9849   -3.8259    0.1581 H   0  0  0  0  0  0  0  0  0  0  0  0
    2.0512   -3.5772   -1.5887 H   0  0  0  0  0  0  0  0  0  0  0  0
    3.9757   -3.9932    0.7433 H   0  0  0  0  0  0  0  0  0  0  0  0
    5.2035   -2.7916    0.5580 H   0  0  0  0  0  0  0  0  0  0  0  0
   -1.2449   -3.0386    0.1400 N   0  0  0  0  0  0  0  0  0  0  0  0
   -2.5144   -3.7084   -0.0111 C   0  0  2  0  0  0  0  0  0  0  0  0
   -2.2576   -5.0623   -0.6595 C   0  0  0  0  0  0  0  0  0  0  0  0
   -1.2552   -5.3067   -1.3277 O   0  0  0  0  0  0  0  0  0  0  0  0
   -3.4808   -2.8812   -0.8445 C   0  0  0  0  0  0  0  0  0  0  0  0
   -0.9570   -2.7598    1.0733 H   0  0  0  0  0  0  0  0  0  0  0  0
   -2.9161   -3.8561    0.9973 H   0  0  0  0  0  0  0  0  0  0  0  0
   -3.0954   -2.7228   -1.8583 H   0  0  0  0  0  0  0  0  0  0  0  0
   -4.4527   -3.3776   -0.9342 H   0  0  0  0  0  0  0  0  0  0  0  0
   -3.6412   -1.8965   -0.3923 H   0  0  0  0  0  0  0  0  0  0  0  0
   -3.2999   -5.9521   -0.4402 N   0  0  0  0  0  0  0  0  0  0  0  0
   -3.2990   -7.2982   -0.9638 C   0  0  0  0  0  0  0  0  0  0  0  0
   -4.0833   -5.6705    0.1418 H   0  0  0  0  0  0  0  0  0  0  0  0
   -3.8071   -7.3131   -1.9393 H   0  0  0  0  0  0  0  0  0  0  0  0
   -2.2618   -7.6435   -1.0854 H   0  0  0  0  0  0  0  0  0  0  0  0
   -3.8275   -7.9635   -0.2651 H   0  0  0  0  0  0  0  0  0  0  0  0
  1  3  1  0  0  0  0
  1  7  1  0  0  0  0
  1  2  2  0  0  0  0
 21 22  1  0  0  0  0
 22 24  1  0  0  0  0
 22 23  2  0  0  0  0
 32 33  1  0  0  0  0
 33 41  1  0  0  0  0
 33 34  2  0  0  0  0
  8  9  1  0  0  0  0
  9 17  1  0  0  0  0
  9 10  2  0  0  0  0
 18 19  1  0  0  0  0
 19 31  1  0  0  0  0
 19 20  2  0  0  0  0
 32 35  1  0  0  0  0
  8 11  1  0  0  0  0
 41 42  1  0  0  0  0
 18 21  1  0  0  0  0
 31 32  1  0  0  0  0
  7  8  1  0  0  0  0
 17 18  1  0  0  0  0
  3  4  1  0  0  0  0
  3  5  1  0  0  0  0
  3  6  1  0  0  0  0
 35 38  1  0  0  0  0
 35 39  1  0  0  0  0
 35 40  1  0  0  0  0
 11 14  1  0  0  0  0
 11 15  1  0  0  0  0
 11 16  1  0  0  0  0
 42 44  1  0  0  0  0
 42 45  1  0  0  0  0
 42 46  1  0  0  0  0
 21 27  1  0  0  0  0
 21 28  1  0  0  0  0
 32 37  1  0  0  0  0
  8 13  1  0  0  0  0
 18 26  1  0  0  0  0
 24 29  1  0  0  0  0
 24 30  1  0  0  0  0
 41 43  1  0  0  0  0
  7 12  1  0  0  0  0
 31 36  1  0  0  0  0
 17 25  1  0  0  0  0
M  END
$$$$

  -OEChem-05262214473D

 46 45  0     1  0  0  0  0  0999 V2000
   -0.0543    1.9736    3.8406 C   0  0  0  0  0  0  0  0  0  0  0  0
    0.6744    1.6099    4.7562 O   0  0  0  0  0  0  0  0  0  0  0  0
   -0.5599    3.3779    3.8160 C   0  0  0  0  0  0  0  0  0  0  0  0
   -1.5202    3.4885    4.3450 H   0  0  0  0  0  0  0  0  0  0  0  0
    0.1282    4.0814    4.3116 H   0  0  0  0  0  0  0  0  0  0  0  0
   -0.7317    3.7994    2.8126 H   0  0  0  0  0  0  0  0  0  0  0  0
   -0.4812    1.1968    2.7762 N   0  0  0  0  0  0  0  0  0  0  0  0
   -0.1106   -0.1834    2.6051 C   0  0  2  0  0  0  0  0  0  0  0  0
   -0.0696   -0.4775    1.1113 C   0  0  0  0  0  0  0  0  0  0  0  0
   -0.6805    0.1900    0.2792 O   0  0  0  0  0  0  0  0  0  0  0  0
   -1.0852   -1.1101    3.3150 C   0  0  0  0  0  0  0  0  0  0  0  0
   -1.0883    1.6241    2.0791 H   0  0  0  0  0  0  0  0  0  0  0  0
    0.8937   -0.2959    3.0277 H   0  0  0  0  0  0  0  0  0  0  0  0
   -2.0970   -1.0114    2.9051 H   0  0  0  0  0  0  0  0  0  0  0  0
   -0.7860   -2.1580    3.2078 H   0  0  0  0  0  0  0  0  0  0  0  0
   -1.1357   -0.8775    4.3842 H   0  0  0  0  0  0  0  0  0  0  0  0
    0.6950   -1.6003    0.8178 N   0  0  0  0  0  0  0  0  0  0  0  0
    0.8777   -2.0908   -0.5246 C   0  0  2  0  0  0  0  0  0  0  0  0
   -0.4157   -2.7793   -0.9422 C   0  0  0  0  0  0  0  0  0  0  0  0
   -0.5588   -3.3383   -2.0278 O   0  0  0  0  0  0  0  0  0  0  0  0
    2.0580   -3.0575   -0.6219 C   0  0  0  0  0  0  0  0  0  0  0  0
    3.4042   -2.3758   -0.4511 C   0  0  0  0  0  0  0  0  0  0  0  0
    3.6976   -1.2963   -0.9561 O   0  0  0  0  0  0  0  0  0  0  0  0
    4.2626   -3.1061    0.3433 N   0  0  0  0  0  0  0  0  0  0  0  0
    1.1810   -2.0803    1.5718 H   0  0  0  0  0  0  0  0  0  0  0  0
    1.0340   -1.2113   -1.1600 H   0  0  0  0  0  0  0  0  0  0  0  0
    1.9849   -3.8259    0.1581 H   0  0  0  0  0  0  0  0  0  0  0  0
    2.0512   -3.5772   -1.5887 H   0  0  0  0  0  0  0  0  0  0  0  0
    3.9757   -3.9932    0.7433 H   0  0  0  0  0  0  0  0  0  0  0  0
    5.2035   -2.7916    0.5580 H   0  0  0  0  0  0  0  0  0  0  0  0
   -1.3768   -2.7412    0.0582 N   0  0  0  0  0  0  0  0  0  0  0  0
   -2.6740   -3.3533   -0.1023 C   0  0  2  0  0  0  0  0  0  0  0  0
   -2.4627   -4.8305   -0.4065 C   0  0  0  0  0  0  0  0  0  0  0  0
   -1.4175   -5.2759   -0.8757 O   0  0  0  0  0  0  0  0  0  0  0  0
   -3.4708   -2.6792   -1.2084 C   0  0  0  0  0  0  0  0  0  0  0  0
   -1.1700   -2.2777    0.9380 H   0  0  0  0  0  0  0  0  0  0  0  0
   -3.1942   -3.2479    0.8560 H   0  0  0  0  0  0  0  0  0  0  0  0
   -2.9652   -2.7744   -2.1763 H   0  0  0  0  0  0  0  0  0  0  0  0
   -4.4654   -3.1259   -1.3098 H   0  0  0  0  0  0  0  0  0  0  0  0
   -3.5963   -1.6107   -1.0027 H   0  0  0  0  0  0  0  0  0  0  0  0
   -3.5937   -5.5868   -0.1326 N   0  0  0  0  0  0  0  0  0  0  0  0
   -3.6489   -7.0136   -0.3494 C   0  0  0  0  0  0  0  0  0  0  0  0
   -4.4094   -5.1371    0.2726 H   0  0  0  0  0  0  0  0  0  0  0  0
   -4.0470   -7.2172   -1.3545 H   0  0  0  0  0  0  0  0  0  0  0  0
   -2.6372   -7.4368   -0.2633 H   0  0  0  0  0  0  0  0  0  0  0  0
   -4.3043   -7.4739    0.4046 H   0  0  0  0  0  0  0  0  0  0  0  0
  1  3  1  0  0  0  0
  1  7  1  0  0  0  0
  1  2  2  0  0  0  0
 21 22  1  0  0  0  0
 22 24  1  0  0  0  0
 22 23  2  0  0  0  0
 32 33  1  0  0  0  0
 33 41  1  0  0  0  0
 33 34  2  0  0  0  0
  8  9  1  0  0  0  0
  9 17  1  0  0  0  0
  9 10  2  0  0  0  0
 18 19  1  0  0  0  0
 19 31  1  0  0  0  0
 19 20  2  0  0  0  0
 32 35  1  0  0  0  0
  8 11  1  0  0  0  0
 41 42  1  0  0  0  0
 18 21  1  0  0  0  0
 31 32  1  0  0  0  0
  7  8  1  0  0  0  0
 17 18  1  0  0  0  0
  3  4  1  0  0  0  0
  3  5  1  0  0  0  0
  3  6  1  0  0  0  0
 35 38  1  0  0  0  0
 35 39  1  0  0  0  0
 35 40  1  0  0  0  0
 11 14  1  0  0  0  0
 11 15  1  0  0  0  0
 11 16  1  0  0  0  0
 42 44  1  0  0  0  0
 42 45  1  0  0  0  0
 42 46  1  0  0  0  0
 21 27  1  0  0  0  0
 21 28  1  0  0  0  0
 32 37  1  0  0  0  0
  8 13  1  0  0  0  0
 18 26  1  0  0  0  0
 24 29  1  0  0  0  0
 24 30  1  0  0  0  0
 41 43  1  0  0  0  0
  7 12  1  0  0  0  0
 31 36  1  0  0  0  0
 17 25  1  0  0  0  0
M  END
$$$$

  -OEChem-05262214473D

 46 45  0     1  0  0  0  0  0999 V2000
   -0.0543    1.9736    3.8406 C   0  0  0  0  0  0  0  0  0  0  0  0
    0.6744    1.6099    4.7562 O   0  0  0  0  0  0  0  0  0  0  0  0
   -0.5599    3.3779    3.8160 C   0  0  0  0  0  0  0  0  0  0  0  0
   -1.5202    3.4885    4.3450 H   0  0  0  0  0  0  0  0  0  0  0  0
    0.1282    4.0814    4.3116 H   0  0  0  0  0  0  0  0  0  0  0  0
   -0.7317    3.7994    2.8126 H   0  0  0  0  0  0  0  0  0  0  0  0
   -0.4812    1.1968    2.7762 N   0  0  0  0  0  0  0  0  0  0  0  0
   -0.1106   -0.1834    2.6051 C   0  0  2  0  0  0  0  0  0  0  0  0
   -0.0696   -0.4775    1.1113 C   0  0  0  0  0  0  0  0  0  0  0  0
   -0.6805    0.1900    0.2792 O   0  0  0  0  0  0  0  0  0  0  0  0
   -1.0852   -1.1101    3.3150 C   0  0  0  0  0  0  0  0  0  0  0  0
   -1.0883    1.6241    2.0791 H   0  0  0  0  0  0  0  0  0  0  0  0
    0.8937   -0.2959    3.0277 H   0  0  0  0  0  0  0  0  0  0  0  0
   -2.0970   -1.0114    2.9051 H   0  0  0  0  0  0  0  0  0  0  0  0
   -0.7860   -2.1580    3.2078 H   0  0  0  0  0  0  0  0  0  0  0  0
   -1.1357   -0.8775    4.3842 H   0  0  0  0  0  0  0  0  0  0  0  0
    0.6950   -1.6003    0.8178 N   0  0  0  0  0  0  0  0  0  0  0  0
    0.8777   -2.0908   -0.5246 C   0  0  2  0  0  0  0  0  0  0  0  0
   -0.4157   -2.7793   -0.9422 C   0  0  0  0  0  0  0  0  0  0  0  0
   -0.4860   -3.5580   -1.8910 O   0  0  0  0  0  0  0  0  0  0  0  0
    2.0580   -3.0575   -0.6219 C   0  0  0  0  0  0  0  0  0  0  0  0
    3.4042   -2.3758   -0.4511 C   0  0  0  0  0  0  0  0  0  0  0  0
    3.6976   -1.2963   -0.9561 O   0  0  0  0  0  0  0  0  0  0  0  0
    4.2626   -3.1061    0.3433 N   0  0  0  0  0  0  0  0  0  0  0  0
    1.1810   -2.0803    1.5718 H   0  0  0  0  0  0  0  0  0  0  0  0
    1.0340   -1.2113   -1.1600 H   0  0  0  0  0  0  0  0  0  0  0  0
    1.9849   -3.8259    0.1581 H   0  0  0  0  0  0  0  0  0  0  0  0
    2.0512   -3.5772   -1.5887 H   0  0  0  0  0  0  0  0  0  0  0  0
    3.9757   -3.9932    0.7433 H   0  0  0  0  0  0  0  0  0  0  0  0
    5.2035   -2.7916    0.5580 H   0  0  0  0  0  0  0  0  0  0  0  0
   -1.4736   -2.4626   -0.1016 N   0  0  0  0  0  0  0  0  0  0  0  0
   -2.7923   -3.0189   -0.2872 C   0  0  2  0  0  0  0  0  0  0  0  0
   -2.6740   -4.5365   -0.2370 C   0  0  0  0  0  0  0  0  0  0  0  0
   -1.6249   -5.1354   -0.4649 O   0  0  0  0  0  0  0  0  0  0  0  0
   -3.4043   -2.5647   -1.6032 C   0  0  0  0  0  0  0  0  0  0  0  0
   -1.3257   -1.8266    0.6765 H   0  0  0  0  0  0  0  0  0  0  0  0
   -3.4032   -2.6717    0.5532 H   0  0  0  0  0  0  0  0  0  0  0  0
   -2.8060   -2.9033   -2.4569 H   0  0  0  0  0  0  0  0  0  0  0  0
   -4.4159   -2.9645   -1.7293 H   0  0  0  0  0  0  0  0  0  0  0  0
   -3.4613   -1.4718   -1.6499 H   0  0  0  0  0  0  0  0  0  0  0  0
   -3.8876   -5.1454    0.0499 N   0  0  0  0  0  0  0  0  0  0  0  0
   -4.0385   -6.5790    0.1405 C   0  0  0  0  0  0  0  0  0  0  0  0
   -4.7020   -4.5700    0.2436 H   0  0  0  0  0  0  0  0  0  0  0  0
   -4.3403   -6.9790   -0.8387 H   0  0  0  0  0  0  0  0  0  0  0  0
   -3.0814   -7.0300    0.4415 H   0  0  0  0  0  0  0  0  0  0  0  0
   -4.8086   -6.8200    0.8881 H   0  0  0  0  0  0  0  0  0  0  0  0
  1  3  1  0  0  0  0
  1  7  1  0  0  0  0
  1  2  2  0  0  0  0
 21 22  1  0  0  0  0
 22 24  1  0  0  0  0
 22 23  2  0  0  0  0
 32 33  1  0  0  0  0
 33 41  1  0  0  0  0
 33 34  2  0  0  0  0
  8  9  1  0  0  0  0
  9 17  1  0  0  0  0
  9 10  2  0  0  0  0
 18 19  1  0  0  0  0
 19 31  1  0  0  0  0
 19 20  2  0  0  0  0
 32 35  1  0  0  0  0
  8 11  1  0  0  0  0
 41 42  1  0  0  0  0
 18 21  1  0  0  0  0
 31 32  1  0  0  0  0
  7  8  1  0  0  0  0
 17 18  1  0  0  0  0
  3  4  1  0  0  0  0
  3  5  1  0  0  0  0
  3  6  1  0  0  0  0
 35 38  1  0  0  0  0
 35 39  1  0  0  0  0
 35 40  1  0  0  0  0
 11 14  1  0  0  0  0
 11 15  1  0  0  0  0
 11 16  1  0  0  0  0
 42 44  1  0  0  0  0
 42 45  1  0  0  0  0
 42 46  1  0  0  0  0
 21 27  1  0  0  0  0
 21 28  1  0  0  0  0
 32 37  1  0  0  0  0
  8 13  1  0  0  0  0
 18 26  1  0  0  0  0
 24 29  1  0  0  0  0
 24 30  1  0  0  0  0
 41 43  1  0  0  0  0
  7 12  1  0  0  0  0
 31 36  1  0  0  0  0
 17 25  1  0  0  0  0
M  END
$$$$

  -OEChem-05262214473D

 46 45  0     1  0  0  0  0  0999 V2000
   -0.0543    1.9736    3.8406 C   0  0  0  0  0  0  0  0  0  0  0  0
    0.6744    1.6099    4.7562 O   0  0  0  0  0  0  0  0  0  0  0  0
   -0.5599    3.3779    3.8160 C   0  0  0  0  0  0  0  0  0  0  0  0
   -1.5202    3.4885    4.3450 H   0  0  0  0  0  0  0  0  0  0  0  0
    0.1282    4.0814    4.3116 H   0  0  0  0  0  0  0  0  0  0  0  0
   -0.7317    3.7994    2.8126 H   0  0  0  0  0  0  0  0  0  0  0  0
   -0.4812    1.1968    2.7762 N   0  0  0  0  0  0  0  0  0  0  0  0
   -0.1106   -0.1834    2.6051 C   0  0  2  0  0  0  0  0  0  0  0  0
   -0.0696   -0.4775    1.1113 C   0  0  0  0  0  0  0  0  0  0  0  0
   -0.6805    0.1900    0.2792 O   0  0  0  0  0  0  0  0  0  0  0  0
   -1.0852   -1.1101    3.3150 C   0  0  0  0  0  0  0  0  0  0  0  0
   -1.0883    1.6241    2.0791 H   0  0  0  0  0  0  0  0  0  0  0  0
    0.8937   -0.2959    3.0277 H   0  0  0  0  0  0  0  0  0  0  0  0
   -2.0970   -1.0114    2.9051 H   0  0  0  0  0  0  0  0  0  0  0  0
   -0.7860   -2.1580    3.2078 H   0  0  0  0  0  0  0  0  0  0  0  0
   -1.1357   -0.8775    4.3842 H   0  0  0  0  0  0  0  0  0  0  0  0
    0.6950   -1.6003    0.8178 N   0  0  0  0  0  0  0  0  0  0  0  0
    0.8777   -2.0908   -0.5246 C   0  0  2  0  0  0  0  0  0  0  0  0
   -0.4157   -2.7793   -0.9422 C   0  0  0  0  0  0  0  0  0  0  0  0
   -0.4473   -3.7453   -1.7021 O   0  0  0  0  0  0  0  0  0  0  0  0
    2.0580   -3.0575   -0.6219 C   0  0  0  0  0  0  0  0  0  0  0  0
    3.4042   -2.3758   -0.4511 C   0  0  0  0  0  0  0  0  0  0  0  0
    3.6976   -1.2963   -0.9561 O   0  0  0  0  0  0  0  0  0  0  0  0
    4.2626   -3.1061    0.3433 N   0  0  0  0  0  0  0  0  0  0  0  0
    1.1810   -2.0803    1.5718 H   0  0  0  0  0  0  0  0  0  0  0  0
    1.0340   -1.2113   -1.1600 H   0  0  0  0  0  0  0  0  0  0  0  0
    1.9849   -3.8259    0.1581 H   0  0  0  0  0  0  0  0  0  0  0  0
    2.0512   -3.5772   -1.5887 H   0  0  0  0  0  0  0  0  0  0  0  0
    3.9757   -3.9932    0.7433 H   0  0  0  0  0  0  0  0  0  0  0  0
    5.2035   -2.7916    0.5580 H   0  0  0  0  0  0  0  0  0  0  0  0
   -1.5285   -2.2218   -0.3285 N   0  0  0  0  0  0  0  0  0  0  0  0
   -2.8613   -2.7282   -0.5530 C   0  0  2  0  0  0  0  0  0  0  0  0
   -2.8770   -4.2002   -0.1626 C   0  0  0  0  0  0  0  0  0  0  0  0
   -1.8634   -4.8946   -0.1233 O   0  0  0  0  0  0  0  0  0  0  0  0
   -3.2858   -2.5456   -2.0019 C   0  0  0  0  0  0  0  0  0  0  0  0
   -1.4135   -1.4373    0.3065 H   0  0  0  0  0  0  0  0  0  0  0  0
   -3.5288   -2.1669    0.1098 H   0  0  0  0  0  0  0  0  0  0  0  0
   -2.6285   -3.1008   -2.6810 H   0  0  0  0  0  0  0  0  0  0  0  0
   -4.3075   -2.9042   -2.1642 H   0  0  0  0  0  0  0  0  0  0  0  0
   -3.2453   -1.4895   -2.2897 H   0  0  0  0  0  0  0  0  0  0  0  0
   -4.1615   -4.6582    0.0949 N   0  0  0  0  0  0  0  0  0  0  0  0
   -4.4413   -6.0238    0.4727 C   0  0  0  0  0  0  0  0  0  0  0  0
   -4.9409   -4.0079    0.0567 H   0  0  0  0  0  0  0  0  0  0  0  0
   -4.6671   -6.6148   -0.4271 H   0  0  0  0  0  0  0  0  0  0  0  0
   -3.5640   -6.4506    0.9810 H   0  0  0  0  0  0  0  0  0  0  0  0
   -5.3058   -6.0463    1.1525 H   0  0  0  0  0  0  0  0  0  0  0  0
  1  3  1  0  0  0  0
  1  7  1  0  0  0  0
  1  2  2  0  0  0  0
 21 22  1  0  0  0  0
 22 24  1  0  0  0  0
 22 23  2  0  0  0  0
 32 33  1  0  0  0  0
 33 41  1  0  0  0  0
 33 34  2  0  0  0  0
  8  9  1  0  0  0  0
  9 17  1  0  0  0  0
  9 10  2  0  0  0  0
 18 19  1  0  0  0  0
 19 31  1  0  0  0  0
 19 20  2  0  0  0  0
 32 35  1  0  0  0  0
  8 11  1  0  0  0  0
 41 42  1  0  0  0  0
 18 21  1  0  0  0  0
 31 32  1  0  0  0  0
  7  8  1  0  0  0  0
 17 18  1  0  0  0  0
  3  4  1  0  0  0  0
  3  5  1  0  0  0  0
  3  6  1  0  0  0  0
 35 38  1  0  0  0  0
 35 39  1  0  0  0  0
 35 40  1  0  0  0  0
 11 14  1  0  0  0  0
 11 15  1  0  0  0  0
 11 16  1  0  0  0  0
 42 44  1  0  0  0  0
 42 45  1  0  0  0  0
 42 46  1  0  0  0  0
 21 27  1  0  0  0  0
 21 28  1  0  0  0  0
 32 37  1  0  0  0  0
  8 13  1  0  0  0  0
 18 26  1  0  0  0  0
 24 29  1  0  0  0  0
 24 30  1  0  0  0  0
 41 43  1  0  0  0  0
  7 12  1  0  0  0  0
 31 36  1  0  0  0  0
 17 25  1  0  0  0  0
M  END
$$$$

  -OEChem-05262214473D

 46 45  0     1  0  0  0  0  0999 V2000
   -0.0543    1.9736    3.8406 C   0  0  0  0  0  0  0  0  0  0  0  0
    0.6744    1.6099    4.7562 O   0  0  0  0  0  0  0  0  0  0  0  0
   -0.5599    3.3779    3.8160 C   0  0  0  0  0  0  0  0  0  0  0  0
   -1.5202    3.4885    4.3450 H   0  0  0  0  0  0  0  0  0  0  0  0
    0.1282    4.0814    4.3116 H   0  0  0  0  0  0  0  0  0  0  0  0
   -0.7317    3.7994    2.8126 H   0  0  0  0  0  0  0  0  0  0  0  0
   -0.4812    1.1968    2.7762 N   0  0  0  0  0  0  0  0  0  0  0  0
   -0.1106   -0.1834    2.6051 C   0  0  2  0  0  0  0  0  0  0  0  0
   -0.0696   -0.4775    1.1113 C   0  0  0  0  0  0  0  0  0  0  0  0
   -0.6805    0.1900    0.2792 O   0  0  0  0  0  0  0  0  0  0  0  0
   -1.0852   -1.1101    3.3150 C   0  0  0  0  0  0  0  0  0  0  0  0
   -1.0883    1.6241    2.0791 H   0  0  0  0  0  0  0  0  0  0  0  0
    0.8937   -0.2959    3.0277 H   0  0  0  0  0  0  0  0  0  0  0  0
   -2.0970   -1.0114    2.9051 H   0  0  0  0  0  0  0  0  0  0  0  0
   -0.7860   -2.1580    3.2078 H   0  0  0  0  0  0  0  0  0  0  0  0
   -1.1357   -0.8775    4.3842 H   0  0  0  0  0  0  0  0  0  0  0  0
    0.6950   -1.6003    0.8178 N   0  0  0  0  0  0  0  0  0  0  0  0
    0.8777   -2.0908   -0.5246 C   0  0  2  0  0  0  0  0  0  0  0  0
   -0.4157   -2.7793   -0.9422 C   0  0  0  0  0  0  0  0  0  0  0  0
   -0.4453   -3.8874   -1.4739 O   0  0  0  0  0  0  0  0  0  0  0  0
    2.0580   -3.0575   -0.6219 C   0  0  0  0  0  0  0  0  0  0  0  0
    3.4042   -2.3758   -0.4511 C   0  0  0  0  0  0  0  0  0  0  0  0
    3.6976   -1.2963   -0.9561 O   0  0  0  0  0  0  0  0  0  0  0  0
    4.2626   -3.1061    0.3433 N   0  0  0  0  0  0  0  0  0  0  0  0
    1.1810   -2.0803    1.5718 H   0  0  0  0  0  0  0  0  0  0  0  0
    1.0340   -1.2113   -1.1600 H   0  0  0  0  0  0  0  0  0  0  0  0
    1.9849   -3.8259    0.1581 H   0  0  0  0  0  0  0  0  0  0  0  0
    2.0512   -3.5772   -1.5887 H   0  0  0  0  0  0  0  0  0  0  0  0
    3.9757   -3.9932    0.7433 H   0  0  0  0  0  0  0  0  0  0  0  0
    5.2035   -2.7916    0.5580 H   0  0  0  0  0  0  0  0  0  0  0  0
   -1.5380   -2.0351   -0.6069 N   0  0  0  0  0  0  0  0  0  0  0  0
   -2.8761   -2.5009   -0.8817 C   0  0  2  0  0  0  0  0  0  0  0  0
   -3.0579   -3.8447   -0.1884 C   0  0  0  0  0  0  0  0  0  0  0  0
   -2.1166   -4.5701    0.1259 O   0  0  0  0  0  0  0  0  0  0  0  0
   -3.1232   -2.6231   -2.3773 C   0  0  0  0  0  0  0  0  0  0  0  0
   -1.4274   -1.1364   -0.1467 H   0  0  0  0  0  0  0  0  0  0  0  0
   -3.5624   -1.7677   -0.4442 H   0  0  0  0  0  0  0  0  0  0  0  0
   -2.4448   -3.3534   -2.8333 H   0  0  0  0  0  0  0  0  0  0  0  0
   -4.1477   -2.9493   -2.5848 H   0  0  0  0  0  0  0  0  0  0  0  0
   -2.9630   -1.6625   -2.8786 H   0  0  0  0  0  0  0  0  0  0  0  0
   -4.3968   -4.1582   -0.0007 N   0  0  0  0  0  0  0  0  0  0  0  0
   -4.8298   -5.3861    0.6245 C   0  0  0  0  0  0  0  0  0  0  0  0
   -5.1100   -3.4890   -0.2752 H   0  0  0  0  0  0  0  0  0  0  0  0
   -5.0050   -6.1495   -0.1478 H   0  0  0  0  0  0  0  0  0  0  0  0
   -4.0522   -5.7382    1.3183 H   0  0  0  0  0  0  0  0  0  0  0  0
   -5.7621   -5.2057    1.1797 H   0  0  0  0  0  0  0  0  0  0  0  0
  1  3  1  0  0  0  0
  1  7  1  0  0  0  0
  1  2  2  0  0  0  0
 21 22  1  0  0  0  0
 22 24  1  0  0  0  0
 22 23  2  0  0  0  0
 32 33  1  0  0  0  0
 33 41  1  0  0  0  0
 33 34  2  0  0  0  0
  8  9  1  0  0  0  0
  9 17  1  0  0  0  0
  9 10  2  0  0  0  0
 18 19  1  0  0  0  0
 19 31  1  0  0  0  0
 19 20  2  0  0  0  0
 32 35  1  0  0  0  0
  8 11  1  0  0  0  0
 41 42  1  0  0  0  0
 18 21  1  0  0  0  0
 31 32  1  0  0  0  0
  7  8  1  0  0  0  0
 17 18  1  0  0  0  0
  3  4  1  0  0  0  0
  3  5  1  0  0  0  0
  3  6  1  0  0  0  0
 35 38  1  0  0  0  0
 35 39  1  0  0  0  0
 35 40  1  0  0  0  0
 11 14  1  0  0  0  0
 11 15  1  0  0  0  0
 11 16  1  0  0  0  0
 42 44  1  0  0  0  0
 42 45  1  0  0  0  0
 42 46  1  0  0  0  0
 21 27  1  0  0  0  0
 21 28  1  0  0  0  0
 32 37  1  0  0  0  0
  8 13  1  0  0  0  0
 18 26  1  0  0  0  0
 24 29  1  0  0  0  0
 24 30  1  0  0  0  0
 41 43  1  0  0  0  0
  7 12  1  0  0  0  0
 31 36  1  0  0  0  0
 17 25  1  0  0  0  0
M  END
$$$$

  -OEChem-05262214473D

 46 45  0     1  0  0  0  0  0999 V2000
   -0.0543    1.9736    3.8406 C   0  0  0  0  0  0  0  0  0  0  0  0
    0.6744    1.6099    4.7562 O   0  0  0  0  0  0  0  0  0  0  0  0
   -0.5599    3.3779    3.8160 C   0  0  0  0  0  0  0  0  0  0  0  0
   -1.5202    3.4885    4.3450 H   0  0  0  0  0  0  0  0  0  0  0  0
    0.1282    4.0814    4.3116 H   0  0  0  0  0  0  0  0  0  0  0  0
   -0.7317    3.7994    2.8126 H   0  0  0  0  0  0  0  0  0  0  0  0
   -0.4812    1.1968    2.7762 N   0  0  0  0  0  0  0  0  0  0  0  0
   -0.1106   -0.1834    2.6051 C   0  0  2  0  0  0  0  0  0  0  0  0
   -0.0696   -0.4775    1.1113 C   0  0  0  0  0  0  0  0  0  0  0  0
   -0.6805    0.1900    0.2792 O   0  0  0  0  0  0  0  0  0  0  0  0
   -1.0852   -1.1101    3.3150 C   0  0  0  0  0  0  0  0  0  0  0  0
   -1.0883    1.6241    2.0791 H   0  0  0  0  0  0  0  0  0  0  0  0
    0.8937   -0.2959    3.0277 H   0  0  0  0  0  0  0  0  0  0  0  0
   -2.0970   -1.0114    2.9051 H   0  0  0  0  0  0  0  0  0  0  0  0
   -0.7860   -2.1580    3.2078 H   0  0  0  0  0  0  0  0  0  0  0  0
   -1.1357   -0.8775    4.3842 H   0  0  0  0  0  0  0  0  0  0  0  0
    0.6950   -1.6003    0.8178 N   0  0  0  0  0  0  0  0  0  0  0  0
    0.8777   -2.0908   -0.5246 C   0  0  2  0  0  0  0  0  0  0  0  0
   -0.4157   -2.7793   -0.9422 C   0  0  0  0  0  0  0  0  0  0  0  0
   -0.4801   -3.9747   -1.2221 O   0  0  0  0  0  0  0  0  0  0  0  0
    2.0580   -3.0575   -0.6219 C   0  0  0  0  0  0  0  0  0  0  0  0
    3.4042   -2.3758   -0.4511 C   0  0  0  0  0  0  0  0  0  0  0  0
    3.6976   -1.2963   -0.9561 O   0  0  0  0  0  0  0  0  0  0  0  0
    4.2626   -3.1061    0.3433 N   0  0  0  0  0  0  0  0  0  0  0  0
    1.1810   -2.0803    1.5718 H   0  0  0  0  0  0  0  0  0  0  0  0
    1.0340   -1.2113   -1.1600 H   0  0  0  0  0  0  0  0  0  0  0  0
    1.9849   -3.8259    0.1581 H   0  0  0  0  0  0  0  0  0  0  0  0
    2.0512   -3.5772   -1.5887 H   0  0  0  0  0  0  0  0  0  0  0  0
    3.9757   -3.9932    0.7433 H   0  0  0  0  0  0  0  0  0  0  0  0
    5.2035   -2.7916    0.5580 H   0  0  0  0  0  0  0  0  0  0  0  0
   -1.5014   -1.9152   -0.9181 N   0  0  0  0  0  0  0  0  0  0  0  0
   -2.8359   -2.3526   -1.2509 C   0  0  2  0  0  0  0  0  0  0  0  0
   -3.2045   -3.4941   -0.3126 C   0  0  0  0  0  0  0  0  0  0  0  0
   -2.3673   -4.1840    0.2657 O   0  0  0  0  0  0  0  0  0  0  0  0
   -2.9279   -2.7921   -2.7039 C   0  0  0  0  0  0  0  0  0  0  0  0
   -1.3664   -0.9442   -0.6521 H   0  0  0  0  0  0  0  0  0  0  0  0
   -3.5017   -1.5016   -1.0709 H   0  0  0  0  0  0  0  0  0  0  0  0
   -2.2675   -3.6439   -2.9034 H   0  0  0  0  0  0  0  0  0  0  0  0
   -3.9474   -3.0965   -2.9626 H   0  0  0  0  0  0  0  0  0  0  0  0
   -2.6338   -1.9790   -3.3764 H   0  0  0  0  0  0  0  0  0  0  0  0
   -4.5774   -3.6796   -0.2305 N   0  0  0  0  0  0  0  0  0  0  0  0
   -5.1776   -4.7091    0.5855 C   0  0  0  0  0  0  0  0  0  0  0  0
   -5.1976   -3.0487   -0.7296 H   0  0  0  0  0  0  0  0  0  0  0  0
   -5.3311   -5.6146   -0.0198 H   0  0  0  0  0  0  0  0  0  0  0  0
   -4.5126   -4.9413    1.4304 H   0  0  0  0  0  0  0  0  0  0  0  0
   -6.1465   -4.3554    0.9680 H   0  0  0  0  0  0  0  0  0  0  0  0
  1  3  1  0  0  0  0
  1  7  1  0  0  0  0
  1  2  2  0  0  0  0
 21 22  1  0  0  0  0
 22 24  1  0  0  0  0
 22 23  2  0  0  0  0
 32 33  1  0  0  0  0
 33 41  1  0  0  0  0
 33 34  2  0  0  0  0
  8  9  1  0  0  0  0
  9 17  1  0  0  0  0
  9 10  2  0  0  0  0
 18 19  1  0  0  0  0
 19 31  1  0  0  0  0
 19 20  2  0  0  0  0
 32 35  1  0  0  0  0
  8 11  1  0  0  0  0
 41 42  1  0  0  0  0
 18 21  1  0  0  0  0
 31 32  1  0  0  0  0
  7  8  1  0  0  0  0
 17 18  1  0  0  0  0
  3  4  1  0  0  0  0
  3  5  1  0  0  0  0
  3  6  1  0  0  0  0
 35 38  1  0  0  0  0
 35 39  1  0  0  0  0
 35 40  1  0  0  0  0
 11 14  1  0  0  0  0
 11 15  1  0  0  0  0
 11 16  1  0  0  0  0
 42 44  1  0  0  0  0
 42 45  1  0  0  0  0
 42 46  1  0  0  0  0
 21 27  1  0  0  0  0
 21 28  1  0  0  0  0
 32 37  1  0  0  0  0
  8 13  1  0  0  0  0
 18 26  1  0  0  0  0
 24 29  1  0  0  0  0
 24 30  1  0  0  0  0
 41 43  1  0  0  0  0
  7 12  1  0  0  0  0
 31 36  1  0  0  0  0
 17 25  1  0  0  0  0
M  END
$$$$

  -OEChem-05262214473D

 46 45  0     1  0  0  0  0  0999 V2000
   -0.0543    1.9736    3.8406 C   0  0  0  0  0  0  0  0  0  0  0  0
    0.6744    1.6099    4.7562 O   0  0  0  0  0  0  0  0  0  0  0  0
   -0.5599    3.3779    3.8160 C   0  0  0  0  0  0  0  0  0  0  0  0
   -1.5202    3.4885    4.3450 H   0  0  0  0  0  0  0  0  0  0  0  0
    0.1282    4.0814    4.3116 H   0  0  0  0  0  0  0  0  0  0  0  0
   -0.7317    3.7994    2.8126 H   0  0  0  0  0  0  0  0  0  0  0  0
   -0.4812    1.1968    2.7762 N   0  0  0  0  0  0  0  0  0  0  0  0
   -0.1106   -0.1834    2.6051 C   0  0  2  0  0  0  0  0  0  0  0  0
   -0.0696   -0.4775    1.1113 C   0  0  0  0  0  0  0  0  0  0  0  0
   -0.6805    0.1900    0.2792 O   0  0  0  0  0  0  0  0  0  0  0  0
   -1.0852   -1.1101    3.3150 C   0  0  0  0  0  0  0  0  0  0  0  0
   -1.0883    1.6241    2.0791 H   0  0  0  0  0  0  0  0  0  0  0  0
    0.8937   -0.2959    3.0277 H   0  0  0  0  0  0  0  0  0  0  0  0
   -2.0970   -1.0114    2.9051 H   0  0  0  0  0  0  0  0  0  0  0  0
   -0.7860   -2.1580    3.2078 H   0  0  0  0  0  0  0  0  0  0  0  0
   -1.1357   -0.8775    4.3842 H   0  0  0  0  0  0  0  0  0  0  0  0
    0.6950   -1.6003    0.8178 N   0  0  0  0  0  0  0  0  0  0  0  0
    0.8777   -2.0908   -0.5246 C   0  0  2  0  0  0  0  0  0  0  0  0
   -0.4157   -2.7793   -0.9422 C   0  0  0  0  0  0  0  0  0  0  0  0
   -0.5494   -4.0013   -0.9637 O   0  0  0  0  0  0  0  0  0  0  0  0
    2.0580   -3.0575   -0.6219 C   0  0  0  0  0  0  0  0  0  0  0  0
    3.4042   -2.3758   -0.4511 C   0  0  0  0  0  0  0  0  0  0  0  0
    3.6976   -1.2963   -0.9561 O   0  0  0  0  0  0  0  0  0  0  0  0
    4.2626   -3.1061    0.3433 N   0  0  0  0  0  0  0  0  0  0  0  0
    1.1810   -2.0803    1.5718 H   0  0  0  0  0  0  0  0  0  0  0  0
    1.0340   -1.2113   -1.1600 H   0  0  0  0  0  0  0  0  0  0  0  0
    1.9849   -3.8259    0.1581 H   0  0  0  0  0  0  0  0  0  0  0  0
    2.0512   -3.5772   -1.5887 H   0  0  0  0  0  0  0  0  0  0  0  0
    3.9757   -3.9932    0.7433 H   0  0  0  0  0  0  0  0  0  0  0  0
    5.2035   -2.7916    0.5580 H   0  0  0  0  0  0  0  0  0  0  0  0
   -1.4210   -1.8704   -1.2406 N   0  0  0  0  0  0  0  0  0  0  0  0
   -2.7433   -2.2932   -1.6355 C   0  0  2  0  0  0  0  0  0  0  0  0
   -3.3066   -3.1724   -0.5267 C   0  0  0  0  0  0  0  0  0  0  0  0
   -2.5985   -3.7625    0.2866 O   0  0  0  0  0  0  0  0  0  0  0  0
   -2.7129   -3.0408   -2.9594 C   0  0  0  0  0  0  0  0  0  0  0  0
   -1.2348   -0.8740   -1.1755 H   0  0  0  0  0  0  0  0  0  0  0  0
   -3.3510   -1.3864   -1.7276 H   0  0  0  0  0  0  0  0  0  0  0  0
   -2.1087   -3.9525   -2.8866 H   0  0  0  0  0  0  0  0  0  0  0  0
   -3.7201   -3.3360   -3.2716 H   0  0  0  0  0  0  0  0  0  0  0  0
   -2.2800   -2.4174   -3.7492 H   0  0  0  0  0  0  0  0  0  0  0  0
   -4.6910   -3.2550   -0.5787 N   0  0  0  0  0  0  0  0  0  0  0  0
   -5.4610   -4.0391    0.3585 C   0  0  0  0  0  0  0  0  0  0  0  0
   -5.1979   -2.7171   -1.2755 H   0  0  0  0  0  0  0  0  0  0  0  0
   -5.6230   -5.0468   -0.0518 H   0  0  0  0  0  0  0  0  0  0  0  0
   -4.9140   -4.1143    1.3099 H   0  0  0  0  0  0  0  0  0  0  0  0
   -6.4326   -3.5532    0.5316 H   0  0  0  0  0  0  0  0  0  0  0  0
  1  3  1  0  0  0  0
  1  7  1  0  0  0  0
  1  2  2  0  0  0  0
 21 22  1  0  0  0  0
 22 24  1  0  0  0  0
 22 23  2  0  0  0  0
 32 33  1  0  0  0  0
 33 41  1  0  0  0  0
 33 34  2  0  0  0  0
  8  9  1  0  0  0  0
  9 17  1  0  0  0  0
  9 10  2  0  0  0  0
 18 19  1  0  0  0  0
 19 31  1  0  0  0  0
 19 20  2  0  0  0  0
 32 35  1  0  0  0  0
  8 11  1  0  0  0  0
 41 42  1  0  0  0  0
 18 21  1  0  0  0  0
 31 32  1  0  0  0  0
  7  8  1  0  0  0  0
 17 18  1  0  0  0  0
  3  4  1  0  0  0  0
  3  5  1  0  0  0  0
  3  6  1  0  0  0  0
 35 38  1  0  0  0  0
 35 39  1  0  0  0  0
 35 40  1  0  0  0  0
 11 14  1  0  0  0  0
 11 15  1  0  0  0  0
 11 16  1  0  0  0  0
 42 44  1  0  0  0  0
 42 45  1  0  0  0  0
 42 46  1  0  0  0  0
 21 27  1  0  0  0  0
 21 28  1  0  0  0  0
 32 37  1  0  0  0  0
  8 13  1  0  0  0  0
 18 26  1  0  0  0  0
 24 29  1  0  0  0  0
 24 30  1  0  0  0  0
 41 43  1  0  0  0  0
  7 12  1  0  0  0  0
 31 36  1  0  0  0  0
 17 25  1  0  0  0  0
M  END
$$$$

  -OEChem-05262214473D

 46 45  0     1  0  0  0  0  0999 V2000
   -0.0543    1.9736    3.8406 C   0  0  0  0  0  0  0  0  0  0  0  0
    0.6744    1.6099    4.7562 O   0  0  0  0  0  0  0  0  0  0  0  0
   -0.5599    3.3779    3.8160 C   0  0  0  0  0  0  0  0  0  0  0  0
   -1.5202    3.4885    4.3450 H   0  0  0  0  0  0  0  0  0  0  0  0
    0.1282    4.0814    4.3116 H   0  0  0  0  0  0  0  0  0  0  0  0
   -0.7317    3.7994    2.8126 H   0  0  0  0  0  0  0  0  0  0  0  0
   -0.4812    1.1968    2.7762 N   0  0  0  0  0  0  0  0  0  0  0  0
   -0.1106   -0.1834    2.6051 C   0  0  2  0  0  0  0  0  0  0  0  0
   -0.0696   -0.4775    1.1113 C   0  0  0  0  0  0  0  0  0  0  0  0
   -0.6805    0.1900    0.2792 O   0  0  0  0  0  0  0  0  0  0  0  0
   -1.0852   -1.1101    3.3150 C   0  0  0  0  0  0  0  0  0  0  0  0
   -1.0883    1.6241    2.0791 H   0  0  0  0  0  0  0  0  0  0  0  0
    0.8937   -0.2959    3.0277 H   0  0  0  0  0  0  0  0  0  0  0  0
   -2.0970   -1.0114    2.9051 H   0  0  0  0  0  0  0  0  0  0  0  0
   -0.7860   -2.1580    3.2078 H   0  0  0  0  0  0  0  0  0  0  0  0
   -1.1357   -0.8775    4.3842 H   0  0  0  0  0  0  0  0  0  0  0  0
    0.6950   -1.6003    0.8178 N   0  0  0  0  0  0  0  0  0  0  0  0
    0.8777   -2.0908   -0.5246 C   0  0  2  0  0  0  0  0  0  0  0  0
   -0.4157   -2.7793   -0.9422 C   0  0  0  0  0  0  0  0  0  0  0  0
   -0.6484   -3.9652   -0.7164 O   0  0  0  0  0  0  0  0  0  0  0  0
    2.0580   -3.0575   -0.6219 C   0  0  0  0  0  0  0  0  0  0  0  0
    3.4042   -2.3758   -0.4511 C   0  0  0  0  0  0  0  0  0  0  0  0
    3.6976   -1.2963   -0.9561 O   0  0  0  0  0  0  0  0  0  0  0  0
    4.2626   -3.1061    0.3433 N   0  0  0  0  0  0  0  0  0  0  0  0
    1.1810   -2.0803    1.5718 H   0  0  0  0  0  0  0  0  0  0  0  0
    1.0340   -1.2113   -1.1600 H   0  0  0  0  0  0  0  0  0  0  0  0
    1.9849   -3.8259    0.1581 H   0  0  0  0  0  0  0  0  0  0  0  0
    2.0512   -3.5772   -1.5887 H   0  0  0  0  0  0  0  0  0  0  0  0
    3.9757   -3.9932    0.7433 H   0  0  0  0  0  0  0  0  0  0  0  0
    5.2035   -2.7916    0.5580 H   0  0  0  0  0  0  0  0  0  0  0  0
   -1.3026   -1.9037   -1.5527 N   0  0  0  0  0  0  0  0  0  0  0  0
   -2.6047   -2.3270   -2.0091 C   0  0  2  0  0  0  0  0  0  0  0  0
   -3.3574   -2.9014   -0.8162 C   0  0  0  0  0  0  0  0  0  0  0  0
   -2.7943   -3.3343    0.1871 O   0  0  0  0  0  0  0  0  0  0  0  0
   -2.4931   -3.3525   -3.1264 C   0  0  0  0  0  0  0  0  0  0  0  0
   -1.0415   -0.9305   -1.6810 H   0  0  0  0  0  0  0  0  0  0  0  0
   -3.1204   -1.4302   -2.3696 H   0  0  0  0  0  0  0  0  0  0  0  0
   -1.9791   -4.2581   -2.7840 H   0  0  0  0  0  0  0  0  0  0  0  0
   -3.4814   -3.6513   -3.4910 H   0  0  0  0  0  0  0  0  0  0  0  0
   -1.9258   -2.9479   -3.9715 H   0  0  0  0  0  0  0  0  0  0  0  0
   -4.7299   -2.9133   -1.0216 N   0  0  0  0  0  0  0  0  0  0  0  0
   -5.6607   -3.4217   -0.0412 C   0  0  0  0  0  0  0  0  0  0  0  0
   -5.1108   -2.5166   -1.8757 H   0  0  0  0  0  0  0  0  0  0  0  0
   -5.8611   -4.4845   -0.2416 H   0  0  0  0  0  0  0  0  0  0  0  0
   -5.2289   -3.3135    0.9647 H   0  0  0  0  0  0  0  0  0  0  0  0
   -6.6010   -2.8540   -0.0995 H   0  0  0  0  0  0  0  0  0  0  0  0
  1  3  1  0  0  0  0
  1  7  1  0  0  0  0
  1  2  2  0  0  0  0
 21 22  1  0  0  0  0
 22 24  1  0  0  0  0
 22 23  2  0  0  0  0
 32 33  1  0  0  0  0
 33 41  1  0  0  0  0
 33 34  2  0  0  0  0
  8  9  1  0  0  0  0
  9 17  1  0  0  0  0
  9 10  2  0  0  0  0
 18 19  1  0  0  0  0
 19 31  1  0  0  0  0
 19 20  2  0  0  0  0
 32 35  1  0  0  0  0
  8 11  1  0  0  0  0
 41 42  1  0  0  0  0
 18 21  1  0  0  0  0
 31 32  1  0  0  0  0
  7  8  1  0  0  0  0
 17 18  1  0  0  0  0
  3  4  1  0  0  0  0
  3  5  1  0  0  0  0
  3  6  1  0  0  0  0
 35 38  1  0  0  0  0
 35 39  1  0  0  0  0
 35 40  1  0  0  0  0
 11 14  1  0  0  0  0
 11 15  1  0  0  0  0
 11 16  1  0  0  0  0
 42 44  1  0  0  0  0
 42 45  1  0  0  0  0
 42 46  1  0  0  0  0
 21 27  1  0  0  0  0
 21 28  1  0  0  0  0
 32 37  1  0  0  0  0
  8 13  1  0  0  0  0
 18 26  1  0  0  0  0
 24 29  1  0  0  0  0
 24 30  1  0  0  0  0
 41 43  1  0  0  0  0
  7 12  1  0  0  0  0
 31 36  1  0  0  0  0
 17 25  1  0  0  0  0
M  END
$$$$

  -OEChem-05262214473D

 46 45  0     1  0  0  0  0  0999 V2000
   -0.0543    1.9736    3.8406 C   0  0  0  0  0  0  0  0  0  0  0  0
    0.6744    1.6099    4.7562 O   0  0  0  0  0  0  0  0  0  0  0  0
   -0.5599    3.3779    3.8160 C   0  0  0  0  0  0  0  0  0  0  0  0
   -1.5202    3.4885    4.3450 H   0  0  0  0  0  0  0  0  0  0  0  0
    0.1282    4.0814    4.3116 H   0  0  0  0  0  0  0  0  0  0  0  0
   -0.7317    3.7994    2.8126 H   0  0  0  0  0  0  0  0  0  0  0  0
   -0.4812    1.1968    2.7762 N   0  0  0  0  0  0  0  0  0  0  0  0
   -0.1106   -0.1834    2.6051 C   0  0  2  0  0  0  0  0  0  0  0  0
   -0.0696   -0.4775    1.1113 C   0  0  0  0  0  0  0  0  0  0  0  0
   -0.6805    0.1900    0.2792 O   0  0  0  0  0  0  0  0  0  0  0  0
   -1.0852   -1.1101    3.3150 C   0  0  0  0  0  0  0  0  0  0  0  0
   -1.0883    1.6241    2.0791 H   0  0  0  0  0  0  0  0  0  0  0  0
    0.8937   -0.2959    3.0277 H   0  0  0  0  0  0  0  0  0  0  0  0
   -2.0970   -1.0114    2.9051 H   0  0  0  0  0  0  0  0  0  0  0  0
   -0.7860   -2.1580    3.2078 H   0  0  0  0  0  0  0  0  0  0  0  0
   -1.1357   -0.8775    4.3842 H   0  0  0  0  0  0  0  0  0  0  0  0
    0.6950   -1.6003    0.8178 N   0  0  0  0  0  0  0  0  0  0  0  0
    0.8777   -2.0908   -0.5246 C   0  0  2  0  0  0  0  0  0  0  0  0
   -0.4157   -2.7793   -0.9422 C   0  0  0  0  0  0  0  0  0  0  0  0
   -0.7705   -3.8690   -0.4971 O   0  0  0  0  0  0  0  0  0  0  0  0
    2.0580   -3.0575   -0.6219 C   0  0  0  0  0  0  0  0  0  0  0  0
    3.4042   -2.3758   -0.4511 C   0  0  0  0  0  0  0  0  0  0  0  0
    3.6976   -1.2963   -0.9561 O   0  0  0  0  0  0  0  0  0  0  0  0
    4.2626   -3.1061    0.3433 N   0  0  0  0  0  0  0  0  0  0  0  0
    1.1810   -2.0803    1.5718 H   0  0  0  0  0  0  0  0  0  0  0  0
    1.0340   -1.2113   -1.1600 H   0  0  0  0  0  0  0  0  0  0  0  0
    1.9849   -3.8259    0.1581 H   0  0  0  0  0  0  0  0  0  0  0  0
    2.0512   -3.5772   -1.5887 H   0  0  0  0  0  0  0  0  0  0  0  0
    3.9757   -3.9932    0.7433 H   0  0  0  0  0  0  0  0  0  0  0  0
    5.2035   -2.7916    0.5580 H   0  0  0  0  0  0  0  0  0  0  0  0
   -1.1540   -2.0128   -1.8329 N   0  0  0  0  0  0  0  0  0  0  0  0
   -2.4296   -2.4514   -2.3463 C   0  0  2  0  0  0  0  0  0  0  0  0
   -3.3534   -2.6996   -1.1613 C   0  0  0  0  0  0  0  0  0  0  0  0
   -2.9414   -2.9287   -0.0260 O   0  0  0  0  0  0  0  0  0  0  0  0
   -2.2833   -3.7059   -3.1935 C   0  0  0  0  0  0  0  0  0  0  0  0
   -0.7997   -1.1099   -2.1343 H   0  0  0  0  0  0  0  0  0  0  0  0
   -2.8256   -1.6299   -2.9532 H   0  0  0  0  0  0  0  0  0  0  0  0
   -1.8877   -4.5400   -2.6025 H   0  0  0  0  0  0  0  0  0  0  0  0
   -3.2476   -4.0210   -3.6057 H   0  0  0  0  0  0  0  0  0  0  0  0
   -1.5953   -3.5343   -4.0284 H   0  0  0  0  0  0  0  0  0  0  0  0
   -4.6915   -2.6778   -1.5291 N   0  0  0  0  0  0  0  0  0  0  0  0
   -5.7629   -2.8990   -0.5862 C   0  0  0  0  0  0  0  0  0  0  0  0
   -4.9423   -2.4611   -2.4893 H   0  0  0  0  0  0  0  0  0  0  0  0
   -6.0289   -3.9663   -0.5764 H   0  0  0  0  0  0  0  0  0  0  0  0
   -5.4359   -2.5934    0.4186 H   0  0  0  0  0  0  0  0  0  0  0  0
   -6.6403   -2.3053   -0.8825 H   0  0  0  0  0  0  0  0  0  0  0  0
  1  3  1  0  0  0  0
  1  7  1  0  0  0  0
  1  2  2  0  0  0  0
 21 22  1  0  0  0  0
 22 24  1  0  0  0  0
 22 23  2  0  0  0  0
 32 33  1  0  0  0  0
 33 41  1  0  0  0  0
 33 34  2  0  0  0  0
  8  9  1  0  0  0  0
  9 17  1  0  0  0  0
  9 10  2  0  0  0  0
 18 19  1  0  0  0  0
 19 31  1  0  0  0  0
 19 20  2  0  0  0  0
 32 35  1  0  0  0  0
  8 11  1  0  0  0  0
 41 42  1  0  0  0  0
 18 21  1  0  0  0  0
 31 32  1  0  0  0  0
  7  8  1  0  0  0  0
 17 18  1  0  0  0  0
  3  4  1  0  0  0  0
  3  5  1  0  0  0  0
  3  6  1  0  0  0  0
 35 38  1  0  0  0  0
 35 39  1  0  0  0  0
 35 40  1  0  0  0  0
 11 14  1  0  0  0  0
 11 15  1  0  0  0  0
 11 16  1  0  0  0  0
 42 44  1  0  0  0  0
 42 45  1  0  0  0  0
 42 46  1  0  0  0  0
 21 27  1  0  0  0  0
 21 28  1  0  0  0  0
 32 37  1  0  0  0  0
  8 13  1  0  0  0  0
 18 26  1  0  0  0  0
 24 29  1  0  0  0  0
 24 30  1  0  0  0  0
 41 43  1  0  0  0  0
  7 12  1  0  0  0  0
 31 36  1  0  0  0  0
 17 25  1  0  0  0  0
M  END
$$$$

  -OEChem-05262214473D

 46 45  0     1  0  0  0  0  0999 V2000
   -0.0543    1.9736    3.8406 C   0  0  0  0  0  0  0  0  0  0  0  0
    0.6744    1.6099    4.7562 O   0  0  0  0  0  0  0  0  0  0  0  0
   -0.5599    3.3779    3.8160 C   0  0  0  0  0  0  0  0  0  0  0  0
   -1.5202    3.4885    4.3450 H   0  0  0  0  0  0  0  0  0  0  0  0
    0.1282    4.0814    4.3116 H   0  0  0  0  0  0  0  0  0  0  0  0
   -0.7317    3.7994    2.8126 H   0  0  0  0  0  0  0  0  0  0  0  0
   -0.4812    1.1968    2.7762 N   0  0  0  0  0  0  0  0  0  0  0  0
   -0.1106   -0.1834    2.6051 C   0  0  2  0  0  0  0  0  0  0  0  0
   -0.0696   -0.4775    1.1113 C   0  0  0  0  0  0  0  0  0  0  0  0
   -0.6805    0.1900    0.2792 O   0  0  0  0  0  0  0  0  0  0  0  0
   -1.0852   -1.1101    3.3150 C   0  0  0  0  0  0  0  0  0  0  0  0
   -1.0883    1.6241    2.0791 H   0  0  0  0  0  0  0  0  0  0  0  0
    0.8937   -0.2959    3.0277 H   0  0  0  0  0  0  0  0  0  0  0  0
   -2.0970   -1.0114    2.9051 H   0  0  0  0  0  0  0  0  0  0  0  0
   -0.7860   -2.1580    3.2078 H   0  0  0  0  0  0  0  0  0  0  0  0
   -1.1357   -0.8775    4.3842 H   0  0  0  0  0  0  0  0  0  0  0  0
    0.6950   -1.6003    0.8178 N   0  0  0  0  0  0  0  0  0  0  0  0
    0.8777   -2.0908   -0.5246 C   0  0  2  0  0  0  0  0  0  0  0  0
   -0.4157   -2.7793   -0.9422 C   0  0  0  0  0  0  0  0  0  0  0  0
   -0.9072   -3.7193   -0.3206 O   0  0  0  0  0  0  0  0  0  0  0  0
    2.0580   -3.0575   -0.6219 C   0  0  0  0  0  0  0  0  0  0  0  0
    3.4042   -2.3758   -0.4511 C   0  0  0  0  0  0  0  0  0  0  0  0
    3.6976   -1.2963   -0.9561 O   0  0  0  0  0  0  0  0  0  0  0  0
    4.2626   -3.1061    0.3433 N   0  0  0  0  0  0  0  0  0  0  0  0
    1.1810   -2.0803    1.5718 H   0  0  0  0  0  0  0  0  0  0  0  0
    1.0340   -1.2113   -1.1600 H   0  0  0  0  0  0  0  0  0  0  0  0
    1.9849   -3.8259    0.1581 H   0  0  0  0  0  0  0  0  0  0  0  0
    2.0512   -3.5772   -1.5887 H   0  0  0  0  0  0  0  0  0  0  0  0
    3.9757   -3.9932    0.7433 H   0  0  0  0  0  0  0  0  0  0  0  0
    5.2035   -2.7916    0.5580 H   0  0  0  0  0  0  0  0  0  0  0  0
   -0.9855   -2.1903   -2.0622 N   0  0  0  0  0  0  0  0  0  0  0  0
   -2.2297   -2.6582   -2.6243 C   0  0  2  0  0  0  0  0  0  0  0  0
   -3.2949   -2.5808   -1.5384 C   0  0  0  0  0  0  0  0  0  0  0  0
   -3.0298   -2.5734   -0.3381 O   0  0  0  0  0  0  0  0  0  0  0  0
   -2.0979   -4.0768   -3.1561 C   0  0  0  0  0  0  0  0  0  0  0  0
   -0.5258   -1.3999   -2.5044 H   0  0  0  0  0  0  0  0  0  0  0  0
   -2.4869   -1.9719   -3.4385 H   0  0  0  0  0  0  0  0  0  0  0  0
   -1.8405   -4.7789   -2.3546 H   0  0  0  0  0  0  0  0  0  0  0  0
   -3.0345   -4.4199   -3.6079 H   0  0  0  0  0  0  0  0  0  0  0  0
   -1.3110   -4.1367   -3.9157 H   0  0  0  0  0  0  0  0  0  0  0  0
   -4.5782   -2.5645   -2.0665 N   0  0  0  0  0  0  0  0  0  0  0  0
   -5.7609   -2.5066   -1.2395 C   0  0  0  0  0  0  0  0  0  0  0  0
   -4.7037   -2.5542   -3.0744 H   0  0  0  0  0  0  0  0  0  0  0  0
   -6.1150   -3.5274   -1.0332 H   0  0  0  0  0  0  0  0  0  0  0  0
   -5.5208   -2.0032   -0.2913 H   0  0  0  0  0  0  0  0  0  0  0  0
   -6.5477   -1.9446   -1.7640 H   0  0  0  0  0  0  0  0  0  0  0  0
  1  3  1  0  0  0  0
  1  7  1  0  0  0  0
  1  2  2  0  0  0  0
 21 22  1  0  0  0  0
 22 24  1  0  0  0  0
 22 23  2  0  0  0  0
 32 33  1  0  0  0  0
 33 41  1  0  0  0  0
 33 34  2  0  0  0  0
  8  9  1  0  0  0  0
  9 17  1  0  0  0  0
  9 10  2  0  0  0  0
 18 19  1  0  0  0  0
 19 31  1  0  0  0  0
 19 20  2  0  0  0  0
 32 35  1  0  0  0  0
  8 11  1  0  0  0  0
 41 42  1  0  0  0  0
 18 21  1  0  0  0  0
 31 32  1  0  0  0  0
  7  8  1  0  0  0  0
 17 18  1  0  0  0  0
  3  4  1  0  0  0  0
  3  5  1  0  0  0  0
  3  6  1  0  0  0  0
 35 38  1  0  0  0  0
 35 39  1  0  0  0  0
 35 40  1  0  0  0  0
 11 14  1  0  0  0  0
 11 15  1  0  0  0  0
 11 16  1  0  0  0  0
 42 44  1  0  0  0  0
 42 45  1  0  0  0  0
 42 46  1  0  0  0  0
 21 27  1  0  0  0  0
 21 28  1  0  0  0  0
 32 37  1  0  0  0  0
  8 13  1  0  0  0  0
 18 26  1  0  0  0  0
 24 29  1  0  0  0  0
 24 30  1  0  0  0  0
 41 43  1  0  0  0  0
  7 12  1  0  0  0  0
 31 36  1  0  0  0  0
 17 25  1  0  0  0  0
M  END
$$$$

  -OEChem-05262214473D

 46 45  0     1  0  0  0  0  0999 V2000
   -0.0543    1.9736    3.8406 C   0  0  0  0  0  0  0  0  0  0  0  0
    0.6744    1.6099    4.7562 O   0  0  0  0  0  0  0  0  0  0  0  0
   -0.5599    3.3779    3.8160 C   0  0  0  0  0  0  0  0  0  0  0  0
   -1.5202    3.4885    4.3450 H   0  0  0  0  0  0  0  0  0  0  0  0
    0.1282    4.0814    4.3116 H   0  0  0  0  0  0  0  0  0  0  0  0
   -0.7317    3.7994    2.8126 H   0  0  0  0  0  0  0  0  0  0  0  0
   -0.4812    1.1968    2.7762 N   0  0  0  0  0  0  0  0  0  0  0  0
   -0.1106   -0.1834    2.6051 C   0  0  2  0  0  0  0  0  0  0  0  0
   -0.0696   -0.4775    1.1113 C   0  0  0  0  0  0  0  0  0  0  0  0
   -0.6805    0.1900    0.2792 O   0  0  0  0  0  0  0  0  0  0  0  0
   -1.0852   -1.1101    3.3150 C   0  0  0  0  0  0  0  0  0  0  0  0
   -1.0883    1.6241    2.0791 H   0  0  0  0  0  0  0  0  0  0  0  0
    0.8937   -0.2959    3.0277 H   0  0  0  0  0  0  0  0  0  0  0  0
   -2.0970   -1.0114    2.9051 H   0  0  0  0  0  0  0  0  0  0  0  0
   -0.7860   -2.1580    3.2078 H   0  0  0  0  0  0  0  0  0  0  0  0
   -1.1357   -0.8775    4.3842 H   0  0  0  0  0  0  0  0  0  0  0  0
    0.6950   -1.6003    0.8178 N   0  0  0  0  0  0  0  0  0  0  0  0
    0.8777   -2.0908   -0.5246 C   0  0  2  0  0  0  0  0  0  0  0  0
   -0.4157   -2.7793   -0.9422 C   0  0  0  0  0  0  0  0  0  0  0  0
   -1.0493   -3.5262   -0.1990 O   0  0  0  0  0  0  0  0  0  0  0  0
    2.0580   -3.0575   -0.6219 C   0  0  0  0  0  0  0  0  0  0  0  0
    3.4042   -2.3758   -0.4511 C   0  0  0  0  0  0  0  0  0  0  0  0
    3.6976   -1.2963   -0.9561 O   0  0  0  0  0  0  0  0  0  0  0  0
    4.2626   -3.1061    0.3433 N   0  0  0  0  0  0  0  0  0  0  0  0
    1.1810   -2.0803    1.5718 H   0  0  0  0  0  0  0  0  0  0  0  0
    1.0340   -1.2113   -1.1600 H   0  0  0  0  0  0  0  0  0  0  0  0
    1.9849   -3.8259    0.1581 H   0  0  0  0  0  0  0  0  0  0  0  0
    2.0512   -3.5772   -1.5887 H   0  0  0  0  0  0  0  0  0  0  0  0
    3.9757   -3.9932    0.7433 H   0  0  0  0  0  0  0  0  0  0  0  0
    5.2035   -2.7916    0.5580 H   0  0  0  0  0  0  0  0  0  0  0  0
   -0.8084   -2.4242   -2.2250 N   0  0  0  0  0  0  0  0  0  0  0  0
   -2.0189   -2.9332   -2.8239 C   0  0  2  0  0  0  0  0  0  0  0  0
   -3.1858   -2.5531   -1.9220 C   0  0  0  0  0  0  0  0  0  0  0  0
   -3.0535   -2.2924   -0.7280 O   0  0  0  0  0  0  0  0  0  0  0  0
   -1.9495   -4.4401   -3.0169 C   0  0  0  0  0  0  0  0  0  0  0  0
   -0.2385   -1.7807   -2.7662 H   0  0  0  0  0  0  0  0  0  0  0  0
   -2.1271   -2.4330   -3.7925 H   0  0  0  0  0  0  0  0  0  0  0  0
   -1.8409   -4.9585   -2.0572 H   0  0  0  0  0  0  0  0  0  0  0  0
   -2.8568   -4.8208   -3.4974 H   0  0  0  0  0  0  0  0  0  0  0  0
   -1.0922   -4.7139   -3.6413 H   0  0  0  0  0  0  0  0  0  0  0  0
   -4.3980   -2.5812   -2.5973 N   0  0  0  0  0  0  0  0  0  0  0  0
   -5.6547   -2.2712   -1.9565 C   0  0  0  0  0  0  0  0  0  0  0  0
   -4.4115   -2.7896   -3.5913 H   0  0  0  0  0  0  0  0  0  0  0  0
   -6.1137   -3.1976   -1.5809 H   0  0  0  0  0  0  0  0  0  0  0  0
   -5.4780   -1.5831   -1.1167 H   0  0  0  0  0  0  0  0  0  0  0  0
   -6.3296   -1.7964   -2.6838 H   0  0  0  0  0  0  0  0  0  0  0  0
  1  3  1  0  0  0  0
  1  7  1  0  0  0  0
  1  2  2  0  0  0  0
 21 22  1  0  0  0  0
 22 24  1  0  0  0  0
 22 23  2  0  0  0  0
 32 33  1  0  0  0  0
 33 41  1  0  0  0  0
 33 34  2  0  0  0  0
  8  9  1  0  0  0  0
  9 17  1  0  0  0  0
  9 10  2  0  0  0  0
 18 19  1  0  0  0  0
 19 31  1  0  0  0  0
 19 20  2  0  0  0  0
 32 35  1  0  0  0  0
  8 11  1  0  0  0  0
 41 42  1  0  0  0  0
 18 21  1  0  0  0  0
 31 32  1  0  0  0  0
  7  8  1  0  0  0  0
 17 18  1  0  0  0  0
  3  4  1  0  0  0  0
  3  5  1  0  0  0  0
  3  6  1  0  0  0  0
 35 38  1  0  0  0  0
 35 39  1  0  0  0  0
 35 40  1  0  0  0  0
 11 14  1  0  0  0  0
 11 15  1  0  0  0  0
 11 16  1  0  0  0  0
 42 44  1  0  0  0  0
 42 45  1  0  0  0  0
 42 46  1  0  0  0  0
 21 27  1  0  0  0  0
 21 28  1  0  0  0  0
 32 37  1  0  0  0  0
  8 13  1  0  0  0  0
 18 26  1  0  0  0  0
 24 29  1  0  0  0  0
 24 30  1  0  0  0  0
 41 43  1  0  0  0  0
  7 12  1  0  0  0  0
 31 36  1  0  0  0  0
 17 25  1  0  0  0  0
M  END
$$$$

  -OEChem-05262214473D

 46 45  0     1  0  0  0  0  0999 V2000
   -0.0543    1.9736    3.8406 C   0  0  0  0  0  0  0  0  0  0  0  0
    0.6744    1.6099    4.7562 O   0  0  0  0  0  0  0  0  0  0  0  0
   -0.5599    3.3779    3.8160 C   0  0  0  0  0  0  0  0  0  0  0  0
   -1.5202    3.4885    4.3450 H   0  0  0  0  0  0  0  0  0  0  0  0
    0.1282    4.0814    4.3116 H   0  0  0  0  0  0  0  0  0  0  0  0
   -0.7317    3.7994    2.8126 H   0  0  0  0  0  0  0  0  0  0  0  0
   -0.4812    1.1968    2.7762 N   0  0  0  0  0  0  0  0  0  0  0  0
   -0.1106   -0.1834    2.6051 C   0  0  2  0  0  0  0  0  0  0  0  0
   -0.0696   -0.4775    1.1113 C   0  0  0  0  0  0  0  0  0  0  0  0
   -0.6805    0.1900    0.2792 O   0  0  0  0  0  0  0  0  0  0  0  0
   -1.0852   -1.1101    3.3150 C   0  0  0  0  0  0  0  0  0  0  0  0
   -1.0883    1.6241    2.0791 H   0  0  0  0  0  0  0  0  0  0  0  0
    0.8937   -0.2959    3.0277 H   0  0  0  0  0  0  0  0  0  0  0  0
   -2.0970   -1.0114    2.9051 H   0  0  0  0  0  0  0  0  0  0  0  0
   -0.7860   -2.1580    3.2078 H   0  0  0  0  0  0  0  0  0  0  0  0
   -1.1357   -0.8775    4.3842 H   0  0  0  0  0  0  0  0  0  0  0  0
    0.6950   -1.6003    0.8178 N   0  0  0  0  0  0  0  0  0  0  0  0
    0.8777   -2.0908   -0.5246 C   0  0  2  0  0  0  0  0  0  0  0  0
   -0.4157   -2.7793   -0.9422 C   0  0  0  0  0  0  0  0  0  0  0  0
   -1.1870   -3.3028   -0.1406 O   0  0  0  0  0  0  0  0  0  0  0  0
    2.0580   -3.0575   -0.6219 C   0  0  0  0  0  0  0  0  0  0  0  0
    3.4042   -2.3758   -0.4511 C   0  0  0  0  0  0  0  0  0  0  0  0
    3.6976   -1.2963   -0.9561 O   0  0  0  0  0  0  0  0  0  0  0  0
    4.2626   -3.1061    0.3433 N   0  0  0  0  0  0  0  0  0  0  0  0
    1.1810   -2.0803    1.5718 H   0  0  0  0  0  0  0  0  0  0  0  0
    1.0340   -1.2113   -1.1600 H   0  0  0  0  0  0  0  0  0  0  0  0
    1.9849   -3.8259    0.1581 H   0  0  0  0  0  0  0  0  0  0  0  0
    2.0512   -3.5772   -1.5887 H   0  0  0  0  0  0  0  0  0  0  0  0
    3.9757   -3.9932    0.7433 H   0  0  0  0  0  0  0  0  0  0  0  0
    5.2035   -2.7916    0.5580 H   0  0  0  0  0  0  0  0  0  0  0  0
   -0.6350   -2.6983   -2.3101 N   0  0  0  0  0  0  0  0  0  0  0  0
   -1.8114   -3.2576   -2.9317 C   0  0  2  0  0  0  0  0  0  0  0  0
   -3.0335   -2.6183   -2.2859 C   0  0  0  0  0  0  0  0  0  0  0  0
   -3.0108   -2.1050   -1.1692 O   0  0  0  0  0  0  0  0  0  0  0  0
   -1.8482   -4.7709   -2.7852 C   0  0  0  0  0  0  0  0  0  0  0  0
    0.0426   -2.2265   -2.9018 H   0  0  0  0  0  0  0  0  0  0  0  0
   -1.7709   -2.9816   -3.9910 H   0  0  0  0  0  0  0  0  0  0  0  0
   -1.8889   -5.0666   -1.7305 H   0  0  0  0  0  0  0  0  0  0  0  0
   -2.7264   -5.1963   -3.2819 H   0  0  0  0  0  0  0  0  0  0  0  0
   -0.9540   -5.2268   -3.2239 H   0  0  0  0  0  0  0  0  0  0  0  0
   -4.1629   -2.7268   -3.0852 N   0  0  0  0  0  0  0  0  0  0  0  0
   -5.4515   -2.2089   -2.6884 C   0  0  0  0  0  0  0  0  0  0  0  0
   -4.0855   -3.1513   -4.0047 H   0  0  0  0  0  0  0  0  0  0  0  0
   -6.0250   -2.9996   -2.1823 H   0  0  0  0  0  0  0  0  0  0  0  0
   -5.3103   -1.3616   -2.0012 H   0  0  0  0  0  0  0  0  0  0  0  0
   -6.0009   -1.8708   -3.5794 H   0  0  0  0  0  0  0  0  0  0  0  0
  1  3  1  0  0  0  0
  1  7  1  0  0  0  0
  1  2  2  0  0  0  0
 21 22  1  0  0  0  0
 22 24  1  0  0  0  0
 22 23  2  0  0  0  0
 32 33  1  0  0  0  0
 33 41  1  0  0  0  0
 33 34  2  0  0  0  0
  8  9  1  0  0  0  0
  9 17  1  0  0  0  0
  9 10  2  0  0  0  0
 18 19  1  0  0  0  0
 19 31  1  0  0  0  0
 19 20  2  0  0  0  0
 32 35  1  0  0  0  0
  8 11  1  0  0  0  0
 41 42  1  0  0  0  0
 18 21  1  0  0  0  0
 31 32  1  0  0  0  0
  7  8  1  0  0  0  0
 17 18  1  0  0  0  0
  3  4  1  0  0  0  0
  3  5  1  0  0  0  0
  3  6  1  0  0  0  0
 35 38  1  0  0  0  0
 35 39  1  0  0  0  0
 35 40  1  0  0  0  0
 11 14  1  0  0  0  0
 11 15  1  0  0  0  0
 11 16  1  0  0  0  0
 42 44  1  0  0  0  0
 42 45  1  0  0  0  0
 42 46  1  0  0  0  0
 21 27  1  0  0  0  0
 21 28  1  0  0  0  0
 32 37  1  0  0  0  0
  8 13  1  0  0  0  0
 18 26  1  0  0  0  0
 24 29  1  0  0  0  0
 24 30  1  0  0  0  0
 41 43  1  0  0  0  0
  7 12  1  0  0  0  0
 31 36  1  0  0  0  0
 17 25  1  0  0  0  0
M  END
$$$$

  -OEChem-05262214473D

 46 45  0     1  0  0  0  0  0999 V2000
   -0.0543    1.9736    3.8406 C   0  0  0  0  0  0  0  0  0  0  0  0
    0.6744    1.6099    4.7562 O   0  0  0  0  0  0  0  0  0  0  0  0
   -0.5599    3.3779    3.8160 C   0  0  0  0  0  0  0  0  0  0  0  0
   -1.5202    3.4885    4.3450 H   0  0  0  0  0  0  0  0  0  0  0  0
    0.1282    4.0814    4.3116 H   0  0  0  0  0  0  0  0  0  0  0  0
   -0.7317    3.7994    2.8126 H   0  0  0  0  0  0  0  0  0  0  0  0
   -0.4812    1.1968    2.7762 N   0  0  0  0  0  0  0  0  0  0  0  0
   -0.1106   -0.1834    2.6051 C   0  0  2  0  0  0  0  0  0  0  0  0
   -0.0696   -0.4775    1.1113 C   0  0  0  0  0  0  0  0  0  0  0  0
   -0.6805    0.1900    0.2792 O   0  0  0  0  0  0  0  0  0  0  0  0
   -1.0852   -1.1101    3.3150 C   0  0  0  0  0  0  0  0  0  0  0  0
   -1.0883    1.6241    2.0791 H   0  0  0  0  0  0  0  0  0  0  0  0
    0.8937   -0.2959    3.0277 H   0  0  0  0  0  0  0  0  0  0  0  0
   -2.0970   -1.0114    2.9051 H   0  0  0  0  0  0  0  0  0  0  0  0
   -0.7860   -2.1580    3.2078 H   0  0  0  0  0  0  0  0  0  0  0  0
   -1.1357   -0.8775    4.3842 H   0  0  0  0  0  0  0  0  0  0  0  0
    0.6950   -1.6003    0.8178 N   0  0  0  0  0  0  0  0  0  0  0  0
    0.8777   -2.0908   -0.5246 C   0  0  2  0  0  0  0  0  0  0  0  0
   -0.4157   -2.7793   -0.9422 C   0  0  0  0  0  0  0  0  0  0  0  0
   -1.3110   -3.0645   -0.1494 O   0  0  0  0  0  0  0  0  0  0  0  0
    2.0580   -3.0575   -0.6219 C   0  0  0  0  0  0  0  0  0  0  0  0
    3.4042   -2.3758   -0.4511 C   0  0  0  0  0  0  0  0  0  0  0  0
    3.6976   -1.2963   -0.9561 O   0  0  0  0  0  0  0  0  0  0  0  0
    4.2626   -3.1061    0.3433 N   0  0  0  0  0  0  0  0  0  0  0  0
    1.1810   -2.0803    1.5718 H   0  0  0  0  0  0  0  0  0  0  0  0
    1.0340   -1.2113   -1.1600 H   0  0  0  0  0  0  0  0  0  0  0  0
    1.9849   -3.8259    0.1581 H   0  0  0  0  0  0  0  0  0  0  0  0
    2.0512   -3.5772   -1.5887 H   0  0  0  0  0  0  0  0  0  0  0  0
    3.9757   -3.9932    0.7433 H   0  0  0  0  0  0  0  0  0  0  0  0
    5.2035   -2.7916    0.5580 H   0  0  0  0  0  0  0  0  0  0  0  0
   -0.4769   -2.9942   -2.3119 N   0  0  0  0  0  0  0  0  0  0  0  0
   -1.6213   -3.6094   -2.9403 C   0  0  2  0  0  0  0  0  0  0  0  0
   -2.8486   -2.7721   -2.6052 C   0  0  0  0  0  0  0  0  0  0  0  0
   -2.9047   -2.0239   -1.6314 O   0  0  0  0  0  0  0  0  0  0  0  0
   -1.8009   -5.0467   -2.4769 C   0  0  0  0  0  0  0  0  0  0  0  0
    0.2984   -2.7069   -2.9019 H   0  0  0  0  0  0  0  0  0  0  0  0
   -1.4426   -3.5804   -4.0206 H   0  0  0  0  0  0  0  0  0  0  0  0
   -1.9811   -5.0958   -1.3968 H   0  0  0  0  0  0  0  0  0  0  0  0
   -2.6524   -5.5210   -2.9759 H   0  0  0  0  0  0  0  0  0  0  0  0
   -0.9057   -5.6402   -2.6918 H   0  0  0  0  0  0  0  0  0  0  0  0
   -3.8892   -2.9912   -3.4970 N   0  0  0  0  0  0  0  0  0  0  0  0
   -5.1653   -2.3240   -3.3852 C   0  0  0  0  0  0  0  0  0  0  0  0
   -3.7479   -3.6147   -4.2863 H   0  0  0  0  0  0  0  0  0  0  0  0
   -5.8548   -2.9467   -2.7964 H   0  0  0  0  0  0  0  0  0  0  0  0
   -5.0291   -1.3540   -2.8847 H   0  0  0  0  0  0  0  0  0  0  0  0
   -5.5838   -2.1628   -4.3896 H   0  0  0  0  0  0  0  0  0  0  0  0
  1  3  1  0  0  0  0
  1  7  1  0  0  0  0
  1  2  2  0  0  0  0
 21 22  1  0  0  0  0
 22 24  1  0  0  0  0
 22 23  2  0  0  0  0
 32 33  1  0  0  0  0
 33 41  1  0  0  0  0
 33 34  2  0  0  0  0
  8  9  1  0  0  0  0
  9 17  1  0  0  0  0
  9 10  2  0  0  0  0
 18 19  1  0  0  0  0
 19 31  1  0  0  0  0
 19 20  2  0  0  0  0
 32 35  1  0  0  0  0
  8 11  1  0  0  0  0
 41 42  1  0  0  0  0
 18 21  1  0  0  0  0
 31 32  1  0  0  0  0
  7  8  1  0  0  0  0
 17 18  1  0  0  0  0
  3  4  1  0  0  0  0
  3  5  1  0  0  0  0
  3  6  1  0  0  0  0
 35 38  1  0  0  0  0
 35 39  1  0  0  0  0
 35 40  1  0  0  0  0
 11 14  1  0  0  0  0
 11 15  1  0  0  0  0
 11 16  1  0  0  0  0
 42 44  1  0  0  0  0
 42 45  1  0  0  0  0
 42 46  1  0  0  0  0
 21 27  1  0  0  0  0
 21 28  1  0  0  0  0
 32 37  1  0  0  0  0
  8 13  1  0  0  0  0
 18 26  1  0  0  0  0
 24 29  1  0  0  0  0
 24 30  1  0  0  0  0
 41 43  1  0  0  0  0
  7 12  1  0  0  0  0
 31 36  1  0  0  0  0
 17 25  1  0  0  0  0
M  END
$$$$

  -OEChem-05262214473D

 46 45  0     1  0  0  0  0  0999 V2000
   -0.0543    1.9736    3.8406 C   0  0  0  0  0  0  0  0  0  0  0  0
    0.6744    1.6099    4.7562 O   0  0  0  0  0  0  0  0  0  0  0  0
   -0.5599    3.3779    3.8160 C   0  0  0  0  0  0  0  0  0  0  0  0
   -1.5202    3.4885    4.3450 H   0  0  0  0  0  0  0  0  0  0  0  0
    0.1282    4.0814    4.3116 H   0  0  0  0  0  0  0  0  0  0  0  0
   -0.7317    3.7994    2.8126 H   0  0  0  0  0  0  0  0  0  0  0  0
   -0.4812    1.1968    2.7762 N   0  0  0  0  0  0  0  0  0  0  0  0
   -0.1106   -0.1834    2.6051 C   0  0  2  0  0  0  0  0  0  0  0  0
   -0.0696   -0.4775    1.1113 C   0  0  0  0  0  0  0  0  0  0  0  0
   -0.6805    0.1900    0.2792 O   0  0  0  0  0  0  0  0  0  0  0  0
   -1.0852   -1.1101    3.3150 C   0  0  0  0  0  0  0  0  0  0  0  0
   -1.0883    1.6241    2.0791 H   0  0  0  0  0  0  0  0  0  0  0  0
    0.8937   -0.2959    3.0277 H   0  0  0  0  0  0  0  0  0  0  0  0
   -2.0970   -1.0114    2.9051 H   0  0  0  0  0  0  0  0  0  0  0  0
   -0.7860   -2.1580    3.2078 H   0  0  0  0  0  0  0  0  0  0  0  0
   -1.1357   -0.8775    4.3842 H   0  0  0  0  0  0  0  0  0  0  0  0
    0.6950   -1.6003    0.8178 N   0  0  0  0  0  0  0  0  0  0  0  0
    0.8777   -2.0908   -0.5246 C   0  0  2  0  0  0  0  0  0  0  0  0
   -0.4989   -2.4356   -1.0791 C   0  0  0  0  0  0  0  0  0  0  0  0
   -1.5403   -2.2561   -0.4509 O   0  0  0  0  0  0  0  0  0  0  0  0
    1.7958   -3.3126   -0.5644 C   0  0  0  0  0  0  0  0  0  0  0  0
    3.2444   -2.9818   -0.2514 C   0  0  0  0  0  0  0  0  0  0  0  0
    3.8332   -1.9948   -0.6824 O   0  0  0  0  0  0  0  0  0  0  0  0
    3.8258   -3.9158    0.5798 N   0  0  0  0  0  0  0  0  0  0  0  0
    1.1810   -2.0803    1.5718 H   0  0  0  0  0  0  0  0  0  0  0  0
    1.2981   -1.2617   -1.1057 H   0  0  0  0  0  0  0  0  0  0  0  0
    1.4691   -4.0573    0.1725 H   0  0  0  0  0  0  0  0  0  0  0  0
    1.7537   -3.7937   -1.5500 H   0  0  0  0  0  0  0  0  0  0  0  0
    3.2991   -4.7154    0.9151 H   0  0  0  0  0  0  0  0  0  0  0  0
    4.7908   -3.8438    0.8863 H   0  0  0  0  0  0  0  0  0  0  0  0
   -0.4346   -2.9212   -2.3776 N   0  0  0  0  0  0  0  0  0  0  0  0
   -1.6182   -3.2894   -3.1170 C   0  0  2  0  0  0  0  0  0  0  0  0
   -2.5292   -2.0708   -3.1836 C   0  0  0  0  0  0  0  0  0  0  0  0
   -2.4687   -1.1433   -2.3792 O   0  0  0  0  0  0  0  0  0  0  0  0
   -2.3312   -4.4664   -2.4696 C   0  0  0  0  0  0  0  0  0  0  0  0
    0.4670   -3.0177   -2.8352 H   0  0  0  0  0  0  0  0  0  0  0  0
   -1.2896   -3.5562   -4.1274 H   0  0  0  0  0  0  0  0  0  0  0  0
   -2.6678   -4.2180   -1.4564 H   0  0  0  0  0  0  0  0  0  0  0  0
   -3.2129   -4.7627   -3.0474 H   0  0  0  0  0  0  0  0  0  0  0  0
   -1.6651   -5.3327   -2.3954 H   0  0  0  0  0  0  0  0  0  0  0  0
   -3.4465   -2.1611   -4.2213 N   0  0  0  0  0  0  0  0  0  0  0  0
   -4.4284   -1.1354   -4.4853 C   0  0  0  0  0  0  0  0  0  0  0  0
   -3.4119   -2.9574   -4.8509 H   0  0  0  0  0  0  0  0  0  0  0  0
   -5.3622   -1.3759   -3.9559 H   0  0  0  0  0  0  0  0  0  0  0  0
   -4.0479   -0.1647   -4.1345 H   0  0  0  0  0  0  0  0  0  0  0  0
   -4.6230   -1.0839   -5.5667 H   0  0  0  0  0  0  0  0  0  0  0  0
  1  3  1  0  0  0  0
  1  7  1  0  0  0  0
  1  2  2  0  0  0  0
 21 22  1  0  0  0  0
 22 24  1  0  0  0  0
 22 23  2  0  0  0  0
 32 33  1  0  0  0  0
 33 41  1  0  0  0  0
 33 34  2  0  0  0  0
  8  9  1  0  0  0  0
  9 17  1  0  0  0  0
  9 10  2  0  0  0  0
 18 19  1  0  0  0  0
 19 31  1  0  0  0  0
 19 20  2  0  0  0  0
 32 35  1  0  0  0  0
  8 11  1  0  0  0  0
 41 42  1  0  0  0  0
 18 21  1  0  0  0  0
 31 32  1  0  0  0  0
  7  8  1  0  0  0  0
 17 18  1  0  0  0  0
  3  4  1  0  0  0  0
  3  5  1  0  0  0  0
  3  6  1  0  0  0  0
 35 38  1  0  0  0  0
 35 39  1  0  0  0  0
 35 40  1  0  0  0  0
 11 14  1  0  0  0  0
 11 15  1  0  0  0  0
 11 16  1  0  0  0  0
 42 44  1  0  0  0  0
 42 45  1  0  0  0  0
 42 46  1  0  0  0  0
 21 27  1  0  0  0  0
 21 28  1  0  0  0  0
 32 37  1  0  0  0  0
  8 13  1  0  0  0  0
 18 26  1  0  0  0  0
 24 29  1  0  0  0  0
 24 30  1  0  0  0  0
 41 43  1  0  0  0  0
  7 12  1  0  0  0  0
 31 36  1  0  0  0  0
 17 25  1  0  0  0  0
M  END
$$$$

  -OEChem-05262214473D

 46 45  0     1  0  0  0  0  0999 V2000
   -0.0543    1.9736    3.8406 C   0  0  0  0  0  0  0  0  0  0  0  0
    0.6744    1.6099    4.7562 O   0  0  0  0  0  0  0  0  0  0  0  0
   -0.5599    3.3779    3.8160 C   0  0  0  0  0  0  0  0  0  0  0  0
   -1.5202    3.4885    4.3450 H   0  0  0  0  0  0  0  0  0  0  0  0
    0.1282    4.0814    4.3116 H   0  0  0  0  0  0  0  0  0  0  0  0
   -0.7317    3.7994    2.8126 H   0  0  0  0  0  0  0  0  0  0  0  0
   -0.4812    1.1968    2.7762 N   0  0  0  0  0  0  0  0  0  0  0  0
   -0.1106   -0.1834    2.6051 C   0  0  2  0  0  0  0  0  0  0  0  0
   -0.0696   -0.4775    1.1113 C   0  0  0  0  0  0  0  0  0  0  0  0
   -0.6805    0.1900    0.2792 O   0  0  0  0  0  0  0  0  0  0  0  0
   -1.0852   -1.1101    3.3150 C   0  0  0  0  0  0  0  0  0  0  0  0
   -1.0883    1.6241    2.0791 H   0  0  0  0  0  0  0  0  0  0  0  0
    0.8937   -0.2959    3.0277 H   0  0  0  0  0  0  0  0  0  0  0  0
   -2.0970   -1.0114    2.9051 H   0  0  0  0  0  0  0  0  0  0  0  0
   -0.7860   -2.1580    3.2078 H   0  0  0  0  0  0  0  0  0  0  0  0
   -1.1357   -0.8775    4.3842 H   0  0  0  0  0  0  0  0  0  0  0  0
    0.6950   -1.6003    0.8178 N   0  0  0  0  0  0  0  0  0  0  0  0
    0.8777   -2.0908   -0.5246 C   0  0  2  0  0  0  0  0  0  0  0  0
   -0.4989   -2.4356   -1.0791 C   0  0  0  0  0  0  0  0  0  0  0  0
   -1.5454   -2.0224   -0.5836 O   0  0  0  0  0  0  0  0  0  0  0  0
    1.7958   -3.3126   -0.5644 C   0  0  0  0  0  0  0  0  0  0  0  0
    3.2444   -2.9818   -0.2514 C   0  0  0  0  0  0  0  0  0  0  0  0
    3.8332   -1.9948   -0.6824 O   0  0  0  0  0  0  0  0  0  0  0  0
    3.8258   -3.9158    0.5798 N   0  0  0  0  0  0  0  0  0  0  0  0
    1.1810   -2.0803    1.5718 H   0  0  0  0  0  0  0  0  0  0  0  0
    1.2981   -1.2617   -1.1057 H   0  0  0  0  0  0  0  0  0  0  0  0
    1.4691   -4.0573    0.1725 H   0  0  0  0  0  0  0  0  0  0  0  0
    1.7537   -3.7937   -1.5500 H   0  0  0  0  0  0  0  0  0  0  0  0
    3.2991   -4.7154    0.9151 H   0  0  0  0  0  0  0  0  0  0  0  0
    4.7908   -3.8438    0.8863 H   0  0  0  0  0  0  0  0  0  0  0  0
   -0.4227   -3.2184   -2.2226 N   0  0  0  0  0  0  0  0  0  0  0  0
   -1.6010   -3.6465   -2.9376 C   0  0  2  0  0  0  0  0  0  0  0  0
   -2.3799   -2.4035   -3.3474 C   0  0  0  0  0  0  0  0  0  0  0  0
   -2.2641   -1.3209   -2.7768 O   0  0  0  0  0  0  0  0  0  0  0  0
   -2.4593   -4.5700   -2.0872 C   0  0  0  0  0  0  0  0  0  0  0  0
    0.4853   -3.4988   -2.5814 H   0  0  0  0  0  0  0  0  0  0  0  0
   -1.2536   -4.1724   -3.8336 H   0  0  0  0  0  0  0  0  0  0  0  0
   -2.8166   -4.0604   -1.1849 H   0  0  0  0  0  0  0  0  0  0  0  0
   -3.3381   -4.9165   -2.6410 H   0  0  0  0  0  0  0  0  0  0  0  0
   -1.8885   -5.4489   -1.7686 H   0  0  0  0  0  0  0  0  0  0  0  0
   -3.2514   -2.6564   -4.3975 N   0  0  0  0  0  0  0  0  0  0  0  0
   -4.1109   -1.6407   -4.9592 C   0  0  0  0  0  0  0  0  0  0  0  0
   -3.2678   -3.5790   -4.8221 H   0  0  0  0  0  0  0  0  0  0  0  0
   -5.0882   -1.6667   -4.4550 H   0  0  0  0  0  0  0  0  0  0  0  0
   -3.6512   -0.6516   -4.8165 H   0  0  0  0  0  0  0  0  0  0  0  0
   -4.2478   -1.8298   -6.0341 H   0  0  0  0  0  0  0  0  0  0  0  0
  1  3  1  0  0  0  0
  1  7  1  0  0  0  0
  1  2  2  0  0  0  0
 21 22  1  0  0  0  0
 22 24  1  0  0  0  0
 22 23  2  0  0  0  0
 32 33  1  0  0  0  0
 33 41  1  0  0  0  0
 33 34  2  0  0  0  0
  8  9  1  0  0  0  0
  9 17  1  0  0  0  0
  9 10  2  0  0  0  0
 18 19  1  0  0  0  0
 19 31  1  0  0  0  0
 19 20  2  0  0  0  0
 32 35  1  0  0  0  0
  8 11  1  0  0  0  0
 41 42  1  0  0  0  0
 18 21  1  0  0  0  0
 31 32  1  0  0  0  0
  7  8  1  0  0  0  0
 17 18  1  0  0  0  0
  3  4  1  0  0  0  0
  3  5  1  0  0  0  0
  3  6  1  0  0  0  0
 35 38  1  0  0  0  0
 35 39  1  0  0  0  0
 35 40  1  0  0  0  0
 11 14  1  0  0  0  0
 11 15  1  0  0  0  0
 11 16  1  0  0  0  0
 42 44  1  0  0  0  0
 42 45  1  0  0  0  0
 42 46  1  0  0  0  0
 21 27  1  0  0  0  0
 21 28  1  0  0  0  0
 32 37  1  0  0  0  0
  8 13  1  0  0  0  0
 18 26  1  0  0  0  0
 24 29  1  0  0  0  0
 24 30  1  0  0  0  0
 41 43  1  0  0  0  0
  7 12  1  0  0  0  0
 31 36  1  0  0  0  0
 17 25  1  0  0  0  0
M  END
$$$$

  -OEChem-05262214473D

 46 45  0     1  0  0  0  0  0999 V2000
   -0.0543    1.9736    3.8406 C   0  0  0  0  0  0  0  0  0  0  0  0
    0.6744    1.6099    4.7562 O   0  0  0  0  0  0  0  0  0  0  0  0
   -0.5599    3.3779    3.8160 C   0  0  0  0  0  0  0  0  0  0  0  0
   -1.5202    3.4885    4.3450 H   0  0  0  0  0  0  0  0  0  0  0  0
    0.1282    4.0814    4.3116 H   0  0  0  0  0  0  0  0  0  0  0  0
   -0.7317    3.7994    2.8126 H   0  0  0  0  0  0  0  0  0  0  0  0
   -0.4812    1.1968    2.7762 N   0  0  0  0  0  0  0  0  0  0  0  0
   -0.1106   -0.1834    2.6051 C   0  0  2  0  0  0  0  0  0  0  0  0
   -0.0696   -0.4775    1.1113 C   0  0  0  0  0  0  0  0  0  0  0  0
   -0.6805    0.1900    0.2792 O   0  0  0  0  0  0  0  0  0  0  0  0
   -1.0852   -1.1101    3.3150 C   0  0  0  0  0  0  0  0  0  0  0  0
   -1.0883    1.6241    2.0791 H   0  0  0  0  0  0  0  0  0  0  0  0
    0.8937   -0.2959    3.0277 H   0  0  0  0  0  0  0  0  0  0  0  0
   -2.0970   -1.0114    2.9051 H   0  0  0  0  0  0  0  0  0  0  0  0
   -0.7860   -2.1580    3.2078 H   0  0  0  0  0  0  0  0  0  0  0  0
   -1.1357   -0.8775    4.3842 H   0  0  0  0  0  0  0  0  0  0  0  0
    0.6950   -1.6003    0.8178 N   0  0  0  0  0  0  0  0  0  0  0  0
    0.8777   -2.0908   -0.5246 C   0  0  2  0  0  0  0  0  0  0  0  0
   -0.4989   -2.4356   -1.0791 C   0  0  0  0  0  0  0  0  0  0  0  0
   -1.5205   -1.8272   -0.7667 O   0  0  0  0  0  0  0  0  0  0  0  0
    1.7958   -3.3126   -0.5644 C   0  0  0  0  0  0  0  0  0  0  0  0
    3.2444   -2.9818   -0.2514 C   0  0  0  0  0  0  0  0  0  0  0  0
    3.8332   -1.9948   -0.6824 O   0  0  0  0  0  0  0  0  0  0  0  0
    3.8258   -3.9158    0.5798 N   0  0  0  0  0  0  0  0  0  0  0  0
    1.1810   -2.0803    1.5718 H   0  0  0  0  0  0  0  0  0  0  0  0
    1.2981   -1.2617   -1.1057 H   0  0  0  0  0  0  0  0  0  0  0  0
    1.4691   -4.0573    0.1725 H   0  0  0  0  0  0  0  0  0  0  0  0
    1.7537   -3.7937   -1.5500 H   0  0  0  0  0  0  0  0  0  0  0  0
    3.2991   -4.7154    0.9151 H   0  0  0  0  0  0  0  0  0  0  0  0
    4.7908   -3.8438    0.8863 H   0  0  0  0  0  0  0  0  0  0  0  0
   -0.4481   -3.4703   -2.0026 N   0  0  0  0  0  0  0  0  0  0  0  0
   -1.6286   -3.9510   -2.6799 C   0  0  2  0  0  0  0  0  0  0  0  0
   -2.2574   -2.7773   -3.4190 C   0  0  0  0  0  0  0  0  0  0  0  0
   -2.0598   -1.6047   -3.1074 O   0  0  0  0  0  0  0  0  0  0  0  0
   -2.6152   -4.5685   -1.7011 C   0  0  0  0  0  0  0  0  0  0  0  0
    0.4427   -3.9058   -2.2227 H   0  0  0  0  0  0  0  0  0  0  0  0
   -1.2941   -4.7022   -3.4036 H   0  0  0  0  0  0  0  0  0  0  0  0
   -2.9615   -3.8308   -0.9681 H   0  0  0  0  0  0  0  0  0  0  0  0
   -3.4973   -4.9583   -2.2198 H   0  0  0  0  0  0  0  0  0  0  0  0
   -2.1520   -5.3934   -1.1490 H   0  0  0  0  0  0  0  0  0  0  0  0
   -3.0993   -3.1944   -4.4405 N   0  0  0  0  0  0  0  0  0  0  0  0
   -3.8241   -2.2695   -5.2802 C   0  0  0  0  0  0  0  0  0  0  0  0
   -3.1888   -4.1863   -4.6406 H   0  0  0  0  0  0  0  0  0  0  0  0
   -4.8218   -2.0901   -4.8532 H   0  0  0  0  0  0  0  0  0  0  0  0
   -3.2739   -1.3187   -5.3382 H   0  0  0  0  0  0  0  0  0  0  0  0
   -3.9283   -2.6949   -6.2893 H   0  0  0  0  0  0  0  0  0  0  0  0
  1  3  1  0  0  0  0
  1  7  1  0  0  0  0
  1  2  2  0  0  0  0
 21 22  1  0  0  0  0
 22 24  1  0  0  0  0
 22 23  2  0  0  0  0
 32 33  1  0  0  0  0
 33 41  1  0  0  0  0
 33 34  2  0  0  0  0
  8  9  1  0  0  0  0
  9 17  1  0  0  0  0
  9 10  2  0  0  0  0
 18 19  1  0  0  0  0
 19 31  1  0  0  0  0
 19 20  2  0  0  0  0
 32 35  1  0  0  0  0
  8 11  1  0  0  0  0
 41 42  1  0  0  0  0
 18 21  1  0  0  0  0
 31 32  1  0  0  0  0
  7  8  1  0  0  0  0
 17 18  1  0  0  0  0
  3  4  1  0  0  0  0
  3  5  1  0  0  0  0
  3  6  1  0  0  0  0
 35 38  1  0  0  0  0
 35 39  1  0  0  0  0
 35 40  1  0  0  0  0
 11 14  1  0  0  0  0
 11 15  1  0  0  0  0
 11 16  1  0  0  0  0
 42 44  1  0  0  0  0
 42 45  1  0  0  0  0
 42 46  1  0  0  0  0
 21 27  1  0  0  0  0
 21 28  1  0  0  0  0
 32 37  1  0  0  0  0
  8 13  1  0  0  0  0
 18 26  1  0  0  0  0
 24 29  1  0  0  0  0
 24 30  1  0  0  0  0
 41 43  1  0  0  0  0
  7 12  1  0  0  0  0
 31 36  1  0  0  0  0
 17 25  1  0  0  0  0
M  END
$$$$

  -OEChem-05262214473D

 46 45  0     1  0  0  0  0  0999 V2000
   -0.0543    1.9736    3.8406 C   0  0  0  0  0  0  0  0  0  0  0  0
    0.6744    1.6099    4.7562 O   0  0  0  0  0  0  0  0  0  0  0  0
   -0.5599    3.3779    3.8160 C   0  0  0  0  0  0  0  0  0  0  0  0
   -1.5202    3.4885    4.3450 H   0  0  0  0  0  0  0  0  0  0  0  0
    0.1282    4.0814    4.3116 H   0  0  0  0  0  0  0  0  0  0  0  0
   -0.7317    3.7994    2.8126 H   0  0  0  0  0  0  0  0  0  0  0  0
   -0.4812    1.1968    2.7762 N   0  0  0  0  0  0  0  0  0  0  0  0
   -0.1106   -0.1834    2.6051 C   0  0  2  0  0  0  0  0  0  0  0  0
   -0.0696   -0.4775    1.1113 C   0  0  0  0  0  0  0  0  0  0  0  0
   -0.6805    0.1900    0.2792 O   0  0  0  0  0  0  0  0  0  0  0  0
   -1.0852   -1.1101    3.3150 C   0  0  0  0  0  0  0  0  0  0  0  0
   -1.0883    1.6241    2.0791 H   0  0  0  0  0  0  0  0  0  0  0  0
    0.8937   -0.2959    3.0277 H   0  0  0  0  0  0  0  0  0  0  0  0
   -2.0970   -1.0114    2.9051 H   0  0  0  0  0  0  0  0  0  0  0  0
   -0.7860   -2.1580    3.2078 H   0  0  0  0  0  0  0  0  0  0  0  0
   -1.1357   -0.8775    4.3842 H   0  0  0  0  0  0  0  0  0  0  0  0
    0.6950   -1.6003    0.8178 N   0  0  0  0  0  0  0  0  0  0  0  0
    0.8777   -2.0908   -0.5246 C   0  0  2  0  0  0  0  0  0  0  0  0
   -0.4989   -2.4356   -1.0791 C   0  0  0  0  0  0  0  0  0  0  0  0
   -1.4673   -1.6838   -0.9878 O   0  0  0  0  0  0  0  0  0  0  0  0
    1.7958   -3.3126   -0.5644 C   0  0  0  0  0  0  0  0  0  0  0  0
    3.2444   -2.9818   -0.2514 C   0  0  0  0  0  0  0  0  0  0  0  0
    3.8332   -1.9948   -0.6824 O   0  0  0  0  0  0  0  0  0  0  0  0
    3.8258   -3.9158    0.5798 N   0  0  0  0  0  0  0  0  0  0  0  0
    1.1810   -2.0803    1.5718 H   0  0  0  0  0  0  0  0  0  0  0  0
    1.2981   -1.2617   -1.1057 H   0  0  0  0  0  0  0  0  0  0  0  0
    1.4691   -4.0573    0.1725 H   0  0  0  0  0  0  0  0  0  0  0  0
    1.7537   -3.7937   -1.5500 H   0  0  0  0  0  0  0  0  0  0  0  0
    3.2991   -4.7154    0.9151 H   0  0  0  0  0  0  0  0  0  0  0  0
    4.7908   -3.8438    0.8863 H   0  0  0  0  0  0  0  0  0  0  0  0
   -0.5094   -3.6598   -1.7327 N   0  0  0  0  0  0  0  0  0  0  0  0
   -1.6990   -4.1823   -2.3613 C   0  0  2  0  0  0  0  0  0  0  0  0
   -2.1701   -3.1666   -3.3937 C   0  0  0  0  0  0  0  0  0  0  0  0
   -1.8699   -1.9754   -3.3483 O   0  0  0  0  0  0  0  0  0  0  0  0
   -2.7883   -4.4621   -1.3377 C   0  0  0  0  0  0  0  0  0  0  0  0
    0.3423   -4.2110   -1.7836 H   0  0  0  0  0  0  0  0  0  0  0  0
   -1.4083   -5.1097   -2.8667 H   0  0  0  0  0  0  0  0  0  0  0  0
   -3.0925   -3.5446   -0.8209 H   0  0  0  0  0  0  0  0  0  0  0  0
   -3.6797   -4.8851   -1.8125 H   0  0  0  0  0  0  0  0  0  0  0  0
   -2.4376   -5.1701   -0.5790 H   0  0  0  0  0  0  0  0  0  0  0  0
   -3.0006   -3.7385   -4.3473 N   0  0  0  0  0  0  0  0  0  0  0  0
   -3.5874   -2.9790   -5.4265 C   0  0  0  0  0  0  0  0  0  0  0  0
   -3.1804   -4.7378   -4.3186 H   0  0  0  0  0  0  0  0  0  0  0  0
   -4.5810   -2.6173   -5.1231 H   0  0  0  0  0  0  0  0  0  0  0  0
   -2.9417   -2.1207   -5.6640 H   0  0  0  0  0  0  0  0  0  0  0  0
   -3.6863   -3.6203   -6.3147 H   0  0  0  0  0  0  0  0  0  0  0  0
  1  3  1  0  0  0  0
  1  7  1  0  0  0  0
  1  2  2  0  0  0  0
 21 22  1  0  0  0  0
 22 24  1  0  0  0  0
 22 23  2  0  0  0  0
 32 33  1  0  0  0  0
 33 41  1  0  0  0  0
 33 34  2  0  0  0  0
  8  9  1  0  0  0  0
  9 17  1  0  0  0  0
  9 10  2  0  0  0  0
 18 19  1  0  0  0  0
 19 31  1  0  0  0  0
 19 20  2  0  0  0  0
 32 35  1  0  0  0  0
  8 11  1  0  0  0  0
 41 42  1  0  0  0  0
 18 21  1  0  0  0  0
 31 32  1  0  0  0  0
  7  8  1  0  0  0  0
 17 18  1  0  0  0  0
  3  4  1  0  0  0  0
  3  5  1  0  0  0  0
  3  6  1  0  0  0  0
 35 38  1  0  0  0  0
 35 39  1  0  0  0  0
 35 40  1  0  0  0  0
 11 14  1  0  0  0  0
 11 15  1  0  0  0  0
 11 16  1  0  0  0  0
 42 44  1  0  0  0  0
 42 45  1  0  0  0  0
 42 46  1  0  0  0  0
 21 27  1  0  0  0  0
 21 28  1  0  0  0  0
 32 37  1  0  0  0  0
  8 13  1  0  0  0  0
 18 26  1  0  0  0  0
 24 29  1  0  0  0  0
 24 30  1  0  0  0  0
 41 43  1  0  0  0  0
  7 12  1  0  0  0  0
 31 36  1  0  0  0  0
 17 25  1  0  0  0  0
M  END
$$$$

  -OEChem-05262214473D

 46 45  0     1  0  0  0  0  0999 V2000
   -0.0543    1.9736    3.8406 C   0  0  0  0  0  0  0  0  0  0  0  0
    0.6744    1.6099    4.7562 O   0  0  0  0  0  0  0  0  0  0  0  0
   -0.5599    3.3779    3.8160 C   0  0  0  0  0  0  0  0  0  0  0  0
   -1.5202    3.4885    4.3450 H   0  0  0  0  0  0  0  0  0  0  0  0
    0.1282    4.0814    4.3116 H   0  0  0  0  0  0  0  0  0  0  0  0
   -0.7317    3.7994    2.8126 H   0  0  0  0  0  0  0  0  0  0  0  0
   -0.4812    1.1968    2.7762 N   0  0  0  0  0  0  0  0  0  0  0  0
   -0.1106   -0.1834    2.6051 C   0  0  2  0  0  0  0  0  0  0  0  0
   -0.0696   -0.4775    1.1113 C   0  0  0  0  0  0  0  0  0  0  0  0
   -0.6805    0.1900    0.2792 O   0  0  0  0  0  0  0  0  0  0  0  0
   -1.0852   -1.1101    3.3150 C   0  0  0  0  0  0  0  0  0  0  0  0
   -1.0883    1.6241    2.0791 H   0  0  0  0  0  0  0  0  0  0  0  0
    0.8937   -0.2959    3.0277 H   0  0  0  0  0  0  0  0  0  0  0  0
   -2.0970   -1.0114    2.9051 H   0  0  0  0  0  0  0  0  0  0  0  0
   -0.7860   -2.1580    3.2078 H   0  0  0  0  0  0  0  0  0  0  0  0
   -1.1357   -0.8775    4.3842 H   0  0  0  0  0  0  0  0  0  0  0  0
    0.6950   -1.6003    0.8178 N   0  0  0  0  0  0  0  0  0  0  0  0
    0.8777   -2.0908   -0.5246 C   0  0  2  0  0  0  0  0  0  0  0  0
   -0.4989   -2.4356   -1.0791 C   0  0  0  0  0  0  0  0  0  0  0  0
   -1.3895   -1.6021   -1.2318 O   0  0  0  0  0  0  0  0  0  0  0  0
    1.7958   -3.3126   -0.5644 C   0  0  0  0  0  0  0  0  0  0  0  0
    3.2444   -2.9818   -0.2514 C   0  0  0  0  0  0  0  0  0  0  0  0
    3.8332   -1.9948   -0.6824 O   0  0  0  0  0  0  0  0  0  0  0  0
    3.8258   -3.9158    0.5798 N   0  0  0  0  0  0  0  0  0  0  0  0
    1.1810   -2.0803    1.5718 H   0  0  0  0  0  0  0  0  0  0  0  0
    1.2981   -1.2617   -1.1057 H   0  0  0  0  0  0  0  0  0  0  0  0
    1.4691   -4.0573    0.1725 H   0  0  0  0  0  0  0  0  0  0  0  0
    1.7537   -3.7937   -1.5500 H   0  0  0  0  0  0  0  0  0  0  0  0
    3.2991   -4.7154    0.9151 H   0  0  0  0  0  0  0  0  0  0  0  0
    4.7908   -3.8438    0.8863 H   0  0  0  0  0  0  0  0  0  0  0  0
   -0.6022   -3.7740   -1.4313 N   0  0  0  0  0  0  0  0  0  0  0  0
   -1.8074   -4.3245   -2.0036 C   0  0  2  0  0  0  0  0  0  0  0  0
   -2.1240   -3.5449   -3.2730 C   0  0  0  0  0  0  0  0  0  0  0  0
   -1.7072   -2.4077   -3.4833 O   0  0  0  0  0  0  0  0  0  0  0  0
   -2.9667   -4.2581   -1.0216 C   0  0  0  0  0  0  0  0  0  0  0  0
    0.1908   -4.3937   -1.2939 H   0  0  0  0  0  0  0  0  0  0  0  0
   -1.5885   -5.3669   -2.2595 H   0  0  0  0  0  0  0  0  0  0  0  0
   -3.2007   -3.2214   -0.7534 H   0  0  0  0  0  0  0  0  0  0  0  0
   -3.8729   -4.7020   -1.4469 H   0  0  0  0  0  0  0  0  0  0  0  0
   -2.7258   -4.7942   -0.0973 H   0  0  0  0  0  0  0  0  0  0  0  0
   -2.9619   -4.2516   -4.1243 N   0  0  0  0  0  0  0  0  0  0  0  0
   -3.4171   -3.7208   -5.3880 C   0  0  0  0  0  0  0  0  0  0  0  0
   -3.2430   -5.1961   -3.8780 H   0  0  0  0  0  0  0  0  0  0  0  0
   -4.3822   -3.2124   -5.2464 H   0  0  0  0  0  0  0  0  0  0  0  0
   -2.6774   -3.0028   -5.7717 H   0  0  0  0  0  0  0  0  0  0  0  0
   -3.5381   -4.5430   -6.1086 H   0  0  0  0  0  0  0  0  0  0  0  0
  1  3  1  0  0  0  0
  1  7  1  0  0  0  0
  1  2  2  0  0  0  0
 21 22  1  0  0  0  0
 22 24  1  0  0  0  0
 22 23  2  0  0  0  0
 32 33  1  0  0  0  0
 33 41  1  0  0  0  0
 33 34  2  0  0  0  0
  8  9  1  0  0  0  0
  9 17  1  0  0  0  0
  9 10  2  0  0  0  0
 18 19  1  0  0  0  0
 19 31  1  0  0  0  0
 19 20  2  0  0  0  0
 32 35  1  0  0  0  0
  8 11  1  0  0  0  0
 41 42  1  0  0  0  0
 18 21  1  0  0  0  0
 31 32  1  0  0  0  0
  7  8  1  0  0  0  0
 17 18  1  0  0  0  0
  3  4  1  0  0  0  0
  3  5  1  0  0  0  0
  3  6  1  0  0  0  0
 35 38  1  0  0  0  0
 35 39  1  0  0  0  0
 35 40  1  0  0  0  0
 11 14  1  0  0  0  0
 11 15  1  0  0  0  0
 11 16  1  0  0  0  0
 42 44  1  0  0  0  0
 42 45  1  0  0  0  0
 42 46  1  0  0  0  0
 21 27  1  0  0  0  0
 21 28  1  0  0  0  0
 32 37  1  0  0  0  0
  8 13  1  0  0  0  0
 18 26  1  0  0  0  0
 24 29  1  0  0  0  0
 24 30  1  0  0  0  0
 41 43  1  0  0  0  0
  7 12  1  0  0  0  0
 31 36  1  0  0  0  0
 17 25  1  0  0  0  0
M  END
$$$$

  -OEChem-05262214473D

 46 45  0     1  0  0  0  0  0999 V2000
   -0.0543    1.9736    3.8406 C   0  0  0  0  0  0  0  0  0  0  0  0
    0.6744    1.6099    4.7562 O   0  0  0  0  0  0  0  0  0  0  0  0
   -0.5599    3.3779    3.8160 C   0  0  0  0  0  0  0  0  0  0  0  0
   -1.5202    3.4885    4.3450 H   0  0  0  0  0  0  0  0  0  0  0  0
    0.1282    4.0814    4.3116 H   0  0  0  0  0  0  0  0  0  0  0  0
   -0.7317    3.7994    2.8126 H   0  0  0  0  0  0  0  0  0  0  0  0
   -0.4812    1.1968    2.7762 N   0  0  0  0  0  0  0  0  0  0  0  0
   -0.1106   -0.1834    2.6051 C   0  0  2  0  0  0  0  0  0  0  0  0
   -0.0696   -0.4775    1.1113 C   0  0  0  0  0  0  0  0  0  0  0  0
   -0.6805    0.1900    0.2792 O   0  0  0  0  0  0  0  0  0  0  0  0
   -1.0852   -1.1101    3.3150 C   0  0  0  0  0  0  0  0  0  0  0  0
   -1.0883    1.6241    2.0791 H   0  0  0  0  0  0  0  0  0  0  0  0
    0.8937   -0.2959    3.0277 H   0  0  0  0  0  0  0  0  0  0  0  0
   -2.0970   -1.0114    2.9051 H   0  0  0  0  0  0  0  0  0  0  0  0
   -0.7860   -2.1580    3.2078 H   0  0  0  0  0  0  0  0  0  0  0  0
   -1.1357   -0.8775    4.3842 H   0  0  0  0  0  0  0  0  0  0  0  0
    0.6950   -1.6003    0.8178 N   0  0  0  0  0  0  0  0  0  0  0  0
    0.8777   -2.0908   -0.5246 C   0  0  2  0  0  0  0  0  0  0  0  0
   -0.4989   -2.4356   -1.0791 C   0  0  0  0  0  0  0  0  0  0  0  0
   -1.2924   -1.5875   -1.4820 O   0  0  0  0  0  0  0  0  0  0  0  0
    1.7958   -3.3126   -0.5644 C   0  0  0  0  0  0  0  0  0  0  0  0
    3.2444   -2.9818   -0.2514 C   0  0  0  0  0  0  0  0  0  0  0  0
    3.8332   -1.9948   -0.6824 O   0  0  0  0  0  0  0  0  0  0  0  0
    3.8258   -3.9158    0.5798 N   0  0  0  0  0  0  0  0  0  0  0  0
    1.1810   -2.0803    1.5718 H   0  0  0  0  0  0  0  0  0  0  0  0
    1.2981   -1.2617   -1.1057 H   0  0  0  0  0  0  0  0  0  0  0  0
    1.4691   -4.0573    0.1725 H   0  0  0  0  0  0  0  0  0  0  0  0
    1.7537   -3.7937   -1.5500 H   0  0  0  0  0  0  0  0  0  0  0  0
    3.2991   -4.7154    0.9151 H   0  0  0  0  0  0  0  0  0  0  0  0
    4.7908   -3.8438    0.8863 H   0  0  0  0  0  0  0  0  0  0  0  0
   -0.7203   -3.8051   -1.1189 N   0  0  0  0  0  0  0  0  0  0  0  0
   -1.9465   -4.3681   -1.6312 C   0  0  2  0  0  0  0  0  0  0  0  0
   -2.1221   -3.8864   -3.0653 C   0  0  0  0  0  0  0  0  0  0  0  0
   -1.5829   -2.8721   -3.5030 O   0  0  0  0  0  0  0  0  0  0  0  0
   -3.1384   -3.9703   -0.7745 C   0  0  0  0  0  0  0  0  0  0  0  0
   -0.0014   -4.4414   -0.7870 H   0  0  0  0  0  0  0  0  0  0  0  0
   -1.8223   -5.4564   -1.6235 H   0  0  0  0  0  0  0  0  0  0  0  0
   -3.2787   -2.8832   -0.7700 H   0  0  0  0  0  0  0  0  0  0  0  0
   -4.0636   -4.4214   -1.1478 H   0  0  0  0  0  0  0  0  0  0  0  0
   -2.9970   -4.2914    0.2632 H   0  0  0  0  0  0  0  0  0  0  0  0
   -2.9859   -4.6986   -3.7866 N   0  0  0  0  0  0  0  0  0  0  0  0
   -3.3247   -4.4443   -5.1674 C   0  0  0  0  0  0  0  0  0  0  0  0
   -3.3725   -5.5298   -3.3491 H   0  0  0  0  0  0  0  0  0  0  0  0
   -4.2391   -3.8347   -5.2148 H   0  0  0  0  0  0  0  0  0  0  0  0
   -2.4988   -3.9049   -5.6540 H   0  0  0  0  0  0  0  0  0  0  0  0
   -3.4940   -5.3999   -5.6852 H   0  0  0  0  0  0  0  0  0  0  0  0
  1  3  1  0  0  0  0
  1  7  1  0  0  0  0
  1  2  2  0  0  0  0
 21 22  1  0  0  0  0
 22 24  1  0  0  0  0
 22 23  2  0  0  0  0
 32 33  1  0  0  0  0
 33 41  1  0  0  0  0
 33 34  2  0  0  0  0
  8  9  1  0  0  0  0
  9 17  1  0  0  0  0
  9 10  2  0  0  0  0
 18 19  1  0  0  0  0
 19 31  1  0  0  0  0
 19 20  2  0  0  0  0
 32 35  1  0  0  0  0
  8 11  1  0  0  0  0
 41 42  1  0  0  0  0
 18 21  1  0  0  0  0
 31 32  1  0  0  0  0
  7  8  1  0  0  0  0
 17 18  1  0  0  0  0
  3  4  1  0  0  0  0
  3  5  1  0  0  0  0
  3  6  1  0  0  0  0
 35 38  1  0  0  0  0
 35 39  1  0  0  0  0
 35 40  1  0  0  0  0
 11 14  1  0  0  0  0
 11 15  1  0  0  0  0
 11 16  1  0  0  0  0
 42 44  1  0  0  0  0
 42 45  1  0  0  0  0
 42 46  1  0  0  0  0
 21 27  1  0  0  0  0
 21 28  1  0  0  0  0
 32 37  1  0  0  0  0
  8 13  1  0  0  0  0
 18 26  1  0  0  0  0
 24 29  1  0  0  0  0
 24 30  1  0  0  0  0
 41 43  1  0  0  0  0
  7 12  1  0  0  0  0
 31 36  1  0  0  0  0
 17 25  1  0  0  0  0
M  END
$$$$

  -OEChem-05262214473D

 46 45  0     1  0  0  0  0  0999 V2000
   -0.0543    1.9736    3.8406 C   0  0  0  0  0  0  0  0  0  0  0  0
    0.6744    1.6099    4.7562 O   0  0  0  0  0  0  0  0  0  0  0  0
   -0.5599    3.3779    3.8160 C   0  0  0  0  0  0  0  0  0  0  0  0
   -1.5202    3.4885    4.3450 H   0  0  0  0  0  0  0  0  0  0  0  0
    0.1282    4.0814    4.3116 H   0  0  0  0  0  0  0  0  0  0  0  0
   -0.7317    3.7994    2.8126 H   0  0  0  0  0  0  0  0  0  0  0  0
   -0.4812    1.1968    2.7762 N   0  0  0  0  0  0  0  0  0  0  0  0
   -0.1106   -0.1834    2.6051 C   0  0  2  0  0  0  0  0  0  0  0  0
   -0.0696   -0.4775    1.1113 C   0  0  0  0  0  0  0  0  0  0  0  0
   -0.6805    0.1900    0.2792 O   0  0  0  0  0  0  0  0  0  0  0  0
   -1.0852   -1.1101    3.3150 C   0  0  0  0  0  0  0  0  0  0  0  0
   -1.0883    1.6241    2.0791 H   0  0  0  0  0  0  0  0  0  0  0  0
    0.8937   -0.2959    3.0277 H   0  0  0  0  0  0  0  0  0  0  0  0
   -2.0970   -1.0114    2.9051 H   0  0  0  0  0  0  0  0  0  0  0  0
   -0.7860   -2.1580    3.2078 H   0  0  0  0  0  0  0  0  0  0  0  0
   -1.1357   -0.8775    4.3842 H   0  0  0  0  0  0  0  0  0  0  0  0
    0.6950   -1.6003    0.8178 N   0  0  0  0  0  0  0  0  0  0  0  0
    0.8777   -2.0908   -0.5246 C   0  0  2  0  0  0  0  0  0  0  0  0
   -0.4989   -2.4356   -1.0791 C   0  0  0  0  0  0  0  0  0  0  0  0
   -1.1825   -1.6410   -1.7215 O   0  0  0  0  0  0  0  0  0  0  0  0
    1.7958   -3.3126   -0.5644 C   0  0  0  0  0  0  0  0  0  0  0  0
    3.2444   -2.9818   -0.2514 C   0  0  0  0  0  0  0  0  0  0  0  0
    3.8332   -1.9948   -0.6824 O   0  0  0  0  0  0  0  0  0  0  0  0
    3.8258   -3.9158    0.5798 N   0  0  0  0  0  0  0  0  0  0  0  0
    1.1810   -2.0803    1.5718 H   0  0  0  0  0  0  0  0  0  0  0  0
    1.2981   -1.2617   -1.1057 H   0  0  0  0  0  0  0  0  0  0  0  0
    1.4691   -4.0573    0.1725 H   0  0  0  0  0  0  0  0  0  0  0  0
    1.7537   -3.7937   -1.5500 H   0  0  0  0  0  0  0  0  0  0  0  0
    3.2991   -4.7154    0.9151 H   0  0  0  0  0  0  0  0  0  0  0  0
    4.7908   -3.8438    0.8863 H   0  0  0  0  0  0  0  0  0  0  0  0
   -0.8556   -3.7509   -0.8168 N   0  0  0  0  0  0  0  0  0  0  0  0
   -2.1068   -4.3100   -1.2694 C   0  0  2  0  0  0  0  0  0  0  0  0
   -2.1646   -4.1680   -2.7847 C   0  0  0  0  0  0  0  0  0  0  0  0
   -1.5055   -3.3370   -3.4061 O   0  0  0  0  0  0  0  0  0  0  0  0
   -3.2915   -3.6183   -0.6131 C   0  0  0  0  0  0  0  0  0  0  0  0
   -0.2213   -4.3508   -0.2975 H   0  0  0  0  0  0  0  0  0  0  0  0
   -2.0938   -5.3722   -1.0018 H   0  0  0  0  0  0  0  0  0  0  0  0
   -3.3212   -2.5531   -0.8697 H   0  0  0  0  0  0  0  0  0  0  0  0
   -4.2389   -4.0625   -0.9358 H   0  0  0  0  0  0  0  0  0  0  0  0
   -3.2327   -3.6958    0.4779 H   0  0  0  0  0  0  0  0  0  0  0  0
   -3.0710   -5.0492   -3.3573 N   0  0  0  0  0  0  0  0  0  0  0  0
   -3.3166   -5.1004   -4.7796 C   0  0  0  0  0  0  0  0  0  0  0  0
   -3.5600   -5.7163   -2.7676 H   0  0  0  0  0  0  0  0  0  0  0  0
   -4.1613   -4.4419   -5.0303 H   0  0  0  0  0  0  0  0  0  0  0  0
   -2.4182   -4.7656   -5.3189 H   0  0  0  0  0  0  0  0  0  0  0  0
   -3.5570   -6.1328   -5.0732 H   0  0  0  0  0  0  0  0  0  0  0  0
  1  3  1  0  0  0  0
  1  7  1  0  0  0  0
  1  2  2  0  0  0  0
 21 22  1  0  0  0  0
 22 24  1  0  0  0  0
 22 23  2  0  0  0  0
 32 33  1  0  0  0  0
 33 41  1  0  0  0  0
 33 34  2  0  0  0  0
  8  9  1  0  0  0  0
  9 17  1  0  0  0  0
  9 10  2  0  0  0  0
 18 19  1  0  0  0  0
 19 31  1  0  0  0  0
 19 20  2  0  0  0  0
 32 35  1  0  0  0  0
  8 11  1  0  0  0  0
 41 42  1  0  0  0  0
 18 21  1  0  0  0  0
 31 32  1  0  0  0  0
  7  8  1  0  0  0  0
 17 18  1  0  0  0  0
  3  4  1  0  0  0  0
  3  5  1  0  0  0  0
  3  6  1  0  0  0  0
 35 38  1  0  0  0  0
 35 39  1  0  0  0  0
 35 40  1  0  0  0  0
 11 14  1  0  0  0  0
 11 15  1  0  0  0  0
 11 16  1  0  0  0  0
 42 44  1  0  0  0  0
 42 45  1  0  0  0  0
 42 46  1  0  0  0  0
 21 27  1  0  0  0  0
 21 28  1  0  0  0  0
 32 37  1  0  0  0  0
  8 13  1  0  0  0  0
 18 26  1  0  0  0  0
 24 29  1  0  0  0  0
 24 30  1  0  0  0  0
 41 43  1  0  0  0  0
  7 12  1  0  0  0  0
 31 36  1  0  0  0  0
 17 25  1  0  0  0  0
M  END
$$$$

  -OEChem-05262214473D

 46 45  0     1  0  0  0  0  0999 V2000
   -0.0543    1.9736    3.8406 C   0  0  0  0  0  0  0  0  0  0  0  0
    0.6744    1.6099    4.7562 O   0  0  0  0  0  0  0  0  0  0  0  0
   -0.5599    3.3779    3.8160 C   0  0  0  0  0  0  0  0  0  0  0  0
   -1.5202    3.4885    4.3450 H   0  0  0  0  0  0  0  0  0  0  0  0
    0.1282    4.0814    4.3116 H   0  0  0  0  0  0  0  0  0  0  0  0
   -0.7317    3.7994    2.8126 H   0  0  0  0  0  0  0  0  0  0  0  0
   -0.4812    1.1968    2.7762 N   0  0  0  0  0  0  0  0  0  0  0  0
   -0.1106   -0.1834    2.6051 C   0  0  2  0  0  0  0  0  0  0  0  0
   -0.0696   -0.4775    1.1113 C   0  0  0  0  0  0  0  0  0  0  0  0
   -0.6805    0.1900    0.2792 O   0  0  0  0  0  0  0  0  0  0  0  0
   -1.0852   -1.1101    3.3150 C   0  0  0  0  0  0  0  0  0  0  0  0
   -1.0883    1.6241    2.0791 H   0  0  0  0  0  0  0  0  0  0  0  0
    0.8937   -0.2959    3.0277 H   0  0  0  0  0  0  0  0  0  0  0  0
   -2.0970   -1.0114    2.9051 H   0  0  0  0  0  0  0  0  0  0  0  0
   -0.7860   -2.1580    3.2078 H   0  0  0  0  0  0  0  0  0  0  0  0
   -1.1357   -0.8775    4.3842 H   0  0  0  0  0  0  0  0  0  0  0  0
    0.6950   -1.6003    0.8178 N   0  0  0  0  0  0  0  0  0  0  0  0
    0.8777   -2.0908   -0.5246 C   0  0  2  0  0  0  0  0  0  0  0  0
   -0.4989   -2.4356   -1.0791 C   0  0  0  0  0  0  0  0  0  0  0  0
   -1.0674   -1.7591   -1.9338 O   0  0  0  0  0  0  0  0  0  0  0  0
    1.7958   -3.3126   -0.5644 C   0  0  0  0  0  0  0  0  0  0  0  0
    3.2444   -2.9818   -0.2514 C   0  0  0  0  0  0  0  0  0  0  0  0
    3.8332   -1.9948   -0.6824 O   0  0  0  0  0  0  0  0  0  0  0  0
    3.8258   -3.9158    0.5798 N   0  0  0  0  0  0  0  0  0  0  0  0
    1.1810   -2.0803    1.5718 H   0  0  0  0  0  0  0  0  0  0  0  0
    1.2981   -1.2617   -1.1057 H   0  0  0  0  0  0  0  0  0  0  0  0
    1.4691   -4.0573    0.1725 H   0  0  0  0  0  0  0  0  0  0  0  0
    1.7537   -3.7937   -1.5500 H   0  0  0  0  0  0  0  0  0  0  0  0
    3.2991   -4.7154    0.9151 H   0  0  0  0  0  0  0  0  0  0  0  0
    4.7908   -3.8438    0.8863 H   0  0  0  0  0  0  0  0  0  0  0  0
   -0.9988   -3.6152   -0.5456 N   0  0  0  0  0  0  0  0  0  0  0  0
   -2.2774   -4.1542   -0.9430 C   0  0  2  0  0  0  0  0  0  0  0  0
   -2.2486   -4.3703   -2.4503 C   0  0  0  0  0  0  0  0  0  0  0  0
   -1.4801   -3.7708   -3.1994 O   0  0  0  0  0  0  0  0  0  0  0  0
   -3.4158   -3.2262   -0.5485 C   0  0  0  0  0  0  0  0  0  0  0  0
   -0.4538   -4.1282    0.1412 H   0  0  0  0  0  0  0  0  0  0  0  0
   -2.3846   -5.1198   -0.4370 H   0  0  0  0  0  0  0  0  0  0  0  0
   -3.3253   -2.2535   -1.0458 H   0  0  0  0  0  0  0  0  0  0  0  0
   -4.3869   -3.6497   -0.8252 H   0  0  0  0  0  0  0  0  0  0  0  0
   -3.4168   -3.0481    0.5322 H   0  0  0  0  0  0  0  0  0  0  0  0
   -3.2114   -5.2795   -2.8656 N   0  0  0  0  0  0  0  0  0  0  0  0
   -3.3932   -5.6441   -4.2512 C   0  0  0  0  0  0  0  0  0  0  0  0
   -3.7928   -5.7428   -2.1734 H   0  0  0  0  0  0  0  0  0  0  0  0
   -4.1541   -4.9926   -4.7056 H   0  0  0  0  0  0  0  0  0  0  0  0
   -2.4410   -5.5262   -4.7892 H   0  0  0  0  0  0  0  0  0  0  0  0
   -3.7227   -6.6917   -4.3144 H   0  0  0  0  0  0  0  0  0  0  0  0
  1  3  1  0  0  0  0
  1  7  1  0  0  0  0
  1  2  2  0  0  0  0
 21 22  1  0  0  0  0
 22 24  1  0  0  0  0
 22 23  2  0  0  0  0
 32 33  1  0  0  0  0
 33 41  1  0  0  0  0
 33 34  2  0  0  0  0
  8  9  1  0  0  0  0
  9 17  1  0  0  0  0
  9 10  2  0  0  0  0
 18 19  1  0  0  0  0
 19 31  1  0  0  0  0
 19 20  2  0  0  0  0
 32 35  1  0  0  0  0
  8 11  1  0  0  0  0
 41 42  1  0  0  0  0
 18 21  1  0  0  0  0
 31 32  1  0  0  0  0
  7  8  1  0  0  0  0
 17 18  1  0  0  0  0
  3  4  1  0  0  0  0
  3  5  1  0  0  0  0
  3  6  1  0  0  0  0
 35 38  1  0  0  0  0
 35 39  1  0  0  0  0
 35 40  1  0  0  0  0
 11 14  1  0  0  0  0
 11 15  1  0  0  0  0
 11 16  1  0  0  0  0
 42 44  1  0  0  0  0
 42 45  1  0  0  0  0
 42 46  1  0  0  0  0
 21 27  1  0  0  0  0
 21 28  1  0  0  0  0
 32 37  1  0  0  0  0
  8 13  1  0  0  0  0
 18 26  1  0  0  0  0
 24 29  1  0  0  0  0
 24 30  1  0  0  0  0
 41 43  1  0  0  0  0
  7 12  1  0  0  0  0
 31 36  1  0  0  0  0
 17 25  1  0  0  0  0
M  END
$$$$

  -OEChem-05262214473D

 46 45  0     1  0  0  0  0  0999 V2000
   -0.0543    1.9736    3.8406 C   0  0  0  0  0  0  0  0  0  0  0  0
    0.6744    1.6099    4.7562 O   0  0  0  0  0  0  0  0  0  0  0  0
   -0.5599    3.3779    3.8160 C   0  0  0  0  0  0  0  0  0  0  0  0
   -1.5202    3.4885    4.3450 H   0  0  0  0  0  0  0  0  0  0  0  0
    0.1282    4.0814    4.3116 H   0  0  0  0  0  0  0  0  0  0  0  0
   -0.7317    3.7994    2.8126 H   0  0  0  0  0  0  0  0  0  0  0  0
   -0.4812    1.1968    2.7762 N   0  0  0  0  0  0  0  0  0  0  0  0
   -0.1106   -0.1834    2.6051 C   0  0  2  0  0  0  0  0  0  0  0  0
   -0.0696   -0.4775    1.1113 C   0  0  0  0  0  0  0  0  0  0  0  0
   -0.6805    0.1900    0.2792 O   0  0  0  0  0  0  0  0  0  0  0  0
   -1.0852   -1.1101    3.3150 C   0  0  0  0  0  0  0  0  0  0  0  0
   -1.0883    1.6241    2.0791 H   0  0  0  0  0  0  0  0  0  0  0  0
    0.8937   -0.2959    3.0277 H   0  0  0  0  0  0  0  0  0  0  0  0
   -2.0970   -1.0114    2.9051 H   0  0  0  0  0  0  0  0  0  0  0  0
   -0.7860   -2.1580    3.2078 H   0  0  0  0  0  0  0  0  0  0  0  0
   -1.1357   -0.8775    4.3842 H   0  0  0  0  0  0  0  0  0  0  0  0
    0.6950   -1.6003    0.8178 N   0  0  0  0  0  0  0  0  0  0  0  0
    0.8777   -2.0908   -0.5246 C   0  0  2  0  0  0  0  0  0  0  0  0
   -0.4989   -2.4356   -1.0791 C   0  0  0  0  0  0  0  0  0  0  0  0
   -0.9549   -1.9336   -2.1045 O   0  0  0  0  0  0  0  0  0  0  0  0
    1.7958   -3.3126   -0.5644 C   0  0  0  0  0  0  0  0  0  0  0  0
    3.2444   -2.9818   -0.2514 C   0  0  0  0  0  0  0  0  0  0  0  0
    3.8332   -1.9948   -0.6824 O   0  0  0  0  0  0  0  0  0  0  0  0
    3.8258   -3.9158    0.5798 N   0  0  0  0  0  0  0  0  0  0  0  0
    1.1810   -2.0803    1.5718 H   0  0  0  0  0  0  0  0  0  0  0  0
    1.2981   -1.2617   -1.1057 H   0  0  0  0  0  0  0  0  0  0  0  0
    1.4691   -4.0573    0.1725 H   0  0  0  0  0  0  0  0  0  0  0  0
    1.7537   -3.7937   -1.5500 H   0  0  0  0  0  0  0  0  0  0  0  0
    3.2991   -4.7154    0.9151 H   0  0  0  0  0  0  0  0  0  0  0  0
    4.7908   -3.8438    0.8863 H   0  0  0  0  0  0  0  0  0  0  0  0
   -1.1403   -3.4072   -0.3237 N   0  0  0  0  0  0  0  0  0  0  0  0
   -2.4465   -3.9112   -0.6741 C   0  0  2  0  0  0  0  0  0  0  0  0
   -2.3684   -4.4796   -2.0849 C   0  0  0  0  0  0  0  0  0  0  0  0
   -1.5086   -4.1438   -2.8967 O   0  0  0  0  0  0  0  0  0  0  0  0
   -3.5026   -2.8206   -0.5851 C   0  0  0  0  0  0  0  0  0  0  0  0
   -0.6832   -3.7886    0.4993 H   0  0  0  0  0  0  0  0  0  0  0  0
   -2.6748   -4.7166    0.0326 H   0  0  0  0  0  0  0  0  0  0  0  0
   -3.2908   -2.0049   -1.2861 H   0  0  0  0  0  0  0  0  0  0  0  0
   -4.4974   -3.2112   -0.8235 H   0  0  0  0  0  0  0  0  0  0  0  0
   -3.5368   -2.3925    0.4225 H   0  0  0  0  0  0  0  0  0  0  0  0
   -3.3975   -5.3737   -2.3451 N   0  0  0  0  0  0  0  0  0  0  0  0
   -3.5494   -6.0386   -3.6182 C   0  0  0  0  0  0  0  0  0  0  0  0
   -4.0549   -5.6075   -1.6069 H   0  0  0  0  0  0  0  0  0  0  0  0
   -4.2181   -5.4493   -4.2628 H   0  0  0  0  0  0  0  0  0  0  0  0
   -2.5658   -6.1348   -4.1011 H   0  0  0  0  0  0  0  0  0  0  0  0
   -3.9798   -7.0385   -3.4604 H   0  0  0  0  0  0  0  0  0  0  0  0
  1  3  1  0  0  0  0
  1  7  1  0  0  0  0
  1  2  2  0  0  0  0
 21 22  1  0  0  0  0
 22 24  1  0  0  0  0
 22 23  2  0  0  0  0
 32 33  1  0  0  0  0
 33 41  1  0  0  0  0
 33 34  2  0  0  0  0
  8  9  1  0  0  0  0
  9 17  1  0  0  0  0
  9 10  2  0  0  0  0
 18 19  1  0  0  0  0
 19 31  1  0  0  0  0
 19 20  2  0  0  0  0
 32 35  1  0  0  0  0
  8 11  1  0  0  0  0
 41 42  1  0  0  0  0
 18 21  1  0  0  0  0
 31 32  1  0  0  0  0
  7  8  1  0  0  0  0
 17 18  1  0  0  0  0
  3  4  1  0  0  0  0
  3  5  1  0  0  0  0
  3  6  1  0  0  0  0
 35 38  1  0  0  0  0
 35 39  1  0  0  0  0
 35 40  1  0  0  0  0
 11 14  1  0  0  0  0
 11 15  1  0  0  0  0
 11 16  1  0  0  0  0
 42 44  1  0  0  0  0
 42 45  1  0  0  0  0
 42 46  1  0  0  0  0
 21 27  1  0  0  0  0
 21 28  1  0  0  0  0
 32 37  1  0  0  0  0
  8 13  1  0  0  0  0
 18 26  1  0  0  0  0
 24 29  1  0  0  0  0
 24 30  1  0  0  0  0
 41 43  1  0  0  0  0
  7 12  1  0  0  0  0
 31 36  1  0  0  0  0
 17 25  1  0  0  0  0
M  END
$$$$

  -OEChem-05262214473D

 46 45  0     1  0  0  0  0  0999 V2000
   -0.0543    1.9736    3.8406 C   0  0  0  0  0  0  0  0  0  0  0  0
    0.6744    1.6099    4.7562 O   0  0  0  0  0  0  0  0  0  0  0  0
   -0.5599    3.3779    3.8160 C   0  0  0  0  0  0  0  0  0  0  0  0
   -1.5202    3.4885    4.3450 H   0  0  0  0  0  0  0  0  0  0  0  0
    0.1282    4.0814    4.3116 H   0  0  0  0  0  0  0  0  0  0  0  0
   -0.7317    3.7994    2.8126 H   0  0  0  0  0  0  0  0  0  0  0  0
   -0.4812    1.1968    2.7762 N   0  0  0  0  0  0  0  0  0  0  0  0
   -0.1106   -0.1834    2.6051 C   0  0  2  0  0  0  0  0  0  0  0  0
   -0.0696   -0.4775    1.1113 C   0  0  0  0  0  0  0  0  0  0  0  0
   -0.6805    0.1900    0.2792 O   0  0  0  0  0  0  0  0  0  0  0  0
   -1.0852   -1.1101    3.3150 C   0  0  0  0  0  0  0  0  0  0  0  0
   -1.0883    1.6241    2.0791 H   0  0  0  0  0  0  0  0  0  0  0  0
    0.8937   -0.2959    3.0277 H   0  0  0  0  0  0  0  0  0  0  0  0
   -2.0970   -1.0114    2.9051 H   0  0  0  0  0  0  0  0  0  0  0  0
   -0.7860   -2.1580    3.2078 H   0  0  0  0  0  0  0  0  0  0  0  0
   -1.1357   -0.8775    4.3842 H   0  0  0  0  0  0  0  0  0  0  0  0
    0.6950   -1.6003    0.8178 N   0  0  0  0  0  0  0  0  0  0  0  0
    0.8777   -2.0908   -0.5246 C   0  0  2  0  0  0  0  0  0  0  0  0
   -0.4989   -2.4356   -1.0791 C   0  0  0  0  0  0  0  0  0  0  0  0
   -0.8527   -2.1527   -2.2220 O   0  0  0  0  0  0  0  0  0  0  0  0
    1.7958   -3.3126   -0.5644 C   0  0  0  0  0  0  0  0  0  0  0  0
    3.2444   -2.9818   -0.2514 C   0  0  0  0  0  0  0  0  0  0  0  0
    3.8332   -1.9948   -0.6824 O   0  0  0  0  0  0  0  0  0  0  0  0
    3.8258   -3.9158    0.5798 N   0  0  0  0  0  0  0  0  0  0  0  0
    1.1810   -2.0803    1.5718 H   0  0  0  0  0  0  0  0  0  0  0  0
    1.2981   -1.2617   -1.1057 H   0  0  0  0  0  0  0  0  0  0  0  0
    1.4691   -4.0573    0.1725 H   0  0  0  0  0  0  0  0  0  0  0  0
    1.7537   -3.7937   -1.5500 H   0  0  0  0  0  0  0  0  0  0  0  0
    3.2991   -4.7154    0.9151 H   0  0  0  0  0  0  0  0  0  0  0  0
    4.7908   -3.8438    0.8863 H   0  0  0  0  0  0  0  0  0  0  0  0
   -1.2704   -3.1411   -0.1663 N   0  0  0  0  0  0  0  0  0  0  0  0
   -2.6028   -3.5978   -0.4811 C   0  0  2  0  0  0  0  0  0  0  0  0
   -2.5159   -4.4884   -1.7134 C   0  0  0  0  0  0  0  0  0  0  0  0
   -1.5890   -4.4306   -2.5188 O   0  0  0  0  0  0  0  0  0  0  0  0
   -3.5462   -2.4292   -0.7204 C   0  0  0  0  0  0  0  0  0  0  0  0
   -0.8937   -3.3552    0.7524 H   0  0  0  0  0  0  0  0  0  0  0  0
   -2.9446   -4.1899    0.3748 H   0  0  0  0  0  0  0  0  0  0  0  0
   -3.2199   -1.8243   -1.5743 H   0  0  0  0  0  0  0  0  0  0  0  0
   -4.5630   -2.7768   -0.9309 H   0  0  0  0  0  0  0  0  0  0  0  0
   -3.5846   -1.7735    0.1561 H   0  0  0  0  0  0  0  0  0  0  0  0
   -3.6167   -5.3254   -1.8311 N   0  0  0  0  0  0  0  0  0  0  0  0
   -3.7745   -6.2569   -2.9236 C   0  0  0  0  0  0  0  0  0  0  0  0
   -4.3285   -5.3196   -1.1066 H   0  0  0  0  0  0  0  0  0  0  0  0
   -4.3489   -5.7808   -3.7319 H   0  0  0  0  0  0  0  0  0  0  0  0
   -2.7839   -6.5501   -3.3014 H   0  0  0  0  0  0  0  0  0  0  0  0
   -4.3109   -7.1496   -2.5695 H   0  0  0  0  0  0  0  0  0  0  0  0
  1  3  1  0  0  0  0
  1  7  1  0  0  0  0
  1  2  2  0  0  0  0
 21 22  1  0  0  0  0
 22 24  1  0  0  0  0
 22 23  2  0  0  0  0
 32 33  1  0  0  0  0
 33 41  1  0  0  0  0
 33 34  2  0  0  0  0
  8  9  1  0  0  0  0
  9 17  1  0  0  0  0
  9 10  2  0  0  0  0
 18 19  1  0  0  0  0
 19 31  1  0  0  0  0
 19 20  2  0  0  0  0
 32 35  1  0  0  0  0
  8 11  1  0  0  0  0
 41 42  1  0  0  0  0
 18 21  1  0  0  0  0
 31 32  1  0  0  0  0
  7  8  1  0  0  0  0
 17 18  1  0  0  0  0
  3  4  1  0  0  0  0
  3  5  1  0  0  0  0
  3  6  1  0  0  0  0
 35 38  1  0  0  0  0
 35 39  1  0  0  0  0
 35 40  1  0  0  0  0
 11 14  1  0  0  0  0
 11 15  1  0  0  0  0
 11 16  1  0  0  0  0
 42 44  1  0  0  0  0
 42 45  1  0  0  0  0
 42 46  1  0  0  0  0
 21 27  1  0  0  0  0
 21 28  1  0  0  0  0
 32 37  1  0  0  0  0
  8 13  1  0  0  0  0
 18 26  1  0  0  0  0
 24 29  1  0  0  0  0
 24 30  1  0  0  0  0
 41 43  1  0  0  0  0
  7 12  1  0  0  0  0
 31 36  1  0  0  0  0
 17 25  1  0  0  0  0
M  END
$$$$

  -OEChem-05262214473D

 46 45  0     1  0  0  0  0  0999 V2000
   -0.0543    1.9736    3.8406 C   0  0  0  0  0  0  0  0  0  0  0  0
    0.6744    1.6099    4.7562 O   0  0  0  0  0  0  0  0  0  0  0  0
   -0.5599    3.3779    3.8160 C   0  0  0  0  0  0  0  0  0  0  0  0
   -1.5202    3.4885    4.3450 H   0  0  0  0  0  0  0  0  0  0  0  0
    0.1282    4.0814    4.3116 H   0  0  0  0  0  0  0  0  0  0  0  0
   -0.7317    3.7994    2.8126 H   0  0  0  0  0  0  0  0  0  0  0  0
   -0.4812    1.1968    2.7762 N   0  0  0  0  0  0  0  0  0  0  0  0
   -0.1106   -0.1834    2.6051 C   0  0  2  0  0  0  0  0  0  0  0  0
   -0.0696   -0.4775    1.1113 C   0  0  0  0  0  0  0  0  0  0  0  0
   -0.6805    0.1900    0.2792 O   0  0  0  0  0  0  0  0  0  0  0  0
   -1.0852   -1.1101    3.3150 C   0  0  0  0  0  0  0  0  0  0  0  0
   -1.0883    1.6241    2.0791 H   0  0  0  0  0  0  0  0  0  0  0  0
    0.8937   -0.2959    3.0277 H   0  0  0  0  0  0  0  0  0  0  0  0
   -2.0970   -1.0114    2.9051 H   0  0  0  0  0  0  0  0  0  0  0  0
   -0.7860   -2.1580    3.2078 H   0  0  0  0  0  0  0  0  0  0  0  0
   -1.1357   -0.8775    4.3842 H   0  0  0  0  0  0  0  0  0  0  0  0
    0.6950   -1.6003    0.8178 N   0  0  0  0  0  0  0  0  0  0  0  0
    0.8777   -2.0908   -0.5246 C   0  0  2  0  0  0  0  0  0  0  0  0
   -0.4989   -2.4356   -1.0791 C   0  0  0  0  0  0  0  0  0  0  0  0
   -0.7677   -2.4015   -2.2783 O   0  0  0  0  0  0  0  0  0  0  0  0
    1.7958   -3.3126   -0.5644 C   0  0  0  0  0  0  0  0  0  0  0  0
    3.2444   -2.9818   -0.2514 C   0  0  0  0  0  0  0  0  0  0  0  0
    3.8332   -1.9948   -0.6824 O   0  0  0  0  0  0  0  0  0  0  0  0
    3.8258   -3.9158    0.5798 N   0  0  0  0  0  0  0  0  0  0  0  0
    1.1810   -2.0803    1.5718 H   0  0  0  0  0  0  0  0  0  0  0  0
    1.2981   -1.2617   -1.1057 H   0  0  0  0  0  0  0  0  0  0  0  0
    1.4691   -4.0573    0.1725 H   0  0  0  0  0  0  0  0  0  0  0  0
    1.7537   -3.7937   -1.5500 H   0  0  0  0  0  0  0  0  0  0  0  0
    3.2991   -4.7154    0.9151 H   0  0  0  0  0  0  0  0  0  0  0  0
    4.7908   -3.8438    0.8863 H   0  0  0  0  0  0  0  0  0  0  0  0
   -1.3801   -2.8349   -0.0842 N   0  0  0  0  0  0  0  0  0  0  0  0
   -2.7356   -3.2351   -0.3771 C   0  0  2  0  0  0  0  0  0  0  0  0
   -2.6809   -4.3962   -1.3612 C   0  0  0  0  0  0  0  0  0  0  0  0
   -1.7158   -4.6117   -2.0914 O   0  0  0  0  0  0  0  0  0  0  0  0
   -3.5435   -2.0787   -0.9452 C   0  0  0  0  0  0  0  0  0  0  0  0
   -1.0710   -2.8577    0.8831 H   0  0  0  0  0  0  0  0  0  0  0  0
   -3.1756   -3.5758    0.5665 H   0  0  0  0  0  0  0  0  0  0  0  0
   -3.1176   -1.7239   -1.8908 H   0  0  0  0  0  0  0  0  0  0  0  0
   -4.5791   -2.3762   -1.1401 H   0  0  0  0  0  0  0  0  0  0  0  0
   -3.5568   -1.2334   -0.2487 H   0  0  0  0  0  0  0  0  0  0  0  0
   -3.8539   -5.1380   -1.3588 N   0  0  0  0  0  0  0  0  0  0  0  0
   -4.0533   -6.2841   -2.2148 C   0  0  0  0  0  0  0  0  0  0  0  0
   -4.5950   -4.8988   -0.7067 H   0  0  0  0  0  0  0  0  0  0  0  0
   -4.5376   -5.9646   -3.1494 H   0  0  0  0  0  0  0  0  0  0  0  0
   -3.0806   -6.7436   -2.4446 H   0  0  0  0  0  0  0  0  0  0  0  0
   -4.6933   -7.0174   -1.7024 H   0  0  0  0  0  0  0  0  0  0  0  0
  1  3  1  0  0  0  0
  1  7  1  0  0  0  0
  1  2  2  0  0  0  0
 21 22  1  0  0  0  0
 22 24  1  0  0  0  0
 22 23  2  0  0  0  0
 32 33  1  0  0  0  0
 33 41  1  0  0  0  0
 33 34  2  0  0  0  0
  8  9  1  0  0  0  0
  9 17  1  0  0  0  0
  9 10  2  0  0  0  0
 18 19  1  0  0  0  0
 19 31  1  0  0  0  0
 19 20  2  0  0  0  0
 32 35  1  0  0  0  0
  8 11  1  0  0  0  0
 41 42  1  0  0  0  0
 18 21  1  0  0  0  0
 31 32  1  0  0  0  0
  7  8  1  0  0  0  0
 17 18  1  0  0  0  0
  3  4  1  0  0  0  0
  3  5  1  0  0  0  0
  3  6  1  0  0  0  0
 35 38  1  0  0  0  0
 35 39  1  0  0  0  0
 35 40  1  0  0  0  0
 11 14  1  0  0  0  0
 11 15  1  0  0  0  0
 11 16  1  0  0  0  0
 42 44  1  0  0  0  0
 42 45  1  0  0  0  0
 42 46  1  0  0  0  0
 21 27  1  0  0  0  0
 21 28  1  0  0  0  0
 32 37  1  0  0  0  0
  8 13  1  0  0  0  0
 18 26  1  0  0  0  0
 24 29  1  0  0  0  0
 24 30  1  0  0  0  0
 41 43  1  0  0  0  0
  7 12  1  0  0  0  0
 31 36  1  0  0  0  0
 17 25  1  0  0  0  0
M  END
$$$$

  -OEChem-05262214473D

 46 45  0     1  0  0  0  0  0999 V2000
   -0.0543    1.9736    3.8406 C   0  0  0  0  0  0  0  0  0  0  0  0
    0.6744    1.6099    4.7562 O   0  0  0  0  0  0  0  0  0  0  0  0
   -0.5599    3.3779    3.8160 C   0  0  0  0  0  0  0  0  0  0  0  0
   -1.5202    3.4885    4.3450 H   0  0  0  0  0  0  0  0  0  0  0  0
    0.1282    4.0814    4.3116 H   0  0  0  0  0  0  0  0  0  0  0  0
   -0.7317    3.7994    2.8126 H   0  0  0  0  0  0  0  0  0  0  0  0
   -0.4812    1.1968    2.7762 N   0  0  0  0  0  0  0  0  0  0  0  0
   -0.1106   -0.1834    2.6051 C   0  0  2  0  0  0  0  0  0  0  0  0
   -0.0696   -0.4775    1.1113 C   0  0  0  0  0  0  0  0  0  0  0  0
   -0.6805    0.1900    0.2792 O   0  0  0  0  0  0  0  0  0  0  0  0
   -1.0852   -1.1101    3.3150 C   0  0  0  0  0  0  0  0  0  0  0  0
   -1.0883    1.6241    2.0791 H   0  0  0  0  0  0  0  0  0  0  0  0
    0.8937   -0.2959    3.0277 H   0  0  0  0  0  0  0  0  0  0  0  0
   -2.0970   -1.0114    2.9051 H   0  0  0  0  0  0  0  0  0  0  0  0
   -0.7860   -2.1580    3.2078 H   0  0  0  0  0  0  0  0  0  0  0  0
   -1.1357   -0.8775    4.3842 H   0  0  0  0  0  0  0  0  0  0  0  0
    0.6950   -1.6003    0.8178 N   0  0  0  0  0  0  0  0  0  0  0  0
    0.8777   -2.0908   -0.5246 C   0  0  2  0  0  0  0  0  0  0  0  0
   -0.4989   -2.4356   -1.0791 C   0  0  0  0  0  0  0  0  0  0  0  0
   -0.7058   -2.6629   -2.2695 O   0  0  0  0  0  0  0  0  0  0  0  0
    1.7958   -3.3126   -0.5644 C   0  0  0  0  0  0  0  0  0  0  0  0
    3.2444   -2.9818   -0.2514 C   0  0  0  0  0  0  0  0  0  0  0  0
    3.8332   -1.9948   -0.6824 O   0  0  0  0  0  0  0  0  0  0  0  0
    3.8258   -3.9158    0.5798 N   0  0  0  0  0  0  0  0  0  0  0  0
    1.1810   -2.0803    1.5718 H   0  0  0  0  0  0  0  0  0  0  0  0
    1.2981   -1.2617   -1.1057 H   0  0  0  0  0  0  0  0  0  0  0  0
    1.4691   -4.0573    0.1725 H   0  0  0  0  0  0  0  0  0  0  0  0
    1.7537   -3.7937   -1.5500 H   0  0  0  0  0  0  0  0  0  0  0  0
    3.2991   -4.7154    0.9151 H   0  0  0  0  0  0  0  0  0  0  0  0
    4.7908   -3.8438    0.8863 H   0  0  0  0  0  0  0  0  0  0  0  0
   -1.4622   -2.5097   -0.0828 N   0  0  0  0  0  0  0  0  0  0  0  0
   -2.8357   -2.8480   -0.3692 C   0  0  2  0  0  0  0  0  0  0  0  0
   -2.8522   -4.2092   -1.0521 C   0  0  0  0  0  0  0  0  0  0  0  0
   -1.8804   -4.6747   -1.6437 O   0  0  0  0  0  0  0  0  0  0  0  0
   -3.4946   -1.7930   -1.2440 C   0  0  0  0  0  0  0  0  0  0  0  0
   -1.2031   -2.3298    0.8827 H   0  0  0  0  0  0  0  0  0  0  0  0
   -3.3522   -2.9160    0.5945 H   0  0  0  0  0  0  0  0  0  0  0  0
   -2.9907   -1.7105   -2.2140 H   0  0  0  0  0  0  0  0  0  0  0  0
   -4.5446   -2.0366   -1.4368 H   0  0  0  0  0  0  0  0  0  0  0  0
   -3.4554   -0.8090   -0.7644 H   0  0  0  0  0  0  0  0  0  0  0  0
   -4.0930   -4.8242   -0.9604 N   0  0  0  0  0  0  0  0  0  0  0  0
   -4.3666   -6.1184   -1.5402 C   0  0  0  0  0  0  0  0  0  0  0  0
   -4.8362   -4.3737   -0.4345 H   0  0  0  0  0  0  0  0  0  0  0  0
   -4.7712   -5.9881   -2.5547 H   0  0  0  0  0  0  0  0  0  0  0  0
   -3.4356   -6.7023   -1.5891 H   0  0  0  0  0  0  0  0  0  0  0  0
   -5.1011   -6.6508   -0.9181 H   0  0  0  0  0  0  0  0  0  0  0  0
  1  3  1  0  0  0  0
  1  7  1  0  0  0  0
  1  2  2  0  0  0  0
 21 22  1  0  0  0  0
 22 24  1  0  0  0  0
 22 23  2  0  0  0  0
 32 33  1  0  0  0  0
 33 41  1  0  0  0  0
 33 34  2  0  0  0  0
  8  9  1  0  0  0  0
  9 17  1  0  0  0  0
  9 10  2  0  0  0  0
 18 19  1  0  0  0  0
 19 31  1  0  0  0  0
 19 20  2  0  0  0  0
 32 35  1  0  0  0  0
  8 11  1  0  0  0  0
 41 42  1  0  0  0  0
 18 21  1  0  0  0  0
 31 32  1  0  0  0  0
  7  8  1  0  0  0  0
 17 18  1  0  0  0  0
  3  4  1  0  0  0  0
  3  5  1  0  0  0  0
  3  6  1  0  0  0  0
 35 38  1  0  0  0  0
 35 39  1  0  0  0  0
 35 40  1  0  0  0  0
 11 14  1  0  0  0  0
 11 15  1  0  0  0  0
 11 16  1  0  0  0  0
 42 44  1  0  0  0  0
 42 45  1  0  0  0  0
 42 46  1  0  0  0  0
 21 27  1  0  0  0  0
 21 28  1  0  0  0  0
 32 37  1  0  0  0  0
  8 13  1  0  0  0  0
 18 26  1  0  0  0  0
 24 29  1  0  0  0  0
 24 30  1  0  0  0  0
 41 43  1  0  0  0  0
  7 12  1  0  0  0  0
 31 36  1  0  0  0  0
 17 25  1  0  0  0  0
M  END
$$$$

  -OEChem-05262214473D

 46 45  0     1  0  0  0  0  0999 V2000
   -0.0543    1.9736    3.8406 C   0  0  0  0  0  0  0  0  0  0  0  0
    0.6744    1.6099    4.7562 O   0  0  0  0  0  0  0  0  0  0  0  0
   -0.5599    3.3779    3.8160 C   0  0  0  0  0  0  0  0  0  0  0  0
   -1.5202    3.4885    4.3450 H   0  0  0  0  0  0  0  0  0  0  0  0
    0.1282    4.0814    4.3116 H   0  0  0  0  0  0  0  0  0  0  0  0
   -0.7317    3.7994    2.8126 H   0  0  0  0  0  0  0  0  0  0  0  0
   -0.4812    1.1968    2.7762 N   0  0  0  0  0  0  0  0  0  0  0  0
   -0.1106   -0.1834    2.6051 C   0  0  2  0  0  0  0  0  0  0  0  0
   -0.0696   -0.4775    1.1113 C   0  0  0  0  0  0  0  0  0  0  0  0
   -0.6805    0.1900    0.2792 O   0  0  0  0  0  0  0  0  0  0  0  0
   -1.0852   -1.1101    3.3150 C   0  0  0  0  0  0  0  0  0  0  0  0
   -1.0883    1.6241    2.0791 H   0  0  0  0  0  0  0  0  0  0  0  0
    0.8937   -0.2959    3.0277 H   0  0  0  0  0  0  0  0  0  0  0  0
   -2.0970   -1.0114    2.9051 H   0  0  0  0  0  0  0  0  0  0  0  0
   -0.7860   -2.1580    3.2078 H   0  0  0  0  0  0  0  0  0  0  0  0
   -1.1357   -0.8775    4.3842 H   0  0  0  0  0  0  0  0  0  0  0  0
    0.6950   -1.6003    0.8178 N   0  0  0  0  0  0  0  0  0  0  0  0
    0.8777   -2.0908   -0.5246 C   0  0  2  0  0  0  0  0  0  0  0  0
   -0.4989   -2.4356   -1.0791 C   0  0  0  0  0  0  0  0  0  0  0  0
   -0.6711   -2.9192   -2.1962 O   0  0  0  0  0  0  0  0  0  0  0  0
    1.7958   -3.3126   -0.5644 C   0  0  0  0  0  0  0  0  0  0  0  0
    3.2444   -2.9818   -0.2514 C   0  0  0  0  0  0  0  0  0  0  0  0
    3.8332   -1.9948   -0.6824 O   0  0  0  0  0  0  0  0  0  0  0  0
    3.8258   -3.9158    0.5798 N   0  0  0  0  0  0  0  0  0  0  0  0
    1.1810   -2.0803    1.5718 H   0  0  0  0  0  0  0  0  0  0  0  0
    1.2981   -1.2617   -1.1057 H   0  0  0  0  0  0  0  0  0  0  0  0
    1.4691   -4.0573    0.1725 H   0  0  0  0  0  0  0  0  0  0  0  0
    1.7537   -3.7937   -1.5500 H   0  0  0  0  0  0  0  0  0  0  0  0
    3.2991   -4.7154    0.9151 H   0  0  0  0  0  0  0  0  0  0  0  0
    4.7908   -3.8438    0.8863 H   0  0  0  0  0  0  0  0  0  0  0  0
   -1.5108   -2.1875   -0.1624 N   0  0  0  0  0  0  0  0  0  0  0  0
   -2.8964   -2.4629   -0.4580 C   0  0  2  0  0  0  0  0  0  0  0  0
   -3.0182   -3.9402   -0.8074 C   0  0  0  0  0  0  0  0  0  0  0  0
   -2.0715   -4.6154   -1.2061 O   0  0  0  0  0  0  0  0  0  0  0  0
   -3.4030   -1.5914   -1.5967 C   0  0  0  0  0  0  0  0  0  0  0  0
   -1.2809   -1.8075    0.7511 H   0  0  0  0  0  0  0  0  0  0  0  0
   -3.4622   -2.2555    0.4568 H   0  0  0  0  0  0  0  0  0  0  0  0
   -2.8480   -1.7851   -2.5219 H   0  0  0  0  0  0  0  0  0  0  0  0
   -4.4620   -1.7812   -1.8007 H   0  0  0  0  0  0  0  0  0  0  0  0
   -3.2872   -0.5292   -1.3558 H   0  0  0  0  0  0  0  0  0  0  0  0
   -4.3178   -4.4053   -0.6629 N   0  0  0  0  0  0  0  0  0  0  0  0
   -4.6931   -5.7710   -0.9456 C   0  0  0  0  0  0  0  0  0  0  0  0
   -5.0357   -3.7802   -0.3085 H   0  0  0  0  0  0  0  0  0  0  0  0
   -5.0340   -5.8497   -1.9885 H   0  0  0  0  0  0  0  0  0  0  0  0
   -3.8247   -6.4288   -0.7932 H   0  0  0  0  0  0  0  0  0  0  0  0
   -5.5064   -6.0750   -0.2702 H   0  0  0  0  0  0  0  0  0  0  0  0
  1  3  1  0  0  0  0
  1  7  1  0  0  0  0
  1  2  2  0  0  0  0
 21 22  1  0  0  0  0
 22 24  1  0  0  0  0
 22 23  2  0  0  0  0
 32 33  1  0  0  0  0
 33 41  1  0  0  0  0
 33 34  2  0  0  0  0
  8  9  1  0  0  0  0
  9 17  1  0  0  0  0
  9 10  2  0  0  0  0
 18 19  1  0  0  0  0
 19 31  1  0  0  0  0
 19 20  2  0  0  0  0
 32 35  1  0  0  0  0
  8 11  1  0  0  0  0
 41 42  1  0  0  0  0
 18 21  1  0  0  0  0
 31 32  1  0  0  0  0
  7  8  1  0  0  0  0
 17 18  1  0  0  0  0
  3  4  1  0  0  0  0
  3  5  1  0  0  0  0
  3  6  1  0  0  0  0
 35 38  1  0  0  0  0
 35 39  1  0  0  0  0
 35 40  1  0  0  0  0
 11 14  1  0  0  0  0
 11 15  1  0  0  0  0
 11 16  1  0  0  0  0
 42 44  1  0  0  0  0
 42 45  1  0  0  0  0
 42 46  1  0  0  0  0
 21 27  1  0  0  0  0
 21 28  1  0  0  0  0
 32 37  1  0  0  0  0
  8 13  1  0  0  0  0
 18 26  1  0  0  0  0
 24 29  1  0  0  0  0
 24 30  1  0  0  0  0
 41 43  1  0  0  0  0
  7 12  1  0  0  0  0
 31 36  1  0  0  0  0
 17 25  1  0  0  0  0
M  END
$$$$

  -OEChem-05262214473D

 46 45  0     1  0  0  0  0  0999 V2000
   -0.0543    1.9736    3.8406 C   0  0  0  0  0  0  0  0  0  0  0  0
    0.6744    1.6099    4.7562 O   0  0  0  0  0  0  0  0  0  0  0  0
   -0.5599    3.3779    3.8160 C   0  0  0  0  0  0  0  0  0  0  0  0
   -1.5202    3.4885    4.3450 H   0  0  0  0  0  0  0  0  0  0  0  0
    0.1282    4.0814    4.3116 H   0  0  0  0  0  0  0  0  0  0  0  0
   -0.7317    3.7994    2.8126 H   0  0  0  0  0  0  0  0  0  0  0  0
   -0.4812    1.1968    2.7762 N   0  0  0  0  0  0  0  0  0  0  0  0
   -0.1106   -0.1834    2.6051 C   0  0  2  0  0  0  0  0  0  0  0  0
   -0.0696   -0.4775    1.1113 C   0  0  0  0  0  0  0  0  0  0  0  0
   -0.6805    0.1900    0.2792 O   0  0  0  0  0  0  0  0  0  0  0  0
   -1.0852   -1.1101    3.3150 C   0  0  0  0  0  0  0  0  0  0  0  0
   -1.0883    1.6241    2.0791 H   0  0  0  0  0  0  0  0  0  0  0  0
    0.8937   -0.2959    3.0277 H   0  0  0  0  0  0  0  0  0  0  0  0
   -2.0970   -1.0114    2.9051 H   0  0  0  0  0  0  0  0  0  0  0  0
   -0.7860   -2.1580    3.2078 H   0  0  0  0  0  0  0  0  0  0  0  0
   -1.1357   -0.8775    4.3842 H   0  0  0  0  0  0  0  0  0  0  0  0
    0.6950   -1.6003    0.8178 N   0  0  0  0  0  0  0  0  0  0  0  0
    0.8777   -2.0908   -0.5246 C   0  0  2  0  0  0  0  0  0  0  0  0
   -0.4989   -2.4356   -1.0791 C   0  0  0  0  0  0  0  0  0  0  0  0
   -0.6660   -3.1529   -2.0635 O   0  0  0  0  0  0  0  0  0  0  0  0
    1.7958   -3.3126   -0.5644 C   0  0  0  0  0  0  0  0  0  0  0  0
    3.2444   -2.9818   -0.2514 C   0  0  0  0  0  0  0  0  0  0  0  0
    3.8332   -1.9948   -0.6824 O   0  0  0  0  0  0  0  0  0  0  0  0
    3.8258   -3.9158    0.5798 N   0  0  0  0  0  0  0  0  0  0  0  0
    1.1810   -2.0803    1.5718 H   0  0  0  0  0  0  0  0  0  0  0  0
    1.2981   -1.2617   -1.1057 H   0  0  0  0  0  0  0  0  0  0  0  0
    1.4691   -4.0573    0.1725 H   0  0  0  0  0  0  0  0  0  0  0  0
    1.7537   -3.7937   -1.5500 H   0  0  0  0  0  0  0  0  0  0  0  0
    3.2991   -4.7154    0.9151 H   0  0  0  0  0  0  0  0  0  0  0  0
    4.7908   -3.8438    0.8863 H   0  0  0  0  0  0  0  0  0  0  0  0
   -1.5228   -1.8903   -0.3174 N   0  0  0  0  0  0  0  0  0  0  0  0
   -2.9136   -2.1058   -0.6374 C   0  0  2  0  0  0  0  0  0  0  0  0
   -3.1675   -3.6075   -0.6436 C   0  0  0  0  0  0  0  0  0  0  0  0
   -2.2762   -4.4378   -0.8085 O   0  0  0  0  0  0  0  0  0  0  0  0
   -3.2749   -1.4879   -1.9791 C   0  0  0  0  0  0  0  0  0  0  0  0
   -1.2991   -1.3265    0.4973 H   0  0  0  0  0  0  0  0  0  0  0  0
   -3.4982   -1.6394    0.1630 H   0  0  0  0  0  0  0  0  0  0  0  0
   -2.6992   -1.9427   -2.7934 H   0  0  0  0  0  0  0  0  0  0  0  0
   -4.3368   -1.6274   -2.2071 H   0  0  0  0  0  0  0  0  0  0  0  0
   -3.0638   -0.4131   -1.9827 H   0  0  0  0  0  0  0  0  0  0  0  0
   -4.5129   -3.9100   -0.4866 N   0  0  0  0  0  0  0  0  0  0  0  0
   -5.0106   -5.2657   -0.4717 C   0  0  0  0  0  0  0  0  0  0  0  0
   -5.1798   -3.1586   -0.3373 H   0  0  0  0  0  0  0  0  0  0  0  0
   -5.3079   -5.5590   -1.4893 H   0  0  0  0  0  0  0  0  0  0  0  0
   -4.2214   -5.9419   -0.1112 H   0  0  0  0  0  0  0  0  0  0  0  0
   -5.8815   -5.3291    0.1973 H   0  0  0  0  0  0  0  0  0  0  0  0
  1  3  1  0  0  0  0
  1  7  1  0  0  0  0
  1  2  2  0  0  0  0
 21 22  1  0  0  0  0
 22 24  1  0  0  0  0
 22 23  2  0  0  0  0
 32 33  1  0  0  0  0
 33 41  1  0  0  0  0
 33 34  2  0  0  0  0
  8  9  1  0  0  0  0
  9 17  1  0  0  0  0
  9 10  2  0  0  0  0
 18 19  1  0  0  0  0
 19 31  1  0  0  0  0
 19 20  2  0  0  0  0
 32 35  1  0  0  0  0
  8 11  1  0  0  0  0
 41 42  1  0  0  0  0
 18 21  1  0  0  0  0
 31 32  1  0  0  0  0
  7  8  1  0  0  0  0
 17 18  1  0  0  0  0
  3  4  1  0  0  0  0
  3  5  1  0  0  0  0
  3  6  1  0  0  0  0
 35 38  1  0  0  0  0
 35 39  1  0  0  0  0
 35 40  1  0  0  0  0
 11 14  1  0  0  0  0
 11 15  1  0  0  0  0
 11 16  1  0  0  0  0
 42 44  1  0  0  0  0
 42 45  1  0  0  0  0
 42 46  1  0  0  0  0
 21 27  1  0  0  0  0
 21 28  1  0  0  0  0
 32 37  1  0  0  0  0
  8 13  1  0  0  0  0
 18 26  1  0  0  0  0
 24 29  1  0  0  0  0
 24 30  1  0  0  0  0
 41 43  1  0  0  0  0
  7 12  1  0  0  0  0
 31 36  1  0  0  0  0
 17 25  1  0  0  0  0
M  END
$$$$

  -OEChem-05262214473D

 46 45  0     1  0  0  0  0  0999 V2000
   -0.0543    1.9736    3.8406 C   0  0  0  0  0  0  0  0  0  0  0  0
    0.6744    1.6099    4.7562 O   0  0  0  0  0  0  0  0  0  0  0  0
   -0.5599    3.3779    3.8160 C   0  0  0  0  0  0  0  0  0  0  0  0
   -1.5202    3.4885    4.3450 H   0  0  0  0  0  0  0  0  0  0  0  0
    0.1282    4.0814    4.3116 H   0  0  0  0  0  0  0  0  0  0  0  0
   -0.7317    3.7994    2.8126 H   0  0  0  0  0  0  0  0  0  0  0  0
   -0.4812    1.1968    2.7762 N   0  0  0  0  0  0  0  0  0  0  0  0
   -0.1106   -0.1834    2.6051 C   0  0  2  0  0  0  0  0  0  0  0  0
   -0.0696   -0.4775    1.1113 C   0  0  0  0  0  0  0  0  0  0  0  0
   -0.6805    0.1900    0.2792 O   0  0  0  0  0  0  0  0  0  0  0  0
   -1.0852   -1.1101    3.3150 C   0  0  0  0  0  0  0  0  0  0  0  0
   -1.0883    1.6241    2.0791 H   0  0  0  0  0  0  0  0  0  0  0  0
    0.8937   -0.2959    3.0277 H   0  0  0  0  0  0  0  0  0  0  0  0
   -2.0970   -1.0114    2.9051 H   0  0  0  0  0  0  0  0  0  0  0  0
   -0.7860   -2.1580    3.2078 H   0  0  0  0  0  0  0  0  0  0  0  0
   -1.1357   -0.8775    4.3842 H   0  0  0  0  0  0  0  0  0  0  0  0
    0.6950   -1.6003    0.8178 N   0  0  0  0  0  0  0  0  0  0  0  0
    0.8777   -2.0908   -0.5246 C   0  0  2  0  0  0  0  0  0  0  0  0
   -0.4989   -2.4356   -1.0791 C   0  0  0  0  0  0  0  0  0  0  0  0
   -0.6909   -3.3481   -1.8804 O   0  0  0  0  0  0  0  0  0  0  0  0
    1.7958   -3.3126   -0.5644 C   0  0  0  0  0  0  0  0  0  0  0  0
    3.2444   -2.9818   -0.2514 C   0  0  0  0  0  0  0  0  0  0  0  0
    3.8332   -1.9948   -0.6824 O   0  0  0  0  0  0  0  0  0  0  0  0
    3.8258   -3.9158    0.5798 N   0  0  0  0  0  0  0  0  0  0  0  0
    1.1810   -2.0803    1.5718 H   0  0  0  0  0  0  0  0  0  0  0  0
    1.2981   -1.2617   -1.1057 H   0  0  0  0  0  0  0  0  0  0  0  0
    1.4691   -4.0573    0.1725 H   0  0  0  0  0  0  0  0  0  0  0  0
    1.7537   -3.7937   -1.5500 H   0  0  0  0  0  0  0  0  0  0  0  0
    3.2991   -4.7154    0.9151 H   0  0  0  0  0  0  0  0  0  0  0  0
    4.7908   -3.8438    0.8863 H   0  0  0  0  0  0  0  0  0  0  0  0
   -1.4973   -1.6384   -0.5374 N   0  0  0  0  0  0  0  0  0  0  0  0
   -2.8861   -1.8013   -0.8951 C   0  0  2  0  0  0  0  0  0  0  0  0
   -3.2900   -3.2338   -0.5720 C   0  0  0  0  0  0  0  0  0  0  0  0
   -2.4805   -4.1540   -0.4779 O   0  0  0  0  0  0  0  0  0  0  0  0
   -3.1190   -1.4893   -2.3652 C   0  0  0  0  0  0  0  0  0  0  0  0
   -1.2566   -0.9195    0.1386 H   0  0  0  0  0  0  0  0  0  0  0  0
   -3.4577   -1.1095   -0.2670 H   0  0  0  0  0  0  0  0  0  0  0  0
   -2.5543   -2.1724   -3.0102 H   0  0  0  0  0  0  0  0  0  0  0  0
   -4.1776   -1.5857   -2.6283 H   0  0  0  0  0  0  0  0  0  0  0  0
   -2.8003   -0.4686   -2.6023 H   0  0  0  0  0  0  0  0  0  0  0  0
   -4.6650   -3.3719   -0.4436 N   0  0  0  0  0  0  0  0  0  0  0  0
   -5.2975   -4.6369   -0.1506 C   0  0  0  0  0  0  0  0  0  0  0  0
   -5.2588   -2.5513   -0.5188 H   0  0  0  0  0  0  0  0  0  0  0  0
   -5.5744   -5.1355   -1.0912 H   0  0  0  0  0  0  0  0  0  0  0  0
   -4.5987   -5.2748    0.4105 H   0  0  0  0  0  0  0  0  0  0  0  0
   -6.2010   -4.4639    0.4524 H   0  0  0  0  0  0  0  0  0  0  0  0
  1  3  1  0  0  0  0
  1  7  1  0  0  0  0
  1  2  2  0  0  0  0
 21 22  1  0  0  0  0
 22 24  1  0  0  0  0
 22 23  2  0  0  0  0
 32 33  1  0  0  0  0
 33 41  1  0  0  0  0
 33 34  2  0  0  0  0
  8  9  1  0  0  0  0
  9 17  1  0  0  0  0
  9 10  2  0  0  0  0
 18 19  1  0  0  0  0
 19 31  1  0  0  0  0
 19 20  2  0  0  0  0
 32 35  1  0  0  0  0
  8 11  1  0  0  0  0
 41 42  1  0  0  0  0
 18 21  1  0  0  0  0
 31 32  1  0  0  0  0
  7  8  1  0  0  0  0
 17 18  1  0  0  0  0
  3  4  1  0  0  0  0
  3  5  1  0  0  0  0
  3  6  1  0  0  0  0
 35 38  1  0  0  0  0
 35 39  1  0  0  0  0
 35 40  1  0  0  0  0
 11 14  1  0  0  0  0
 11 15  1  0  0  0  0
 11 16  1  0  0  0  0
 42 44  1  0  0  0  0
 42 45  1  0  0  0  0
 42 46  1  0  0  0  0
 21 27  1  0  0  0  0
 21 28  1  0  0  0  0
 32 37  1  0  0  0  0
  8 13  1  0  0  0  0
 18 26  1  0  0  0  0
 24 29  1  0  0  0  0
 24 30  1  0  0  0  0
 41 43  1  0  0  0  0
  7 12  1  0  0  0  0
 31 36  1  0  0  0  0
 17 25  1  0  0  0  0
M  END
$$$$

  -OEChem-05262214473D

 46 45  0     1  0  0  0  0  0999 V2000
   -0.0543    1.9736    3.8406 C   0  0  0  0  0  0  0  0  0  0  0  0
    0.6744    1.6099    4.7562 O   0  0  0  0  0  0  0  0  0  0  0  0
   -0.5599    3.3779    3.8160 C   0  0  0  0  0  0  0  0  0  0  0  0
   -1.5202    3.4885    4.3450 H   0  0  0  0  0  0  0  0  0  0  0  0
    0.1282    4.0814    4.3116 H   0  0  0  0  0  0  0  0  0  0  0  0
   -0.7317    3.7994    2.8126 H   0  0  0  0  0  0  0  0  0  0  0  0
   -0.4812    1.1968    2.7762 N   0  0  0  0  0  0  0  0  0  0  0  0
   -0.1106   -0.1834    2.6051 C   0  0  2  0  0  0  0  0  0  0  0  0
   -0.0696   -0.4775    1.1113 C   0  0  0  0  0  0  0  0  0  0  0  0
   -0.6805    0.1900    0.2792 O   0  0  0  0  0  0  0  0  0  0  0  0
   -1.0852   -1.1101    3.3150 C   0  0  0  0  0  0  0  0  0  0  0  0
   -1.0883    1.6241    2.0791 H   0  0  0  0  0  0  0  0  0  0  0  0
    0.8937   -0.2959    3.0277 H   0  0  0  0  0  0  0  0  0  0  0  0
   -2.0970   -1.0114    2.9051 H   0  0  0  0  0  0  0  0  0  0  0  0
   -0.7860   -2.1580    3.2078 H   0  0  0  0  0  0  0  0  0  0  0  0
   -1.1357   -0.8775    4.3842 H   0  0  0  0  0  0  0  0  0  0  0  0
    0.6950   -1.6003    0.8178 N   0  0  0  0  0  0  0  0  0  0  0  0
    0.8777   -2.0908   -0.5246 C   0  0  2  0  0  0  0  0  0  0  0  0
   -0.4989   -2.4356   -1.0791 C   0  0  0  0  0  0  0  0  0  0  0  0
   -0.7440   -3.4915   -1.6593 O   0  0  0  0  0  0  0  0  0  0  0  0
    1.7958   -3.3126   -0.5644 C   0  0  0  0  0  0  0  0  0  0  0  0
    3.2444   -2.9818   -0.2514 C   0  0  0  0  0  0  0  0  0  0  0  0
    3.8332   -1.9948   -0.6824 O   0  0  0  0  0  0  0  0  0  0  0  0
    3.8258   -3.9158    0.5798 N   0  0  0  0  0  0  0  0  0  0  0  0
    1.1810   -2.0803    1.5718 H   0  0  0  0  0  0  0  0  0  0  0  0
    1.2981   -1.2617   -1.1057 H   0  0  0  0  0  0  0  0  0  0  0  0
    1.4691   -4.0573    0.1725 H   0  0  0  0  0  0  0  0  0  0  0  0
    1.7537   -3.7937   -1.5500 H   0  0  0  0  0  0  0  0  0  0  0  0
    3.2991   -4.7154    0.9151 H   0  0  0  0  0  0  0  0  0  0  0  0
    4.7908   -3.8438    0.8863 H   0  0  0  0  0  0  0  0  0  0  0  0
   -1.4361   -1.4489   -0.8073 N   0  0  0  0  0  0  0  0  0  0  0  0
   -2.8157   -1.5700   -1.2137 C   0  0  2  0  0  0  0  0  0  0  0  0
   -3.3773   -2.8445   -0.5974 C   0  0  0  0  0  0  0  0  0  0  0  0
   -2.6704   -3.7833   -0.2370 O   0  0  0  0  0  0  0  0  0  0  0  0
   -2.9460   -1.5957   -2.7287 C   0  0  0  0  0  0  0  0  0  0  0  0
   -1.1562   -0.6142   -0.3006 H   0  0  0  0  0  0  0  0  0  0  0  0
   -3.3435   -0.7021   -0.8038 H   0  0  0  0  0  0  0  0  0  0  0  0
   -2.4233   -2.4586   -3.1574 H   0  0  0  0  0  0  0  0  0  0  0  0
   -3.9952   -1.6589   -3.0356 H   0  0  0  0  0  0  0  0  0  0  0  0
   -2.5147   -0.6918   -3.1723 H   0  0  0  0  0  0  0  0  0  0  0  0
   -4.7637   -2.8279   -0.5368 N   0  0  0  0  0  0  0  0  0  0  0  0
   -5.5341   -3.9274   -0.0044 C   0  0  0  0  0  0  0  0  0  0  0  0
   -5.2673   -1.9997   -0.8408 H   0  0  0  0  0  0  0  0  0  0  0  0
   -5.8152   -4.6084   -0.8213 H   0  0  0  0  0  0  0  0  0  0  0  0
   -4.9309   -4.4728    0.7363 H   0  0  0  0  0  0  0  0  0  0  0  0
   -6.4431   -3.5385    0.4778 H   0  0  0  0  0  0  0  0  0  0  0  0
  1  3  1  0  0  0  0
  1  7  1  0  0  0  0
  1  2  2  0  0  0  0
 21 22  1  0  0  0  0
 22 24  1  0  0  0  0
 22 23  2  0  0  0  0
 32 33  1  0  0  0  0
 33 41  1  0  0  0  0
 33 34  2  0  0  0  0
  8  9  1  0  0  0  0
  9 17  1  0  0  0  0
  9 10  2  0  0  0  0
 18 19  1  0  0  0  0
 19 31  1  0  0  0  0
 19 20  2  0  0  0  0
 32 35  1  0  0  0  0
  8 11  1  0  0  0  0
 41 42  1  0  0  0  0
 18 21  1  0  0  0  0
 31 32  1  0  0  0  0
  7  8  1  0  0  0  0
 17 18  1  0  0  0  0
  3  4  1  0  0  0  0
  3  5  1  0  0  0  0
  3  6  1  0  0  0  0
 35 38  1  0  0  0  0
 35 39  1  0  0  0  0
 35 40  1  0  0  0  0
 11 14  1  0  0  0  0
 11 15  1  0  0  0  0
 11 16  1  0  0  0  0
 42 44  1  0  0  0  0
 42 45  1  0  0  0  0
 42 46  1  0  0  0  0
 21 27  1  0  0  0  0
 21 28  1  0  0  0  0
 32 37  1  0  0  0  0
  8 13  1  0  0  0  0
 18 26  1  0  0  0  0
 24 29  1  0  0  0  0
 24 30  1  0  0  0  0
 41 43  1  0  0  0  0
  7 12  1  0  0  0  0
 31 36  1  0  0  0  0
 17 25  1  0  0  0  0
M  END
$$$$

  -OEChem-05262214473D

 46 45  0     1  0  0  0  0  0999 V2000
   -0.0543    1.9736    3.8406 C   0  0  0  0  0  0  0  0  0  0  0  0
    0.6744    1.6099    4.7562 O   0  0  0  0  0  0  0  0  0  0  0  0
   -0.5599    3.3779    3.8160 C   0  0  0  0  0  0  0  0  0  0  0  0
   -1.5202    3.4885    4.3450 H   0  0  0  0  0  0  0  0  0  0  0  0
    0.1282    4.0814    4.3116 H   0  0  0  0  0  0  0  0  0  0  0  0
   -0.7317    3.7994    2.8126 H   0  0  0  0  0  0  0  0  0  0  0  0
   -0.4812    1.1968    2.7762 N   0  0  0  0  0  0  0  0  0  0  0  0
   -0.1106   -0.1834    2.6051 C   0  0  2  0  0  0  0  0  0  0  0  0
   -0.0696   -0.4775    1.1113 C   0  0  0  0  0  0  0  0  0  0  0  0
   -0.6805    0.1900    0.2792 O   0  0  0  0  0  0  0  0  0  0  0  0
   -1.0852   -1.1101    3.3150 C   0  0  0  0  0  0  0  0  0  0  0  0
   -1.0883    1.6241    2.0791 H   0  0  0  0  0  0  0  0  0  0  0  0
    0.8937   -0.2959    3.0277 H   0  0  0  0  0  0  0  0  0  0  0  0
   -2.0970   -1.0114    2.9051 H   0  0  0  0  0  0  0  0  0  0  0  0
   -0.7860   -2.1580    3.2078 H   0  0  0  0  0  0  0  0  0  0  0  0
   -1.1357   -0.8775    4.3842 H   0  0  0  0  0  0  0  0  0  0  0  0
    0.6950   -1.6003    0.8178 N   0  0  0  0  0  0  0  0  0  0  0  0
    0.8777   -2.0908   -0.5246 C   0  0  2  0  0  0  0  0  0  0  0  0
   -0.4989   -2.4356   -1.0791 C   0  0  0  0  0  0  0  0  0  0  0  0
   -0.8218   -3.5732   -1.4153 O   0  0  0  0  0  0  0  0  0  0  0  0
    1.7958   -3.3126   -0.5644 C   0  0  0  0  0  0  0  0  0  0  0  0
    3.2444   -2.9818   -0.2514 C   0  0  0  0  0  0  0  0  0  0  0  0
    3.8332   -1.9948   -0.6824 O   0  0  0  0  0  0  0  0  0  0  0  0
    3.8258   -3.9158    0.5798 N   0  0  0  0  0  0  0  0  0  0  0  0
    1.1810   -2.0803    1.5718 H   0  0  0  0  0  0  0  0  0  0  0  0
    1.2981   -1.2617   -1.1057 H   0  0  0  0  0  0  0  0  0  0  0  0
    1.4691   -4.0573    0.1725 H   0  0  0  0  0  0  0  0  0  0  0  0
    1.7537   -3.7937   -1.5500 H   0  0  0  0  0  0  0  0  0  0  0  0
    3.2991   -4.7154    0.9151 H   0  0  0  0  0  0  0  0  0  0  0  0
    4.7908   -3.8438    0.8863 H   0  0  0  0  0  0  0  0  0  0  0  0
   -1.3433   -1.3347   -1.1087 N   0  0  0  0  0  0  0  0  0  0  0  0
   -2.7072   -1.4278   -1.5714 C   0  0  2  0  0  0  0  0  0  0  0  0
   -3.4235   -2.4662   -0.7180 C   0  0  0  0  0  0  0  0  0  0  0  0
   -2.8330   -3.3511   -0.1020 O   0  0  0  0  0  0  0  0  0  0  0  0
   -2.7675   -1.7998   -3.0447 C   0  0  0  0  0  0  0  0  0  0  0  0
   -1.0046   -0.4315   -0.7903 H   0  0  0  0  0  0  0  0  0  0  0  0
   -3.1634   -0.4448   -1.4110 H   0  0  0  0  0  0  0  0  0  0  0  0
   -2.3151   -2.7818   -3.2250 H   0  0  0  0  0  0  0  0  0  0  0  0
   -3.8020   -1.8420   -3.4012 H   0  0  0  0  0  0  0  0  0  0  0  0
   -2.2265   -1.0677   -3.6540 H   0  0  0  0  0  0  0  0  0  0  0  0
   -4.8024   -2.3148   -0.7599 N   0  0  0  0  0  0  0  0  0  0  0  0
   -5.7044   -3.1856   -0.0429 C   0  0  0  0  0  0  0  0  0  0  0  0
   -5.2046   -1.5415   -1.2813 H   0  0  0  0  0  0  0  0  0  0  0  0
   -6.0139   -4.0133   -0.6979 H   0  0  0  0  0  0  0  0  0  0  0  0
   -5.1952   -3.5908    0.8440 H   0  0  0  0  0  0  0  0  0  0  0  0
   -6.5912   -2.6159    0.2718 H   0  0  0  0  0  0  0  0  0  0  0  0
  1  3  1  0  0  0  0
  1  7  1  0  0  0  0
  1  2  2  0  0  0  0
 21 22  1  0  0  0  0
 22 24  1  0  0  0  0
 22 23  2  0  0  0  0
 32 33  1  0  0  0  0
 33 41  1  0  0  0  0
 33 34  2  0  0  0  0
  8  9  1  0  0  0  0
  9 17  1  0  0  0  0
  9 10  2  0  0  0  0
 18 19  1  0  0  0  0
 19 31  1  0  0  0  0
 19 20  2  0  0  0  0
 32 35  1  0  0  0  0
  8 11  1  0  0  0  0
 41 42  1  0  0  0  0
 18 21  1  0  0  0  0
 31 32  1  0  0  0  0
  7  8  1  0  0  0  0
 17 18  1  0  0  0  0
  3  4  1  0  0  0  0
  3  5  1  0  0  0  0
  3  6  1  0  0  0  0
 35 38  1  0  0  0  0
 35 39  1  0  0  0  0
 35 40  1  0  0  0  0
 11 14  1  0  0  0  0
 11 15  1  0  0  0  0
 11 16  1  0  0  0  0
 42 44  1  0  0  0  0
 42 45  1  0  0  0  0
 42 46  1  0  0  0  0
 21 27  1  0  0  0  0
 21 28  1  0  0  0  0
 32 37  1  0  0  0  0
  8 13  1  0  0  0  0
 18 26  1  0  0  0  0
 24 29  1  0  0  0  0
 24 30  1  0  0  0  0
 41 43  1  0  0  0  0
  7 12  1  0  0  0  0
 31 36  1  0  0  0  0
 17 25  1  0  0  0  0
M  END
$$$$

  -OEChem-05262214473D

 46 45  0     1  0  0  0  0  0999 V2000
   -0.0543    1.9736    3.8406 C   0  0  0  0  0  0  0  0  0  0  0  0
    0.6744    1.6099    4.7562 O   0  0  0  0  0  0  0  0  0  0  0  0
   -0.5599    3.3779    3.8160 C   0  0  0  0  0  0  0  0  0  0  0  0
   -1.5202    3.4885    4.3450 H   0  0  0  0  0  0  0  0  0  0  0  0
    0.1282    4.0814    4.3116 H   0  0  0  0  0  0  0  0  0  0  0  0
   -0.7317    3.7994    2.8126 H   0  0  0  0  0  0  0  0  0  0  0  0
   -0.4812    1.1968    2.7762 N   0  0  0  0  0  0  0  0  0  0  0  0
   -0.1106   -0.1834    2.6051 C   0  0  2  0  0  0  0  0  0  0  0  0
   -0.0696   -0.4775    1.1113 C   0  0  0  0  0  0  0  0  0  0  0  0
   -0.6805    0.1900    0.2792 O   0  0  0  0  0  0  0  0  0  0  0  0
   -1.0852   -1.1101    3.3150 C   0  0  0  0  0  0  0  0  0  0  0  0
   -1.0883    1.6241    2.0791 H   0  0  0  0  0  0  0  0  0  0  0  0
    0.8937   -0.2959    3.0277 H   0  0  0  0  0  0  0  0  0  0  0  0
   -2.0970   -1.0114    2.9051 H   0  0  0  0  0  0  0  0  0  0  0  0
   -0.7860   -2.1580    3.2078 H   0  0  0  0  0  0  0  0  0  0  0  0
   -1.1357   -0.8775    4.3842 H   0  0  0  0  0  0  0  0  0  0  0  0
    0.6950   -1.6003    0.8178 N   0  0  0  0  0  0  0  0  0  0  0  0
    0.8777   -2.0908   -0.5246 C   0  0  2  0  0  0  0  0  0  0  0  0
   -0.4989   -2.4356   -1.0791 C   0  0  0  0  0  0  0  0  0  0  0  0
   -0.9190   -3.5879   -1.1651 O   0  0  0  0  0  0  0  0  0  0  0  0
    1.7958   -3.3126   -0.5644 C   0  0  0  0  0  0  0  0  0  0  0  0
    3.2444   -2.9818   -0.2514 C   0  0  0  0  0  0  0  0  0  0  0  0
    3.8332   -1.9948   -0.6824 O   0  0  0  0  0  0  0  0  0  0  0  0
    3.8258   -3.9158    0.5798 N   0  0  0  0  0  0  0  0  0  0  0  0
    1.1810   -2.0803    1.5718 H   0  0  0  0  0  0  0  0  0  0  0  0
    1.2981   -1.2617   -1.1057 H   0  0  0  0  0  0  0  0  0  0  0  0
    1.4691   -4.0573    0.1725 H   0  0  0  0  0  0  0  0  0  0  0  0
    1.7537   -3.7937   -1.5500 H   0  0  0  0  0  0  0  0  0  0  0  0
    3.2991   -4.7154    0.9151 H   0  0  0  0  0  0  0  0  0  0  0  0
    4.7908   -3.8438    0.8863 H   0  0  0  0  0  0  0  0  0  0  0  0
   -1.2252   -1.3036   -1.4211 N   0  0  0  0  0  0  0  0  0  0  0  0
   -2.5681   -1.3842   -1.9438 C   0  0  2  0  0  0  0  0  0  0  0  0
   -3.4254   -2.1246   -0.9257 C   0  0  0  0  0  0  0  0  0  0  0  0
   -2.9573   -2.8866   -0.0823 O   0  0  0  0  0  0  0  0  0  0  0  0
   -2.5959   -2.0876   -3.2918 C   0  0  0  0  0  0  0  0  0  0  0  0
   -0.8124   -0.3838   -1.2971 H   0  0  0  0  0  0  0  0  0  0  0  0
   -2.9295   -0.3553   -2.0471 H   0  0  0  0  0  0  0  0  0  0  0  0
   -2.2371   -3.1199   -3.2083 H   0  0  0  0  0  0  0  0  0  0  0  0
   -3.6113   -2.1226   -3.7002 H   0  0  0  0  0  0  0  0  0  0  0  0
   -1.9553   -1.5706   -4.0145 H   0  0  0  0  0  0  0  0  0  0  0  0
   -4.7784   -1.8677   -1.0975 N   0  0  0  0  0  0  0  0  0  0  0  0
   -5.7968   -2.4620   -0.2635 C   0  0  0  0  0  0  0  0  0  0  0  0
   -5.0751   -1.2077   -1.8103 H   0  0  0  0  0  0  0  0  0  0  0  0
   -6.1571   -3.3910   -0.7295 H   0  0  0  0  0  0  0  0  0  0  0  0
   -5.3738   -2.6886    0.7263 H   0  0  0  0  0  0  0  0  0  0  0  0
   -6.6353   -1.7589   -0.1517 H   0  0  0  0  0  0  0  0  0  0  0  0
  1  3  1  0  0  0  0
  1  7  1  0  0  0  0
  1  2  2  0  0  0  0
 21 22  1  0  0  0  0
 22 24  1  0  0  0  0
 22 23  2  0  0  0  0
 32 33  1  0  0  0  0
 33 41  1  0  0  0  0
 33 34  2  0  0  0  0
  8  9  1  0  0  0  0
  9 17  1  0  0  0  0
  9 10  2  0  0  0  0
 18 19  1  0  0  0  0
 19 31  1  0  0  0  0
 19 20  2  0  0  0  0
 32 35  1  0  0  0  0
  8 11  1  0  0  0  0
 41 42  1  0  0  0  0
 18 21  1  0  0  0  0
 31 32  1  0  0  0  0
  7  8  1  0  0  0  0
 17 18  1  0  0  0  0
  3  4  1  0  0  0  0
  3  5  1  0  0  0  0
  3  6  1  0  0  0  0
 35 38  1  0  0  0  0
 35 39  1  0  0  0  0
 35 40  1  0  0  0  0
 11 14  1  0  0  0  0
 11 15  1  0  0  0  0
 11 16  1  0  0  0  0
 42 44  1  0  0  0  0
 42 45  1  0  0  0  0
 42 46  1  0  0  0  0
 21 27  1  0  0  0  0
 21 28  1  0  0  0  0
 32 37  1  0  0  0  0
  8 13  1  0  0  0  0
 18 26  1  0  0  0  0
 24 29  1  0  0  0  0
 24 30  1  0  0  0  0
 41 43  1  0  0  0  0
  7 12  1  0  0  0  0
 31 36  1  0  0  0  0
 17 25  1  0  0  0  0
M  END
$$$$

  -OEChem-05262214473D

 46 45  0     1  0  0  0  0  0999 V2000
   -0.0543    1.9736    3.8406 C   0  0  0  0  0  0  0  0  0  0  0  0
    0.6744    1.6099    4.7562 O   0  0  0  0  0  0  0  0  0  0  0  0
   -0.5599    3.3779    3.8160 C   0  0  0  0  0  0  0  0  0  0  0  0
   -1.5202    3.4885    4.3450 H   0  0  0  0  0  0  0  0  0  0  0  0
    0.1282    4.0814    4.3116 H   0  0  0  0  0  0  0  0  0  0  0  0
   -0.7317    3.7994    2.8126 H   0  0  0  0  0  0  0  0  0  0  0  0
   -0.4812    1.1968    2.7762 N   0  0  0  0  0  0  0  0  0  0  0  0
   -0.1106   -0.1834    2.6051 C   0  0  2  0  0  0  0  0  0  0  0  0
   -0.0696   -0.4775    1.1113 C   0  0  0  0  0  0  0  0  0  0  0  0
   -0.6805    0.1900    0.2792 O   0  0  0  0  0  0  0  0  0  0  0  0
   -1.0852   -1.1101    3.3150 C   0  0  0  0  0  0  0  0  0  0  0  0
   -1.0883    1.6241    2.0791 H   0  0  0  0  0  0  0  0  0  0  0  0
    0.8937   -0.2959    3.0277 H   0  0  0  0  0  0  0  0  0  0  0  0
   -2.0970   -1.0114    2.9051 H   0  0  0  0  0  0  0  0  0  0  0  0
   -0.7860   -2.1580    3.2078 H   0  0  0  0  0  0  0  0  0  0  0  0
   -1.1357   -0.8775    4.3842 H   0  0  0  0  0  0  0  0  0  0  0  0
    0.6950   -1.6003    0.8178 N   0  0  0  0  0  0  0  0  0  0  0  0
    0.8777   -2.0908   -0.5246 C   0  0  2  0  0  0  0  0  0  0  0  0
   -0.4989   -2.4356   -1.0791 C   0  0  0  0  0  0  0  0  0  0  0  0
   -1.0288   -3.5343   -0.9257 O   0  0  0  0  0  0  0  0  0  0  0  0
    1.7958   -3.3126   -0.5644 C   0  0  0  0  0  0  0  0  0  0  0  0
    3.2444   -2.9818   -0.2514 C   0  0  0  0  0  0  0  0  0  0  0  0
    3.8332   -1.9948   -0.6824 O   0  0  0  0  0  0  0  0  0  0  0  0
    3.8258   -3.9158    0.5798 N   0  0  0  0  0  0  0  0  0  0  0  0
    1.1810   -2.0803    1.5718 H   0  0  0  0  0  0  0  0  0  0  0  0
    1.2981   -1.2617   -1.1057 H   0  0  0  0  0  0  0  0  0  0  0  0
    1.4691   -4.0573    0.1725 H   0  0  0  0  0  0  0  0  0  0  0  0
    1.7537   -3.7937   -1.5500 H   0  0  0  0  0  0  0  0  0  0  0  0
    3.2991   -4.7154    0.9151 H   0  0  0  0  0  0  0  0  0  0  0  0
    4.7908   -3.8438    0.8863 H   0  0  0  0  0  0  0  0  0  0  0  0
   -1.0899   -1.3578   -1.7232 N   0  0  0  0  0  0  0  0  0  0  0  0
   -2.4078   -1.4423   -2.3056 C   0  0  2  0  0  0  0  0  0  0  0  0
   -3.3828   -1.8431   -1.2064 C   0  0  0  0  0  0  0  0  0  0  0  0
   -3.0348   -2.4217   -0.1792 O   0  0  0  0  0  0  0  0  0  0  0  0
   -2.4427   -2.4395   -3.4532 C   0  0  0  0  0  0  0  0  0  0  0  0
   -0.5925   -0.4744   -1.7866 H   0  0  0  0  0  0  0  0  0  0  0  0
   -2.6580   -0.4396   -2.6687 H   0  0  0  0  0  0  0  0  0  0  0  0
   -2.1946   -3.4500   -3.1086 H   0  0  0  0  0  0  0  0  0  0  0  0
   -3.4359   -2.4815   -3.9123 H   0  0  0  0  0  0  0  0  0  0  0  0
   -1.7196   -2.1661   -4.2292 H   0  0  0  0  0  0  0  0  0  0  0  0
   -4.6933   -1.5171   -1.5268 N   0  0  0  0  0  0  0  0  0  0  0  0
   -5.8049   -1.8060   -0.6512 C   0  0  0  0  0  0  0  0  0  0  0  0
   -4.8876   -1.0213   -2.3918 H   0  0  0  0  0  0  0  0  0  0  0  0
   -6.2349   -2.7838   -0.9140 H   0  0  0  0  0  0  0  0  0  0  0  0
   -5.4544   -1.8279    0.3912 H   0  0  0  0  0  0  0  0  0  0  0  0
   -6.5724   -1.0260   -0.7637 H   0  0  0  0  0  0  0  0  0  0  0  0
  1  3  1  0  0  0  0
  1  7  1  0  0  0  0
  1  2  2  0  0  0  0
 21 22  1  0  0  0  0
 22 24  1  0  0  0  0
 22 23  2  0  0  0  0
 32 33  1  0  0  0  0
 33 41  1  0  0  0  0
 33 34  2  0  0  0  0
  8  9  1  0  0  0  0
  9 17  1  0  0  0  0
  9 10  2  0  0  0  0
 18 19  1  0  0  0  0
 19 31  1  0  0  0  0
 19 20  2  0  0  0  0
 32 35  1  0  0  0  0
  8 11  1  0  0  0  0
 41 42  1  0  0  0  0
 18 21  1  0  0  0  0
 31 32  1  0  0  0  0
  7  8  1  0  0  0  0
 17 18  1  0  0  0  0
  3  4  1  0  0  0  0
  3  5  1  0  0  0  0
  3  6  1  0  0  0  0
 35 38  1  0  0  0  0
 35 39  1  0  0  0  0
 35 40  1  0  0  0  0
 11 14  1  0  0  0  0
 11 15  1  0  0  0  0
 11 16  1  0  0  0  0
 42 44  1  0  0  0  0
 42 45  1  0  0  0  0
 42 46  1  0  0  0  0
 21 27  1  0  0  0  0
 21 28  1  0  0  0  0
 32 37  1  0  0  0  0
  8 13  1  0  0  0  0
 18 26  1  0  0  0  0
 24 29  1  0  0  0  0
 24 30  1  0  0  0  0
 41 43  1  0  0  0  0
  7 12  1  0  0  0  0
 31 36  1  0  0  0  0
 17 25  1  0  0  0  0
M  END
$$$$

  -OEChem-05262214473D

 46 45  0     1  0  0  0  0  0999 V2000
   -0.0543    1.9736    3.8406 C   0  0  0  0  0  0  0  0  0  0  0  0
    0.6744    1.6099    4.7562 O   0  0  0  0  0  0  0  0  0  0  0  0
   -0.5599    3.3779    3.8160 C   0  0  0  0  0  0  0  0  0  0  0  0
   -1.5202    3.4885    4.3450 H   0  0  0  0  0  0  0  0  0  0  0  0
    0.1282    4.0814    4.3116 H   0  0  0  0  0  0  0  0  0  0  0  0
   -0.7317    3.7994    2.8126 H   0  0  0  0  0  0  0  0  0  0  0  0
   -0.4812    1.1968    2.7762 N   0  0  0  0  0  0  0  0  0  0  0  0
   -0.1106   -0.1834    2.6051 C   0  0  2  0  0  0  0  0  0  0  0  0
   -0.0696   -0.4775    1.1113 C   0  0  0  0  0  0  0  0  0  0  0  0
   -0.6805    0.1900    0.2792 O   0  0  0  0  0  0  0  0  0  0  0  0
   -1.0852   -1.1101    3.3150 C   0  0  0  0  0  0  0  0  0  0  0  0
   -1.0883    1.6241    2.0791 H   0  0  0  0  0  0  0  0  0  0  0  0
    0.8937   -0.2959    3.0277 H   0  0  0  0  0  0  0  0  0  0  0  0
   -2.0970   -1.0114    2.9051 H   0  0  0  0  0  0  0  0  0  0  0  0
   -0.7860   -2.1580    3.2078 H   0  0  0  0  0  0  0  0  0  0  0  0
   -1.1357   -0.8775    4.3842 H   0  0  0  0  0  0  0  0  0  0  0  0
    0.6950   -1.6003    0.8178 N   0  0  0  0  0  0  0  0  0  0  0  0
    0.8777   -2.0908   -0.5246 C   0  0  2  0  0  0  0  0  0  0  0  0
   -0.4989   -2.4356   -1.0791 C   0  0  0  0  0  0  0  0  0  0  0  0
   -1.1439   -3.4162   -0.7133 O   0  0  0  0  0  0  0  0  0  0  0  0
    1.7958   -3.3126   -0.5644 C   0  0  0  0  0  0  0  0  0  0  0  0
    3.2444   -2.9818   -0.2514 C   0  0  0  0  0  0  0  0  0  0  0  0
    3.8332   -1.9948   -0.6824 O   0  0  0  0  0  0  0  0  0  0  0  0
    3.8258   -3.9158    0.5798 N   0  0  0  0  0  0  0  0  0  0  0  0
    1.1810   -2.0803    1.5718 H   0  0  0  0  0  0  0  0  0  0  0  0
    1.2981   -1.2617   -1.1057 H   0  0  0  0  0  0  0  0  0  0  0  0
    1.4691   -4.0573    0.1725 H   0  0  0  0  0  0  0  0  0  0  0  0
    1.7537   -3.7937   -1.5500 H   0  0  0  0  0  0  0  0  0  0  0  0
    3.2991   -4.7154    0.9151 H   0  0  0  0  0  0  0  0  0  0  0  0
    4.7908   -3.8438    0.8863 H   0  0  0  0  0  0  0  0  0  0  0  0
   -0.9466   -1.4935   -1.9944 N   0  0  0  0  0  0  0  0  0  0  0  0
   -2.2373   -1.5982   -2.6320 C   0  0  2  0  0  0  0  0  0  0  0  0
   -3.2988   -1.6408   -1.5408 C   0  0  0  0  0  0  0  0  0  0  0  0
   -3.0601   -1.9880   -0.3860 O   0  0  0  0  0  0  0  0  0  0  0  0
   -2.3185   -2.8317   -3.5178 C   0  0  0  0  0  0  0  0  0  0  0  0
   -0.3600   -0.6971   -2.2253 H   0  0  0  0  0  0  0  0  0  0  0  0
   -2.3672   -0.6919   -3.2336 H   0  0  0  0  0  0  0  0  0  0  0  0
   -2.1905   -3.7496   -2.9326 H   0  0  0  0  0  0  0  0  0  0  0  0
   -3.2880   -2.8943   -4.0229 H   0  0  0  0  0  0  0  0  0  0  0  0
   -1.5355   -2.8138   -4.2835 H   0  0  0  0  0  0  0  0  0  0  0  0
   -4.5529   -1.2869   -2.0185 N   0  0  0  0  0  0  0  0  0  0  0  0
   -5.7283   -1.2622   -1.1796 C   0  0  0  0  0  0  0  0  0  0  0  0
   -4.6548   -0.9948   -2.9860 H   0  0  0  0  0  0  0  0  0  0  0  0
   -6.2420   -2.2331   -1.2387 H   0  0  0  0  0  0  0  0  0  0  0  0
   -5.4316   -1.0674   -0.1385 H   0  0  0  0  0  0  0  0  0  0  0  0
   -6.4067   -0.4671   -1.5225 H   0  0  0  0  0  0  0  0  0  0  0  0
  1  3  1  0  0  0  0
  1  7  1  0  0  0  0
  1  2  2  0  0  0  0
 21 22  1  0  0  0  0
 22 24  1  0  0  0  0
 22 23  2  0  0  0  0
 32 33  1  0  0  0  0
 33 41  1  0  0  0  0
 33 34  2  0  0  0  0
  8  9  1  0  0  0  0
  9 17  1  0  0  0  0
  9 10  2  0  0  0  0
 18 19  1  0  0  0  0
 19 31  1  0  0  0  0
 19 20  2  0  0  0  0
 32 35  1  0  0  0  0
  8 11  1  0  0  0  0
 41 42  1  0  0  0  0
 18 21  1  0  0  0  0
 31 32  1  0  0  0  0
  7  8  1  0  0  0  0
 17 18  1  0  0  0  0
  3  4  1  0  0  0  0
  3  5  1  0  0  0  0
  3  6  1  0  0  0  0
 35 38  1  0  0  0  0
 35 39  1  0  0  0  0
 35 40  1  0  0  0  0
 11 14  1  0  0  0  0
 11 15  1  0  0  0  0
 11 16  1  0  0  0  0
 42 44  1  0  0  0  0
 42 45  1  0  0  0  0
 42 46  1  0  0  0  0
 21 27  1  0  0  0  0
 21 28  1  0  0  0  0
 32 37  1  0  0  0  0
  8 13  1  0  0  0  0
 18 26  1  0  0  0  0
 24 29  1  0  0  0  0
 24 30  1  0  0  0  0
 41 43  1  0  0  0  0
  7 12  1  0  0  0  0
 31 36  1  0  0  0  0
 17 25  1  0  0  0  0
M  END
$$$$

  -OEChem-05262214473D

 46 45  0     1  0  0  0  0  0999 V2000
   -0.0543    1.9736    3.8406 C   0  0  0  0  0  0  0  0  0  0  0  0
    0.6744    1.6099    4.7562 O   0  0  0  0  0  0  0  0  0  0  0  0
   -0.5599    3.3779    3.8160 C   0  0  0  0  0  0  0  0  0  0  0  0
   -1.5202    3.4885    4.3450 H   0  0  0  0  0  0  0  0  0  0  0  0
    0.1282    4.0814    4.3116 H   0  0  0  0  0  0  0  0  0  0  0  0
   -0.7317    3.7994    2.8126 H   0  0  0  0  0  0  0  0  0  0  0  0
   -0.4812    1.1968    2.7762 N   0  0  0  0  0  0  0  0  0  0  0  0
   -0.1106   -0.1834    2.6051 C   0  0  2  0  0  0  0  0  0  0  0  0
   -0.0696   -0.4775    1.1113 C   0  0  0  0  0  0  0  0  0  0  0  0
   -0.6805    0.1900    0.2792 O   0  0  0  0  0  0  0  0  0  0  0  0
   -1.0852   -1.1101    3.3150 C   0  0  0  0  0  0  0  0  0  0  0  0
   -1.0883    1.6241    2.0791 H   0  0  0  0  0  0  0  0  0  0  0  0
    0.8937   -0.2959    3.0277 H   0  0  0  0  0  0  0  0  0  0  0  0
   -2.0970   -1.0114    2.9051 H   0  0  0  0  0  0  0  0  0  0  0  0
   -0.7860   -2.1580    3.2078 H   0  0  0  0  0  0  0  0  0  0  0  0
   -1.1357   -0.8775    4.3842 H   0  0  0  0  0  0  0  0  0  0  0  0
    0.6950   -1.6003    0.8178 N   0  0  0  0  0  0  0  0  0  0  0  0
    0.8777   -2.0908   -0.5246 C   0  0  2  0  0  0  0  0  0  0  0  0
   -0.4989   -2.4356   -1.0791 C   0  0  0  0  0  0  0  0  0  0  0  0
   -1.2564   -3.2417   -0.5426 O   0  0  0  0  0  0  0  0  0  0  0  0
    1.7958   -3.3126   -0.5644 C   0  0  0  0  0  0  0  0  0  0  0  0
    3.2444   -2.9818   -0.2514 C   0  0  0  0  0  0  0  0  0  0  0  0
    3.8332   -1.9948   -0.6824 O   0  0  0  0  0  0  0  0  0  0  0  0
    3.8258   -3.9158    0.5798 N   0  0  0  0  0  0  0  0  0  0  0  0
    1.1810   -2.0803    1.5718 H   0  0  0  0  0  0  0  0  0  0  0  0
    1.2981   -1.2617   -1.1057 H   0  0  0  0  0  0  0  0  0  0  0  0
    1.4691   -4.0573    0.1725 H   0  0  0  0  0  0  0  0  0  0  0  0
    1.7537   -3.7937   -1.5500 H   0  0  0  0  0  0  0  0  0  0  0  0
    3.2991   -4.7154    0.9151 H   0  0  0  0  0  0  0  0  0  0  0  0
    4.7908   -3.8438    0.8863 H   0  0  0  0  0  0  0  0  0  0  0  0
   -0.8052   -1.7015   -2.2163 N   0  0  0  0  0  0  0  0  0  0  0  0
   -2.0681   -1.8411   -2.9009 C   0  0  2  0  0  0  0  0  0  0  0  0
   -3.1790   -1.5315   -1.9062 C   0  0  0  0  0  0  0  0  0  0  0  0
   -3.0316   -1.6150   -0.6886 O   0  0  0  0  0  0  0  0  0  0  0  0
   -2.2316   -3.2372   -3.4812 C   0  0  0  0  0  0  0  0  0  0  0  0
   -0.1307   -1.0366   -2.5834 H   0  0  0  0  0  0  0  0  0  0  0  0
   -2.0771   -1.0952   -3.7031 H   0  0  0  0  0  0  0  0  0  0  0  0
   -2.2250   -3.9982   -2.6922 H   0  0  0  0  0  0  0  0  0  0  0  0
   -3.1774   -3.3328   -4.0246 H   0  0  0  0  0  0  0  0  0  0  0  0
   -1.4154   -3.4695   -4.1738 H   0  0  0  0  0  0  0  0  0  0  0  0
   -4.3668   -1.1927   -2.5391 N   0  0  0  0  0  0  0  0  0  0  0  0
   -5.5721   -0.8678   -1.8127 C   0  0  0  0  0  0  0  0  0  0  0  0
   -4.3927   -1.1301   -3.5525 H   0  0  0  0  0  0  0  0  0  0  0  0
   -6.1780   -1.7764   -1.6816 H   0  0  0  0  0  0  0  0  0  0  0  0
   -5.3068   -0.4587   -0.8267 H   0  0  0  0  0  0  0  0  0  0  0  0
   -6.1496   -0.1203   -2.3765 H   0  0  0  0  0  0  0  0  0  0  0  0
  1  3  1  0  0  0  0
  1  7  1  0  0  0  0
  1  2  2  0  0  0  0
 21 22  1  0  0  0  0
 22 24  1  0  0  0  0
 22 23  2  0  0  0  0
 32 33  1  0  0  0  0
 33 41  1  0  0  0  0
 33 34  2  0  0  0  0
  8  9  1  0  0  0  0
  9 17  1  0  0  0  0
  9 10  2  0  0  0  0
 18 19  1  0  0  0  0
 19 31  1  0  0  0  0
 19 20  2  0  0  0  0
 32 35  1  0  0  0  0
  8 11  1  0  0  0  0
 41 42  1  0  0  0  0
 18 21  1  0  0  0  0
 31 32  1  0  0  0  0
  7  8  1  0  0  0  0
 17 18  1  0  0  0  0
  3  4  1  0  0  0  0
  3  5  1  0  0  0  0
  3  6  1  0  0  0  0
 35 38  1  0  0  0  0
 35 39  1  0  0  0  0
 35 40  1  0  0  0  0
 11 14  1  0  0  0  0
 11 15  1  0  0  0  0
 11 16  1  0  0  0  0
 42 44  1  0  0  0  0
 42 45  1  0  0  0  0
 42 46  1  0  0  0  0
 21 27  1  0  0  0  0
 21 28  1  0  0  0  0
 32 37  1  0  0  0  0
  8 13  1  0  0  0  0
 18 26  1  0  0  0  0
 24 29  1  0  0  0  0
 24 30  1  0  0  0  0
 41 43  1  0  0  0  0
  7 12  1  0  0  0  0
 31 36  1  0  0  0  0
 17 25  1  0  0  0  0
M  END
$$$$

  -OEChem-05262214473D

 46 45  0     1  0  0  0  0  0999 V2000
   -0.0543    1.9736    3.8406 C   0  0  0  0  0  0  0  0  0  0  0  0
    0.6744    1.6099    4.7562 O   0  0  0  0  0  0  0  0  0  0  0  0
   -0.5599    3.3779    3.8160 C   0  0  0  0  0  0  0  0  0  0  0  0
   -1.5202    3.4885    4.3450 H   0  0  0  0  0  0  0  0  0  0  0  0
    0.1282    4.0814    4.3116 H   0  0  0  0  0  0  0  0  0  0  0  0
   -0.7317    3.7994    2.8126 H   0  0  0  0  0  0  0  0  0  0  0  0
   -0.4812    1.1968    2.7762 N   0  0  0  0  0  0  0  0  0  0  0  0
   -0.1106   -0.1834    2.6051 C   0  0  2  0  0  0  0  0  0  0  0  0
   -0.0696   -0.4775    1.1113 C   0  0  0  0  0  0  0  0  0  0  0  0
   -0.6805    0.1900    0.2792 O   0  0  0  0  0  0  0  0  0  0  0  0
   -1.0852   -1.1101    3.3150 C   0  0  0  0  0  0  0  0  0  0  0  0
   -1.0883    1.6241    2.0791 H   0  0  0  0  0  0  0  0  0  0  0  0
    0.8937   -0.2959    3.0277 H   0  0  0  0  0  0  0  0  0  0  0  0
   -2.0970   -1.0114    2.9051 H   0  0  0  0  0  0  0  0  0  0  0  0
   -0.7860   -2.1580    3.2078 H   0  0  0  0  0  0  0  0  0  0  0  0
   -1.1357   -0.8775    4.3842 H   0  0  0  0  0  0  0  0  0  0  0  0
    0.6950   -1.6003    0.8178 N   0  0  0  0  0  0  0  0  0  0  0  0
    0.8777   -2.0908   -0.5246 C   0  0  2  0  0  0  0  0  0  0  0  0
   -0.4989   -2.4356   -1.0791 C   0  0  0  0  0  0  0  0  0  0  0  0
   -1.3587   -3.0226   -0.4251 O   0  0  0  0  0  0  0  0  0  0  0  0
    1.7958   -3.3126   -0.5644 C   0  0  0  0  0  0  0  0  0  0  0  0
    3.2444   -2.9818   -0.2514 C   0  0  0  0  0  0  0  0  0  0  0  0
    3.8332   -1.9948   -0.6824 O   0  0  0  0  0  0  0  0  0  0  0  0
    3.8258   -3.9158    0.5798 N   0  0  0  0  0  0  0  0  0  0  0  0
    1.1810   -2.0803    1.5718 H   0  0  0  0  0  0  0  0  0  0  0  0
    1.2981   -1.2617   -1.1057 H   0  0  0  0  0  0  0  0  0  0  0  0
    1.4691   -4.0573    0.1725 H   0  0  0  0  0  0  0  0  0  0  0  0
    1.7537   -3.7937   -1.5500 H   0  0  0  0  0  0  0  0  0  0  0  0
    3.2991   -4.7154    0.9151 H   0  0  0  0  0  0  0  0  0  0  0  0
    4.7908   -3.8438    0.8863 H   0  0  0  0  0  0  0  0  0  0  0  0
   -0.6751   -1.9677   -2.3737 N   0  0  0  0  0  0  0  0  0  0  0  0
   -1.9118   -2.1545   -3.0939 C   0  0  2  0  0  0  0  0  0  0  0  0
   -3.0315   -1.5226   -2.2776 C   0  0  0  0  0  0  0  0  0  0  0  0
   -2.9513   -1.3281   -1.0665 O   0  0  0  0  0  0  0  0  0  0  0  0
   -2.1881   -3.6286   -3.3459 C   0  0  0  0  0  0  0  0  0  0  0  0
    0.0798   -1.4700   -2.8365 H   0  0  0  0  0  0  0  0  0  0  0  0
   -1.8073   -1.6218   -4.0454 H   0  0  0  0  0  0  0  0  0  0  0  0
   -2.2958   -4.1788   -2.4040 H   0  0  0  0  0  0  0  0  0  0  0  0
   -3.1119   -3.7671   -3.9172 H   0  0  0  0  0  0  0  0  0  0  0  0
   -1.3677   -4.0884   -3.9074 H   0  0  0  0  0  0  0  0  0  0  0  0
   -4.1476   -1.2410   -3.0530 N   0  0  0  0  0  0  0  0  0  0  0  0
   -5.3470   -0.6495   -2.5073 C   0  0  0  0  0  0  0  0  0  0  0  0
   -4.1191   -1.4179   -4.0528 H   0  0  0  0  0  0  0  0  0  0  0  0
   -6.0472   -1.4449   -2.2124 H   0  0  0  0  0  0  0  0  0  0  0  0
   -5.0887   -0.0434   -1.6264 H   0  0  0  0  0  0  0  0  0  0  0  0
   -5.8185   -0.0092   -3.2674 H   0  0  0  0  0  0  0  0  0  0  0  0
  1  3  1  0  0  0  0
  1  7  1  0  0  0  0
  1  2  2  0  0  0  0
 21 22  1  0  0  0  0
 22 24  1  0  0  0  0
 22 23  2  0  0  0  0
 32 33  1  0  0  0  0
 33 41  1  0  0  0  0
 33 34  2  0  0  0  0
  8  9  1  0  0  0  0
  9 17  1  0  0  0  0
  9 10  2  0  0  0  0
 18 19  1  0  0  0  0
 19 31  1  0  0  0  0
 19 20  2  0  0  0  0
 32 35  1  0  0  0  0
  8 11  1  0  0  0  0
 41 42  1  0  0  0  0
 18 21  1  0  0  0  0
 31 32  1  0  0  0  0
  7  8  1  0  0  0  0
 17 18  1  0  0  0  0
  3  4  1  0  0  0  0
  3  5  1  0  0  0  0
  3  6  1  0  0  0  0
 35 38  1  0  0  0  0
 35 39  1  0  0  0  0
 35 40  1  0  0  0  0
 11 14  1  0  0  0  0
 11 15  1  0  0  0  0
 11 16  1  0  0  0  0
 42 44  1  0  0  0  0
 42 45  1  0  0  0  0
 42 46  1  0  0  0  0
 21 27  1  0  0  0  0
 21 28  1  0  0  0  0
 32 37  1  0  0  0  0
  8 13  1  0  0  0  0
 18 26  1  0  0  0  0
 24 29  1  0  0  0  0
 24 30  1  0  0  0  0
 41 43  1  0  0  0  0
  7 12  1  0  0  0  0
 31 36  1  0  0  0  0
 17 25  1  0  0  0  0
M  END
$$$$

  -OEChem-05262214473D

 46 45  0     1  0  0  0  0  0999 V2000
   -0.0543    1.9736    3.8406 C   0  0  0  0  0  0  0  0  0  0  0  0
    0.6744    1.6099    4.7562 O   0  0  0  0  0  0  0  0  0  0  0  0
   -0.5599    3.3779    3.8160 C   0  0  0  0  0  0  0  0  0  0  0  0
   -1.5202    3.4885    4.3450 H   0  0  0  0  0  0  0  0  0  0  0  0
    0.1282    4.0814    4.3116 H   0  0  0  0  0  0  0  0  0  0  0  0
   -0.7317    3.7994    2.8126 H   0  0  0  0  0  0  0  0  0  0  0  0
   -0.4812    1.1968    2.7762 N   0  0  0  0  0  0  0  0  0  0  0  0
   -0.1106   -0.1834    2.6051 C   0  0  2  0  0  0  0  0  0  0  0  0
   -0.0696   -0.4775    1.1113 C   0  0  0  0  0  0  0  0  0  0  0  0
   -0.6805    0.1900    0.2792 O   0  0  0  0  0  0  0  0  0  0  0  0
   -1.0852   -1.1101    3.3150 C   0  0  0  0  0  0  0  0  0  0  0  0
   -1.0883    1.6241    2.0791 H   0  0  0  0  0  0  0  0  0  0  0  0
    0.8937   -0.2959    3.0277 H   0  0  0  0  0  0  0  0  0  0  0  0
   -2.0970   -1.0114    2.9051 H   0  0  0  0  0  0  0  0  0  0  0  0
   -0.7860   -2.1580    3.2078 H   0  0  0  0  0  0  0  0  0  0  0  0
   -1.1357   -0.8775    4.3842 H   0  0  0  0  0  0  0  0  0  0  0  0
    0.6950   -1.6003    0.8178 N   0  0  0  0  0  0  0  0  0  0  0  0
    0.8777   -2.0908   -0.5246 C   0  0  2  0  0  0  0  0  0  0  0  0
   -0.4989   -2.4356   -1.0791 C   0  0  0  0  0  0  0  0  0  0  0  0
   -1.4436   -2.7739   -0.3688 O   0  0  0  0  0  0  0  0  0  0  0  0
    1.7958   -3.3126   -0.5644 C   0  0  0  0  0  0  0  0  0  0  0  0
    3.2444   -2.9818   -0.2514 C   0  0  0  0  0  0  0  0  0  0  0  0
    3.8332   -1.9948   -0.6824 O   0  0  0  0  0  0  0  0  0  0  0  0
    3.8258   -3.9158    0.5798 N   0  0  0  0  0  0  0  0  0  0  0  0
    1.1810   -2.0803    1.5718 H   0  0  0  0  0  0  0  0  0  0  0  0
    1.2981   -1.2617   -1.1057 H   0  0  0  0  0  0  0  0  0  0  0  0
    1.4691   -4.0573    0.1725 H   0  0  0  0  0  0  0  0  0  0  0  0
    1.7537   -3.7937   -1.5500 H   0  0  0  0  0  0  0  0  0  0  0  0
    3.2991   -4.7154    0.9151 H   0  0  0  0  0  0  0  0  0  0  0  0
    4.7908   -3.8438    0.8863 H   0  0  0  0  0  0  0  0  0  0  0  0
   -0.5653   -2.2738   -2.4558 N   0  0  0  0  0  0  0  0  0  0  0  0
   -1.7791   -2.5172   -3.1979 C   0  0  2  0  0  0  0  0  0  0  0  0
   -2.8665   -1.6148   -2.6299 C   0  0  0  0  0  0  0  0  0  0  0  0
   -2.8245   -1.1470   -1.4939 O   0  0  0  0  0  0  0  0  0  0  0  0
   -2.1908   -3.9791   -3.1212 C   0  0  0  0  0  0  0  0  0  0  0  0
    0.2571   -1.9676   -2.9673 H   0  0  0  0  0  0  0  0  0  0  0  0
   -1.5762   -2.2359   -4.2370 H   0  0  0  0  0  0  0  0  0  0  0  0
   -2.3982   -4.2792   -2.0875 H   0  0  0  0  0  0  0  0  0  0  0  0
   -3.0958   -4.1678   -3.7080 H   0  0  0  0  0  0  0  0  0  0  0  0
   -1.3955   -4.6285   -3.5026 H   0  0  0  0  0  0  0  0  0  0  0  0
   -3.9104   -1.4284   -3.5253 N   0  0  0  0  0  0  0  0  0  0  0  0
   -5.0683   -0.6223   -3.2160 C   0  0  0  0  0  0  0  0  0  0  0  0
   -3.8526   -1.8387   -4.4526 H   0  0  0  0  0  0  0  0  0  0  0  0
   -5.8586   -1.2611   -2.7950 H   0  0  0  0  0  0  0  0  0  0  0  0
   -4.7920    0.1501   -2.4832 H   0  0  0  0  0  0  0  0  0  0  0  0
   -5.4360   -0.1415   -4.1345 H   0  0  0  0  0  0  0  0  0  0  0  0
  1  3  1  0  0  0  0
  1  7  1  0  0  0  0
  1  2  2  0  0  0  0
 21 22  1  0  0  0  0
 22 24  1  0  0  0  0
 22 23  2  0  0  0  0
 32 33  1  0  0  0  0
 33 41  1  0  0  0  0
 33 34  2  0  0  0  0
  8  9  1  0  0  0  0
  9 17  1  0  0  0  0
  9 10  2  0  0  0  0
 18 19  1  0  0  0  0
 19 31  1  0  0  0  0
 19 20  2  0  0  0  0
 32 35  1  0  0  0  0
  8 11  1  0  0  0  0
 41 42  1  0  0  0  0
 18 21  1  0  0  0  0
 31 32  1  0  0  0  0
  7  8  1  0  0  0  0
 17 18  1  0  0  0  0
  3  4  1  0  0  0  0
  3  5  1  0  0  0  0
  3  6  1  0  0  0  0
 35 38  1  0  0  0  0
 35 39  1  0  0  0  0
 35 40  1  0  0  0  0
 11 14  1  0  0  0  0
 11 15  1  0  0  0  0
 11 16  1  0  0  0  0
 42 44  1  0  0  0  0
 42 45  1  0  0  0  0
 42 46  1  0  0  0  0
 21 27  1  0  0  0  0
 21 28  1  0  0  0  0
 32 37  1  0  0  0  0
  8 13  1  0  0  0  0
 18 26  1  0  0  0  0
 24 29  1  0  0  0  0
 24 30  1  0  0  0  0
 41 43  1  0  0  0  0
  7 12  1  0  0  0  0
 31 36  1  0  0  0  0
 17 25  1  0  0  0  0
M  END
$$$$

  -OEChem-05262214473D

 46 45  0     1  0  0  0  0  0999 V2000
   -0.0543    1.9736    3.8406 C   0  0  0  0  0  0  0  0  0  0  0  0
    0.6744    1.6099    4.7562 O   0  0  0  0  0  0  0  0  0  0  0  0
   -0.5599    3.3779    3.8160 C   0  0  0  0  0  0  0  0  0  0  0  0
   -1.5202    3.4885    4.3450 H   0  0  0  0  0  0  0  0  0  0  0  0
    0.1282    4.0814    4.3116 H   0  0  0  0  0  0  0  0  0  0  0  0
   -0.7317    3.7994    2.8126 H   0  0  0  0  0  0  0  0  0  0  0  0
   -0.4812    1.1968    2.7762 N   0  0  0  0  0  0  0  0  0  0  0  0
   -0.1106   -0.1834    2.6051 C   0  0  2  0  0  0  0  0  0  0  0  0
   -0.0696   -0.4775    1.1113 C   0  0  0  0  0  0  0  0  0  0  0  0
   -0.6805    0.1900    0.2792 O   0  0  0  0  0  0  0  0  0  0  0  0
   -1.0852   -1.1101    3.3150 C   0  0  0  0  0  0  0  0  0  0  0  0
   -1.0883    1.6241    2.0791 H   0  0  0  0  0  0  0  0  0  0  0  0
    0.8937   -0.2959    3.0277 H   0  0  0  0  0  0  0  0  0  0  0  0
   -2.0970   -1.0114    2.9051 H   0  0  0  0  0  0  0  0  0  0  0  0
   -0.7860   -2.1580    3.2078 H   0  0  0  0  0  0  0  0  0  0  0  0
   -1.1357   -0.8775    4.3842 H   0  0  0  0  0  0  0  0  0  0  0  0
    0.6950   -1.6003    0.8178 N   0  0  0  0  0  0  0  0  0  0  0  0
    0.8777   -2.0908   -0.5246 C   0  0  2  0  0  0  0  0  0  0  0  0
   -0.4989   -2.4356   -1.0791 C   0  0  0  0  0  0  0  0  0  0  0  0
   -1.5056   -2.5124   -0.3776 O   0  0  0  0  0  0  0  0  0  0  0  0
    1.7958   -3.3126   -0.5644 C   0  0  0  0  0  0  0  0  0  0  0  0
    3.2444   -2.9818   -0.2514 C   0  0  0  0  0  0  0  0  0  0  0  0
    3.8332   -1.9948   -0.6824 O   0  0  0  0  0  0  0  0  0  0  0  0
    3.8258   -3.9158    0.5798 N   0  0  0  0  0  0  0  0  0  0  0  0
    1.1810   -2.0803    1.5718 H   0  0  0  0  0  0  0  0  0  0  0  0
    1.2981   -1.2617   -1.1057 H   0  0  0  0  0  0  0  0  0  0  0  0
    1.4691   -4.0573    0.1725 H   0  0  0  0  0  0  0  0  0  0  0  0
    1.7537   -3.7937   -1.5500 H   0  0  0  0  0  0  0  0  0  0  0  0
    3.2991   -4.7154    0.9151 H   0  0  0  0  0  0  0  0  0  0  0  0
    4.7908   -3.8438    0.8863 H   0  0  0  0  0  0  0  0  0  0  0  0
   -0.4833   -2.5990   -2.4572 N   0  0  0  0  0  0  0  0  0  0  0  0
   -1.6789   -2.9043   -3.2058 C   0  0  2  0  0  0  0  0  0  0  0  0
   -2.6952   -1.8018   -2.9389 C   0  0  0  0  0  0  0  0  0  0  0  0
   -2.6599   -1.0840   -1.9416 O   0  0  0  0  0  0  0  0  0  0  0  0
   -2.2396   -4.2649   -2.8223 C   0  0  0  0  0  0  0  0  0  0  0  0
    0.3892   -2.4955   -2.9668 H   0  0  0  0  0  0  0  0  0  0  0  0
   -1.3996   -2.8957   -4.2650 H   0  0  0  0  0  0  0  0  0  0  0  0
   -2.5250   -4.2926   -1.7643 H   0  0  0  0  0  0  0  0  0  0  0  0
   -3.1302   -4.5073   -3.4113 H   0  0  0  0  0  0  0  0  0  0  0  0
   -1.4969   -5.0529   -2.9869 H   0  0  0  0  0  0  0  0  0  0  0  0
   -3.6713   -1.7422   -3.9238 N   0  0  0  0  0  0  0  0  0  0  0  0
   -4.7550   -0.7880   -3.8907 C   0  0  0  0  0  0  0  0  0  0  0  0
   -3.6114   -2.3638   -4.7249 H   0  0  0  0  0  0  0  0  0  0  0  0
   -5.6249   -1.2376   -3.3897 H   0  0  0  0  0  0  0  0  0  0  0  0
   -4.4370    0.1087   -3.3387 H   0  0  0  0  0  0  0  0  0  0  0  0
   -5.0283   -0.5080   -4.9187 H   0  0  0  0  0  0  0  0  0  0  0  0
  1  3  1  0  0  0  0
  1  7  1  0  0  0  0
  1  2  2  0  0  0  0
 21 22  1  0  0  0  0
 22 24  1  0  0  0  0
 22 23  2  0  0  0  0
 32 33  1  0  0  0  0
 33 41  1  0  0  0  0
 33 34  2  0  0  0  0
  8  9  1  0  0  0  0
  9 17  1  0  0  0  0
  9 10  2  0  0  0  0
 18 19  1  0  0  0  0
 19 31  1  0  0  0  0
 19 20  2  0  0  0  0
 32 35  1  0  0  0  0
  8 11  1  0  0  0  0
 41 42  1  0  0  0  0
 18 21  1  0  0  0  0
 31 32  1  0  0  0  0
  7  8  1  0  0  0  0
 17 18  1  0  0  0  0
  3  4  1  0  0  0  0
  3  5  1  0  0  0  0
  3  6  1  0  0  0  0
 35 38  1  0  0  0  0
 35 39  1  0  0  0  0
 35 40  1  0  0  0  0
 11 14  1  0  0  0  0
 11 15  1  0  0  0  0
 11 16  1  0  0  0  0
 42 44  1  0  0  0  0
 42 45  1  0  0  0  0
 42 46  1  0  0  0  0
 21 27  1  0  0  0  0
 21 28  1  0  0  0  0
 32 37  1  0  0  0  0
  8 13  1  0  0  0  0
 18 26  1  0  0  0  0
 24 29  1  0  0  0  0
 24 30  1  0  0  0  0
 41 43  1  0  0  0  0
  7 12  1  0  0  0  0
 31 36  1  0  0  0  0
 17 25  1  0  0  0  0
M  END
$$$$

  -OEChem-05262214473D

 46 45  0     1  0  0  0  0  0999 V2000
   -0.0543    1.9736    3.8406 C   0  0  0  0  0  0  0  0  0  0  0  0
    0.6744    1.6099    4.7562 O   0  0  0  0  0  0  0  0  0  0  0  0
   -0.5599    3.3779    3.8160 C   0  0  0  0  0  0  0  0  0  0  0  0
   -1.5202    3.4885    4.3450 H   0  0  0  0  0  0  0  0  0  0  0  0
    0.1282    4.0814    4.3116 H   0  0  0  0  0  0  0  0  0  0  0  0
   -0.7317    3.7994    2.8126 H   0  0  0  0  0  0  0  0  0  0  0  0
   -0.4812    1.1968    2.7762 N   0  0  0  0  0  0  0  0  0  0  0  0
   -0.1106   -0.1834    2.6051 C   0  0  2  0  0  0  0  0  0  0  0  0
   -0.0696   -0.4775    1.1113 C   0  0  0  0  0  0  0  0  0  0  0  0
   -0.6805    0.1900    0.2792 O   0  0  0  0  0  0  0  0  0  0  0  0
   -1.0852   -1.1101    3.3150 C   0  0  0  0  0  0  0  0  0  0  0  0
   -1.0883    1.6241    2.0791 H   0  0  0  0  0  0  0  0  0  0  0  0
    0.8937   -0.2959    3.0277 H   0  0  0  0  0  0  0  0  0  0  0  0
   -2.0970   -1.0114    2.9051 H   0  0  0  0  0  0  0  0  0  0  0  0
   -0.7860   -2.1580    3.2078 H   0  0  0  0  0  0  0  0  0  0  0  0
   -1.1357   -0.8775    4.3842 H   0  0  0  0  0  0  0  0  0  0  0  0
    0.6950   -1.6003    0.8178 N   0  0  0  0  0  0  0  0  0  0  0  0
    0.8777   -2.0908   -0.5246 C   0  0  2  0  0  0  0  0  0  0  0  0
   -0.4843   -2.0791   -1.2074 C   0  0  0  0  0  0  0  0  0  0  0  0
   -1.5056   -1.6662   -0.6618 O   0  0  0  0  0  0  0  0  0  0  0  0
    1.4758   -3.4977   -0.5403 C   0  0  0  0  0  0  0  0  0  0  0  0
    2.9263   -3.5351   -0.0924 C   0  0  0  0  0  0  0  0  0  0  0  0
    3.7717   -2.7113   -0.4290 O   0  0  0  0  0  0  0  0  0  0  0  0
    3.1878   -4.6003    0.7431 N   0  0  0  0  0  0  0  0  0  0  0  0
    1.1810   -2.0803    1.5718 H   0  0  0  0  0  0  0  0  0  0  0  0
    1.5362   -1.3759   -1.0315 H   0  0  0  0  0  0  0  0  0  0  0  0
    0.9137   -4.1569    0.1333 H   0  0  0  0  0  0  0  0  0  0  0  0
    1.4107   -3.9324   -1.5460 H   0  0  0  0  0  0  0  0  0  0  0  0
    2.4562   -5.2555    0.9978 H   0  0  0  0  0  0  0  0  0  0  0  0
    4.1095   -4.7713    1.1326 H   0  0  0  0  0  0  0  0  0  0  0  0
   -0.4189   -2.5370   -2.5158 N   0  0  0  0  0  0  0  0  0  0  0  0
   -1.5829   -2.5908   -3.3675 C   0  0  2  0  0  0  0  0  0  0  0  0
   -2.1652   -1.1864   -3.4573 C   0  0  0  0  0  0  0  0  0  0  0  0
   -1.9586   -0.3192   -2.6110 O   0  0  0  0  0  0  0  0  0  0  0  0
   -2.6137   -3.5735   -2.8343 C   0  0  0  0  0  0  0  0  0  0  0  0
    0.4716   -2.8394   -2.8998 H   0  0  0  0  0  0  0  0  0  0  0  0
   -1.2362   -2.9070   -4.3574 H   0  0  0  0  0  0  0  0  0  0  0  0
   -2.9728   -3.2733   -1.8432 H   0  0  0  0  0  0  0  0  0  0  0  0
   -3.4836   -3.6344   -3.4966 H   0  0  0  0  0  0  0  0  0  0  0  0
   -2.1844   -4.5770   -2.7423 H   0  0  0  0  0  0  0  0  0  0  0  0
   -2.9777   -1.0286   -4.5713 N   0  0  0  0  0  0  0  0  0  0  0  0
   -3.6566    0.2103   -4.8720 C   0  0  0  0  0  0  0  0  0  0  0  0
   -3.0771   -1.7954   -5.2300 H   0  0  0  0  0  0  0  0  0  0  0  0
   -4.6655    0.1918   -4.4340 H   0  0  0  0  0  0  0  0  0  0  0  0
   -3.0885    1.0517   -4.4485 H   0  0  0  0  0  0  0  0  0  0  0  0
   -3.7326    0.3312   -5.9627 H   0  0  0  0  0  0  0  0  0  0  0  0
  1  3  1  0  0  0  0
  1  7  1  0  0  0  0
  1  2  2  0  0  0  0
 21 22  1  0  0  0  0
 22 24  1  0  0  0  0
 22 23  2  0  0  0  0
 32 33  1  0  0  0  0
 33 41  1  0  0  0  0
 33 34  2  0  0  0  0
  8  9  1  0  0  0  0
  9 17  1  0  0  0  0
  9 10  2  0  0  0  0
 18 19  1  0  0  0  0
 19 31  1  0  0  0  0
 19 20  2  0  0  0  0
 32 35  1  0  0  0  0
  8 11  1  0  0  0  0
 41 42  1  0  0  0  0
 18 21  1  0  0  0  0
 31 32  1  0  0  0  0
  7  8  1  0  0  0  0
 17 18  1  0  0  0  0
  3  4  1  0  0  0  0
  3  5  1  0  0  0  0
  3  6  1  0  0  0  0
 35 38  1  0  0  0  0
 35 39  1  0  0  0  0
 35 40  1  0  0  0  0
 11 14  1  0  0  0  0
 11 15  1  0  0  0  0
 11 16  1  0  0  0  0
 42 44  1  0  0  0  0
 42 45  1  0  0  0  0
 42 46  1  0  0  0  0
 21 27  1  0  0  0  0
 21 28  1  0  0  0  0
 32 37  1  0  0  0  0
  8 13  1  0  0  0  0
 18 26  1  0  0  0  0
 24 29  1  0  0  0  0
 24 30  1  0  0  0  0
 41 43  1  0  0  0  0
  7 12  1  0  0  0  0
 31 36  1  0  0  0  0
 17 25  1  0  0  0  0
M  END
$$$$

  -OEChem-05262214473D

 46 45  0     1  0  0  0  0  0999 V2000
   -0.0543    1.9736    3.8406 C   0  0  0  0  0  0  0  0  0  0  0  0
    0.6744    1.6099    4.7562 O   0  0  0  0  0  0  0  0  0  0  0  0
   -0.5599    3.3779    3.8160 C   0  0  0  0  0  0  0  0  0  0  0  0
   -1.5202    3.4885    4.3450 H   0  0  0  0  0  0  0  0  0  0  0  0
    0.1282    4.0814    4.3116 H   0  0  0  0  0  0  0  0  0  0  0  0
   -0.7317    3.7994    2.8126 H   0  0  0  0  0  0  0  0  0  0  0  0
   -0.4812    1.1968    2.7762 N   0  0  0  0  0  0  0  0  0  0  0  0
   -0.1106   -0.1834    2.6051 C   0  0  2  0  0  0  0  0  0  0  0  0
   -0.0696   -0.4775    1.1113 C   0  0  0  0  0  0  0  0  0  0  0  0
   -0.6805    0.1900    0.2792 O   0  0  0  0  0  0  0  0  0  0  0  0
   -1.0852   -1.1101    3.3150 C   0  0  0  0  0  0  0  0  0  0  0  0
   -1.0883    1.6241    2.0791 H   0  0  0  0  0  0  0  0  0  0  0  0
    0.8937   -0.2959    3.0277 H   0  0  0  0  0  0  0  0  0  0  0  0
   -2.0970   -1.0114    2.9051 H   0  0  0  0  0  0  0  0  0  0  0  0
   -0.7860   -2.1580    3.2078 H   0  0  0  0  0  0  0  0  0  0  0  0
   -1.1357   -0.8775    4.3842 H   0  0  0  0  0  0  0  0  0  0  0  0
    0.6950   -1.6003    0.8178 N   0  0  0  0  0  0  0  0  0  0  0  0
    0.8777   -2.0908   -0.5246 C   0  0  2  0  0  0  0  0  0  0  0  0
   -0.4843   -2.0791   -1.2074 C   0  0  0  0  0  0  0  0  0  0  0  0
   -1.4423   -1.4353   -0.7841 O   0  0  0  0  0  0  0  0  0  0  0  0
    1.4758   -3.4977   -0.5403 C   0  0  0  0  0  0  0  0  0  0  0  0
    2.9263   -3.5351   -0.0924 C   0  0  0  0  0  0  0  0  0  0  0  0
    3.7717   -2.7113   -0.4290 O   0  0  0  0  0  0  0  0  0  0  0  0
    3.1878   -4.6003    0.7431 N   0  0  0  0  0  0  0  0  0  0  0  0
    1.1810   -2.0803    1.5718 H   0  0  0  0  0  0  0  0  0  0  0  0
    1.5362   -1.3759   -1.0315 H   0  0  0  0  0  0  0  0  0  0  0  0
    0.9137   -4.1569    0.1333 H   0  0  0  0  0  0  0  0  0  0  0  0
    1.4107   -3.9324   -1.5460 H   0  0  0  0  0  0  0  0  0  0  0  0
    2.4562   -5.2555    0.9978 H   0  0  0  0  0  0  0  0  0  0  0  0
    4.1095   -4.7713    1.1326 H   0  0  0  0  0  0  0  0  0  0  0  0
   -0.4928   -2.8316   -2.3735 N   0  0  0  0  0  0  0  0  0  0  0  0
   -1.6684   -2.9452   -3.2031 C   0  0  2  0  0  0  0  0  0  0  0  0
   -2.0855   -1.5417   -3.6223 C   0  0  0  0  0  0  0  0  0  0  0  0
   -1.7667   -0.5323   -2.9973 O   0  0  0  0  0  0  0  0  0  0  0  0
   -2.7976   -3.6513   -2.4689 C   0  0  0  0  0  0  0  0  0  0  0  0
    0.3505   -3.3159   -2.6666 H   0  0  0  0  0  0  0  0  0  0  0  0
   -1.3761   -3.5198   -4.0887 H   0  0  0  0  0  0  0  0  0  0  0  0
   -3.1040   -3.0903   -1.5785 H   0  0  0  0  0  0  0  0  0  0  0  0
   -3.6789   -3.7621   -3.1092 H   0  0  0  0  0  0  0  0  0  0  0  0
   -2.4859   -4.6492   -2.1421 H   0  0  0  0  0  0  0  0  0  0  0  0
   -2.8917   -1.5524   -4.7520 N   0  0  0  0  0  0  0  0  0  0  0  0
   -3.4271   -0.3464   -5.3391 C   0  0  0  0  0  0  0  0  0  0  0  0
   -3.0895   -2.4339   -5.2163 H   0  0  0  0  0  0  0  0  0  0  0  0
   -4.4244   -0.1457   -4.9206 H   0  0  0  0  0  0  0  0  0  0  0  0
   -2.7589    0.4982   -5.1153 H   0  0  0  0  0  0  0  0  0  0  0  0
   -3.5057   -0.4729   -6.4290 H   0  0  0  0  0  0  0  0  0  0  0  0
  1  3  1  0  0  0  0
  1  7  1  0  0  0  0
  1  2  2  0  0  0  0
 21 22  1  0  0  0  0
 22 24  1  0  0  0  0
 22 23  2  0  0  0  0
 32 33  1  0  0  0  0
 33 41  1  0  0  0  0
 33 34  2  0  0  0  0
  8  9  1  0  0  0  0
  9 17  1  0  0  0  0
  9 10  2  0  0  0  0
 18 19  1  0  0  0  0
 19 31  1  0  0  0  0
 19 20  2  0  0  0  0
 32 35  1  0  0  0  0
  8 11  1  0  0  0  0
 41 42  1  0  0  0  0
 18 21  1  0  0  0  0
 31 32  1  0  0  0  0
  7  8  1  0  0  0  0
 17 18  1  0  0  0  0
  3  4  1  0  0  0  0
  3  5  1  0  0  0  0
  3  6  1  0  0  0  0
 35 38  1  0  0  0  0
 35 39  1  0  0  0  0
 35 40  1  0  0  0  0
 11 14  1  0  0  0  0
 11 15  1  0  0  0  0
 11 16  1  0  0  0  0
 42 44  1  0  0  0  0
 42 45  1  0  0  0  0
 42 46  1  0  0  0  0
 21 27  1  0  0  0  0
 21 28  1  0  0  0  0
 32 37  1  0  0  0  0
  8 13  1  0  0  0  0
 18 26  1  0  0  0  0
 24 29  1  0  0  0  0
 24 30  1  0  0  0  0
 41 43  1  0  0  0  0
  7 12  1  0  0  0  0
 31 36  1  0  0  0  0
 17 25  1  0  0  0  0
M  END
$$$$

  -OEChem-05262214473D

 46 45  0     1  0  0  0  0  0999 V2000
   -0.0543    1.9736    3.8406 C   0  0  0  0  0  0  0  0  0  0  0  0
    0.6744    1.6099    4.7562 O   0  0  0  0  0  0  0  0  0  0  0  0
   -0.5599    3.3779    3.8160 C   0  0  0  0  0  0  0  0  0  0  0  0
   -1.5202    3.4885    4.3450 H   0  0  0  0  0  0  0  0  0  0  0  0
    0.1282    4.0814    4.3116 H   0  0  0  0  0  0  0  0  0  0  0  0
   -0.7317    3.7994    2.8126 H   0  0  0  0  0  0  0  0  0  0  0  0
   -0.4812    1.1968    2.7762 N   0  0  0  0  0  0  0  0  0  0  0  0
   -0.1106   -0.1834    2.6051 C   0  0  2  0  0  0  0  0  0  0  0  0
   -0.0696   -0.4775    1.1113 C   0  0  0  0  0  0  0  0  0  0  0  0
   -0.6805    0.1900    0.2792 O   0  0  0  0  0  0  0  0  0  0  0  0
   -1.0852   -1.1101    3.3150 C   0  0  0  0  0  0  0  0  0  0  0  0
   -1.0883    1.6241    2.0791 H   0  0  0  0  0  0  0  0  0  0  0  0
    0.8937   -0.2959    3.0277 H   0  0  0  0  0  0  0  0  0  0  0  0
   -2.0970   -1.0114    2.9051 H   0  0  0  0  0  0  0  0  0  0  0  0
   -0.7860   -2.1580    3.2078 H   0  0  0  0  0  0  0  0  0  0  0  0
   -1.1357   -0.8775    4.3842 H   0  0  0  0  0  0  0  0  0  0  0  0
    0.6950   -1.6003    0.8178 N   0  0  0  0  0  0  0  0  0  0  0  0
    0.8777   -2.0908   -0.5246 C   0  0  2  0  0  0  0  0  0  0  0  0
   -0.4843   -2.0791   -1.2074 C   0  0  0  0  0  0  0  0  0  0  0  0
   -1.3546   -1.2480   -0.9558 O   0  0  0  0  0  0  0  0  0  0  0  0
    1.4758   -3.4977   -0.5403 C   0  0  0  0  0  0  0  0  0  0  0  0
    2.9263   -3.5351   -0.0924 C   0  0  0  0  0  0  0  0  0  0  0  0
    3.7717   -2.7113   -0.4290 O   0  0  0  0  0  0  0  0  0  0  0  0
    3.1878   -4.6003    0.7431 N   0  0  0  0  0  0  0  0  0  0  0  0
    1.1810   -2.0803    1.5718 H   0  0  0  0  0  0  0  0  0  0  0  0
    1.5362   -1.3759   -1.0315 H   0  0  0  0  0  0  0  0  0  0  0  0
    0.9137   -4.1569    0.1333 H   0  0  0  0  0  0  0  0  0  0  0  0
    1.4107   -3.9324   -1.5460 H   0  0  0  0  0  0  0  0  0  0  0  0
    2.4562   -5.2555    0.9978 H   0  0  0  0  0  0  0  0  0  0  0  0
    4.1095   -4.7713    1.1326 H   0  0  0  0  0  0  0  0  0  0  0  0
   -0.5981   -3.0746   -2.1676 N   0  0  0  0  0  0  0  0  0  0  0  0
   -1.7918   -3.2395   -2.9621 C   0  0  2  0  0  0  0  0  0  0  0  0
   -2.0501   -1.9323   -3.6996 C   0  0  0  0  0  0  0  0  0  0  0  0
   -1.6068   -0.8499   -3.3216 O   0  0  0  0  0  0  0  0  0  0  0  0
   -2.9835   -3.6206   -2.0976 C   0  0  0  0  0  0  0  0  0  0  0  0
    0.1788   -3.7082   -2.3308 H   0  0  0  0  0  0  0  0  0  0  0  0
   -1.5819   -4.0333   -3.6872 H   0  0  0  0  0  0  0  0  0  0  0  0
   -3.2089   -2.8372   -1.3649 H   0  0  0  0  0  0  0  0  0  0  0  0
   -3.8817   -3.7732   -2.7051 H   0  0  0  0  0  0  0  0  0  0  0  0
   -2.7844   -4.5452   -1.5451 H   0  0  0  0  0  0  0  0  0  0  0  0
   -2.8696   -2.1102   -4.8055 N   0  0  0  0  0  0  0  0  0  0  0  0
   -3.2710   -1.0188   -5.6620 C   0  0  0  0  0  0  0  0  0  0  0  0
   -3.1754   -3.0460   -5.0554 H   0  0  0  0  0  0  0  0  0  0  0  0
   -4.2317   -0.6122   -5.3130 H   0  0  0  0  0  0  0  0  0  0  0  0
   -2.5061   -0.2289   -5.6320 H   0  0  0  0  0  0  0  0  0  0  0  0
   -3.3808   -1.3839   -6.6939 H   0  0  0  0  0  0  0  0  0  0  0  0
  1  3  1  0  0  0  0
  1  7  1  0  0  0  0
  1  2  2  0  0  0  0
 21 22  1  0  0  0  0
 22 24  1  0  0  0  0
 22 23  2  0  0  0  0
 32 33  1  0  0  0  0
 33 41  1  0  0  0  0
 33 34  2  0  0  0  0
  8  9  1  0  0  0  0
  9 17  1  0  0  0  0
  9 10  2  0  0  0  0
 18 19  1  0  0  0  0
 19 31  1  0  0  0  0
 19 20  2  0  0  0  0
 32 35  1  0  0  0  0
  8 11  1  0  0  0  0
 41 42  1  0  0  0  0
 18 21  1  0  0  0  0
 31 32  1  0  0  0  0
  7  8  1  0  0  0  0
 17 18  1  0  0  0  0
  3  4  1  0  0  0  0
  3  5  1  0  0  0  0
  3  6  1  0  0  0  0
 35 38  1  0  0  0  0
 35 39  1  0  0  0  0
 35 40  1  0  0  0  0
 11 14  1  0  0  0  0
 11 15  1  0  0  0  0
 11 16  1  0  0  0  0
 42 44  1  0  0  0  0
 42 45  1  0  0  0  0
 42 46  1  0  0  0  0
 21 27  1  0  0  0  0
 21 28  1  0  0  0  0
 32 37  1  0  0  0  0
  8 13  1  0  0  0  0
 18 26  1  0  0  0  0
 24 29  1  0  0  0  0
 24 30  1  0  0  0  0
 41 43  1  0  0  0  0
  7 12  1  0  0  0  0
 31 36  1  0  0  0  0
 17 25  1  0  0  0  0
M  END
$$$$

  -OEChem-05262214473D

 46 45  0     1  0  0  0  0  0999 V2000
   -0.0543    1.9736    3.8406 C   0  0  0  0  0  0  0  0  0  0  0  0
    0.6744    1.6099    4.7562 O   0  0  0  0  0  0  0  0  0  0  0  0
   -0.5599    3.3779    3.8160 C   0  0  0  0  0  0  0  0  0  0  0  0
   -1.5202    3.4885    4.3450 H   0  0  0  0  0  0  0  0  0  0  0  0
    0.1282    4.0814    4.3116 H   0  0  0  0  0  0  0  0  0  0  0  0
   -0.7317    3.7994    2.8126 H   0  0  0  0  0  0  0  0  0  0  0  0
   -0.4812    1.1968    2.7762 N   0  0  0  0  0  0  0  0  0  0  0  0
   -0.1106   -0.1834    2.6051 C   0  0  2  0  0  0  0  0  0  0  0  0
   -0.0696   -0.4775    1.1113 C   0  0  0  0  0  0  0  0  0  0  0  0
   -0.6805    0.1900    0.2792 O   0  0  0  0  0  0  0  0  0  0  0  0
   -1.0852   -1.1101    3.3150 C   0  0  0  0  0  0  0  0  0  0  0  0
   -1.0883    1.6241    2.0791 H   0  0  0  0  0  0  0  0  0  0  0  0
    0.8937   -0.2959    3.0277 H   0  0  0  0  0  0  0  0  0  0  0  0
   -2.0970   -1.0114    2.9051 H   0  0  0  0  0  0  0  0  0  0  0  0
   -0.7860   -2.1580    3.2078 H   0  0  0  0  0  0  0  0  0  0  0  0
   -1.1357   -0.8775    4.3842 H   0  0  0  0  0  0  0  0  0  0  0  0
    0.6950   -1.6003    0.8178 N   0  0  0  0  0  0  0  0  0  0  0  0
    0.8777   -2.0908   -0.5246 C   0  0  2  0  0  0  0  0  0  0  0  0
   -0.4843   -2.0791   -1.2074 C   0  0  0  0  0  0  0  0  0  0  0  0
   -1.2485   -1.1170   -1.1652 O   0  0  0  0  0  0  0  0  0  0  0  0
    1.4758   -3.4977   -0.5403 C   0  0  0  0  0  0  0  0  0  0  0  0
    2.9263   -3.5351   -0.0924 C   0  0  0  0  0  0  0  0  0  0  0  0
    3.7717   -2.7113   -0.4290 O   0  0  0  0  0  0  0  0  0  0  0  0
    3.1878   -4.6003    0.7431 N   0  0  0  0  0  0  0  0  0  0  0  0
    1.1810   -2.0803    1.5718 H   0  0  0  0  0  0  0  0  0  0  0  0
    1.5362   -1.3759   -1.0315 H   0  0  0  0  0  0  0  0  0  0  0  0
    0.9137   -4.1569    0.1333 H   0  0  0  0  0  0  0  0  0  0  0  0
    1.4107   -3.9324   -1.5460 H   0  0  0  0  0  0  0  0  0  0  0  0
    2.4562   -5.2555    0.9978 H   0  0  0  0  0  0  0  0  0  0  0  0
    4.1095   -4.7713    1.1326 H   0  0  0  0  0  0  0  0  0  0  0  0
   -0.7276   -3.2495   -1.9124 N   0  0  0  0  0  0  0  0  0  0  0  0
   -1.9446   -3.4537   -2.6609 C   0  0  2  0  0  0  0  0  0  0  0  0
   -2.0614   -2.3316   -3.6840 C   0  0  0  0  0  0  0  0  0  0  0  0
   -1.4899   -1.2502   -3.5617 O   0  0  0  0  0  0  0  0  0  0  0  0
   -3.1588   -3.4834   -1.7457 C   0  0  0  0  0  0  0  0  0  0  0  0
   -0.0319   -3.9896   -1.9154 H   0  0  0  0  0  0  0  0  0  0  0  0
   -1.8394   -4.4126   -3.1801 H   0  0  0  0  0  0  0  0  0  0  0  0
   -3.2805   -2.5311   -1.2169 H   0  0  0  0  0  0  0  0  0  0  0  0
   -4.0779   -3.6669   -2.3118 H   0  0  0  0  0  0  0  0  0  0  0  0
   -3.0594   -4.2719   -0.9919 H   0  0  0  0  0  0  0  0  0  0  0  0
   -2.9132   -2.6639   -4.7281 N   0  0  0  0  0  0  0  0  0  0  0  0
   -3.1989   -1.7611   -5.8187 C   0  0  0  0  0  0  0  0  0  0  0  0
   -3.3291   -3.5901   -4.7582 H   0  0  0  0  0  0  0  0  0  0  0  0
   -4.1004   -1.1760   -5.5844 H   0  0  0  0  0  0  0  0  0  0  0  0
   -2.3473   -1.0801   -5.9634 H   0  0  0  0  0  0  0  0  0  0  0  0
   -3.3663   -2.3396   -6.7392 H   0  0  0  0  0  0  0  0  0  0  0  0
  1  3  1  0  0  0  0
  1  7  1  0  0  0  0
  1  2  2  0  0  0  0
 21 22  1  0  0  0  0
 22 24  1  0  0  0  0
 22 23  2  0  0  0  0
 32 33  1  0  0  0  0
 33 41  1  0  0  0  0
 33 34  2  0  0  0  0
  8  9  1  0  0  0  0
  9 17  1  0  0  0  0
  9 10  2  0  0  0  0
 18 19  1  0  0  0  0
 19 31  1  0  0  0  0
 19 20  2  0  0  0  0
 32 35  1  0  0  0  0
  8 11  1  0  0  0  0
 41 42  1  0  0  0  0
 18 21  1  0  0  0  0
 31 32  1  0  0  0  0
  7  8  1  0  0  0  0
 17 18  1  0  0  0  0
  3  4  1  0  0  0  0
  3  5  1  0  0  0  0
  3  6  1  0  0  0  0
 35 38  1  0  0  0  0
 35 39  1  0  0  0  0
 35 40  1  0  0  0  0
 11 14  1  0  0  0  0
 11 15  1  0  0  0  0
 11 16  1  0  0  0  0
 42 44  1  0  0  0  0
 42 45  1  0  0  0  0
 42 46  1  0  0  0  0
 21 27  1  0  0  0  0
 21 28  1  0  0  0  0
 32 37  1  0  0  0  0
  8 13  1  0  0  0  0
 18 26  1  0  0  0  0
 24 29  1  0  0  0  0
 24 30  1  0  0  0  0
 41 43  1  0  0  0  0
  7 12  1  0  0  0  0
 31 36  1  0  0  0  0
 17 25  1  0  0  0  0
M  END
$$$$

  -OEChem-05262214473D

 46 45  0     1  0  0  0  0  0999 V2000
   -0.0543    1.9736    3.8406 C   0  0  0  0  0  0  0  0  0  0  0  0
    0.6744    1.6099    4.7562 O   0  0  0  0  0  0  0  0  0  0  0  0
   -0.5599    3.3779    3.8160 C   0  0  0  0  0  0  0  0  0  0  0  0
   -1.5202    3.4885    4.3450 H   0  0  0  0  0  0  0  0  0  0  0  0
    0.1282    4.0814    4.3116 H   0  0  0  0  0  0  0  0  0  0  0  0
   -0.7317    3.7994    2.8126 H   0  0  0  0  0  0  0  0  0  0  0  0
   -0.4812    1.1968    2.7762 N   0  0  0  0  0  0  0  0  0  0  0  0
   -0.1106   -0.1834    2.6051 C   0  0  2  0  0  0  0  0  0  0  0  0
   -0.0696   -0.4775    1.1113 C   0  0  0  0  0  0  0  0  0  0  0  0
   -0.6805    0.1900    0.2792 O   0  0  0  0  0  0  0  0  0  0  0  0
   -1.0852   -1.1101    3.3150 C   0  0  0  0  0  0  0  0  0  0  0  0
   -1.0883    1.6241    2.0791 H   0  0  0  0  0  0  0  0  0  0  0  0
    0.8937   -0.2959    3.0277 H   0  0  0  0  0  0  0  0  0  0  0  0
   -2.0970   -1.0114    2.9051 H   0  0  0  0  0  0  0  0  0  0  0  0
   -0.7860   -2.1580    3.2078 H   0  0  0  0  0  0  0  0  0  0  0  0
   -1.1357   -0.8775    4.3842 H   0  0  0  0  0  0  0  0  0  0  0  0
    0.6950   -1.6003    0.8178 N   0  0  0  0  0  0  0  0  0  0  0  0
    0.8777   -2.0908   -0.5246 C   0  0  2  0  0  0  0  0  0  0  0  0
   -0.4843   -2.0791   -1.2074 C   0  0  0  0  0  0  0  0  0  0  0  0
   -1.1312   -1.0512   -1.3980 O   0  0  0  0  0  0  0  0  0  0  0  0
    1.4758   -3.4977   -0.5403 C   0  0  0  0  0  0  0  0  0  0  0  0
    2.9263   -3.5351   -0.0924 C   0  0  0  0  0  0  0  0  0  0  0  0
    3.7717   -2.7113   -0.4290 O   0  0  0  0  0  0  0  0  0  0  0  0
    3.1878   -4.6003    0.7431 N   0  0  0  0  0  0  0  0  0  0  0  0
    1.1810   -2.0803    1.5718 H   0  0  0  0  0  0  0  0  0  0  0  0
    1.5362   -1.3759   -1.0315 H   0  0  0  0  0  0  0  0  0  0  0  0
    0.9137   -4.1569    0.1333 H   0  0  0  0  0  0  0  0  0  0  0  0
    1.4107   -3.9324   -1.5460 H   0  0  0  0  0  0  0  0  0  0  0  0
    2.4562   -5.2555    0.9978 H   0  0  0  0  0  0  0  0  0  0  0  0
    4.1095   -4.7713    1.1326 H   0  0  0  0  0  0  0  0  0  0  0  0
   -0.8725   -3.3443   -1.6251 N   0  0  0  0  0  0  0  0  0  0  0  0
   -2.1165   -3.5733   -2.3202 C   0  0  2  0  0  0  0  0  0  0  0  0
   -2.1186   -2.7124   -3.5765 C   0  0  0  0  0  0  0  0  0  0  0  0
   -1.4239   -1.7059   -3.7012 O   0  0  0  0  0  0  0  0  0  0  0  0
   -3.3114   -3.2492   -1.4372 C   0  0  0  0  0  0  0  0  0  0  0  0
   -0.2672   -4.1408   -1.4486 H   0  0  0  0  0  0  0  0  0  0  0  0
   -2.1311   -4.6318   -2.6020 H   0  0  0  0  0  0  0  0  0  0  0  0
   -3.3138   -2.1928   -1.1446 H   0  0  0  0  0  0  0  0  0  0  0  0
   -4.2544   -3.4505   -1.9561 H   0  0  0  0  0  0  0  0  0  0  0  0
   -3.2922   -3.8480   -0.5202 H   0  0  0  0  0  0  0  0  0  0  0  0
   -3.0193   -3.1758   -4.5252 N   0  0  0  0  0  0  0  0  0  0  0  0
   -3.2156   -2.5227   -5.7984 C   0  0  0  0  0  0  0  0  0  0  0  0
   -3.5401   -4.0291   -4.3449 H   0  0  0  0  0  0  0  0  0  0  0  0
   -4.0396   -1.7986   -5.7165 H   0  0  0  0  0  0  0  0  0  0  0  0
   -2.2932   -1.9974   -6.0869 H   0  0  0  0  0  0  0  0  0  0  0  0
   -3.4632   -3.2750   -6.5618 H   0  0  0  0  0  0  0  0  0  0  0  0
  1  3  1  0  0  0  0
  1  7  1  0  0  0  0
  1  2  2  0  0  0  0
 21 22  1  0  0  0  0
 22 24  1  0  0  0  0
 22 23  2  0  0  0  0
 32 33  1  0  0  0  0
 33 41  1  0  0  0  0
 33 34  2  0  0  0  0
  8  9  1  0  0  0  0
  9 17  1  0  0  0  0
  9 10  2  0  0  0  0
 18 19  1  0  0  0  0
 19 31  1  0  0  0  0
 19 20  2  0  0  0  0
 32 35  1  0  0  0  0
  8 11  1  0  0  0  0
 41 42  1  0  0  0  0
 18 21  1  0  0  0  0
 31 32  1  0  0  0  0
  7  8  1  0  0  0  0
 17 18  1  0  0  0  0
  3  4  1  0  0  0  0
  3  5  1  0  0  0  0
  3  6  1  0  0  0  0
 35 38  1  0  0  0  0
 35 39  1  0  0  0  0
 35 40  1  0  0  0  0
 11 14  1  0  0  0  0
 11 15  1  0  0  0  0
 11 16  1  0  0  0  0
 42 44  1  0  0  0  0
 42 45  1  0  0  0  0
 42 46  1  0  0  0  0
 21 27  1  0  0  0  0
 21 28  1  0  0  0  0
 32 37  1  0  0  0  0
  8 13  1  0  0  0  0
 18 26  1  0  0  0  0
 24 29  1  0  0  0  0
 24 30  1  0  0  0  0
 41 43  1  0  0  0  0
  7 12  1  0  0  0  0
 31 36  1  0  0  0  0
 17 25  1  0  0  0  0
M  END
$$$$

  -OEChem-05262214473D

 46 45  0     1  0  0  0  0  0999 V2000
   -0.0543    1.9736    3.8406 C   0  0  0  0  0  0  0  0  0  0  0  0
    0.6744    1.6099    4.7562 O   0  0  0  0  0  0  0  0  0  0  0  0
   -0.5599    3.3779    3.8160 C   0  0  0  0  0  0  0  0  0  0  0  0
   -1.5202    3.4885    4.3450 H   0  0  0  0  0  0  0  0  0  0  0  0
    0.1282    4.0814    4.3116 H   0  0  0  0  0  0  0  0  0  0  0  0
   -0.7317    3.7994    2.8126 H   0  0  0  0  0  0  0  0  0  0  0  0
   -0.4812    1.1968    2.7762 N   0  0  0  0  0  0  0  0  0  0  0  0
   -0.1106   -0.1834    2.6051 C   0  0  2  0  0  0  0  0  0  0  0  0
   -0.0696   -0.4775    1.1113 C   0  0  0  0  0  0  0  0  0  0  0  0
   -0.6805    0.1900    0.2792 O   0  0  0  0  0  0  0  0  0  0  0  0
   -1.0852   -1.1101    3.3150 C   0  0  0  0  0  0  0  0  0  0  0  0
   -1.0883    1.6241    2.0791 H   0  0  0  0  0  0  0  0  0  0  0  0
    0.8937   -0.2959    3.0277 H   0  0  0  0  0  0  0  0  0  0  0  0
   -2.0970   -1.0114    2.9051 H   0  0  0  0  0  0  0  0  0  0  0  0
   -0.7860   -2.1580    3.2078 H   0  0  0  0  0  0  0  0  0  0  0  0
   -1.1357   -0.8775    4.3842 H   0  0  0  0  0  0  0  0  0  0  0  0
    0.6950   -1.6003    0.8178 N   0  0  0  0  0  0  0  0  0  0  0  0
    0.8777   -2.0908   -0.5246 C   0  0  2  0  0  0  0  0  0  0  0  0
   -0.4843   -2.0791   -1.2074 C   0  0  0  0  0  0  0  0  0  0  0  0
   -1.0108   -1.0551   -1.6383 O   0  0  0  0  0  0  0  0  0  0  0  0
    1.4758   -3.4977   -0.5403 C   0  0  0  0  0  0  0  0  0  0  0  0
    2.9263   -3.5351   -0.0924 C   0  0  0  0  0  0  0  0  0  0  0  0
    3.7717   -2.7113   -0.4290 O   0  0  0  0  0  0  0  0  0  0  0  0
    3.1878   -4.6003    0.7431 N   0  0  0  0  0  0  0  0  0  0  0  0
    1.1810   -2.0803    1.5718 H   0  0  0  0  0  0  0  0  0  0  0  0
    1.5362   -1.3759   -1.0315 H   0  0  0  0  0  0  0  0  0  0  0  0
    0.9137   -4.1569    0.1333 H   0  0  0  0  0  0  0  0  0  0  0  0
    1.4107   -3.9324   -1.5460 H   0  0  0  0  0  0  0  0  0  0  0  0
    2.4562   -5.2555    0.9978 H   0  0  0  0  0  0  0  0  0  0  0  0
    4.1095   -4.7713    1.1326 H   0  0  0  0  0  0  0  0  0  0  0  0
   -1.0228   -3.3527   -1.3254 N   0  0  0  0  0  0  0  0  0  0  0  0
   -2.2957   -3.5900   -1.9630 C   0  0  2  0  0  0  0  0  0  0  0  0
   -2.2177   -3.0487   -3.3845 C   0  0  0  0  0  0  0  0  0  0  0  0
   -1.4132   -2.1861   -3.7306 O   0  0  0  0  0  0  0  0  0  0  0  0
   -3.4311   -2.9338   -1.1931 C   0  0  0  0  0  0  0  0  0  0  0  0
   -0.5111   -4.1515   -0.9623 H   0  0  0  0  0  0  0  0  0  0  0  0
   -2.4371   -4.6759   -1.9924 H   0  0  0  0  0  0  0  0  0  0  0  0
   -3.3066   -1.8456   -1.1530 H   0  0  0  0  0  0  0  0  0  0  0  0
   -4.3991   -3.1387   -1.6622 H   0  0  0  0  0  0  0  0  0  0  0  0
   -3.4670   -3.3024   -0.1622 H   0  0  0  0  0  0  0  0  0  0  0  0
   -3.1808   -3.6110   -4.2106 N   0  0  0  0  0  0  0  0  0  0  0  0
   -3.3201   -3.2518   -5.6025 C   0  0  0  0  0  0  0  0  0  0  0  0
   -3.7940   -4.3330   -3.8438 H   0  0  0  0  0  0  0  0  0  0  0  0
   -4.0533   -2.4376   -5.7001 H   0  0  0  0  0  0  0  0  0  0  0  0
   -2.3477   -2.9182   -5.9940 H   0  0  0  0  0  0  0  0  0  0  0  0
   -3.6650   -4.1261   -6.1740 H   0  0  0  0  0  0  0  0  0  0  0  0
  1  3  1  0  0  0  0
  1  7  1  0  0  0  0
  1  2  2  0  0  0  0
 21 22  1  0  0  0  0
 22 24  1  0  0  0  0
 22 23  2  0  0  0  0
 32 33  1  0  0  0  0
 33 41  1  0  0  0  0
 33 34  2  0  0  0  0
  8  9  1  0  0  0  0
  9 17  1  0  0  0  0
  9 10  2  0  0  0  0
 18 19  1  0  0  0  0
 19 31  1  0  0  0  0
 19 20  2  0  0  0  0
 32 35  1  0  0  0  0
  8 11  1  0  0  0  0
 41 42  1  0  0  0  0
 18 21  1  0  0  0  0
 31 32  1  0  0  0  0
  7  8  1  0  0  0  0
 17 18  1  0  0  0  0
  3  4  1  0  0  0  0
  3  5  1  0  0  0  0
  3  6  1  0  0  0  0
 35 38  1  0  0  0  0
 35 39  1  0  0  0  0
 35 40  1  0  0  0  0
 11 14  1  0  0  0  0
 11 15  1  0  0  0  0
 11 16  1  0  0  0  0
 42 44  1  0  0  0  0
 42 45  1  0  0  0  0
 42 46  1  0  0  0  0
 21 27  1  0  0  0  0
 21 28  1  0  0  0  0
 32 37  1  0  0  0  0
  8 13  1  0  0  0  0
 18 26  1  0  0  0  0
 24 29  1  0  0  0  0
 24 30  1  0  0  0  0
 41 43  1  0  0  0  0
  7 12  1  0  0  0  0
 31 36  1  0  0  0  0
 17 25  1  0  0  0  0
M  END
$$$$

  -OEChem-05262214473D

 46 45  0     1  0  0  0  0  0999 V2000
   -0.0543    1.9736    3.8406 C   0  0  0  0  0  0  0  0  0  0  0  0
    0.6744    1.6099    4.7562 O   0  0  0  0  0  0  0  0  0  0  0  0
   -0.5599    3.3779    3.8160 C   0  0  0  0  0  0  0  0  0  0  0  0
   -1.5202    3.4885    4.3450 H   0  0  0  0  0  0  0  0  0  0  0  0
    0.1282    4.0814    4.3116 H   0  0  0  0  0  0  0  0  0  0  0  0
   -0.7317    3.7994    2.8126 H   0  0  0  0  0  0  0  0  0  0  0  0
   -0.4812    1.1968    2.7762 N   0  0  0  0  0  0  0  0  0  0  0  0
   -0.1106   -0.1834    2.6051 C   0  0  2  0  0  0  0  0  0  0  0  0
   -0.0696   -0.4775    1.1113 C   0  0  0  0  0  0  0  0  0  0  0  0
   -0.6805    0.1900    0.2792 O   0  0  0  0  0  0  0  0  0  0  0  0
   -1.0852   -1.1101    3.3150 C   0  0  0  0  0  0  0  0  0  0  0  0
   -1.0883    1.6241    2.0791 H   0  0  0  0  0  0  0  0  0  0  0  0
    0.8937   -0.2959    3.0277 H   0  0  0  0  0  0  0  0  0  0  0  0
   -2.0970   -1.0114    2.9051 H   0  0  0  0  0  0  0  0  0  0  0  0
   -0.7860   -2.1580    3.2078 H   0  0  0  0  0  0  0  0  0  0  0  0
   -1.1357   -0.8775    4.3842 H   0  0  0  0  0  0  0  0  0  0  0  0
    0.6950   -1.6003    0.8178 N   0  0  0  0  0  0  0  0  0  0  0  0
    0.8777   -2.0908   -0.5246 C   0  0  2  0  0  0  0  0  0  0  0  0
   -0.4843   -2.0791   -1.2074 C   0  0  0  0  0  0  0  0  0  0  0  0
   -0.8954   -1.1284   -1.8697 O   0  0  0  0  0  0  0  0  0  0  0  0
    1.4758   -3.4977   -0.5403 C   0  0  0  0  0  0  0  0  0  0  0  0
    2.9263   -3.5351   -0.0924 C   0  0  0  0  0  0  0  0  0  0  0  0
    3.7717   -2.7113   -0.4290 O   0  0  0  0  0  0  0  0  0  0  0  0
    3.1878   -4.6003    0.7431 N   0  0  0  0  0  0  0  0  0  0  0  0
    1.1810   -2.0803    1.5718 H   0  0  0  0  0  0  0  0  0  0  0  0
    1.5362   -1.3759   -1.0315 H   0  0  0  0  0  0  0  0  0  0  0  0
    0.9137   -4.1569    0.1333 H   0  0  0  0  0  0  0  0  0  0  0  0
    1.4107   -3.9324   -1.5460 H   0  0  0  0  0  0  0  0  0  0  0  0
    2.4562   -5.2555    0.9978 H   0  0  0  0  0  0  0  0  0  0  0  0
    4.1095   -4.7713    1.1326 H   0  0  0  0  0  0  0  0  0  0  0  0
   -1.1684   -3.2740   -1.0336 N   0  0  0  0  0  0  0  0  0  0  0  0
   -2.4700   -3.5027   -1.6139 C   0  0  2  0  0  0  0  0  0  0  0  0
   -2.3522   -3.3176   -3.1210 C   0  0  0  0  0  0  0  0  0  0  0  0
   -1.4587   -2.6579   -3.6480 O   0  0  0  0  0  0  0  0  0  0  0  0
   -3.5097   -2.5589   -1.0300 C   0  0  0  0  0  0  0  0  0  0  0  0
   -0.7470   -4.0211   -0.4896 H   0  0  0  0  0  0  0  0  0  0  0  0
   -2.7367   -4.5419   -1.3927 H   0  0  0  0  0  0  0  0  0  0  0  0
   -3.2594   -1.5129   -1.2415 H   0  0  0  0  0  0  0  0  0  0  0  0
   -4.5021   -2.7527   -1.4502 H   0  0  0  0  0  0  0  0  0  0  0  0
   -3.5719   -2.6723    0.0577 H   0  0  0  0  0  0  0  0  0  0  0  0
   -3.3867   -3.9398   -3.8056 N   0  0  0  0  0  0  0  0  0  0  0  0
   -3.5051   -3.8986   -5.2445 C   0  0  0  0  0  0  0  0  0  0  0  0
   -4.0735   -4.4811   -3.2889 H   0  0  0  0  0  0  0  0  0  0  0  0
   -4.1406   -3.0495   -5.5364 H   0  0  0  0  0  0  0  0  0  0  0  0
   -2.5070   -3.7799   -5.6912 H   0  0  0  0  0  0  0  0  0  0  0  0
   -3.9579   -4.8351   -5.6020 H   0  0  0  0  0  0  0  0  0  0  0  0
  1  3  1  0  0  0  0
  1  7  1  0  0  0  0
  1  2  2  0  0  0  0
 21 22  1  0  0  0  0
 22 24  1  0  0  0  0
 22 23  2  0  0  0  0
 32 33  1  0  0  0  0
 33 41  1  0  0  0  0
 33 34  2  0  0  0  0
  8  9  1  0  0  0  0
  9 17  1  0  0  0  0
  9 10  2  0  0  0  0
 18 19  1  0  0  0  0
 19 31  1  0  0  0  0
 19 20  2  0  0  0  0
 32 35  1  0  0  0  0
  8 11  1  0  0  0  0
 41 42  1  0  0  0  0
 18 21  1  0  0  0  0
 31 32  1  0  0  0  0
  7  8  1  0  0  0  0
 17 18  1  0  0  0  0
  3  4  1  0  0  0  0
  3  5  1  0  0  0  0
  3  6  1  0  0  0  0
 35 38  1  0  0  0  0
 35 39  1  0  0  0  0
 35 40  1  0  0  0  0
 11 14  1  0  0  0  0
 11 15  1  0  0  0  0
 11 16  1  0  0  0  0
 42 44  1  0  0  0  0
 42 45  1  0  0  0  0
 42 46  1  0  0  0  0
 21 27  1  0  0  0  0
 21 28  1  0  0  0  0
 32 37  1  0  0  0  0
  8 13  1  0  0  0  0
 18 26  1  0  0  0  0
 24 29  1  0  0  0  0
 24 30  1  0  0  0  0
 41 43  1  0  0  0  0
  7 12  1  0  0  0  0
 31 36  1  0  0  0  0
 17 25  1  0  0  0  0
M  END
$$$$

  -OEChem-05262214473D

 46 45  0     1  0  0  0  0  0999 V2000
   -0.0543    1.9736    3.8406 C   0  0  0  0  0  0  0  0  0  0  0  0
    0.6744    1.6099    4.7562 O   0  0  0  0  0  0  0  0  0  0  0  0
   -0.5599    3.3779    3.8160 C   0  0  0  0  0  0  0  0  0  0  0  0
   -1.5202    3.4885    4.3450 H   0  0  0  0  0  0  0  0  0  0  0  0
    0.1282    4.0814    4.3116 H   0  0  0  0  0  0  0  0  0  0  0  0
   -0.7317    3.7994    2.8126 H   0  0  0  0  0  0  0  0  0  0  0  0
   -0.4812    1.1968    2.7762 N   0  0  0  0  0  0  0  0  0  0  0  0
   -0.1106   -0.1834    2.6051 C   0  0  2  0  0  0  0  0  0  0  0  0
   -0.0696   -0.4775    1.1113 C   0  0  0  0  0  0  0  0  0  0  0  0
   -0.6805    0.1900    0.2792 O   0  0  0  0  0  0  0  0  0  0  0  0
   -1.0852   -1.1101    3.3150 C   0  0  0  0  0  0  0  0  0  0  0  0
   -1.0883    1.6241    2.0791 H   0  0  0  0  0  0  0  0  0  0  0  0
    0.8937   -0.2959    3.0277 H   0  0  0  0  0  0  0  0  0  0  0  0
   -2.0970   -1.0114    2.9051 H   0  0  0  0  0  0  0  0  0  0  0  0
   -0.7860   -2.1580    3.2078 H   0  0  0  0  0  0  0  0  0  0  0  0
   -1.1357   -0.8775    4.3842 H   0  0  0  0  0  0  0  0  0  0  0  0
    0.6950   -1.6003    0.8178 N   0  0  0  0  0  0  0  0  0  0  0  0
    0.8777   -2.0908   -0.5246 C   0  0  2  0  0  0  0  0  0  0  0  0
   -0.4843   -2.0791   -1.2074 C   0  0  0  0  0  0  0  0  0  0  0  0
   -0.7929   -1.2662   -2.0765 O   0  0  0  0  0  0  0  0  0  0  0  0
    1.4758   -3.4977   -0.5403 C   0  0  0  0  0  0  0  0  0  0  0  0
    2.9263   -3.5351   -0.0924 C   0  0  0  0  0  0  0  0  0  0  0  0
    3.7717   -2.7113   -0.4290 O   0  0  0  0  0  0  0  0  0  0  0  0
    3.1878   -4.6003    0.7431 N   0  0  0  0  0  0  0  0  0  0  0  0
    1.1810   -2.0803    1.5718 H   0  0  0  0  0  0  0  0  0  0  0  0
    1.5362   -1.3759   -1.0315 H   0  0  0  0  0  0  0  0  0  0  0  0
    0.9137   -4.1569    0.1333 H   0  0  0  0  0  0  0  0  0  0  0  0
    1.4107   -3.9324   -1.5460 H   0  0  0  0  0  0  0  0  0  0  0  0
    2.4562   -5.2555    0.9978 H   0  0  0  0  0  0  0  0  0  0  0  0
    4.1095   -4.7713    1.1326 H   0  0  0  0  0  0  0  0  0  0  0  0
   -1.2993   -3.1136   -0.7698 N   0  0  0  0  0  0  0  0  0  0  0  0
   -2.6275   -3.3174   -1.2964 C   0  0  2  0  0  0  0  0  0  0  0  0
   -2.5127   -3.5008   -2.8040 C   0  0  0  0  0  0  0  0  0  0  0  0
   -1.5572   -3.0893   -3.4589 O   0  0  0  0  0  0  0  0  0  0  0  0
   -3.5417   -2.1498   -0.9590 C   0  0  0  0  0  0  0  0  0  0  0  0
   -0.9588   -3.7584   -0.0626 H   0  0  0  0  0  0  0  0  0  0  0  0
   -3.0092   -4.2390   -0.8438 H   0  0  0  0  0  0  0  0  0  0  0  0
   -3.1754   -1.2175   -1.4040 H   0  0  0  0  0  0  0  0  0  0  0  0
   -4.5563   -2.3189   -1.3346 H   0  0  0  0  0  0  0  0  0  0  0  0
   -3.5996   -2.0007    0.1246 H   0  0  0  0  0  0  0  0  0  0  0  0
   -3.6228   -4.1399   -3.3380 N   0  0  0  0  0  0  0  0  0  0  0  0
   -3.7582   -4.4190   -4.7486 C   0  0  0  0  0  0  0  0  0  0  0  0
   -4.3595   -4.4634   -2.7180 H   0  0  0  0  0  0  0  0  0  0  0  0
   -4.2956   -3.5925   -5.2365 H   0  0  0  0  0  0  0  0  0  0  0  0
   -2.7601   -4.5237   -5.1990 H   0  0  0  0  0  0  0  0  0  0  0  0
   -4.3219   -5.3537   -4.8849 H   0  0  0  0  0  0  0  0  0  0  0  0
  1  3  1  0  0  0  0
  1  7  1  0  0  0  0
  1  2  2  0  0  0  0
 21 22  1  0  0  0  0
 22 24  1  0  0  0  0
 22 23  2  0  0  0  0
 32 33  1  0  0  0  0
 33 41  1  0  0  0  0
 33 34  2  0  0  0  0
  8  9  1  0  0  0  0
  9 17  1  0  0  0  0
  9 10  2  0  0  0  0
 18 19  1  0  0  0  0
 19 31  1  0  0  0  0
 19 20  2  0  0  0  0
 32 35  1  0  0  0  0
  8 11  1  0  0  0  0
 41 42  1  0  0  0  0
 18 21  1  0  0  0  0
 31 32  1  0  0  0  0
  7  8  1  0  0  0  0
 17 18  1  0  0  0  0
  3  4  1  0  0  0  0
  3  5  1  0  0  0  0
  3  6  1  0  0  0  0
 35 38  1  0  0  0  0
 35 39  1  0  0  0  0
 35 40  1  0  0  0  0
 11 14  1  0  0  0  0
 11 15  1  0  0  0  0
 11 16  1  0  0  0  0
 42 44  1  0  0  0  0
 42 45  1  0  0  0  0
 42 46  1  0  0  0  0
 21 27  1  0  0  0  0
 21 28  1  0  0  0  0
 32 37  1  0  0  0  0
  8 13  1  0  0  0  0
 18 26  1  0  0  0  0
 24 29  1  0  0  0  0
 24 30  1  0  0  0  0
 41 43  1  0  0  0  0
  7 12  1  0  0  0  0
 31 36  1  0  0  0  0
 17 25  1  0  0  0  0
M  END
$$$$

  -OEChem-05262214473D

 46 45  0     1  0  0  0  0  0999 V2000
   -0.0543    1.9736    3.8406 C   0  0  0  0  0  0  0  0  0  0  0  0
    0.6744    1.6099    4.7562 O   0  0  0  0  0  0  0  0  0  0  0  0
   -0.5599    3.3779    3.8160 C   0  0  0  0  0  0  0  0  0  0  0  0
   -1.5202    3.4885    4.3450 H   0  0  0  0  0  0  0  0  0  0  0  0
    0.1282    4.0814    4.3116 H   0  0  0  0  0  0  0  0  0  0  0  0
   -0.7317    3.7994    2.8126 H   0  0  0  0  0  0  0  0  0  0  0  0
   -0.4812    1.1968    2.7762 N   0  0  0  0  0  0  0  0  0  0  0  0
   -0.1106   -0.1834    2.6051 C   0  0  2  0  0  0  0  0  0  0  0  0
   -0.0696   -0.4775    1.1113 C   0  0  0  0  0  0  0  0  0  0  0  0
   -0.6805    0.1900    0.2792 O   0  0  0  0  0  0  0  0  0  0  0  0
   -1.0852   -1.1101    3.3150 C   0  0  0  0  0  0  0  0  0  0  0  0
   -1.0883    1.6241    2.0791 H   0  0  0  0  0  0  0  0  0  0  0  0
    0.8937   -0.2959    3.0277 H   0  0  0  0  0  0  0  0  0  0  0  0
   -2.0970   -1.0114    2.9051 H   0  0  0  0  0  0  0  0  0  0  0  0
   -0.7860   -2.1580    3.2078 H   0  0  0  0  0  0  0  0  0  0  0  0
   -1.1357   -0.8775    4.3842 H   0  0  0  0  0  0  0  0  0  0  0  0
    0.6950   -1.6003    0.8178 N   0  0  0  0  0  0  0  0  0  0  0  0
    0.8777   -2.0908   -0.5246 C   0  0  2  0  0  0  0  0  0  0  0  0
   -0.4843   -2.0791   -1.2074 C   0  0  0  0  0  0  0  0  0  0  0  0
   -0.7102   -1.4590   -2.2446 O   0  0  0  0  0  0  0  0  0  0  0  0
    1.4758   -3.4977   -0.5403 C   0  0  0  0  0  0  0  0  0  0  0  0
    2.9263   -3.5351   -0.0924 C   0  0  0  0  0  0  0  0  0  0  0  0
    3.7717   -2.7113   -0.4290 O   0  0  0  0  0  0  0  0  0  0  0  0
    3.1878   -4.6003    0.7431 N   0  0  0  0  0  0  0  0  0  0  0  0
    1.1810   -2.0803    1.5718 H   0  0  0  0  0  0  0  0  0  0  0  0
    1.5362   -1.3759   -1.0315 H   0  0  0  0  0  0  0  0  0  0  0  0
    0.9137   -4.1569    0.1333 H   0  0  0  0  0  0  0  0  0  0  0  0
    1.4107   -3.9324   -1.5460 H   0  0  0  0  0  0  0  0  0  0  0  0
    2.4562   -5.2555    0.9978 H   0  0  0  0  0  0  0  0  0  0  0  0
    4.1095   -4.7713    1.1326 H   0  0  0  0  0  0  0  0  0  0  0  0
   -1.4066   -2.8824   -0.5517 N   0  0  0  0  0  0  0  0  0  0  0  0
   -2.7576   -3.0466   -1.0324 C   0  0  2  0  0  0  0  0  0  0  0  0
   -2.6883   -3.5858   -2.4551 C   0  0  0  0  0  0  0  0  0  0  0  0
   -1.7021   -3.4508   -3.1763 O   0  0  0  0  0  0  0  0  0  0  0  0
   -3.5251   -1.7346   -0.9851 C   0  0  0  0  0  0  0  0  0  0  0  0
   -1.1321   -3.3813    0.2894 H   0  0  0  0  0  0  0  0  0  0  0  0
   -3.2363   -3.7879   -0.3832 H   0  0  0  0  0  0  0  0  0  0  0  0
   -3.0603   -0.9795   -1.6294 H   0  0  0  0  0  0  0  0  0  0  0  0
   -4.5582   -1.8669   -1.3231 H   0  0  0  0  0  0  0  0  0  0  0  0
   -3.5484   -1.3332    0.0338 H   0  0  0  0  0  0  0  0  0  0  0  0
   -3.8732   -4.1976   -2.8396 N   0  0  0  0  0  0  0  0  0  0  0  0
   -4.0621   -4.7776   -4.1488 C   0  0  0  0  0  0  0  0  0  0  0  0
   -4.6326   -4.2811   -2.1702 H   0  0  0  0  0  0  0  0  0  0  0  0
   -4.5077   -4.0296   -4.8210 H   0  0  0  0  0  0  0  0  0  0  0  0
   -3.0900   -5.0989   -4.5510 H   0  0  0  0  0  0  0  0  0  0  0  0
   -4.7322   -5.6465   -4.0715 H   0  0  0  0  0  0  0  0  0  0  0  0
  1  3  1  0  0  0  0
  1  7  1  0  0  0  0
  1  2  2  0  0  0  0
 21 22  1  0  0  0  0
 22 24  1  0  0  0  0
 22 23  2  0  0  0  0
 32 33  1  0  0  0  0
 33 41  1  0  0  0  0
 33 34  2  0  0  0  0
  8  9  1  0  0  0  0
  9 17  1  0  0  0  0
  9 10  2  0  0  0  0
 18 19  1  0  0  0  0
 19 31  1  0  0  0  0
 19 20  2  0  0  0  0
 32 35  1  0  0  0  0
  8 11  1  0  0  0  0
 41 42  1  0  0  0  0
 18 21  1  0  0  0  0
 31 32  1  0  0  0  0
  7  8  1  0  0  0  0
 17 18  1  0  0  0  0
  3  4  1  0  0  0  0
  3  5  1  0  0  0  0
  3  6  1  0  0  0  0
 35 38  1  0  0  0  0
 35 39  1  0  0  0  0
 35 40  1  0  0  0  0
 11 14  1  0  0  0  0
 11 15  1  0  0  0  0
 11 16  1  0  0  0  0
 42 44  1  0  0  0  0
 42 45  1  0  0  0  0
 42 46  1  0  0  0  0
 21 27  1  0  0  0  0
 21 28  1  0  0  0  0
 32 37  1  0  0  0  0
  8 13  1  0  0  0  0
 18 26  1  0  0  0  0
 24 29  1  0  0  0  0
 24 30  1  0  0  0  0
 41 43  1  0  0  0  0
  7 12  1  0  0  0  0
 31 36  1  0  0  0  0
 17 25  1  0  0  0  0
M  END
$$$$

  -OEChem-05262214473D

 46 45  0     1  0  0  0  0  0999 V2000
   -0.0543    1.9736    3.8406 C   0  0  0  0  0  0  0  0  0  0  0  0
    0.6744    1.6099    4.7562 O   0  0  0  0  0  0  0  0  0  0  0  0
   -0.5599    3.3779    3.8160 C   0  0  0  0  0  0  0  0  0  0  0  0
   -1.5202    3.4885    4.3450 H   0  0  0  0  0  0  0  0  0  0  0  0
    0.1282    4.0814    4.3116 H   0  0  0  0  0  0  0  0  0  0  0  0
   -0.7317    3.7994    2.8126 H   0  0  0  0  0  0  0  0  0  0  0  0
   -0.4812    1.1968    2.7762 N   0  0  0  0  0  0  0  0  0  0  0  0
   -0.1106   -0.1834    2.6051 C   0  0  2  0  0  0  0  0  0  0  0  0
   -0.0696   -0.4775    1.1113 C   0  0  0  0  0  0  0  0  0  0  0  0
   -0.6805    0.1900    0.2792 O   0  0  0  0  0  0  0  0  0  0  0  0
   -1.0852   -1.1101    3.3150 C   0  0  0  0  0  0  0  0  0  0  0  0
   -1.0883    1.6241    2.0791 H   0  0  0  0  0  0  0  0  0  0  0  0
    0.8937   -0.2959    3.0277 H   0  0  0  0  0  0  0  0  0  0  0  0
   -2.0970   -1.0114    2.9051 H   0  0  0  0  0  0  0  0  0  0  0  0
   -0.7860   -2.1580    3.2078 H   0  0  0  0  0  0  0  0  0  0  0  0
   -1.1357   -0.8775    4.3842 H   0  0  0  0  0  0  0  0  0  0  0  0
    0.6950   -1.6003    0.8178 N   0  0  0  0  0  0  0  0  0  0  0  0
    0.8777   -2.0908   -0.5246 C   0  0  2  0  0  0  0  0  0  0  0  0
   -0.4843   -2.0791   -1.2074 C   0  0  0  0  0  0  0  0  0  0  0  0
   -0.6531   -1.6937   -2.3626 O   0  0  0  0  0  0  0  0  0  0  0  0
    1.4758   -3.4977   -0.5403 C   0  0  0  0  0  0  0  0  0  0  0  0
    2.9263   -3.5351   -0.0924 C   0  0  0  0  0  0  0  0  0  0  0  0
    3.7717   -2.7113   -0.4290 O   0  0  0  0  0  0  0  0  0  0  0  0
    3.1878   -4.6003    0.7431 N   0  0  0  0  0  0  0  0  0  0  0  0
    1.1810   -2.0803    1.5718 H   0  0  0  0  0  0  0  0  0  0  0  0
    1.5362   -1.3759   -1.0315 H   0  0  0  0  0  0  0  0  0  0  0  0
    0.9137   -4.1569    0.1333 H   0  0  0  0  0  0  0  0  0  0  0  0
    1.4107   -3.9324   -1.5460 H   0  0  0  0  0  0  0  0  0  0  0  0
    2.4562   -5.2555    0.9978 H   0  0  0  0  0  0  0  0  0  0  0  0
    4.1095   -4.7713    1.1326 H   0  0  0  0  0  0  0  0  0  0  0  0
   -1.4831   -2.5962   -0.3944 N   0  0  0  0  0  0  0  0  0  0  0  0
   -2.8513   -2.7090   -0.8397 C   0  0  2  0  0  0  0  0  0  0  0  0
   -2.8672   -3.5668   -2.0980 C   0  0  0  0  0  0  0  0  0  0  0  0
   -1.8833   -3.7178   -2.8193 O   0  0  0  0  0  0  0  0  0  0  0  0
   -3.4609   -1.3415   -1.1063 C   0  0  0  0  0  0  0  0  0  0  0  0
   -1.2550   -2.9155    0.5425 H   0  0  0  0  0  0  0  0  0  0  0  0
   -3.4024   -3.2192   -0.0422 H   0  0  0  0  0  0  0  0  0  0  0  0
   -2.9220   -0.8151   -1.9025 H   0  0  0  0  0  0  0  0  0  0  0  0
   -4.5075   -1.4273   -1.4166 H   0  0  0  0  0  0  0  0  0  0  0  0
   -3.4216   -0.7155   -0.2084 H   0  0  0  0  0  0  0  0  0  0  0  0
   -4.1208   -4.1089   -2.3443 N   0  0  0  0  0  0  0  0  0  0  0  0
   -4.3960   -4.9500   -3.4857 C   0  0  0  0  0  0  0  0  0  0  0  0
   -4.8742   -3.9465   -1.6826 H   0  0  0  0  0  0  0  0  0  0  0  0
   -4.7625   -4.3311   -4.3180 H   0  0  0  0  0  0  0  0  0  0  0  0
   -3.4740   -5.4663   -3.7913 H   0  0  0  0  0  0  0  0  0  0  0  0
   -5.1609   -5.6935   -3.2173 H   0  0  0  0  0  0  0  0  0  0  0  0
  1  3  1  0  0  0  0
  1  7  1  0  0  0  0
  1  2  2  0  0  0  0
 21 22  1  0  0  0  0
 22 24  1  0  0  0  0
 22 23  2  0  0  0  0
 32 33  1  0  0  0  0
 33 41  1  0  0  0  0
 33 34  2  0  0  0  0
  8  9  1  0  0  0  0
  9 17  1  0  0  0  0
  9 10  2  0  0  0  0
 18 19  1  0  0  0  0
 19 31  1  0  0  0  0
 19 20  2  0  0  0  0
 32 35  1  0  0  0  0
  8 11  1  0  0  0  0
 41 42  1  0  0  0  0
 18 21  1  0  0  0  0
 31 32  1  0  0  0  0
  7  8  1  0  0  0  0
 17 18  1  0  0  0  0
  3  4  1  0  0  0  0
  3  5  1  0  0  0  0
  3  6  1  0  0  0  0
 35 38  1  0  0  0  0
 35 39  1  0  0  0  0
 35 40  1  0  0  0  0
 11 14  1  0  0  0  0
 11 15  1  0  0  0  0
 11 16  1  0  0  0  0
 42 44  1  0  0  0  0
 42 45  1  0  0  0  0
 42 46  1  0  0  0  0
 21 27  1  0  0  0  0
 21 28  1  0  0  0  0
 32 37  1  0  0  0  0
  8 13  1  0  0  0  0
 18 26  1  0  0  0  0
 24 29  1  0  0  0  0
 24 30  1  0  0  0  0
 41 43  1  0  0  0  0
  7 12  1  0  0  0  0
 31 36  1  0  0  0  0
 17 25  1  0  0  0  0
M  END
$$$$

  -OEChem-05262214473D

 46 45  0     1  0  0  0  0  0999 V2000
   -0.0543    1.9736    3.8406 C   0  0  0  0  0  0  0  0  0  0  0  0
    0.6744    1.6099    4.7562 O   0  0  0  0  0  0  0  0  0  0  0  0
   -0.5599    3.3779    3.8160 C   0  0  0  0  0  0  0  0  0  0  0  0
   -1.5202    3.4885    4.3450 H   0  0  0  0  0  0  0  0  0  0  0  0
    0.1282    4.0814    4.3116 H   0  0  0  0  0  0  0  0  0  0  0  0
   -0.7317    3.7994    2.8126 H   0  0  0  0  0  0  0  0  0  0  0  0
   -0.4812    1.1968    2.7762 N   0  0  0  0  0  0  0  0  0  0  0  0
   -0.1106   -0.1834    2.6051 C   0  0  2  0  0  0  0  0  0  0  0  0
   -0.0696   -0.4775    1.1113 C   0  0  0  0  0  0  0  0  0  0  0  0
   -0.6805    0.1900    0.2792 O   0  0  0  0  0  0  0  0  0  0  0  0
   -1.0852   -1.1101    3.3150 C   0  0  0  0  0  0  0  0  0  0  0  0
   -1.0883    1.6241    2.0791 H   0  0  0  0  0  0  0  0  0  0  0  0
    0.8937   -0.2959    3.0277 H   0  0  0  0  0  0  0  0  0  0  0  0
   -2.0970   -1.0114    2.9051 H   0  0  0  0  0  0  0  0  0  0  0  0
   -0.7860   -2.1580    3.2078 H   0  0  0  0  0  0  0  0  0  0  0  0
   -1.1357   -0.8775    4.3842 H   0  0  0  0  0  0  0  0  0  0  0  0
    0.6950   -1.6003    0.8178 N   0  0  0  0  0  0  0  0  0  0  0  0
    0.8777   -2.0908   -0.5246 C   0  0  2  0  0  0  0  0  0  0  0  0
   -0.4843   -2.0791   -1.2074 C   0  0  0  0  0  0  0  0  0  0  0  0
   -0.6254   -1.9543   -2.4223 O   0  0  0  0  0  0  0  0  0  0  0  0
    1.4758   -3.4977   -0.5403 C   0  0  0  0  0  0  0  0  0  0  0  0
    2.9263   -3.5351   -0.0924 C   0  0  0  0  0  0  0  0  0  0  0  0
    3.7717   -2.7113   -0.4290 O   0  0  0  0  0  0  0  0  0  0  0  0
    3.1878   -4.6003    0.7431 N   0  0  0  0  0  0  0  0  0  0  0  0
    1.1810   -2.0803    1.5718 H   0  0  0  0  0  0  0  0  0  0  0  0
    1.5362   -1.3759   -1.0315 H   0  0  0  0  0  0  0  0  0  0  0  0
    0.9137   -4.1569    0.1333 H   0  0  0  0  0  0  0  0  0  0  0  0
    1.4107   -3.9324   -1.5460 H   0  0  0  0  0  0  0  0  0  0  0  0
    2.4562   -5.2555    0.9978 H   0  0  0  0  0  0  0  0  0  0  0  0
    4.1095   -4.7713    1.1326 H   0  0  0  0  0  0  0  0  0  0  0  0
   -1.5234   -2.2745   -0.3085 N   0  0  0  0  0  0  0  0  0  0  0  0
   -2.9023   -2.3273   -0.7315 C   0  0  2  0  0  0  0  0  0  0  0  0
   -3.0370   -3.4450   -1.7572 C   0  0  0  0  0  0  0  0  0  0  0  0
   -2.0886   -3.8721   -2.4124 O   0  0  0  0  0  0  0  0  0  0  0  0
   -3.3536   -0.9973   -1.3145 C   0  0  0  0  0  0  0  0  0  0  0  0
   -1.3192   -2.3928    0.6795 H   0  0  0  0  0  0  0  0  0  0  0  0
   -3.4962   -2.5717    0.1559 H   0  0  0  0  0  0  0  0  0  0  0  0
   -2.7698   -0.7356   -2.2046 H   0  0  0  0  0  0  0  0  0  0  0  0
   -4.4078   -1.0302   -1.6087 H   0  0  0  0  0  0  0  0  0  0  0  0
   -3.2281   -0.1895   -0.5855 H   0  0  0  0  0  0  0  0  0  0  0  0
   -4.3487   -3.8799   -1.8859 N   0  0  0  0  0  0  0  0  0  0  0  0
   -4.7372   -4.9243   -2.8048 C   0  0  0  0  0  0  0  0  0  0  0  0
   -5.0678   -3.4825   -1.2886 H   0  0  0  0  0  0  0  0  0  0  0  0
   -5.0426   -4.4764   -3.7619 H   0  0  0  0  0  0  0  0  0  0  0  0
   -3.8861   -5.6009   -2.9717 H   0  0  0  0  0  0  0  0  0  0  0  0
   -5.5787   -5.4915   -2.3805 H   0  0  0  0  0  0  0  0  0  0  0  0
  1  3  1  0  0  0  0
  1  7  1  0  0  0  0
  1  2  2  0  0  0  0
 21 22  1  0  0  0  0
 22 24  1  0  0  0  0
 22 23  2  0  0  0  0
 32 33  1  0  0  0  0
 33 41  1  0  0  0  0
 33 34  2  0  0  0  0
  8  9  1  0  0  0  0
  9 17  1  0  0  0  0
  9 10  2  0  0  0  0
 18 19  1  0  0  0  0
 19 31  1  0  0  0  0
 19 20  2  0  0  0  0
 32 35  1  0  0  0  0
  8 11  1  0  0  0  0
 41 42  1  0  0  0  0
 18 21  1  0  0  0  0
 31 32  1  0  0  0  0
  7  8  1  0  0  0  0
 17 18  1  0  0  0  0
  3  4  1  0  0  0  0
  3  5  1  0  0  0  0
  3  6  1  0  0  0  0
 35 38  1  0  0  0  0
 35 39  1  0  0  0  0
 35 40  1  0  0  0  0
 11 14  1  0  0  0  0
 11 15  1  0  0  0  0
 11 16  1  0  0  0  0
 42 44  1  0  0  0  0
 42 45  1  0  0  0  0
 42 46  1  0  0  0  0
 21 27  1  0  0  0  0
 21 28  1  0  0  0  0
 32 37  1  0  0  0  0
  8 13  1  0  0  0  0
 18 26  1  0  0  0  0
 24 29  1  0  0  0  0
 24 30  1  0  0  0  0
 41 43  1  0  0  0  0
  7 12  1  0  0  0  0
 31 36  1  0  0  0  0
 17 25  1  0  0  0  0
M  END
$$$$

  -OEChem-05262214473D

 46 45  0     1  0  0  0  0  0999 V2000
   -0.0543    1.9736    3.8406 C   0  0  0  0  0  0  0  0  0  0  0  0
    0.6744    1.6099    4.7562 O   0  0  0  0  0  0  0  0  0  0  0  0
   -0.5599    3.3779    3.8160 C   0  0  0  0  0  0  0  0  0  0  0  0
   -1.5202    3.4885    4.3450 H   0  0  0  0  0  0  0  0  0  0  0  0
    0.1282    4.0814    4.3116 H   0  0  0  0  0  0  0  0  0  0  0  0
   -0.7317    3.7994    2.8126 H   0  0  0  0  0  0  0  0  0  0  0  0
   -0.4812    1.1968    2.7762 N   0  0  0  0  0  0  0  0  0  0  0  0
   -0.1106   -0.1834    2.6051 C   0  0  2  0  0  0  0  0  0  0  0  0
   -0.0696   -0.4775    1.1113 C   0  0  0  0  0  0  0  0  0  0  0  0
   -0.6805    0.1900    0.2792 O   0  0  0  0  0  0  0  0  0  0  0  0
   -1.0852   -1.1101    3.3150 C   0  0  0  0  0  0  0  0  0  0  0  0
   -1.0883    1.6241    2.0791 H   0  0  0  0  0  0  0  0  0  0  0  0
    0.8937   -0.2959    3.0277 H   0  0  0  0  0  0  0  0  0  0  0  0
   -2.0970   -1.0114    2.9051 H   0  0  0  0  0  0  0  0  0  0  0  0
   -0.7860   -2.1580    3.2078 H   0  0  0  0  0  0  0  0  0  0  0  0
   -1.1357   -0.8775    4.3842 H   0  0  0  0  0  0  0  0  0  0  0  0
    0.6950   -1.6003    0.8178 N   0  0  0  0  0  0  0  0  0  0  0  0
    0.8777   -2.0908   -0.5246 C   0  0  2  0  0  0  0  0  0  0  0  0
   -0.4843   -2.0791   -1.2074 C   0  0  0  0  0  0  0  0  0  0  0  0
   -0.6290   -2.2231   -2.4198 O   0  0  0  0  0  0  0  0  0  0  0  0
    1.4758   -3.4977   -0.5403 C   0  0  0  0  0  0  0  0  0  0  0  0
    2.9263   -3.5351   -0.0924 C   0  0  0  0  0  0  0  0  0  0  0  0
    3.7717   -2.7113   -0.4290 O   0  0  0  0  0  0  0  0  0  0  0  0
    3.1878   -4.6003    0.7431 N   0  0  0  0  0  0  0  0  0  0  0  0
    1.1810   -2.0803    1.5718 H   0  0  0  0  0  0  0  0  0  0  0  0
    1.5362   -1.3759   -1.0315 H   0  0  0  0  0  0  0  0  0  0  0  0
    0.9137   -4.1569    0.1333 H   0  0  0  0  0  0  0  0  0  0  0  0
    1.4107   -3.9324   -1.5460 H   0  0  0  0  0  0  0  0  0  0  0  0
    2.4562   -5.2555    0.9978 H   0  0  0  0  0  0  0  0  0  0  0  0
    4.1095   -4.7713    1.1326 H   0  0  0  0  0  0  0  0  0  0  0  0
   -1.5248   -1.9392   -0.2999 N   0  0  0  0  0  0  0  0  0  0  0  0
   -2.9070   -1.9278   -0.7152 C   0  0  2  0  0  0  0  0  0  0  0  0
   -3.1863   -3.2289   -1.4558 C   0  0  0  0  0  0  0  0  0  0  0  0
   -2.3041   -3.9032   -1.9833 O   0  0  0  0  0  0  0  0  0  0  0  0
   -3.2104   -0.7254   -1.5955 C   0  0  0  0  0  0  0  0  0  0  0  0
   -1.3203   -1.8487    0.6910 H   0  0  0  0  0  0  0  0  0  0  0  0
   -3.5113   -1.8896    0.1977 H   0  0  0  0  0  0  0  0  0  0  0  0
   -2.6142   -0.7463   -2.5151 H   0  0  0  0  0  0  0  0  0  0  0  0
   -4.2658   -0.7027   -1.8863 H   0  0  0  0  0  0  0  0  0  0  0  0
   -2.9808    0.2089   -1.0718 H   0  0  0  0  0  0  0  0  0  0  0  0
   -4.5413   -3.5263   -1.4956 N   0  0  0  0  0  0  0  0  0  0  0  0
   -5.0624   -4.7024   -2.1523 C   0  0  0  0  0  0  0  0  0  0  0  0
   -5.2001   -2.9207   -1.0150 H   0  0  0  0  0  0  0  0  0  0  0  0
   -5.3288   -4.4556   -3.1906 H   0  0  0  0  0  0  0  0  0  0  0  0
   -4.2981   -5.4935   -2.1482 H   0  0  0  0  0  0  0  0  0  0  0  0
   -5.9572   -5.0543   -1.6181 H   0  0  0  0  0  0  0  0  0  0  0  0
  1  3  1  0  0  0  0
  1  7  1  0  0  0  0
  1  2  2  0  0  0  0
 21 22  1  0  0  0  0
 22 24  1  0  0  0  0
 22 23  2  0  0  0  0
 32 33  1  0  0  0  0
 33 41  1  0  0  0  0
 33 34  2  0  0  0  0
  8  9  1  0  0  0  0
  9 17  1  0  0  0  0
  9 10  2  0  0  0  0
 18 19  1  0  0  0  0
 19 31  1  0  0  0  0
 19 20  2  0  0  0  0
 32 35  1  0  0  0  0
  8 11  1  0  0  0  0
 41 42  1  0  0  0  0
 18 21  1  0  0  0  0
 31 32  1  0  0  0  0
  7  8  1  0  0  0  0
 17 18  1  0  0  0  0
  3  4  1  0  0  0  0
  3  5  1  0  0  0  0
  3  6  1  0  0  0  0
 35 38  1  0  0  0  0
 35 39  1  0  0  0  0
 35 40  1  0  0  0  0
 11 14  1  0  0  0  0
 11 15  1  0  0  0  0
 11 16  1  0  0  0  0
 42 44  1  0  0  0  0
 42 45  1  0  0  0  0
 42 46  1  0  0  0  0
 21 27  1  0  0  0  0
 21 28  1  0  0  0  0
 32 37  1  0  0  0  0
  8 13  1  0  0  0  0
 18 26  1  0  0  0  0
 24 29  1  0  0  0  0
 24 30  1  0  0  0  0
 41 43  1  0  0  0  0
  7 12  1  0  0  0  0
 31 36  1  0  0  0  0
 17 25  1  0  0  0  0
M  END
$$$$

  -OEChem-05262214473D

 46 45  0     1  0  0  0  0  0999 V2000
   -0.0543    1.9736    3.8406 C   0  0  0  0  0  0  0  0  0  0  0  0
    0.6744    1.6099    4.7562 O   0  0  0  0  0  0  0  0  0  0  0  0
   -0.5599    3.3779    3.8160 C   0  0  0  0  0  0  0  0  0  0  0  0
   -1.5202    3.4885    4.3450 H   0  0  0  0  0  0  0  0  0  0  0  0
    0.1282    4.0814    4.3116 H   0  0  0  0  0  0  0  0  0  0  0  0
   -0.7317    3.7994    2.8126 H   0  0  0  0  0  0  0  0  0  0  0  0
   -0.4812    1.1968    2.7762 N   0  0  0  0  0  0  0  0  0  0  0  0
   -0.1106   -0.1834    2.6051 C   0  0  2  0  0  0  0  0  0  0  0  0
   -0.0696   -0.4775    1.1113 C   0  0  0  0  0  0  0  0  0  0  0  0
   -0.6805    0.1900    0.2792 O   0  0  0  0  0  0  0  0  0  0  0  0
   -1.0852   -1.1101    3.3150 C   0  0  0  0  0  0  0  0  0  0  0  0
   -1.0883    1.6241    2.0791 H   0  0  0  0  0  0  0  0  0  0  0  0
    0.8937   -0.2959    3.0277 H   0  0  0  0  0  0  0  0  0  0  0  0
   -2.0970   -1.0114    2.9051 H   0  0  0  0  0  0  0  0  0  0  0  0
   -0.7860   -2.1580    3.2078 H   0  0  0  0  0  0  0  0  0  0  0  0
   -1.1357   -0.8775    4.3842 H   0  0  0  0  0  0  0  0  0  0  0  0
    0.6950   -1.6003    0.8178 N   0  0  0  0  0  0  0  0  0  0  0  0
    0.8777   -2.0908   -0.5246 C   0  0  2  0  0  0  0  0  0  0  0  0
   -0.4843   -2.0791   -1.2074 C   0  0  0  0  0  0  0  0  0  0  0  0
   -0.6636   -2.4817   -2.3551 O   0  0  0  0  0  0  0  0  0  0  0  0
    1.4758   -3.4977   -0.5403 C   0  0  0  0  0  0  0  0  0  0  0  0
    2.9263   -3.5351   -0.0924 C   0  0  0  0  0  0  0  0  0  0  0  0
    3.7717   -2.7113   -0.4290 O   0  0  0  0  0  0  0  0  0  0  0  0
    3.1878   -4.6003    0.7431 N   0  0  0  0  0  0  0  0  0  0  0  0
    1.1810   -2.0803    1.5718 H   0  0  0  0  0  0  0  0  0  0  0  0
    1.5362   -1.3759   -1.0315 H   0  0  0  0  0  0  0  0  0  0  0  0
    0.9137   -4.1569    0.1333 H   0  0  0  0  0  0  0  0  0  0  0  0
    1.4107   -3.9324   -1.5460 H   0  0  0  0  0  0  0  0  0  0  0  0
    2.4562   -5.2555    0.9978 H   0  0  0  0  0  0  0  0  0  0  0  0
    4.1095   -4.7713    1.1326 H   0  0  0  0  0  0  0  0  0  0  0  0
   -1.4873   -1.6131   -0.3691 N   0  0  0  0  0  0  0  0  0  0  0  0
   -2.8652   -1.5375   -0.7919 C   0  0  2  0  0  0  0  0  0  0  0  0
   -3.3048   -2.9331   -1.2144 C   0  0  0  0  0  0  0  0  0  0  0  0
   -2.5149   -3.8089   -1.5612 O   0  0  0  0  0  0  0  0  0  0  0  0
   -3.0411   -0.5444   -1.9301 C   0  0  0  0  0  0  0  0  0  0  0  0
   -1.2582   -1.3204    0.5762 H   0  0  0  0  0  0  0  0  0  0  0  0
   -3.4466   -1.2193    0.0803 H   0  0  0  0  0  0  0  0  0  0  0  0
   -2.4658   -0.8465   -2.8129 H   0  0  0  0  0  0  0  0  0  0  0  0
   -4.0912   -0.4671   -2.2305 H   0  0  0  0  0  0  0  0  0  0  0  0
   -2.6967    0.4525   -1.6342 H   0  0  0  0  0  0  0  0  0  0  0  0
   -4.6856   -3.0721   -1.2001 N   0  0  0  0  0  0  0  0  0  0  0  0
   -5.3495   -4.2994   -1.5727 C   0  0  0  0  0  0  0  0  0  0  0  0
   -5.2622   -2.2994   -0.8805 H   0  0  0  0  0  0  0  0  0  0  0  0
   -5.6018   -4.2701   -2.6430 H   0  0  0  0  0  0  0  0  0  0  0  0
   -4.6820   -5.1514   -1.3767 H   0  0  0  0  0  0  0  0  0  0  0  0
   -6.2706   -4.4118   -0.9820 H   0  0  0  0  0  0  0  0  0  0  0  0
  1  3  1  0  0  0  0
  1  7  1  0  0  0  0
  1  2  2  0  0  0  0
 21 22  1  0  0  0  0
 22 24  1  0  0  0  0
 22 23  2  0  0  0  0
 32 33  1  0  0  0  0
 33 41  1  0  0  0  0
 33 34  2  0  0  0  0
  8  9  1  0  0  0  0
  9 17  1  0  0  0  0
  9 10  2  0  0  0  0
 18 19  1  0  0  0  0
 19 31  1  0  0  0  0
 19 20  2  0  0  0  0
 32 35  1  0  0  0  0
  8 11  1  0  0  0  0
 41 42  1  0  0  0  0
 18 21  1  0  0  0  0
 31 32  1  0  0  0  0
  7  8  1  0  0  0  0
 17 18  1  0  0  0  0
  3  4  1  0  0  0  0
  3  5  1  0  0  0  0
  3  6  1  0  0  0  0
 35 38  1  0  0  0  0
 35 39  1  0  0  0  0
 35 40  1  0  0  0  0
 11 14  1  0  0  0  0
 11 15  1  0  0  0  0
 11 16  1  0  0  0  0
 42 44  1  0  0  0  0
 42 45  1  0  0  0  0
 42 46  1  0  0  0  0
 21 27  1  0  0  0  0
 21 28  1  0  0  0  0
 32 37  1  0  0  0  0
  8 13  1  0  0  0  0
 18 26  1  0  0  0  0
 24 29  1  0  0  0  0
 24 30  1  0  0  0  0
 41 43  1  0  0  0  0
  7 12  1  0  0  0  0
 31 36  1  0  0  0  0
 17 25  1  0  0  0  0
M  END
$$$$

  -OEChem-05262214473D

 46 45  0     1  0  0  0  0  0999 V2000
   -0.0543    1.9736    3.8406 C   0  0  0  0  0  0  0  0  0  0  0  0
    0.6744    1.6099    4.7562 O   0  0  0  0  0  0  0  0  0  0  0  0
   -0.5599    3.3779    3.8160 C   0  0  0  0  0  0  0  0  0  0  0  0
   -1.5202    3.4885    4.3450 H   0  0  0  0  0  0  0  0  0  0  0  0
    0.1282    4.0814    4.3116 H   0  0  0  0  0  0  0  0  0  0  0  0
   -0.7317    3.7994    2.8126 H   0  0  0  0  0  0  0  0  0  0  0  0
   -0.4812    1.1968    2.7762 N   0  0  0  0  0  0  0  0  0  0  0  0
   -0.1106   -0.1834    2.6051 C   0  0  2  0  0  0  0  0  0  0  0  0
   -0.0696   -0.4775    1.1113 C   0  0  0  0  0  0  0  0  0  0  0  0
   -0.6805    0.1900    0.2792 O   0  0  0  0  0  0  0  0  0  0  0  0
   -1.0852   -1.1101    3.3150 C   0  0  0  0  0  0  0  0  0  0  0  0
   -1.0883    1.6241    2.0791 H   0  0  0  0  0  0  0  0  0  0  0  0
    0.8937   -0.2959    3.0277 H   0  0  0  0  0  0  0  0  0  0  0  0
   -2.0970   -1.0114    2.9051 H   0  0  0  0  0  0  0  0  0  0  0  0
   -0.7860   -2.1580    3.2078 H   0  0  0  0  0  0  0  0  0  0  0  0
   -1.1357   -0.8775    4.3842 H   0  0  0  0  0  0  0  0  0  0  0  0
    0.6950   -1.6003    0.8178 N   0  0  0  0  0  0  0  0  0  0  0  0
    0.8777   -2.0908   -0.5246 C   0  0  2  0  0  0  0  0  0  0  0  0
   -0.4843   -2.0791   -1.2074 C   0  0  0  0  0  0  0  0  0  0  0  0
   -0.7270   -2.7126   -2.2327 O   0  0  0  0  0  0  0  0  0  0  0  0
    1.4758   -3.4977   -0.5403 C   0  0  0  0  0  0  0  0  0  0  0  0
    2.9263   -3.5351   -0.0924 C   0  0  0  0  0  0  0  0  0  0  0  0
    3.7717   -2.7113   -0.4290 O   0  0  0  0  0  0  0  0  0  0  0  0
    3.1878   -4.6003    0.7431 N   0  0  0  0  0  0  0  0  0  0  0  0
    1.1810   -2.0803    1.5718 H   0  0  0  0  0  0  0  0  0  0  0  0
    1.5362   -1.3759   -1.0315 H   0  0  0  0  0  0  0  0  0  0  0  0
    0.9137   -4.1569    0.1333 H   0  0  0  0  0  0  0  0  0  0  0  0
    1.4107   -3.9324   -1.5460 H   0  0  0  0  0  0  0  0  0  0  0  0
    2.4562   -5.2555    0.9978 H   0  0  0  0  0  0  0  0  0  0  0  0
    4.1095   -4.7713    1.1326 H   0  0  0  0  0  0  0  0  0  0  0  0
   -1.4134   -1.3186   -0.5115 N   0  0  0  0  0  0  0  0  0  0  0  0
   -2.7797   -1.1831   -0.9564 C   0  0  2  0  0  0  0  0  0  0  0  0
   -3.3844   -2.5778   -1.0494 C   0  0  0  0  0  0  0  0  0  0  0  0
   -2.7068   -3.5958   -1.1748 O   0  0  0  0  0  0  0  0  0  0  0  0
   -2.8572   -0.4666   -2.2955 C   0  0  0  0  0  0  0  0  0  0  0  0
   -1.1371   -0.8439    0.3430 H   0  0  0  0  0  0  0  0  0  0  0  0
   -3.3067   -0.6065   -0.1884 H   0  0  0  0  0  0  0  0  0  0  0  0
   -2.3347   -1.0295   -3.0776 H   0  0  0  0  0  0  0  0  0  0  0  0
   -3.8959   -0.3393   -2.6179 H   0  0  0  0  0  0  0  0  0  0  0  0
   -2.3952    0.5247   -2.2344 H   0  0  0  0  0  0  0  0  0  0  0  0
   -4.7716   -2.5482   -1.0195 N   0  0  0  0  0  0  0  0  0  0  0  0
   -5.5790   -3.7427   -1.1056 C   0  0  0  0  0  0  0  0  0  0  0  0
   -5.2499   -1.6610   -0.8941 H   0  0  0  0  0  0  0  0  0  0  0  0
   -5.8428   -3.9326   -2.1564 H   0  0  0  0  0  0  0  0  0  0  0  0
   -5.0115   -4.5980   -0.7098 H   0  0  0  0  0  0  0  0  0  0  0  0
   -6.4975   -3.6076   -0.5157 H   0  0  0  0  0  0  0  0  0  0  0  0
  1  3  1  0  0  0  0
  1  7  1  0  0  0  0
  1  2  2  0  0  0  0
 21 22  1  0  0  0  0
 22 24  1  0  0  0  0
 22 23  2  0  0  0  0
 32 33  1  0  0  0  0
 33 41  1  0  0  0  0
 33 34  2  0  0  0  0
  8  9  1  0  0  0  0
  9 17  1  0  0  0  0
  9 10  2  0  0  0  0
 18 19  1  0  0  0  0
 19 31  1  0  0  0  0
 19 20  2  0  0  0  0
 32 35  1  0  0  0  0
  8 11  1  0  0  0  0
 41 42  1  0  0  0  0
 18 21  1  0  0  0  0
 31 32  1  0  0  0  0
  7  8  1  0  0  0  0
 17 18  1  0  0  0  0
  3  4  1  0  0  0  0
  3  5  1  0  0  0  0
  3  6  1  0  0  0  0
 35 38  1  0  0  0  0
 35 39  1  0  0  0  0
 35 40  1  0  0  0  0
 11 14  1  0  0  0  0
 11 15  1  0  0  0  0
 11 16  1  0  0  0  0
 42 44  1  0  0  0  0
 42 45  1  0  0  0  0
 42 46  1  0  0  0  0
 21 27  1  0  0  0  0
 21 28  1  0  0  0  0
 32 37  1  0  0  0  0
  8 13  1  0  0  0  0
 18 26  1  0  0  0  0
 24 29  1  0  0  0  0
 24 30  1  0  0  0  0
 41 43  1  0  0  0  0
  7 12  1  0  0  0  0
 31 36  1  0  0  0  0
 17 25  1  0  0  0  0
M  END
$$$$

  -OEChem-05262214473D

 46 45  0     1  0  0  0  0  0999 V2000
   -0.0543    1.9736    3.8406 C   0  0  0  0  0  0  0  0  0  0  0  0
    0.6744    1.6099    4.7562 O   0  0  0  0  0  0  0  0  0  0  0  0
   -0.5599    3.3779    3.8160 C   0  0  0  0  0  0  0  0  0  0  0  0
   -1.5202    3.4885    4.3450 H   0  0  0  0  0  0  0  0  0  0  0  0
    0.1282    4.0814    4.3116 H   0  0  0  0  0  0  0  0  0  0  0  0
   -0.7317    3.7994    2.8126 H   0  0  0  0  0  0  0  0  0  0  0  0
   -0.4812    1.1968    2.7762 N   0  0  0  0  0  0  0  0  0  0  0  0
   -0.1106   -0.1834    2.6051 C   0  0  2  0  0  0  0  0  0  0  0  0
   -0.0696   -0.4775    1.1113 C   0  0  0  0  0  0  0  0  0  0  0  0
   -0.6805    0.1900    0.2792 O   0  0  0  0  0  0  0  0  0  0  0  0
   -1.0852   -1.1101    3.3150 C   0  0  0  0  0  0  0  0  0  0  0  0
   -1.0883    1.6241    2.0791 H   0  0  0  0  0  0  0  0  0  0  0  0
    0.8937   -0.2959    3.0277 H   0  0  0  0  0  0  0  0  0  0  0  0
   -2.0970   -1.0114    2.9051 H   0  0  0  0  0  0  0  0  0  0  0  0
   -0.7860   -2.1580    3.2078 H   0  0  0  0  0  0  0  0  0  0  0  0
   -1.1357   -0.8775    4.3842 H   0  0  0  0  0  0  0  0  0  0  0  0
    0.6950   -1.6003    0.8178 N   0  0  0  0  0  0  0  0  0  0  0  0
    0.8777   -2.0908   -0.5246 C   0  0  2  0  0  0  0  0  0  0  0  0
   -0.4843   -2.0791   -1.2074 C   0  0  0  0  0  0  0  0  0  0  0  0
   -0.8147   -2.8999   -2.0610 O   0  0  0  0  0  0  0  0  0  0  0  0
    1.4758   -3.4977   -0.5403 C   0  0  0  0  0  0  0  0  0  0  0  0
    2.9263   -3.5351   -0.0924 C   0  0  0  0  0  0  0  0  0  0  0  0
    3.7717   -2.7113   -0.4290 O   0  0  0  0  0  0  0  0  0  0  0  0
    3.1878   -4.6003    0.7431 N   0  0  0  0  0  0  0  0  0  0  0  0
    1.1810   -2.0803    1.5718 H   0  0  0  0  0  0  0  0  0  0  0  0
    1.5362   -1.3759   -1.0315 H   0  0  0  0  0  0  0  0  0  0  0  0
    0.9137   -4.1569    0.1333 H   0  0  0  0  0  0  0  0  0  0  0  0
    1.4107   -3.9324   -1.5460 H   0  0  0  0  0  0  0  0  0  0  0  0
    2.4562   -5.2555    0.9978 H   0  0  0  0  0  0  0  0  0  0  0  0
    4.1095   -4.7713    1.1326 H   0  0  0  0  0  0  0  0  0  0  0  0
   -1.3081   -1.0756   -0.7173 N   0  0  0  0  0  0  0  0  0  0  0  0
   -2.6563   -0.8888   -1.1974 C   0  0  2  0  0  0  0  0  0  0  0  0
   -3.4198   -2.1872   -0.9721 C   0  0  0  0  0  0  0  0  0  0  0  0
   -2.8666   -3.2782   -0.8505 O   0  0  0  0  0  0  0  0  0  0  0  0
   -2.6713   -0.4973   -2.6668 C   0  0  0  0  0  0  0  0  0  0  0  0
   -0.9654   -0.4516    0.0072 H   0  0  0  0  0  0  0  0  0  0  0  0
   -3.1009   -0.0929   -0.5899 H   0  0  0  0  0  0  0  0  0  0  0  0
   -2.2297   -1.2826   -3.2912 H   0  0  0  0  0  0  0  0  0  0  0  0
   -3.6932   -0.3282   -3.0220 H   0  0  0  0  0  0  0  0  0  0  0  0
   -2.0967    0.4206   -2.8315 H   0  0  0  0  0  0  0  0  0  0  0  0
   -4.7937   -1.9905   -0.9660 N   0  0  0  0  0  0  0  0  0  0  0  0
   -5.7351   -3.0703   -0.7827 C   0  0  0  0  0  0  0  0  0  0  0  0
   -5.1640   -1.0488   -1.0550 H   0  0  0  0  0  0  0  0  0  0  0  0
   -6.0356   -3.4661   -1.7640 H   0  0  0  0  0  0  0  0  0  0  0  0
   -5.2644   -3.8709   -0.1931 H   0  0  0  0  0  0  0  0  0  0  0  0
   -6.6225   -2.6966   -0.2508 H   0  0  0  0  0  0  0  0  0  0  0  0
  1  3  1  0  0  0  0
  1  7  1  0  0  0  0
  1  2  2  0  0  0  0
 21 22  1  0  0  0  0
 22 24  1  0  0  0  0
 22 23  2  0  0  0  0
 32 33  1  0  0  0  0
 33 41  1  0  0  0  0
 33 34  2  0  0  0  0
  8  9  1  0  0  0  0
  9 17  1  0  0  0  0
  9 10  2  0  0  0  0
 18 19  1  0  0  0  0
 19 31  1  0  0  0  0
 19 20  2  0  0  0  0
 32 35  1  0  0  0  0
  8 11  1  0  0  0  0
 41 42  1  0  0  0  0
 18 21  1  0  0  0  0
 31 32  1  0  0  0  0
  7  8  1  0  0  0  0
 17 18  1  0  0  0  0
  3  4  1  0  0  0  0
  3  5  1  0  0  0  0
  3  6  1  0  0  0  0
 35 38  1  0  0  0  0
 35 39  1  0  0  0  0
 35 40  1  0  0  0  0
 11 14  1  0  0  0  0
 11 15  1  0  0  0  0
 11 16  1  0  0  0  0
 42 44  1  0  0  0  0
 42 45  1  0  0  0  0
 42 46  1  0  0  0  0
 21 27  1  0  0  0  0
 21 28  1  0  0  0  0
 32 37  1  0  0  0  0
  8 13  1  0  0  0  0
 18 26  1  0  0  0  0
 24 29  1  0  0  0  0
 24 30  1  0  0  0  0
 41 43  1  0  0  0  0
  7 12  1  0  0  0  0
 31 36  1  0  0  0  0
 17 25  1  0  0  0  0
M  END
$$$$

  -OEChem-05262214473D

 46 45  0     1  0  0  0  0  0999 V2000
   -0.0543    1.9736    3.8406 C   0  0  0  0  0  0  0  0  0  0  0  0
    0.6744    1.6099    4.7562 O   0  0  0  0  0  0  0  0  0  0  0  0
   -0.5599    3.3779    3.8160 C   0  0  0  0  0  0  0  0  0  0  0  0
   -1.5202    3.4885    4.3450 H   0  0  0  0  0  0  0  0  0  0  0  0
    0.1282    4.0814    4.3116 H   0  0  0  0  0  0  0  0  0  0  0  0
   -0.7317    3.7994    2.8126 H   0  0  0  0  0  0  0  0  0  0  0  0
   -0.4812    1.1968    2.7762 N   0  0  0  0  0  0  0  0  0  0  0  0
   -0.1106   -0.1834    2.6051 C   0  0  2  0  0  0  0  0  0  0  0  0
   -0.0696   -0.4775    1.1113 C   0  0  0  0  0  0  0  0  0  0  0  0
   -0.6805    0.1900    0.2792 O   0  0  0  0  0  0  0  0  0  0  0  0
   -1.0852   -1.1101    3.3150 C   0  0  0  0  0  0  0  0  0  0  0  0
   -1.0883    1.6241    2.0791 H   0  0  0  0  0  0  0  0  0  0  0  0
    0.8937   -0.2959    3.0277 H   0  0  0  0  0  0  0  0  0  0  0  0
   -2.0970   -1.0114    2.9051 H   0  0  0  0  0  0  0  0  0  0  0  0
   -0.7860   -2.1580    3.2078 H   0  0  0  0  0  0  0  0  0  0  0  0
   -1.1357   -0.8775    4.3842 H   0  0  0  0  0  0  0  0  0  0  0  0
    0.6950   -1.6003    0.8178 N   0  0  0  0  0  0  0  0  0  0  0  0
    0.8777   -2.0908   -0.5246 C   0  0  2  0  0  0  0  0  0  0  0  0
   -0.4843   -2.0791   -1.2074 C   0  0  0  0  0  0  0  0  0  0  0  0
   -0.9208   -3.0309   -1.8516 O   0  0  0  0  0  0  0  0  0  0  0  0
    1.4758   -3.4977   -0.5403 C   0  0  0  0  0  0  0  0  0  0  0  0
    2.9263   -3.5351   -0.0924 C   0  0  0  0  0  0  0  0  0  0  0  0
    3.7717   -2.7113   -0.4290 O   0  0  0  0  0  0  0  0  0  0  0  0
    3.1878   -4.6003    0.7431 N   0  0  0  0  0  0  0  0  0  0  0  0
    1.1810   -2.0803    1.5718 H   0  0  0  0  0  0  0  0  0  0  0  0
    1.5362   -1.3759   -1.0315 H   0  0  0  0  0  0  0  0  0  0  0  0
    0.9137   -4.1569    0.1333 H   0  0  0  0  0  0  0  0  0  0  0  0
    1.4107   -3.9324   -1.5460 H   0  0  0  0  0  0  0  0  0  0  0  0
    2.4562   -5.2555    0.9978 H   0  0  0  0  0  0  0  0  0  0  0  0
    4.1095   -4.7713    1.1326 H   0  0  0  0  0  0  0  0  0  0  0  0
   -1.1786   -0.9007   -0.9726 N   0  0  0  0  0  0  0  0  0  0  0  0
   -2.5035   -0.6746   -1.4985 C   0  0  2  0  0  0  0  0  0  0  0  0
   -3.4086   -1.7879   -0.9877 C   0  0  0  0  0  0  0  0  0  0  0  0
   -2.9836   -2.8779   -0.6105 O   0  0  0  0  0  0  0  0  0  0  0  0
   -2.4960   -0.6345   -3.0187 C   0  0  0  0  0  0  0  0  0  0  0  0
   -0.7547   -0.1702   -0.4082 H   0  0  0  0  0  0  0  0  0  0  0  0
   -2.8434    0.2863   -1.0970 H   0  0  0  0  0  0  0  0  0  0  0  0
   -2.1582   -1.5887   -3.4392 H   0  0  0  0  0  0  0  0  0  0  0  0
   -3.4969   -0.4345   -3.4153 H   0  0  0  0  0  0  0  0  0  0  0  0
   -1.8217    0.1473   -3.3847 H   0  0  0  0  0  0  0  0  0  0  0  0
   -4.7501   -1.4368   -1.0433 N   0  0  0  0  0  0  0  0  0  0  0  0
   -5.8072   -2.3280   -0.6260 C   0  0  0  0  0  0  0  0  0  0  0  0
   -5.0103   -0.5047   -1.3522 H   0  0  0  0  0  0  0  0  0  0  0  0
   -6.1668   -2.9023   -1.4926 H   0  0  0  0  0  0  0  0  0  0  0  0
   -5.4232   -3.0197    0.1382 H   0  0  0  0  0  0  0  0  0  0  0  0
   -6.6370   -1.7409   -0.2055 H   0  0  0  0  0  0  0  0  0  0  0  0
  1  3  1  0  0  0  0
  1  7  1  0  0  0  0
  1  2  2  0  0  0  0
 21 22  1  0  0  0  0
 22 24  1  0  0  0  0
 22 23  2  0  0  0  0
 32 33  1  0  0  0  0
 33 41  1  0  0  0  0
 33 34  2  0  0  0  0
  8  9  1  0  0  0  0
  9 17  1  0  0  0  0
  9 10  2  0  0  0  0
 18 19  1  0  0  0  0
 19 31  1  0  0  0  0
 19 20  2  0  0  0  0
 32 35  1  0  0  0  0
  8 11  1  0  0  0  0
 41 42  1  0  0  0  0
 18 21  1  0  0  0  0
 31 32  1  0  0  0  0
  7  8  1  0  0  0  0
 17 18  1  0  0  0  0
  3  4  1  0  0  0  0
  3  5  1  0  0  0  0
  3  6  1  0  0  0  0
 35 38  1  0  0  0  0
 35 39  1  0  0  0  0
 35 40  1  0  0  0  0
 11 14  1  0  0  0  0
 11 15  1  0  0  0  0
 11 16  1  0  0  0  0
 42 44  1  0  0  0  0
 42 45  1  0  0  0  0
 42 46  1  0  0  0  0
 21 27  1  0  0  0  0
 21 28  1  0  0  0  0
 32 37  1  0  0  0  0
  8 13  1  0  0  0  0
 18 26  1  0  0  0  0
 24 29  1  0  0  0  0
 24 30  1  0  0  0  0
 41 43  1  0  0  0  0
  7 12  1  0  0  0  0
 31 36  1  0  0  0  0
 17 25  1  0  0  0  0
M  END
$$$$

  -OEChem-05262214473D

 46 45  0     1  0  0  0  0  0999 V2000
   -0.0543    1.9736    3.8406 C   0  0  0  0  0  0  0  0  0  0  0  0
    0.6744    1.6099    4.7562 O   0  0  0  0  0  0  0  0  0  0  0  0
   -0.5599    3.3779    3.8160 C   0  0  0  0  0  0  0  0  0  0  0  0
   -1.5202    3.4885    4.3450 H   0  0  0  0  0  0  0  0  0  0  0  0
    0.1282    4.0814    4.3116 H   0  0  0  0  0  0  0  0  0  0  0  0
   -0.7317    3.7994    2.8126 H   0  0  0  0  0  0  0  0  0  0  0  0
   -0.4812    1.1968    2.7762 N   0  0  0  0  0  0  0  0  0  0  0  0
   -0.1106   -0.1834    2.6051 C   0  0  2  0  0  0  0  0  0  0  0  0
   -0.0696   -0.4775    1.1113 C   0  0  0  0  0  0  0  0  0  0  0  0
   -0.6805    0.1900    0.2792 O   0  0  0  0  0  0  0  0  0  0  0  0
   -1.0852   -1.1101    3.3150 C   0  0  0  0  0  0  0  0  0  0  0  0
   -1.0883    1.6241    2.0791 H   0  0  0  0  0  0  0  0  0  0  0  0
    0.8937   -0.2959    3.0277 H   0  0  0  0  0  0  0  0  0  0  0  0
   -2.0970   -1.0114    2.9051 H   0  0  0  0  0  0  0  0  0  0  0  0
   -0.7860   -2.1580    3.2078 H   0  0  0  0  0  0  0  0  0  0  0  0
   -1.1357   -0.8775    4.3842 H   0  0  0  0  0  0  0  0  0  0  0  0
    0.6950   -1.6003    0.8178 N   0  0  0  0  0  0  0  0  0  0  0  0
    0.8777   -2.0908   -0.5246 C   0  0  2  0  0  0  0  0  0  0  0  0
   -0.4843   -2.0791   -1.2074 C   0  0  0  0  0  0  0  0  0  0  0  0
   -1.0381   -3.0967   -1.6189 O   0  0  0  0  0  0  0  0  0  0  0  0
    1.4758   -3.4977   -0.5403 C   0  0  0  0  0  0  0  0  0  0  0  0
    2.9263   -3.5351   -0.0924 C   0  0  0  0  0  0  0  0  0  0  0  0
    3.7717   -2.7113   -0.4290 O   0  0  0  0  0  0  0  0  0  0  0  0
    3.1878   -4.6003    0.7431 N   0  0  0  0  0  0  0  0  0  0  0  0
    1.1810   -2.0803    1.5718 H   0  0  0  0  0  0  0  0  0  0  0  0
    1.5362   -1.3759   -1.0315 H   0  0  0  0  0  0  0  0  0  0  0  0
    0.9137   -4.1569    0.1333 H   0  0  0  0  0  0  0  0  0  0  0  0
    1.4107   -3.9324   -1.5460 H   0  0  0  0  0  0  0  0  0  0  0  0
    2.4562   -5.2555    0.9978 H   0  0  0  0  0  0  0  0  0  0  0  0
    4.1095   -4.7713    1.1326 H   0  0  0  0  0  0  0  0  0  0  0  0
   -1.0338   -0.8058   -1.2599 N   0  0  0  0  0  0  0  0  0  0  0  0
   -2.3316   -0.5550   -1.8392 C   0  0  2  0  0  0  0  0  0  0  0  0
   -3.3514   -1.4071   -1.0952 C   0  0  0  0  0  0  0  0  0  0  0  0
   -3.0496   -2.4222   -0.4710 O   0  0  0  0  0  0  0  0  0  0  0  0
   -2.3433   -0.8687   -3.3272 C   0  0  0  0  0  0  0  0  0  0  0  0
   -0.5194   -0.0190   -0.8750 H   0  0  0  0  0  0  0  0  0  0  0  0
   -2.5517    0.5055   -1.6751 H   0  0  0  0  0  0  0  0  0  0  0  0
   -2.1248   -1.9269   -3.5114 H   0  0  0  0  0  0  0  0  0  0  0  0
   -3.3204   -0.6509   -3.7710 H   0  0  0  0  0  0  0  0  0  0  0  0
   -1.5889   -0.2766   -3.8563 H   0  0  0  0  0  0  0  0  0  0  0  0
   -4.6440   -0.9249   -1.2462 N   0  0  0  0  0  0  0  0  0  0  0  0
   -5.7905   -1.5664   -0.6463 C   0  0  0  0  0  0  0  0  0  0  0  0
   -4.7993   -0.0658   -1.7655 H   0  0  0  0  0  0  0  0  0  0  0  0
   -6.2277   -2.2797   -1.3605 H   0  0  0  0  0  0  0  0  0  0  0  0
   -5.4772   -2.1024    0.2617 H   0  0  0  0  0  0  0  0  0  0  0  0
   -6.5400   -0.8056   -0.3828 H   0  0  0  0  0  0  0  0  0  0  0  0
  1  3  1  0  0  0  0
  1  7  1  0  0  0  0
  1  2  2  0  0  0  0
 21 22  1  0  0  0  0
 22 24  1  0  0  0  0
 22 23  2  0  0  0  0
 32 33  1  0  0  0  0
 33 41  1  0  0  0  0
 33 34  2  0  0  0  0
  8  9  1  0  0  0  0
  9 17  1  0  0  0  0
  9 10  2  0  0  0  0
 18 19  1  0  0  0  0
 19 31  1  0  0  0  0
 19 20  2  0  0  0  0
 32 35  1  0  0  0  0
  8 11  1  0  0  0  0
 41 42  1  0  0  0  0
 18 21  1  0  0  0  0
 31 32  1  0  0  0  0
  7  8  1  0  0  0  0
 17 18  1  0  0  0  0
  3  4  1  0  0  0  0
  3  5  1  0  0  0  0
  3  6  1  0  0  0  0
 35 38  1  0  0  0  0
 35 39  1  0  0  0  0
 35 40  1  0  0  0  0
 11 14  1  0  0  0  0
 11 15  1  0  0  0  0
 11 16  1  0  0  0  0
 42 44  1  0  0  0  0
 42 45  1  0  0  0  0
 42 46  1  0  0  0  0
 21 27  1  0  0  0  0
 21 28  1  0  0  0  0
 32 37  1  0  0  0  0
  8 13  1  0  0  0  0
 18 26  1  0  0  0  0
 24 29  1  0  0  0  0
 24 30  1  0  0  0  0
 41 43  1  0  0  0  0
  7 12  1  0  0  0  0
 31 36  1  0  0  0  0
 17 25  1  0  0  0  0
M  END
$$$$

  -OEChem-05262214473D

 46 45  0     1  0  0  0  0  0999 V2000
   -0.0543    1.9736    3.8406 C   0  0  0  0  0  0  0  0  0  0  0  0
    0.6744    1.6099    4.7562 O   0  0  0  0  0  0  0  0  0  0  0  0
   -0.5599    3.3779    3.8160 C   0  0  0  0  0  0  0  0  0  0  0  0
   -1.5202    3.4885    4.3450 H   0  0  0  0  0  0  0  0  0  0  0  0
    0.1282    4.0814    4.3116 H   0  0  0  0  0  0  0  0  0  0  0  0
   -0.7317    3.7994    2.8126 H   0  0  0  0  0  0  0  0  0  0  0  0
   -0.4812    1.1968    2.7762 N   0  0  0  0  0  0  0  0  0  0  0  0
   -0.1106   -0.1834    2.6051 C   0  0  2  0  0  0  0  0  0  0  0  0
   -0.0696   -0.4775    1.1113 C   0  0  0  0  0  0  0  0  0  0  0  0
   -0.6805    0.1900    0.2792 O   0  0  0  0  0  0  0  0  0  0  0  0
   -1.0852   -1.1101    3.3150 C   0  0  0  0  0  0  0  0  0  0  0  0
   -1.0883    1.6241    2.0791 H   0  0  0  0  0  0  0  0  0  0  0  0
    0.8937   -0.2959    3.0277 H   0  0  0  0  0  0  0  0  0  0  0  0
   -2.0970   -1.0114    2.9051 H   0  0  0  0  0  0  0  0  0  0  0  0
   -0.7860   -2.1580    3.2078 H   0  0  0  0  0  0  0  0  0  0  0  0
   -1.1357   -0.8775    4.3842 H   0  0  0  0  0  0  0  0  0  0  0  0
    0.6950   -1.6003    0.8178 N   0  0  0  0  0  0  0  0  0  0  0  0
    0.8777   -2.0908   -0.5246 C   0  0  2  0  0  0  0  0  0  0  0  0
   -0.4843   -2.0791   -1.2074 C   0  0  0  0  0  0  0  0  0  0  0  0
   -1.1585   -3.0928   -1.3786 O   0  0  0  0  0  0  0  0  0  0  0  0
    1.4758   -3.4977   -0.5403 C   0  0  0  0  0  0  0  0  0  0  0  0
    2.9263   -3.5351   -0.0924 C   0  0  0  0  0  0  0  0  0  0  0  0
    3.7717   -2.7113   -0.4290 O   0  0  0  0  0  0  0  0  0  0  0  0
    3.1878   -4.6003    0.7431 N   0  0  0  0  0  0  0  0  0  0  0  0
    1.1810   -2.0803    1.5718 H   0  0  0  0  0  0  0  0  0  0  0  0
    1.5362   -1.3759   -1.0315 H   0  0  0  0  0  0  0  0  0  0  0  0
    0.9137   -4.1569    0.1333 H   0  0  0  0  0  0  0  0  0  0  0  0
    1.4107   -3.9324   -1.5460 H   0  0  0  0  0  0  0  0  0  0  0  0
    2.4562   -5.2555    0.9978 H   0  0  0  0  0  0  0  0  0  0  0  0
    4.1095   -4.7713    1.1326 H   0  0  0  0  0  0  0  0  0  0  0  0
   -0.8834   -0.7975   -1.5596 N   0  0  0  0  0  0  0  0  0  0  0  0
   -2.1524   -0.5383   -2.1964 C   0  0  2  0  0  0  0  0  0  0  0  0
   -3.2522   -1.0708   -1.2873 C   0  0  0  0  0  0  0  0  0  0  0  0
   -3.0602   -1.9420   -0.4415 O   0  0  0  0  0  0  0  0  0  0  0  0
   -2.2237   -1.1841   -3.5714 C   0  0  0  0  0  0  0  0  0  0  0  0
   -0.2755   -0.0082   -1.3613 H   0  0  0  0  0  0  0  0  0  0  0  0
   -2.2457    0.5496   -2.2847 H   0  0  0  0  0  0  0  0  0  0  0  0
   -2.1320   -2.2742   -3.5031 H   0  0  0  0  0  0  0  0  0  0  0  0
   -3.1758   -0.9627   -4.0649 H   0  0  0  0  0  0  0  0  0  0  0  0
   -1.4141   -0.8222   -4.2143 H   0  0  0  0  0  0  0  0  0  0  0  0
   -4.4825   -0.4897   -1.5609 N   0  0  0  0  0  0  0  0  0  0  0  0
   -5.6861   -0.8373   -0.8422 C   0  0  0  0  0  0  0  0  0  0  0  0
   -4.5454    0.2381   -2.2666 H   0  0  0  0  0  0  0  0  0  0  0  0
   -6.2140   -1.6407   -1.3769 H   0  0  0  0  0  0  0  0  0  0  0  0
   -5.4227   -1.1815    0.1689 H   0  0  0  0  0  0  0  0  0  0  0  0
   -6.3383    0.0456   -0.7707 H   0  0  0  0  0  0  0  0  0  0  0  0
  1  3  1  0  0  0  0
  1  7  1  0  0  0  0
  1  2  2  0  0  0  0
 21 22  1  0  0  0  0
 22 24  1  0  0  0  0
 22 23  2  0  0  0  0
 32 33  1  0  0  0  0
 33 41  1  0  0  0  0
 33 34  2  0  0  0  0
  8  9  1  0  0  0  0
  9 17  1  0  0  0  0
  9 10  2  0  0  0  0
 18 19  1  0  0  0  0
 19 31  1  0  0  0  0
 19 20  2  0  0  0  0
 32 35  1  0  0  0  0
  8 11  1  0  0  0  0
 41 42  1  0  0  0  0
 18 21  1  0  0  0  0
 31 32  1  0  0  0  0
  7  8  1  0  0  0  0
 17 18  1  0  0  0  0
  3  4  1  0  0  0  0
  3  5  1  0  0  0  0
  3  6  1  0  0  0  0
 35 38  1  0  0  0  0
 35 39  1  0  0  0  0
 35 40  1  0  0  0  0
 11 14  1  0  0  0  0
 11 15  1  0  0  0  0
 11 16  1  0  0  0  0
 42 44  1  0  0  0  0
 42 45  1  0  0  0  0
 42 46  1  0  0  0  0
 21 27  1  0  0  0  0
 21 28  1  0  0  0  0
 32 37  1  0  0  0  0
  8 13  1  0  0  0  0
 18 26  1  0  0  0  0
 24 29  1  0  0  0  0
 24 30  1  0  0  0  0
 41 43  1  0  0  0  0
  7 12  1  0  0  0  0
 31 36  1  0  0  0  0
 17 25  1  0  0  0  0
M  END
$$$$

  -OEChem-05262214473D

 46 45  0     1  0  0  0  0  0999 V2000
   -0.0543    1.9736    3.8406 C   0  0  0  0  0  0  0  0  0  0  0  0
    0.6744    1.6099    4.7562 O   0  0  0  0  0  0  0  0  0  0  0  0
   -0.5599    3.3779    3.8160 C   0  0  0  0  0  0  0  0  0  0  0  0
   -1.5202    3.4885    4.3450 H   0  0  0  0  0  0  0  0  0  0  0  0
    0.1282    4.0814    4.3116 H   0  0  0  0  0  0  0  0  0  0  0  0
   -0.7317    3.7994    2.8126 H   0  0  0  0  0  0  0  0  0  0  0  0
   -0.4812    1.1968    2.7762 N   0  0  0  0  0  0  0  0  0  0  0  0
   -0.1106   -0.1834    2.6051 C   0  0  2  0  0  0  0  0  0  0  0  0
   -0.0696   -0.4775    1.1113 C   0  0  0  0  0  0  0  0  0  0  0  0
   -0.6805    0.1900    0.2792 O   0  0  0  0  0  0  0  0  0  0  0  0
   -1.0852   -1.1101    3.3150 C   0  0  0  0  0  0  0  0  0  0  0  0
   -1.0883    1.6241    2.0791 H   0  0  0  0  0  0  0  0  0  0  0  0
    0.8937   -0.2959    3.0277 H   0  0  0  0  0  0  0  0  0  0  0  0
   -2.0970   -1.0114    2.9051 H   0  0  0  0  0  0  0  0  0  0  0  0
   -0.7860   -2.1580    3.2078 H   0  0  0  0  0  0  0  0  0  0  0  0
   -1.1357   -0.8775    4.3842 H   0  0  0  0  0  0  0  0  0  0  0  0
    0.6950   -1.6003    0.8178 N   0  0  0  0  0  0  0  0  0  0  0  0
    0.8777   -2.0908   -0.5246 C   0  0  2  0  0  0  0  0  0  0  0  0
   -0.4843   -2.0791   -1.2074 C   0  0  0  0  0  0  0  0  0  0  0  0
   -1.2739   -3.0195   -1.1471 O   0  0  0  0  0  0  0  0  0  0  0  0
    1.4758   -3.4977   -0.5403 C   0  0  0  0  0  0  0  0  0  0  0  0
    2.9263   -3.5351   -0.0924 C   0  0  0  0  0  0  0  0  0  0  0  0
    3.7717   -2.7113   -0.4290 O   0  0  0  0  0  0  0  0  0  0  0  0
    3.1878   -4.6003    0.7431 N   0  0  0  0  0  0  0  0  0  0  0  0
    1.1810   -2.0803    1.5718 H   0  0  0  0  0  0  0  0  0  0  0  0
    1.5362   -1.3759   -1.0315 H   0  0  0  0  0  0  0  0  0  0  0  0
    0.9137   -4.1569    0.1333 H   0  0  0  0  0  0  0  0  0  0  0  0
    1.4107   -3.9324   -1.5460 H   0  0  0  0  0  0  0  0  0  0  0  0
    2.4562   -5.2555    0.9978 H   0  0  0  0  0  0  0  0  0  0  0  0
    4.1095   -4.7713    1.1326 H   0  0  0  0  0  0  0  0  0  0  0  0
   -0.7378   -0.8762   -1.8513 N   0  0  0  0  0  0  0  0  0  0  0  0
   -1.9781   -0.6256   -2.5455 C   0  0  2  0  0  0  0  0  0  0  0  0
   -3.1178   -0.8019   -1.5508 C   0  0  0  0  0  0  0  0  0  0  0  0
   -3.0147   -1.4702   -0.5242 O   0  0  0  0  0  0  0  0  0  0  0  0
   -2.1451   -1.5591   -3.7345 C   0  0  0  0  0  0  0  0  0  0  0  0
   -0.0396   -0.1387   -1.8341 H   0  0  0  0  0  0  0  0  0  0  0  0
   -1.9461    0.4156   -2.8844 H   0  0  0  0  0  0  0  0  0  0  0  0
   -2.1792   -2.6069   -3.4146 H   0  0  0  0  0  0  0  0  0  0  0  0
   -3.0728   -1.3487   -4.2769 H   0  0  0  0  0  0  0  0  0  0  0  0
   -1.3092   -1.4522   -4.4342 H   0  0  0  0  0  0  0  0  0  0  0  0
   -4.2766   -0.1608   -1.9658 N   0  0  0  0  0  0  0  0  0  0  0  0
   -5.5010   -0.1906   -1.2002 C   0  0  0  0  0  0  0  0  0  0  0  0
   -4.2659    0.3863   -2.8216 H   0  0  0  0  0  0  0  0  0  0  0  0
   -6.1266   -1.0288   -1.5406 H   0  0  0  0  0  0  0  0  0  0  0  0
   -5.2635   -0.3198   -0.1340 H   0  0  0  0  0  0  0  0  0  0  0  0
   -6.0454    0.7546   -1.3427 H   0  0  0  0  0  0  0  0  0  0  0  0
  1  3  1  0  0  0  0
  1  7  1  0  0  0  0
  1  2  2  0  0  0  0
 21 22  1  0  0  0  0
 22 24  1  0  0  0  0
 22 23  2  0  0  0  0
 32 33  1  0  0  0  0
 33 41  1  0  0  0  0
 33 34  2  0  0  0  0
  8  9  1  0  0  0  0
  9 17  1  0  0  0  0
  9 10  2  0  0  0  0
 18 19  1  0  0  0  0
 19 31  1  0  0  0  0
 19 20  2  0  0  0  0
 32 35  1  0  0  0  0
  8 11  1  0  0  0  0
 41 42  1  0  0  0  0
 18 21  1  0  0  0  0
 31 32  1  0  0  0  0
  7  8  1  0  0  0  0
 17 18  1  0  0  0  0
  3  4  1  0  0  0  0
  3  5  1  0  0  0  0
  3  6  1  0  0  0  0
 35 38  1  0  0  0  0
 35 39  1  0  0  0  0
 35 40  1  0  0  0  0
 11 14  1  0  0  0  0
 11 15  1  0  0  0  0
 11 16  1  0  0  0  0
 42 44  1  0  0  0  0
 42 45  1  0  0  0  0
 42 46  1  0  0  0  0
 21 27  1  0  0  0  0
 21 28  1  0  0  0  0
 32 37  1  0  0  0  0
  8 13  1  0  0  0  0
 18 26  1  0  0  0  0
 24 29  1  0  0  0  0
 24 30  1  0  0  0  0
 41 43  1  0  0  0  0
  7 12  1  0  0  0  0
 31 36  1  0  0  0  0
 17 25  1  0  0  0  0
M  END
$$$$

  -OEChem-05262214473D

 46 45  0     1  0  0  0  0  0999 V2000
   -0.0543    1.9736    3.8406 C   0  0  0  0  0  0  0  0  0  0  0  0
    0.6744    1.6099    4.7562 O   0  0  0  0  0  0  0  0  0  0  0  0
   -0.5599    3.3779    3.8160 C   0  0  0  0  0  0  0  0  0  0  0  0
   -1.5202    3.4885    4.3450 H   0  0  0  0  0  0  0  0  0  0  0  0
    0.1282    4.0814    4.3116 H   0  0  0  0  0  0  0  0  0  0  0  0
   -0.7317    3.7994    2.8126 H   0  0  0  0  0  0  0  0  0  0  0  0
   -0.4812    1.1968    2.7762 N   0  0  0  0  0  0  0  0  0  0  0  0
   -0.1106   -0.1834    2.6051 C   0  0  2  0  0  0  0  0  0  0  0  0
   -0.0696   -0.4775    1.1113 C   0  0  0  0  0  0  0  0  0  0  0  0
   -0.6805    0.1900    0.2792 O   0  0  0  0  0  0  0  0  0  0  0  0
   -1.0852   -1.1101    3.3150 C   0  0  0  0  0  0  0  0  0  0  0  0
   -1.0883    1.6241    2.0791 H   0  0  0  0  0  0  0  0  0  0  0  0
    0.8937   -0.2959    3.0277 H   0  0  0  0  0  0  0  0  0  0  0  0
   -2.0970   -1.0114    2.9051 H   0  0  0  0  0  0  0  0  0  0  0  0
   -0.7860   -2.1580    3.2078 H   0  0  0  0  0  0  0  0  0  0  0  0
   -1.1357   -0.8775    4.3842 H   0  0  0  0  0  0  0  0  0  0  0  0
    0.6950   -1.6003    0.8178 N   0  0  0  0  0  0  0  0  0  0  0  0
    0.8777   -2.0908   -0.5246 C   0  0  2  0  0  0  0  0  0  0  0  0
   -0.4843   -2.0791   -1.2074 C   0  0  0  0  0  0  0  0  0  0  0  0
   -1.3764   -2.8817   -0.9403 O   0  0  0  0  0  0  0  0  0  0  0  0
    1.4758   -3.4977   -0.5403 C   0  0  0  0  0  0  0  0  0  0  0  0
    2.9263   -3.5351   -0.0924 C   0  0  0  0  0  0  0  0  0  0  0  0
    3.7717   -2.7113   -0.4290 O   0  0  0  0  0  0  0  0  0  0  0  0
    3.1878   -4.6003    0.7431 N   0  0  0  0  0  0  0  0  0  0  0  0
    1.1810   -2.0803    1.5718 H   0  0  0  0  0  0  0  0  0  0  0  0
    1.5362   -1.3759   -1.0315 H   0  0  0  0  0  0  0  0  0  0  0  0
    0.9137   -4.1569    0.1333 H   0  0  0  0  0  0  0  0  0  0  0  0
    1.4107   -3.9324   -1.5460 H   0  0  0  0  0  0  0  0  0  0  0  0
    2.4562   -5.2555    0.9978 H   0  0  0  0  0  0  0  0  0  0  0  0
    4.1095   -4.7713    1.1326 H   0  0  0  0  0  0  0  0  0  0  0  0
   -0.6069   -1.0366   -2.1152 N   0  0  0  0  0  0  0  0  0  0  0  0
   -1.8206   -0.8109   -2.8630 C   0  0  2  0  0  0  0  0  0  0  0  0
   -2.9573   -0.6187   -1.8678 C   0  0  0  0  0  0  0  0  0  0  0  0
   -2.9162   -1.0388   -0.7133 O   0  0  0  0  0  0  0  0  0  0  0  0
   -2.1131   -1.9681   -3.8054 C   0  0  0  0  0  0  0  0  0  0  0  0
    0.1722   -0.4014   -2.2610 H   0  0  0  0  0  0  0  0  0  0  0  0
   -1.6736    0.1128   -3.4333 H   0  0  0  0  0  0  0  0  0  0  0  0
   -2.2633   -2.9023   -3.2521 H   0  0  0  0  0  0  0  0  0  0  0  0
   -3.0185   -1.7825   -4.3925 H   0  0  0  0  0  0  0  0  0  0  0  0
   -1.2815   -2.1239   -4.5011 H   0  0  0  0  0  0  0  0  0  0  0  0
   -4.0405    0.0392   -2.4334 N   0  0  0  0  0  0  0  0  0  0  0  0
   -5.2479    0.3299   -1.6961 C   0  0  0  0  0  0  0  0  0  0  0  0
   -3.9799    0.3686   -3.3924 H   0  0  0  0  0  0  0  0  0  0  0  0
   -5.9716   -0.4858   -1.8405 H   0  0  0  0  0  0  0  0  0  0  0  0
   -5.0103    0.4240   -0.6262 H   0  0  0  0  0  0  0  0  0  0  0  0
   -5.6814    1.2732   -2.0598 H   0  0  0  0  0  0  0  0  0  0  0  0
  1  3  1  0  0  0  0
  1  7  1  0  0  0  0
  1  2  2  0  0  0  0
 21 22  1  0  0  0  0
 22 24  1  0  0  0  0
 22 23  2  0  0  0  0
 32 33  1  0  0  0  0
 33 41  1  0  0  0  0
 33 34  2  0  0  0  0
  8  9  1  0  0  0  0
  9 17  1  0  0  0  0
  9 10  2  0  0  0  0
 18 19  1  0  0  0  0
 19 31  1  0  0  0  0
 19 20  2  0  0  0  0
 32 35  1  0  0  0  0
  8 11  1  0  0  0  0
 41 42  1  0  0  0  0
 18 21  1  0  0  0  0
 31 32  1  0  0  0  0
  7  8  1  0  0  0  0
 17 18  1  0  0  0  0
  3  4  1  0  0  0  0
  3  5  1  0  0  0  0
  3  6  1  0  0  0  0
 35 38  1  0  0  0  0
 35 39  1  0  0  0  0
 35 40  1  0  0  0  0
 11 14  1  0  0  0  0
 11 15  1  0  0  0  0
 11 16  1  0  0  0  0
 42 44  1  0  0  0  0
 42 45  1  0  0  0  0
 42 46  1  0  0  0  0
 21 27  1  0  0  0  0
 21 28  1  0  0  0  0
 32 37  1  0  0  0  0
  8 13  1  0  0  0  0
 18 26  1  0  0  0  0
 24 29  1  0  0  0  0
 24 30  1  0  0  0  0
 41 43  1  0  0  0  0
  7 12  1  0  0  0  0
 31 36  1  0  0  0  0
 17 25  1  0  0  0  0
M  END
$$$$

  -OEChem-05262214473D

 46 45  0     1  0  0  0  0  0999 V2000
   -0.0543    1.9736    3.8406 C   0  0  0  0  0  0  0  0  0  0  0  0
    0.6744    1.6099    4.7562 O   0  0  0  0  0  0  0  0  0  0  0  0
   -0.5599    3.3779    3.8160 C   0  0  0  0  0  0  0  0  0  0  0  0
   -1.5202    3.4885    4.3450 H   0  0  0  0  0  0  0  0  0  0  0  0
    0.1282    4.0814    4.3116 H   0  0  0  0  0  0  0  0  0  0  0  0
   -0.7317    3.7994    2.8126 H   0  0  0  0  0  0  0  0  0  0  0  0
   -0.4812    1.1968    2.7762 N   0  0  0  0  0  0  0  0  0  0  0  0
   -0.1106   -0.1834    2.6051 C   0  0  2  0  0  0  0  0  0  0  0  0
   -0.0696   -0.4775    1.1113 C   0  0  0  0  0  0  0  0  0  0  0  0
   -0.6805    0.1900    0.2792 O   0  0  0  0  0  0  0  0  0  0  0  0
   -1.0852   -1.1101    3.3150 C   0  0  0  0  0  0  0  0  0  0  0  0
   -1.0883    1.6241    2.0791 H   0  0  0  0  0  0  0  0  0  0  0  0
    0.8937   -0.2959    3.0277 H   0  0  0  0  0  0  0  0  0  0  0  0
   -2.0970   -1.0114    2.9051 H   0  0  0  0  0  0  0  0  0  0  0  0
   -0.7860   -2.1580    3.2078 H   0  0  0  0  0  0  0  0  0  0  0  0
   -1.1357   -0.8775    4.3842 H   0  0  0  0  0  0  0  0  0  0  0  0
    0.6950   -1.6003    0.8178 N   0  0  0  0  0  0  0  0  0  0  0  0
    0.8777   -2.0908   -0.5246 C   0  0  2  0  0  0  0  0  0  0  0  0
   -0.4843   -2.0791   -1.2074 C   0  0  0  0  0  0  0  0  0  0  0  0
   -1.4590   -2.6889   -0.7722 O   0  0  0  0  0  0  0  0  0  0  0  0
    1.4758   -3.4977   -0.5403 C   0  0  0  0  0  0  0  0  0  0  0  0
    2.9263   -3.5351   -0.0924 C   0  0  0  0  0  0  0  0  0  0  0  0
    3.7717   -2.7113   -0.4290 O   0  0  0  0  0  0  0  0  0  0  0  0
    3.1878   -4.6003    0.7431 N   0  0  0  0  0  0  0  0  0  0  0  0
    1.1810   -2.0803    1.5718 H   0  0  0  0  0  0  0  0  0  0  0  0
    1.5362   -1.3759   -1.0315 H   0  0  0  0  0  0  0  0  0  0  0  0
    0.9137   -4.1569    0.1333 H   0  0  0  0  0  0  0  0  0  0  0  0
    1.4107   -3.9324   -1.5460 H   0  0  0  0  0  0  0  0  0  0  0  0
    2.4562   -5.2555    0.9978 H   0  0  0  0  0  0  0  0  0  0  0  0
    4.1095   -4.7713    1.1326 H   0  0  0  0  0  0  0  0  0  0  0  0
   -0.4996   -1.2678   -2.3332 N   0  0  0  0  0  0  0  0  0  0  0  0
   -1.6905   -1.0817   -3.1270 C   0  0  2  0  0  0  0  0  0  0  0  0
   -2.7816   -0.5338   -2.2167 C   0  0  0  0  0  0  0  0  0  0  0  0
   -2.7714   -0.6773   -0.9959 O   0  0  0  0  0  0  0  0  0  0  0  0
   -2.1297   -2.3833   -3.7794 C   0  0  0  0  0  0  0  0  0  0  0  0
    0.3455   -0.7785   -2.6130 H   0  0  0  0  0  0  0  0  0  0  0  0
   -1.4465   -0.3384   -3.8939 H   0  0  0  0  0  0  0  0  0  0  0  0
   -2.3784   -3.1403   -3.0266 H   0  0  0  0  0  0  0  0  0  0  0  0
   -3.0166   -2.2346   -4.4040 H   0  0  0  0  0  0  0  0  0  0  0  0
   -1.3327   -2.7914   -4.4103 H   0  0  0  0  0  0  0  0  0  0  0  0
   -3.7901    0.0969   -2.9319 N   0  0  0  0  0  0  0  0  0  0  0  0
   -4.9440    0.6885   -2.2960 C   0  0  0  0  0  0  0  0  0  0  0  0
   -3.7068    0.1862   -3.9402 H   0  0  0  0  0  0  0  0  0  0  0  0
   -5.7595   -0.0487   -2.2560 H   0  0  0  0  0  0  0  0  0  0  0  0
   -4.6805    0.9992   -1.2742 H   0  0  0  0  0  0  0  0  0  0  0  0
   -5.2711    1.5659   -2.8732 H   0  0  0  0  0  0  0  0  0  0  0  0
  1  3  1  0  0  0  0
  1  7  1  0  0  0  0
  1  2  2  0  0  0  0
 21 22  1  0  0  0  0
 22 24  1  0  0  0  0
 22 23  2  0  0  0  0
 32 33  1  0  0  0  0
 33 41  1  0  0  0  0
 33 34  2  0  0  0  0
  8  9  1  0  0  0  0
  9 17  1  0  0  0  0
  9 10  2  0  0  0  0
 18 19  1  0  0  0  0
 19 31  1  0  0  0  0
 19 20  2  0  0  0  0
 32 35  1  0  0  0  0
  8 11  1  0  0  0  0
 41 42  1  0  0  0  0
 18 21  1  0  0  0  0
 31 32  1  0  0  0  0
  7  8  1  0  0  0  0
 17 18  1  0  0  0  0
  3  4  1  0  0  0  0
  3  5  1  0  0  0  0
  3  6  1  0  0  0  0
 35 38  1  0  0  0  0
 35 39  1  0  0  0  0
 35 40  1  0  0  0  0
 11 14  1  0  0  0  0
 11 15  1  0  0  0  0
 11 16  1  0  0  0  0
 42 44  1  0  0  0  0
 42 45  1  0  0  0  0
 42 46  1  0  0  0  0
 21 27  1  0  0  0  0
 21 28  1  0  0  0  0
 32 37  1  0  0  0  0
  8 13  1  0  0  0  0
 18 26  1  0  0  0  0
 24 29  1  0  0  0  0
 24 30  1  0  0  0  0
 41 43  1  0  0  0  0
  7 12  1  0  0  0  0
 31 36  1  0  0  0  0
 17 25  1  0  0  0  0
M  END
$$$$

  -OEChem-05262214473D

 46 45  0     1  0  0  0  0  0999 V2000
   -0.0543    1.9736    3.8406 C   0  0  0  0  0  0  0  0  0  0  0  0
    0.6744    1.6099    4.7562 O   0  0  0  0  0  0  0  0  0  0  0  0
   -0.5599    3.3779    3.8160 C   0  0  0  0  0  0  0  0  0  0  0  0
   -1.5202    3.4885    4.3450 H   0  0  0  0  0  0  0  0  0  0  0  0
    0.1282    4.0814    4.3116 H   0  0  0  0  0  0  0  0  0  0  0  0
   -0.7317    3.7994    2.8126 H   0  0  0  0  0  0  0  0  0  0  0  0
   -0.4812    1.1968    2.7762 N   0  0  0  0  0  0  0  0  0  0  0  0
   -0.1106   -0.1834    2.6051 C   0  0  2  0  0  0  0  0  0  0  0  0
   -0.0696   -0.4775    1.1113 C   0  0  0  0  0  0  0  0  0  0  0  0
   -0.6805    0.1900    0.2792 O   0  0  0  0  0  0  0  0  0  0  0  0
   -1.0852   -1.1101    3.3150 C   0  0  0  0  0  0  0  0  0  0  0  0
   -1.0883    1.6241    2.0791 H   0  0  0  0  0  0  0  0  0  0  0  0
    0.8937   -0.2959    3.0277 H   0  0  0  0  0  0  0  0  0  0  0  0
   -2.0970   -1.0114    2.9051 H   0  0  0  0  0  0  0  0  0  0  0  0
   -0.7860   -2.1580    3.2078 H   0  0  0  0  0  0  0  0  0  0  0  0
   -1.1357   -0.8775    4.3842 H   0  0  0  0  0  0  0  0  0  0  0  0
    0.6950   -1.6003    0.8178 N   0  0  0  0  0  0  0  0  0  0  0  0
    0.8777   -2.0908   -0.5246 C   0  0  2  0  0  0  0  0  0  0  0  0
   -0.4843   -2.0791   -1.2074 C   0  0  0  0  0  0  0  0  0  0  0  0
   -1.5162   -2.4542   -0.6543 O   0  0  0  0  0  0  0  0  0  0  0  0
    1.4758   -3.4977   -0.5403 C   0  0  0  0  0  0  0  0  0  0  0  0
    2.9263   -3.5351   -0.0924 C   0  0  0  0  0  0  0  0  0  0  0  0
    3.7717   -2.7113   -0.4290 O   0  0  0  0  0  0  0  0  0  0  0  0
    3.1878   -4.6003    0.7431 N   0  0  0  0  0  0  0  0  0  0  0  0
    1.1810   -2.0803    1.5718 H   0  0  0  0  0  0  0  0  0  0  0  0
    1.5362   -1.3759   -1.0315 H   0  0  0  0  0  0  0  0  0  0  0  0
    0.9137   -4.1569    0.1333 H   0  0  0  0  0  0  0  0  0  0  0  0
    1.4107   -3.9324   -1.5460 H   0  0  0  0  0  0  0  0  0  0  0  0
    2.4562   -5.2555    0.9978 H   0  0  0  0  0  0  0  0  0  0  0  0
    4.1095   -4.7713    1.1326 H   0  0  0  0  0  0  0  0  0  0  0  0
   -0.4231   -1.5540   -2.4906 N   0  0  0  0  0  0  0  0  0  0  0  0
   -1.5968   -1.4193   -3.3197 C   0  0  2  0  0  0  0  0  0  0  0  0
   -2.6028   -0.5528   -2.5737 C   0  0  0  0  0  0  0  0  0  0  0  0
   -2.5902   -0.4103   -1.3528 O   0  0  0  0  0  0  0  0  0  0  0  0
   -2.1939   -2.7764   -3.6581 C   0  0  0  0  0  0  0  0  0  0  0  0
    0.4684   -1.2443   -2.8661 H   0  0  0  0  0  0  0  0  0  0  0  0
   -1.2804   -0.9071   -4.2349 H   0  0  0  0  0  0  0  0  0  0  0  0
   -2.5167   -3.3047   -2.7535 H   0  0  0  0  0  0  0  0  0  0  0  0
   -3.0673   -2.6741   -4.3105 H   0  0  0  0  0  0  0  0  0  0  0  0
   -1.4594   -3.4091   -4.1682 H   0  0  0  0  0  0  0  0  0  0  0  0
   -3.5425    0.0082   -3.4272 N   0  0  0  0  0  0  0  0  0  0  0  0
   -4.6101    0.8608   -2.9590 C   0  0  0  0  0  0  0  0  0  0  0  0
   -3.4652   -0.1484   -4.4278 H   0  0  0  0  0  0  0  0  0  0  0  0
   -5.5047    0.2528   -2.7590 H   0  0  0  0  0  0  0  0  0  0  0  0
   -4.2964    1.3666   -2.0339 H   0  0  0  0  0  0  0  0  0  0  0  0
   -4.8424    1.6129   -3.7274 H   0  0  0  0  0  0  0  0  0  0  0  0
  1  3  1  0  0  0  0
  1  7  1  0  0  0  0
  1  2  2  0  0  0  0
 21 22  1  0  0  0  0
 22 24  1  0  0  0  0
 22 23  2  0  0  0  0
 32 33  1  0  0  0  0
 33 41  1  0  0  0  0
 33 34  2  0  0  0  0
  8  9  1  0  0  0  0
  9 17  1  0  0  0  0
  9 10  2  0  0  0  0
 18 19  1  0  0  0  0
 19 31  1  0  0  0  0
 19 20  2  0  0  0  0
 32 35  1  0  0  0  0
  8 11  1  0  0  0  0
 41 42  1  0  0  0  0
 18 21  1  0  0  0  0
 31 32  1  0  0  0  0
  7  8  1  0  0  0  0
 17 18  1  0  0  0  0
  3  4  1  0  0  0  0
  3  5  1  0  0  0  0
  3  6  1  0  0  0  0
 35 38  1  0  0  0  0
 35 39  1  0  0  0  0
 35 40  1  0  0  0  0
 11 14  1  0  0  0  0
 11 15  1  0  0  0  0
 11 16  1  0  0  0  0
 42 44  1  0  0  0  0
 42 45  1  0  0  0  0
 42 46  1  0  0  0  0
 21 27  1  0  0  0  0
 21 28  1  0  0  0  0
 32 37  1  0  0  0  0
  8 13  1  0  0  0  0
 18 26  1  0  0  0  0
 24 29  1  0  0  0  0
 24 30  1  0  0  0  0
 41 43  1  0  0  0  0
  7 12  1  0  0  0  0
 31 36  1  0  0  0  0
 17 25  1  0  0  0  0
M  END
$$$$

  -OEChem-05262214473D

 46 45  0     1  0  0  0  0  0999 V2000
   -0.0543    1.9736    3.8406 C   0  0  0  0  0  0  0  0  0  0  0  0
    0.6744    1.6099    4.7562 O   0  0  0  0  0  0  0  0  0  0  0  0
   -0.5599    3.3779    3.8160 C   0  0  0  0  0  0  0  0  0  0  0  0
   -1.5202    3.4885    4.3450 H   0  0  0  0  0  0  0  0  0  0  0  0
    0.1282    4.0814    4.3116 H   0  0  0  0  0  0  0  0  0  0  0  0
   -0.7317    3.7994    2.8126 H   0  0  0  0  0  0  0  0  0  0  0  0
   -0.4812    1.1968    2.7762 N   0  0  0  0  0  0  0  0  0  0  0  0
   -0.1106   -0.1834    2.6051 C   0  0  2  0  0  0  0  0  0  0  0  0
   -0.0696   -0.4775    1.1113 C   0  0  0  0  0  0  0  0  0  0  0  0
   -0.6805    0.1900    0.2792 O   0  0  0  0  0  0  0  0  0  0  0  0
   -1.0852   -1.1101    3.3150 C   0  0  0  0  0  0  0  0  0  0  0  0
   -1.0883    1.6241    2.0791 H   0  0  0  0  0  0  0  0  0  0  0  0
    0.8937   -0.2959    3.0277 H   0  0  0  0  0  0  0  0  0  0  0  0
   -2.0970   -1.0114    2.9051 H   0  0  0  0  0  0  0  0  0  0  0  0
   -0.7860   -2.1580    3.2078 H   0  0  0  0  0  0  0  0  0  0  0  0
   -1.1357   -0.8775    4.3842 H   0  0  0  0  0  0  0  0  0  0  0  0
    0.6950   -1.6003    0.8178 N   0  0  0  0  0  0  0  0  0  0  0  0
    0.8777   -2.0908   -0.5246 C   0  0  2  0  0  0  0  0  0  0  0  0
   -0.4843   -2.0791   -1.2074 C   0  0  0  0  0  0  0  0  0  0  0  0
   -1.5439   -2.1936   -0.5945 O   0  0  0  0  0  0  0  0  0  0  0  0
    1.4758   -3.4977   -0.5403 C   0  0  0  0  0  0  0  0  0  0  0  0
    2.9263   -3.5351   -0.0924 C   0  0  0  0  0  0  0  0  0  0  0  0
    3.7717   -2.7113   -0.4290 O   0  0  0  0  0  0  0  0  0  0  0  0
    3.1878   -4.6003    0.7431 N   0  0  0  0  0  0  0  0  0  0  0  0
    1.1810   -2.0803    1.5718 H   0  0  0  0  0  0  0  0  0  0  0  0
    1.5362   -1.3759   -1.0315 H   0  0  0  0  0  0  0  0  0  0  0  0
    0.9137   -4.1569    0.1333 H   0  0  0  0  0  0  0  0  0  0  0  0
    1.4107   -3.9324   -1.5460 H   0  0  0  0  0  0  0  0  0  0  0  0
    2.4562   -5.2555    0.9978 H   0  0  0  0  0  0  0  0  0  0  0  0
    4.1095   -4.7713    1.1326 H   0  0  0  0  0  0  0  0  0  0  0  0
   -0.3828   -1.8757   -2.5765 N   0  0  0  0  0  0  0  0  0  0  0  0
   -1.5458   -1.8010   -3.4279 C   0  0  2  0  0  0  0  0  0  0  0  0
   -2.4329   -0.6745   -2.9145 C   0  0  0  0  0  0  0  0  0  0  0  0
   -2.3848   -0.2560   -1.7597 O   0  0  0  0  0  0  0  0  0  0  0  0
   -2.3012   -3.1207   -3.4499 C   0  0  0  0  0  0  0  0  0  0  0  0
    0.5326   -1.7670   -3.0031 H   0  0  0  0  0  0  0  0  0  0  0  0
   -1.1866   -1.5546   -4.4330 H   0  0  0  0  0  0  0  0  0  0  0  0
   -2.6688   -3.3842   -2.4514 H   0  0  0  0  0  0  0  0  0  0  0  0
   -3.1670   -3.0712   -4.1184 H   0  0  0  0  0  0  0  0  0  0  0  0
   -1.6530   -3.9351   -3.7910 H   0  0  0  0  0  0  0  0  0  0  0  0
   -3.3146   -0.2207   -3.8855 N   0  0  0  0  0  0  0  0  0  0  0  0
   -4.2689    0.8352   -3.6399 C   0  0  0  0  0  0  0  0  0  0  0  0
   -3.2716   -0.6123   -4.8218 H   0  0  0  0  0  0  0  0  0  0  0  0
   -5.2247    0.3981   -3.3151 H   0  0  0  0  0  0  0  0  0  0  0  0
   -3.8844    1.5012   -2.8534 H   0  0  0  0  0  0  0  0  0  0  0  0
   -4.4245    1.4109   -4.5642 H   0  0  0  0  0  0  0  0  0  0  0  0
  1  3  1  0  0  0  0
  1  7  1  0  0  0  0
  1  2  2  0  0  0  0
 21 22  1  0  0  0  0
 22 24  1  0  0  0  0
 22 23  2  0  0  0  0
 32 33  1  0  0  0  0
 33 41  1  0  0  0  0
 33 34  2  0  0  0  0
  8  9  1  0  0  0  0
  9 17  1  0  0  0  0
  9 10  2  0  0  0  0
 18 19  1  0  0  0  0
 19 31  1  0  0  0  0
 19 20  2  0  0  0  0
 32 35  1  0  0  0  0
  8 11  1  0  0  0  0
 41 42  1  0  0  0  0
 18 21  1  0  0  0  0
 31 32  1  0  0  0  0
  7  8  1  0  0  0  0
 17 18  1  0  0  0  0
  3  4  1  0  0  0  0
  3  5  1  0  0  0  0
  3  6  1  0  0  0  0
 35 38  1  0  0  0  0
 35 39  1  0  0  0  0
 35 40  1  0  0  0  0
 11 14  1  0  0  0  0
 11 15  1  0  0  0  0
 11 16  1  0  0  0  0
 42 44  1  0  0  0  0
 42 45  1  0  0  0  0
 42 46  1  0  0  0  0
 21 27  1  0  0  0  0
 21 28  1  0  0  0  0
 32 37  1  0  0  0  0
  8 13  1  0  0  0  0
 18 26  1  0  0  0  0
 24 29  1  0  0  0  0
 24 30  1  0  0  0  0
 41 43  1  0  0  0  0
  7 12  1  0  0  0  0
 31 36  1  0  0  0  0
 17 25  1  0  0  0  0
M  END
$$$$

  -OEChem-05262214473D

 46 45  0     1  0  0  0  0  0999 V2000
   -0.0543    1.9736    3.8406 C   0  0  0  0  0  0  0  0  0  0  0  0
    0.6744    1.6099    4.7562 O   0  0  0  0  0  0  0  0  0  0  0  0
   -0.5599    3.3779    3.8160 C   0  0  0  0  0  0  0  0  0  0  0  0
   -1.5202    3.4885    4.3450 H   0  0  0  0  0  0  0  0  0  0  0  0
    0.1282    4.0814    4.3116 H   0  0  0  0  0  0  0  0  0  0  0  0
   -0.7317    3.7994    2.8126 H   0  0  0  0  0  0  0  0  0  0  0  0
   -0.4812    1.1968    2.7762 N   0  0  0  0  0  0  0  0  0  0  0  0
   -0.1106   -0.1834    2.6051 C   0  0  2  0  0  0  0  0  0  0  0  0
   -0.0696   -0.4775    1.1113 C   0  0  0  0  0  0  0  0  0  0  0  0
   -0.6805    0.1900    0.2792 O   0  0  0  0  0  0  0  0  0  0  0  0
   -1.0852   -1.1101    3.3150 C   0  0  0  0  0  0  0  0  0  0  0  0
   -1.0883    1.6241    2.0791 H   0  0  0  0  0  0  0  0  0  0  0  0
    0.8937   -0.2959    3.0277 H   0  0  0  0  0  0  0  0  0  0  0  0
   -2.0970   -1.0114    2.9051 H   0  0  0  0  0  0  0  0  0  0  0  0
   -0.7860   -2.1580    3.2078 H   0  0  0  0  0  0  0  0  0  0  0  0
   -1.1357   -0.8775    4.3842 H   0  0  0  0  0  0  0  0  0  0  0  0
    0.6950   -1.6003    0.8178 N   0  0  0  0  0  0  0  0  0  0  0  0
    0.8777   -2.0908   -0.5246 C   0  0  2  0  0  0  0  0  0  0  0  0
   -0.4843   -2.0791   -1.2074 C   0  0  0  0  0  0  0  0  0  0  0  0
   -1.5403   -1.9248   -0.5971 O   0  0  0  0  0  0  0  0  0  0  0  0
    1.4758   -3.4977   -0.5403 C   0  0  0  0  0  0  0  0  0  0  0  0
    2.9263   -3.5351   -0.0924 C   0  0  0  0  0  0  0  0  0  0  0  0
    3.7717   -2.7113   -0.4290 O   0  0  0  0  0  0  0  0  0  0  0  0
    3.1878   -4.6003    0.7431 N   0  0  0  0  0  0  0  0  0  0  0  0
    1.1810   -2.0803    1.5718 H   0  0  0  0  0  0  0  0  0  0  0  0
    1.5362   -1.3759   -1.0315 H   0  0  0  0  0  0  0  0  0  0  0  0
    0.9137   -4.1569    0.1333 H   0  0  0  0  0  0  0  0  0  0  0  0
    1.4107   -3.9324   -1.5460 H   0  0  0  0  0  0  0  0  0  0  0  0
    2.4562   -5.2555    0.9978 H   0  0  0  0  0  0  0  0  0  0  0  0
    4.1095   -4.7713    1.1326 H   0  0  0  0  0  0  0  0  0  0  0  0
   -0.3814   -2.2110   -2.5851 N   0  0  0  0  0  0  0  0  0  0  0  0
   -1.5411   -2.2005   -3.4442 C   0  0  2  0  0  0  0  0  0  0  0  0
   -2.2837   -0.8906   -3.2159 C   0  0  0  0  0  0  0  0  0  0  0  0
   -2.1694   -0.2249   -2.1888 O   0  0  0  0  0  0  0  0  0  0  0  0
   -2.4444   -3.3926   -3.1689 C   0  0  0  0  0  0  0  0  0  0  0  0
    0.5337   -2.3111   -3.0146 H   0  0  0  0  0  0  0  0  0  0  0  0
   -1.1715   -2.2367   -4.4748 H   0  0  0  0  0  0  0  0  0  0  0  0
   -2.8244   -3.3735   -2.1409 H   0  0  0  0  0  0  0  0  0  0  0  0
   -3.3090   -3.3987   -3.8408 H   0  0  0  0  0  0  0  0  0  0  0  0
   -1.9003   -4.3335   -3.3047 H   0  0  0  0  0  0  0  0  0  0  0  0
   -3.1220   -0.5744   -4.2758 N   0  0  0  0  0  0  0  0  0  0  0  0
   -3.9437    0.6133   -4.2924 C   0  0  0  0  0  0  0  0  0  0  0  0
   -3.1393   -1.1741   -5.0954 H   0  0  0  0  0  0  0  0  0  0  0  0
   -4.9384    0.3773   -3.8864 H   0  0  0  0  0  0  0  0  0  0  0  0
   -3.4724    1.3938   -3.6770 H   0  0  0  0  0  0  0  0  0  0  0  0
   -4.0460    0.9738   -5.3266 H   0  0  0  0  0  0  0  0  0  0  0  0
  1  3  1  0  0  0  0
  1  7  1  0  0  0  0
  1  2  2  0  0  0  0
 21 22  1  0  0  0  0
 22 24  1  0  0  0  0
 22 23  2  0  0  0  0
 32 33  1  0  0  0  0
 33 41  1  0  0  0  0
 33 34  2  0  0  0  0
  8  9  1  0  0  0  0
  9 17  1  0  0  0  0
  9 10  2  0  0  0  0
 18 19  1  0  0  0  0
 19 31  1  0  0  0  0
 19 20  2  0  0  0  0
 32 35  1  0  0  0  0
  8 11  1  0  0  0  0
 41 42  1  0  0  0  0
 18 21  1  0  0  0  0
 31 32  1  0  0  0  0
  7  8  1  0  0  0  0
 17 18  1  0  0  0  0
  3  4  1  0  0  0  0
  3  5  1  0  0  0  0
  3  6  1  0  0  0  0
 35 38  1  0  0  0  0
 35 39  1  0  0  0  0
 35 40  1  0  0  0  0
 11 14  1  0  0  0  0
 11 15  1  0  0  0  0
 11 16  1  0  0  0  0
 42 44  1  0  0  0  0
 42 45  1  0  0  0  0
 42 46  1  0  0  0  0
 21 27  1  0  0  0  0
 21 28  1  0  0  0  0
 32 37  1  0  0  0  0
  8 13  1  0  0  0  0
 18 26  1  0  0  0  0
 24 29  1  0  0  0  0
 24 30  1  0  0  0  0
 41 43  1  0  0  0  0
  7 12  1  0  0  0  0
 31 36  1  0  0  0  0
 17 25  1  0  0  0  0
M  END
$$$$

  -OEChem-05262214473D

 46 45  0     1  0  0  0  0  0999 V2000
   -0.0543    1.9736    3.8406 C   0  0  0  0  0  0  0  0  0  0  0  0
    0.6744    1.6099    4.7562 O   0  0  0  0  0  0  0  0  0  0  0  0
   -0.5599    3.3779    3.8160 C   0  0  0  0  0  0  0  0  0  0  0  0
   -1.5202    3.4885    4.3450 H   0  0  0  0  0  0  0  0  0  0  0  0
    0.1282    4.0814    4.3116 H   0  0  0  0  0  0  0  0  0  0  0  0
   -0.7317    3.7994    2.8126 H   0  0  0  0  0  0  0  0  0  0  0  0
   -0.4812    1.1968    2.7762 N   0  0  0  0  0  0  0  0  0  0  0  0
   -0.1106   -0.1834    2.6051 C   0  0  2  0  0  0  0  0  0  0  0  0
   -0.0696   -0.4775    1.1113 C   0  0  0  0  0  0  0  0  0  0  0  0
   -0.6805    0.1900    0.2792 O   0  0  0  0  0  0  0  0  0  0  0  0
   -1.0852   -1.1101    3.3150 C   0  0  0  0  0  0  0  0  0  0  0  0
   -1.0883    1.6241    2.0791 H   0  0  0  0  0  0  0  0  0  0  0  0
    0.8937   -0.2959    3.0277 H   0  0  0  0  0  0  0  0  0  0  0  0
   -2.0970   -1.0114    2.9051 H   0  0  0  0  0  0  0  0  0  0  0  0
   -0.7860   -2.1580    3.2078 H   0  0  0  0  0  0  0  0  0  0  0  0
   -1.1357   -0.8775    4.3842 H   0  0  0  0  0  0  0  0  0  0  0  0
    0.6950   -1.6003    0.8178 N   0  0  0  0  0  0  0  0  0  0  0  0
    0.8777   -2.0908   -0.5246 C   0  0  2  0  0  0  0  0  0  0  0  0
   -0.3729   -1.7340   -1.3184 C   0  0  0  0  0  0  0  0  0  0  0  0
   -1.3113   -1.0977   -0.8430 O   0  0  0  0  0  0  0  0  0  0  0  0
    1.1200   -3.6001   -0.5513 C   0  0  0  0  0  0  0  0  0  0  0  0
    2.4717   -3.9981    0.0149 C   0  0  0  0  0  0  0  0  0  0  0  0
    3.5171   -3.3968   -0.2131 O   0  0  0  0  0  0  0  0  0  0  0  0
    2.3921   -5.1131    0.8223 N   0  0  0  0  0  0  0  0  0  0  0  0
    1.1810   -2.0803    1.5718 H   0  0  0  0  0  0  0  0  0  0  0  0
    1.7322   -1.5461   -0.9427 H   0  0  0  0  0  0  0  0  0  0  0  0
    0.3567   -4.1178    0.0433 H   0  0  0  0  0  0  0  0  0  0  0  0
    1.0456   -3.9838   -1.5769 H   0  0  0  0  0  0  0  0  0  0  0  0
    1.5045   -5.5766    0.9857 H   0  0  0  0  0  0  0  0  0  0  0  0
    3.2060   -5.5111    1.2800 H   0  0  0  0  0  0  0  0  0  0  0  0
   -0.2989   -2.1652   -2.6354 N   0  0  0  0  0  0  0  0  0  0  0  0
   -1.3583   -1.9162   -3.5835 C   0  0  2  0  0  0  0  0  0  0  0  0
   -1.5762   -0.4109   -3.6606 C   0  0  0  0  0  0  0  0  0  0  0  0
   -1.2466    0.3614   -2.7628 O   0  0  0  0  0  0  0  0  0  0  0  0
   -2.6392   -2.6310   -3.1822 C   0  0  0  0  0  0  0  0  0  0  0  0
    0.5246   -2.6660   -2.9559 H   0  0  0  0  0  0  0  0  0  0  0  0
   -1.0078   -2.2853   -4.5535 H   0  0  0  0  0  0  0  0  0  0  0  0
   -3.0056   -2.2745   -2.2127 H   0  0  0  0  0  0  0  0  0  0  0  0
   -3.4335   -2.4644   -3.9173 H   0  0  0  0  0  0  0  0  0  0  0  0
   -2.4732   -3.7105   -3.0982 H   0  0  0  0  0  0  0  0  0  0  0  0
   -2.2210   -0.0362   -4.8310 N   0  0  0  0  0  0  0  0  0  0  0  0
   -2.5525    1.3366   -5.1334 C   0  0  0  0  0  0  0  0  0  0  0  0
   -2.4402   -0.7414   -5.5285 H   0  0  0  0  0  0  0  0  0  0  0  0
   -3.5723    1.5539   -4.7830 H   0  0  0  0  0  0  0  0  0  0  0  0
   -1.8408    2.0055   -4.6273 H   0  0  0  0  0  0  0  0  0  0  0  0
   -2.4965    1.4964   -6.2203 H   0  0  0  0  0  0  0  0  0  0  0  0
  1  3  1  0  0  0  0
  1  7  1  0  0  0  0
  1  2  2  0  0  0  0
 21 22  1  0  0  0  0
 22 24  1  0  0  0  0
 22 23  2  0  0  0  0
 32 33  1  0  0  0  0
 33 41  1  0  0  0  0
 33 34  2  0  0  0  0
  8  9  1  0  0  0  0
  9 17  1  0  0  0  0
  9 10  2  0  0  0  0
 18 19  1  0  0  0  0
 19 31  1  0  0  0  0
 19 20  2  0  0  0  0
 32 35  1  0  0  0  0
  8 11  1  0  0  0  0
 41 42  1  0  0  0  0
 18 21  1  0  0  0  0
 31 32  1  0  0  0  0
  7  8  1  0  0  0  0
 17 18  1  0  0  0  0
  3  4  1  0  0  0  0
  3  5  1  0  0  0  0
  3  6  1  0  0  0  0
 35 38  1  0  0  0  0
 35 39  1  0  0  0  0
 35 40  1  0  0  0  0
 11 14  1  0  0  0  0
 11 15  1  0  0  0  0
 11 16  1  0  0  0  0
 42 44  1  0  0  0  0
 42 45  1  0  0  0  0
 42 46  1  0  0  0  0
 21 27  1  0  0  0  0
 21 28  1  0  0  0  0
 32 37  1  0  0  0  0
  8 13  1  0  0  0  0
 18 26  1  0  0  0  0
 24 29  1  0  0  0  0
 24 30  1  0  0  0  0
 41 43  1  0  0  0  0
  7 12  1  0  0  0  0
 31 36  1  0  0  0  0
 17 25  1  0  0  0  0
M  END
$$$$

  -OEChem-05262214473D

 46 45  0     1  0  0  0  0  0999 V2000
   -0.0543    1.9736    3.8406 C   0  0  0  0  0  0  0  0  0  0  0  0
    0.6744    1.6099    4.7562 O   0  0  0  0  0  0  0  0  0  0  0  0
   -0.5599    3.3779    3.8160 C   0  0  0  0  0  0  0  0  0  0  0  0
   -1.5202    3.4885    4.3450 H   0  0  0  0  0  0  0  0  0  0  0  0
    0.1282    4.0814    4.3116 H   0  0  0  0  0  0  0  0  0  0  0  0
   -0.7317    3.7994    2.8126 H   0  0  0  0  0  0  0  0  0  0  0  0
   -0.4812    1.1968    2.7762 N   0  0  0  0  0  0  0  0  0  0  0  0
   -0.1106   -0.1834    2.6051 C   0  0  2  0  0  0  0  0  0  0  0  0
   -0.0696   -0.4775    1.1113 C   0  0  0  0  0  0  0  0  0  0  0  0
   -0.6805    0.1900    0.2792 O   0  0  0  0  0  0  0  0  0  0  0  0
   -1.0852   -1.1101    3.3150 C   0  0  0  0  0  0  0  0  0  0  0  0
   -1.0883    1.6241    2.0791 H   0  0  0  0  0  0  0  0  0  0  0  0
    0.8937   -0.2959    3.0277 H   0  0  0  0  0  0  0  0  0  0  0  0
   -2.0970   -1.0114    2.9051 H   0  0  0  0  0  0  0  0  0  0  0  0
   -0.7860   -2.1580    3.2078 H   0  0  0  0  0  0  0  0  0  0  0  0
   -1.1357   -0.8775    4.3842 H   0  0  0  0  0  0  0  0  0  0  0  0
    0.6950   -1.6003    0.8178 N   0  0  0  0  0  0  0  0  0  0  0  0
    0.8777   -2.0908   -0.5246 C   0  0  2  0  0  0  0  0  0  0  0  0
   -0.3729   -1.7340   -1.3184 C   0  0  0  0  0  0  0  0  0  0  0  0
   -1.1835   -0.8865   -0.9495 O   0  0  0  0  0  0  0  0  0  0  0  0
    1.1200   -3.6001   -0.5513 C   0  0  0  0  0  0  0  0  0  0  0  0
    2.4717   -3.9981    0.0149 C   0  0  0  0  0  0  0  0  0  0  0  0
    3.5171   -3.3968   -0.2131 O   0  0  0  0  0  0  0  0  0  0  0  0
    2.3921   -5.1131    0.8223 N   0  0  0  0  0  0  0  0  0  0  0  0
    1.1810   -2.0803    1.5718 H   0  0  0  0  0  0  0  0  0  0  0  0
    1.7322   -1.5461   -0.9427 H   0  0  0  0  0  0  0  0  0  0  0  0
    0.3567   -4.1178    0.0433 H   0  0  0  0  0  0  0  0  0  0  0  0
    1.0456   -3.9838   -1.5769 H   0  0  0  0  0  0  0  0  0  0  0  0
    1.5045   -5.5766    0.9857 H   0  0  0  0  0  0  0  0  0  0  0  0
    3.2060   -5.5111    1.2800 H   0  0  0  0  0  0  0  0  0  0  0  0
   -0.4541   -2.4361   -2.5127 N   0  0  0  0  0  0  0  0  0  0  0  0
   -1.5410   -2.2428   -3.4424 C   0  0  2  0  0  0  0  0  0  0  0  0
   -1.5691   -0.7712   -3.8336 C   0  0  0  0  0  0  0  0  0  0  0  0
   -1.0767    0.1166   -3.1406 O   0  0  0  0  0  0  0  0  0  0  0  0
   -2.8692   -2.6699   -2.8373 C   0  0  0  0  0  0  0  0  0  0  0  0
    0.2720   -3.1040   -2.7547 H   0  0  0  0  0  0  0  0  0  0  0  0
   -1.3146   -2.8516   -4.3246 H   0  0  0  0  0  0  0  0  0  0  0  0
   -3.1129   -2.0711   -1.9522 H   0  0  0  0  0  0  0  0  0  0  0  0
   -3.6886   -2.5494   -3.5537 H   0  0  0  0  0  0  0  0  0  0  0  0
   -2.8373   -3.7206   -2.5293 H   0  0  0  0  0  0  0  0  0  0  0  0
   -2.2467   -0.5612   -5.0265 N   0  0  0  0  0  0  0  0  0  0  0  0
   -2.4211    0.7513   -5.6034 C   0  0  0  0  0  0  0  0  0  0  0  0
   -2.6064   -1.3579   -5.5438 H   0  0  0  0  0  0  0  0  0  0  0  0
   -3.3754    1.1787   -5.2618 H   0  0  0  0  0  0  0  0  0  0  0  0
   -1.5935    1.4035   -5.2876 H   0  0  0  0  0  0  0  0  0  0  0  0
   -2.4270    0.6717   -6.7005 H   0  0  0  0  0  0  0  0  0  0  0  0
  1  3  1  0  0  0  0
  1  7  1  0  0  0  0
  1  2  2  0  0  0  0
 21 22  1  0  0  0  0
 22 24  1  0  0  0  0
 22 23  2  0  0  0  0
 32 33  1  0  0  0  0
 33 41  1  0  0  0  0
 33 34  2  0  0  0  0
  8  9  1  0  0  0  0
  9 17  1  0  0  0  0
  9 10  2  0  0  0  0
 18 19  1  0  0  0  0
 19 31  1  0  0  0  0
 19 20  2  0  0  0  0
 32 35  1  0  0  0  0
  8 11  1  0  0  0  0
 41 42  1  0  0  0  0
 18 21  1  0  0  0  0
 31 32  1  0  0  0  0
  7  8  1  0  0  0  0
 17 18  1  0  0  0  0
  3  4  1  0  0  0  0
  3  5  1  0  0  0  0
  3  6  1  0  0  0  0
 35 38  1  0  0  0  0
 35 39  1  0  0  0  0
 35 40  1  0  0  0  0
 11 14  1  0  0  0  0
 11 15  1  0  0  0  0
 11 16  1  0  0  0  0
 42 44  1  0  0  0  0
 42 45  1  0  0  0  0
 42 46  1  0  0  0  0
 21 27  1  0  0  0  0
 21 28  1  0  0  0  0
 32 37  1  0  0  0  0
  8 13  1  0  0  0  0
 18 26  1  0  0  0  0
 24 29  1  0  0  0  0
 24 30  1  0  0  0  0
 41 43  1  0  0  0  0
  7 12  1  0  0  0  0
 31 36  1  0  0  0  0
 17 25  1  0  0  0  0
M  END
$$$$

  -OEChem-05262214473D

 46 45  0     1  0  0  0  0  0999 V2000
   -0.0543    1.9736    3.8406 C   0  0  0  0  0  0  0  0  0  0  0  0
    0.6744    1.6099    4.7562 O   0  0  0  0  0  0  0  0  0  0  0  0
   -0.5599    3.3779    3.8160 C   0  0  0  0  0  0  0  0  0  0  0  0
   -1.5202    3.4885    4.3450 H   0  0  0  0  0  0  0  0  0  0  0  0
    0.1282    4.0814    4.3116 H   0  0  0  0  0  0  0  0  0  0  0  0
   -0.7317    3.7994    2.8126 H   0  0  0  0  0  0  0  0  0  0  0  0
   -0.4812    1.1968    2.7762 N   0  0  0  0  0  0  0  0  0  0  0  0
   -0.1106   -0.1834    2.6051 C   0  0  2  0  0  0  0  0  0  0  0  0
   -0.0696   -0.4775    1.1113 C   0  0  0  0  0  0  0  0  0  0  0  0
   -0.6805    0.1900    0.2792 O   0  0  0  0  0  0  0  0  0  0  0  0
   -1.0852   -1.1101    3.3150 C   0  0  0  0  0  0  0  0  0  0  0  0
   -1.0883    1.6241    2.0791 H   0  0  0  0  0  0  0  0  0  0  0  0
    0.8937   -0.2959    3.0277 H   0  0  0  0  0  0  0  0  0  0  0  0
   -2.0970   -1.0114    2.9051 H   0  0  0  0  0  0  0  0  0  0  0  0
   -0.7860   -2.1580    3.2078 H   0  0  0  0  0  0  0  0  0  0  0  0
   -1.1357   -0.8775    4.3842 H   0  0  0  0  0  0  0  0  0  0  0  0
    0.6950   -1.6003    0.8178 N   0  0  0  0  0  0  0  0  0  0  0  0
    0.8777   -2.0908   -0.5246 C   0  0  2  0  0  0  0  0  0  0  0  0
   -0.3729   -1.7340   -1.3184 C   0  0  0  0  0  0  0  0  0  0  0  0
   -1.0380   -0.7224   -1.1049 O   0  0  0  0  0  0  0  0  0  0  0  0
    1.1200   -3.6001   -0.5513 C   0  0  0  0  0  0  0  0  0  0  0  0
    2.4717   -3.9981    0.0149 C   0  0  0  0  0  0  0  0  0  0  0  0
    3.5171   -3.3968   -0.2131 O   0  0  0  0  0  0  0  0  0  0  0  0
    2.3921   -5.1131    0.8223 N   0  0  0  0  0  0  0  0  0  0  0  0
    1.1810   -2.0803    1.5718 H   0  0  0  0  0  0  0  0  0  0  0  0
    1.7322   -1.5461   -0.9427 H   0  0  0  0  0  0  0  0  0  0  0  0
    0.3567   -4.1178    0.0433 H   0  0  0  0  0  0  0  0  0  0  0  0
    1.0456   -3.9838   -1.5769 H   0  0  0  0  0  0  0  0  0  0  0  0
    1.5045   -5.5766    0.9857 H   0  0  0  0  0  0  0  0  0  0  0  0
    3.2060   -5.5111    1.2800 H   0  0  0  0  0  0  0  0  0  0  0  0
   -0.6330   -2.6508   -2.3272 N   0  0  0  0  0  0  0  0  0  0  0  0
   -1.7530   -2.5037   -3.2257 C   0  0  2  0  0  0  0  0  0  0  0  0
   -1.6214   -1.1569   -3.9246 C   0  0  0  0  0  0  0  0  0  0  0  0
   -0.9684   -0.2230   -3.4638 O   0  0  0  0  0  0  0  0  0  0  0  0
   -3.0757   -2.6032   -2.4820 C   0  0  0  0  0  0  0  0  0  0  0  0
   -0.0189   -3.4502   -2.4520 H   0  0  0  0  0  0  0  0  0  0  0  0
   -1.6736   -3.3085   -3.9645 H   0  0  0  0  0  0  0  0  0  0  0  0
   -3.1734   -1.8048   -1.7373 H   0  0  0  0  0  0  0  0  0  0  0  0
   -3.9244   -2.5199   -3.1689 H   0  0  0  0  0  0  0  0  0  0  0  0
   -3.1558   -3.5603   -1.9555 H   0  0  0  0  0  0  0  0  0  0  0  0
   -2.3542   -1.1063   -5.1022 N   0  0  0  0  0  0  0  0  0  0  0  0
   -2.4016    0.0684   -5.9411 C   0  0  0  0  0  0  0  0  0  0  0  0
   -2.8510   -1.9343   -5.4176 H   0  0  0  0  0  0  0  0  0  0  0  0
   -3.2648    0.6881   -5.6566 H   0  0  0  0  0  0  0  0  0  0  0  0
   -1.4758    0.6483   -5.8124 H   0  0  0  0  0  0  0  0  0  0  0  0
   -2.5001   -0.2364   -6.9934 H   0  0  0  0  0  0  0  0  0  0  0  0
  1  3  1  0  0  0  0
  1  7  1  0  0  0  0
  1  2  2  0  0  0  0
 21 22  1  0  0  0  0
 22 24  1  0  0  0  0
 22 23  2  0  0  0  0
 32 33  1  0  0  0  0
 33 41  1  0  0  0  0
 33 34  2  0  0  0  0
  8  9  1  0  0  0  0
  9 17  1  0  0  0  0
  9 10  2  0  0  0  0
 18 19  1  0  0  0  0
 19 31  1  0  0  0  0
 19 20  2  0  0  0  0
 32 35  1  0  0  0  0
  8 11  1  0  0  0  0
 41 42  1  0  0  0  0
 18 21  1  0  0  0  0
 31 32  1  0  0  0  0
  7  8  1  0  0  0  0
 17 18  1  0  0  0  0
  3  4  1  0  0  0  0
  3  5  1  0  0  0  0
  3  6  1  0  0  0  0
 35 38  1  0  0  0  0
 35 39  1  0  0  0  0
 35 40  1  0  0  0  0
 11 14  1  0  0  0  0
 11 15  1  0  0  0  0
 11 16  1  0  0  0  0
 42 44  1  0  0  0  0
 42 45  1  0  0  0  0
 42 46  1  0  0  0  0
 21 27  1  0  0  0  0
 21 28  1  0  0  0  0
 32 37  1  0  0  0  0
  8 13  1  0  0  0  0
 18 26  1  0  0  0  0
 24 29  1  0  0  0  0
 24 30  1  0  0  0  0
 41 43  1  0  0  0  0
  7 12  1  0  0  0  0
 31 36  1  0  0  0  0
 17 25  1  0  0  0  0
M  END
$$$$

  -OEChem-05262214473D

 46 45  0     1  0  0  0  0  0999 V2000
   -0.0543    1.9736    3.8406 C   0  0  0  0  0  0  0  0  0  0  0  0
    0.6744    1.6099    4.7562 O   0  0  0  0  0  0  0  0  0  0  0  0
   -0.5599    3.3779    3.8160 C   0  0  0  0  0  0  0  0  0  0  0  0
   -1.5202    3.4885    4.3450 H   0  0  0  0  0  0  0  0  0  0  0  0
    0.1282    4.0814    4.3116 H   0  0  0  0  0  0  0  0  0  0  0  0
   -0.7317    3.7994    2.8126 H   0  0  0  0  0  0  0  0  0  0  0  0
   -0.4812    1.1968    2.7762 N   0  0  0  0  0  0  0  0  0  0  0  0
   -0.1106   -0.1834    2.6051 C   0  0  2  0  0  0  0  0  0  0  0  0
   -0.0696   -0.4775    1.1113 C   0  0  0  0  0  0  0  0  0  0  0  0
   -0.6805    0.1900    0.2792 O   0  0  0  0  0  0  0  0  0  0  0  0
   -1.0852   -1.1101    3.3150 C   0  0  0  0  0  0  0  0  0  0  0  0
   -1.0883    1.6241    2.0791 H   0  0  0  0  0  0  0  0  0  0  0  0
    0.8937   -0.2959    3.0277 H   0  0  0  0  0  0  0  0  0  0  0  0
   -2.0970   -1.0114    2.9051 H   0  0  0  0  0  0  0  0  0  0  0  0
   -0.7860   -2.1580    3.2078 H   0  0  0  0  0  0  0  0  0  0  0  0
   -1.1357   -0.8775    4.3842 H   0  0  0  0  0  0  0  0  0  0  0  0
    0.6950   -1.6003    0.8178 N   0  0  0  0  0  0  0  0  0  0  0  0
    0.8777   -2.0908   -0.5246 C   0  0  2  0  0  0  0  0  0  0  0  0
   -0.3729   -1.7340   -1.3184 C   0  0  0  0  0  0  0  0  0  0  0  0
   -0.8848   -0.6164   -1.2987 O   0  0  0  0  0  0  0  0  0  0  0  0
    1.1200   -3.6001   -0.5513 C   0  0  0  0  0  0  0  0  0  0  0  0
    2.4717   -3.9981    0.0149 C   0  0  0  0  0  0  0  0  0  0  0  0
    3.5171   -3.3968   -0.2131 O   0  0  0  0  0  0  0  0  0  0  0  0
    2.3921   -5.1131    0.8223 N   0  0  0  0  0  0  0  0  0  0  0  0
    1.1810   -2.0803    1.5718 H   0  0  0  0  0  0  0  0  0  0  0  0
    1.7322   -1.5461   -0.9427 H   0  0  0  0  0  0  0  0  0  0  0  0
    0.3567   -4.1178    0.0433 H   0  0  0  0  0  0  0  0  0  0  0  0
    1.0456   -3.9838   -1.5769 H   0  0  0  0  0  0  0  0  0  0  0  0
    1.5045   -5.5766    0.9857 H   0  0  0  0  0  0  0  0  0  0  0  0
    3.2060   -5.5111    1.2800 H   0  0  0  0  0  0  0  0  0  0  0  0
   -0.8236   -2.7946   -2.0917 N   0  0  0  0  0  0  0  0  0  0  0  0
   -1.9798   -2.6810   -2.9481 C   0  0  2  0  0  0  0  0  0  0  0  0
   -1.7294   -1.5418   -3.9275 C   0  0  0  0  0  0  0  0  0  0  0  0
   -0.9292   -0.6343   -3.7104 O   0  0  0  0  0  0  0  0  0  0  0  0
   -3.2447   -2.4354   -2.1404 C   0  0  0  0  0  0  0  0  0  0  0  0
   -0.3283   -3.6811   -2.0685 H   0  0  0  0  0  0  0  0  0  0  0  0
   -2.0600   -3.6251   -3.4979 H   0  0  0  0  0  0  0  0  0  0  0  0
   -3.1828   -1.4938   -1.5827 H   0  0  0  0  0  0  0  0  0  0  0  0
   -4.1248   -2.3779   -2.7893 H   0  0  0  0  0  0  0  0  0  0  0  0
   -3.4071   -3.2407   -1.4160 H   0  0  0  0  0  0  0  0  0  0  0  0
   -2.5361   -1.6345   -5.0530 N   0  0  0  0  0  0  0  0  0  0  0  0
   -2.4954   -0.6656   -6.1233 C   0  0  0  0  0  0  0  0  0  0  0  0
   -3.1573   -2.4312   -5.1584 H   0  0  0  0  0  0  0  0  0  0  0  0
   -3.2480    0.1155   -5.9404 H   0  0  0  0  0  0  0  0  0  0  0  0
   -1.4957   -0.2085   -6.1661 H   0  0  0  0  0  0  0  0  0  0  0  0
   -2.7110   -1.1658   -7.0790 H   0  0  0  0  0  0  0  0  0  0  0  0
  1  3  1  0  0  0  0
  1  7  1  0  0  0  0
  1  2  2  0  0  0  0
 21 22  1  0  0  0  0
 22 24  1  0  0  0  0
 22 23  2  0  0  0  0
 32 33  1  0  0  0  0
 33 41  1  0  0  0  0
 33 34  2  0  0  0  0
  8  9  1  0  0  0  0
  9 17  1  0  0  0  0
  9 10  2  0  0  0  0
 18 19  1  0  0  0  0
 19 31  1  0  0  0  0
 19 20  2  0  0  0  0
 32 35  1  0  0  0  0
  8 11  1  0  0  0  0
 41 42  1  0  0  0  0
 18 21  1  0  0  0  0
 31 32  1  0  0  0  0
  7  8  1  0  0  0  0
 17 18  1  0  0  0  0
  3  4  1  0  0  0  0
  3  5  1  0  0  0  0
  3  6  1  0  0  0  0
 35 38  1  0  0  0  0
 35 39  1  0  0  0  0
 35 40  1  0  0  0  0
 11 14  1  0  0  0  0
 11 15  1  0  0  0  0
 11 16  1  0  0  0  0
 42 44  1  0  0  0  0
 42 45  1  0  0  0  0
 42 46  1  0  0  0  0
 21 27  1  0  0  0  0
 21 28  1  0  0  0  0
 32 37  1  0  0  0  0
  8 13  1  0  0  0  0
 18 26  1  0  0  0  0
 24 29  1  0  0  0  0
 24 30  1  0  0  0  0
 41 43  1  0  0  0  0
  7 12  1  0  0  0  0
 31 36  1  0  0  0  0
 17 25  1  0  0  0  0
M  END
$$$$

  -OEChem-05262214473D

 46 45  0     1  0  0  0  0  0999 V2000
   -0.0543    1.9736    3.8406 C   0  0  0  0  0  0  0  0  0  0  0  0
    0.6744    1.6099    4.7562 O   0  0  0  0  0  0  0  0  0  0  0  0
   -0.5599    3.3779    3.8160 C   0  0  0  0  0  0  0  0  0  0  0  0
   -1.5202    3.4885    4.3450 H   0  0  0  0  0  0  0  0  0  0  0  0
    0.1282    4.0814    4.3116 H   0  0  0  0  0  0  0  0  0  0  0  0
   -0.7317    3.7994    2.8126 H   0  0  0  0  0  0  0  0  0  0  0  0
   -0.4812    1.1968    2.7762 N   0  0  0  0  0  0  0  0  0  0  0  0
   -0.1106   -0.1834    2.6051 C   0  0  2  0  0  0  0  0  0  0  0  0
   -0.0696   -0.4775    1.1113 C   0  0  0  0  0  0  0  0  0  0  0  0
   -0.6805    0.1900    0.2792 O   0  0  0  0  0  0  0  0  0  0  0  0
   -1.0852   -1.1101    3.3150 C   0  0  0  0  0  0  0  0  0  0  0  0
   -1.0883    1.6241    2.0791 H   0  0  0  0  0  0  0  0  0  0  0  0
    0.8937   -0.2959    3.0277 H   0  0  0  0  0  0  0  0  0  0  0  0
   -2.0970   -1.0114    2.9051 H   0  0  0  0  0  0  0  0  0  0  0  0
   -0.7860   -2.1580    3.2078 H   0  0  0  0  0  0  0  0  0  0  0  0
   -1.1357   -0.8775    4.3842 H   0  0  0  0  0  0  0  0  0  0  0  0
    0.6950   -1.6003    0.8178 N   0  0  0  0  0  0  0  0  0  0  0  0
    0.8777   -2.0908   -0.5246 C   0  0  2  0  0  0  0  0  0  0  0  0
   -0.3729   -1.7340   -1.3184 C   0  0  0  0  0  0  0  0  0  0  0  0
   -0.7342   -0.5759   -1.5176 O   0  0  0  0  0  0  0  0  0  0  0  0
    1.1200   -3.6001   -0.5513 C   0  0  0  0  0  0  0  0  0  0  0  0
    2.4717   -3.9981    0.0149 C   0  0  0  0  0  0  0  0  0  0  0  0
    3.5171   -3.3968   -0.2131 O   0  0  0  0  0  0  0  0  0  0  0  0
    2.3921   -5.1131    0.8223 N   0  0  0  0  0  0  0  0  0  0  0  0
    1.1810   -2.0803    1.5718 H   0  0  0  0  0  0  0  0  0  0  0  0
    1.7322   -1.5461   -0.9427 H   0  0  0  0  0  0  0  0  0  0  0  0
    0.3567   -4.1178    0.0433 H   0  0  0  0  0  0  0  0  0  0  0  0
    1.0456   -3.9838   -1.5769 H   0  0  0  0  0  0  0  0  0  0  0  0
    1.5045   -5.5766    0.9857 H   0  0  0  0  0  0  0  0  0  0  0  0
    3.2060   -5.5111    1.2800 H   0  0  0  0  0  0  0  0  0  0  0  0
   -1.0128   -2.8578   -1.8220 N   0  0  0  0  0  0  0  0  0  0  0  0
   -2.2059   -2.7627   -2.6286 C   0  0  2  0  0  0  0  0  0  0  0  0
   -1.8859   -1.8996   -3.8419 C   0  0  0  0  0  0  0  0  0  0  0  0
   -0.9618   -1.0893   -3.8636 O   0  0  0  0  0  0  0  0  0  0  0  0
   -3.3645   -2.1779   -1.8359 C   0  0  0  0  0  0  0  0  0  0  0  0
   -0.6350   -3.7809   -1.6302 H   0  0  0  0  0  0  0  0  0  0  0  0
   -2.4478   -3.7796   -2.9566 H   0  0  0  0  0  0  0  0  0  0  0  0
   -3.1406   -1.1593   -1.4988 H   0  0  0  0  0  0  0  0  0  0  0  0
   -4.2763   -2.1330   -2.4406 H   0  0  0  0  0  0  0  0  0  0  0  0
   -3.5740   -2.7835   -0.9475 H   0  0  0  0  0  0  0  0  0  0  0  0
   -2.7801   -2.1097   -4.8823 N   0  0  0  0  0  0  0  0  0  0  0  0
   -2.6959   -1.4007   -6.1377 C   0  0  0  0  0  0  0  0  0  0  0  0
   -3.5045   -2.8149   -4.7838 H   0  0  0  0  0  0  0  0  0  0  0  0
   -3.3263   -0.5003   -6.0939 H   0  0  0  0  0  0  0  0  0  0  0  0
   -1.6520   -1.1085   -6.3245 H   0  0  0  0  0  0  0  0  0  0  0  0
   -3.0452   -2.0533   -6.9514 H   0  0  0  0  0  0  0  0  0  0  0  0
  1  3  1  0  0  0  0
  1  7  1  0  0  0  0
  1  2  2  0  0  0  0
 21 22  1  0  0  0  0
 22 24  1  0  0  0  0
 22 23  2  0  0  0  0
 32 33  1  0  0  0  0
 33 41  1  0  0  0  0
 33 34  2  0  0  0  0
  8  9  1  0  0  0  0
  9 17  1  0  0  0  0
  9 10  2  0  0  0  0
 18 19  1  0  0  0  0
 19 31  1  0  0  0  0
 19 20  2  0  0  0  0
 32 35  1  0  0  0  0
  8 11  1  0  0  0  0
 41 42  1  0  0  0  0
 18 21  1  0  0  0  0
 31 32  1  0  0  0  0
  7  8  1  0  0  0  0
 17 18  1  0  0  0  0
  3  4  1  0  0  0  0
  3  5  1  0  0  0  0
  3  6  1  0  0  0  0
 35 38  1  0  0  0  0
 35 39  1  0  0  0  0
 35 40  1  0  0  0  0
 11 14  1  0  0  0  0
 11 15  1  0  0  0  0
 11 16  1  0  0  0  0
 42 44  1  0  0  0  0
 42 45  1  0  0  0  0
 42 46  1  0  0  0  0
 21 27  1  0  0  0  0
 21 28  1  0  0  0  0
 32 37  1  0  0  0  0
  8 13  1  0  0  0  0
 18 26  1  0  0  0  0
 24 29  1  0  0  0  0
 24 30  1  0  0  0  0
 41 43  1  0  0  0  0
  7 12  1  0  0  0  0
 31 36  1  0  0  0  0
 17 25  1  0  0  0  0
M  END
$$$$

  -OEChem-05262214473D

 46 45  0     1  0  0  0  0  0999 V2000
   -0.0543    1.9736    3.8406 C   0  0  0  0  0  0  0  0  0  0  0  0
    0.6744    1.6099    4.7562 O   0  0  0  0  0  0  0  0  0  0  0  0
   -0.5599    3.3779    3.8160 C   0  0  0  0  0  0  0  0  0  0  0  0
   -1.5202    3.4885    4.3450 H   0  0  0  0  0  0  0  0  0  0  0  0
    0.1282    4.0814    4.3116 H   0  0  0  0  0  0  0  0  0  0  0  0
   -0.7317    3.7994    2.8126 H   0  0  0  0  0  0  0  0  0  0  0  0
   -0.4812    1.1968    2.7762 N   0  0  0  0  0  0  0  0  0  0  0  0
   -0.1106   -0.1834    2.6051 C   0  0  2  0  0  0  0  0  0  0  0  0
   -0.0696   -0.4775    1.1113 C   0  0  0  0  0  0  0  0  0  0  0  0
   -0.6805    0.1900    0.2792 O   0  0  0  0  0  0  0  0  0  0  0  0
   -1.0852   -1.1101    3.3150 C   0  0  0  0  0  0  0  0  0  0  0  0
   -1.0883    1.6241    2.0791 H   0  0  0  0  0  0  0  0  0  0  0  0
    0.8937   -0.2959    3.0277 H   0  0  0  0  0  0  0  0  0  0  0  0
   -2.0970   -1.0114    2.9051 H   0  0  0  0  0  0  0  0  0  0  0  0
   -0.7860   -2.1580    3.2078 H   0  0  0  0  0  0  0  0  0  0  0  0
   -1.1357   -0.8775    4.3842 H   0  0  0  0  0  0  0  0  0  0  0  0
    0.6950   -1.6003    0.8178 N   0  0  0  0  0  0  0  0  0  0  0  0
    0.8777   -2.0908   -0.5246 C   0  0  2  0  0  0  0  0  0  0  0  0
   -0.3729   -1.7340   -1.3184 C   0  0  0  0  0  0  0  0  0  0  0  0
   -0.5966   -0.6037   -1.7469 O   0  0  0  0  0  0  0  0  0  0  0  0
    1.1200   -3.6001   -0.5513 C   0  0  0  0  0  0  0  0  0  0  0  0
    2.4717   -3.9981    0.0149 C   0  0  0  0  0  0  0  0  0  0  0  0
    3.5171   -3.3968   -0.2131 O   0  0  0  0  0  0  0  0  0  0  0  0
    2.3921   -5.1131    0.8223 N   0  0  0  0  0  0  0  0  0  0  0  0
    1.1810   -2.0803    1.5718 H   0  0  0  0  0  0  0  0  0  0  0  0
    1.7322   -1.5461   -0.9427 H   0  0  0  0  0  0  0  0  0  0  0  0
    0.3567   -4.1178    0.0433 H   0  0  0  0  0  0  0  0  0  0  0  0
    1.0456   -3.9838   -1.5769 H   0  0  0  0  0  0  0  0  0  0  0  0
    1.5045   -5.5766    0.9857 H   0  0  0  0  0  0  0  0  0  0  0  0
    3.2060   -5.5111    1.2800 H   0  0  0  0  0  0  0  0  0  0  0  0
   -1.1877   -2.8360   -1.5366 N   0  0  0  0  0  0  0  0  0  0  0  0
   -2.4160   -2.7433   -2.2888 C   0  0  2  0  0  0  0  0  0  0  0  0
   -2.0800   -2.2060   -3.6737 C   0  0  0  0  0  0  0  0  0  0  0  0
   -1.0639   -1.5569   -3.9130 O   0  0  0  0  0  0  0  0  0  0  0  0
   -3.4271   -1.8484   -1.5892 C   0  0  0  0  0  0  0  0  0  0  0  0
   -0.9181   -3.7429   -1.1670 H   0  0  0  0  0  0  0  0  0  0  0  0
   -2.8103   -3.7615   -2.3773 H   0  0  0  0  0  0  0  0  0  0  0  0
   -3.0497   -0.8240   -1.4914 H   0  0  0  0  0  0  0  0  0  0  0  0
   -4.3685   -1.8019   -2.1466 H   0  0  0  0  0  0  0  0  0  0  0  0
   -3.6451   -2.2198   -0.5820 H   0  0  0  0  0  0  0  0  0  0  0  0
   -3.0694   -2.4995   -4.6016 N   0  0  0  0  0  0  0  0  0  0  0  0
   -2.9897   -2.0867   -5.9833 C   0  0  0  0  0  0  0  0  0  0  0  0
   -3.8689   -3.0591   -4.3195 H   0  0  0  0  0  0  0  0  0  0  0  0
   -3.4942   -1.1170   -6.1066 H   0  0  0  0  0  0  0  0  0  0  0  0
   -1.9339   -1.9905   -6.2768 H   0  0  0  0  0  0  0  0  0  0  0  0
   -3.4799   -2.8384   -6.6194 H   0  0  0  0  0  0  0  0  0  0  0  0
  1  3  1  0  0  0  0
  1  7  1  0  0  0  0
  1  2  2  0  0  0  0
 21 22  1  0  0  0  0
 22 24  1  0  0  0  0
 22 23  2  0  0  0  0
 32 33  1  0  0  0  0
 33 41  1  0  0  0  0
 33 34  2  0  0  0  0
  8  9  1  0  0  0  0
  9 17  1  0  0  0  0
  9 10  2  0  0  0  0
 18 19  1  0  0  0  0
 19 31  1  0  0  0  0
 19 20  2  0  0  0  0
 32 35  1  0  0  0  0
  8 11  1  0  0  0  0
 41 42  1  0  0  0  0
 18 21  1  0  0  0  0
 31 32  1  0  0  0  0
  7  8  1  0  0  0  0
 17 18  1  0  0  0  0
  3  4  1  0  0  0  0
  3  5  1  0  0  0  0
  3  6  1  0  0  0  0
 35 38  1  0  0  0  0
 35 39  1  0  0  0  0
 35 40  1  0  0  0  0
 11 14  1  0  0  0  0
 11 15  1  0  0  0  0
 11 16  1  0  0  0  0
 42 44  1  0  0  0  0
 42 45  1  0  0  0  0
 42 46  1  0  0  0  0
 21 27  1  0  0  0  0
 21 28  1  0  0  0  0
 32 37  1  0  0  0  0
  8 13  1  0  0  0  0
 18 26  1  0  0  0  0
 24 29  1  0  0  0  0
 24 30  1  0  0  0  0
 41 43  1  0  0  0  0
  7 12  1  0  0  0  0
 31 36  1  0  0  0  0
 17 25  1  0  0  0  0
M  END
$$$$

  -OEChem-05262214473D

 46 45  0     1  0  0  0  0  0999 V2000
   -0.0543    1.9736    3.8406 C   0  0  0  0  0  0  0  0  0  0  0  0
    0.6744    1.6099    4.7562 O   0  0  0  0  0  0  0  0  0  0  0  0
   -0.5599    3.3779    3.8160 C   0  0  0  0  0  0  0  0  0  0  0  0
   -1.5202    3.4885    4.3450 H   0  0  0  0  0  0  0  0  0  0  0  0
    0.1282    4.0814    4.3116 H   0  0  0  0  0  0  0  0  0  0  0  0
   -0.7317    3.7994    2.8126 H   0  0  0  0  0  0  0  0  0  0  0  0
   -0.4812    1.1968    2.7762 N   0  0  0  0  0  0  0  0  0  0  0  0
   -0.1106   -0.1834    2.6051 C   0  0  2  0  0  0  0  0  0  0  0  0
   -0.0696   -0.4775    1.1113 C   0  0  0  0  0  0  0  0  0  0  0  0
   -0.6805    0.1900    0.2792 O   0  0  0  0  0  0  0  0  0  0  0  0
   -1.0852   -1.1101    3.3150 C   0  0  0  0  0  0  0  0  0  0  0  0
   -1.0883    1.6241    2.0791 H   0  0  0  0  0  0  0  0  0  0  0  0
    0.8937   -0.2959    3.0277 H   0  0  0  0  0  0  0  0  0  0  0  0
   -2.0970   -1.0114    2.9051 H   0  0  0  0  0  0  0  0  0  0  0  0
   -0.7860   -2.1580    3.2078 H   0  0  0  0  0  0  0  0  0  0  0  0
   -1.1357   -0.8775    4.3842 H   0  0  0  0  0  0  0  0  0  0  0  0
    0.6950   -1.6003    0.8178 N   0  0  0  0  0  0  0  0  0  0  0  0
    0.8777   -2.0908   -0.5246 C   0  0  2  0  0  0  0  0  0  0  0  0
   -0.3729   -1.7340   -1.3184 C   0  0  0  0  0  0  0  0  0  0  0  0
   -0.4813   -0.6977   -1.9708 O   0  0  0  0  0  0  0  0  0  0  0  0
    1.1200   -3.6001   -0.5513 C   0  0  0  0  0  0  0  0  0  0  0  0
    2.4717   -3.9981    0.0149 C   0  0  0  0  0  0  0  0  0  0  0  0
    3.5171   -3.3968   -0.2131 O   0  0  0  0  0  0  0  0  0  0  0  0
    2.3921   -5.1131    0.8223 N   0  0  0  0  0  0  0  0  0  0  0  0
    1.1810   -2.0803    1.5718 H   0  0  0  0  0  0  0  0  0  0  0  0
    1.7322   -1.5461   -0.9427 H   0  0  0  0  0  0  0  0  0  0  0  0
    0.3567   -4.1178    0.0433 H   0  0  0  0  0  0  0  0  0  0  0  0
    1.0456   -3.9838   -1.5769 H   0  0  0  0  0  0  0  0  0  0  0  0
    1.5045   -5.5766    0.9857 H   0  0  0  0  0  0  0  0  0  0  0  0
    3.2060   -5.5111    1.2800 H   0  0  0  0  0  0  0  0  0  0  0  0
   -1.3364   -2.7308   -1.2550 N   0  0  0  0  0  0  0  0  0  0  0  0
   -2.5957   -2.6240   -1.9521 C   0  0  2  0  0  0  0  0  0  0  0  0
   -2.2986   -2.4399   -3.4344 C   0  0  0  0  0  0  0  0  0  0  0  0
   -1.2285   -2.0053   -3.8551 O   0  0  0  0  0  0  0  0  0  0  0  0
   -3.4282   -1.4693   -1.4171 C   0  0  0  0  0  0  0  0  0  0  0  0
   -1.1584   -3.5696   -0.7105 H   0  0  0  0  0  0  0  0  0  0  0  0
   -3.1229   -3.5721   -1.7997 H   0  0  0  0  0  0  0  0  0  0  0  0
   -2.9161   -0.5108   -1.5609 H   0  0  0  0  0  0  0  0  0  0  0  0
   -4.3950   -1.4073   -1.9274 H   0  0  0  0  0  0  0  0  0  0  0  0
   -3.6157   -1.5882   -0.3444 H   0  0  0  0  0  0  0  0  0  0  0  0
   -3.3845   -2.7774   -4.2302 N   0  0  0  0  0  0  0  0  0  0  0  0
   -3.3565   -2.6770   -5.6707 C   0  0  0  0  0  0  0  0  0  0  0  0
   -4.2256   -3.1471   -3.7971 H   0  0  0  0  0  0  0  0  0  0  0  0
   -3.7403   -1.6929   -5.9777 H   0  0  0  0  0  0  0  0  0  0  0  0
   -2.3222   -2.7943   -6.0263 H   0  0  0  0  0  0  0  0  0  0  0  0
   -3.9856   -3.4676   -6.1055 H   0  0  0  0  0  0  0  0  0  0  0  0
  1  3  1  0  0  0  0
  1  7  1  0  0  0  0
  1  2  2  0  0  0  0
 21 22  1  0  0  0  0
 22 24  1  0  0  0  0
 22 23  2  0  0  0  0
 32 33  1  0  0  0  0
 33 41  1  0  0  0  0
 33 34  2  0  0  0  0
  8  9  1  0  0  0  0
  9 17  1  0  0  0  0
  9 10  2  0  0  0  0
 18 19  1  0  0  0  0
 19 31  1  0  0  0  0
 19 20  2  0  0  0  0
 32 35  1  0  0  0  0
  8 11  1  0  0  0  0
 41 42  1  0  0  0  0
 18 21  1  0  0  0  0
 31 32  1  0  0  0  0
  7  8  1  0  0  0  0
 17 18  1  0  0  0  0
  3  4  1  0  0  0  0
  3  5  1  0  0  0  0
  3  6  1  0  0  0  0
 35 38  1  0  0  0  0
 35 39  1  0  0  0  0
 35 40  1  0  0  0  0
 11 14  1  0  0  0  0
 11 15  1  0  0  0  0
 11 16  1  0  0  0  0
 42 44  1  0  0  0  0
 42 45  1  0  0  0  0
 42 46  1  0  0  0  0
 21 27  1  0  0  0  0
 21 28  1  0  0  0  0
 32 37  1  0  0  0  0
  8 13  1  0  0  0  0
 18 26  1  0  0  0  0
 24 29  1  0  0  0  0
 24 30  1  0  0  0  0
 41 43  1  0  0  0  0
  7 12  1  0  0  0  0
 31 36  1  0  0  0  0
 17 25  1  0  0  0  0
M  END
$$$$

  -OEChem-05262214473D

 46 45  0     1  0  0  0  0  0999 V2000
   -0.0543    1.9736    3.8406 C   0  0  0  0  0  0  0  0  0  0  0  0
    0.6744    1.6099    4.7562 O   0  0  0  0  0  0  0  0  0  0  0  0
   -0.5599    3.3779    3.8160 C   0  0  0  0  0  0  0  0  0  0  0  0
   -1.5202    3.4885    4.3450 H   0  0  0  0  0  0  0  0  0  0  0  0
    0.1282    4.0814    4.3116 H   0  0  0  0  0  0  0  0  0  0  0  0
   -0.7317    3.7994    2.8126 H   0  0  0  0  0  0  0  0  0  0  0  0
   -0.4812    1.1968    2.7762 N   0  0  0  0  0  0  0  0  0  0  0  0
   -0.1106   -0.1834    2.6051 C   0  0  2  0  0  0  0  0  0  0  0  0
   -0.0696   -0.4775    1.1113 C   0  0  0  0  0  0  0  0  0  0  0  0
   -0.6805    0.1900    0.2792 O   0  0  0  0  0  0  0  0  0  0  0  0
   -1.0852   -1.1101    3.3150 C   0  0  0  0  0  0  0  0  0  0  0  0
   -1.0883    1.6241    2.0791 H   0  0  0  0  0  0  0  0  0  0  0  0
    0.8937   -0.2959    3.0277 H   0  0  0  0  0  0  0  0  0  0  0  0
   -2.0970   -1.0114    2.9051 H   0  0  0  0  0  0  0  0  0  0  0  0
   -0.7860   -2.1580    3.2078 H   0  0  0  0  0  0  0  0  0  0  0  0
   -1.1357   -0.8775    4.3842 H   0  0  0  0  0  0  0  0  0  0  0  0
    0.6950   -1.6003    0.8178 N   0  0  0  0  0  0  0  0  0  0  0  0
    0.8777   -2.0908   -0.5246 C   0  0  2  0  0  0  0  0  0  0  0  0
   -0.3729   -1.7340   -1.3184 C   0  0  0  0  0  0  0  0  0  0  0  0
   -0.3962   -0.8516   -2.1741 O   0  0  0  0  0  0  0  0  0  0  0  0
    1.1200   -3.6001   -0.5513 C   0  0  0  0  0  0  0  0  0  0  0  0
    2.4717   -3.9981    0.0149 C   0  0  0  0  0  0  0  0  0  0  0  0
    3.5171   -3.3968   -0.2131 O   0  0  0  0  0  0  0  0  0  0  0  0
    2.3921   -5.1131    0.8223 N   0  0  0  0  0  0  0  0  0  0  0  0
    1.1810   -2.0803    1.5718 H   0  0  0  0  0  0  0  0  0  0  0  0
    1.7322   -1.5461   -0.9427 H   0  0  0  0  0  0  0  0  0  0  0  0
    0.3567   -4.1178    0.0433 H   0  0  0  0  0  0  0  0  0  0  0  0
    1.0456   -3.9838   -1.5769 H   0  0  0  0  0  0  0  0  0  0  0  0
    1.5045   -5.5766    0.9857 H   0  0  0  0  0  0  0  0  0  0  0  0
    3.2060   -5.5111    1.2800 H   0  0  0  0  0  0  0  0  0  0  0  0
   -1.4489   -2.5492   -0.9963 N   0  0  0  0  0  0  0  0  0  0  0  0
   -2.7329   -2.4131   -1.6412 C   0  0  2  0  0  0  0  0  0  0  0  0
   -2.5269   -2.5856   -3.1403 C   0  0  0  0  0  0  0  0  0  0  0  0
   -1.4445   -2.4040   -3.6940 O   0  0  0  0  0  0  0  0  0  0  0  0
   -3.3677   -1.0663   -1.3313 C   0  0  0  0  0  0  0  0  0  0  0  0
   -1.3395   -3.2728   -0.2919 H   0  0  0  0  0  0  0  0  0  0  0  0
   -3.3644   -3.2243   -1.2630 H   0  0  0  0  0  0  0  0  0  0  0  0
   -2.7492   -0.2412   -1.7028 H   0  0  0  0  0  0  0  0  0  0  0  0
   -4.3542   -0.9759   -1.7978 H   0  0  0  0  0  0  0  0  0  0  0  0
   -3.4877   -0.9315   -0.2509 H   0  0  0  0  0  0  0  0  0  0  0  0
   -3.7038   -2.9244   -3.7932 N   0  0  0  0  0  0  0  0  0  0  0  0
   -3.7716   -3.1312   -5.2210 C   0  0  0  0  0  0  0  0  0  0  0  0
   -4.5504   -3.0731   -3.2521 H   0  0  0  0  0  0  0  0  0  0  0  0
   -4.0479   -2.1885   -5.7159 H   0  0  0  0  0  0  0  0  0  0  0  0
   -2.7905   -3.4650   -5.5900 H   0  0  0  0  0  0  0  0  0  0  0  0
   -4.5278   -3.8980   -5.4449 H   0  0  0  0  0  0  0  0  0  0  0  0
  1  3  1  0  0  0  0
  1  7  1  0  0  0  0
  1  2  2  0  0  0  0
 21 22  1  0  0  0  0
 22 24  1  0  0  0  0
 22 23  2  0  0  0  0
 32 33  1  0  0  0  0
 33 41  1  0  0  0  0
 33 34  2  0  0  0  0
  8  9  1  0  0  0  0
  9 17  1  0  0  0  0
  9 10  2  0  0  0  0
 18 19  1  0  0  0  0
 19 31  1  0  0  0  0
 19 20  2  0  0  0  0
 32 35  1  0  0  0  0
  8 11  1  0  0  0  0
 41 42  1  0  0  0  0
 18 21  1  0  0  0  0
 31 32  1  0  0  0  0
  7  8  1  0  0  0  0
 17 18  1  0  0  0  0
  3  4  1  0  0  0  0
  3  5  1  0  0  0  0
  3  6  1  0  0  0  0
 35 38  1  0  0  0  0
 35 39  1  0  0  0  0
 35 40  1  0  0  0  0
 11 14  1  0  0  0  0
 11 15  1  0  0  0  0
 11 16  1  0  0  0  0
 42 44  1  0  0  0  0
 42 45  1  0  0  0  0
 42 46  1  0  0  0  0
 21 27  1  0  0  0  0
 21 28  1  0  0  0  0
 32 37  1  0  0  0  0
  8 13  1  0  0  0  0
 18 26  1  0  0  0  0
 24 29  1  0  0  0  0
 24 30  1  0  0  0  0
 41 43  1  0  0  0  0
  7 12  1  0  0  0  0
 31 36  1  0  0  0  0
 17 25  1  0  0  0  0
M  END
$$$$

  -OEChem-05262214473D

 46 45  0     1  0  0  0  0  0999 V2000
   -0.0543    1.9736    3.8406 C   0  0  0  0  0  0  0  0  0  0  0  0
    0.6744    1.6099    4.7562 O   0  0  0  0  0  0  0  0  0  0  0  0
   -0.5599    3.3779    3.8160 C   0  0  0  0  0  0  0  0  0  0  0  0
   -1.5202    3.4885    4.3450 H   0  0  0  0  0  0  0  0  0  0  0  0
    0.1282    4.0814    4.3116 H   0  0  0  0  0  0  0  0  0  0  0  0
   -0.7317    3.7994    2.8126 H   0  0  0  0  0  0  0  0  0  0  0  0
   -0.4812    1.1968    2.7762 N   0  0  0  0  0  0  0  0  0  0  0  0
   -0.1106   -0.1834    2.6051 C   0  0  2  0  0  0  0  0  0  0  0  0
   -0.0696   -0.4775    1.1113 C   0  0  0  0  0  0  0  0  0  0  0  0
   -0.6805    0.1900    0.2792 O   0  0  0  0  0  0  0  0  0  0  0  0
   -1.0852   -1.1101    3.3150 C   0  0  0  0  0  0  0  0  0  0  0  0
   -1.0883    1.6241    2.0791 H   0  0  0  0  0  0  0  0  0  0  0  0
    0.8937   -0.2959    3.0277 H   0  0  0  0  0  0  0  0  0  0  0  0
   -2.0970   -1.0114    2.9051 H   0  0  0  0  0  0  0  0  0  0  0  0
   -0.7860   -2.1580    3.2078 H   0  0  0  0  0  0  0  0  0  0  0  0
   -1.1357   -0.8775    4.3842 H   0  0  0  0  0  0  0  0  0  0  0  0
    0.6950   -1.6003    0.8178 N   0  0  0  0  0  0  0  0  0  0  0  0
    0.8777   -2.0908   -0.5246 C   0  0  2  0  0  0  0  0  0  0  0  0
   -0.3729   -1.7340   -1.3184 C   0  0  0  0  0  0  0  0  0  0  0  0
   -0.3471   -1.0550   -2.3429 O   0  0  0  0  0  0  0  0  0  0  0  0
    1.1200   -3.6001   -0.5513 C   0  0  0  0  0  0  0  0  0  0  0  0
    2.4717   -3.9981    0.0149 C   0  0  0  0  0  0  0  0  0  0  0  0
    3.5171   -3.3968   -0.2131 O   0  0  0  0  0  0  0  0  0  0  0  0
    2.3921   -5.1131    0.8223 N   0  0  0  0  0  0  0  0  0  0  0  0
    1.1810   -2.0803    1.5718 H   0  0  0  0  0  0  0  0  0  0  0  0
    1.7322   -1.5461   -0.9427 H   0  0  0  0  0  0  0  0  0  0  0  0
    0.3567   -4.1178    0.0433 H   0  0  0  0  0  0  0  0  0  0  0  0
    1.0456   -3.9838   -1.5769 H   0  0  0  0  0  0  0  0  0  0  0  0
    1.5045   -5.5766    0.9857 H   0  0  0  0  0  0  0  0  0  0  0  0
    3.2060   -5.5111    1.2800 H   0  0  0  0  0  0  0  0  0  0  0  0
   -1.5173   -2.3038   -0.7782 N   0  0  0  0  0  0  0  0  0  0  0  0
   -2.8180   -2.1247   -1.3775 C   0  0  2  0  0  0  0  0  0  0  0  0
   -2.7492   -2.6331   -2.8115 C   0  0  0  0  0  0  0  0  0  0  0  0
   -1.6972   -2.7256   -3.4406 O   0  0  0  0  0  0  0  0  0  0  0  0
   -3.2497   -0.6671   -1.3377 C   0  0  0  0  0  0  0  0  0  0  0  0
   -1.4490   -2.8728    0.0604 H   0  0  0  0  0  0  0  0  0  0  0  0
   -3.5181   -2.7418   -0.8038 H   0  0  0  0  0  0  0  0  0  0  0  0
   -2.5601   -0.0333   -1.9072 H   0  0  0  0  0  0  0  0  0  0  0  0
   -4.2487   -0.5373   -1.7668 H   0  0  0  0  0  0  0  0  0  0  0  0
   -3.2699   -0.2946   -0.3078 H   0  0  0  0  0  0  0  0  0  0  0  0
   -4.0055   -2.9306   -3.3206 N   0  0  0  0  0  0  0  0  0  0  0  0
   -4.2064   -3.4185   -4.6651 C   0  0  0  0  0  0  0  0  0  0  0  0
   -4.8212   -2.8421   -2.7217 H   0  0  0  0  0  0  0  0  0  0  0  0
   -4.3959   -2.5701   -5.3391 H   0  0  0  0  0  0  0  0  0  0  0  0
   -3.3069   -3.9571   -4.9977 H   0  0  0  0  0  0  0  0  0  0  0  0
   -5.0695   -4.1003   -4.6824 H   0  0  0  0  0  0  0  0  0  0  0  0
  1  3  1  0  0  0  0
  1  7  1  0  0  0  0
  1  2  2  0  0  0  0
 21 22  1  0  0  0  0
 22 24  1  0  0  0  0
 22 23  2  0  0  0  0
 32 33  1  0  0  0  0
 33 41  1  0  0  0  0
 33 34  2  0  0  0  0
  8  9  1  0  0  0  0
  9 17  1  0  0  0  0
  9 10  2  0  0  0  0
 18 19  1  0  0  0  0
 19 31  1  0  0  0  0
 19 20  2  0  0  0  0
 32 35  1  0  0  0  0
  8 11  1  0  0  0  0
 41 42  1  0  0  0  0
 18 21  1  0  0  0  0
 31 32  1  0  0  0  0
  7  8  1  0  0  0  0
 17 18  1  0  0  0  0
  3  4  1  0  0  0  0
  3  5  1  0  0  0  0
  3  6  1  0  0  0  0
 35 38  1  0  0  0  0
 35 39  1  0  0  0  0
 35 40  1  0  0  0  0
 11 14  1  0  0  0  0
 11 15  1  0  0  0  0
 11 16  1  0  0  0  0
 42 44  1  0  0  0  0
 42 45  1  0  0  0  0
 42 46  1  0  0  0  0
 21 27  1  0  0  0  0
 21 28  1  0  0  0  0
 32 37  1  0  0  0  0
  8 13  1  0  0  0  0
 18 26  1  0  0  0  0
 24 29  1  0  0  0  0
 24 30  1  0  0  0  0
 41 43  1  0  0  0  0
  7 12  1  0  0  0  0
 31 36  1  0  0  0  0
 17 25  1  0  0  0  0
M  END
$$$$

  -OEChem-05262214473D

 46 45  0     1  0  0  0  0  0999 V2000
   -0.0543    1.9736    3.8406 C   0  0  0  0  0  0  0  0  0  0  0  0
    0.6744    1.6099    4.7562 O   0  0  0  0  0  0  0  0  0  0  0  0
   -0.5599    3.3779    3.8160 C   0  0  0  0  0  0  0  0  0  0  0  0
   -1.5202    3.4885    4.3450 H   0  0  0  0  0  0  0  0  0  0  0  0
    0.1282    4.0814    4.3116 H   0  0  0  0  0  0  0  0  0  0  0  0
   -0.7317    3.7994    2.8126 H   0  0  0  0  0  0  0  0  0  0  0  0
   -0.4812    1.1968    2.7762 N   0  0  0  0  0  0  0  0  0  0  0  0
   -0.1106   -0.1834    2.6051 C   0  0  2  0  0  0  0  0  0  0  0  0
   -0.0696   -0.4775    1.1113 C   0  0  0  0  0  0  0  0  0  0  0  0
   -0.6805    0.1900    0.2792 O   0  0  0  0  0  0  0  0  0  0  0  0
   -1.0852   -1.1101    3.3150 C   0  0  0  0  0  0  0  0  0  0  0  0
   -1.0883    1.6241    2.0791 H   0  0  0  0  0  0  0  0  0  0  0  0
    0.8937   -0.2959    3.0277 H   0  0  0  0  0  0  0  0  0  0  0  0
   -2.0970   -1.0114    2.9051 H   0  0  0  0  0  0  0  0  0  0  0  0
   -0.7860   -2.1580    3.2078 H   0  0  0  0  0  0  0  0  0  0  0  0
   -1.1357   -0.8775    4.3842 H   0  0  0  0  0  0  0  0  0  0  0  0
    0.6950   -1.6003    0.8178 N   0  0  0  0  0  0  0  0  0  0  0  0
    0.8777   -2.0908   -0.5246 C   0  0  2  0  0  0  0  0  0  0  0  0
   -0.3729   -1.7340   -1.3184 C   0  0  0  0  0  0  0  0  0  0  0  0
   -0.3373   -1.2939   -2.4657 O   0  0  0  0  0  0  0  0  0  0  0  0
    1.1200   -3.6001   -0.5513 C   0  0  0  0  0  0  0  0  0  0  0  0
    2.4717   -3.9981    0.0149 C   0  0  0  0  0  0  0  0  0  0  0  0
    3.5171   -3.3968   -0.2131 O   0  0  0  0  0  0  0  0  0  0  0  0
    2.3921   -5.1131    0.8223 N   0  0  0  0  0  0  0  0  0  0  0  0
    1.1810   -2.0803    1.5718 H   0  0  0  0  0  0  0  0  0  0  0  0
    1.7322   -1.5461   -0.9427 H   0  0  0  0  0  0  0  0  0  0  0  0
    0.3567   -4.1178    0.0433 H   0  0  0  0  0  0  0  0  0  0  0  0
    1.0456   -3.9838   -1.5769 H   0  0  0  0  0  0  0  0  0  0  0  0
    1.5045   -5.5766    0.9857 H   0  0  0  0  0  0  0  0  0  0  0  0
    3.2060   -5.5111    1.2800 H   0  0  0  0  0  0  0  0  0  0  0  0
   -1.5370   -2.0111   -0.6156 N   0  0  0  0  0  0  0  0  0  0  0  0
   -2.8454   -1.7787   -1.1788 C   0  0  2  0  0  0  0  0  0  0  0  0
   -2.9504   -2.5792   -2.4703 C   0  0  0  0  0  0  0  0  0  0  0  0
   -1.9692   -2.9485   -3.1122 O   0  0  0  0  0  0  0  0  0  0  0  0
   -3.0823   -0.2987   -1.4359 C   0  0  0  0  0  0  0  0  0  0  0  0
   -1.4795   -2.3968    0.3224 H   0  0  0  0  0  0  0  0  0  0  0  0
   -3.5738   -2.1575   -0.4535 H   0  0  0  0  0  0  0  0  0  0  0  0
   -2.3619    0.0986   -2.1602 H   0  0  0  0  0  0  0  0  0  0  0  0
   -4.0858   -0.1212   -1.8365 H   0  0  0  0  0  0  0  0  0  0  0  0
   -2.9770    0.2792   -0.5113 H   0  0  0  0  0  0  0  0  0  0  0  0
   -4.2692   -2.7954   -2.8445 N   0  0  0  0  0  0  0  0  0  0  0  0
   -4.6315   -3.5193   -4.0406 C   0  0  0  0  0  0  0  0  0  0  0  0
   -5.0194   -2.4697   -2.2421 H   0  0  0  0  0  0  0  0  0  0  0  0
   -4.7608   -2.8118   -4.8730 H   0  0  0  0  0  0  0  0  0  0  0  0
   -3.8361   -4.2370   -4.2898 H   0  0  0  0  0  0  0  0  0  0  0  0
   -5.5738   -4.0607   -3.8702 H   0  0  0  0  0  0  0  0  0  0  0  0
  1  3  1  0  0  0  0
  1  7  1  0  0  0  0
  1  2  2  0  0  0  0
 21 22  1  0  0  0  0
 22 24  1  0  0  0  0
 22 23  2  0  0  0  0
 32 33  1  0  0  0  0
 33 41  1  0  0  0  0
 33 34  2  0  0  0  0
  8  9  1  0  0  0  0
  9 17  1  0  0  0  0
  9 10  2  0  0  0  0
 18 19  1  0  0  0  0
 19 31  1  0  0  0  0
 19 20  2  0  0  0  0
 32 35  1  0  0  0  0
  8 11  1  0  0  0  0
 41 42  1  0  0  0  0
 18 21  1  0  0  0  0
 31 32  1  0  0  0  0
  7  8  1  0  0  0  0
 17 18  1  0  0  0  0
  3  4  1  0  0  0  0
  3  5  1  0  0  0  0
  3  6  1  0  0  0  0
 35 38  1  0  0  0  0
 35 39  1  0  0  0  0
 35 40  1  0  0  0  0
 11 14  1  0  0  0  0
 11 15  1  0  0  0  0
 11 16  1  0  0  0  0
 42 44  1  0  0  0  0
 42 45  1  0  0  0  0
 42 46  1  0  0  0  0
 21 27  1  0  0  0  0
 21 28  1  0  0  0  0
 32 37  1  0  0  0  0
  8 13  1  0  0  0  0
 18 26  1  0  0  0  0
 24 29  1  0  0  0  0
 24 30  1  0  0  0  0
 41 43  1  0  0  0  0
  7 12  1  0  0  0  0
 31 36  1  0  0  0  0
 17 25  1  0  0  0  0
M  END
$$$$

  -OEChem-05262214473D

 46 45  0     1  0  0  0  0  0999 V2000
   -0.0543    1.9736    3.8406 C   0  0  0  0  0  0  0  0  0  0  0  0
    0.6744    1.6099    4.7562 O   0  0  0  0  0  0  0  0  0  0  0  0
   -0.5599    3.3779    3.8160 C   0  0  0  0  0  0  0  0  0  0  0  0
   -1.5202    3.4885    4.3450 H   0  0  0  0  0  0  0  0  0  0  0  0
    0.1282    4.0814    4.3116 H   0  0  0  0  0  0  0  0  0  0  0  0
   -0.7317    3.7994    2.8126 H   0  0  0  0  0  0  0  0  0  0  0  0
   -0.4812    1.1968    2.7762 N   0  0  0  0  0  0  0  0  0  0  0  0
   -0.1106   -0.1834    2.6051 C   0  0  2  0  0  0  0  0  0  0  0  0
   -0.0696   -0.4775    1.1113 C   0  0  0  0  0  0  0  0  0  0  0  0
   -0.6805    0.1900    0.2792 O   0  0  0  0  0  0  0  0  0  0  0  0
   -1.0852   -1.1101    3.3150 C   0  0  0  0  0  0  0  0  0  0  0  0
   -1.0883    1.6241    2.0791 H   0  0  0  0  0  0  0  0  0  0  0  0
    0.8937   -0.2959    3.0277 H   0  0  0  0  0  0  0  0  0  0  0  0
   -2.0970   -1.0114    2.9051 H   0  0  0  0  0  0  0  0  0  0  0  0
   -0.7860   -2.1580    3.2078 H   0  0  0  0  0  0  0  0  0  0  0  0
   -1.1357   -0.8775    4.3842 H   0  0  0  0  0  0  0  0  0  0  0  0
    0.6950   -1.6003    0.8178 N   0  0  0  0  0  0  0  0  0  0  0  0
    0.8777   -2.0908   -0.5246 C   0  0  2  0  0  0  0  0  0  0  0  0
   -0.3729   -1.7340   -1.3184 C   0  0  0  0  0  0  0  0  0  0  0  0
   -0.3674   -1.5520   -2.5342 O   0  0  0  0  0  0  0  0  0  0  0  0
    1.1200   -3.6001   -0.5513 C   0  0  0  0  0  0  0  0  0  0  0  0
    2.4717   -3.9981    0.0149 C   0  0  0  0  0  0  0  0  0  0  0  0
    3.5171   -3.3968   -0.2131 O   0  0  0  0  0  0  0  0  0  0  0  0
    2.3921   -5.1131    0.8223 N   0  0  0  0  0  0  0  0  0  0  0  0
    1.1810   -2.0803    1.5718 H   0  0  0  0  0  0  0  0  0  0  0  0
    1.7322   -1.5461   -0.9427 H   0  0  0  0  0  0  0  0  0  0  0  0
    0.3567   -4.1178    0.0433 H   0  0  0  0  0  0  0  0  0  0  0  0
    1.0456   -3.9838   -1.5769 H   0  0  0  0  0  0  0  0  0  0  0  0
    1.5045   -5.5766    0.9857 H   0  0  0  0  0  0  0  0  0  0  0  0
    3.2060   -5.5111    1.2800 H   0  0  0  0  0  0  0  0  0  0  0  0
   -1.5068   -1.6912   -0.5194 N   0  0  0  0  0  0  0  0  0  0  0  0
   -2.8132   -1.3986   -1.0588 C   0  0  2  0  0  0  0  0  0  0  0  0
   -3.1167   -2.4274   -2.1400 C   0  0  0  0  0  0  0  0  0  0  0  0
   -2.2421   -3.0573   -2.7311 O   0  0  0  0  0  0  0  0  0  0  0  0
   -2.8768    0.0137   -1.6191 C   0  0  0  0  0  0  0  0  0  0  0  0
   -1.4288   -1.8772    0.4761 H   0  0  0  0  0  0  0  0  0  0  0  0
   -3.5275   -1.5111   -0.2359 H   0  0  0  0  0  0  0  0  0  0  0  0
   -2.1679    0.1454   -2.4447 H   0  0  0  0  0  0  0  0  0  0  0  0
   -3.8765    0.2439   -2.0020 H   0  0  0  0  0  0  0  0  0  0  0  0
   -2.6291    0.7506   -0.8475 H   0  0  0  0  0  0  0  0  0  0  0  0
   -4.4768   -2.5282   -2.3973 N   0  0  0  0  0  0  0  0  0  0  0  0
   -5.0179   -3.4266   -3.3903 C   0  0  0  0  0  0  0  0  0  0  0  0
   -5.1316   -1.9814   -1.8459 H   0  0  0  0  0  0  0  0  0  0  0  0
   -5.1175   -2.8970   -4.3493 H   0  0  0  0  0  0  0  0  0  0  0  0
   -4.3421   -4.2856   -3.5145 H   0  0  0  0  0  0  0  0  0  0  0  0
   -6.0063   -3.7819   -3.0634 H   0  0  0  0  0  0  0  0  0  0  0  0
  1  3  1  0  0  0  0
  1  7  1  0  0  0  0
  1  2  2  0  0  0  0
 21 22  1  0  0  0  0
 22 24  1  0  0  0  0
 22 23  2  0  0  0  0
 32 33  1  0  0  0  0
 33 41  1  0  0  0  0
 33 34  2  0  0  0  0
  8  9  1  0  0  0  0
  9 17  1  0  0  0  0
  9 10  2  0  0  0  0
 18 19  1  0  0  0  0
 19 31  1  0  0  0  0
 19 20  2  0  0  0  0
 32 35  1  0  0  0  0
  8 11  1  0  0  0  0
 41 42  1  0  0  0  0
 18 21  1  0  0  0  0
 31 32  1  0  0  0  0
  7  8  1  0  0  0  0
 17 18  1  0  0  0  0
  3  4  1  0  0  0  0
  3  5  1  0  0  0  0
  3  6  1  0  0  0  0
 35 38  1  0  0  0  0
 35 39  1  0  0  0  0
 35 40  1  0  0  0  0
 11 14  1  0  0  0  0
 11 15  1  0  0  0  0
 11 16  1  0  0  0  0
 42 44  1  0  0  0  0
 42 45  1  0  0  0  0
 42 46  1  0  0  0  0
 21 27  1  0  0  0  0
 21 28  1  0  0  0  0
 32 37  1  0  0  0  0
  8 13  1  0  0  0  0
 18 26  1  0  0  0  0
 24 29  1  0  0  0  0
 24 30  1  0  0  0  0
 41 43  1  0  0  0  0
  7 12  1  0  0  0  0
 31 36  1  0  0  0  0
 17 25  1  0  0  0  0
M  END
$$$$

  -OEChem-05262214473D

 46 45  0     1  0  0  0  0  0999 V2000
   -0.0543    1.9736    3.8406 C   0  0  0  0  0  0  0  0  0  0  0  0
    0.6744    1.6099    4.7562 O   0  0  0  0  0  0  0  0  0  0  0  0
   -0.5599    3.3779    3.8160 C   0  0  0  0  0  0  0  0  0  0  0  0
   -1.5202    3.4885    4.3450 H   0  0  0  0  0  0  0  0  0  0  0  0
    0.1282    4.0814    4.3116 H   0  0  0  0  0  0  0  0  0  0  0  0
   -0.7317    3.7994    2.8126 H   0  0  0  0  0  0  0  0  0  0  0  0
   -0.4812    1.1968    2.7762 N   0  0  0  0  0  0  0  0  0  0  0  0
   -0.1106   -0.1834    2.6051 C   0  0  2  0  0  0  0  0  0  0  0  0
   -0.0696   -0.4775    1.1113 C   0  0  0  0  0  0  0  0  0  0  0  0
   -0.6805    0.1900    0.2792 O   0  0  0  0  0  0  0  0  0  0  0  0
   -1.0852   -1.1101    3.3150 C   0  0  0  0  0  0  0  0  0  0  0  0
   -1.0883    1.6241    2.0791 H   0  0  0  0  0  0  0  0  0  0  0  0
    0.8937   -0.2959    3.0277 H   0  0  0  0  0  0  0  0  0  0  0  0
   -2.0970   -1.0114    2.9051 H   0  0  0  0  0  0  0  0  0  0  0  0
   -0.7860   -2.1580    3.2078 H   0  0  0  0  0  0  0  0  0  0  0  0
   -1.1357   -0.8775    4.3842 H   0  0  0  0  0  0  0  0  0  0  0  0
    0.6950   -1.6003    0.8178 N   0  0  0  0  0  0  0  0  0  0  0  0
    0.8777   -2.0908   -0.5246 C   0  0  2  0  0  0  0  0  0  0  0  0
   -0.3729   -1.7340   -1.3184 C   0  0  0  0  0  0  0  0  0  0  0  0
   -0.4356   -1.8119   -2.5437 O   0  0  0  0  0  0  0  0  0  0  0  0
    1.1200   -3.6001   -0.5513 C   0  0  0  0  0  0  0  0  0  0  0  0
    2.4717   -3.9981    0.0149 C   0  0  0  0  0  0  0  0  0  0  0  0
    3.5171   -3.3968   -0.2131 O   0  0  0  0  0  0  0  0  0  0  0  0
    2.3921   -5.1131    0.8223 N   0  0  0  0  0  0  0  0  0  0  0  0
    1.1810   -2.0803    1.5718 H   0  0  0  0  0  0  0  0  0  0  0  0
    1.7322   -1.5461   -0.9427 H   0  0  0  0  0  0  0  0  0  0  0  0
    0.3567   -4.1178    0.0433 H   0  0  0  0  0  0  0  0  0  0  0  0
    1.0456   -3.9838   -1.5769 H   0  0  0  0  0  0  0  0  0  0  0  0
    1.5045   -5.5766    0.9857 H   0  0  0  0  0  0  0  0  0  0  0  0
    3.2060   -5.5111    1.2800 H   0  0  0  0  0  0  0  0  0  0  0  0
   -1.4286   -1.3658   -0.4963 N   0  0  0  0  0  0  0  0  0  0  0  0
   -2.7235   -1.0103   -1.0255 C   0  0  2  0  0  0  0  0  0  0  0  0
   -3.2370   -2.1882   -1.8431 C   0  0  0  0  0  0  0  0  0  0  0  0
   -2.4973   -3.0446   -2.3234 O   0  0  0  0  0  0  0  0  0  0  0  0
   -2.6474    0.2488   -1.8749 C   0  0  0  0  0  0  0  0  0  0  0  0
   -1.3005   -1.3495    0.5112 H   0  0  0  0  0  0  0  0  0  0  0  0
   -3.3825   -0.8468   -0.1659 H   0  0  0  0  0  0  0  0  0  0  0  0
   -1.9915    0.1041   -2.7412 H   0  0  0  0  0  0  0  0  0  0  0  0
   -3.6352    0.5333   -2.2522 H   0  0  0  0  0  0  0  0  0  0  0  0
   -2.2498    1.0877   -1.2935 H   0  0  0  0  0  0  0  0  0  0  0  0
   -4.6142   -2.1470   -2.0096 N   0  0  0  0  0  0  0  0  0  0  0  0
   -5.3392   -3.1469   -2.7584 C   0  0  0  0  0  0  0  0  0  0  0  0
   -5.1500   -1.4104   -1.5601 H   0  0  0  0  0  0  0  0  0  0  0  0
   -5.4418   -2.8200   -3.8037 H   0  0  0  0  0  0  0  0  0  0  0  0
   -4.7905   -4.0996   -2.7245 H   0  0  0  0  0  0  0  0  0  0  0  0
   -6.3376   -3.2828   -2.3172 H   0  0  0  0  0  0  0  0  0  0  0  0
  1  3  1  0  0  0  0
  1  7  1  0  0  0  0
  1  2  2  0  0  0  0
 21 22  1  0  0  0  0
 22 24  1  0  0  0  0
 22 23  2  0  0  0  0
 32 33  1  0  0  0  0
 33 41  1  0  0  0  0
 33 34  2  0  0  0  0
  8  9  1  0  0  0  0
  9 17  1  0  0  0  0
  9 10  2  0  0  0  0
 18 19  1  0  0  0  0
 19 31  1  0  0  0  0
 19 20  2  0  0  0  0
 32 35  1  0  0  0  0
  8 11  1  0  0  0  0
 41 42  1  0  0  0  0
 18 21  1  0  0  0  0
 31 32  1  0  0  0  0
  7  8  1  0  0  0  0
 17 18  1  0  0  0  0
  3  4  1  0  0  0  0
  3  5  1  0  0  0  0
  3  6  1  0  0  0  0
 35 38  1  0  0  0  0
 35 39  1  0  0  0  0
 35 40  1  0  0  0  0
 11 14  1  0  0  0  0
 11 15  1  0  0  0  0
 11 16  1  0  0  0  0
 42 44  1  0  0  0  0
 42 45  1  0  0  0  0
 42 46  1  0  0  0  0
 21 27  1  0  0  0  0
 21 28  1  0  0  0  0
 32 37  1  0  0  0  0
  8 13  1  0  0  0  0
 18 26  1  0  0  0  0
 24 29  1  0  0  0  0
 24 30  1  0  0  0  0
 41 43  1  0  0  0  0
  7 12  1  0  0  0  0
 31 36  1  0  0  0  0
 17 25  1  0  0  0  0
M  END
$$$$

  -OEChem-05262214473D

 46 45  0     1  0  0  0  0  0999 V2000
   -0.0543    1.9736    3.8406 C   0  0  0  0  0  0  0  0  0  0  0  0
    0.6744    1.6099    4.7562 O   0  0  0  0  0  0  0  0  0  0  0  0
   -0.5599    3.3779    3.8160 C   0  0  0  0  0  0  0  0  0  0  0  0
   -1.5202    3.4885    4.3450 H   0  0  0  0  0  0  0  0  0  0  0  0
    0.1282    4.0814    4.3116 H   0  0  0  0  0  0  0  0  0  0  0  0
   -0.7317    3.7994    2.8126 H   0  0  0  0  0  0  0  0  0  0  0  0
   -0.4812    1.1968    2.7762 N   0  0  0  0  0  0  0  0  0  0  0  0
   -0.1106   -0.1834    2.6051 C   0  0  2  0  0  0  0  0  0  0  0  0
   -0.0696   -0.4775    1.1113 C   0  0  0  0  0  0  0  0  0  0  0  0
   -0.6805    0.1900    0.2792 O   0  0  0  0  0  0  0  0  0  0  0  0
   -1.0852   -1.1101    3.3150 C   0  0  0  0  0  0  0  0  0  0  0  0
   -1.0883    1.6241    2.0791 H   0  0  0  0  0  0  0  0  0  0  0  0
    0.8937   -0.2959    3.0277 H   0  0  0  0  0  0  0  0  0  0  0  0
   -2.0970   -1.0114    2.9051 H   0  0  0  0  0  0  0  0  0  0  0  0
   -0.7860   -2.1580    3.2078 H   0  0  0  0  0  0  0  0  0  0  0  0
   -1.1357   -0.8775    4.3842 H   0  0  0  0  0  0  0  0  0  0  0  0
    0.6950   -1.6003    0.8178 N   0  0  0  0  0  0  0  0  0  0  0  0
    0.8777   -2.0908   -0.5246 C   0  0  2  0  0  0  0  0  0  0  0  0
   -0.3729   -1.7340   -1.3184 C   0  0  0  0  0  0  0  0  0  0  0  0
   -0.5370   -2.0558   -2.4935 O   0  0  0  0  0  0  0  0  0  0  0  0
    1.1200   -3.6001   -0.5513 C   0  0  0  0  0  0  0  0  0  0  0  0
    2.4717   -3.9981    0.0149 C   0  0  0  0  0  0  0  0  0  0  0  0
    3.5171   -3.3968   -0.2131 O   0  0  0  0  0  0  0  0  0  0  0  0
    2.3921   -5.1131    0.8223 N   0  0  0  0  0  0  0  0  0  0  0  0
    1.1810   -2.0803    1.5718 H   0  0  0  0  0  0  0  0  0  0  0  0
    1.7322   -1.5461   -0.9427 H   0  0  0  0  0  0  0  0  0  0  0  0
    0.3567   -4.1178    0.0433 H   0  0  0  0  0  0  0  0  0  0  0  0
    1.0456   -3.9838   -1.5769 H   0  0  0  0  0  0  0  0  0  0  0  0
    1.5045   -5.5766    0.9857 H   0  0  0  0  0  0  0  0  0  0  0  0
    3.2060   -5.5111    1.2800 H   0  0  0  0  0  0  0  0  0  0  0  0
   -1.3078   -1.0572   -0.5479 N   0  0  0  0  0  0  0  0  0  0  0  0
   -2.5825   -0.6403   -1.0813 C   0  0  2  0  0  0  0  0  0  0  0  0
   -3.3028   -1.8779   -1.5998 C   0  0  0  0  0  0  0  0  0  0  0  0
   -2.7174   -2.9113   -1.9167 O   0  0  0  0  0  0  0  0  0  0  0  0
   -2.4095    0.3907   -2.1859 C   0  0  0  0  0  0  0  0  0  0  0  0
   -1.1034   -0.8497    0.4252 H   0  0  0  0  0  0  0  0  0  0  0  0
   -3.1485   -0.2097   -0.2481 H   0  0  0  0  0  0  0  0  0  0  0  0
   -1.8447   -0.0225   -3.0295 H   0  0  0  0  0  0  0  0  0  0  0  0
   -3.3783    0.7270   -2.5699 H   0  0  0  0  0  0  0  0  0  0  0  0
   -1.8651    1.2674   -1.8189 H   0  0  0  0  0  0  0  0  0  0  0  0
   -4.6720   -1.6780   -1.7077 N   0  0  0  0  0  0  0  0  0  0  0  0
   -5.5735   -2.6991   -2.1880 C   0  0  0  0  0  0  0  0  0  0  0  0
   -5.0736   -0.7957   -1.4043 H   0  0  0  0  0  0  0  0  0  0  0  0
   -5.7116   -2.5859   -3.2734 H   0  0  0  0  0  0  0  0  0  0  0  0
   -5.1506   -3.6917   -1.9739 H   0  0  0  0  0  0  0  0  0  0  0  0
   -6.5451   -2.5976   -1.6823 H   0  0  0  0  0  0  0  0  0  0  0  0
  1  3  1  0  0  0  0
  1  7  1  0  0  0  0
  1  2  2  0  0  0  0
 21 22  1  0  0  0  0
 22 24  1  0  0  0  0
 22 23  2  0  0  0  0
 32 33  1  0  0  0  0
 33 41  1  0  0  0  0
 33 34  2  0  0  0  0
  8  9  1  0  0  0  0
  9 17  1  0  0  0  0
  9 10  2  0  0  0  0
 18 19  1  0  0  0  0
 19 31  1  0  0  0  0
 19 20  2  0  0  0  0
 32 35  1  0  0  0  0
  8 11  1  0  0  0  0
 41 42  1  0  0  0  0
 18 21  1  0  0  0  0
 31 32  1  0  0  0  0
  7  8  1  0  0  0  0
 17 18  1  0  0  0  0
  3  4  1  0  0  0  0
  3  5  1  0  0  0  0
  3  6  1  0  0  0  0
 35 38  1  0  0  0  0
 35 39  1  0  0  0  0
 35 40  1  0  0  0  0
 11 14  1  0  0  0  0
 11 15  1  0  0  0  0
 11 16  1  0  0  0  0
 42 44  1  0  0  0  0
 42 45  1  0  0  0  0
 42 46  1  0  0  0  0
 21 27  1  0  0  0  0
 21 28  1  0  0  0  0
 32 37  1  0  0  0  0
  8 13  1  0  0  0  0
 18 26  1  0  0  0  0
 24 29  1  0  0  0  0
 24 30  1  0  0  0  0
 41 43  1  0  0  0  0
  7 12  1  0  0  0  0
 31 36  1  0  0  0  0
 17 25  1  0  0  0  0
M  END
$$$$

  -OEChem-05262214473D

 46 45  0     1  0  0  0  0  0999 V2000
   -0.0543    1.9736    3.8406 C   0  0  0  0  0  0  0  0  0  0  0  0
    0.6744    1.6099    4.7562 O   0  0  0  0  0  0  0  0  0  0  0  0
   -0.5599    3.3779    3.8160 C   0  0  0  0  0  0  0  0  0  0  0  0
   -1.5202    3.4885    4.3450 H   0  0  0  0  0  0  0  0  0  0  0  0
    0.1282    4.0814    4.3116 H   0  0  0  0  0  0  0  0  0  0  0  0
   -0.7317    3.7994    2.8126 H   0  0  0  0  0  0  0  0  0  0  0  0
   -0.4812    1.1968    2.7762 N   0  0  0  0  0  0  0  0  0  0  0  0
   -0.1106   -0.1834    2.6051 C   0  0  2  0  0  0  0  0  0  0  0  0
   -0.0696   -0.4775    1.1113 C   0  0  0  0  0  0  0  0  0  0  0  0
   -0.6805    0.1900    0.2792 O   0  0  0  0  0  0  0  0  0  0  0  0
   -1.0852   -1.1101    3.3150 C   0  0  0  0  0  0  0  0  0  0  0  0
   -1.0883    1.6241    2.0791 H   0  0  0  0  0  0  0  0  0  0  0  0
    0.8937   -0.2959    3.0277 H   0  0  0  0  0  0  0  0  0  0  0  0
   -2.0970   -1.0114    2.9051 H   0  0  0  0  0  0  0  0  0  0  0  0
   -0.7860   -2.1580    3.2078 H   0  0  0  0  0  0  0  0  0  0  0  0
   -1.1357   -0.8775    4.3842 H   0  0  0  0  0  0  0  0  0  0  0  0
    0.6950   -1.6003    0.8178 N   0  0  0  0  0  0  0  0  0  0  0  0
    0.8777   -2.0908   -0.5246 C   0  0  2  0  0  0  0  0  0  0  0  0
   -0.3729   -1.7340   -1.3184 C   0  0  0  0  0  0  0  0  0  0  0  0
   -0.6648   -2.2670   -2.3871 O   0  0  0  0  0  0  0  0  0  0  0  0
    1.1200   -3.6001   -0.5513 C   0  0  0  0  0  0  0  0  0  0  0  0
    2.4717   -3.9981    0.0149 C   0  0  0  0  0  0  0  0  0  0  0  0
    3.5171   -3.3968   -0.2131 O   0  0  0  0  0  0  0  0  0  0  0  0
    2.3921   -5.1131    0.8223 N   0  0  0  0  0  0  0  0  0  0  0  0
    1.1810   -2.0803    1.5718 H   0  0  0  0  0  0  0  0  0  0  0  0
    1.7322   -1.5461   -0.9427 H   0  0  0  0  0  0  0  0  0  0  0  0
    0.3567   -4.1178    0.0433 H   0  0  0  0  0  0  0  0  0  0  0  0
    1.0456   -3.9838   -1.5769 H   0  0  0  0  0  0  0  0  0  0  0  0
    1.5045   -5.5766    0.9857 H   0  0  0  0  0  0  0  0  0  0  0  0
    3.2060   -5.5111    1.2800 H   0  0  0  0  0  0  0  0  0  0  0  0
   -1.1527   -0.7863   -0.6705 N   0  0  0  0  0  0  0  0  0  0  0  0
   -2.3998   -0.3137   -1.2224 C   0  0  2  0  0  0  0  0  0  0  0  0
   -3.3099   -1.5176   -1.4268 C   0  0  0  0  0  0  0  0  0  0  0  0
   -2.8874   -2.6665   -1.5390 O   0  0  0  0  0  0  0  0  0  0  0  0
   -2.1795    0.4295   -2.5308 C   0  0  0  0  0  0  0  0  0  0  0  0
   -0.8507   -0.4117    0.2240 H   0  0  0  0  0  0  0  0  0  0  0  0
   -2.8416    0.3565   -0.4770 H   0  0  0  0  0  0  0  0  0  0  0  0
   -1.7374   -0.2259   -3.2899 H   0  0  0  0  0  0  0  0  0  0  0  0
   -3.1232    0.8121   -2.9335 H   0  0  0  0  0  0  0  0  0  0  0  0
   -1.5010    1.2775   -2.3879 H   0  0  0  0  0  0  0  0  0  0  0  0
   -4.6463   -1.1530   -1.5123 N   0  0  0  0  0  0  0  0  0  0  0  0
   -5.7049   -2.1138   -1.7180 C   0  0  0  0  0  0  0  0  0  0  0  0
   -4.9074   -0.1792   -1.3890 H   0  0  0  0  0  0  0  0  0  0  0  0
   -5.9086   -2.2108   -2.7946 H   0  0  0  0  0  0  0  0  0  0  0  0
   -5.3979   -3.0896   -1.3136 H   0  0  0  0  0  0  0  0  0  0  0  0
   -6.6146   -1.7729   -1.2021 H   0  0  0  0  0  0  0  0  0  0  0  0
  1  3  1  0  0  0  0
  1  7  1  0  0  0  0
  1  2  2  0  0  0  0
 21 22  1  0  0  0  0
 22 24  1  0  0  0  0
 22 23  2  0  0  0  0
 32 33  1  0  0  0  0
 33 41  1  0  0  0  0
 33 34  2  0  0  0  0
  8  9  1  0  0  0  0
  9 17  1  0  0  0  0
  9 10  2  0  0  0  0
 18 19  1  0  0  0  0
 19 31  1  0  0  0  0
 19 20  2  0  0  0  0
 32 35  1  0  0  0  0
  8 11  1  0  0  0  0
 41 42  1  0  0  0  0
 18 21  1  0  0  0  0
 31 32  1  0  0  0  0
  7  8  1  0  0  0  0
 17 18  1  0  0  0  0
  3  4  1  0  0  0  0
  3  5  1  0  0  0  0
  3  6  1  0  0  0  0
 35 38  1  0  0  0  0
 35 39  1  0  0  0  0
 35 40  1  0  0  0  0
 11 14  1  0  0  0  0
 11 15  1  0  0  0  0
 11 16  1  0  0  0  0
 42 44  1  0  0  0  0
 42 45  1  0  0  0  0
 42 46  1  0  0  0  0
 21 27  1  0  0  0  0
 21 28  1  0  0  0  0
 32 37  1  0  0  0  0
  8 13  1  0  0  0  0
 18 26  1  0  0  0  0
 24 29  1  0  0  0  0
 24 30  1  0  0  0  0
 41 43  1  0  0  0  0
  7 12  1  0  0  0  0
 31 36  1  0  0  0  0
 17 25  1  0  0  0  0
M  END
$$$$

  -OEChem-05262214473D

 46 45  0     1  0  0  0  0  0999 V2000
   -0.0543    1.9736    3.8406 C   0  0  0  0  0  0  0  0  0  0  0  0
    0.6744    1.6099    4.7562 O   0  0  0  0  0  0  0  0  0  0  0  0
   -0.5599    3.3779    3.8160 C   0  0  0  0  0  0  0  0  0  0  0  0
   -1.5202    3.4885    4.3450 H   0  0  0  0  0  0  0  0  0  0  0  0
    0.1282    4.0814    4.3116 H   0  0  0  0  0  0  0  0  0  0  0  0
   -0.7317    3.7994    2.8126 H   0  0  0  0  0  0  0  0  0  0  0  0
   -0.4812    1.1968    2.7762 N   0  0  0  0  0  0  0  0  0  0  0  0
   -0.1106   -0.1834    2.6051 C   0  0  2  0  0  0  0  0  0  0  0  0
   -0.0696   -0.4775    1.1113 C   0  0  0  0  0  0  0  0  0  0  0  0
   -0.6805    0.1900    0.2792 O   0  0  0  0  0  0  0  0  0  0  0  0
   -1.0852   -1.1101    3.3150 C   0  0  0  0  0  0  0  0  0  0  0  0
   -1.0883    1.6241    2.0791 H   0  0  0  0  0  0  0  0  0  0  0  0
    0.8937   -0.2959    3.0277 H   0  0  0  0  0  0  0  0  0  0  0  0
   -2.0970   -1.0114    2.9051 H   0  0  0  0  0  0  0  0  0  0  0  0
   -0.7860   -2.1580    3.2078 H   0  0  0  0  0  0  0  0  0  0  0  0
   -1.1357   -0.8775    4.3842 H   0  0  0  0  0  0  0  0  0  0  0  0
    0.6950   -1.6003    0.8178 N   0  0  0  0  0  0  0  0  0  0  0  0
    0.8777   -2.0908   -0.5246 C   0  0  2  0  0  0  0  0  0  0  0  0
   -0.3729   -1.7340   -1.3184 C   0  0  0  0  0  0  0  0  0  0  0  0
   -0.8103   -2.4311   -2.2317 O   0  0  0  0  0  0  0  0  0  0  0  0
    1.1200   -3.6001   -0.5513 C   0  0  0  0  0  0  0  0  0  0  0  0
    2.4717   -3.9981    0.0149 C   0  0  0  0  0  0  0  0  0  0  0  0
    3.5171   -3.3968   -0.2131 O   0  0  0  0  0  0  0  0  0  0  0  0
    2.3921   -5.1131    0.8223 N   0  0  0  0  0  0  0  0  0  0  0  0
    1.1810   -2.0803    1.5718 H   0  0  0  0  0  0  0  0  0  0  0  0
    1.7322   -1.5461   -0.9427 H   0  0  0  0  0  0  0  0  0  0  0  0
    0.3567   -4.1178    0.0433 H   0  0  0  0  0  0  0  0  0  0  0  0
    1.0456   -3.9838   -1.5769 H   0  0  0  0  0  0  0  0  0  0  0  0
    1.5045   -5.5766    0.9857 H   0  0  0  0  0  0  0  0  0  0  0  0
    3.2060   -5.5111    1.2800 H   0  0  0  0  0  0  0  0  0  0  0  0
   -0.9737   -0.5716   -0.8560 N   0  0  0  0  0  0  0  0  0  0  0  0
   -2.1878   -0.0528   -1.4391 C   0  0  2  0  0  0  0  0  0  0  0  0
   -3.2576   -1.1319   -1.3357 C   0  0  0  0  0  0  0  0  0  0  0  0
   -2.9956   -2.3269   -1.2157 O   0  0  0  0  0  0  0  0  0  0  0  0
   -1.9730    0.3628   -2.8861 C   0  0  0  0  0  0  0  0  0  0  0  0
   -0.5598   -0.0655   -0.0787 H   0  0  0  0  0  0  0  0  0  0  0  0
   -2.4827    0.8135   -0.8371 H   0  0  0  0  0  0  0  0  0  0  0  0
   -1.6769   -0.4922   -3.5048 H   0  0  0  0  0  0  0  0  0  0  0  0
   -2.8874    0.7825   -3.3183 H   0  0  0  0  0  0  0  0  0  0  0  0
   -1.1825    1.1173   -2.9617 H   0  0  0  0  0  0  0  0  0  0  0  0
   -4.5388   -0.6079   -1.4366 N   0  0  0  0  0  0  0  0  0  0  0  0
   -5.7244   -1.4309   -1.3803 C   0  0  0  0  0  0  0  0  0  0  0  0
   -4.6628    0.3972   -1.5152 H   0  0  0  0  0  0  0  0  0  0  0  0
   -6.0192   -1.7202   -2.3998 H   0  0  0  0  0  0  0  0  0  0  0  0
   -5.5156   -2.3344   -0.7888 H   0  0  0  0  0  0  0  0  0  0  0  0
   -6.5414   -0.8648   -0.9092 H   0  0  0  0  0  0  0  0  0  0  0  0
  1  3  1  0  0  0  0
  1  7  1  0  0  0  0
  1  2  2  0  0  0  0
 21 22  1  0  0  0  0
 22 24  1  0  0  0  0
 22 23  2  0  0  0  0
 32 33  1  0  0  0  0
 33 41  1  0  0  0  0
 33 34  2  0  0  0  0
  8  9  1  0  0  0  0
  9 17  1  0  0  0  0
  9 10  2  0  0  0  0
 18 19  1  0  0  0  0
 19 31  1  0  0  0  0
 19 20  2  0  0  0  0
 32 35  1  0  0  0  0
  8 11  1  0  0  0  0
 41 42  1  0  0  0  0
 18 21  1  0  0  0  0
 31 32  1  0  0  0  0
  7  8  1  0  0  0  0
 17 18  1  0  0  0  0
  3  4  1  0  0  0  0
  3  5  1  0  0  0  0
  3  6  1  0  0  0  0
 35 38  1  0  0  0  0
 35 39  1  0  0  0  0
 35 40  1  0  0  0  0
 11 14  1  0  0  0  0
 11 15  1  0  0  0  0
 11 16  1  0  0  0  0
 42 44  1  0  0  0  0
 42 45  1  0  0  0  0
 42 46  1  0  0  0  0
 21 27  1  0  0  0  0
 21 28  1  0  0  0  0
 32 37  1  0  0  0  0
  8 13  1  0  0  0  0
 18 26  1  0  0  0  0
 24 29  1  0  0  0  0
 24 30  1  0  0  0  0
 41 43  1  0  0  0  0
  7 12  1  0  0  0  0
 31 36  1  0  0  0  0
 17 25  1  0  0  0  0
M  END
$$$$

  -OEChem-05262214473D

 46 45  0     1  0  0  0  0  0999 V2000
   -0.0543    1.9736    3.8406 C   0  0  0  0  0  0  0  0  0  0  0  0
    0.6744    1.6099    4.7562 O   0  0  0  0  0  0  0  0  0  0  0  0
   -0.5599    3.3779    3.8160 C   0  0  0  0  0  0  0  0  0  0  0  0
   -1.5202    3.4885    4.3450 H   0  0  0  0  0  0  0  0  0  0  0  0
    0.1282    4.0814    4.3116 H   0  0  0  0  0  0  0  0  0  0  0  0
   -0.7317    3.7994    2.8126 H   0  0  0  0  0  0  0  0  0  0  0  0
   -0.4812    1.1968    2.7762 N   0  0  0  0  0  0  0  0  0  0  0  0
   -0.1106   -0.1834    2.6051 C   0  0  2  0  0  0  0  0  0  0  0  0
   -0.0696   -0.4775    1.1113 C   0  0  0  0  0  0  0  0  0  0  0  0
   -0.6805    0.1900    0.2792 O   0  0  0  0  0  0  0  0  0  0  0  0
   -1.0852   -1.1101    3.3150 C   0  0  0  0  0  0  0  0  0  0  0  0
   -1.0883    1.6241    2.0791 H   0  0  0  0  0  0  0  0  0  0  0  0
    0.8937   -0.2959    3.0277 H   0  0  0  0  0  0  0  0  0  0  0  0
   -2.0970   -1.0114    2.9051 H   0  0  0  0  0  0  0  0  0  0  0  0
   -0.7860   -2.1580    3.2078 H   0  0  0  0  0  0  0  0  0  0  0  0
   -1.1357   -0.8775    4.3842 H   0  0  0  0  0  0  0  0  0  0  0  0
    0.6950   -1.6003    0.8178 N   0  0  0  0  0  0  0  0  0  0  0  0
    0.8777   -2.0908   -0.5246 C   0  0  2  0  0  0  0  0  0  0  0  0
   -0.3729   -1.7340   -1.3184 C   0  0  0  0  0  0  0  0  0  0  0  0
   -0.9635   -2.5371   -2.0379 O   0  0  0  0  0  0  0  0  0  0  0  0
    1.1200   -3.6001   -0.5513 C   0  0  0  0  0  0  0  0  0  0  0  0
    2.4717   -3.9981    0.0149 C   0  0  0  0  0  0  0  0  0  0  0  0
    3.5171   -3.3968   -0.2131 O   0  0  0  0  0  0  0  0  0  0  0  0
    2.3921   -5.1131    0.8223 N   0  0  0  0  0  0  0  0  0  0  0  0
    1.1810   -2.0803    1.5718 H   0  0  0  0  0  0  0  0  0  0  0  0
    1.7322   -1.5461   -0.9427 H   0  0  0  0  0  0  0  0  0  0  0  0
    0.3567   -4.1178    0.0433 H   0  0  0  0  0  0  0  0  0  0  0  0
    1.0456   -3.9838   -1.5769 H   0  0  0  0  0  0  0  0  0  0  0  0
    1.5045   -5.5766    0.9857 H   0  0  0  0  0  0  0  0  0  0  0  0
    3.2060   -5.5111    1.2800 H   0  0  0  0  0  0  0  0  0  0  0  0
   -0.7831   -0.4278   -1.0916 N   0  0  0  0  0  0  0  0  0  0  0  0
   -1.9610    0.1245   -1.7167 C   0  0  2  0  0  0  0  0  0  0  0  0
   -3.1496   -0.7470   -1.3329 C   0  0  0  0  0  0  0  0  0  0  0  0
   -3.0348   -1.9156   -0.9691 O   0  0  0  0  0  0  0  0  0  0  0  0
   -1.8041    0.1950   -3.2277 C   0  0  0  0  0  0  0  0  0  0  0  0
   -0.2504    0.1654   -0.4622 H   0  0  0  0  0  0  0  0  0  0  0  0
   -2.0962    1.1301   -1.3037 H   0  0  0  0  0  0  0  0  0  0  0  0
   -1.6675   -0.8032   -3.6595 H   0  0  0  0  0  0  0  0  0  0  0  0
   -2.6869    0.6405   -3.6979 H   0  0  0  0  0  0  0  0  0  0  0  0
   -0.9313    0.7977   -3.5012 H   0  0  0  0  0  0  0  0  0  0  0  0
   -4.3569   -0.0797   -1.4858 N   0  0  0  0  0  0  0  0  0  0  0  0
   -5.6306   -0.6968   -1.1981 C   0  0  0  0  0  0  0  0  0  0  0  0
   -4.3565    0.8941   -1.7745 H   0  0  0  0  0  0  0  0  0  0  0  0
   -6.0359   -1.1475   -2.1160 H   0  0  0  0  0  0  0  0  0  0  0  0
   -5.4956   -1.4776   -0.4351 H   0  0  0  0  0  0  0  0  0  0  0  0
   -6.3306    0.0646   -0.8236 H   0  0  0  0  0  0  0  0  0  0  0  0
  1  3  1  0  0  0  0
  1  7  1  0  0  0  0
  1  2  2  0  0  0  0
 21 22  1  0  0  0  0
 22 24  1  0  0  0  0
 22 23  2  0  0  0  0
 32 33  1  0  0  0  0
 33 41  1  0  0  0  0
 33 34  2  0  0  0  0
  8  9  1  0  0  0  0
  9 17  1  0  0  0  0
  9 10  2  0  0  0  0
 18 19  1  0  0  0  0
 19 31  1  0  0  0  0
 19 20  2  0  0  0  0
 32 35  1  0  0  0  0
  8 11  1  0  0  0  0
 41 42  1  0  0  0  0
 18 21  1  0  0  0  0
 31 32  1  0  0  0  0
  7  8  1  0  0  0  0
 17 18  1  0  0  0  0
  3  4  1  0  0  0  0
  3  5  1  0  0  0  0
  3  6  1  0  0  0  0
 35 38  1  0  0  0  0
 35 39  1  0  0  0  0
 35 40  1  0  0  0  0
 11 14  1  0  0  0  0
 11 15  1  0  0  0  0
 11 16  1  0  0  0  0
 42 44  1  0  0  0  0
 42 45  1  0  0  0  0
 42 46  1  0  0  0  0
 21 27  1  0  0  0  0
 21 28  1  0  0  0  0
 32 37  1  0  0  0  0
  8 13  1  0  0  0  0
 18 26  1  0  0  0  0
 24 29  1  0  0  0  0
 24 30  1  0  0  0  0
 41 43  1  0  0  0  0
  7 12  1  0  0  0  0
 31 36  1  0  0  0  0
 17 25  1  0  0  0  0
M  END
$$$$

  -OEChem-05262214473D

 46 45  0     1  0  0  0  0  0999 V2000
   -0.0543    1.9736    3.8406 C   0  0  0  0  0  0  0  0  0  0  0  0
    0.6744    1.6099    4.7562 O   0  0  0  0  0  0  0  0  0  0  0  0
   -0.5599    3.3779    3.8160 C   0  0  0  0  0  0  0  0  0  0  0  0
   -1.5202    3.4885    4.3450 H   0  0  0  0  0  0  0  0  0  0  0  0
    0.1282    4.0814    4.3116 H   0  0  0  0  0  0  0  0  0  0  0  0
   -0.7317    3.7994    2.8126 H   0  0  0  0  0  0  0  0  0  0  0  0
   -0.4812    1.1968    2.7762 N   0  0  0  0  0  0  0  0  0  0  0  0
   -0.1106   -0.1834    2.6051 C   0  0  2  0  0  0  0  0  0  0  0  0
   -0.0696   -0.4775    1.1113 C   0  0  0  0  0  0  0  0  0  0  0  0
   -0.6805    0.1900    0.2792 O   0  0  0  0  0  0  0  0  0  0  0  0
   -1.0852   -1.1101    3.3150 C   0  0  0  0  0  0  0  0  0  0  0  0
   -1.0883    1.6241    2.0791 H   0  0  0  0  0  0  0  0  0  0  0  0
    0.8937   -0.2959    3.0277 H   0  0  0  0  0  0  0  0  0  0  0  0
   -2.0970   -1.0114    2.9051 H   0  0  0  0  0  0  0  0  0  0  0  0
   -0.7860   -2.1580    3.2078 H   0  0  0  0  0  0  0  0  0  0  0  0
   -1.1357   -0.8775    4.3842 H   0  0  0  0  0  0  0  0  0  0  0  0
    0.6950   -1.6003    0.8178 N   0  0  0  0  0  0  0  0  0  0  0  0
    0.8777   -2.0908   -0.5246 C   0  0  2  0  0  0  0  0  0  0  0  0
   -0.3729   -1.7340   -1.3184 C   0  0  0  0  0  0  0  0  0  0  0  0
   -1.1141   -2.5776   -1.8189 O   0  0  0  0  0  0  0  0  0  0  0  0
    1.1200   -3.6001   -0.5513 C   0  0  0  0  0  0  0  0  0  0  0  0
    2.4717   -3.9981    0.0149 C   0  0  0  0  0  0  0  0  0  0  0  0
    3.5171   -3.3968   -0.2131 O   0  0  0  0  0  0  0  0  0  0  0  0
    2.3921   -5.1131    0.8223 N   0  0  0  0  0  0  0  0  0  0  0  0
    1.1810   -2.0803    1.5718 H   0  0  0  0  0  0  0  0  0  0  0  0
    1.7322   -1.5461   -0.9427 H   0  0  0  0  0  0  0  0  0  0  0  0
    0.3567   -4.1178    0.0433 H   0  0  0  0  0  0  0  0  0  0  0  0
    1.0456   -3.9838   -1.5769 H   0  0  0  0  0  0  0  0  0  0  0  0
    1.5045   -5.5766    0.9857 H   0  0  0  0  0  0  0  0  0  0  0  0
    3.2060   -5.5111    1.2800 H   0  0  0  0  0  0  0  0  0  0  0  0
   -0.5940   -0.3646   -1.3612 N   0  0  0  0  0  0  0  0  0  0  0  0
   -1.7348    0.2062   -2.0362 C   0  0  2  0  0  0  0  0  0  0  0  0
   -2.9932   -0.3892   -1.4185 C   0  0  0  0  0  0  0  0  0  0  0  0
   -3.0023   -1.4606   -0.8159 O   0  0  0  0  0  0  0  0  0  0  0  0
   -1.6842   -0.0625   -3.5322 C   0  0  0  0  0  0  0  0  0  0  0  0
    0.0563    0.2652   -0.9005 H   0  0  0  0  0  0  0  0  0  0  0  0
   -1.7085    1.2845   -1.8450 H   0  0  0  0  0  0  0  0  0  0  0  0
   -1.7097   -1.1377   -3.7434 H   0  0  0  0  0  0  0  0  0  0  0  0
   -2.5354    0.3956   -4.0466 H   0  0  0  0  0  0  0  0  0  0  0  0
   -0.7644    0.3404   -3.9696 H   0  0  0  0  0  0  0  0  0  0  0  0
   -4.1129    0.3955   -1.6565 N   0  0  0  0  0  0  0  0  0  0  0  0
   -5.4300    0.0382   -1.1837 C   0  0  0  0  0  0  0  0  0  0  0  0
   -4.0093    1.2778   -2.1490 H   0  0  0  0  0  0  0  0  0  0  0  0
   -5.9577   -0.5318   -1.9626 H   0  0  0  0  0  0  0  0  0  0  0  0
   -5.3394   -0.5776   -0.2767 H   0  0  0  0  0  0  0  0  0  0  0  0
   -5.9964    0.9521   -0.9512 H   0  0  0  0  0  0  0  0  0  0  0  0
  1  3  1  0  0  0  0
  1  7  1  0  0  0  0
  1  2  2  0  0  0  0
 21 22  1  0  0  0  0
 22 24  1  0  0  0  0
 22 23  2  0  0  0  0
 32 33  1  0  0  0  0
 33 41  1  0  0  0  0
 33 34  2  0  0  0  0
  8  9  1  0  0  0  0
  9 17  1  0  0  0  0
  9 10  2  0  0  0  0
 18 19  1  0  0  0  0
 19 31  1  0  0  0  0
 19 20  2  0  0  0  0
 32 35  1  0  0  0  0
  8 11  1  0  0  0  0
 41 42  1  0  0  0  0
 18 21  1  0  0  0  0
 31 32  1  0  0  0  0
  7  8  1  0  0  0  0
 17 18  1  0  0  0  0
  3  4  1  0  0  0  0
  3  5  1  0  0  0  0
  3  6  1  0  0  0  0
 35 38  1  0  0  0  0
 35 39  1  0  0  0  0
 35 40  1  0  0  0  0
 11 14  1  0  0  0  0
 11 15  1  0  0  0  0
 11 16  1  0  0  0  0
 42 44  1  0  0  0  0
 42 45  1  0  0  0  0
 42 46  1  0  0  0  0
 21 27  1  0  0  0  0
 21 28  1  0  0  0  0
 32 37  1  0  0  0  0
  8 13  1  0  0  0  0
 18 26  1  0  0  0  0
 24 29  1  0  0  0  0
 24 30  1  0  0  0  0
 41 43  1  0  0  0  0
  7 12  1  0  0  0  0
 31 36  1  0  0  0  0
 17 25  1  0  0  0  0
M  END
$$$$

  -OEChem-05262214473D

 46 45  0     1  0  0  0  0  0999 V2000
   -0.0543    1.9736    3.8406 C   0  0  0  0  0  0  0  0  0  0  0  0
    0.6744    1.6099    4.7562 O   0  0  0  0  0  0  0  0  0  0  0  0
   -0.5599    3.3779    3.8160 C   0  0  0  0  0  0  0  0  0  0  0  0
   -1.5202    3.4885    4.3450 H   0  0  0  0  0  0  0  0  0  0  0  0
    0.1282    4.0814    4.3116 H   0  0  0  0  0  0  0  0  0  0  0  0
   -0.7317    3.7994    2.8126 H   0  0  0  0  0  0  0  0  0  0  0  0
   -0.4812    1.1968    2.7762 N   0  0  0  0  0  0  0  0  0  0  0  0
   -0.1106   -0.1834    2.6051 C   0  0  2  0  0  0  0  0  0  0  0  0
   -0.0696   -0.4775    1.1113 C   0  0  0  0  0  0  0  0  0  0  0  0
   -0.6805    0.1900    0.2792 O   0  0  0  0  0  0  0  0  0  0  0  0
   -1.0852   -1.1101    3.3150 C   0  0  0  0  0  0  0  0  0  0  0  0
   -1.0883    1.6241    2.0791 H   0  0  0  0  0  0  0  0  0  0  0  0
    0.8937   -0.2959    3.0277 H   0  0  0  0  0  0  0  0  0  0  0  0
   -2.0970   -1.0114    2.9051 H   0  0  0  0  0  0  0  0  0  0  0  0
   -0.7860   -2.1580    3.2078 H   0  0  0  0  0  0  0  0  0  0  0  0
   -1.1357   -0.8775    4.3842 H   0  0  0  0  0  0  0  0  0  0  0  0
    0.6950   -1.6003    0.8178 N   0  0  0  0  0  0  0  0  0  0  0  0
    0.8777   -2.0908   -0.5246 C   0  0  2  0  0  0  0  0  0  0  0  0
   -0.3729   -1.7340   -1.3184 C   0  0  0  0  0  0  0  0  0  0  0  0
   -1.2517   -2.5498   -1.5897 O   0  0  0  0  0  0  0  0  0  0  0  0
    1.1200   -3.6001   -0.5513 C   0  0  0  0  0  0  0  0  0  0  0  0
    2.4717   -3.9981    0.0149 C   0  0  0  0  0  0  0  0  0  0  0  0
    3.5171   -3.3968   -0.2131 O   0  0  0  0  0  0  0  0  0  0  0  0
    2.3921   -5.1131    0.8223 N   0  0  0  0  0  0  0  0  0  0  0  0
    1.1810   -2.0803    1.5718 H   0  0  0  0  0  0  0  0  0  0  0  0
    1.7322   -1.5461   -0.9427 H   0  0  0  0  0  0  0  0  0  0  0  0
    0.3567   -4.1178    0.0433 H   0  0  0  0  0  0  0  0  0  0  0  0
    1.0456   -3.9838   -1.5769 H   0  0  0  0  0  0  0  0  0  0  0  0
    1.5045   -5.5766    0.9857 H   0  0  0  0  0  0  0  0  0  0  0  0
    3.2060   -5.5111    1.2800 H   0  0  0  0  0  0  0  0  0  0  0  0
   -0.4190   -0.3864   -1.6466 N   0  0  0  0  0  0  0  0  0  0  0  0
   -1.5247    0.1868   -2.3760 C   0  0  2  0  0  0  0  0  0  0  0  0
   -2.7990   -0.0828   -1.5867 C   0  0  0  0  0  0  0  0  0  0  0  0
   -2.9002   -0.9930   -0.7666 O   0  0  0  0  0  0  0  0  0  0  0  0
   -1.6216   -0.3920   -3.7789 C   0  0  0  0  0  0  0  0  0  0  0  0
    0.3394    0.2272   -1.3637 H   0  0  0  0  0  0  0  0  0  0  0  0
   -1.3460    1.2665   -2.4243 H   0  0  0  0  0  0  0  0  0  0  0  0
   -1.8006   -1.4730   -3.7508 H   0  0  0  0  0  0  0  0  0  0  0  0
   -2.4433    0.0646   -4.3406 H   0  0  0  0  0  0  0  0  0  0  0  0
   -0.6932   -0.2232   -4.3351 H   0  0  0  0  0  0  0  0  0  0  0  0
   -3.8236    0.7853   -1.9372 N   0  0  0  0  0  0  0  0  0  0  0  0
   -5.1363    0.7243   -1.3381 C   0  0  0  0  0  0  0  0  0  0  0  0
   -3.6449    1.5220   -2.6133 H   0  0  0  0  0  0  0  0  0  0  0  0
   -5.7898    0.0850   -1.9498 H   0  0  0  0  0  0  0  0  0  0  0  0
   -5.0575    0.3044   -0.3244 H   0  0  0  0  0  0  0  0  0  0  0  0
   -5.5616    1.7372   -1.2832 H   0  0  0  0  0  0  0  0  0  0  0  0
  1  3  1  0  0  0  0
  1  7  1  0  0  0  0
  1  2  2  0  0  0  0
 21 22  1  0  0  0  0
 22 24  1  0  0  0  0
 22 23  2  0  0  0  0
 32 33  1  0  0  0  0
 33 41  1  0  0  0  0
 33 34  2  0  0  0  0
  8  9  1  0  0  0  0
  9 17  1  0  0  0  0
  9 10  2  0  0  0  0
 18 19  1  0  0  0  0
 19 31  1  0  0  0  0
 19 20  2  0  0  0  0
 32 35  1  0  0  0  0
  8 11  1  0  0  0  0
 41 42  1  0  0  0  0
 18 21  1  0  0  0  0
 31 32  1  0  0  0  0
  7  8  1  0  0  0  0
 17 18  1  0  0  0  0
  3  4  1  0  0  0  0
  3  5  1  0  0  0  0
  3  6  1  0  0  0  0
 35 38  1  0  0  0  0
 35 39  1  0  0  0  0
 35 40  1  0  0  0  0
 11 14  1  0  0  0  0
 11 15  1  0  0  0  0
 11 16  1  0  0  0  0
 42 44  1  0  0  0  0
 42 45  1  0  0  0  0
 42 46  1  0  0  0  0
 21 27  1  0  0  0  0
 21 28  1  0  0  0  0
 32 37  1  0  0  0  0
  8 13  1  0  0  0  0
 18 26  1  0  0  0  0
 24 29  1  0  0  0  0
 24 30  1  0  0  0  0
 41 43  1  0  0  0  0
  7 12  1  0  0  0  0
 31 36  1  0  0  0  0
 17 25  1  0  0  0  0
M  END
$$$$

  -OEChem-05262214473D

 46 45  0     1  0  0  0  0  0999 V2000
   -0.0543    1.9736    3.8406 C   0  0  0  0  0  0  0  0  0  0  0  0
    0.6744    1.6099    4.7562 O   0  0  0  0  0  0  0  0  0  0  0  0
   -0.5599    3.3779    3.8160 C   0  0  0  0  0  0  0  0  0  0  0  0
   -1.5202    3.4885    4.3450 H   0  0  0  0  0  0  0  0  0  0  0  0
    0.1282    4.0814    4.3116 H   0  0  0  0  0  0  0  0  0  0  0  0
   -0.7317    3.7994    2.8126 H   0  0  0  0  0  0  0  0  0  0  0  0
   -0.4812    1.1968    2.7762 N   0  0  0  0  0  0  0  0  0  0  0  0
   -0.1106   -0.1834    2.6051 C   0  0  2  0  0  0  0  0  0  0  0  0
   -0.0696   -0.4775    1.1113 C   0  0  0  0  0  0  0  0  0  0  0  0
   -0.6805    0.1900    0.2792 O   0  0  0  0  0  0  0  0  0  0  0  0
   -1.0852   -1.1101    3.3150 C   0  0  0  0  0  0  0  0  0  0  0  0
   -1.0883    1.6241    2.0791 H   0  0  0  0  0  0  0  0  0  0  0  0
    0.8937   -0.2959    3.0277 H   0  0  0  0  0  0  0  0  0  0  0  0
   -2.0970   -1.0114    2.9051 H   0  0  0  0  0  0  0  0  0  0  0  0
   -0.7860   -2.1580    3.2078 H   0  0  0  0  0  0  0  0  0  0  0  0
   -1.1357   -0.8775    4.3842 H   0  0  0  0  0  0  0  0  0  0  0  0
    0.6950   -1.6003    0.8178 N   0  0  0  0  0  0  0  0  0  0  0  0
    0.8777   -2.0908   -0.5246 C   0  0  2  0  0  0  0  0  0  0  0  0
   -0.3729   -1.7340   -1.3184 C   0  0  0  0  0  0  0  0  0  0  0  0
   -1.3670   -2.4558   -1.3658 O   0  0  0  0  0  0  0  0  0  0  0  0
    1.1200   -3.6001   -0.5513 C   0  0  0  0  0  0  0  0  0  0  0  0
    2.4717   -3.9981    0.0149 C   0  0  0  0  0  0  0  0  0  0  0  0
    3.5171   -3.3968   -0.2131 O   0  0  0  0  0  0  0  0  0  0  0  0
    2.3921   -5.1131    0.8223 N   0  0  0  0  0  0  0  0  0  0  0  0
    1.1810   -2.0803    1.5718 H   0  0  0  0  0  0  0  0  0  0  0  0
    1.7322   -1.5461   -0.9427 H   0  0  0  0  0  0  0  0  0  0  0  0
    0.3567   -4.1178    0.0433 H   0  0  0  0  0  0  0  0  0  0  0  0
    1.0456   -3.9838   -1.5769 H   0  0  0  0  0  0  0  0  0  0  0  0
    1.5045   -5.5766    0.9857 H   0  0  0  0  0  0  0  0  0  0  0  0
    3.2060   -5.5111    1.2800 H   0  0  0  0  0  0  0  0  0  0  0  0
   -0.2703   -0.4917   -1.9282 N   0  0  0  0  0  0  0  0  0  0  0  0
   -1.3450    0.0675   -2.7127 C   0  0  2  0  0  0  0  0  0  0  0  0
   -2.5804    0.1511   -1.8260 C   0  0  0  0  0  0  0  0  0  0  0  0
   -2.7355   -0.5445   -0.8244 O   0  0  0  0  0  0  0  0  0  0  0  0
   -1.6205   -0.7711   -3.9510 C   0  0  0  0  0  0  0  0  0  0  0  0
    0.5797    0.0539   -1.8202 H   0  0  0  0  0  0  0  0  0  0  0  0
   -1.0333    1.0771   -3.0019 H   0  0  0  0  0  0  0  0  0  0  0  0
   -1.9341   -1.7862   -3.6812 H   0  0  0  0  0  0  0  0  0  0  0  0
   -2.4167   -0.3301   -4.5598 H   0  0  0  0  0  0  0  0  0  0  0  0
   -0.7226   -0.8549   -4.5727 H   0  0  0  0  0  0  0  0  0  0  0  0
   -3.5085    1.0632   -2.3086 N   0  0  0  0  0  0  0  0  0  0  0  0
   -4.7694    1.3145   -1.6507 C   0  0  0  0  0  0  0  0  0  0  0  0
   -3.2882    1.6100   -3.1357 H   0  0  0  0  0  0  0  0  0  0  0  0
   -5.5437    0.6608   -2.0788 H   0  0  0  0  0  0  0  0  0  0  0  0
   -4.6692    1.1081   -0.5749 H   0  0  0  0  0  0  0  0  0  0  0  0
   -5.0560    2.3664   -1.7971 H   0  0  0  0  0  0  0  0  0  0  0  0
  1  3  1  0  0  0  0
  1  7  1  0  0  0  0
  1  2  2  0  0  0  0
 21 22  1  0  0  0  0
 22 24  1  0  0  0  0
 22 23  2  0  0  0  0
 32 33  1  0  0  0  0
 33 41  1  0  0  0  0
 33 34  2  0  0  0  0
  8  9  1  0  0  0  0
  9 17  1  0  0  0  0
  9 10  2  0  0  0  0
 18 19  1  0  0  0  0
 19 31  1  0  0  0  0
 19 20  2  0  0  0  0
 32 35  1  0  0  0  0
  8 11  1  0  0  0  0
 41 42  1  0  0  0  0
 18 21  1  0  0  0  0
 31 32  1  0  0  0  0
  7  8  1  0  0  0  0
 17 18  1  0  0  0  0
  3  4  1  0  0  0  0
  3  5  1  0  0  0  0
  3  6  1  0  0  0  0
 35 38  1  0  0  0  0
 35 39  1  0  0  0  0
 35 40  1  0  0  0  0
 11 14  1  0  0  0  0
 11 15  1  0  0  0  0
 11 16  1  0  0  0  0
 42 44  1  0  0  0  0
 42 45  1  0  0  0  0
 42 46  1  0  0  0  0
 21 27  1  0  0  0  0
 21 28  1  0  0  0  0
 32 37  1  0  0  0  0
  8 13  1  0  0  0  0
 18 26  1  0  0  0  0
 24 29  1  0  0  0  0
 24 30  1  0  0  0  0
 41 43  1  0  0  0  0
  7 12  1  0  0  0  0
 31 36  1  0  0  0  0
 17 25  1  0  0  0  0
M  END
$$$$

  -OEChem-05262214473D

 46 45  0     1  0  0  0  0  0999 V2000
   -0.0543    1.9736    3.8406 C   0  0  0  0  0  0  0  0  0  0  0  0
    0.6744    1.6099    4.7562 O   0  0  0  0  0  0  0  0  0  0  0  0
   -0.5599    3.3779    3.8160 C   0  0  0  0  0  0  0  0  0  0  0  0
   -1.5202    3.4885    4.3450 H   0  0  0  0  0  0  0  0  0  0  0  0
    0.1282    4.0814    4.3116 H   0  0  0  0  0  0  0  0  0  0  0  0
   -0.7317    3.7994    2.8126 H   0  0  0  0  0  0  0  0  0  0  0  0
   -0.4812    1.1968    2.7762 N   0  0  0  0  0  0  0  0  0  0  0  0
   -0.1106   -0.1834    2.6051 C   0  0  2  0  0  0  0  0  0  0  0  0
   -0.0696   -0.4775    1.1113 C   0  0  0  0  0  0  0  0  0  0  0  0
   -0.6805    0.1900    0.2792 O   0  0  0  0  0  0  0  0  0  0  0  0
   -1.0852   -1.1101    3.3150 C   0  0  0  0  0  0  0  0  0  0  0  0
   -1.0883    1.6241    2.0791 H   0  0  0  0  0  0  0  0  0  0  0  0
    0.8937   -0.2959    3.0277 H   0  0  0  0  0  0  0  0  0  0  0  0
   -2.0970   -1.0114    2.9051 H   0  0  0  0  0  0  0  0  0  0  0  0
   -0.7860   -2.1580    3.2078 H   0  0  0  0  0  0  0  0  0  0  0  0
   -1.1357   -0.8775    4.3842 H   0  0  0  0  0  0  0  0  0  0  0  0
    0.6950   -1.6003    0.8178 N   0  0  0  0  0  0  0  0  0  0  0  0
    0.8777   -2.0908   -0.5246 C   0  0  2  0  0  0  0  0  0  0  0  0
   -0.3729   -1.7340   -1.3184 C   0  0  0  0  0  0  0  0  0  0  0  0
   -1.4521   -2.3019   -1.1625 O   0  0  0  0  0  0  0  0  0  0  0  0
    1.1200   -3.6001   -0.5513 C   0  0  0  0  0  0  0  0  0  0  0  0
    2.4717   -3.9981    0.0149 C   0  0  0  0  0  0  0  0  0  0  0  0
    3.5171   -3.3968   -0.2131 O   0  0  0  0  0  0  0  0  0  0  0  0
    2.3921   -5.1131    0.8223 N   0  0  0  0  0  0  0  0  0  0  0  0
    1.1810   -2.0803    1.5718 H   0  0  0  0  0  0  0  0  0  0  0  0
    1.7322   -1.5461   -0.9427 H   0  0  0  0  0  0  0  0  0  0  0  0
    0.3567   -4.1178    0.0433 H   0  0  0  0  0  0  0  0  0  0  0  0
    1.0456   -3.9838   -1.5769 H   0  0  0  0  0  0  0  0  0  0  0  0
    1.5045   -5.5766    0.9857 H   0  0  0  0  0  0  0  0  0  0  0  0
    3.2060   -5.5111    1.2800 H   0  0  0  0  0  0  0  0  0  0  0  0
   -0.1579   -0.6732   -2.1869 N   0  0  0  0  0  0  0  0  0  0  0  0
   -1.2079   -0.1434   -3.0236 C   0  0  2  0  0  0  0  0  0  0  0  0
   -2.3521    0.2968   -2.1200 C   0  0  0  0  0  0  0  0  0  0  0  0
   -2.5195   -0.1459   -0.9856 O   0  0  0  0  0  0  0  0  0  0  0  0
   -1.6811   -1.1740   -4.0368 C   0  0  0  0  0  0  0  0  0  0  0  0
    0.7608   -0.2429   -2.2388 H   0  0  0  0  0  0  0  0  0  0  0  0
   -0.7919    0.7293   -3.5386 H   0  0  0  0  0  0  0  0  0  0  0  0
   -2.1011   -2.0559   -3.5394 H   0  0  0  0  0  0  0  0  0  0  0  0
   -2.4576   -0.7614   -4.6893 H   0  0  0  0  0  0  0  0  0  0  0  0
   -0.8506   -1.5116   -4.6662 H   0  0  0  0  0  0  0  0  0  0  0  0
   -3.1892    1.2102   -2.7455 N   0  0  0  0  0  0  0  0  0  0  0  0
   -4.3544    1.7688   -2.1004 C   0  0  0  0  0  0  0  0  0  0  0  0
   -2.9633    1.5360   -3.6807 H   0  0  0  0  0  0  0  0  0  0  0  0
   -5.2361    1.1564   -2.3406 H   0  0  0  0  0  0  0  0  0  0  0  0
   -4.2009    1.7789   -1.0112 H   0  0  0  0  0  0  0  0  0  0  0  0
   -4.5138    2.7968   -2.4577 H   0  0  0  0  0  0  0  0  0  0  0  0
  1  3  1  0  0  0  0
  1  7  1  0  0  0  0
  1  2  2  0  0  0  0
 21 22  1  0  0  0  0
 22 24  1  0  0  0  0
 22 23  2  0  0  0  0
 32 33  1  0  0  0  0
 33 41  1  0  0  0  0
 33 34  2  0  0  0  0
  8  9  1  0  0  0  0
  9 17  1  0  0  0  0
  9 10  2  0  0  0  0
 18 19  1  0  0  0  0
 19 31  1  0  0  0  0
 19 20  2  0  0  0  0
 32 35  1  0  0  0  0
  8 11  1  0  0  0  0
 41 42  1  0  0  0  0
 18 21  1  0  0  0  0
 31 32  1  0  0  0  0
  7  8  1  0  0  0  0
 17 18  1  0  0  0  0
  3  4  1  0  0  0  0
  3  5  1  0  0  0  0
  3  6  1  0  0  0  0
 35 38  1  0  0  0  0
 35 39  1  0  0  0  0
 35 40  1  0  0  0  0
 11 14  1  0  0  0  0
 11 15  1  0  0  0  0
 11 16  1  0  0  0  0
 42 44  1  0  0  0  0
 42 45  1  0  0  0  0
 42 46  1  0  0  0  0
 21 27  1  0  0  0  0
 21 28  1  0  0  0  0
 32 37  1  0  0  0  0
  8 13  1  0  0  0  0
 18 26  1  0  0  0  0
 24 29  1  0  0  0  0
 24 30  1  0  0  0  0
 41 43  1  0  0  0  0
  7 12  1  0  0  0  0
 31 36  1  0  0  0  0
 17 25  1  0  0  0  0
M  END
$$$$

  -OEChem-05262214473D

 46 45  0     1  0  0  0  0  0999 V2000
   -0.0543    1.9736    3.8406 C   0  0  0  0  0  0  0  0  0  0  0  0
    0.6744    1.6099    4.7562 O   0  0  0  0  0  0  0  0  0  0  0  0
   -0.5599    3.3779    3.8160 C   0  0  0  0  0  0  0  0  0  0  0  0
   -1.5202    3.4885    4.3450 H   0  0  0  0  0  0  0  0  0  0  0  0
    0.1282    4.0814    4.3116 H   0  0  0  0  0  0  0  0  0  0  0  0
   -0.7317    3.7994    2.8126 H   0  0  0  0  0  0  0  0  0  0  0  0
   -0.4812    1.1968    2.7762 N   0  0  0  0  0  0  0  0  0  0  0  0
   -0.1106   -0.1834    2.6051 C   0  0  2  0  0  0  0  0  0  0  0  0
   -0.0696   -0.4775    1.1113 C   0  0  0  0  0  0  0  0  0  0  0  0
   -0.6805    0.1900    0.2792 O   0  0  0  0  0  0  0  0  0  0  0  0
   -1.0852   -1.1101    3.3150 C   0  0  0  0  0  0  0  0  0  0  0  0
   -1.0883    1.6241    2.0791 H   0  0  0  0  0  0  0  0  0  0  0  0
    0.8937   -0.2959    3.0277 H   0  0  0  0  0  0  0  0  0  0  0  0
   -2.0970   -1.0114    2.9051 H   0  0  0  0  0  0  0  0  0  0  0  0
   -0.7860   -2.1580    3.2078 H   0  0  0  0  0  0  0  0  0  0  0  0
   -1.1357   -0.8775    4.3842 H   0  0  0  0  0  0  0  0  0  0  0  0
    0.6950   -1.6003    0.8178 N   0  0  0  0  0  0  0  0  0  0  0  0
    0.8777   -2.0908   -0.5246 C   0  0  2  0  0  0  0  0  0  0  0  0
   -0.3729   -1.7340   -1.3184 C   0  0  0  0  0  0  0  0  0  0  0  0
   -1.5012   -2.0985   -0.9937 O   0  0  0  0  0  0  0  0  0  0  0  0
    1.1200   -3.6001   -0.5513 C   0  0  0  0  0  0  0  0  0  0  0  0
    2.4717   -3.9981    0.0149 C   0  0  0  0  0  0  0  0  0  0  0  0
    3.5171   -3.3968   -0.2131 O   0  0  0  0  0  0  0  0  0  0  0  0
    2.3921   -5.1131    0.8223 N   0  0  0  0  0  0  0  0  0  0  0  0
    1.1810   -2.0803    1.5718 H   0  0  0  0  0  0  0  0  0  0  0  0
    1.7322   -1.5461   -0.9427 H   0  0  0  0  0  0  0  0  0  0  0  0
    0.3567   -4.1178    0.0433 H   0  0  0  0  0  0  0  0  0  0  0  0
    1.0456   -3.9838   -1.5769 H   0  0  0  0  0  0  0  0  0  0  0  0
    1.5045   -5.5766    0.9857 H   0  0  0  0  0  0  0  0  0  0  0  0
    3.2060   -5.5111    1.2800 H   0  0  0  0  0  0  0  0  0  0  0  0
   -0.0895   -0.9187   -2.4050 N   0  0  0  0  0  0  0  0  0  0  0  0
   -1.1227   -0.4318   -3.2873 C   0  0  2  0  0  0  0  0  0  0  0  0
   -2.1298    0.3443   -2.4489 C   0  0  0  0  0  0  0  0  0  0  0  0
   -2.2669    0.1758   -1.2390 O   0  0  0  0  0  0  0  0  0  0  0  0
   -1.7990   -1.5733   -4.0304 C   0  0  0  0  0  0  0  0  0  0  0  0
    0.8703   -0.6430   -2.5911 H   0  0  0  0  0  0  0  0  0  0  0  0
   -0.6381    0.2468   -3.9977 H   0  0  0  0  0  0  0  0  0  0  0  0
   -2.2902   -2.2637   -3.3350 H   0  0  0  0  0  0  0  0  0  0  0  0
   -2.5631   -1.2001   -4.7203 H   0  0  0  0  0  0  0  0  0  0  0  0
   -1.0684   -2.1485   -4.6093 H   0  0  0  0  0  0  0  0  0  0  0  0
   -2.8874    1.2164   -3.2181 N   0  0  0  0  0  0  0  0  0  0  0  0
   -3.9195    2.0561   -2.6564 C   0  0  0  0  0  0  0  0  0  0  0  0
   -2.6926    1.3050   -4.2111 H   0  0  0  0  0  0  0  0  0  0  0  0
   -4.8880    1.5381   -2.7173 H   0  0  0  0  0  0  0  0  0  0  0  0
   -3.6845    2.2710   -1.6035 H   0  0  0  0  0  0  0  0  0  0  0  0
   -3.9721    2.9991   -3.2202 H   0  0  0  0  0  0  0  0  0  0  0  0
  1  3  1  0  0  0  0
  1  7  1  0  0  0  0
  1  2  2  0  0  0  0
 21 22  1  0  0  0  0
 22 24  1  0  0  0  0
 22 23  2  0  0  0  0
 32 33  1  0  0  0  0
 33 41  1  0  0  0  0
 33 34  2  0  0  0  0
  8  9  1  0  0  0  0
  9 17  1  0  0  0  0
  9 10  2  0  0  0  0
 18 19  1  0  0  0  0
 19 31  1  0  0  0  0
 19 20  2  0  0  0  0
 32 35  1  0  0  0  0
  8 11  1  0  0  0  0
 41 42  1  0  0  0  0
 18 21  1  0  0  0  0
 31 32  1  0  0  0  0
  7  8  1  0  0  0  0
 17 18  1  0  0  0  0
  3  4  1  0  0  0  0
  3  5  1  0  0  0  0
  3  6  1  0  0  0  0
 35 38  1  0  0  0  0
 35 39  1  0  0  0  0
 35 40  1  0  0  0  0
 11 14  1  0  0  0  0
 11 15  1  0  0  0  0
 11 16  1  0  0  0  0
 42 44  1  0  0  0  0
 42 45  1  0  0  0  0
 42 46  1  0  0  0  0
 21 27  1  0  0  0  0
 21 28  1  0  0  0  0
 32 37  1  0  0  0  0
  8 13  1  0  0  0  0
 18 26  1  0  0  0  0
 24 29  1  0  0  0  0
 24 30  1  0  0  0  0
 41 43  1  0  0  0  0
  7 12  1  0  0  0  0
 31 36  1  0  0  0  0
 17 25  1  0  0  0  0
M  END
$$$$

  -OEChem-05262214473D

 46 45  0     1  0  0  0  0  0999 V2000
   -0.0543    1.9736    3.8406 C   0  0  0  0  0  0  0  0  0  0  0  0
    0.6744    1.6099    4.7562 O   0  0  0  0  0  0  0  0  0  0  0  0
   -0.5599    3.3779    3.8160 C   0  0  0  0  0  0  0  0  0  0  0  0
   -1.5202    3.4885    4.3450 H   0  0  0  0  0  0  0  0  0  0  0  0
    0.1282    4.0814    4.3116 H   0  0  0  0  0  0  0  0  0  0  0  0
   -0.7317    3.7994    2.8126 H   0  0  0  0  0  0  0  0  0  0  0  0
   -0.4812    1.1968    2.7762 N   0  0  0  0  0  0  0  0  0  0  0  0
   -0.1106   -0.1834    2.6051 C   0  0  2  0  0  0  0  0  0  0  0  0
   -0.0696   -0.4775    1.1113 C   0  0  0  0  0  0  0  0  0  0  0  0
   -0.6805    0.1900    0.2792 O   0  0  0  0  0  0  0  0  0  0  0  0
   -1.0852   -1.1101    3.3150 C   0  0  0  0  0  0  0  0  0  0  0  0
   -1.0883    1.6241    2.0791 H   0  0  0  0  0  0  0  0  0  0  0  0
    0.8937   -0.2959    3.0277 H   0  0  0  0  0  0  0  0  0  0  0  0
   -2.0970   -1.0114    2.9051 H   0  0  0  0  0  0  0  0  0  0  0  0
   -0.7860   -2.1580    3.2078 H   0  0  0  0  0  0  0  0  0  0  0  0
   -1.1357   -0.8775    4.3842 H   0  0  0  0  0  0  0  0  0  0  0  0
    0.6950   -1.6003    0.8178 N   0  0  0  0  0  0  0  0  0  0  0  0
    0.8777   -2.0908   -0.5246 C   0  0  2  0  0  0  0  0  0  0  0  0
   -0.3729   -1.7340   -1.3184 C   0  0  0  0  0  0  0  0  0  0  0  0
   -1.5110   -1.8596   -0.8709 O   0  0  0  0  0  0  0  0  0  0  0  0
    1.1200   -3.6001   -0.5513 C   0  0  0  0  0  0  0  0  0  0  0  0
    2.4717   -3.9981    0.0149 C   0  0  0  0  0  0  0  0  0  0  0  0
    3.5171   -3.3968   -0.2131 O   0  0  0  0  0  0  0  0  0  0  0  0
    2.3921   -5.1131    0.8223 N   0  0  0  0  0  0  0  0  0  0  0  0
    1.1810   -2.0803    1.5718 H   0  0  0  0  0  0  0  0  0  0  0  0
    1.7322   -1.5461   -0.9427 H   0  0  0  0  0  0  0  0  0  0  0  0
    0.3567   -4.1178    0.0433 H   0  0  0  0  0  0  0  0  0  0  0  0
    1.0456   -3.9838   -1.5769 H   0  0  0  0  0  0  0  0  0  0  0  0
    1.5045   -5.5766    0.9857 H   0  0  0  0  0  0  0  0  0  0  0  0
    3.2060   -5.5111    1.2800 H   0  0  0  0  0  0  0  0  0  0  0  0
   -0.0697   -1.2113   -2.5677 N   0  0  0  0  0  0  0  0  0  0  0  0
   -1.0953   -0.7778   -3.4860 C   0  0  2  0  0  0  0  0  0  0  0  0
   -1.9287    0.2903   -2.7901 C   0  0  0  0  0  0  0  0  0  0  0  0
   -1.9948    0.3986   -1.5674 O   0  0  0  0  0  0  0  0  0  0  0  0
   -1.9665   -1.9417   -3.9322 C   0  0  0  0  0  0  0  0  0  0  0  0
    0.9008   -1.1190   -2.8531 H   0  0  0  0  0  0  0  0  0  0  0  0
   -0.5825   -0.3376   -4.3481 H   0  0  0  0  0  0  0  0  0  0  0  0
   -2.4884   -2.3956   -3.0819 H   0  0  0  0  0  0  0  0  0  0  0  0
   -2.7260   -1.6162   -4.6507 H   0  0  0  0  0  0  0  0  0  0  0  0
   -1.3613   -2.7223   -4.4058 H   0  0  0  0  0  0  0  0  0  0  0  0
   -2.6238    1.0812   -3.6943 N   0  0  0  0  0  0  0  0  0  0  0  0
   -3.4944    2.1568   -3.2808 C   0  0  0  0  0  0  0  0  0  0  0  0
   -2.4944    0.9326   -4.6907 H   0  0  0  0  0  0  0  0  0  0  0  0
   -4.5232    1.7798   -3.1835 H   0  0  0  0  0  0  0  0  0  0  0  0
   -3.1553    2.5509   -2.3114 H   0  0  0  0  0  0  0  0  0  0  0  0
   -3.4678    2.9595   -4.0324 H   0  0  0  0  0  0  0  0  0  0  0  0
  1  3  1  0  0  0  0
  1  7  1  0  0  0  0
  1  2  2  0  0  0  0
 21 22  1  0  0  0  0
 22 24  1  0  0  0  0
 22 23  2  0  0  0  0
 32 33  1  0  0  0  0
 33 41  1  0  0  0  0
 33 34  2  0  0  0  0
  8  9  1  0  0  0  0
  9 17  1  0  0  0  0
  9 10  2  0  0  0  0
 18 19  1  0  0  0  0
 19 31  1  0  0  0  0
 19 20  2  0  0  0  0
 32 35  1  0  0  0  0
  8 11  1  0  0  0  0
 41 42  1  0  0  0  0
 18 21  1  0  0  0  0
 31 32  1  0  0  0  0
  7  8  1  0  0  0  0
 17 18  1  0  0  0  0
  3  4  1  0  0  0  0
  3  5  1  0  0  0  0
  3  6  1  0  0  0  0
 35 38  1  0  0  0  0
 35 39  1  0  0  0  0
 35 40  1  0  0  0  0
 11 14  1  0  0  0  0
 11 15  1  0  0  0  0
 11 16  1  0  0  0  0
 42 44  1  0  0  0  0
 42 45  1  0  0  0  0
 42 46  1  0  0  0  0
 21 27  1  0  0  0  0
 21 28  1  0  0  0  0
 32 37  1  0  0  0  0
  8 13  1  0  0  0  0
 18 26  1  0  0  0  0
 24 29  1  0  0  0  0
 24 30  1  0  0  0  0
 41 43  1  0  0  0  0
  7 12  1  0  0  0  0
 31 36  1  0  0  0  0
 17 25  1  0  0  0  0
M  END
$$$$

  -OEChem-05262214473D

 46 45  0     1  0  0  0  0  0999 V2000
   -0.0543    1.9736    3.8406 C   0  0  0  0  0  0  0  0  0  0  0  0
    0.6744    1.6099    4.7562 O   0  0  0  0  0  0  0  0  0  0  0  0
   -0.5599    3.3779    3.8160 C   0  0  0  0  0  0  0  0  0  0  0  0
   -1.5202    3.4885    4.3450 H   0  0  0  0  0  0  0  0  0  0  0  0
    0.1282    4.0814    4.3116 H   0  0  0  0  0  0  0  0  0  0  0  0
   -0.7317    3.7994    2.8126 H   0  0  0  0  0  0  0  0  0  0  0  0
   -0.4812    1.1968    2.7762 N   0  0  0  0  0  0  0  0  0  0  0  0
   -0.1106   -0.1834    2.6051 C   0  0  2  0  0  0  0  0  0  0  0  0
   -0.0696   -0.4775    1.1113 C   0  0  0  0  0  0  0  0  0  0  0  0
   -0.6805    0.1900    0.2792 O   0  0  0  0  0  0  0  0  0  0  0  0
   -1.0852   -1.1101    3.3150 C   0  0  0  0  0  0  0  0  0  0  0  0
   -1.0883    1.6241    2.0791 H   0  0  0  0  0  0  0  0  0  0  0  0
    0.8937   -0.2959    3.0277 H   0  0  0  0  0  0  0  0  0  0  0  0
   -2.0970   -1.0114    2.9051 H   0  0  0  0  0  0  0  0  0  0  0  0
   -0.7860   -2.1580    3.2078 H   0  0  0  0  0  0  0  0  0  0  0  0
   -1.1357   -0.8775    4.3842 H   0  0  0  0  0  0  0  0  0  0  0  0
    0.6950   -1.6003    0.8178 N   0  0  0  0  0  0  0  0  0  0  0  0
    0.8777   -2.0908   -0.5246 C   0  0  2  0  0  0  0  0  0  0  0  0
   -0.3729   -1.7340   -1.3184 C   0  0  0  0  0  0  0  0  0  0  0  0
   -1.4809   -1.6014   -0.8024 O   0  0  0  0  0  0  0  0  0  0  0  0
    1.1200   -3.6001   -0.5513 C   0  0  0  0  0  0  0  0  0  0  0  0
    2.4717   -3.9981    0.0149 C   0  0  0  0  0  0  0  0  0  0  0  0
    3.5171   -3.3968   -0.2131 O   0  0  0  0  0  0  0  0  0  0  0  0
    2.3921   -5.1131    0.8223 N   0  0  0  0  0  0  0  0  0  0  0  0
    1.1810   -2.0803    1.5718 H   0  0  0  0  0  0  0  0  0  0  0  0
    1.7322   -1.5461   -0.9427 H   0  0  0  0  0  0  0  0  0  0  0  0
    0.3567   -4.1178    0.0433 H   0  0  0  0  0  0  0  0  0  0  0  0
    1.0456   -3.9838   -1.5769 H   0  0  0  0  0  0  0  0  0  0  0  0
    1.5045   -5.5766    0.9857 H   0  0  0  0  0  0  0  0  0  0  0  0
    3.2060   -5.5111    1.2800 H   0  0  0  0  0  0  0  0  0  0  0  0
   -0.0999   -1.5312   -2.6639 N   0  0  0  0  0  0  0  0  0  0  0  0
   -1.1276   -1.1579   -3.6060 C   0  0  2  0  0  0  0  0  0  0  0  0
   -1.7623    0.1386   -3.1204 C   0  0  0  0  0  0  0  0  0  0  0  0
   -1.7219    0.5074   -1.9485 O   0  0  0  0  0  0  0  0  0  0  0  0
   -2.1719   -2.2541   -3.7490 C   0  0  0  0  0  0  0  0  0  0  0  0
    0.8501   -1.6385   -3.0068 H   0  0  0  0  0  0  0  0  0  0  0  0
   -0.6288   -0.9839   -4.5657 H   0  0  0  0  0  0  0  0  0  0  0  0
   -2.6824   -2.4424   -2.7974 H   0  0  0  0  0  0  0  0  0  0  0  0
   -2.9352   -1.9813   -4.4852 H   0  0  0  0  0  0  0  0  0  0  0  0
   -1.7092   -3.1937   -4.0696 H   0  0  0  0  0  0  0  0  0  0  0  0
   -2.4162    0.8140   -4.1414 N   0  0  0  0  0  0  0  0  0  0  0  0
   -3.1081    2.0642   -3.9311 C   0  0  0  0  0  0  0  0  0  0  0  0
   -2.3822    0.4443   -5.0869 H   0  0  0  0  0  0  0  0  0  0  0  0
   -4.1665    1.8650   -3.7072 H   0  0  0  0  0  0  0  0  0  0  0  0
   -2.6493    2.5995   -3.0867 H   0  0  0  0  0  0  0  0  0  0  0  0
   -3.0353    2.6807   -4.8392 H   0  0  0  0  0  0  0  0  0  0  0  0
  1  3  1  0  0  0  0
  1  7  1  0  0  0  0
  1  2  2  0  0  0  0
 21 22  1  0  0  0  0
 22 24  1  0  0  0  0
 22 23  2  0  0  0  0
 32 33  1  0  0  0  0
 33 41  1  0  0  0  0
 33 34  2  0  0  0  0
  8  9  1  0  0  0  0
  9 17  1  0  0  0  0
  9 10  2  0  0  0  0
 18 19  1  0  0  0  0
 19 31  1  0  0  0  0
 19 20  2  0  0  0  0
 32 35  1  0  0  0  0
  8 11  1  0  0  0  0
 41 42  1  0  0  0  0
 18 21  1  0  0  0  0
 31 32  1  0  0  0  0
  7  8  1  0  0  0  0
 17 18  1  0  0  0  0
  3  4  1  0  0  0  0
  3  5  1  0  0  0  0
  3  6  1  0  0  0  0
 35 38  1  0  0  0  0
 35 39  1  0  0  0  0
 35 40  1  0  0  0  0
 11 14  1  0  0  0  0
 11 15  1  0  0  0  0
 11 16  1  0  0  0  0
 42 44  1  0  0  0  0
 42 45  1  0  0  0  0
 42 46  1  0  0  0  0
 21 27  1  0  0  0  0
 21 28  1  0  0  0  0
 32 37  1  0  0  0  0
  8 13  1  0  0  0  0
 18 26  1  0  0  0  0
 24 29  1  0  0  0  0
 24 30  1  0  0  0  0
 41 43  1  0  0  0  0
  7 12  1  0  0  0  0
 31 36  1  0  0  0  0
 17 25  1  0  0  0  0
M  END
$$$$

  -OEChem-05262214473D

 46 45  0     1  0  0  0  0  0999 V2000
   -0.0543    1.9736    3.8406 C   0  0  0  0  0  0  0  0  0  0  0  0
    0.6744    1.6099    4.7562 O   0  0  0  0  0  0  0  0  0  0  0  0
   -0.5599    3.3779    3.8160 C   0  0  0  0  0  0  0  0  0  0  0  0
   -1.5202    3.4885    4.3450 H   0  0  0  0  0  0  0  0  0  0  0  0
    0.1282    4.0814    4.3116 H   0  0  0  0  0  0  0  0  0  0  0  0
   -0.7317    3.7994    2.8126 H   0  0  0  0  0  0  0  0  0  0  0  0
   -0.4812    1.1968    2.7762 N   0  0  0  0  0  0  0  0  0  0  0  0
   -0.1106   -0.1834    2.6051 C   0  0  2  0  0  0  0  0  0  0  0  0
   -0.0696   -0.4775    1.1113 C   0  0  0  0  0  0  0  0  0  0  0  0
   -0.6805    0.1900    0.2792 O   0  0  0  0  0  0  0  0  0  0  0  0
   -1.0852   -1.1101    3.3150 C   0  0  0  0  0  0  0  0  0  0  0  0
   -1.0883    1.6241    2.0791 H   0  0  0  0  0  0  0  0  0  0  0  0
    0.8937   -0.2959    3.0277 H   0  0  0  0  0  0  0  0  0  0  0  0
   -2.0970   -1.0114    2.9051 H   0  0  0  0  0  0  0  0  0  0  0  0
   -0.7860   -2.1580    3.2078 H   0  0  0  0  0  0  0  0  0  0  0  0
   -1.1357   -0.8775    4.3842 H   0  0  0  0  0  0  0  0  0  0  0  0
    0.6950   -1.6003    0.8178 N   0  0  0  0  0  0  0  0  0  0  0  0
    0.8777   -2.0908   -0.5246 C   0  0  2  0  0  0  0  0  0  0  0  0
   -0.3729   -1.7340   -1.3184 C   0  0  0  0  0  0  0  0  0  0  0  0
   -1.4127   -1.3416   -0.7929 O   0  0  0  0  0  0  0  0  0  0  0  0
    1.1200   -3.6001   -0.5513 C   0  0  0  0  0  0  0  0  0  0  0  0
    2.4717   -3.9981    0.0149 C   0  0  0  0  0  0  0  0  0  0  0  0
    3.5171   -3.3968   -0.2131 O   0  0  0  0  0  0  0  0  0  0  0  0
    2.3921   -5.1131    0.8223 N   0  0  0  0  0  0  0  0  0  0  0  0
    1.1810   -2.0803    1.5718 H   0  0  0  0  0  0  0  0  0  0  0  0
    1.7322   -1.5461   -0.9427 H   0  0  0  0  0  0  0  0  0  0  0  0
    0.3567   -4.1178    0.0433 H   0  0  0  0  0  0  0  0  0  0  0  0
    1.0456   -3.9838   -1.5769 H   0  0  0  0  0  0  0  0  0  0  0  0
    1.5045   -5.5766    0.9857 H   0  0  0  0  0  0  0  0  0  0  0  0
    3.2060   -5.5111    1.2800 H   0  0  0  0  0  0  0  0  0  0  0  0
   -0.1781   -1.8566   -2.6869 N   0  0  0  0  0  0  0  0  0  0  0  0
   -1.2173   -1.5462   -3.6393 C   0  0  2  0  0  0  0  0  0  0  0  0
   -1.6421   -0.1006   -3.4173 C   0  0  0  0  0  0  0  0  0  0  0  0
   -1.4667    0.4947   -2.3562 O   0  0  0  0  0  0  0  0  0  0  0  0
   -2.4014   -2.4892   -3.4932 C   0  0  0  0  0  0  0  0  0  0  0  0
    0.7218   -2.1662   -3.0419 H   0  0  0  0  0  0  0  0  0  0  0  0
   -0.7738   -1.6483   -4.6357 H   0  0  0  0  0  0  0  0  0  0  0  0
   -2.8588   -2.4011   -2.5010 H   0  0  0  0  0  0  0  0  0  0  0  0
   -3.1765   -2.2706   -4.2350 H   0  0  0  0  0  0  0  0  0  0  0  0
   -2.0885   -3.5308   -3.6236 H   0  0  0  0  0  0  0  0  0  0  0  0
   -2.2788    0.4328   -4.5291 N   0  0  0  0  0  0  0  0  0  0  0  0
   -2.7868    1.7844   -4.5630 C   0  0  0  0  0  0  0  0  0  0  0  0
   -2.3637   -0.1267   -5.3727 H   0  0  0  0  0  0  0  0  0  0  0  0
   -3.8421    1.7879   -4.2527 H   0  0  0  0  0  0  0  0  0  0  0  0
   -2.2009    2.4135   -3.8767 H   0  0  0  0  0  0  0  0  0  0  0  0
   -2.7040    2.1816   -5.5854 H   0  0  0  0  0  0  0  0  0  0  0  0
  1  3  1  0  0  0  0
  1  7  1  0  0  0  0
  1  2  2  0  0  0  0
 21 22  1  0  0  0  0
 22 24  1  0  0  0  0
 22 23  2  0  0  0  0
 32 33  1  0  0  0  0
 33 41  1  0  0  0  0
 33 34  2  0  0  0  0
  8  9  1  0  0  0  0
  9 17  1  0  0  0  0
  9 10  2  0  0  0  0
 18 19  1  0  0  0  0
 19 31  1  0  0  0  0
 19 20  2  0  0  0  0
 32 35  1  0  0  0  0
  8 11  1  0  0  0  0
 41 42  1  0  0  0  0
 18 21  1  0  0  0  0
 31 32  1  0  0  0  0
  7  8  1  0  0  0  0
 17 18  1  0  0  0  0
  3  4  1  0  0  0  0
  3  5  1  0  0  0  0
  3  6  1  0  0  0  0
 35 38  1  0  0  0  0
 35 39  1  0  0  0  0
 35 40  1  0  0  0  0
 11 14  1  0  0  0  0
 11 15  1  0  0  0  0
 11 16  1  0  0  0  0
 42 44  1  0  0  0  0
 42 45  1  0  0  0  0
 42 46  1  0  0  0  0
 21 27  1  0  0  0  0
 21 28  1  0  0  0  0
 32 37  1  0  0  0  0
  8 13  1  0  0  0  0
 18 26  1  0  0  0  0
 24 29  1  0  0  0  0
 24 30  1  0  0  0  0
 41 43  1  0  0  0  0
  7 12  1  0  0  0  0
 31 36  1  0  0  0  0
 17 25  1  0  0  0  0
M  END
$$$$

  -OEChem-05262214473D

 46 45  0     1  0  0  0  0  0999 V2000
   -0.0543    1.9736    3.8406 C   0  0  0  0  0  0  0  0  0  0  0  0
    0.6744    1.6099    4.7562 O   0  0  0  0  0  0  0  0  0  0  0  0
   -0.5599    3.3779    3.8160 C   0  0  0  0  0  0  0  0  0  0  0  0
   -1.5202    3.4885    4.3450 H   0  0  0  0  0  0  0  0  0  0  0  0
    0.1282    4.0814    4.3116 H   0  0  0  0  0  0  0  0  0  0  0  0
   -0.7317    3.7994    2.8126 H   0  0  0  0  0  0  0  0  0  0  0  0
   -0.4812    1.1968    2.7762 N   0  0  0  0  0  0  0  0  0  0  0  0
   -0.1106   -0.1834    2.6051 C   0  0  2  0  0  0  0  0  0  0  0  0
   -0.0696   -0.4775    1.1113 C   0  0  0  0  0  0  0  0  0  0  0  0
   -0.6805    0.1900    0.2792 O   0  0  0  0  0  0  0  0  0  0  0  0
   -1.0852   -1.1101    3.3150 C   0  0  0  0  0  0  0  0  0  0  0  0
   -1.0883    1.6241    2.0791 H   0  0  0  0  0  0  0  0  0  0  0  0
    0.8937   -0.2959    3.0277 H   0  0  0  0  0  0  0  0  0  0  0  0
   -2.0970   -1.0114    2.9051 H   0  0  0  0  0  0  0  0  0  0  0  0
   -0.7860   -2.1580    3.2078 H   0  0  0  0  0  0  0  0  0  0  0  0
   -1.1357   -0.8775    4.3842 H   0  0  0  0  0  0  0  0  0  0  0  0
    0.6950   -1.6003    0.8178 N   0  0  0  0  0  0  0  0  0  0  0  0
    0.8777   -2.0908   -0.5246 C   0  0  2  0  0  0  0  0  0  0  0  0
   -0.1723   -1.4239   -1.4044 C   0  0  0  0  0  0  0  0  0  0  0  0
   -0.9706   -0.5896   -0.9824 O   0  0  0  0  0  0  0  0  0  0  0  0
    0.7526   -3.6128   -0.5966 C   0  0  0  0  0  0  0  0  0  0  0  0
    1.9114   -4.3393    0.0634 C   0  0  0  0  0  0  0  0  0  0  0  0
    3.0869   -4.0047   -0.0495 O   0  0  0  0  0  0  0  0  0  0  0  0
    1.4929   -5.4191    0.8117 N   0  0  0  0  0  0  0  0  0  0  0  0
    1.1810   -2.0803    1.5718 H   0  0  0  0  0  0  0  0  0  0  0  0
    1.8726   -1.7606   -0.8452 H   0  0  0  0  0  0  0  0  0  0  0  0
   -0.1639   -3.9429   -0.0915 H   0  0  0  0  0  0  0  0  0  0  0  0
    0.6833   -3.9443   -1.6406 H   0  0  0  0  0  0  0  0  0  0  0  0
    0.5090   -5.6569    0.8795 H   0  0  0  0  0  0  0  0  0  0  0  0
    2.1419   -6.0126    1.3185 H   0  0  0  0  0  0  0  0  0  0  0  0
   -0.0828   -1.8311   -2.7281 N   0  0  0  0  0  0  0  0  0  0  0  0
   -0.9596   -1.3118   -3.7501 C   0  0  2  0  0  0  0  0  0  0  0  0
   -0.8023    0.2028   -3.7796 C   0  0  0  0  0  0  0  0  0  0  0  0
   -0.3814    0.8522   -2.8244 O   0  0  0  0  0  0  0  0  0  0  0  0
   -2.4059   -1.7031   -3.4896 C   0  0  0  0  0  0  0  0  0  0  0  0
    0.6227   -2.5096   -2.9998 H   0  0  0  0  0  0  0  0  0  0  0  0
   -0.6199   -1.7334   -4.7024 H   0  0  0  0  0  0  0  0  0  0  0  0
   -2.7639   -1.2897   -2.5396 H   0  0  0  0  0  0  0  0  0  0  0  0
   -3.0659   -1.3326   -4.2809 H   0  0  0  0  0  0  0  0  0  0  0  0
   -2.5119   -2.7921   -3.4391 H   0  0  0  0  0  0  0  0  0  0  0  0
   -1.2279    0.7484   -4.9826 N   0  0  0  0  0  0  0  0  0  0  0  0
   -1.1914    2.1670   -5.2516 C   0  0  0  0  0  0  0  0  0  0  0  0
   -1.5444    0.1330   -5.7262 H   0  0  0  0  0  0  0  0  0  0  0  0
   -2.1572    2.6173   -4.9791 H   0  0  0  0  0  0  0  0  0  0  0  0
   -0.3899    2.6319   -4.6588 H   0  0  0  0  0  0  0  0  0  0  0  0
   -0.9988    2.3322   -6.3219 H   0  0  0  0  0  0  0  0  0  0  0  0
  1  3  1  0  0  0  0
  1  7  1  0  0  0  0
  1  2  2  0  0  0  0
 21 22  1  0  0  0  0
 22 24  1  0  0  0  0
 22 23  2  0  0  0  0
 32 33  1  0  0  0  0
 33 41  1  0  0  0  0
 33 34  2  0  0  0  0
  8  9  1  0  0  0  0
  9 17  1  0  0  0  0
  9 10  2  0  0  0  0
 18 19  1  0  0  0  0
 19 31  1  0  0  0  0
 19 20  2  0  0  0  0
 32 35  1  0  0  0  0
  8 11  1  0  0  0  0
 41 42  1  0  0  0  0
 18 21  1  0  0  0  0
 31 32  1  0  0  0  0
  7  8  1  0  0  0  0
 17 18  1  0  0  0  0
  3  4  1  0  0  0  0
  3  5  1  0  0  0  0
  3  6  1  0  0  0  0
 35 38  1  0  0  0  0
 35 39  1  0  0  0  0
 35 40  1  0  0  0  0
 11 14  1  0  0  0  0
 11 15  1  0  0  0  0
 11 16  1  0  0  0  0
 42 44  1  0  0  0  0
 42 45  1  0  0  0  0
 42 46  1  0  0  0  0
 21 27  1  0  0  0  0
 21 28  1  0  0  0  0
 32 37  1  0  0  0  0
  8 13  1  0  0  0  0
 18 26  1  0  0  0  0
 24 29  1  0  0  0  0
 24 30  1  0  0  0  0
 41 43  1  0  0  0  0
  7 12  1  0  0  0  0
 31 36  1  0  0  0  0
 17 25  1  0  0  0  0
M  END
$$$$

  -OEChem-05262214473D

 46 45  0     1  0  0  0  0  0999 V2000
   -0.0543    1.9736    3.8406 C   0  0  0  0  0  0  0  0  0  0  0  0
    0.6744    1.6099    4.7562 O   0  0  0  0  0  0  0  0  0  0  0  0
   -0.5599    3.3779    3.8160 C   0  0  0  0  0  0  0  0  0  0  0  0
   -1.5202    3.4885    4.3450 H   0  0  0  0  0  0  0  0  0  0  0  0
    0.1282    4.0814    4.3116 H   0  0  0  0  0  0  0  0  0  0  0  0
   -0.7317    3.7994    2.8126 H   0  0  0  0  0  0  0  0  0  0  0  0
   -0.4812    1.1968    2.7762 N   0  0  0  0  0  0  0  0  0  0  0  0
   -0.1106   -0.1834    2.6051 C   0  0  2  0  0  0  0  0  0  0  0  0
   -0.0696   -0.4775    1.1113 C   0  0  0  0  0  0  0  0  0  0  0  0
   -0.6805    0.1900    0.2792 O   0  0  0  0  0  0  0  0  0  0  0  0
   -1.0852   -1.1101    3.3150 C   0  0  0  0  0  0  0  0  0  0  0  0
   -1.0883    1.6241    2.0791 H   0  0  0  0  0  0  0  0  0  0  0  0
    0.8937   -0.2959    3.0277 H   0  0  0  0  0  0  0  0  0  0  0  0
   -2.0970   -1.0114    2.9051 H   0  0  0  0  0  0  0  0  0  0  0  0
   -0.7860   -2.1580    3.2078 H   0  0  0  0  0  0  0  0  0  0  0  0
   -1.1357   -0.8775    4.3842 H   0  0  0  0  0  0  0  0  0  0  0  0
    0.6950   -1.6003    0.8178 N   0  0  0  0  0  0  0  0  0  0  0  0
    0.8777   -2.0908   -0.5246 C   0  0  2  0  0  0  0  0  0  0  0  0
   -0.1723   -1.4239   -1.4044 C   0  0  0  0  0  0  0  0  0  0  0  0
   -0.7866   -0.4134   -1.0684 O   0  0  0  0  0  0  0  0  0  0  0  0
    0.7526   -3.6128   -0.5966 C   0  0  0  0  0  0  0  0  0  0  0  0
    1.9114   -4.3393    0.0634 C   0  0  0  0  0  0  0  0  0  0  0  0
    3.0869   -4.0047   -0.0495 O   0  0  0  0  0  0  0  0  0  0  0  0
    1.4929   -5.4191    0.8117 N   0  0  0  0  0  0  0  0  0  0  0  0
    1.1810   -2.0803    1.5718 H   0  0  0  0  0  0  0  0  0  0  0  0
    1.8726   -1.7606   -0.8452 H   0  0  0  0  0  0  0  0  0  0  0  0
   -0.1639   -3.9429   -0.0915 H   0  0  0  0  0  0  0  0  0  0  0  0
    0.6833   -3.9443   -1.6406 H   0  0  0  0  0  0  0  0  0  0  0  0
    0.5090   -5.6569    0.8795 H   0  0  0  0  0  0  0  0  0  0  0  0
    2.1419   -6.0126    1.3185 H   0  0  0  0  0  0  0  0  0  0  0  0
   -0.3090   -2.0589   -2.6308 N   0  0  0  0  0  0  0  0  0  0  0  0
   -1.2275   -1.5873   -3.6393 C   0  0  2  0  0  0  0  0  0  0  0  0
   -0.8659   -0.1446   -3.9669 C   0  0  0  0  0  0  0  0  0  0  0  0
   -0.2410    0.5818   -3.1969 O   0  0  0  0  0  0  0  0  0  0  0  0
   -2.6693   -1.6926   -3.1673 C   0  0  0  0  0  0  0  0  0  0  0  0
    0.2550   -2.8775   -2.8398 H   0  0  0  0  0  0  0  0  0  0  0  0
   -1.0733   -2.2132   -4.5250 H   0  0  0  0  0  0  0  0  0  0  0  0
   -2.8429   -1.0721   -2.2805 H   0  0  0  0  0  0  0  0  0  0  0  0
   -3.3663   -1.3612   -3.9441 H   0  0  0  0  0  0  0  0  0  0  0  0
   -2.9186   -2.7261   -2.9038 H   0  0  0  0  0  0  0  0  0  0  0  0
   -1.3605    0.2498   -5.2023 N   0  0  0  0  0  0  0  0  0  0  0  0
   -1.1614    1.5778   -5.7340 C   0  0  0  0  0  0  0  0  0  0  0  0
   -1.8514   -0.4243   -5.7823 H   0  0  0  0  0  0  0  0  0  0  0  0
   -2.0127    2.2163   -5.4556 H   0  0  0  0  0  0  0  0  0  0  0  0
   -0.2343    2.0025   -5.3216 H   0  0  0  0  0  0  0  0  0  0  0  0
   -1.0850    1.5260   -6.8302 H   0  0  0  0  0  0  0  0  0  0  0  0
  1  3  1  0  0  0  0
  1  7  1  0  0  0  0
  1  2  2  0  0  0  0
 21 22  1  0  0  0  0
 22 24  1  0  0  0  0
 22 23  2  0  0  0  0
 32 33  1  0  0  0  0
 33 41  1  0  0  0  0
 33 34  2  0  0  0  0
  8  9  1  0  0  0  0
  9 17  1  0  0  0  0
  9 10  2  0  0  0  0
 18 19  1  0  0  0  0
 19 31  1  0  0  0  0
 19 20  2  0  0  0  0
 32 35  1  0  0  0  0
  8 11  1  0  0  0  0
 41 42  1  0  0  0  0
 18 21  1  0  0  0  0
 31 32  1  0  0  0  0
  7  8  1  0  0  0  0
 17 18  1  0  0  0  0
  3  4  1  0  0  0  0
  3  5  1  0  0  0  0
  3  6  1  0  0  0  0
 35 38  1  0  0  0  0
 35 39  1  0  0  0  0
 35 40  1  0  0  0  0
 11 14  1  0  0  0  0
 11 15  1  0  0  0  0
 11 16  1  0  0  0  0
 42 44  1  0  0  0  0
 42 45  1  0  0  0  0
 42 46  1  0  0  0  0
 21 27  1  0  0  0  0
 21 28  1  0  0  0  0
 32 37  1  0  0  0  0
  8 13  1  0  0  0  0
 18 26  1  0  0  0  0
 24 29  1  0  0  0  0
 24 30  1  0  0  0  0
 41 43  1  0  0  0  0
  7 12  1  0  0  0  0
 31 36  1  0  0  0  0
 17 25  1  0  0  0  0
M  END
$$$$

  -OEChem-05262214473D

 46 45  0     1  0  0  0  0  0999 V2000
   -0.0543    1.9736    3.8406 C   0  0  0  0  0  0  0  0  0  0  0  0
    0.6744    1.6099    4.7562 O   0  0  0  0  0  0  0  0  0  0  0  0
   -0.5599    3.3779    3.8160 C   0  0  0  0  0  0  0  0  0  0  0  0
   -1.5202    3.4885    4.3450 H   0  0  0  0  0  0  0  0  0  0  0  0
    0.1282    4.0814    4.3116 H   0  0  0  0  0  0  0  0  0  0  0  0
   -0.7317    3.7994    2.8126 H   0  0  0  0  0  0  0  0  0  0  0  0
   -0.4812    1.1968    2.7762 N   0  0  0  0  0  0  0  0  0  0  0  0
   -0.1106   -0.1834    2.6051 C   0  0  2  0  0  0  0  0  0  0  0  0
   -0.0696   -0.4775    1.1113 C   0  0  0  0  0  0  0  0  0  0  0  0
   -0.6805    0.1900    0.2792 O   0  0  0  0  0  0  0  0  0  0  0  0
   -1.0852   -1.1101    3.3150 C   0  0  0  0  0  0  0  0  0  0  0  0
   -1.0883    1.6241    2.0791 H   0  0  0  0  0  0  0  0  0  0  0  0
    0.8937   -0.2959    3.0277 H   0  0  0  0  0  0  0  0  0  0  0  0
   -2.0970   -1.0114    2.9051 H   0  0  0  0  0  0  0  0  0  0  0  0
   -0.7860   -2.1580    3.2078 H   0  0  0  0  0  0  0  0  0  0  0  0
   -1.1357   -0.8775    4.3842 H   0  0  0  0  0  0  0  0  0  0  0  0
    0.6950   -1.6003    0.8178 N   0  0  0  0  0  0  0  0  0  0  0  0
    0.8777   -2.0908   -0.5246 C   0  0  2  0  0  0  0  0  0  0  0  0
   -0.1723   -1.4239   -1.4044 C   0  0  0  0  0  0  0  0  0  0  0  0
   -0.5924   -0.2861   -1.2037 O   0  0  0  0  0  0  0  0  0  0  0  0
    0.7526   -3.6128   -0.5966 C   0  0  0  0  0  0  0  0  0  0  0  0
    1.9114   -4.3393    0.0634 C   0  0  0  0  0  0  0  0  0  0  0  0
    3.0869   -4.0047   -0.0495 O   0  0  0  0  0  0  0  0  0  0  0  0
    1.4929   -5.4191    0.8117 N   0  0  0  0  0  0  0  0  0  0  0  0
    1.1810   -2.0803    1.5718 H   0  0  0  0  0  0  0  0  0  0  0  0
    1.8726   -1.7606   -0.8452 H   0  0  0  0  0  0  0  0  0  0  0  0
   -0.1639   -3.9429   -0.0915 H   0  0  0  0  0  0  0  0  0  0  0  0
    0.6833   -3.9443   -1.6406 H   0  0  0  0  0  0  0  0  0  0  0  0
    0.5090   -5.6569    0.8795 H   0  0  0  0  0  0  0  0  0  0  0  0
    2.1419   -6.0126    1.3185 H   0  0  0  0  0  0  0  0  0  0  0  0
   -0.5505   -2.2278   -2.4706 N   0  0  0  0  0  0  0  0  0  0  0  0
   -1.5148   -1.7936   -3.4528 C   0  0  2  0  0  0  0  0  0  0  0  0
   -1.0005   -0.5040   -4.0788 C   0  0  0  0  0  0  0  0  0  0  0  0
   -0.1880    0.2333   -3.5244 O   0  0  0  0  0  0  0  0  0  0  0  0
   -2.8856   -1.5856   -2.8280 C   0  0  0  0  0  0  0  0  0  0  0  0
   -0.1371   -3.1493   -2.5780 H   0  0  0  0  0  0  0  0  0  0  0  0
   -1.5629   -2.5772   -4.2167 H   0  0  0  0  0  0  0  0  0  0  0  0
   -2.8572   -0.8039   -2.0601 H   0  0  0  0  0  0  0  0  0  0  0  0
   -3.6226   -1.2838   -3.5796 H   0  0  0  0  0  0  0  0  0  0  0  0
   -3.2409   -2.5061   -2.3523 H   0  0  0  0  0  0  0  0  0  0  0  0
   -1.5881   -0.2512   -5.3105 N   0  0  0  0  0  0  0  0  0  0  0  0
   -1.2751    0.9181   -6.0983 C   0  0  0  0  0  0  0  0  0  0  0  0
   -2.2376   -0.9268   -5.7023 H   0  0  0  0  0  0  0  0  0  0  0  0
   -1.9870    1.7223   -5.8607 H   0  0  0  0  0  0  0  0  0  0  0  0
   -0.2532    1.2531   -5.8671 H   0  0  0  0  0  0  0  0  0  0  0  0
   -1.3464    0.6696   -7.1675 H   0  0  0  0  0  0  0  0  0  0  0  0
  1  3  1  0  0  0  0
  1  7  1  0  0  0  0
  1  2  2  0  0  0  0
 21 22  1  0  0  0  0
 22 24  1  0  0  0  0
 22 23  2  0  0  0  0
 32 33  1  0  0  0  0
 33 41  1  0  0  0  0
 33 34  2  0  0  0  0
  8  9  1  0  0  0  0
  9 17  1  0  0  0  0
  9 10  2  0  0  0  0
 18 19  1  0  0  0  0
 19 31  1  0  0  0  0
 19 20  2  0  0  0  0
 32 35  1  0  0  0  0
  8 11  1  0  0  0  0
 41 42  1  0  0  0  0
 18 21  1  0  0  0  0
 31 32  1  0  0  0  0
  7  8  1  0  0  0  0
 17 18  1  0  0  0  0
  3  4  1  0  0  0  0
  3  5  1  0  0  0  0
  3  6  1  0  0  0  0
 35 38  1  0  0  0  0
 35 39  1  0  0  0  0
 35 40  1  0  0  0  0
 11 14  1  0  0  0  0
 11 15  1  0  0  0  0
 11 16  1  0  0  0  0
 42 44  1  0  0  0  0
 42 45  1  0  0  0  0
 42 46  1  0  0  0  0
 21 27  1  0  0  0  0
 21 28  1  0  0  0  0
 32 37  1  0  0  0  0
  8 13  1  0  0  0  0
 18 26  1  0  0  0  0
 24 29  1  0  0  0  0
 24 30  1  0  0  0  0
 41 43  1  0  0  0  0
  7 12  1  0  0  0  0
 31 36  1  0  0  0  0
 17 25  1  0  0  0  0
M  END
$$$$

  -OEChem-05262214473D

 46 45  0     1  0  0  0  0  0999 V2000
   -0.0543    1.9736    3.8406 C   0  0  0  0  0  0  0  0  0  0  0  0
    0.6744    1.6099    4.7562 O   0  0  0  0  0  0  0  0  0  0  0  0
   -0.5599    3.3779    3.8160 C   0  0  0  0  0  0  0  0  0  0  0  0
   -1.5202    3.4885    4.3450 H   0  0  0  0  0  0  0  0  0  0  0  0
    0.1282    4.0814    4.3116 H   0  0  0  0  0  0  0  0  0  0  0  0
   -0.7317    3.7994    2.8126 H   0  0  0  0  0  0  0  0  0  0  0  0
   -0.4812    1.1968    2.7762 N   0  0  0  0  0  0  0  0  0  0  0  0
   -0.1106   -0.1834    2.6051 C   0  0  2  0  0  0  0  0  0  0  0  0
   -0.0696   -0.4775    1.1113 C   0  0  0  0  0  0  0  0  0  0  0  0
   -0.6805    0.1900    0.2792 O   0  0  0  0  0  0  0  0  0  0  0  0
   -1.0852   -1.1101    3.3150 C   0  0  0  0  0  0  0  0  0  0  0  0
   -1.0883    1.6241    2.0791 H   0  0  0  0  0  0  0  0  0  0  0  0
    0.8937   -0.2959    3.0277 H   0  0  0  0  0  0  0  0  0  0  0  0
   -2.0970   -1.0114    2.9051 H   0  0  0  0  0  0  0  0  0  0  0  0
   -0.7860   -2.1580    3.2078 H   0  0  0  0  0  0  0  0  0  0  0  0
   -1.1357   -0.8775    4.3842 H   0  0  0  0  0  0  0  0  0  0  0  0
    0.6950   -1.6003    0.8178 N   0  0  0  0  0  0  0  0  0  0  0  0
    0.8777   -2.0908   -0.5246 C   0  0  2  0  0  0  0  0  0  0  0  0
   -0.1723   -1.4239   -1.4044 C   0  0  0  0  0  0  0  0  0  0  0  0
   -0.4010   -0.2162   -1.3791 O   0  0  0  0  0  0  0  0  0  0  0  0
    0.7526   -3.6128   -0.5966 C   0  0  0  0  0  0  0  0  0  0  0  0
    1.9114   -4.3393    0.0634 C   0  0  0  0  0  0  0  0  0  0  0  0
    3.0869   -4.0047   -0.0495 O   0  0  0  0  0  0  0  0  0  0  0  0
    1.4929   -5.4191    0.8117 N   0  0  0  0  0  0  0  0  0  0  0  0
    1.1810   -2.0803    1.5718 H   0  0  0  0  0  0  0  0  0  0  0  0
    1.8726   -1.7606   -0.8452 H   0  0  0  0  0  0  0  0  0  0  0  0
   -0.1639   -3.9429   -0.0915 H   0  0  0  0  0  0  0  0  0  0  0  0
    0.6833   -3.9443   -1.6406 H   0  0  0  0  0  0  0  0  0  0  0  0
    0.5090   -5.6569    0.8795 H   0  0  0  0  0  0  0  0  0  0  0  0
    2.1419   -6.0126    1.3185 H   0  0  0  0  0  0  0  0  0  0  0  0
   -0.7908   -2.3262   -2.2584 N   0  0  0  0  0  0  0  0  0  0  0  0
   -1.8021   -1.9167   -3.2032 C   0  0  2  0  0  0  0  0  0  0  0  0
   -1.1969   -0.8510   -4.1075 C   0  0  0  0  0  0  0  0  0  0  0  0
   -0.2260   -0.1697   -3.7845 O   0  0  0  0  0  0  0  0  0  0  0  0
   -3.0401   -1.3893   -2.4949 C   0  0  0  0  0  0  0  0  0  0  0  0
   -0.5267   -3.3067   -2.2323 H   0  0  0  0  0  0  0  0  0  0  0  0
   -2.0553   -2.8007   -3.7985 H   0  0  0  0  0  0  0  0  0  0  0  0
   -2.8061   -0.5034   -1.8933 H   0  0  0  0  0  0  0  0  0  0  0  0
   -3.8172   -1.1058   -3.2123 H   0  0  0  0  0  0  0  0  0  0  0  0
   -3.4569   -2.1470   -1.8225 H   0  0  0  0  0  0  0  0  0  0  0  0
   -1.8950   -0.7204   -5.2998 N   0  0  0  0  0  0  0  0  0  0  0  0
   -1.5248    0.2330   -6.3196 C   0  0  0  0  0  0  0  0  0  0  0  0
   -2.6766   -1.3401   -5.4917 H   0  0  0  0  0  0  0  0  0  0  0  0
   -2.0819    1.1691   -6.1668 H   0  0  0  0  0  0  0  0  0  0  0  0
   -0.4452    0.4347   -6.2582 H   0  0  0  0  0  0  0  0  0  0  0  0
   -1.7650   -0.1789   -7.3109 H   0  0  0  0  0  0  0  0  0  0  0  0
  1  3  1  0  0  0  0
  1  7  1  0  0  0  0
  1  2  2  0  0  0  0
 21 22  1  0  0  0  0
 22 24  1  0  0  0  0
 22 23  2  0  0  0  0
 32 33  1  0  0  0  0
 33 41  1  0  0  0  0
 33 34  2  0  0  0  0
  8  9  1  0  0  0  0
  9 17  1  0  0  0  0
  9 10  2  0  0  0  0
 18 19  1  0  0  0  0
 19 31  1  0  0  0  0
 19 20  2  0  0  0  0
 32 35  1  0  0  0  0
  8 11  1  0  0  0  0
 41 42  1  0  0  0  0
 18 21  1  0  0  0  0
 31 32  1  0  0  0  0
  7  8  1  0  0  0  0
 17 18  1  0  0  0  0
  3  4  1  0  0  0  0
  3  5  1  0  0  0  0
  3  6  1  0  0  0  0
 35 38  1  0  0  0  0
 35 39  1  0  0  0  0
 35 40  1  0  0  0  0
 11 14  1  0  0  0  0
 11 15  1  0  0  0  0
 11 16  1  0  0  0  0
 42 44  1  0  0  0  0
 42 45  1  0  0  0  0
 42 46  1  0  0  0  0
 21 27  1  0  0  0  0
 21 28  1  0  0  0  0
 32 37  1  0  0  0  0
  8 13  1  0  0  0  0
 18 26  1  0  0  0  0
 24 29  1  0  0  0  0
 24 30  1  0  0  0  0
 41 43  1  0  0  0  0
  7 12  1  0  0  0  0
 31 36  1  0  0  0  0
 17 25  1  0  0  0  0
M  END
$$$$

  -OEChem-05262214473D

 46 45  0     1  0  0  0  0  0999 V2000
   -0.0543    1.9736    3.8406 C   0  0  0  0  0  0  0  0  0  0  0  0
    0.6744    1.6099    4.7562 O   0  0  0  0  0  0  0  0  0  0  0  0
   -0.5599    3.3779    3.8160 C   0  0  0  0  0  0  0  0  0  0  0  0
   -1.5202    3.4885    4.3450 H   0  0  0  0  0  0  0  0  0  0  0  0
    0.1282    4.0814    4.3116 H   0  0  0  0  0  0  0  0  0  0  0  0
   -0.7317    3.7994    2.8126 H   0  0  0  0  0  0  0  0  0  0  0  0
   -0.4812    1.1968    2.7762 N   0  0  0  0  0  0  0  0  0  0  0  0
   -0.1106   -0.1834    2.6051 C   0  0  2  0  0  0  0  0  0  0  0  0
   -0.0696   -0.4775    1.1113 C   0  0  0  0  0  0  0  0  0  0  0  0
   -0.6805    0.1900    0.2792 O   0  0  0  0  0  0  0  0  0  0  0  0
   -1.0852   -1.1101    3.3150 C   0  0  0  0  0  0  0  0  0  0  0  0
   -1.0883    1.6241    2.0791 H   0  0  0  0  0  0  0  0  0  0  0  0
    0.8937   -0.2959    3.0277 H   0  0  0  0  0  0  0  0  0  0  0  0
   -2.0970   -1.0114    2.9051 H   0  0  0  0  0  0  0  0  0  0  0  0
   -0.7860   -2.1580    3.2078 H   0  0  0  0  0  0  0  0  0  0  0  0
   -1.1357   -0.8775    4.3842 H   0  0  0  0  0  0  0  0  0  0  0  0
    0.6950   -1.6003    0.8178 N   0  0  0  0  0  0  0  0  0  0  0  0
    0.8777   -2.0908   -0.5246 C   0  0  2  0  0  0  0  0  0  0  0  0
   -0.1723   -1.4239   -1.4044 C   0  0  0  0  0  0  0  0  0  0  0  0
   -0.2256   -0.2087   -1.5827 O   0  0  0  0  0  0  0  0  0  0  0  0
    0.7526   -3.6128   -0.5966 C   0  0  0  0  0  0  0  0  0  0  0  0
    1.9114   -4.3393    0.0634 C   0  0  0  0  0  0  0  0  0  0  0  0
    3.0869   -4.0047   -0.0495 O   0  0  0  0  0  0  0  0  0  0  0  0
    1.4929   -5.4191    0.8117 N   0  0  0  0  0  0  0  0  0  0  0  0
    1.1810   -2.0803    1.5718 H   0  0  0  0  0  0  0  0  0  0  0  0
    1.8726   -1.7606   -0.8452 H   0  0  0  0  0  0  0  0  0  0  0  0
   -0.1639   -3.9429   -0.0915 H   0  0  0  0  0  0  0  0  0  0  0  0
    0.6833   -3.9443   -1.6406 H   0  0  0  0  0  0  0  0  0  0  0  0
    0.5090   -5.6569    0.8795 H   0  0  0  0  0  0  0  0  0  0  0  0
    2.1419   -6.0126    1.3185 H   0  0  0  0  0  0  0  0  0  0  0  0
   -1.0137   -2.3475   -2.0086 N   0  0  0  0  0  0  0  0  0  0  0  0
   -2.0697   -1.9481   -2.9077 C   0  0  2  0  0  0  0  0  0  0  0  0
   -1.4417   -1.1620   -4.0510 C   0  0  0  0  0  0  0  0  0  0  0  0
   -0.3524   -0.5997   -3.9596 O   0  0  0  0  0  0  0  0  0  0  0  0
   -3.1223   -1.1173   -2.1905 C   0  0  0  0  0  0  0  0  0  0  0  0
   -0.8875   -3.3387   -1.8261 H   0  0  0  0  0  0  0  0  0  0  0  0
   -2.5169   -2.8684   -3.2989 H   0  0  0  0  0  0  0  0  0  0  0  0
   -2.6929   -0.1910   -1.7917 H   0  0  0  0  0  0  0  0  0  0  0  0
   -3.9371   -0.8392   -2.8672 H   0  0  0  0  0  0  0  0  0  0  0  0
   -3.5518   -1.6734   -1.3502 H   0  0  0  0  0  0  0  0  0  0  0  0
   -2.2604   -1.1259   -5.1711 N   0  0  0  0  0  0  0  0  0  0  0  0
   -1.8935   -0.4310   -6.3829 C   0  0  0  0  0  0  0  0  0  0  0  0
   -3.1386   -1.6362   -5.1648 H   0  0  0  0  0  0  0  0  0  0  0  0
   -2.2909    0.5943   -6.3530 H   0  0  0  0  0  0  0  0  0  0  0  0
   -0.7973   -0.3968   -6.4683 H   0  0  0  0  0  0  0  0  0  0  0  0
   -2.3125   -0.9614   -7.2507 H   0  0  0  0  0  0  0  0  0  0  0  0
  1  3  1  0  0  0  0
  1  7  1  0  0  0  0
  1  2  2  0  0  0  0
 21 22  1  0  0  0  0
 22 24  1  0  0  0  0
 22 23  2  0  0  0  0
 32 33  1  0  0  0  0
 33 41  1  0  0  0  0
 33 34  2  0  0  0  0
  8  9  1  0  0  0  0
  9 17  1  0  0  0  0
  9 10  2  0  0  0  0
 18 19  1  0  0  0  0
 19 31  1  0  0  0  0
 19 20  2  0  0  0  0
 32 35  1  0  0  0  0
  8 11  1  0  0  0  0
 41 42  1  0  0  0  0
 18 21  1  0  0  0  0
 31 32  1  0  0  0  0
  7  8  1  0  0  0  0
 17 18  1  0  0  0  0
  3  4  1  0  0  0  0
  3  5  1  0  0  0  0
  3  6  1  0  0  0  0
 35 38  1  0  0  0  0
 35 39  1  0  0  0  0
 35 40  1  0  0  0  0
 11 14  1  0  0  0  0
 11 15  1  0  0  0  0
 11 16  1  0  0  0  0
 42 44  1  0  0  0  0
 42 45  1  0  0  0  0
 42 46  1  0  0  0  0
 21 27  1  0  0  0  0
 21 28  1  0  0  0  0
 32 37  1  0  0  0  0
  8 13  1  0  0  0  0
 18 26  1  0  0  0  0
 24 29  1  0  0  0  0
 24 30  1  0  0  0  0
 41 43  1  0  0  0  0
  7 12  1  0  0  0  0
 31 36  1  0  0  0  0
 17 25  1  0  0  0  0
M  END
$$$$

  -OEChem-05262214473D

 46 45  0     1  0  0  0  0  0999 V2000
   -0.0543    1.9736    3.8406 C   0  0  0  0  0  0  0  0  0  0  0  0
    0.6744    1.6099    4.7562 O   0  0  0  0  0  0  0  0  0  0  0  0
   -0.5599    3.3779    3.8160 C   0  0  0  0  0  0  0  0  0  0  0  0
   -1.5202    3.4885    4.3450 H   0  0  0  0  0  0  0  0  0  0  0  0
    0.1282    4.0814    4.3116 H   0  0  0  0  0  0  0  0  0  0  0  0
   -0.7317    3.7994    2.8126 H   0  0  0  0  0  0  0  0  0  0  0  0
   -0.4812    1.1968    2.7762 N   0  0  0  0  0  0  0  0  0  0  0  0
   -0.1106   -0.1834    2.6051 C   0  0  2  0  0  0  0  0  0  0  0  0
   -0.0696   -0.4775    1.1113 C   0  0  0  0  0  0  0  0  0  0  0  0
   -0.6805    0.1900    0.2792 O   0  0  0  0  0  0  0  0  0  0  0  0
   -1.0852   -1.1101    3.3150 C   0  0  0  0  0  0  0  0  0  0  0  0
   -1.0883    1.6241    2.0791 H   0  0  0  0  0  0  0  0  0  0  0  0
    0.8937   -0.2959    3.0277 H   0  0  0  0  0  0  0  0  0  0  0  0
   -2.0970   -1.0114    2.9051 H   0  0  0  0  0  0  0  0  0  0  0  0
   -0.7860   -2.1580    3.2078 H   0  0  0  0  0  0  0  0  0  0  0  0
   -1.1357   -0.8775    4.3842 H   0  0  0  0  0  0  0  0  0  0  0  0
    0.6950   -1.6003    0.8178 N   0  0  0  0  0  0  0  0  0  0  0  0
    0.8777   -2.0908   -0.5246 C   0  0  2  0  0  0  0  0  0  0  0  0
   -0.1723   -1.4239   -1.4044 C   0  0  0  0  0  0  0  0  0  0  0  0
   -0.0781   -0.2639   -1.8005 O   0  0  0  0  0  0  0  0  0  0  0  0
    0.7526   -3.6128   -0.5966 C   0  0  0  0  0  0  0  0  0  0  0  0
    1.9114   -4.3393    0.0634 C   0  0  0  0  0  0  0  0  0  0  0  0
    3.0869   -4.0047   -0.0495 O   0  0  0  0  0  0  0  0  0  0  0  0
    1.4929   -5.4191    0.8117 N   0  0  0  0  0  0  0  0  0  0  0  0
    1.1810   -2.0803    1.5718 H   0  0  0  0  0  0  0  0  0  0  0  0
    1.8726   -1.7606   -0.8452 H   0  0  0  0  0  0  0  0  0  0  0  0
   -0.1639   -3.9429   -0.0915 H   0  0  0  0  0  0  0  0  0  0  0  0
    0.6833   -3.9443   -1.6406 H   0  0  0  0  0  0  0  0  0  0  0  0
    0.5090   -5.6569    0.8795 H   0  0  0  0  0  0  0  0  0  0  0  0
    2.1419   -6.0126    1.3185 H   0  0  0  0  0  0  0  0  0  0  0  0
   -1.2038   -2.2902   -1.7383 N   0  0  0  0  0  0  0  0  0  0  0  0
   -2.2994   -1.8858   -2.5863 C   0  0  2  0  0  0  0  0  0  0  0  0
   -1.7183   -1.4157   -3.9133 C   0  0  0  0  0  0  0  0  0  0  0  0
   -0.5586   -1.0274   -4.0377 O   0  0  0  0  0  0  0  0  0  0  0  0
   -3.1266   -0.7879   -1.9358 C   0  0  0  0  0  0  0  0  0  0  0  0
   -1.1947   -3.2433   -1.3872 H   0  0  0  0  0  0  0  0  0  0  0  0
   -2.9163   -2.7757   -2.7520 H   0  0  0  0  0  0  0  0  0  0  0  0
   -2.5253    0.1119   -1.7620 H   0  0  0  0  0  0  0  0  0  0  0  0
   -3.9739   -0.5022   -2.5679 H   0  0  0  0  0  0  0  0  0  0  0  0
   -3.5191   -1.1174   -0.9678 H   0  0  0  0  0  0  0  0  0  0  0  0
   -2.6594   -1.4399   -4.9330 N   0  0  0  0  0  0  0  0  0  0  0  0
   -2.3560   -1.0285   -6.2838 C   0  0  0  0  0  0  0  0  0  0  0  0
   -3.5921   -1.7949   -4.7438 H   0  0  0  0  0  0  0  0  0  0  0  0
   -2.5999    0.0371   -6.4067 H   0  0  0  0  0  0  0  0  0  0  0  0
   -1.2855   -1.1849   -6.4830 H   0  0  0  0  0  0  0  0  0  0  0  0
   -2.9514   -1.6247   -6.9910 H   0  0  0  0  0  0  0  0  0  0  0  0
  1  3  1  0  0  0  0
  1  7  1  0  0  0  0
  1  2  2  0  0  0  0
 21 22  1  0  0  0  0
 22 24  1  0  0  0  0
 22 23  2  0  0  0  0
 32 33  1  0  0  0  0
 33 41  1  0  0  0  0
 33 34  2  0  0  0  0
  8  9  1  0  0  0  0
  9 17  1  0  0  0  0
  9 10  2  0  0  0  0
 18 19  1  0  0  0  0
 19 31  1  0  0  0  0
 19 20  2  0  0  0  0
 32 35  1  0  0  0  0
  8 11  1  0  0  0  0
 41 42  1  0  0  0  0
 18 21  1  0  0  0  0
 31 32  1  0  0  0  0
  7  8  1  0  0  0  0
 17 18  1  0  0  0  0
  3  4  1  0  0  0  0
  3  5  1  0  0  0  0
  3  6  1  0  0  0  0
 35 38  1  0  0  0  0
 35 39  1  0  0  0  0
 35 40  1  0  0  0  0
 11 14  1  0  0  0  0
 11 15  1  0  0  0  0
 11 16  1  0  0  0  0
 42 44  1  0  0  0  0
 42 45  1  0  0  0  0
 42 46  1  0  0  0  0
 21 27  1  0  0  0  0
 21 28  1  0  0  0  0
 32 37  1  0  0  0  0
  8 13  1  0  0  0  0
 18 26  1  0  0  0  0
 24 29  1  0  0  0  0
 24 30  1  0  0  0  0
 41 43  1  0  0  0  0
  7 12  1  0  0  0  0
 31 36  1  0  0  0  0
 17 25  1  0  0  0  0
M  END
$$$$

  -OEChem-05262214473D

 46 45  0     1  0  0  0  0  0999 V2000
   -0.0543    1.9736    3.8406 C   0  0  0  0  0  0  0  0  0  0  0  0
    0.6744    1.6099    4.7562 O   0  0  0  0  0  0  0  0  0  0  0  0
   -0.5599    3.3779    3.8160 C   0  0  0  0  0  0  0  0  0  0  0  0
   -1.5202    3.4885    4.3450 H   0  0  0  0  0  0  0  0  0  0  0  0
    0.1282    4.0814    4.3116 H   0  0  0  0  0  0  0  0  0  0  0  0
   -0.7317    3.7994    2.8126 H   0  0  0  0  0  0  0  0  0  0  0  0
   -0.4812    1.1968    2.7762 N   0  0  0  0  0  0  0  0  0  0  0  0
   -0.1106   -0.1834    2.6051 C   0  0  2  0  0  0  0  0  0  0  0  0
   -0.0696   -0.4775    1.1113 C   0  0  0  0  0  0  0  0  0  0  0  0
   -0.6805    0.1900    0.2792 O   0  0  0  0  0  0  0  0  0  0  0  0
   -1.0852   -1.1101    3.3150 C   0  0  0  0  0  0  0  0  0  0  0  0
   -1.0883    1.6241    2.0791 H   0  0  0  0  0  0  0  0  0  0  0  0
    0.8937   -0.2959    3.0277 H   0  0  0  0  0  0  0  0  0  0  0  0
   -2.0970   -1.0114    2.9051 H   0  0  0  0  0  0  0  0  0  0  0  0
   -0.7860   -2.1580    3.2078 H   0  0  0  0  0  0  0  0  0  0  0  0
   -1.1357   -0.8775    4.3842 H   0  0  0  0  0  0  0  0  0  0  0  0
    0.6950   -1.6003    0.8178 N   0  0  0  0  0  0  0  0  0  0  0  0
    0.8777   -2.0908   -0.5246 C   0  0  2  0  0  0  0  0  0  0  0  0
   -0.1723   -1.4239   -1.4044 C   0  0  0  0  0  0  0  0  0  0  0  0
    0.0314   -0.3781   -2.0178 O   0  0  0  0  0  0  0  0  0  0  0  0
    0.7526   -3.6128   -0.5966 C   0  0  0  0  0  0  0  0  0  0  0  0
    1.9114   -4.3393    0.0634 C   0  0  0  0  0  0  0  0  0  0  0  0
    3.0869   -4.0047   -0.0495 O   0  0  0  0  0  0  0  0  0  0  0  0
    1.4929   -5.4191    0.8117 N   0  0  0  0  0  0  0  0  0  0  0  0
    1.1810   -2.0803    1.5718 H   0  0  0  0  0  0  0  0  0  0  0  0
    1.8726   -1.7606   -0.8452 H   0  0  0  0  0  0  0  0  0  0  0  0
   -0.1639   -3.9429   -0.0915 H   0  0  0  0  0  0  0  0  0  0  0  0
    0.6833   -3.9443   -1.6406 H   0  0  0  0  0  0  0  0  0  0  0  0
    0.5090   -5.6569    0.8795 H   0  0  0  0  0  0  0  0  0  0  0  0
    2.1419   -6.0126    1.3185 H   0  0  0  0  0  0  0  0  0  0  0  0
   -1.3483   -2.1583   -1.4659 N   0  0  0  0  0  0  0  0  0  0  0  0
   -2.4756   -1.7339   -2.2610 C   0  0  2  0  0  0  0  0  0  0  0  0
   -2.0077   -1.5948   -3.7037 C   0  0  0  0  0  0  0  0  0  0  0  0
   -0.8305   -1.4236   -4.0135 O   0  0  0  0  0  0  0  0  0  0  0  0
   -3.0526   -0.4237   -1.7480 C   0  0  0  0  0  0  0  0  0  0  0  0
   -1.4274   -3.0270   -0.9454 H   0  0  0  0  0  0  0  0  0  0  0  0
   -3.2263   -2.5289   -2.1950 H   0  0  0  0  0  0  0  0  0  0  0  0
   -2.3148    0.3848   -1.8064 H   0  0  0  0  0  0  0  0  0  0  0  0
   -3.9252   -0.1178   -2.3347 H   0  0  0  0  0  0  0  0  0  0  0  0
   -3.3612   -0.5171   -0.7012 H   0  0  0  0  0  0  0  0  0  0  0  0
   -3.0647   -1.6412   -4.6019 N   0  0  0  0  0  0  0  0  0  0  0  0
   -2.8809   -1.5189   -6.0292 C   0  0  0  0  0  0  0  0  0  0  0  0
   -4.0061   -1.8052   -4.2576 H   0  0  0  0  0  0  0  0  0  0  0  0
   -2.9876   -0.4645   -6.3241 H   0  0  0  0  0  0  0  0  0  0  0  0
   -1.8766   -1.8757   -6.3013 H   0  0  0  0  0  0  0  0  0  0  0  0
   -3.6383   -2.1235   -6.5495 H   0  0  0  0  0  0  0  0  0  0  0  0
  1  3  1  0  0  0  0
  1  7  1  0  0  0  0
  1  2  2  0  0  0  0
 21 22  1  0  0  0  0
 22 24  1  0  0  0  0
 22 23  2  0  0  0  0
 32 33  1  0  0  0  0
 33 41  1  0  0  0  0
 33 34  2  0  0  0  0
  8  9  1  0  0  0  0
  9 17  1  0  0  0  0
  9 10  2  0  0  0  0
 18 19  1  0  0  0  0
 19 31  1  0  0  0  0
 19 20  2  0  0  0  0
 32 35  1  0  0  0  0
  8 11  1  0  0  0  0
 41 42  1  0  0  0  0
 18 21  1  0  0  0  0
 31 32  1  0  0  0  0
  7  8  1  0  0  0  0
 17 18  1  0  0  0  0
  3  4  1  0  0  0  0
  3  5  1  0  0  0  0
  3  6  1  0  0  0  0
 35 38  1  0  0  0  0
 35 39  1  0  0  0  0
 35 40  1  0  0  0  0
 11 14  1  0  0  0  0
 11 15  1  0  0  0  0
 11 16  1  0  0  0  0
 42 44  1  0  0  0  0
 42 45  1  0  0  0  0
 42 46  1  0  0  0  0
 21 27  1  0  0  0  0
 21 28  1  0  0  0  0
 32 37  1  0  0  0  0
  8 13  1  0  0  0  0
 18 26  1  0  0  0  0
 24 29  1  0  0  0  0
 24 30  1  0  0  0  0
 41 43  1  0  0  0  0
  7 12  1  0  0  0  0
 31 36  1  0  0  0  0
 17 25  1  0  0  0  0
M  END
$$$$

  -OEChem-05262214473D

 46 45  0     1  0  0  0  0  0999 V2000
   -0.0543    1.9736    3.8406 C   0  0  0  0  0  0  0  0  0  0  0  0
    0.6744    1.6099    4.7562 O   0  0  0  0  0  0  0  0  0  0  0  0
   -0.5599    3.3779    3.8160 C   0  0  0  0  0  0  0  0  0  0  0  0
   -1.5202    3.4885    4.3450 H   0  0  0  0  0  0  0  0  0  0  0  0
    0.1282    4.0814    4.3116 H   0  0  0  0  0  0  0  0  0  0  0  0
   -0.7317    3.7994    2.8126 H   0  0  0  0  0  0  0  0  0  0  0  0
   -0.4812    1.1968    2.7762 N   0  0  0  0  0  0  0  0  0  0  0  0
   -0.1106   -0.1834    2.6051 C   0  0  2  0  0  0  0  0  0  0  0  0
   -0.0696   -0.4775    1.1113 C   0  0  0  0  0  0  0  0  0  0  0  0
   -0.6805    0.1900    0.2792 O   0  0  0  0  0  0  0  0  0  0  0  0
   -1.0852   -1.1101    3.3150 C   0  0  0  0  0  0  0  0  0  0  0  0
   -1.0883    1.6241    2.0791 H   0  0  0  0  0  0  0  0  0  0  0  0
    0.8937   -0.2959    3.0277 H   0  0  0  0  0  0  0  0  0  0  0  0
   -2.0970   -1.0114    2.9051 H   0  0  0  0  0  0  0  0  0  0  0  0
   -0.7860   -2.1580    3.2078 H   0  0  0  0  0  0  0  0  0  0  0  0
   -1.1357   -0.8775    4.3842 H   0  0  0  0  0  0  0  0  0  0  0  0
    0.6950   -1.6003    0.8178 N   0  0  0  0  0  0  0  0  0  0  0  0
    0.8777   -2.0908   -0.5246 C   0  0  2  0  0  0  0  0  0  0  0  0
   -0.1723   -1.4239   -1.4044 C   0  0  0  0  0  0  0  0  0  0  0  0
    0.0955   -0.5436   -2.2197 O   0  0  0  0  0  0  0  0  0  0  0  0
    0.7526   -3.6128   -0.5966 C   0  0  0  0  0  0  0  0  0  0  0  0
    1.9114   -4.3393    0.0634 C   0  0  0  0  0  0  0  0  0  0  0  0
    3.0869   -4.0047   -0.0495 O   0  0  0  0  0  0  0  0  0  0  0  0
    1.4929   -5.4191    0.8117 N   0  0  0  0  0  0  0  0  0  0  0  0
    1.1810   -2.0803    1.5718 H   0  0  0  0  0  0  0  0  0  0  0  0
    1.8726   -1.7606   -0.8452 H   0  0  0  0  0  0  0  0  0  0  0  0
   -0.1639   -3.9429   -0.0915 H   0  0  0  0  0  0  0  0  0  0  0  0
    0.6833   -3.9443   -1.6406 H   0  0  0  0  0  0  0  0  0  0  0  0
    0.5090   -5.6569    0.8795 H   0  0  0  0  0  0  0  0  0  0  0  0
    2.1419   -6.0126    1.3185 H   0  0  0  0  0  0  0  0  0  0  0  0
   -1.4372   -1.9606   -1.2099 N   0  0  0  0  0  0  0  0  0  0  0  0
   -2.5861   -1.5029   -1.9539 C   0  0  2  0  0  0  0  0  0  0  0  0
   -2.2903   -1.6872   -3.4365 C   0  0  0  0  0  0  0  0  0  0  0  0
   -1.1497   -1.7614   -3.8887 O   0  0  0  0  0  0  0  0  0  0  0  0
   -2.9055   -0.0495   -1.6400 C   0  0  0  0  0  0  0  0  0  0  0  0
   -1.5699   -2.7044   -0.5309 H   0  0  0  0  0  0  0  0  0  0  0  0
   -3.4258   -2.1448   -1.6658 H   0  0  0  0  0  0  0  0  0  0  0  0
   -2.0757    0.6089   -1.9218 H   0  0  0  0  0  0  0  0  0  0  0  0
   -3.7943    0.2878   -2.1835 H   0  0  0  0  0  0  0  0  0  0  0  0
   -3.0887    0.0866   -0.5687 H   0  0  0  0  0  0  0  0  0  0  0  0
   -3.4488   -1.7159   -4.2002 N   0  0  0  0  0  0  0  0  0  0  0  0
   -3.4323   -1.8686   -5.6363 C   0  0  0  0  0  0  0  0  0  0  0  0
   -4.3526   -1.6667   -3.7392 H   0  0  0  0  0  0  0  0  0  0  0  0
   -3.4278   -0.8764   -6.1110 H   0  0  0  0  0  0  0  0  0  0  0  0
   -2.5301   -2.4223   -5.9357 H   0  0  0  0  0  0  0  0  0  0  0  0
   -4.3263   -2.4240   -5.9561 H   0  0  0  0  0  0  0  0  0  0  0  0
  1  3  1  0  0  0  0
  1  7  1  0  0  0  0
  1  2  2  0  0  0  0
 21 22  1  0  0  0  0
 22 24  1  0  0  0  0
 22 23  2  0  0  0  0
 32 33  1  0  0  0  0
 33 41  1  0  0  0  0
 33 34  2  0  0  0  0
  8  9  1  0  0  0  0
  9 17  1  0  0  0  0
  9 10  2  0  0  0  0
 18 19  1  0  0  0  0
 19 31  1  0  0  0  0
 19 20  2  0  0  0  0
 32 35  1  0  0  0  0
  8 11  1  0  0  0  0
 41 42  1  0  0  0  0
 18 21  1  0  0  0  0
 31 32  1  0  0  0  0
  7  8  1  0  0  0  0
 17 18  1  0  0  0  0
  3  4  1  0  0  0  0
  3  5  1  0  0  0  0
  3  6  1  0  0  0  0
 35 38  1  0  0  0  0
 35 39  1  0  0  0  0
 35 40  1  0  0  0  0
 11 14  1  0  0  0  0
 11 15  1  0  0  0  0
 11 16  1  0  0  0  0
 42 44  1  0  0  0  0
 42 45  1  0  0  0  0
 42 46  1  0  0  0  0
 21 27  1  0  0  0  0
 21 28  1  0  0  0  0
 32 37  1  0  0  0  0
  8 13  1  0  0  0  0
 18 26  1  0  0  0  0
 24 29  1  0  0  0  0
 24 30  1  0  0  0  0
 41 43  1  0  0  0  0
  7 12  1  0  0  0  0
 31 36  1  0  0  0  0
 17 25  1  0  0  0  0
M  END
$$$$

  -OEChem-05262214473D

 46 45  0     1  0  0  0  0  0999 V2000
   -0.0543    1.9736    3.8406 C   0  0  0  0  0  0  0  0  0  0  0  0
    0.6744    1.6099    4.7562 O   0  0  0  0  0  0  0  0  0  0  0  0
   -0.5599    3.3779    3.8160 C   0  0  0  0  0  0  0  0  0  0  0  0
   -1.5202    3.4885    4.3450 H   0  0  0  0  0  0  0  0  0  0  0  0
    0.1282    4.0814    4.3116 H   0  0  0  0  0  0  0  0  0  0  0  0
   -0.7317    3.7994    2.8126 H   0  0  0  0  0  0  0  0  0  0  0  0
   -0.4812    1.1968    2.7762 N   0  0  0  0  0  0  0  0  0  0  0  0
   -0.1106   -0.1834    2.6051 C   0  0  2  0  0  0  0  0  0  0  0  0
   -0.0696   -0.4775    1.1113 C   0  0  0  0  0  0  0  0  0  0  0  0
   -0.6805    0.1900    0.2792 O   0  0  0  0  0  0  0  0  0  0  0  0
   -1.0852   -1.1101    3.3150 C   0  0  0  0  0  0  0  0  0  0  0  0
   -1.0883    1.6241    2.0791 H   0  0  0  0  0  0  0  0  0  0  0  0
    0.8937   -0.2959    3.0277 H   0  0  0  0  0  0  0  0  0  0  0  0
   -2.0970   -1.0114    2.9051 H   0  0  0  0  0  0  0  0  0  0  0  0
   -0.7860   -2.1580    3.2078 H   0  0  0  0  0  0  0  0  0  0  0  0
   -1.1357   -0.8775    4.3842 H   0  0  0  0  0  0  0  0  0  0  0  0
    0.6950   -1.6003    0.8178 N   0  0  0  0  0  0  0  0  0  0  0  0
    0.8777   -2.0908   -0.5246 C   0  0  2  0  0  0  0  0  0  0  0  0
   -0.1723   -1.4239   -1.4044 C   0  0  0  0  0  0  0  0  0  0  0  0
    0.1098   -0.7490   -2.3925 O   0  0  0  0  0  0  0  0  0  0  0  0
    0.7526   -3.6128   -0.5966 C   0  0  0  0  0  0  0  0  0  0  0  0
    1.9114   -4.3393    0.0634 C   0  0  0  0  0  0  0  0  0  0  0  0
    3.0869   -4.0047   -0.0495 O   0  0  0  0  0  0  0  0  0  0  0  0
    1.4929   -5.4191    0.8117 N   0  0  0  0  0  0  0  0  0  0  0  0
    1.1810   -2.0803    1.5718 H   0  0  0  0  0  0  0  0  0  0  0  0
    1.8726   -1.7606   -0.8452 H   0  0  0  0  0  0  0  0  0  0  0  0
   -0.1639   -3.9429   -0.0915 H   0  0  0  0  0  0  0  0  0  0  0  0
    0.6833   -3.9443   -1.6406 H   0  0  0  0  0  0  0  0  0  0  0  0
    0.5090   -5.6569    0.8795 H   0  0  0  0  0  0  0  0  0  0  0  0
    2.1419   -6.0126    1.3185 H   0  0  0  0  0  0  0  0  0  0  0  0
   -1.4646   -1.7107   -0.9878 N   0  0  0  0  0  0  0  0  0  0  0  0
   -2.6237   -1.2084   -1.6859 C   0  0  2  0  0  0  0  0  0  0  0  0
   -2.5468   -1.6866   -3.1298 C   0  0  0  0  0  0  0  0  0  0  0  0
   -1.4943   -2.0177   -3.6717 O   0  0  0  0  0  0  0  0  0  0  0  0
   -2.6952    0.3092   -1.6191 C   0  0  0  0  0  0  0  0  0  0  0  0
   -1.6123   -2.2976   -0.1720 H   0  0  0  0  0  0  0  0  0  0  0  0
   -3.5011   -1.6496   -1.2007 H   0  0  0  0  0  0  0  0  0  0  0  0
   -1.8243    0.7692   -2.1003 H   0  0  0  0  0  0  0  0  0  0  0  0
   -3.5900    0.6869   -2.1246 H   0  0  0  0  0  0  0  0  0  0  0  0
   -2.7203    0.6528   -0.5793 H   0  0  0  0  0  0  0  0  0  0  0  0
   -3.7854   -1.6591   -3.7553 N   0  0  0  0  0  0  0  0  0  0  0  0
   -3.9727   -2.0540   -5.1319 C   0  0  0  0  0  0  0  0  0  0  0  0
   -4.6077   -1.3885   -3.2239 H   0  0  0  0  0  0  0  0  0  0  0  0
   -3.8904   -1.1704   -5.7818 H   0  0  0  0  0  0  0  0  0  0  0  0
   -3.2017   -2.7873   -5.4109 H   0  0  0  0  0  0  0  0  0  0  0  0
   -4.9686   -2.5055   -5.2515 H   0  0  0  0  0  0  0  0  0  0  0  0
  1  3  1  0  0  0  0
  1  7  1  0  0  0  0
  1  2  2  0  0  0  0
 21 22  1  0  0  0  0
 22 24  1  0  0  0  0
 22 23  2  0  0  0  0
 32 33  1  0  0  0  0
 33 41  1  0  0  0  0
 33 34  2  0  0  0  0
  8  9  1  0  0  0  0
  9 17  1  0  0  0  0
  9 10  2  0  0  0  0
 18 19  1  0  0  0  0
 19 31  1  0  0  0  0
 19 20  2  0  0  0  0
 32 35  1  0  0  0  0
  8 11  1  0  0  0  0
 41 42  1  0  0  0  0
 18 21  1  0  0  0  0
 31 32  1  0  0  0  0
  7  8  1  0  0  0  0
 17 18  1  0  0  0  0
  3  4  1  0  0  0  0
  3  5  1  0  0  0  0
  3  6  1  0  0  0  0
 35 38  1  0  0  0  0
 35 39  1  0  0  0  0
 35 40  1  0  0  0  0
 11 14  1  0  0  0  0
 11 15  1  0  0  0  0
 11 16  1  0  0  0  0
 42 44  1  0  0  0  0
 42 45  1  0  0  0  0
 42 46  1  0  0  0  0
 21 27  1  0  0  0  0
 21 28  1  0  0  0  0
 32 37  1  0  0  0  0
  8 13  1  0  0  0  0
 18 26  1  0  0  0  0
 24 29  1  0  0  0  0
 24 30  1  0  0  0  0
 41 43  1  0  0  0  0
  7 12  1  0  0  0  0
 31 36  1  0  0  0  0
 17 25  1  0  0  0  0
M  END
$$$$

  -OEChem-05262214473D

 46 45  0     1  0  0  0  0  0999 V2000
   -0.0543    1.9736    3.8406 C   0  0  0  0  0  0  0  0  0  0  0  0
    0.6744    1.6099    4.7562 O   0  0  0  0  0  0  0  0  0  0  0  0
   -0.5599    3.3779    3.8160 C   0  0  0  0  0  0  0  0  0  0  0  0
   -1.5202    3.4885    4.3450 H   0  0  0  0  0  0  0  0  0  0  0  0
    0.1282    4.0814    4.3116 H   0  0  0  0  0  0  0  0  0  0  0  0
   -0.7317    3.7994    2.8126 H   0  0  0  0  0  0  0  0  0  0  0  0
   -0.4812    1.1968    2.7762 N   0  0  0  0  0  0  0  0  0  0  0  0
   -0.1106   -0.1834    2.6051 C   0  0  2  0  0  0  0  0  0  0  0  0
   -0.0696   -0.4775    1.1113 C   0  0  0  0  0  0  0  0  0  0  0  0
   -0.6805    0.1900    0.2792 O   0  0  0  0  0  0  0  0  0  0  0  0
   -1.0852   -1.1101    3.3150 C   0  0  0  0  0  0  0  0  0  0  0  0
   -1.0883    1.6241    2.0791 H   0  0  0  0  0  0  0  0  0  0  0  0
    0.8937   -0.2959    3.0277 H   0  0  0  0  0  0  0  0  0  0  0  0
   -2.0970   -1.0114    2.9051 H   0  0  0  0  0  0  0  0  0  0  0  0
   -0.7860   -2.1580    3.2078 H   0  0  0  0  0  0  0  0  0  0  0  0
   -1.1357   -0.8775    4.3842 H   0  0  0  0  0  0  0  0  0  0  0  0
    0.6950   -1.6003    0.8178 N   0  0  0  0  0  0  0  0  0  0  0  0
    0.8777   -2.0908   -0.5246 C   0  0  2  0  0  0  0  0  0  0  0  0
   -0.1723   -1.4239   -1.4044 C   0  0  0  0  0  0  0  0  0  0  0  0
    0.0733   -0.9804   -2.5244 O   0  0  0  0  0  0  0  0  0  0  0  0
    0.7526   -3.6128   -0.5966 C   0  0  0  0  0  0  0  0  0  0  0  0
    1.9114   -4.3393    0.0634 C   0  0  0  0  0  0  0  0  0  0  0  0
    3.0869   -4.0047   -0.0495 O   0  0  0  0  0  0  0  0  0  0  0  0
    1.4929   -5.4191    0.8117 N   0  0  0  0  0  0  0  0  0  0  0  0
    1.1810   -2.0803    1.5718 H   0  0  0  0  0  0  0  0  0  0  0  0
    1.8726   -1.7606   -0.8452 H   0  0  0  0  0  0  0  0  0  0  0  0
   -0.1639   -3.9429   -0.0915 H   0  0  0  0  0  0  0  0  0  0  0  0
    0.6833   -3.9443   -1.6406 H   0  0  0  0  0  0  0  0  0  0  0  0
    0.5090   -5.6569    0.8795 H   0  0  0  0  0  0  0  0  0  0  0  0
    2.1419   -6.0126    1.3185 H   0  0  0  0  0  0  0  0  0  0  0  0
   -1.4286   -1.4257   -0.8147 N   0  0  0  0  0  0  0  0  0  0  0  0
   -2.5855   -0.8705   -1.4754 C   0  0  2  0  0  0  0  0  0  0  0  0
   -2.7598   -1.5929   -2.8047 C   0  0  0  0  0  0  0  0  0  0  0  0
   -1.8409   -2.1750   -3.3773 O   0  0  0  0  0  0  0  0  0  0  0  0
   -2.4360    0.6281   -1.6866 C   0  0  0  0  0  0  0  0  0  0  0  0
   -1.5518   -1.8343    0.1070 H   0  0  0  0  0  0  0  0  0  0  0  0
   -3.4471   -1.0771   -0.8311 H   0  0  0  0  0  0  0  0  0  0  0  0
   -1.5778    0.8545   -2.3298 H   0  0  0  0  0  0  0  0  0  0  0  0
   -3.3265    1.0525   -2.1621 H   0  0  0  0  0  0  0  0  0  0  0  0
   -2.2810    1.1427   -0.7322 H   0  0  0  0  0  0  0  0  0  0  0  0
   -4.0517   -1.4745   -3.2976 N   0  0  0  0  0  0  0  0  0  0  0  0
   -4.4652   -2.0623   -4.5504 C   0  0  0  0  0  0  0  0  0  0  0  0
   -4.7542   -0.9898   -2.7468 H   0  0  0  0  0  0  0  0  0  0  0  0
   -4.3438   -1.3265   -5.3590 H   0  0  0  0  0  0  0  0  0  0  0  0
   -3.8455   -2.9460   -4.7629 H   0  0  0  0  0  0  0  0  0  0  0  0
   -5.5213   -2.3626   -4.4836 H   0  0  0  0  0  0  0  0  0  0  0  0
  1  3  1  0  0  0  0
  1  7  1  0  0  0  0
  1  2  2  0  0  0  0
 21 22  1  0  0  0  0
 22 24  1  0  0  0  0
 22 23  2  0  0  0  0
 32 33  1  0  0  0  0
 33 41  1  0  0  0  0
 33 34  2  0  0  0  0
  8  9  1  0  0  0  0
  9 17  1  0  0  0  0
  9 10  2  0  0  0  0
 18 19  1  0  0  0  0
 19 31  1  0  0  0  0
 19 20  2  0  0  0  0
 32 35  1  0  0  0  0
  8 11  1  0  0  0  0
 41 42  1  0  0  0  0
 18 21  1  0  0  0  0
 31 32  1  0  0  0  0
  7  8  1  0  0  0  0
 17 18  1  0  0  0  0
  3  4  1  0  0  0  0
  3  5  1  0  0  0  0
  3  6  1  0  0  0  0
 35 38  1  0  0  0  0
 35 39  1  0  0  0  0
 35 40  1  0  0  0  0
 11 14  1  0  0  0  0
 11 15  1  0  0  0  0
 11 16  1  0  0  0  0
 42 44  1  0  0  0  0
 42 45  1  0  0  0  0
 42 46  1  0  0  0  0
 21 27  1  0  0  0  0
 21 28  1  0  0  0  0
 32 37  1  0  0  0  0
  8 13  1  0  0  0  0
 18 26  1  0  0  0  0
 24 29  1  0  0  0  0
 24 30  1  0  0  0  0
 41 43  1  0  0  0  0
  7 12  1  0  0  0  0
 31 36  1  0  0  0  0
 17 25  1  0  0  0  0
M  END
$$$$

  -OEChem-05262214473D

 46 45  0     1  0  0  0  0  0999 V2000
   -0.0543    1.9736    3.8406 C   0  0  0  0  0  0  0  0  0  0  0  0
    0.6744    1.6099    4.7562 O   0  0  0  0  0  0  0  0  0  0  0  0
   -0.5599    3.3779    3.8160 C   0  0  0  0  0  0  0  0  0  0  0  0
   -1.5202    3.4885    4.3450 H   0  0  0  0  0  0  0  0  0  0  0  0
    0.1282    4.0814    4.3116 H   0  0  0  0  0  0  0  0  0  0  0  0
   -0.7317    3.7994    2.8126 H   0  0  0  0  0  0  0  0  0  0  0  0
   -0.4812    1.1968    2.7762 N   0  0  0  0  0  0  0  0  0  0  0  0
   -0.1106   -0.1834    2.6051 C   0  0  2  0  0  0  0  0  0  0  0  0
   -0.0696   -0.4775    1.1113 C   0  0  0  0  0  0  0  0  0  0  0  0
   -0.6805    0.1900    0.2792 O   0  0  0  0  0  0  0  0  0  0  0  0
   -1.0852   -1.1101    3.3150 C   0  0  0  0  0  0  0  0  0  0  0  0
   -1.0883    1.6241    2.0791 H   0  0  0  0  0  0  0  0  0  0  0  0
    0.8937   -0.2959    3.0277 H   0  0  0  0  0  0  0  0  0  0  0  0
   -2.0970   -1.0114    2.9051 H   0  0  0  0  0  0  0  0  0  0  0  0
   -0.7860   -2.1580    3.2078 H   0  0  0  0  0  0  0  0  0  0  0  0
   -1.1357   -0.8775    4.3842 H   0  0  0  0  0  0  0  0  0  0  0  0
    0.6950   -1.6003    0.8178 N   0  0  0  0  0  0  0  0  0  0  0  0
    0.8777   -2.0908   -0.5246 C   0  0  2  0  0  0  0  0  0  0  0  0
   -0.1723   -1.4239   -1.4044 C   0  0  0  0  0  0  0  0  0  0  0  0
   -0.0114   -1.2220   -2.6064 O   0  0  0  0  0  0  0  0  0  0  0  0
    0.7526   -3.6128   -0.5966 C   0  0  0  0  0  0  0  0  0  0  0  0
    1.9114   -4.3393    0.0634 C   0  0  0  0  0  0  0  0  0  0  0  0
    3.0869   -4.0047   -0.0495 O   0  0  0  0  0  0  0  0  0  0  0  0
    1.4929   -5.4191    0.8117 N   0  0  0  0  0  0  0  0  0  0  0  0
    1.1810   -2.0803    1.5718 H   0  0  0  0  0  0  0  0  0  0  0  0
    1.8726   -1.7606   -0.8452 H   0  0  0  0  0  0  0  0  0  0  0  0
   -0.1639   -3.9429   -0.0915 H   0  0  0  0  0  0  0  0  0  0  0  0
    0.6833   -3.9443   -1.6406 H   0  0  0  0  0  0  0  0  0  0  0  0
    0.5090   -5.6569    0.8795 H   0  0  0  0  0  0  0  0  0  0  0  0
    2.1419   -6.0126    1.3185 H   0  0  0  0  0  0  0  0  0  0  0  0
   -1.3316   -1.1249   -0.7025 N   0  0  0  0  0  0  0  0  0  0  0  0
   -2.4743   -0.5123   -1.3366 C   0  0  2  0  0  0  0  0  0  0  0  0
   -2.9146   -1.4127   -2.4833 C   0  0  0  0  0  0  0  0  0  0  0  0
   -2.1659   -2.2227   -3.0257 O   0  0  0  0  0  0  0  0  0  0  0  0
   -2.1457    0.8852   -1.8381 C   0  0  0  0  0  0  0  0  0  0  0  0
   -1.3925   -1.3461    0.2870 H   0  0  0  0  0  0  0  0  0  0  0  0
   -3.2675   -0.4662   -0.5824 H   0  0  0  0  0  0  0  0  0  0  0  0
   -1.3529    0.8592   -2.5946 H   0  0  0  0  0  0  0  0  0  0  0  0
   -3.0215    1.3595   -2.2934 H   0  0  0  0  0  0  0  0  0  0  0  0
   -1.8008    1.5229   -1.0171 H   0  0  0  0  0  0  0  0  0  0  0  0
   -4.2295   -1.1748   -2.8583 N   0  0  0  0  0  0  0  0  0  0  0  0
   -4.8763   -1.8930   -3.9315 C   0  0  0  0  0  0  0  0  0  0  0  0
   -4.7821   -0.4978   -2.3405 H   0  0  0  0  0  0  0  0  0  0  0  0
   -4.7573   -1.3341   -4.8714 H   0  0  0  0  0  0  0  0  0  0  0  0
   -4.4176   -2.8874   -4.0357 H   0  0  0  0  0  0  0  0  0  0  0  0
   -5.9468   -2.0050   -3.7047 H   0  0  0  0  0  0  0  0  0  0  0  0
  1  3  1  0  0  0  0
  1  7  1  0  0  0  0
  1  2  2  0  0  0  0
 21 22  1  0  0  0  0
 22 24  1  0  0  0  0
 22 23  2  0  0  0  0
 32 33  1  0  0  0  0
 33 41  1  0  0  0  0
 33 34  2  0  0  0  0
  8  9  1  0  0  0  0
  9 17  1  0  0  0  0
  9 10  2  0  0  0  0
 18 19  1  0  0  0  0
 19 31  1  0  0  0  0
 19 20  2  0  0  0  0
 32 35  1  0  0  0  0
  8 11  1  0  0  0  0
 41 42  1  0  0  0  0
 18 21  1  0  0  0  0
 31 32  1  0  0  0  0
  7  8  1  0  0  0  0
 17 18  1  0  0  0  0
  3  4  1  0  0  0  0
  3  5  1  0  0  0  0
  3  6  1  0  0  0  0
 35 38  1  0  0  0  0
 35 39  1  0  0  0  0
 35 40  1  0  0  0  0
 11 14  1  0  0  0  0
 11 15  1  0  0  0  0
 11 16  1  0  0  0  0
 42 44  1  0  0  0  0
 42 45  1  0  0  0  0
 42 46  1  0  0  0  0
 21 27  1  0  0  0  0
 21 28  1  0  0  0  0
 32 37  1  0  0  0  0
  8 13  1  0  0  0  0
 18 26  1  0  0  0  0
 24 29  1  0  0  0  0
 24 30  1  0  0  0  0
 41 43  1  0  0  0  0
  7 12  1  0  0  0  0
 31 36  1  0  0  0  0
 17 25  1  0  0  0  0
M  END
$$$$

  -OEChem-05262214473D

 46 45  0     1  0  0  0  0  0999 V2000
   -0.0543    1.9736    3.8406 C   0  0  0  0  0  0  0  0  0  0  0  0
    0.6744    1.6099    4.7562 O   0  0  0  0  0  0  0  0  0  0  0  0
   -0.5599    3.3779    3.8160 C   0  0  0  0  0  0  0  0  0  0  0  0
   -1.5202    3.4885    4.3450 H   0  0  0  0  0  0  0  0  0  0  0  0
    0.1282    4.0814    4.3116 H   0  0  0  0  0  0  0  0  0  0  0  0
   -0.7317    3.7994    2.8126 H   0  0  0  0  0  0  0  0  0  0  0  0
   -0.4812    1.1968    2.7762 N   0  0  0  0  0  0  0  0  0  0  0  0
   -0.1106   -0.1834    2.6051 C   0  0  2  0  0  0  0  0  0  0  0  0
   -0.0696   -0.4775    1.1113 C   0  0  0  0  0  0  0  0  0  0  0  0
   -0.6805    0.1900    0.2792 O   0  0  0  0  0  0  0  0  0  0  0  0
   -1.0852   -1.1101    3.3150 C   0  0  0  0  0  0  0  0  0  0  0  0
   -1.0883    1.6241    2.0791 H   0  0  0  0  0  0  0  0  0  0  0  0
    0.8937   -0.2959    3.0277 H   0  0  0  0  0  0  0  0  0  0  0  0
   -2.0970   -1.0114    2.9051 H   0  0  0  0  0  0  0  0  0  0  0  0
   -0.7860   -2.1580    3.2078 H   0  0  0  0  0  0  0  0  0  0  0  0
   -1.1357   -0.8775    4.3842 H   0  0  0  0  0  0  0  0  0  0  0  0
    0.6950   -1.6003    0.8178 N   0  0  0  0  0  0  0  0  0  0  0  0
    0.8777   -2.0908   -0.5246 C   0  0  2  0  0  0  0  0  0  0  0  0
   -0.1723   -1.4239   -1.4044 C   0  0  0  0  0  0  0  0  0  0  0  0
   -0.1386   -1.4573   -2.6329 O   0  0  0  0  0  0  0  0  0  0  0  0
    0.7526   -3.6128   -0.5966 C   0  0  0  0  0  0  0  0  0  0  0  0
    1.9114   -4.3393    0.0634 C   0  0  0  0  0  0  0  0  0  0  0  0
    3.0869   -4.0047   -0.0495 O   0  0  0  0  0  0  0  0  0  0  0  0
    1.4929   -5.4191    0.8117 N   0  0  0  0  0  0  0  0  0  0  0  0
    1.1810   -2.0803    1.5718 H   0  0  0  0  0  0  0  0  0  0  0  0
    1.8726   -1.7606   -0.8452 H   0  0  0  0  0  0  0  0  0  0  0  0
   -0.1639   -3.9429   -0.0915 H   0  0  0  0  0  0  0  0  0  0  0  0
    0.6833   -3.9443   -1.6406 H   0  0  0  0  0  0  0  0  0  0  0  0
    0.5090   -5.6569    0.8795 H   0  0  0  0  0  0  0  0  0  0  0  0
    2.1419   -6.0126    1.3185 H   0  0  0  0  0  0  0  0  0  0  0  0
   -1.1802   -0.8288   -0.6588 N   0  0  0  0  0  0  0  0  0  0  0  0
   -2.2976   -0.1582   -1.2790 C   0  0  2  0  0  0  0  0  0  0  0  0
   -3.0009   -1.1581   -2.1874 C   0  0  0  0  0  0  0  0  0  0  0  0
   -2.4470   -2.1575   -2.6407 O   0  0  0  0  0  0  0  0  0  0  0  0
   -1.8440    1.0632   -2.0632 C   0  0  0  0  0  0  0  0  0  0  0  0
   -1.1453   -0.8662    0.3557 H   0  0  0  0  0  0  0  0  0  0  0  0
   -2.9745    0.1414   -0.4715 H   0  0  0  0  0  0  0  0  0  0  0  0
   -1.1650    0.7829   -2.8767 H   0  0  0  0  0  0  0  0  0  0  0  0
   -2.6958    1.5871   -2.5095 H   0  0  0  0  0  0  0  0  0  0  0  0
   -1.3124    1.7676   -1.4144 H   0  0  0  0  0  0  0  0  0  0  0  0
   -4.3067   -0.7803   -2.4672 N   0  0  0  0  0  0  0  0  0  0  0  0
   -5.1780   -1.5577   -3.3173 C   0  0  0  0  0  0  0  0  0  0  0  0
   -4.6895    0.0542   -2.0327 H   0  0  0  0  0  0  0  0  0  0  0  0
   -5.1025   -1.1927   -4.3522 H   0  0  0  0  0  0  0  0  0  0  0  0
   -4.8791   -2.6156   -3.2789 H   0  0  0  0  0  0  0  0  0  0  0  0
   -6.2162   -1.4570   -2.9679 H   0  0  0  0  0  0  0  0  0  0  0  0
  1  3  1  0  0  0  0
  1  7  1  0  0  0  0
  1  2  2  0  0  0  0
 21 22  1  0  0  0  0
 22 24  1  0  0  0  0
 22 23  2  0  0  0  0
 32 33  1  0  0  0  0
 33 41  1  0  0  0  0
 33 34  2  0  0  0  0
  8  9  1  0  0  0  0
  9 17  1  0  0  0  0
  9 10  2  0  0  0  0
 18 19  1  0  0  0  0
 19 31  1  0  0  0  0
 19 20  2  0  0  0  0
 32 35  1  0  0  0  0
  8 11  1  0  0  0  0
 41 42  1  0  0  0  0
 18 21  1  0  0  0  0
 31 32  1  0  0  0  0
  7  8  1  0  0  0  0
 17 18  1  0  0  0  0
  3  4  1  0  0  0  0
  3  5  1  0  0  0  0
  3  6  1  0  0  0  0
 35 38  1  0  0  0  0
 35 39  1  0  0  0  0
 35 40  1  0  0  0  0
 11 14  1  0  0  0  0
 11 15  1  0  0  0  0
 11 16  1  0  0  0  0
 42 44  1  0  0  0  0
 42 45  1  0  0  0  0
 42 46  1  0  0  0  0
 21 27  1  0  0  0  0
 21 28  1  0  0  0  0
 32 37  1  0  0  0  0
  8 13  1  0  0  0  0
 18 26  1  0  0  0  0
 24 29  1  0  0  0  0
 24 30  1  0  0  0  0
 41 43  1  0  0  0  0
  7 12  1  0  0  0  0
 31 36  1  0  0  0  0
 17 25  1  0  0  0  0
M  END
$$$$

  -OEChem-05262214473D

 46 45  0     1  0  0  0  0  0999 V2000
   -0.0543    1.9736    3.8406 C   0  0  0  0  0  0  0  0  0  0  0  0
    0.6744    1.6099    4.7562 O   0  0  0  0  0  0  0  0  0  0  0  0
   -0.5599    3.3779    3.8160 C   0  0  0  0  0  0  0  0  0  0  0  0
   -1.5202    3.4885    4.3450 H   0  0  0  0  0  0  0  0  0  0  0  0
    0.1282    4.0814    4.3116 H   0  0  0  0  0  0  0  0  0  0  0  0
   -0.7317    3.7994    2.8126 H   0  0  0  0  0  0  0  0  0  0  0  0
   -0.4812    1.1968    2.7762 N   0  0  0  0  0  0  0  0  0  0  0  0
   -0.1106   -0.1834    2.6051 C   0  0  2  0  0  0  0  0  0  0  0  0
   -0.0696   -0.4775    1.1113 C   0  0  0  0  0  0  0  0  0  0  0  0
   -0.6805    0.1900    0.2792 O   0  0  0  0  0  0  0  0  0  0  0  0
   -1.0852   -1.1101    3.3150 C   0  0  0  0  0  0  0  0  0  0  0  0
   -1.0883    1.6241    2.0791 H   0  0  0  0  0  0  0  0  0  0  0  0
    0.8937   -0.2959    3.0277 H   0  0  0  0  0  0  0  0  0  0  0  0
   -2.0970   -1.0114    2.9051 H   0  0  0  0  0  0  0  0  0  0  0  0
   -0.7860   -2.1580    3.2078 H   0  0  0  0  0  0  0  0  0  0  0  0
   -1.1357   -0.8775    4.3842 H   0  0  0  0  0  0  0  0  0  0  0  0
    0.6950   -1.6003    0.8178 N   0  0  0  0  0  0  0  0  0  0  0  0
    0.8777   -2.0908   -0.5246 C   0  0  2  0  0  0  0  0  0  0  0  0
   -0.1723   -1.4239   -1.4044 C   0  0  0  0  0  0  0  0  0  0  0  0
   -0.2997   -1.6703   -2.6021 O   0  0  0  0  0  0  0  0  0  0  0  0
    0.7526   -3.6128   -0.5966 C   0  0  0  0  0  0  0  0  0  0  0  0
    1.9114   -4.3393    0.0634 C   0  0  0  0  0  0  0  0  0  0  0  0
    3.0869   -4.0047   -0.0495 O   0  0  0  0  0  0  0  0  0  0  0  0
    1.4929   -5.4191    0.8117 N   0  0  0  0  0  0  0  0  0  0  0  0
    1.1810   -2.0803    1.5718 H   0  0  0  0  0  0  0  0  0  0  0  0
    1.8726   -1.7606   -0.8452 H   0  0  0  0  0  0  0  0  0  0  0  0
   -0.1639   -3.9429   -0.0915 H   0  0  0  0  0  0  0  0  0  0  0  0
    0.6833   -3.9443   -1.6406 H   0  0  0  0  0  0  0  0  0  0  0  0
    0.5090   -5.6569    0.8795 H   0  0  0  0  0  0  0  0  0  0  0  0
    2.1419   -6.0126    1.3185 H   0  0  0  0  0  0  0  0  0  0  0  0
   -0.9847   -0.5576   -0.6865 N   0  0  0  0  0  0  0  0  0  0  0  0
   -2.0675    0.1677   -1.3065 C   0  0  2  0  0  0  0  0  0  0  0  0
   -3.0126   -0.8465   -1.9372 C   0  0  0  0  0  0  0  0  0  0  0  0
   -2.6652   -1.9838   -2.2486 O   0  0  0  0  0  0  0  0  0  0  0  0
   -1.5515    1.1499   -2.3466 C   0  0  0  0  0  0  0  0  0  0  0  0
   -0.8270   -0.4274    0.3085 H   0  0  0  0  0  0  0  0  0  0  0  0
   -2.5882    0.7043   -0.5059 H   0  0  0  0  0  0  0  0  0  0  0  0
   -1.0269    0.6307   -3.1569 H   0  0  0  0  0  0  0  0  0  0  0  0
   -2.3718    1.7196   -2.7957 H   0  0  0  0  0  0  0  0  0  0  0  0
   -0.8490    1.8601   -1.8973 H   0  0  0  0  0  0  0  0  0  0  0  0
   -4.2780   -0.3180   -2.1511 N   0  0  0  0  0  0  0  0  0  0  0  0
   -5.3497   -1.0791   -2.7496 C   0  0  0  0  0  0  0  0  0  0  0  0
   -4.4826    0.6284   -1.8443 H   0  0  0  0  0  0  0  0  0  0  0  0
   -5.3561   -0.9119   -3.8368 H   0  0  0  0  0  0  0  0  0  0  0  0
   -5.1986   -2.1491   -2.5441 H   0  0  0  0  0  0  0  0  0  0  0  0
   -6.3110   -0.7561   -2.3234 H   0  0  0  0  0  0  0  0  0  0  0  0
  1  3  1  0  0  0  0
  1  7  1  0  0  0  0
  1  2  2  0  0  0  0
 21 22  1  0  0  0  0
 22 24  1  0  0  0  0
 22 23  2  0  0  0  0
 32 33  1  0  0  0  0
 33 41  1  0  0  0  0
 33 34  2  0  0  0  0
  8  9  1  0  0  0  0
  9 17  1  0  0  0  0
  9 10  2  0  0  0  0
 18 19  1  0  0  0  0
 19 31  1  0  0  0  0
 19 20  2  0  0  0  0
 32 35  1  0  0  0  0
  8 11  1  0  0  0  0
 41 42  1  0  0  0  0
 18 21  1  0  0  0  0
 31 32  1  0  0  0  0
  7  8  1  0  0  0  0
 17 18  1  0  0  0  0
  3  4  1  0  0  0  0
  3  5  1  0  0  0  0
  3  6  1  0  0  0  0
 35 38  1  0  0  0  0
 35 39  1  0  0  0  0
 35 40  1  0  0  0  0
 11 14  1  0  0  0  0
 11 15  1  0  0  0  0
 11 16  1  0  0  0  0
 42 44  1  0  0  0  0
 42 45  1  0  0  0  0
 42 46  1  0  0  0  0
 21 27  1  0  0  0  0
 21 28  1  0  0  0  0
 32 37  1  0  0  0  0
  8 13  1  0  0  0  0
 18 26  1  0  0  0  0
 24 29  1  0  0  0  0
 24 30  1  0  0  0  0
 41 43  1  0  0  0  0
  7 12  1  0  0  0  0
 31 36  1  0  0  0  0
 17 25  1  0  0  0  0
M  END
$$$$

  -OEChem-05262214473D

 46 45  0     1  0  0  0  0  0999 V2000
   -0.0543    1.9736    3.8406 C   0  0  0  0  0  0  0  0  0  0  0  0
    0.6744    1.6099    4.7562 O   0  0  0  0  0  0  0  0  0  0  0  0
   -0.5599    3.3779    3.8160 C   0  0  0  0  0  0  0  0  0  0  0  0
   -1.5202    3.4885    4.3450 H   0  0  0  0  0  0  0  0  0  0  0  0
    0.1282    4.0814    4.3116 H   0  0  0  0  0  0  0  0  0  0  0  0
   -0.7317    3.7994    2.8126 H   0  0  0  0  0  0  0  0  0  0  0  0
   -0.4812    1.1968    2.7762 N   0  0  0  0  0  0  0  0  0  0  0  0
   -0.1106   -0.1834    2.6051 C   0  0  2  0  0  0  0  0  0  0  0  0
   -0.0696   -0.4775    1.1113 C   0  0  0  0  0  0  0  0  0  0  0  0
   -0.6805    0.1900    0.2792 O   0  0  0  0  0  0  0  0  0  0  0  0
   -1.0852   -1.1101    3.3150 C   0  0  0  0  0  0  0  0  0  0  0  0
   -1.0883    1.6241    2.0791 H   0  0  0  0  0  0  0  0  0  0  0  0
    0.8937   -0.2959    3.0277 H   0  0  0  0  0  0  0  0  0  0  0  0
   -2.0970   -1.0114    2.9051 H   0  0  0  0  0  0  0  0  0  0  0  0
   -0.7860   -2.1580    3.2078 H   0  0  0  0  0  0  0  0  0  0  0  0
   -1.1357   -0.8775    4.3842 H   0  0  0  0  0  0  0  0  0  0  0  0
    0.6950   -1.6003    0.8178 N   0  0  0  0  0  0  0  0  0  0  0  0
    0.8777   -2.0908   -0.5246 C   0  0  2  0  0  0  0  0  0  0  0  0
   -0.1723   -1.4239   -1.4044 C   0  0  0  0  0  0  0  0  0  0  0  0
   -0.4837   -1.8465   -2.5161 O   0  0  0  0  0  0  0  0  0  0  0  0
    0.7526   -3.6128   -0.5966 C   0  0  0  0  0  0  0  0  0  0  0  0
    1.9114   -4.3393    0.0634 C   0  0  0  0  0  0  0  0  0  0  0  0
    3.0869   -4.0047   -0.0495 O   0  0  0  0  0  0  0  0  0  0  0  0
    1.4929   -5.4191    0.8117 N   0  0  0  0  0  0  0  0  0  0  0  0
    1.1810   -2.0803    1.5718 H   0  0  0  0  0  0  0  0  0  0  0  0
    1.8726   -1.7606   -0.8452 H   0  0  0  0  0  0  0  0  0  0  0  0
   -0.1639   -3.9429   -0.0915 H   0  0  0  0  0  0  0  0  0  0  0  0
    0.6833   -3.9443   -1.6406 H   0  0  0  0  0  0  0  0  0  0  0  0
    0.5090   -5.6569    0.8795 H   0  0  0  0  0  0  0  0  0  0  0  0
    2.1419   -6.0126    1.3185 H   0  0  0  0  0  0  0  0  0  0  0  0
   -0.7585   -0.3298   -0.7837 N   0  0  0  0  0  0  0  0  0  0  0  0
   -1.7997    0.4432   -1.4174 C   0  0  2  0  0  0  0  0  0  0  0  0
   -2.9490   -0.4991   -1.7498 C   0  0  0  0  0  0  0  0  0  0  0  0
   -2.8057   -1.7134   -1.8761 O   0  0  0  0  0  0  0  0  0  0  0  0
   -1.2881    1.1394   -2.6689 C   0  0  0  0  0  0  0  0  0  0  0  0
   -0.4593   -0.0595    0.1485 H   0  0  0  0  0  0  0  0  0  0  0  0
   -2.1348    1.1841   -0.6833 H   0  0  0  0  0  0  0  0  0  0  0  0
   -0.9479    0.4131   -3.4161 H   0  0  0  0  0  0  0  0  0  0  0  0
   -2.0714    1.7482   -3.1325 H   0  0  0  0  0  0  0  0  0  0  0  0
   -0.4423    1.7941   -2.4326 H   0  0  0  0  0  0  0  0  0  0  0  0
   -4.1453    0.1806   -1.9315 N   0  0  0  0  0  0  0  0  0  0  0  0
   -5.3797   -0.4899   -2.2672 C   0  0  0  0  0  0  0  0  0  0  0  0
   -4.1757    1.1857   -1.7882 H   0  0  0  0  0  0  0  0  0  0  0  0
   -5.5006   -0.5109   -3.3603 H   0  0  0  0  0  0  0  0  0  0  0  0
   -5.3542   -1.5197   -1.8814 H   0  0  0  0  0  0  0  0  0  0  0  0
   -6.2248    0.0501   -1.8152 H   0  0  0  0  0  0  0  0  0  0  0  0
  1  3  1  0  0  0  0
  1  7  1  0  0  0  0
  1  2  2  0  0  0  0
 21 22  1  0  0  0  0
 22 24  1  0  0  0  0
 22 23  2  0  0  0  0
 32 33  1  0  0  0  0
 33 41  1  0  0  0  0
 33 34  2  0  0  0  0
  8  9  1  0  0  0  0
  9 17  1  0  0  0  0
  9 10  2  0  0  0  0
 18 19  1  0  0  0  0
 19 31  1  0  0  0  0
 19 20  2  0  0  0  0
 32 35  1  0  0  0  0
  8 11  1  0  0  0  0
 41 42  1  0  0  0  0
 18 21  1  0  0  0  0
 31 32  1  0  0  0  0
  7  8  1  0  0  0  0
 17 18  1  0  0  0  0
  3  4  1  0  0  0  0
  3  5  1  0  0  0  0
  3  6  1  0  0  0  0
 35 38  1  0  0  0  0
 35 39  1  0  0  0  0
 35 40  1  0  0  0  0
 11 14  1  0  0  0  0
 11 15  1  0  0  0  0
 11 16  1  0  0  0  0
 42 44  1  0  0  0  0
 42 45  1  0  0  0  0
 42 46  1  0  0  0  0
 21 27  1  0  0  0  0
 21 28  1  0  0  0  0
 32 37  1  0  0  0  0
  8 13  1  0  0  0  0
 18 26  1  0  0  0  0
 24 29  1  0  0  0  0
 24 30  1  0  0  0  0
 41 43  1  0  0  0  0
  7 12  1  0  0  0  0
 31 36  1  0  0  0  0
 17 25  1  0  0  0  0
M  END
$$$$

  -OEChem-05262214473D

 46 45  0     1  0  0  0  0  0999 V2000
   -0.0543    1.9736    3.8406 C   0  0  0  0  0  0  0  0  0  0  0  0
    0.6744    1.6099    4.7562 O   0  0  0  0  0  0  0  0  0  0  0  0
   -0.5599    3.3779    3.8160 C   0  0  0  0  0  0  0  0  0  0  0  0
   -1.5202    3.4885    4.3450 H   0  0  0  0  0  0  0  0  0  0  0  0
    0.1282    4.0814    4.3116 H   0  0  0  0  0  0  0  0  0  0  0  0
   -0.7317    3.7994    2.8126 H   0  0  0  0  0  0  0  0  0  0  0  0
   -0.4812    1.1968    2.7762 N   0  0  0  0  0  0  0  0  0  0  0  0
   -0.1106   -0.1834    2.6051 C   0  0  2  0  0  0  0  0  0  0  0  0
   -0.0696   -0.4775    1.1113 C   0  0  0  0  0  0  0  0  0  0  0  0
   -0.6805    0.1900    0.2792 O   0  0  0  0  0  0  0  0  0  0  0  0
   -1.0852   -1.1101    3.3150 C   0  0  0  0  0  0  0  0  0  0  0  0
   -1.0883    1.6241    2.0791 H   0  0  0  0  0  0  0  0  0  0  0  0
    0.8937   -0.2959    3.0277 H   0  0  0  0  0  0  0  0  0  0  0  0
   -2.0970   -1.0114    2.9051 H   0  0  0  0  0  0  0  0  0  0  0  0
   -0.7860   -2.1580    3.2078 H   0  0  0  0  0  0  0  0  0  0  0  0
   -1.1357   -0.8775    4.3842 H   0  0  0  0  0  0  0  0  0  0  0  0
    0.6950   -1.6003    0.8178 N   0  0  0  0  0  0  0  0  0  0  0  0
    0.8777   -2.0908   -0.5246 C   0  0  2  0  0  0  0  0  0  0  0  0
   -0.1723   -1.4239   -1.4044 C   0  0  0  0  0  0  0  0  0  0  0  0
   -0.6779   -1.9738   -2.3808 O   0  0  0  0  0  0  0  0  0  0  0  0
    0.7526   -3.6128   -0.5966 C   0  0  0  0  0  0  0  0  0  0  0  0
    1.9114   -4.3393    0.0634 C   0  0  0  0  0  0  0  0  0  0  0  0
    3.0869   -4.0047   -0.0495 O   0  0  0  0  0  0  0  0  0  0  0  0
    1.4929   -5.4191    0.8117 N   0  0  0  0  0  0  0  0  0  0  0  0
    1.1810   -2.0803    1.5718 H   0  0  0  0  0  0  0  0  0  0  0  0
    1.8726   -1.7606   -0.8452 H   0  0  0  0  0  0  0  0  0  0  0  0
   -0.1639   -3.9429   -0.0915 H   0  0  0  0  0  0  0  0  0  0  0  0
    0.6833   -3.9443   -1.6406 H   0  0  0  0  0  0  0  0  0  0  0  0
    0.5090   -5.6569    0.8795 H   0  0  0  0  0  0  0  0  0  0  0  0
    2.1419   -6.0126    1.3185 H   0  0  0  0  0  0  0  0  0  0  0  0
   -0.5170   -0.1610   -0.9439 N   0  0  0  0  0  0  0  0  0  0  0  0
   -1.5123    0.6496   -1.6039 C   0  0  2  0  0  0  0  0  0  0  0  0
   -2.8144   -0.1397   -1.6380 C   0  0  0  0  0  0  0  0  0  0  0  0
   -2.8587   -1.3649   -1.5487 O   0  0  0  0  0  0  0  0  0  0  0  0
   -1.0718    1.0324   -3.0082 C   0  0  0  0  0  0  0  0  0  0  0  0
   -0.0673    0.2124   -0.1132 H   0  0  0  0  0  0  0  0  0  0  0  0
   -1.6452    1.5481   -0.9916 H   0  0  0  0  0  0  0  0  0  0  0  0
   -0.9335    0.1449   -3.6365 H   0  0  0  0  0  0  0  0  0  0  0  0
   -1.8151    1.6709   -3.4970 H   0  0  0  0  0  0  0  0  0  0  0  0
   -0.1200    1.5741   -2.9840 H   0  0  0  0  0  0  0  0  0  0  0  0
   -3.9178    0.6816   -1.8233 N   0  0  0  0  0  0  0  0  0  0  0  0
   -5.2660    0.1698   -1.9029 C   0  0  0  0  0  0  0  0  0  0  0  0
   -3.7895    1.6882   -1.8682 H   0  0  0  0  0  0  0  0  0  0  0  0
   -5.5263   -0.0169   -2.9552 H   0  0  0  0  0  0  0  0  0  0  0  0
   -5.3353   -0.7703   -1.3359 H   0  0  0  0  0  0  0  0  0  0  0  0
   -5.9634    0.9066   -1.4779 H   0  0  0  0  0  0  0  0  0  0  0  0
  1  3  1  0  0  0  0
  1  7  1  0  0  0  0
  1  2  2  0  0  0  0
 21 22  1  0  0  0  0
 22 24  1  0  0  0  0
 22 23  2  0  0  0  0
 32 33  1  0  0  0  0
 33 41  1  0  0  0  0
 33 34  2  0  0  0  0
  8  9  1  0  0  0  0
  9 17  1  0  0  0  0
  9 10  2  0  0  0  0
 18 19  1  0  0  0  0
 19 31  1  0  0  0  0
 19 20  2  0  0  0  0
 32 35  1  0  0  0  0
  8 11  1  0  0  0  0
 41 42  1  0  0  0  0
 18 21  1  0  0  0  0
 31 32  1  0  0  0  0
  7  8  1  0  0  0  0
 17 18  1  0  0  0  0
  3  4  1  0  0  0  0
  3  5  1  0  0  0  0
  3  6  1  0  0  0  0
 35 38  1  0  0  0  0
 35 39  1  0  0  0  0
 35 40  1  0  0  0  0
 11 14  1  0  0  0  0
 11 15  1  0  0  0  0
 11 16  1  0  0  0  0
 42 44  1  0  0  0  0
 42 45  1  0  0  0  0
 42 46  1  0  0  0  0
 21 27  1  0  0  0  0
 21 28  1  0  0  0  0
 32 37  1  0  0  0  0
  8 13  1  0  0  0  0
 18 26  1  0  0  0  0
 24 29  1  0  0  0  0
 24 30  1  0  0  0  0
 41 43  1  0  0  0  0
  7 12  1  0  0  0  0
 31 36  1  0  0  0  0
 17 25  1  0  0  0  0
M  END
$$$$

  -OEChem-05262214473D

 46 45  0     1  0  0  0  0  0999 V2000
   -0.0543    1.9736    3.8406 C   0  0  0  0  0  0  0  0  0  0  0  0
    0.6744    1.6099    4.7562 O   0  0  0  0  0  0  0  0  0  0  0  0
   -0.5599    3.3779    3.8160 C   0  0  0  0  0  0  0  0  0  0  0  0
   -1.5202    3.4885    4.3450 H   0  0  0  0  0  0  0  0  0  0  0  0
    0.1282    4.0814    4.3116 H   0  0  0  0  0  0  0  0  0  0  0  0
   -0.7317    3.7994    2.8126 H   0  0  0  0  0  0  0  0  0  0  0  0
   -0.4812    1.1968    2.7762 N   0  0  0  0  0  0  0  0  0  0  0  0
   -0.1106   -0.1834    2.6051 C   0  0  2  0  0  0  0  0  0  0  0  0
   -0.0696   -0.4775    1.1113 C   0  0  0  0  0  0  0  0  0  0  0  0
   -0.6805    0.1900    0.2792 O   0  0  0  0  0  0  0  0  0  0  0  0
   -1.0852   -1.1101    3.3150 C   0  0  0  0  0  0  0  0  0  0  0  0
   -1.0883    1.6241    2.0791 H   0  0  0  0  0  0  0  0  0  0  0  0
    0.8937   -0.2959    3.0277 H   0  0  0  0  0  0  0  0  0  0  0  0
   -2.0970   -1.0114    2.9051 H   0  0  0  0  0  0  0  0  0  0  0  0
   -0.7860   -2.1580    3.2078 H   0  0  0  0  0  0  0  0  0  0  0  0
   -1.1357   -0.8775    4.3842 H   0  0  0  0  0  0  0  0  0  0  0  0
    0.6950   -1.6003    0.8178 N   0  0  0  0  0  0  0  0  0  0  0  0
    0.8777   -2.0908   -0.5246 C   0  0  2  0  0  0  0  0  0  0  0  0
   -0.1723   -1.4239   -1.4044 C   0  0  0  0  0  0  0  0  0  0  0  0
   -0.8693   -2.0436   -2.2054 O   0  0  0  0  0  0  0  0  0  0  0  0
    0.7526   -3.6128   -0.5966 C   0  0  0  0  0  0  0  0  0  0  0  0
    1.9114   -4.3393    0.0634 C   0  0  0  0  0  0  0  0  0  0  0  0
    3.0869   -4.0047   -0.0495 O   0  0  0  0  0  0  0  0  0  0  0  0
    1.4929   -5.4191    0.8117 N   0  0  0  0  0  0  0  0  0  0  0  0
    1.1810   -2.0803    1.5718 H   0  0  0  0  0  0  0  0  0  0  0  0
    1.8726   -1.7606   -0.8452 H   0  0  0  0  0  0  0  0  0  0  0  0
   -0.1639   -3.9429   -0.0915 H   0  0  0  0  0  0  0  0  0  0  0  0
    0.6833   -3.9443   -1.6406 H   0  0  0  0  0  0  0  0  0  0  0  0
    0.5090   -5.6569    0.8795 H   0  0  0  0  0  0  0  0  0  0  0  0
    2.1419   -6.0126    1.3185 H   0  0  0  0  0  0  0  0  0  0  0  0
   -0.2767   -0.0625   -1.1562 N   0  0  0  0  0  0  0  0  0  0  0  0
   -1.2250    0.7727   -1.8534 C   0  0  2  0  0  0  0  0  0  0  0  0
   -2.6180    0.2073   -1.6093 C   0  0  0  0  0  0  0  0  0  0  0  0
   -2.8207   -0.9619   -1.2885 O   0  0  0  0  0  0  0  0  0  0  0  0
   -0.9173    0.8362   -3.3413 C   0  0  0  0  0  0  0  0  0  0  0  0
    0.3224    0.3697   -0.4590 H   0  0  0  0  0  0  0  0  0  0  0  0
   -1.1528    1.7716   -1.4098 H   0  0  0  0  0  0  0  0  0  0  0  0
   -0.9847   -0.1556   -3.8032 H   0  0  0  0  0  0  0  0  0  0  0  0
   -1.6204    1.4928   -3.8643 H   0  0  0  0  0  0  0  0  0  0  0  0
    0.0959    1.2150   -3.5139 H   0  0  0  0  0  0  0  0  0  0  0  0
   -3.6108    1.1508   -1.8339 N   0  0  0  0  0  0  0  0  0  0  0  0
   -5.0163    0.8549   -1.6816 C   0  0  0  0  0  0  0  0  0  0  0  0
   -3.3505    2.1015   -2.0788 H   0  0  0  0  0  0  0  0  0  0  0  0
   -5.4314    0.5364   -2.6491 H   0  0  0  0  0  0  0  0  0  0  0  0
   -5.1432    0.0481   -0.9448 H   0  0  0  0  0  0  0  0  0  0  0  0
   -5.5448    1.7550   -1.3345 H   0  0  0  0  0  0  0  0  0  0  0  0
  1  3  1  0  0  0  0
  1  7  1  0  0  0  0
  1  2  2  0  0  0  0
 21 22  1  0  0  0  0
 22 24  1  0  0  0  0
 22 23  2  0  0  0  0
 32 33  1  0  0  0  0
 33 41  1  0  0  0  0
 33 34  2  0  0  0  0
  8  9  1  0  0  0  0
  9 17  1  0  0  0  0
  9 10  2  0  0  0  0
 18 19  1  0  0  0  0
 19 31  1  0  0  0  0
 19 20  2  0  0  0  0
 32 35  1  0  0  0  0
  8 11  1  0  0  0  0
 41 42  1  0  0  0  0
 18 21  1  0  0  0  0
 31 32  1  0  0  0  0
  7  8  1  0  0  0  0
 17 18  1  0  0  0  0
  3  4  1  0  0  0  0
  3  5  1  0  0  0  0
  3  6  1  0  0  0  0
 35 38  1  0  0  0  0
 35 39  1  0  0  0  0
 35 40  1  0  0  0  0
 11 14  1  0  0  0  0
 11 15  1  0  0  0  0
 11 16  1  0  0  0  0
 42 44  1  0  0  0  0
 42 45  1  0  0  0  0
 42 46  1  0  0  0  0
 21 27  1  0  0  0  0
 21 28  1  0  0  0  0
 32 37  1  0  0  0  0
  8 13  1  0  0  0  0
 18 26  1  0  0  0  0
 24 29  1  0  0  0  0
 24 30  1  0  0  0  0
 41 43  1  0  0  0  0
  7 12  1  0  0  0  0
 31 36  1  0  0  0  0
 17 25  1  0  0  0  0
M  END
$$$$

  -OEChem-05262214473D

 46 45  0     1  0  0  0  0  0999 V2000
   -0.0543    1.9736    3.8406 C   0  0  0  0  0  0  0  0  0  0  0  0
    0.6744    1.6099    4.7562 O   0  0  0  0  0  0  0  0  0  0  0  0
   -0.5599    3.3779    3.8160 C   0  0  0  0  0  0  0  0  0  0  0  0
   -1.5202    3.4885    4.3450 H   0  0  0  0  0  0  0  0  0  0  0  0
    0.1282    4.0814    4.3116 H   0  0  0  0  0  0  0  0  0  0  0  0
   -0.7317    3.7994    2.8126 H   0  0  0  0  0  0  0  0  0  0  0  0
   -0.4812    1.1968    2.7762 N   0  0  0  0  0  0  0  0  0  0  0  0
   -0.1106   -0.1834    2.6051 C   0  0  2  0  0  0  0  0  0  0  0  0
   -0.0696   -0.4775    1.1113 C   0  0  0  0  0  0  0  0  0  0  0  0
   -0.6805    0.1900    0.2792 O   0  0  0  0  0  0  0  0  0  0  0  0
   -1.0852   -1.1101    3.3150 C   0  0  0  0  0  0  0  0  0  0  0  0
   -1.0883    1.6241    2.0791 H   0  0  0  0  0  0  0  0  0  0  0  0
    0.8937   -0.2959    3.0277 H   0  0  0  0  0  0  0  0  0  0  0  0
   -2.0970   -1.0114    2.9051 H   0  0  0  0  0  0  0  0  0  0  0  0
   -0.7860   -2.1580    3.2078 H   0  0  0  0  0  0  0  0  0  0  0  0
   -1.1357   -0.8775    4.3842 H   0  0  0  0  0  0  0  0  0  0  0  0
    0.6950   -1.6003    0.8178 N   0  0  0  0  0  0  0  0  0  0  0  0
    0.8777   -2.0908   -0.5246 C   0  0  2  0  0  0  0  0  0  0  0  0
   -0.1723   -1.4239   -1.4044 C   0  0  0  0  0  0  0  0  0  0  0  0
   -1.0447   -2.0512   -2.0018 O   0  0  0  0  0  0  0  0  0  0  0  0
    0.7526   -3.6128   -0.5966 C   0  0  0  0  0  0  0  0  0  0  0  0
    1.9114   -4.3393    0.0634 C   0  0  0  0  0  0  0  0  0  0  0  0
    3.0869   -4.0047   -0.0495 O   0  0  0  0  0  0  0  0  0  0  0  0
    1.4929   -5.4191    0.8117 N   0  0  0  0  0  0  0  0  0  0  0  0
    1.1810   -2.0803    1.5718 H   0  0  0  0  0  0  0  0  0  0  0  0
    1.8726   -1.7606   -0.8452 H   0  0  0  0  0  0  0  0  0  0  0  0
   -0.1639   -3.9429   -0.0915 H   0  0  0  0  0  0  0  0  0  0  0  0
    0.6833   -3.9443   -1.6406 H   0  0  0  0  0  0  0  0  0  0  0  0
    0.5090   -5.6569    0.8795 H   0  0  0  0  0  0  0  0  0  0  0  0
    2.1419   -6.0126    1.3185 H   0  0  0  0  0  0  0  0  0  0  0  0
   -0.0538   -0.0412   -1.4059 N   0  0  0  0  0  0  0  0  0  0  0  0
   -0.9574    0.8041   -2.1489 C   0  0  2  0  0  0  0  0  0  0  0  0
   -2.3732    0.5183   -1.6658 C   0  0  0  0  0  0  0  0  0  0  0  0
   -2.6943   -0.5319   -1.1134 O   0  0  0  0  0  0  0  0  0  0  0  0
   -0.8351    0.5641   -3.6456 C   0  0  0  0  0  0  0  0  0  0  0  0
    0.6831    0.4018   -0.8652 H   0  0  0  0  0  0  0  0  0  0  0  0
   -0.6912    1.8393   -1.9094 H   0  0  0  0  0  0  0  0  0  0  0  0
   -1.0979   -0.4679   -3.9049 H   0  0  0  0  0  0  0  0  0  0  0  0
   -1.5006    1.2262   -4.2094 H   0  0  0  0  0  0  0  0  0  0  0  0
    0.1908    0.7414   -3.9862 H   0  0  0  0  0  0  0  0  0  0  0  0
   -3.2454    1.5562   -1.9626 N   0  0  0  0  0  0  0  0  0  0  0  0
   -4.6476    1.5189   -1.6183 C   0  0  0  0  0  0  0  0  0  0  0  0
   -2.8885    2.3976   -2.4057 H   0  0  0  0  0  0  0  0  0  0  0  0
   -5.2224    1.1112   -2.4629 H   0  0  0  0  0  0  0  0  0  0  0  0
   -4.7911    0.8796   -0.7347 H   0  0  0  0  0  0  0  0  0  0  0  0
   -4.9973    2.5375   -1.3946 H   0  0  0  0  0  0  0  0  0  0  0  0
  1  3  1  0  0  0  0
  1  7  1  0  0  0  0
  1  2  2  0  0  0  0
 21 22  1  0  0  0  0
 22 24  1  0  0  0  0
 22 23  2  0  0  0  0
 32 33  1  0  0  0  0
 33 41  1  0  0  0  0
 33 34  2  0  0  0  0
  8  9  1  0  0  0  0
  9 17  1  0  0  0  0
  9 10  2  0  0  0  0
 18 19  1  0  0  0  0
 19 31  1  0  0  0  0
 19 20  2  0  0  0  0
 32 35  1  0  0  0  0
  8 11  1  0  0  0  0
 41 42  1  0  0  0  0
 18 21  1  0  0  0  0
 31 32  1  0  0  0  0
  7  8  1  0  0  0  0
 17 18  1  0  0  0  0
  3  4  1  0  0  0  0
  3  5  1  0  0  0  0
  3  6  1  0  0  0  0
 35 38  1  0  0  0  0
 35 39  1  0  0  0  0
 35 40  1  0  0  0  0
 11 14  1  0  0  0  0
 11 15  1  0  0  0  0
 11 16  1  0  0  0  0
 42 44  1  0  0  0  0
 42 45  1  0  0  0  0
 42 46  1  0  0  0  0
 21 27  1  0  0  0  0
 21 28  1  0  0  0  0
 32 37  1  0  0  0  0
  8 13  1  0  0  0  0
 18 26  1  0  0  0  0
 24 29  1  0  0  0  0
 24 30  1  0  0  0  0
 41 43  1  0  0  0  0
  7 12  1  0  0  0  0
 31 36  1  0  0  0  0
 17 25  1  0  0  0  0
M  END
$$$$

  -OEChem-05262214473D

 46 45  0     1  0  0  0  0  0999 V2000
   -0.0543    1.9736    3.8406 C   0  0  0  0  0  0  0  0  0  0  0  0
    0.6744    1.6099    4.7562 O   0  0  0  0  0  0  0  0  0  0  0  0
   -0.5599    3.3779    3.8160 C   0  0  0  0  0  0  0  0  0  0  0  0
   -1.5202    3.4885    4.3450 H   0  0  0  0  0  0  0  0  0  0  0  0
    0.1282    4.0814    4.3116 H   0  0  0  0  0  0  0  0  0  0  0  0
   -0.7317    3.7994    2.8126 H   0  0  0  0  0  0  0  0  0  0  0  0
   -0.4812    1.1968    2.7762 N   0  0  0  0  0  0  0  0  0  0  0  0
   -0.1106   -0.1834    2.6051 C   0  0  2  0  0  0  0  0  0  0  0  0
   -0.0696   -0.4775    1.1113 C   0  0  0  0  0  0  0  0  0  0  0  0
   -0.6805    0.1900    0.2792 O   0  0  0  0  0  0  0  0  0  0  0  0
   -1.0852   -1.1101    3.3150 C   0  0  0  0  0  0  0  0  0  0  0  0
   -1.0883    1.6241    2.0791 H   0  0  0  0  0  0  0  0  0  0  0  0
    0.8937   -0.2959    3.0277 H   0  0  0  0  0  0  0  0  0  0  0  0
   -2.0970   -1.0114    2.9051 H   0  0  0  0  0  0  0  0  0  0  0  0
   -0.7860   -2.1580    3.2078 H   0  0  0  0  0  0  0  0  0  0  0  0
   -1.1357   -0.8775    4.3842 H   0  0  0  0  0  0  0  0  0  0  0  0
    0.6950   -1.6003    0.8178 N   0  0  0  0  0  0  0  0  0  0  0  0
    0.8777   -2.0908   -0.5246 C   0  0  2  0  0  0  0  0  0  0  0  0
   -0.1723   -1.4239   -1.4044 C   0  0  0  0  0  0  0  0  0  0  0  0
   -1.1922   -1.9960   -1.7840 O   0  0  0  0  0  0  0  0  0  0  0  0
    0.7526   -3.6128   -0.5966 C   0  0  0  0  0  0  0  0  0  0  0  0
    1.9114   -4.3393    0.0634 C   0  0  0  0  0  0  0  0  0  0  0  0
    3.0869   -4.0047   -0.0495 O   0  0  0  0  0  0  0  0  0  0  0  0
    1.4929   -5.4191    0.8117 N   0  0  0  0  0  0  0  0  0  0  0  0
    1.1810   -2.0803    1.5718 H   0  0  0  0  0  0  0  0  0  0  0  0
    1.8726   -1.7606   -0.8452 H   0  0  0  0  0  0  0  0  0  0  0  0
   -0.1639   -3.9429   -0.0915 H   0  0  0  0  0  0  0  0  0  0  0  0
    0.6833   -3.9443   -1.6406 H   0  0  0  0  0  0  0  0  0  0  0  0
    0.5090   -5.6569    0.8795 H   0  0  0  0  0  0  0  0  0  0  0  0
    2.1419   -6.0126    1.3185 H   0  0  0  0  0  0  0  0  0  0  0  0
    0.1363   -0.0985   -1.6763 N   0  0  0  0  0  0  0  0  0  0  0  0
   -0.7277    0.7418   -2.4703 C   0  0  2  0  0  0  0  0  0  0  0  0
   -2.0967    0.7720   -1.8035 C   0  0  0  0  0  0  0  0  0  0  0  0
   -2.4881   -0.1042   -1.0353 O   0  0  0  0  0  0  0  0  0  0  0  0
   -0.8308    0.2348   -3.9004 C   0  0  0  0  0  0  0  0  0  0  0  0
    0.9903    0.3064   -1.3041 H   0  0  0  0  0  0  0  0  0  0  0  0
   -0.2917    1.7466   -2.4563 H   0  0  0  0  0  0  0  0  0  0  0  0
   -1.2655   -0.7709   -3.9345 H   0  0  0  0  0  0  0  0  0  0  0  0
   -1.4637    0.8893   -4.5087 H   0  0  0  0  0  0  0  0  0  0  0  0
    0.1582    0.1854   -4.3686 H   0  0  0  0  0  0  0  0  0  0  0  0
   -2.8465    1.8703   -2.2007 N   0  0  0  0  0  0  0  0  0  0  0  0
   -4.1851    2.1164   -1.7174 C   0  0  0  0  0  0  0  0  0  0  0  0
   -2.4350    2.5563   -2.8266 H   0  0  0  0  0  0  0  0  0  0  0  0
   -4.9135    1.6683   -2.4092 H   0  0  0  0  0  0  0  0  0  0  0  0
   -4.3029    1.6677   -0.7200 H   0  0  0  0  0  0  0  0  0  0  0  0
   -4.3584    3.2008   -1.6544 H   0  0  0  0  0  0  0  0  0  0  0  0
  1  3  1  0  0  0  0
  1  7  1  0  0  0  0
  1  2  2  0  0  0  0
 21 22  1  0  0  0  0
 22 24  1  0  0  0  0
 22 23  2  0  0  0  0
 32 33  1  0  0  0  0
 33 41  1  0  0  0  0
 33 34  2  0  0  0  0
  8  9  1  0  0  0  0
  9 17  1  0  0  0  0
  9 10  2  0  0  0  0
 18 19  1  0  0  0  0
 19 31  1  0  0  0  0
 19 20  2  0  0  0  0
 32 35  1  0  0  0  0
  8 11  1  0  0  0  0
 41 42  1  0  0  0  0
 18 21  1  0  0  0  0
 31 32  1  0  0  0  0
  7  8  1  0  0  0  0
 17 18  1  0  0  0  0
  3  4  1  0  0  0  0
  3  5  1  0  0  0  0
  3  6  1  0  0  0  0
 35 38  1  0  0  0  0
 35 39  1  0  0  0  0
 35 40  1  0  0  0  0
 11 14  1  0  0  0  0
 11 15  1  0  0  0  0
 11 16  1  0  0  0  0
 42 44  1  0  0  0  0
 42 45  1  0  0  0  0
 42 46  1  0  0  0  0
 21 27  1  0  0  0  0
 21 28  1  0  0  0  0
 32 37  1  0  0  0  0
  8 13  1  0  0  0  0
 18 26  1  0  0  0  0
 24 29  1  0  0  0  0
 24 30  1  0  0  0  0
 41 43  1  0  0  0  0
  7 12  1  0  0  0  0
 31 36  1  0  0  0  0
 17 25  1  0  0  0  0
M  END
$$$$

  -OEChem-05262214473D

 46 45  0     1  0  0  0  0  0999 V2000
   -0.0543    1.9736    3.8406 C   0  0  0  0  0  0  0  0  0  0  0  0
    0.6744    1.6099    4.7562 O   0  0  0  0  0  0  0  0  0  0  0  0
   -0.5599    3.3779    3.8160 C   0  0  0  0  0  0  0  0  0  0  0  0
   -1.5202    3.4885    4.3450 H   0  0  0  0  0  0  0  0  0  0  0  0
    0.1282    4.0814    4.3116 H   0  0  0  0  0  0  0  0  0  0  0  0
   -0.7317    3.7994    2.8126 H   0  0  0  0  0  0  0  0  0  0  0  0
   -0.4812    1.1968    2.7762 N   0  0  0  0  0  0  0  0  0  0  0  0
   -0.1106   -0.1834    2.6051 C   0  0  2  0  0  0  0  0  0  0  0  0
   -0.0696   -0.4775    1.1113 C   0  0  0  0  0  0  0  0  0  0  0  0
   -0.6805    0.1900    0.2792 O   0  0  0  0  0  0  0  0  0  0  0  0
   -1.0852   -1.1101    3.3150 C   0  0  0  0  0  0  0  0  0  0  0  0
   -1.0883    1.6241    2.0791 H   0  0  0  0  0  0  0  0  0  0  0  0
    0.8937   -0.2959    3.0277 H   0  0  0  0  0  0  0  0  0  0  0  0
   -2.0970   -1.0114    2.9051 H   0  0  0  0  0  0  0  0  0  0  0  0
   -0.7860   -2.1580    3.2078 H   0  0  0  0  0  0  0  0  0  0  0  0
   -1.1357   -0.8775    4.3842 H   0  0  0  0  0  0  0  0  0  0  0  0
    0.6950   -1.6003    0.8178 N   0  0  0  0  0  0  0  0  0  0  0  0
    0.8777   -2.0908   -0.5246 C   0  0  2  0  0  0  0  0  0  0  0  0
   -0.1723   -1.4239   -1.4044 C   0  0  0  0  0  0  0  0  0  0  0  0
   -1.3017   -1.8818   -1.5667 O   0  0  0  0  0  0  0  0  0  0  0  0
    0.7526   -3.6128   -0.5966 C   0  0  0  0  0  0  0  0  0  0  0  0
    1.9114   -4.3393    0.0634 C   0  0  0  0  0  0  0  0  0  0  0  0
    3.0869   -4.0047   -0.0495 O   0  0  0  0  0  0  0  0  0  0  0  0
    1.4929   -5.4191    0.8117 N   0  0  0  0  0  0  0  0  0  0  0  0
    1.1810   -2.0803    1.5718 H   0  0  0  0  0  0  0  0  0  0  0  0
    1.8726   -1.7606   -0.8452 H   0  0  0  0  0  0  0  0  0  0  0  0
   -0.1639   -3.9429   -0.0915 H   0  0  0  0  0  0  0  0  0  0  0  0
    0.6833   -3.9443   -1.6406 H   0  0  0  0  0  0  0  0  0  0  0  0
    0.5090   -5.6569    0.8795 H   0  0  0  0  0  0  0  0  0  0  0  0
    2.1419   -6.0126    1.3185 H   0  0  0  0  0  0  0  0  0  0  0  0
    0.2808   -0.2304   -1.9487 N   0  0  0  0  0  0  0  0  0  0  0  0
   -0.5516    0.5899   -2.7956 C   0  0  2  0  0  0  0  0  0  0  0  0
   -1.8072    0.9512   -2.0131 C   0  0  0  0  0  0  0  0  0  0  0  0
   -2.2162    0.2920   -1.0595 O   0  0  0  0  0  0  0  0  0  0  0  0
   -0.9048   -0.1294   -4.0882 C   0  0  0  0  0  0  0  0  0  0  0  0
    1.2231    0.0900   -1.7458 H   0  0  0  0  0  0  0  0  0  0  0  0
    0.0183    1.4998   -3.0133 H   0  0  0  0  0  0  0  0  0  0  0  0
   -1.4760   -1.0437   -3.8902 H   0  0  0  0  0  0  0  0  0  0  0  0
   -1.5125    0.5049   -4.7419 H   0  0  0  0  0  0  0  0  0  0  0  0
    0.0003   -0.4149   -4.6352 H   0  0  0  0  0  0  0  0  0  0  0  0
   -2.4411    2.0715   -2.5319 N   0  0  0  0  0  0  0  0  0  0  0  0
   -3.6602    2.6067   -1.9720 C   0  0  0  0  0  0  0  0  0  0  0  0
   -2.0209    2.5667   -3.3129 H   0  0  0  0  0  0  0  0  0  0  0  0
   -4.5257    2.1700   -2.4918 H   0  0  0  0  0  0  0  0  0  0  0  0
   -3.7119    2.3585   -0.9016 H   0  0  0  0  0  0  0  0  0  0  0  0
   -3.6715    3.6997   -2.0959 H   0  0  0  0  0  0  0  0  0  0  0  0
  1  3  1  0  0  0  0
  1  7  1  0  0  0  0
  1  2  2  0  0  0  0
 21 22  1  0  0  0  0
 22 24  1  0  0  0  0
 22 23  2  0  0  0  0
 32 33  1  0  0  0  0
 33 41  1  0  0  0  0
 33 34  2  0  0  0  0
  8  9  1  0  0  0  0
  9 17  1  0  0  0  0
  9 10  2  0  0  0  0
 18 19  1  0  0  0  0
 19 31  1  0  0  0  0
 19 20  2  0  0  0  0
 32 35  1  0  0  0  0
  8 11  1  0  0  0  0
 41 42  1  0  0  0  0
 18 21  1  0  0  0  0
 31 32  1  0  0  0  0
  7  8  1  0  0  0  0
 17 18  1  0  0  0  0
  3  4  1  0  0  0  0
  3  5  1  0  0  0  0
  3  6  1  0  0  0  0
 35 38  1  0  0  0  0
 35 39  1  0  0  0  0
 35 40  1  0  0  0  0
 11 14  1  0  0  0  0
 11 15  1  0  0  0  0
 11 16  1  0  0  0  0
 42 44  1  0  0  0  0
 42 45  1  0  0  0  0
 42 46  1  0  0  0  0
 21 27  1  0  0  0  0
 21 28  1  0  0  0  0
 32 37  1  0  0  0  0
  8 13  1  0  0  0  0
 18 26  1  0  0  0  0
 24 29  1  0  0  0  0
 24 30  1  0  0  0  0
 41 43  1  0  0  0  0
  7 12  1  0  0  0  0
 31 36  1  0  0  0  0
 17 25  1  0  0  0  0
M  END
$$$$

  -OEChem-05262214473D

 46 45  0     1  0  0  0  0  0999 V2000
   -0.0543    1.9736    3.8406 C   0  0  0  0  0  0  0  0  0  0  0  0
    0.6744    1.6099    4.7562 O   0  0  0  0  0  0  0  0  0  0  0  0
   -0.5599    3.3779    3.8160 C   0  0  0  0  0  0  0  0  0  0  0  0
   -1.5202    3.4885    4.3450 H   0  0  0  0  0  0  0  0  0  0  0  0
    0.1282    4.0814    4.3116 H   0  0  0  0  0  0  0  0  0  0  0  0
   -0.7317    3.7994    2.8126 H   0  0  0  0  0  0  0  0  0  0  0  0
   -0.4812    1.1968    2.7762 N   0  0  0  0  0  0  0  0  0  0  0  0
   -0.1106   -0.1834    2.6051 C   0  0  2  0  0  0  0  0  0  0  0  0
   -0.0696   -0.4775    1.1113 C   0  0  0  0  0  0  0  0  0  0  0  0
   -0.6805    0.1900    0.2792 O   0  0  0  0  0  0  0  0  0  0  0  0
   -1.0852   -1.1101    3.3150 C   0  0  0  0  0  0  0  0  0  0  0  0
   -1.0883    1.6241    2.0791 H   0  0  0  0  0  0  0  0  0  0  0  0
    0.8937   -0.2959    3.0277 H   0  0  0  0  0  0  0  0  0  0  0  0
   -2.0970   -1.0114    2.9051 H   0  0  0  0  0  0  0  0  0  0  0  0
   -0.7860   -2.1580    3.2078 H   0  0  0  0  0  0  0  0  0  0  0  0
   -1.1357   -0.8775    4.3842 H   0  0  0  0  0  0  0  0  0  0  0  0
    0.6950   -1.6003    0.8178 N   0  0  0  0  0  0  0  0  0  0  0  0
    0.8777   -2.0908   -0.5246 C   0  0  2  0  0  0  0  0  0  0  0  0
   -0.1723   -1.4239   -1.4044 C   0  0  0  0  0  0  0  0  0  0  0  0
   -1.3658   -1.7163   -1.3648 O   0  0  0  0  0  0  0  0  0  0  0  0
    0.7526   -3.6128   -0.5966 C   0  0  0  0  0  0  0  0  0  0  0  0
    1.9114   -4.3393    0.0634 C   0  0  0  0  0  0  0  0  0  0  0  0
    3.0869   -4.0047   -0.0495 O   0  0  0  0  0  0  0  0  0  0  0  0
    1.4929   -5.4191    0.8117 N   0  0  0  0  0  0  0  0  0  0  0  0
    1.1810   -2.0803    1.5718 H   0  0  0  0  0  0  0  0  0  0  0  0
    1.8726   -1.7606   -0.8452 H   0  0  0  0  0  0  0  0  0  0  0  0
   -0.1639   -3.9429   -0.0915 H   0  0  0  0  0  0  0  0  0  0  0  0
    0.6833   -3.9443   -1.6406 H   0  0  0  0  0  0  0  0  0  0  0  0
    0.5090   -5.6569    0.8795 H   0  0  0  0  0  0  0  0  0  0  0  0
    2.1419   -6.0126    1.3185 H   0  0  0  0  0  0  0  0  0  0  0  0
    0.3698   -0.4281   -2.2047 N   0  0  0  0  0  0  0  0  0  0  0  0
   -0.4410    0.3588   -3.1028 C   0  0  2  0  0  0  0  0  0  0  0  0
   -1.5246    1.0436   -2.2803 C   0  0  0  0  0  0  0  0  0  0  0  0
   -1.8970    0.6298   -1.1843 O   0  0  0  0  0  0  0  0  0  0  0  0
   -1.0519   -0.5036   -4.1962 C   0  0  0  0  0  0  0  0  0  0  0  0
    1.3655   -0.2325   -2.1603 H   0  0  0  0  0  0  0  0  0  0  0  0
    0.2177    1.1157   -3.5424 H   0  0  0  0  0  0  0  0  0  0  0  0
   -1.7151   -1.2679   -3.7748 H   0  0  0  0  0  0  0  0  0  0  0  0
   -1.6434    0.0993   -4.8931 H   0  0  0  0  0  0  0  0  0  0  0  0
   -0.2722   -1.0186   -4.7677 H   0  0  0  0  0  0  0  0  0  0  0  0
   -2.0571    2.1463   -2.9336 N   0  0  0  0  0  0  0  0  0  0  0  0
   -3.1088    2.9565   -2.3649 C   0  0  0  0  0  0  0  0  0  0  0  0
   -1.6745    2.4281   -3.8313 H   0  0  0  0  0  0  0  0  0  0  0  0
   -4.0855    2.5818   -2.7049 H   0  0  0  0  0  0  0  0  0  0  0  0
   -3.0583    2.9051   -1.2673 H   0  0  0  0  0  0  0  0  0  0  0  0
   -2.9835    4.0001   -2.6893 H   0  0  0  0  0  0  0  0  0  0  0  0
  1  3  1  0  0  0  0
  1  7  1  0  0  0  0
  1  2  2  0  0  0  0
 21 22  1  0  0  0  0
 22 24  1  0  0  0  0
 22 23  2  0  0  0  0
 32 33  1  0  0  0  0
 33 41  1  0  0  0  0
 33 34  2  0  0  0  0
  8  9  1  0  0  0  0
  9 17  1  0  0  0  0
  9 10  2  0  0  0  0
 18 19  1  0  0  0  0
 19 31  1  0  0  0  0
 19 20  2  0  0  0  0
 32 35  1  0  0  0  0
  8 11  1  0  0  0  0
 41 42  1  0  0  0  0
 18 21  1  0  0  0  0
 31 32  1  0  0  0  0
  7  8  1  0  0  0  0
 17 18  1  0  0  0  0
  3  4  1  0  0  0  0
  3  5  1  0  0  0  0
  3  6  1  0  0  0  0
 35 38  1  0  0  0  0
 35 39  1  0  0  0  0
 35 40  1  0  0  0  0
 11 14  1  0  0  0  0
 11 15  1  0  0  0  0
 11 16  1  0  0  0  0
 42 44  1  0  0  0  0
 42 45  1  0  0  0  0
 42 46  1  0  0  0  0
 21 27  1  0  0  0  0
 21 28  1  0  0  0  0
 32 37  1  0  0  0  0
  8 13  1  0  0  0  0
 18 26  1  0  0  0  0
 24 29  1  0  0  0  0
 24 30  1  0  0  0  0
 41 43  1  0  0  0  0
  7 12  1  0  0  0  0
 31 36  1  0  0  0  0
 17 25  1  0  0  0  0
M  END
$$$$

  -OEChem-05262214473D

 46 45  0     1  0  0  0  0  0999 V2000
   -0.0543    1.9736    3.8406 C   0  0  0  0  0  0  0  0  0  0  0  0
    0.6744    1.6099    4.7562 O   0  0  0  0  0  0  0  0  0  0  0  0
   -0.5599    3.3779    3.8160 C   0  0  0  0  0  0  0  0  0  0  0  0
   -1.5202    3.4885    4.3450 H   0  0  0  0  0  0  0  0  0  0  0  0
    0.1282    4.0814    4.3116 H   0  0  0  0  0  0  0  0  0  0  0  0
   -0.7317    3.7994    2.8126 H   0  0  0  0  0  0  0  0  0  0  0  0
   -0.4812    1.1968    2.7762 N   0  0  0  0  0  0  0  0  0  0  0  0
   -0.1106   -0.1834    2.6051 C   0  0  2  0  0  0  0  0  0  0  0  0
   -0.0696   -0.4775    1.1113 C   0  0  0  0  0  0  0  0  0  0  0  0
   -0.6805    0.1900    0.2792 O   0  0  0  0  0  0  0  0  0  0  0  0
   -1.0852   -1.1101    3.3150 C   0  0  0  0  0  0  0  0  0  0  0  0
   -1.0883    1.6241    2.0791 H   0  0  0  0  0  0  0  0  0  0  0  0
    0.8937   -0.2959    3.0277 H   0  0  0  0  0  0  0  0  0  0  0  0
   -2.0970   -1.0114    2.9051 H   0  0  0  0  0  0  0  0  0  0  0  0
   -0.7860   -2.1580    3.2078 H   0  0  0  0  0  0  0  0  0  0  0  0
   -1.1357   -0.8775    4.3842 H   0  0  0  0  0  0  0  0  0  0  0  0
    0.6950   -1.6003    0.8178 N   0  0  0  0  0  0  0  0  0  0  0  0
    0.8777   -2.0908   -0.5246 C   0  0  2  0  0  0  0  0  0  0  0  0
   -0.1723   -1.4239   -1.4044 C   0  0  0  0  0  0  0  0  0  0  0  0
   -1.3801   -1.5109   -1.1920 O   0  0  0  0  0  0  0  0  0  0  0  0
    0.7526   -3.6128   -0.5966 C   0  0  0  0  0  0  0  0  0  0  0  0
    1.9114   -4.3393    0.0634 C   0  0  0  0  0  0  0  0  0  0  0  0
    3.0869   -4.0047   -0.0495 O   0  0  0  0  0  0  0  0  0  0  0  0
    1.4929   -5.4191    0.8117 N   0  0  0  0  0  0  0  0  0  0  0  0
    1.1810   -2.0803    1.5718 H   0  0  0  0  0  0  0  0  0  0  0  0
    1.8726   -1.7606   -0.8452 H   0  0  0  0  0  0  0  0  0  0  0  0
   -0.1639   -3.9429   -0.0915 H   0  0  0  0  0  0  0  0  0  0  0  0
    0.6833   -3.9443   -1.6406 H   0  0  0  0  0  0  0  0  0  0  0  0
    0.5090   -5.6569    0.8795 H   0  0  0  0  0  0  0  0  0  0  0  0
    2.1419   -6.0126    1.3185 H   0  0  0  0  0  0  0  0  0  0  0  0
    0.3971   -0.6780   -2.4268 N   0  0  0  0  0  0  0  0  0  0  0  0
   -0.4035    0.0643   -3.3707 C   0  0  2  0  0  0  0  0  0  0  0  0
   -1.2681    1.0429   -2.5869 C   0  0  0  0  0  0  0  0  0  0  0  0
   -1.5524    0.8861   -1.4013 O   0  0  0  0  0  0  0  0  0  0  0  0
   -1.2622   -0.8624   -4.2171 C   0  0  0  0  0  0  0  0  0  0  0  0
    1.4079   -0.6393   -2.5193 H   0  0  0  0  0  0  0  0  0  0  0  0
    0.2930    0.6205   -4.0076 H   0  0  0  0  0  0  0  0  0  0  0  0
   -1.9664   -1.4281   -3.5963 H   0  0  0  0  0  0  0  0  0  0  0  0
   -1.8476   -0.2999   -4.9520 H   0  0  0  0  0  0  0  0  0  0  0  0
   -0.6406   -1.5848   -4.7571 H   0  0  0  0  0  0  0  0  0  0  0  0
   -1.7204    2.0894   -3.3784 N   0  0  0  0  0  0  0  0  0  0  0  0
   -2.5684    3.1419   -2.8693 C   0  0  0  0  0  0  0  0  0  0  0  0
   -1.4194    2.1499   -4.3466 H   0  0  0  0  0  0  0  0  0  0  0  0
   -3.6230    2.8758   -3.0341 H   0  0  0  0  0  0  0  0  0  0  0  0
   -2.3868    3.2701   -1.7920 H   0  0  0  0  0  0  0  0  0  0  0  0
   -2.3413    4.0817   -3.3939 H   0  0  0  0  0  0  0  0  0  0  0  0
  1  3  1  0  0  0  0
  1  7  1  0  0  0  0
  1  2  2  0  0  0  0
 21 22  1  0  0  0  0
 22 24  1  0  0  0  0
 22 23  2  0  0  0  0
 32 33  1  0  0  0  0
 33 41  1  0  0  0  0
 33 34  2  0  0  0  0
  8  9  1  0  0  0  0
  9 17  1  0  0  0  0
  9 10  2  0  0  0  0
 18 19  1  0  0  0  0
 19 31  1  0  0  0  0
 19 20  2  0  0  0  0
 32 35  1  0  0  0  0
  8 11  1  0  0  0  0
 41 42  1  0  0  0  0
 18 21  1  0  0  0  0
 31 32  1  0  0  0  0
  7  8  1  0  0  0  0
 17 18  1  0  0  0  0
  3  4  1  0  0  0  0
  3  5  1  0  0  0  0
  3  6  1  0  0  0  0
 35 38  1  0  0  0  0
 35 39  1  0  0  0  0
 35 40  1  0  0  0  0
 11 14  1  0  0  0  0
 11 15  1  0  0  0  0
 11 16  1  0  0  0  0
 42 44  1  0  0  0  0
 42 45  1  0  0  0  0
 42 46  1  0  0  0  0
 21 27  1  0  0  0  0
 21 28  1  0  0  0  0
 32 37  1  0  0  0  0
  8 13  1  0  0  0  0
 18 26  1  0  0  0  0
 24 29  1  0  0  0  0
 24 30  1  0  0  0  0
 41 43  1  0  0  0  0
  7 12  1  0  0  0  0
 31 36  1  0  0  0  0
 17 25  1  0  0  0  0
M  END
$$$$

  -OEChem-05262214473D

 46 45  0     1  0  0  0  0  0999 V2000
   -0.0543    1.9736    3.8406 C   0  0  0  0  0  0  0  0  0  0  0  0
    0.6744    1.6099    4.7562 O   0  0  0  0  0  0  0  0  0  0  0  0
   -0.5599    3.3779    3.8160 C   0  0  0  0  0  0  0  0  0  0  0  0
   -1.5202    3.4885    4.3450 H   0  0  0  0  0  0  0  0  0  0  0  0
    0.1282    4.0814    4.3116 H   0  0  0  0  0  0  0  0  0  0  0  0
   -0.7317    3.7994    2.8126 H   0  0  0  0  0  0  0  0  0  0  0  0
   -0.4812    1.1968    2.7762 N   0  0  0  0  0  0  0  0  0  0  0  0
   -0.1106   -0.1834    2.6051 C   0  0  2  0  0  0  0  0  0  0  0  0
   -0.0696   -0.4775    1.1113 C   0  0  0  0  0  0  0  0  0  0  0  0
   -0.6805    0.1900    0.2792 O   0  0  0  0  0  0  0  0  0  0  0  0
   -1.0852   -1.1101    3.3150 C   0  0  0  0  0  0  0  0  0  0  0  0
   -1.0883    1.6241    2.0791 H   0  0  0  0  0  0  0  0  0  0  0  0
    0.8937   -0.2959    3.0277 H   0  0  0  0  0  0  0  0  0  0  0  0
   -2.0970   -1.0114    2.9051 H   0  0  0  0  0  0  0  0  0  0  0  0
   -0.7860   -2.1580    3.2078 H   0  0  0  0  0  0  0  0  0  0  0  0
   -1.1357   -0.8775    4.3842 H   0  0  0  0  0  0  0  0  0  0  0  0
    0.6950   -1.6003    0.8178 N   0  0  0  0  0  0  0  0  0  0  0  0
    0.8777   -2.0908   -0.5246 C   0  0  2  0  0  0  0  0  0  0  0  0
   -0.1723   -1.4239   -1.4044 C   0  0  0  0  0  0  0  0  0  0  0  0
   -1.3436   -1.2795   -1.0601 O   0  0  0  0  0  0  0  0  0  0  0  0
    0.7526   -3.6128   -0.5966 C   0  0  0  0  0  0  0  0  0  0  0  0
    1.9114   -4.3393    0.0634 C   0  0  0  0  0  0  0  0  0  0  0  0
    3.0869   -4.0047   -0.0495 O   0  0  0  0  0  0  0  0  0  0  0  0
    1.4929   -5.4191    0.8117 N   0  0  0  0  0  0  0  0  0  0  0  0
    1.1810   -2.0803    1.5718 H   0  0  0  0  0  0  0  0  0  0  0  0
    1.8726   -1.7606   -0.8452 H   0  0  0  0  0  0  0  0  0  0  0  0
   -0.1639   -3.9429   -0.0915 H   0  0  0  0  0  0  0  0  0  0  0  0
    0.6833   -3.9443   -1.6406 H   0  0  0  0  0  0  0  0  0  0  0  0
    0.5090   -5.6569    0.8795 H   0  0  0  0  0  0  0  0  0  0  0  0
    2.1419   -6.0126    1.3185 H   0  0  0  0  0  0  0  0  0  0  0  0
    0.3611   -0.9630   -2.5998 N   0  0  0  0  0  0  0  0  0  0  0  0
   -0.4416   -0.2735   -3.5813 C   0  0  2  0  0  0  0  0  0  0  0  0
   -1.0551    0.9493   -2.9121 C   0  0  0  0  0  0  0  0  0  0  0  0
   -1.2058    1.0434   -1.6957 O   0  0  0  0  0  0  0  0  0  0  0  0
   -1.5214   -1.1812   -4.1496 C   0  0  0  0  0  0  0  0  0  0  0  0
    1.3475   -1.1026   -2.7983 H   0  0  0  0  0  0  0  0  0  0  0  0
    0.2390    0.0480   -4.3772 H   0  0  0  0  0  0  0  0  0  0  0  0
   -2.2130   -1.5135   -3.3668 H   0  0  0  0  0  0  0  0  0  0  0  0
   -2.1112   -0.6655   -4.9145 H   0  0  0  0  0  0  0  0  0  0  0  0
   -1.0799   -2.0747   -4.6042 H   0  0  0  0  0  0  0  0  0  0  0  0
   -1.4541    1.9049   -3.8361 N   0  0  0  0  0  0  0  0  0  0  0  0
   -2.0759    3.1502   -3.4508 C   0  0  0  0  0  0  0  0  0  0  0  0
   -1.2728    1.7513   -4.8237 H   0  0  0  0  0  0  0  0  0  0  0  0
   -3.1695    3.0319   -3.4569 H   0  0  0  0  0  0  0  0  0  0  0  0
   -1.7430    3.4288   -2.4401 H   0  0  0  0  0  0  0  0  0  0  0  0
   -1.7885    3.9388   -4.1618 H   0  0  0  0  0  0  0  0  0  0  0  0
  1  3  1  0  0  0  0
  1  7  1  0  0  0  0
  1  2  2  0  0  0  0
 21 22  1  0  0  0  0
 22 24  1  0  0  0  0
 22 23  2  0  0  0  0
 32 33  1  0  0  0  0
 33 41  1  0  0  0  0
 33 34  2  0  0  0  0
  8  9  1  0  0  0  0
  9 17  1  0  0  0  0
  9 10  2  0  0  0  0
 18 19  1  0  0  0  0
 19 31  1  0  0  0  0
 19 20  2  0  0  0  0
 32 35  1  0  0  0  0
  8 11  1  0  0  0  0
 41 42  1  0  0  0  0
 18 21  1  0  0  0  0
 31 32  1  0  0  0  0
  7  8  1  0  0  0  0
 17 18  1  0  0  0  0
  3  4  1  0  0  0  0
  3  5  1  0  0  0  0
  3  6  1  0  0  0  0
 35 38  1  0  0  0  0
 35 39  1  0  0  0  0
 35 40  1  0  0  0  0
 11 14  1  0  0  0  0
 11 15  1  0  0  0  0
 11 16  1  0  0  0  0
 42 44  1  0  0  0  0
 42 45  1  0  0  0  0
 42 46  1  0  0  0  0
 21 27  1  0  0  0  0
 21 28  1  0  0  0  0
 32 37  1  0  0  0  0
  8 13  1  0  0  0  0
 18 26  1  0  0  0  0
 24 29  1  0  0  0  0
 24 30  1  0  0  0  0
 41 43  1  0  0  0  0
  7 12  1  0  0  0  0
 31 36  1  0  0  0  0
 17 25  1  0  0  0  0
M  END
$$$$

  -OEChem-05262214473D

 46 45  0     1  0  0  0  0  0999 V2000
   -0.0543    1.9736    3.8406 C   0  0  0  0  0  0  0  0  0  0  0  0
    0.6744    1.6099    4.7562 O   0  0  0  0  0  0  0  0  0  0  0  0
   -0.5599    3.3779    3.8160 C   0  0  0  0  0  0  0  0  0  0  0  0
   -1.5202    3.4885    4.3450 H   0  0  0  0  0  0  0  0  0  0  0  0
    0.1282    4.0814    4.3116 H   0  0  0  0  0  0  0  0  0  0  0  0
   -0.7317    3.7994    2.8126 H   0  0  0  0  0  0  0  0  0  0  0  0
   -0.4812    1.1968    2.7762 N   0  0  0  0  0  0  0  0  0  0  0  0
   -0.1106   -0.1834    2.6051 C   0  0  2  0  0  0  0  0  0  0  0  0
   -0.0696   -0.4775    1.1113 C   0  0  0  0  0  0  0  0  0  0  0  0
   -0.6805    0.1900    0.2792 O   0  0  0  0  0  0  0  0  0  0  0  0
   -1.0852   -1.1101    3.3150 C   0  0  0  0  0  0  0  0  0  0  0  0
   -1.0883    1.6241    2.0791 H   0  0  0  0  0  0  0  0  0  0  0  0
    0.8937   -0.2959    3.0277 H   0  0  0  0  0  0  0  0  0  0  0  0
   -2.0970   -1.0114    2.9051 H   0  0  0  0  0  0  0  0  0  0  0  0
   -0.7860   -2.1580    3.2078 H   0  0  0  0  0  0  0  0  0  0  0  0
   -1.1357   -0.8775    4.3842 H   0  0  0  0  0  0  0  0  0  0  0  0
    0.6950   -1.6003    0.8178 N   0  0  0  0  0  0  0  0  0  0  0  0
    0.8777   -2.0908   -0.5246 C   0  0  2  0  0  0  0  0  0  0  0  0
   -0.1723   -1.4239   -1.4044 C   0  0  0  0  0  0  0  0  0  0  0  0
   -1.2589   -1.0379   -0.9781 O   0  0  0  0  0  0  0  0  0  0  0  0
    0.7526   -3.6128   -0.5966 C   0  0  0  0  0  0  0  0  0  0  0  0
    1.9114   -4.3393    0.0634 C   0  0  0  0  0  0  0  0  0  0  0  0
    3.0869   -4.0047   -0.0495 O   0  0  0  0  0  0  0  0  0  0  0  0
    1.4929   -5.4191    0.8117 N   0  0  0  0  0  0  0  0  0  0  0  0
    1.1810   -2.0803    1.5718 H   0  0  0  0  0  0  0  0  0  0  0  0
    1.8726   -1.7606   -0.8452 H   0  0  0  0  0  0  0  0  0  0  0  0
   -0.1639   -3.9429   -0.0915 H   0  0  0  0  0  0  0  0  0  0  0  0
    0.6833   -3.9443   -1.6406 H   0  0  0  0  0  0  0  0  0  0  0  0
    0.5090   -5.6569    0.8795 H   0  0  0  0  0  0  0  0  0  0  0  0
    2.1419   -6.0126    1.3185 H   0  0  0  0  0  0  0  0  0  0  0  0
    0.2641   -1.2638   -2.7120 N   0  0  0  0  0  0  0  0  0  0  0  0
   -0.5528   -0.6317   -3.7201 C   0  0  2  0  0  0  0  0  0  0  0  0
   -0.9003    0.7690   -3.2335 C   0  0  0  0  0  0  0  0  0  0  0  0
   -0.8808    1.0911   -2.0474 O   0  0  0  0  0  0  0  0  0  0  0  0
   -1.8117   -1.4384   -3.9981 C   0  0  0  0  0  0  0  0  0  0  0  0
    1.1882   -1.5908   -2.9782 H   0  0  0  0  0  0  0  0  0  0  0  0
    0.0594   -0.5629   -4.6259 H   0  0  0  0  0  0  0  0  0  0  0  0
   -2.4378   -1.5182   -3.1019 H   0  0  0  0  0  0  0  0  0  0  0  0
   -2.4162   -0.9725   -4.7832 H   0  0  0  0  0  0  0  0  0  0  0  0
   -1.5602   -2.4549   -4.3193 H   0  0  0  0  0  0  0  0  0  0  0  0
   -1.2763    1.6051   -4.2755 N   0  0  0  0  0  0  0  0  0  0  0  0
   -1.6648    2.9809   -4.0697 C   0  0  0  0  0  0  0  0  0  0  0  0
   -1.2450    1.2592   -5.2300 H   0  0  0  0  0  0  0  0  0  0  0  0
   -2.7560    3.0395   -3.9445 H   0  0  0  0  0  0  0  0  0  0  0  0
   -1.1708    3.3702   -3.1672 H   0  0  0  0  0  0  0  0  0  0  0  0
   -1.3630    3.5812   -4.9407 H   0  0  0  0  0  0  0  0  0  0  0  0
  1  3  1  0  0  0  0
  1  7  1  0  0  0  0
  1  2  2  0  0  0  0
 21 22  1  0  0  0  0
 22 24  1  0  0  0  0
 22 23  2  0  0  0  0
 32 33  1  0  0  0  0
 33 41  1  0  0  0  0
 33 34  2  0  0  0  0
  8  9  1  0  0  0  0
  9 17  1  0  0  0  0
  9 10  2  0  0  0  0
 18 19  1  0  0  0  0
 19 31  1  0  0  0  0
 19 20  2  0  0  0  0
 32 35  1  0  0  0  0
  8 11  1  0  0  0  0
 41 42  1  0  0  0  0
 18 21  1  0  0  0  0
 31 32  1  0  0  0  0
  7  8  1  0  0  0  0
 17 18  1  0  0  0  0
  3  4  1  0  0  0  0
  3  5  1  0  0  0  0
  3  6  1  0  0  0  0
 35 38  1  0  0  0  0
 35 39  1  0  0  0  0
 35 40  1  0  0  0  0
 11 14  1  0  0  0  0
 11 15  1  0  0  0  0
 11 16  1  0  0  0  0
 42 44  1  0  0  0  0
 42 45  1  0  0  0  0
 42 46  1  0  0  0  0
 21 27  1  0  0  0  0
 21 28  1  0  0  0  0
 32 37  1  0  0  0  0
  8 13  1  0  0  0  0
 18 26  1  0  0  0  0
 24 29  1  0  0  0  0
 24 30  1  0  0  0  0
 41 43  1  0  0  0  0
  7 12  1  0  0  0  0
 31 36  1  0  0  0  0
 17 25  1  0  0  0  0
M  END
$$$$

  -OEChem-05262214473D

 46 45  0     1  0  0  0  0  0999 V2000
   -0.0543    1.9736    3.8406 C   0  0  0  0  0  0  0  0  0  0  0  0
    0.6744    1.6099    4.7562 O   0  0  0  0  0  0  0  0  0  0  0  0
   -0.5599    3.3779    3.8160 C   0  0  0  0  0  0  0  0  0  0  0  0
   -1.5202    3.4885    4.3450 H   0  0  0  0  0  0  0  0  0  0  0  0
    0.1282    4.0814    4.3116 H   0  0  0  0  0  0  0  0  0  0  0  0
   -0.7317    3.7994    2.8126 H   0  0  0  0  0  0  0  0  0  0  0  0
   -0.4812    1.1968    2.7762 N   0  0  0  0  0  0  0  0  0  0  0  0
   -0.1106   -0.1834    2.6051 C   0  0  2  0  0  0  0  0  0  0  0  0
   -0.0696   -0.4775    1.1113 C   0  0  0  0  0  0  0  0  0  0  0  0
   -0.6805    0.1900    0.2792 O   0  0  0  0  0  0  0  0  0  0  0  0
   -1.0852   -1.1101    3.3150 C   0  0  0  0  0  0  0  0  0  0  0  0
   -1.0883    1.6241    2.0791 H   0  0  0  0  0  0  0  0  0  0  0  0
    0.8937   -0.2959    3.0277 H   0  0  0  0  0  0  0  0  0  0  0  0
   -2.0970   -1.0114    2.9051 H   0  0  0  0  0  0  0  0  0  0  0  0
   -0.7860   -2.1580    3.2078 H   0  0  0  0  0  0  0  0  0  0  0  0
   -1.1357   -0.8775    4.3842 H   0  0  0  0  0  0  0  0  0  0  0  0
    0.6950   -1.6003    0.8178 N   0  0  0  0  0  0  0  0  0  0  0  0
    0.8777   -2.0908   -0.5246 C   0  0  2  0  0  0  0  0  0  0  0  0
   -0.1723   -1.4239   -1.4044 C   0  0  0  0  0  0  0  0  0  0  0  0
   -1.1317   -0.8026   -0.9516 O   0  0  0  0  0  0  0  0  0  0  0  0
    0.7526   -3.6128   -0.5966 C   0  0  0  0  0  0  0  0  0  0  0  0
    1.9114   -4.3393    0.0634 C   0  0  0  0  0  0  0  0  0  0  0  0
    3.0869   -4.0047   -0.0495 O   0  0  0  0  0  0  0  0  0  0  0  0
    1.4929   -5.4191    0.8117 N   0  0  0  0  0  0  0  0  0  0  0  0
    1.1810   -2.0803    1.5718 H   0  0  0  0  0  0  0  0  0  0  0  0
    1.8726   -1.7606   -0.8452 H   0  0  0  0  0  0  0  0  0  0  0  0
   -0.1639   -3.9429   -0.0915 H   0  0  0  0  0  0  0  0  0  0  0  0
    0.6833   -3.9443   -1.6406 H   0  0  0  0  0  0  0  0  0  0  0  0
    0.5090   -5.6569    0.8795 H   0  0  0  0  0  0  0  0  0  0  0  0
    2.1419   -6.0126    1.3185 H   0  0  0  0  0  0  0  0  0  0  0  0
    0.1127   -1.5599   -2.7558 N   0  0  0  0  0  0  0  0  0  0  0  0
   -0.7295   -0.9858   -3.7777 C   0  0  2  0  0  0  0  0  0  0  0  0
   -0.8140    0.5144   -3.5294 C   0  0  0  0  0  0  0  0  0  0  0  0
   -0.5997    1.0259   -2.4324 O   0  0  0  0  0  0  0  0  0  0  0  0
   -2.1134   -1.6164   -3.7730 C   0  0  0  0  0  0  0  0  0  0  0  0
    0.9410   -2.0707   -3.0470 H   0  0  0  0  0  0  0  0  0  0  0  0
   -0.2336   -1.1705   -4.7368 H   0  0  0  0  0  0  0  0  0  0  0  0
   -2.6258   -1.4418   -2.8198 H   0  0  0  0  0  0  0  0  0  0  0  0
   -2.7418   -1.2000   -4.5671 H   0  0  0  0  0  0  0  0  0  0  0  0
   -2.0486   -2.6996   -3.9219 H   0  0  0  0  0  0  0  0  0  0  0  0
   -1.1992    1.2107   -4.6665 N   0  0  0  0  0  0  0  0  0  0  0  0
   -1.3631    2.6455   -4.6840 C   0  0  0  0  0  0  0  0  0  0  0  0
   -1.3376    0.7072   -5.5378 H   0  0  0  0  0  0  0  0  0  0  0  0
   -2.4108    2.8981   -4.4637 H   0  0  0  0  0  0  0  0  0  0  0  0
   -0.7093    3.0984   -3.9240 H   0  0  0  0  0  0  0  0  0  0  0  0
   -1.0936    3.0332   -5.6775 H   0  0  0  0  0  0  0  0  0  0  0  0
  1  3  1  0  0  0  0
  1  7  1  0  0  0  0
  1  2  2  0  0  0  0
 21 22  1  0  0  0  0
 22 24  1  0  0  0  0
 22 23  2  0  0  0  0
 32 33  1  0  0  0  0
 33 41  1  0  0  0  0
 33 34  2  0  0  0  0
  8  9  1  0  0  0  0
  9 17  1  0  0  0  0
  9 10  2  0  0  0  0
 18 19  1  0  0  0  0
 19 31  1  0  0  0  0
 19 20  2  0  0  0  0
 32 35  1  0  0  0  0
  8 11  1  0  0  0  0
 41 42  1  0  0  0  0
 18 21  1  0  0  0  0
 31 32  1  0  0  0  0
  7  8  1  0  0  0  0
 17 18  1  0  0  0  0
  3  4  1  0  0  0  0
  3  5  1  0  0  0  0
  3  6  1  0  0  0  0
 35 38  1  0  0  0  0
 35 39  1  0  0  0  0
 35 40  1  0  0  0  0
 11 14  1  0  0  0  0
 11 15  1  0  0  0  0
 11 16  1  0  0  0  0
 42 44  1  0  0  0  0
 42 45  1  0  0  0  0
 42 46  1  0  0  0  0
 21 27  1  0  0  0  0
 21 28  1  0  0  0  0
 32 37  1  0  0  0  0
  8 13  1  0  0  0  0
 18 26  1  0  0  0  0
 24 29  1  0  0  0  0
 24 30  1  0  0  0  0
 41 43  1  0  0  0  0
  7 12  1  0  0  0  0
 31 36  1  0  0  0  0
 17 25  1  0  0  0  0
M  END
$$$$

  -OEChem-05262214473D

 46 45  0     1  0  0  0  0  0999 V2000
   -0.0543    1.9736    3.8406 C   0  0  0  0  0  0  0  0  0  0  0  0
    0.6744    1.6099    4.7562 O   0  0  0  0  0  0  0  0  0  0  0  0
   -0.5599    3.3779    3.8160 C   0  0  0  0  0  0  0  0  0  0  0  0
   -1.5202    3.4885    4.3450 H   0  0  0  0  0  0  0  0  0  0  0  0
    0.1282    4.0814    4.3116 H   0  0  0  0  0  0  0  0  0  0  0  0
   -0.7317    3.7994    2.8126 H   0  0  0  0  0  0  0  0  0  0  0  0
   -0.4812    1.1968    2.7762 N   0  0  0  0  0  0  0  0  0  0  0  0
   -0.1106   -0.1834    2.6051 C   0  0  2  0  0  0  0  0  0  0  0  0
   -0.0696   -0.4775    1.1113 C   0  0  0  0  0  0  0  0  0  0  0  0
   -0.6805    0.1900    0.2792 O   0  0  0  0  0  0  0  0  0  0  0  0
   -1.0852   -1.1101    3.3150 C   0  0  0  0  0  0  0  0  0  0  0  0
   -1.0883    1.6241    2.0791 H   0  0  0  0  0  0  0  0  0  0  0  0
    0.8937   -0.2959    3.0277 H   0  0  0  0  0  0  0  0  0  0  0  0
   -2.0970   -1.0114    2.9051 H   0  0  0  0  0  0  0  0  0  0  0  0
   -0.7860   -2.1580    3.2078 H   0  0  0  0  0  0  0  0  0  0  0  0
   -1.1357   -0.8775    4.3842 H   0  0  0  0  0  0  0  0  0  0  0  0
    0.6950   -1.6003    0.8178 N   0  0  0  0  0  0  0  0  0  0  0  0
    0.8777   -2.0908   -0.5246 C   0  0  2  0  0  0  0  0  0  0  0  0
    0.1038   -1.1699   -1.4596 C   0  0  0  0  0  0  0  0  0  0  0  0
   -0.5066   -0.1764   -1.0703 O   0  0  0  0  0  0  0  0  0  0  0  0
    0.3987   -3.5351   -0.6732 C   0  0  0  0  0  0  0  0  0  0  0  0
    1.2837   -4.5353    0.0496 C   0  0  0  0  0  0  0  0  0  0  0  0
    2.5104   -4.4934    0.0507 O   0  0  0  0  0  0  0  0  0  0  0  0
    0.5515   -5.4975    0.7123 N   0  0  0  0  0  0  0  0  0  0  0  0
    1.1810   -2.0803    1.5718 H   0  0  0  0  0  0  0  0  0  0  0  0
    1.9479   -2.0049   -0.7457 H   0  0  0  0  0  0  0  0  0  0  0  0
   -0.6128   -3.6439   -0.2618 H   0  0  0  0  0  0  0  0  0  0  0  0
    0.3484   -3.8168   -1.7328 H   0  0  0  0  0  0  0  0  0  0  0  0
   -0.4627   -5.4909    0.6867 H   0  0  0  0  0  0  0  0  0  0  0  0
    0.9898   -6.2418    1.2455 H   0  0  0  0  0  0  0  0  0  0  0  0
    0.2147   -1.5574   -2.7876 N   0  0  0  0  0  0  0  0  0  0  0  0
   -0.4141   -0.8185   -3.8561 C   0  0  2  0  0  0  0  0  0  0  0  0
    0.1036    0.6129   -3.8062 C   0  0  0  0  0  0  0  0  0  0  0  0
    0.5780    1.1196   -2.7916 O   0  0  0  0  0  0  0  0  0  0  0  0
   -1.9297   -0.8529   -3.7355 C   0  0  0  0  0  0  0  0  0  0  0  0
    0.7589   -2.3806   -3.0283 H   0  0  0  0  0  0  0  0  0  0  0  0
   -0.0991   -1.2889   -4.7940 H   0  0  0  0  0  0  0  0  0  0  0  0
   -2.2641   -0.3860   -2.8019 H   0  0  0  0  0  0  0  0  0  0  0  0
   -2.4058   -0.3161   -4.5626 H   0  0  0  0  0  0  0  0  0  0  0  0
   -2.2978   -1.8846   -3.7417 H   0  0  0  0  0  0  0  0  0  0  0  0
   -0.0661    1.2718   -5.0158 N   0  0  0  0  0  0  0  0  0  0  0  0
    0.3340    2.6446   -5.2186 C   0  0  0  0  0  0  0  0  0  0  0  0
   -0.4510    0.7681   -5.8095 H   0  0  0  0  0  0  0  0  0  0  0  0
   -0.5166    3.3098   -5.0089 H   0  0  0  0  0  0  0  0  0  0  0  0
    1.1654    2.8881   -4.5408 H   0  0  0  0  0  0  0  0  0  0  0  0
    0.6583    2.7818   -6.2608 H   0  0  0  0  0  0  0  0  0  0  0  0
  1  3  1  0  0  0  0
  1  7  1  0  0  0  0
  1  2  2  0  0  0  0
 21 22  1  0  0  0  0
 22 24  1  0  0  0  0
 22 23  2  0  0  0  0
 32 33  1  0  0  0  0
 33 41  1  0  0  0  0
 33 34  2  0  0  0  0
  8  9  1  0  0  0  0
  9 17  1  0  0  0  0
  9 10  2  0  0  0  0
 18 19  1  0  0  0  0
 19 31  1  0  0  0  0
 19 20  2  0  0  0  0
 32 35  1  0  0  0  0
  8 11  1  0  0  0  0
 41 42  1  0  0  0  0
 18 21  1  0  0  0  0
 31 32  1  0  0  0  0
  7  8  1  0  0  0  0
 17 18  1  0  0  0  0
  3  4  1  0  0  0  0
  3  5  1  0  0  0  0
  3  6  1  0  0  0  0
 35 38  1  0  0  0  0
 35 39  1  0  0  0  0
 35 40  1  0  0  0  0
 11 14  1  0  0  0  0
 11 15  1  0  0  0  0
 11 16  1  0  0  0  0
 42 44  1  0  0  0  0
 42 45  1  0  0  0  0
 42 46  1  0  0  0  0
 21 27  1  0  0  0  0
 21 28  1  0  0  0  0
 32 37  1  0  0  0  0
  8 13  1  0  0  0  0
 18 26  1  0  0  0  0
 24 29  1  0  0  0  0
 24 30  1  0  0  0  0
 41 43  1  0  0  0  0
  7 12  1  0  0  0  0
 31 36  1  0  0  0  0
 17 25  1  0  0  0  0
M  END
$$$$

  -OEChem-05262214473D

 46 45  0     1  0  0  0  0  0999 V2000
   -0.0543    1.9736    3.8406 C   0  0  0  0  0  0  0  0  0  0  0  0
    0.6744    1.6099    4.7562 O   0  0  0  0  0  0  0  0  0  0  0  0
   -0.5599    3.3779    3.8160 C   0  0  0  0  0  0  0  0  0  0  0  0
   -1.5202    3.4885    4.3450 H   0  0  0  0  0  0  0  0  0  0  0  0
    0.1282    4.0814    4.3116 H   0  0  0  0  0  0  0  0  0  0  0  0
   -0.7317    3.7994    2.8126 H   0  0  0  0  0  0  0  0  0  0  0  0
   -0.4812    1.1968    2.7762 N   0  0  0  0  0  0  0  0  0  0  0  0
   -0.1106   -0.1834    2.6051 C   0  0  2  0  0  0  0  0  0  0  0  0
   -0.0696   -0.4775    1.1113 C   0  0  0  0  0  0  0  0  0  0  0  0
   -0.6805    0.1900    0.2792 O   0  0  0  0  0  0  0  0  0  0  0  0
   -1.0852   -1.1101    3.3150 C   0  0  0  0  0  0  0  0  0  0  0  0
   -1.0883    1.6241    2.0791 H   0  0  0  0  0  0  0  0  0  0  0  0
    0.8937   -0.2959    3.0277 H   0  0  0  0  0  0  0  0  0  0  0  0
   -2.0970   -1.0114    2.9051 H   0  0  0  0  0  0  0  0  0  0  0  0
   -0.7860   -2.1580    3.2078 H   0  0  0  0  0  0  0  0  0  0  0  0
   -1.1357   -0.8775    4.3842 H   0  0  0  0  0  0  0  0  0  0  0  0
    0.6950   -1.6003    0.8178 N   0  0  0  0  0  0  0  0  0  0  0  0
    0.8777   -2.0908   -0.5246 C   0  0  2  0  0  0  0  0  0  0  0  0
    0.1038   -1.1699   -1.4596 C   0  0  0  0  0  0  0  0  0  0  0  0
   -0.2787   -0.0482   -1.1327 O   0  0  0  0  0  0  0  0  0  0  0  0
    0.3987   -3.5351   -0.6732 C   0  0  0  0  0  0  0  0  0  0  0  0
    1.2837   -4.5353    0.0496 C   0  0  0  0  0  0  0  0  0  0  0  0
    2.5104   -4.4934    0.0507 O   0  0  0  0  0  0  0  0  0  0  0  0
    0.5515   -5.4975    0.7123 N   0  0  0  0  0  0  0  0  0  0  0  0
    1.1810   -2.0803    1.5718 H   0  0  0  0  0  0  0  0  0  0  0  0
    1.9479   -2.0049   -0.7457 H   0  0  0  0  0  0  0  0  0  0  0  0
   -0.6128   -3.6439   -0.2618 H   0  0  0  0  0  0  0  0  0  0  0  0
    0.3484   -3.8168   -1.7328 H   0  0  0  0  0  0  0  0  0  0  0  0
   -0.4627   -5.4909    0.6867 H   0  0  0  0  0  0  0  0  0  0  0  0
    0.9898   -6.2418    1.2455 H   0  0  0  0  0  0  0  0  0  0  0  0
   -0.0675   -1.7256   -2.7197 N   0  0  0  0  0  0  0  0  0  0  0  0
   -0.7492   -1.0232   -3.7804 C   0  0  2  0  0  0  0  0  0  0  0  0
   -0.0238    0.2956   -4.0132 C   0  0  0  0  0  0  0  0  0  0  0  0
    0.6833    0.8315   -3.1624 O   0  0  0  0  0  0  0  0  0  0  0  0
   -2.2114   -0.7859   -3.4363 C   0  0  0  0  0  0  0  0  0  0  0  0
    0.3006   -2.6518   -2.9161 H   0  0  0  0  0  0  0  0  0  0  0  0
   -0.6686   -1.6482   -4.6764 H   0  0  0  0  0  0  0  0  0  0  0  0
   -2.3122   -0.1616   -2.5411 H   0  0  0  0  0  0  0  0  0  0  0  0
   -2.7340   -0.2783   -4.2538 H   0  0  0  0  0  0  0  0  0  0  0  0
   -2.7243   -1.7336   -3.2400 H   0  0  0  0  0  0  0  0  0  0  0  0
   -0.2935    0.8252   -5.2674 N   0  0  0  0  0  0  0  0  0  0  0  0
    0.2662    2.0765   -5.7221 C   0  0  0  0  0  0  0  0  0  0  0  0
   -0.8760    0.3032   -5.9155 H   0  0  0  0  0  0  0  0  0  0  0  0
   -0.4292    2.8962   -5.4886 H   0  0  0  0  0  0  0  0  0  0  0  0
    1.2260    2.2545   -5.2149 H   0  0  0  0  0  0  0  0  0  0  0  0
    0.4286    2.0320   -6.8091 H   0  0  0  0  0  0  0  0  0  0  0  0
  1  3  1  0  0  0  0
  1  7  1  0  0  0  0
  1  2  2  0  0  0  0
 21 22  1  0  0  0  0
 22 24  1  0  0  0  0
 22 23  2  0  0  0  0
 32 33  1  0  0  0  0
 33 41  1  0  0  0  0
 33 34  2  0  0  0  0
  8  9  1  0  0  0  0
  9 17  1  0  0  0  0
  9 10  2  0  0  0  0
 18 19  1  0  0  0  0
 19 31  1  0  0  0  0
 19 20  2  0  0  0  0
 32 35  1  0  0  0  0
  8 11  1  0  0  0  0
 41 42  1  0  0  0  0
 18 21  1  0  0  0  0
 31 32  1  0  0  0  0
  7  8  1  0  0  0  0
 17 18  1  0  0  0  0
  3  4  1  0  0  0  0
  3  5  1  0  0  0  0
  3  6  1  0  0  0  0
 35 38  1  0  0  0  0
 35 39  1  0  0  0  0
 35 40  1  0  0  0  0
 11 14  1  0  0  0  0
 11 15  1  0  0  0  0
 11 16  1  0  0  0  0
 42 44  1  0  0  0  0
 42 45  1  0  0  0  0
 42 46  1  0  0  0  0
 21 27  1  0  0  0  0
 21 28  1  0  0  0  0
 32 37  1  0  0  0  0
  8 13  1  0  0  0  0
 18 26  1  0  0  0  0
 24 29  1  0  0  0  0
 24 30  1  0  0  0  0
 41 43  1  0  0  0  0
  7 12  1  0  0  0  0
 31 36  1  0  0  0  0
 17 25  1  0  0  0  0
M  END
$$$$

  -OEChem-05262214473D

 46 45  0     1  0  0  0  0  0999 V2000
   -0.0543    1.9736    3.8406 C   0  0  0  0  0  0  0  0  0  0  0  0
    0.6744    1.6099    4.7562 O   0  0  0  0  0  0  0  0  0  0  0  0
   -0.5599    3.3779    3.8160 C   0  0  0  0  0  0  0  0  0  0  0  0
   -1.5202    3.4885    4.3450 H   0  0  0  0  0  0  0  0  0  0  0  0
    0.1282    4.0814    4.3116 H   0  0  0  0  0  0  0  0  0  0  0  0
   -0.7317    3.7994    2.8126 H   0  0  0  0  0  0  0  0  0  0  0  0
   -0.4812    1.1968    2.7762 N   0  0  0  0  0  0  0  0  0  0  0  0
   -0.1106   -0.1834    2.6051 C   0  0  2  0  0  0  0  0  0  0  0  0
   -0.0696   -0.4775    1.1113 C   0  0  0  0  0  0  0  0  0  0  0  0
   -0.6805    0.1900    0.2792 O   0  0  0  0  0  0  0  0  0  0  0  0
   -1.0852   -1.1101    3.3150 C   0  0  0  0  0  0  0  0  0  0  0  0
   -1.0883    1.6241    2.0791 H   0  0  0  0  0  0  0  0  0  0  0  0
    0.8937   -0.2959    3.0277 H   0  0  0  0  0  0  0  0  0  0  0  0
   -2.0970   -1.0114    2.9051 H   0  0  0  0  0  0  0  0  0  0  0  0
   -0.7860   -2.1580    3.2078 H   0  0  0  0  0  0  0  0  0  0  0  0
   -1.1357   -0.8775    4.3842 H   0  0  0  0  0  0  0  0  0  0  0  0
    0.6950   -1.6003    0.8178 N   0  0  0  0  0  0  0  0  0  0  0  0
    0.8777   -2.0908   -0.5246 C   0  0  2  0  0  0  0  0  0  0  0  0
    0.1038   -1.1699   -1.4596 C   0  0  0  0  0  0  0  0  0  0  0  0
   -0.0480    0.0311   -1.2455 O   0  0  0  0  0  0  0  0  0  0  0  0
    0.3987   -3.5351   -0.6732 C   0  0  0  0  0  0  0  0  0  0  0  0
    1.2837   -4.5353    0.0496 C   0  0  0  0  0  0  0  0  0  0  0  0
    2.5104   -4.4934    0.0507 O   0  0  0  0  0  0  0  0  0  0  0  0
    0.5515   -5.4975    0.7123 N   0  0  0  0  0  0  0  0  0  0  0  0
    1.1810   -2.0803    1.5718 H   0  0  0  0  0  0  0  0  0  0  0  0
    1.9479   -2.0049   -0.7457 H   0  0  0  0  0  0  0  0  0  0  0  0
   -0.6128   -3.6439   -0.2618 H   0  0  0  0  0  0  0  0  0  0  0  0
    0.3484   -3.8168   -1.7328 H   0  0  0  0  0  0  0  0  0  0  0  0
   -0.4627   -5.4909    0.6867 H   0  0  0  0  0  0  0  0  0  0  0  0
    0.9898   -6.2418    1.2455 H   0  0  0  0  0  0  0  0  0  0  0  0
   -0.3561   -1.8343   -2.5879 N   0  0  0  0  0  0  0  0  0  0  0  0
   -1.0936   -1.1577   -3.6278 C   0  0  2  0  0  0  0  0  0  0  0  0
   -0.2297   -0.0179   -4.1515 C   0  0  0  0  0  0  0  0  0  0  0  0
    0.6811    0.4878   -3.4991 O   0  0  0  0  0  0  0  0  0  0  0  0
   -2.4261   -0.6371   -3.1121 C   0  0  0  0  0  0  0  0  0  0  0  0
   -0.1675   -2.8261   -2.7003 H   0  0  0  0  0  0  0  0  0  0  0  0
   -1.2574   -1.8893   -4.4266 H   0  0  0  0  0  0  0  0  0  0  0  0
   -2.2821    0.0972   -2.3111 H   0  0  0  0  0  0  0  0  0  0  0  0
   -2.9968   -0.1492   -3.9091 H   0  0  0  0  0  0  0  0  0  0  0  0
   -3.0339   -1.4542   -2.7086 H   0  0  0  0  0  0  0  0  0  0  0  0
   -0.6235    0.3969   -5.4160 N   0  0  0  0  0  0  0  0  0  0  0  0
    0.0318    1.4724   -6.1230 C   0  0  0  0  0  0  0  0  0  0  0  0
   -1.3770   -0.0922   -5.8902 H   0  0  0  0  0  0  0  0  0  0  0  0
   -0.4854    2.4198   -5.9113 H   0  0  0  0  0  0  0  0  0  0  0  0
    1.0784    1.5442   -5.7923 H   0  0  0  0  0  0  0  0  0  0  0  0
    0.0019    1.2721   -7.2042 H   0  0  0  0  0  0  0  0  0  0  0  0
  1  3  1  0  0  0  0
  1  7  1  0  0  0  0
  1  2  2  0  0  0  0
 21 22  1  0  0  0  0
 22 24  1  0  0  0  0
 22 23  2  0  0  0  0
 32 33  1  0  0  0  0
 33 41  1  0  0  0  0
 33 34  2  0  0  0  0
  8  9  1  0  0  0  0
  9 17  1  0  0  0  0
  9 10  2  0  0  0  0
 18 19  1  0  0  0  0
 19 31  1  0  0  0  0
 19 20  2  0  0  0  0
 32 35  1  0  0  0  0
  8 11  1  0  0  0  0
 41 42  1  0  0  0  0
 18 21  1  0  0  0  0
 31 32  1  0  0  0  0
  7  8  1  0  0  0  0
 17 18  1  0  0  0  0
  3  4  1  0  0  0  0
  3  5  1  0  0  0  0
  3  6  1  0  0  0  0
 35 38  1  0  0  0  0
 35 39  1  0  0  0  0
 35 40  1  0  0  0  0
 11 14  1  0  0  0  0
 11 15  1  0  0  0  0
 11 16  1  0  0  0  0
 42 44  1  0  0  0  0
 42 45  1  0  0  0  0
 42 46  1  0  0  0  0
 21 27  1  0  0  0  0
 21 28  1  0  0  0  0
 32 37  1  0  0  0  0
  8 13  1  0  0  0  0
 18 26  1  0  0  0  0
 24 29  1  0  0  0  0
 24 30  1  0  0  0  0
 41 43  1  0  0  0  0
  7 12  1  0  0  0  0
 31 36  1  0  0  0  0
 17 25  1  0  0  0  0
M  END
$$$$

  -OEChem-05262214473D

 46 45  0     1  0  0  0  0  0999 V2000
   -0.0543    1.9736    3.8406 C   0  0  0  0  0  0  0  0  0  0  0  0
    0.6744    1.6099    4.7562 O   0  0  0  0  0  0  0  0  0  0  0  0
   -0.5599    3.3779    3.8160 C   0  0  0  0  0  0  0  0  0  0  0  0
   -1.5202    3.4885    4.3450 H   0  0  0  0  0  0  0  0  0  0  0  0
    0.1282    4.0814    4.3116 H   0  0  0  0  0  0  0  0  0  0  0  0
   -0.7317    3.7994    2.8126 H   0  0  0  0  0  0  0  0  0  0  0  0
   -0.4812    1.1968    2.7762 N   0  0  0  0  0  0  0  0  0  0  0  0
   -0.1106   -0.1834    2.6051 C   0  0  2  0  0  0  0  0  0  0  0  0
   -0.0696   -0.4775    1.1113 C   0  0  0  0  0  0  0  0  0  0  0  0
   -0.6805    0.1900    0.2792 O   0  0  0  0  0  0  0  0  0  0  0  0
   -1.0852   -1.1101    3.3150 C   0  0  0  0  0  0  0  0  0  0  0  0
   -1.0883    1.6241    2.0791 H   0  0  0  0  0  0  0  0  0  0  0  0
    0.8937   -0.2959    3.0277 H   0  0  0  0  0  0  0  0  0  0  0  0
   -2.0970   -1.0114    2.9051 H   0  0  0  0  0  0  0  0  0  0  0  0
   -0.7860   -2.1580    3.2078 H   0  0  0  0  0  0  0  0  0  0  0  0
   -1.1357   -0.8775    4.3842 H   0  0  0  0  0  0  0  0  0  0  0  0
    0.6950   -1.6003    0.8178 N   0  0  0  0  0  0  0  0  0  0  0  0
    0.8777   -2.0908   -0.5246 C   0  0  2  0  0  0  0  0  0  0  0  0
    0.1038   -1.1699   -1.4596 C   0  0  0  0  0  0  0  0  0  0  0  0
    0.1699    0.0563   -1.4010 O   0  0  0  0  0  0  0  0  0  0  0  0
    0.3987   -3.5351   -0.6732 C   0  0  0  0  0  0  0  0  0  0  0  0
    1.2837   -4.5353    0.0496 C   0  0  0  0  0  0  0  0  0  0  0  0
    2.5104   -4.4934    0.0507 O   0  0  0  0  0  0  0  0  0  0  0  0
    0.5515   -5.4975    0.7123 N   0  0  0  0  0  0  0  0  0  0  0  0
    1.1810   -2.0803    1.5718 H   0  0  0  0  0  0  0  0  0  0  0  0
    1.9479   -2.0049   -0.7457 H   0  0  0  0  0  0  0  0  0  0  0  0
   -0.6128   -3.6439   -0.2618 H   0  0  0  0  0  0  0  0  0  0  0  0
    0.3484   -3.8168   -1.7328 H   0  0  0  0  0  0  0  0  0  0  0  0
   -0.4627   -5.4909    0.6867 H   0  0  0  0  0  0  0  0  0  0  0  0
    0.9898   -6.2418    1.2455 H   0  0  0  0  0  0  0  0  0  0  0  0
   -0.6315   -1.8762   -2.4012 N   0  0  0  0  0  0  0  0  0  0  0  0
   -1.4237   -1.2129   -3.4090 C   0  0  2  0  0  0  0  0  0  0  0  0
   -0.5001   -0.3062   -4.2117 C   0  0  0  0  0  0  0  0  0  0  0  0
    0.5718    0.1119   -3.7789 O   0  0  0  0  0  0  0  0  0  0  0  0
   -2.5591   -0.4166   -2.7849 C   0  0  0  0  0  0  0  0  0  0  0  0
   -0.6137   -2.8918   -2.3957 H   0  0  0  0  0  0  0  0  0  0  0  0
   -1.8254   -1.9958   -4.0614 H   0  0  0  0  0  0  0  0  0  0  0  0
   -2.1760    0.3726   -2.1277 H   0  0  0  0  0  0  0  0  0  0  0  0
   -3.1761    0.0627   -3.5521 H   0  0  0  0  0  0  0  0  0  0  0  0
   -3.2054   -1.0652   -2.1836 H   0  0  0  0  0  0  0  0  0  0  0  0
   -1.0336    0.0160   -5.4517 N   0  0  0  0  0  0  0  0  0  0  0  0
   -0.3534    0.8733   -6.3942 C   0  0  0  0  0  0  0  0  0  0  0  0
   -1.9198   -0.3912   -5.7355 H   0  0  0  0  0  0  0  0  0  0  0  0
   -0.6815    1.9130   -6.2481 H   0  0  0  0  0  0  0  0  0  0  0  0
    0.7327    0.8057   -6.2335 H   0  0  0  0  0  0  0  0  0  0  0  0
   -0.5929    0.5540   -7.4193 H   0  0  0  0  0  0  0  0  0  0  0  0
  1  3  1  0  0  0  0
  1  7  1  0  0  0  0
  1  2  2  0  0  0  0
 21 22  1  0  0  0  0
 22 24  1  0  0  0  0
 22 23  2  0  0  0  0
 32 33  1  0  0  0  0
 33 41  1  0  0  0  0
 33 34  2  0  0  0  0
  8  9  1  0  0  0  0
  9 17  1  0  0  0  0
  9 10  2  0  0  0  0
 18 19  1  0  0  0  0
 19 31  1  0  0  0  0
 19 20  2  0  0  0  0
 32 35  1  0  0  0  0
  8 11  1  0  0  0  0
 41 42  1  0  0  0  0
 18 21  1  0  0  0  0
 31 32  1  0  0  0  0
  7  8  1  0  0  0  0
 17 18  1  0  0  0  0
  3  4  1  0  0  0  0
  3  5  1  0  0  0  0
  3  6  1  0  0  0  0
 35 38  1  0  0  0  0
 35 39  1  0  0  0  0
 35 40  1  0  0  0  0
 11 14  1  0  0  0  0
 11 15  1  0  0  0  0
 11 16  1  0  0  0  0
 42 44  1  0  0  0  0
 42 45  1  0  0  0  0
 42 46  1  0  0  0  0
 21 27  1  0  0  0  0
 21 28  1  0  0  0  0
 32 37  1  0  0  0  0
  8 13  1  0  0  0  0
 18 26  1  0  0  0  0
 24 29  1  0  0  0  0
 24 30  1  0  0  0  0
 41 43  1  0  0  0  0
  7 12  1  0  0  0  0
 31 36  1  0  0  0  0
 17 25  1  0  0  0  0
M  END
$$$$

  -OEChem-05262214473D

 46 45  0     1  0  0  0  0  0999 V2000
   -0.0543    1.9736    3.8406 C   0  0  0  0  0  0  0  0  0  0  0  0
    0.6744    1.6099    4.7562 O   0  0  0  0  0  0  0  0  0  0  0  0
   -0.5599    3.3779    3.8160 C   0  0  0  0  0  0  0  0  0  0  0  0
   -1.5202    3.4885    4.3450 H   0  0  0  0  0  0  0  0  0  0  0  0
    0.1282    4.0814    4.3116 H   0  0  0  0  0  0  0  0  0  0  0  0
   -0.7317    3.7994    2.8126 H   0  0  0  0  0  0  0  0  0  0  0  0
   -0.4812    1.1968    2.7762 N   0  0  0  0  0  0  0  0  0  0  0  0
   -0.1106   -0.1834    2.6051 C   0  0  2  0  0  0  0  0  0  0  0  0
   -0.0696   -0.4775    1.1113 C   0  0  0  0  0  0  0  0  0  0  0  0
   -0.6805    0.1900    0.2792 O   0  0  0  0  0  0  0  0  0  0  0  0
   -1.0852   -1.1101    3.3150 C   0  0  0  0  0  0  0  0  0  0  0  0
   -1.0883    1.6241    2.0791 H   0  0  0  0  0  0  0  0  0  0  0  0
    0.8937   -0.2959    3.0277 H   0  0  0  0  0  0  0  0  0  0  0  0
   -2.0970   -1.0114    2.9051 H   0  0  0  0  0  0  0  0  0  0  0  0
   -0.7860   -2.1580    3.2078 H   0  0  0  0  0  0  0  0  0  0  0  0
   -1.1357   -0.8775    4.3842 H   0  0  0  0  0  0  0  0  0  0  0  0
    0.6950   -1.6003    0.8178 N   0  0  0  0  0  0  0  0  0  0  0  0
    0.8777   -2.0908   -0.5246 C   0  0  2  0  0  0  0  0  0  0  0  0
    0.1038   -1.1699   -1.4596 C   0  0  0  0  0  0  0  0  0  0  0  0
    0.3599    0.0256   -1.5886 O   0  0  0  0  0  0  0  0  0  0  0  0
    0.3987   -3.5351   -0.6732 C   0  0  0  0  0  0  0  0  0  0  0  0
    1.2837   -4.5353    0.0496 C   0  0  0  0  0  0  0  0  0  0  0  0
    2.5104   -4.4934    0.0507 O   0  0  0  0  0  0  0  0  0  0  0  0
    0.5515   -5.4975    0.7123 N   0  0  0  0  0  0  0  0  0  0  0  0
    1.1810   -2.0803    1.5718 H   0  0  0  0  0  0  0  0  0  0  0  0
    1.9479   -2.0049   -0.7457 H   0  0  0  0  0  0  0  0  0  0  0  0
   -0.6128   -3.6439   -0.2618 H   0  0  0  0  0  0  0  0  0  0  0  0
    0.3484   -3.8168   -1.7328 H   0  0  0  0  0  0  0  0  0  0  0  0
   -0.4627   -5.4909    0.6867 H   0  0  0  0  0  0  0  0  0  0  0  0
    0.9898   -6.2418    1.2455 H   0  0  0  0  0  0  0  0  0  0  0  0
   -0.8750   -1.8483   -2.1722 N   0  0  0  0  0  0  0  0  0  0  0  0
   -1.7171   -1.1849   -3.1386 C   0  0  2  0  0  0  0  0  0  0  0  0
   -0.8164   -0.5497   -4.1897 C   0  0  0  0  0  0  0  0  0  0  0  0
    0.3627   -0.2707   -3.9826 O   0  0  0  0  0  0  0  0  0  0  0  0
   -2.6014   -0.1395   -2.4770 C   0  0  0  0  0  0  0  0  0  0  0  0
   -1.0074   -2.8443   -2.0231 H   0  0  0  0  0  0  0  0  0  0  0  0
   -2.3338   -1.9604   -3.6058 H   0  0  0  0  0  0  0  0  0  0  0  0
   -2.0011    0.6458   -2.0034 H   0  0  0  0  0  0  0  0  0  0  0  0
   -3.2598    0.3427   -3.2070 H   0  0  0  0  0  0  0  0  0  0  0  0
   -3.2271   -0.5932   -1.7008 H   0  0  0  0  0  0  0  0  0  0  0  0
   -1.4958   -0.2914   -5.3720 N   0  0  0  0  0  0  0  0  0  0  0  0
   -0.8630    0.3202   -6.5172 C   0  0  0  0  0  0  0  0  0  0  0  0
   -2.4674   -0.5735   -5.4618 H   0  0  0  0  0  0  0  0  0  0  0  0
   -1.0041    1.4103   -6.4761 H   0  0  0  0  0  0  0  0  0  0  0  0
    0.2125    0.0893   -6.5085 H   0  0  0  0  0  0  0  0  0  0  0  0
   -1.3151   -0.0735   -7.4395 H   0  0  0  0  0  0  0  0  0  0  0  0
  1  3  1  0  0  0  0
  1  7  1  0  0  0  0
  1  2  2  0  0  0  0
 21 22  1  0  0  0  0
 22 24  1  0  0  0  0
 22 23  2  0  0  0  0
 32 33  1  0  0  0  0
 33 41  1  0  0  0  0
 33 34  2  0  0  0  0
  8  9  1  0  0  0  0
  9 17  1  0  0  0  0
  9 10  2  0  0  0  0
 18 19  1  0  0  0  0
 19 31  1  0  0  0  0
 19 20  2  0  0  0  0
 32 35  1  0  0  0  0
  8 11  1  0  0  0  0
 41 42  1  0  0  0  0
 18 21  1  0  0  0  0
 31 32  1  0  0  0  0
  7  8  1  0  0  0  0
 17 18  1  0  0  0  0
  3  4  1  0  0  0  0
  3  5  1  0  0  0  0
  3  6  1  0  0  0  0
 35 38  1  0  0  0  0
 35 39  1  0  0  0  0
 35 40  1  0  0  0  0
 11 14  1  0  0  0  0
 11 15  1  0  0  0  0
 11 16  1  0  0  0  0
 42 44  1  0  0  0  0
 42 45  1  0  0  0  0
 42 46  1  0  0  0  0
 21 27  1  0  0  0  0
 21 28  1  0  0  0  0
 32 37  1  0  0  0  0
  8 13  1  0  0  0  0
 18 26  1  0  0  0  0
 24 29  1  0  0  0  0
 24 30  1  0  0  0  0
 41 43  1  0  0  0  0
  7 12  1  0  0  0  0
 31 36  1  0  0  0  0
 17 25  1  0  0  0  0
M  END
$$$$

  -OEChem-05262214473D

 46 45  0     1  0  0  0  0  0999 V2000
   -0.0543    1.9736    3.8406 C   0  0  0  0  0  0  0  0  0  0  0  0
    0.6744    1.6099    4.7562 O   0  0  0  0  0  0  0  0  0  0  0  0
   -0.5599    3.3779    3.8160 C   0  0  0  0  0  0  0  0  0  0  0  0
   -1.5202    3.4885    4.3450 H   0  0  0  0  0  0  0  0  0  0  0  0
    0.1282    4.0814    4.3116 H   0  0  0  0  0  0  0  0  0  0  0  0
   -0.7317    3.7994    2.8126 H   0  0  0  0  0  0  0  0  0  0  0  0
   -0.4812    1.1968    2.7762 N   0  0  0  0  0  0  0  0  0  0  0  0
   -0.1106   -0.1834    2.6051 C   0  0  2  0  0  0  0  0  0  0  0  0
   -0.0696   -0.4775    1.1113 C   0  0  0  0  0  0  0  0  0  0  0  0
   -0.6805    0.1900    0.2792 O   0  0  0  0  0  0  0  0  0  0  0  0
   -1.0852   -1.1101    3.3150 C   0  0  0  0  0  0  0  0  0  0  0  0
   -1.0883    1.6241    2.0791 H   0  0  0  0  0  0  0  0  0  0  0  0
    0.8937   -0.2959    3.0277 H   0  0  0  0  0  0  0  0  0  0  0  0
   -2.0970   -1.0114    2.9051 H   0  0  0  0  0  0  0  0  0  0  0  0
   -0.7860   -2.1580    3.2078 H   0  0  0  0  0  0  0  0  0  0  0  0
   -1.1357   -0.8775    4.3842 H   0  0  0  0  0  0  0  0  0  0  0  0
    0.6950   -1.6003    0.8178 N   0  0  0  0  0  0  0  0  0  0  0  0
    0.8777   -2.0908   -0.5246 C   0  0  2  0  0  0  0  0  0  0  0  0
    0.1038   -1.1699   -1.4596 C   0  0  0  0  0  0  0  0  0  0  0  0
    0.5093   -0.0590   -1.7955 O   0  0  0  0  0  0  0  0  0  0  0  0
    0.3987   -3.5351   -0.6732 C   0  0  0  0  0  0  0  0  0  0  0  0
    1.2837   -4.5353    0.0496 C   0  0  0  0  0  0  0  0  0  0  0  0
    2.5104   -4.4934    0.0507 O   0  0  0  0  0  0  0  0  0  0  0  0
    0.5515   -5.4975    0.7123 N   0  0  0  0  0  0  0  0  0  0  0  0
    1.1810   -2.0803    1.5718 H   0  0  0  0  0  0  0  0  0  0  0  0
    1.9479   -2.0049   -0.7457 H   0  0  0  0  0  0  0  0  0  0  0  0
   -0.6128   -3.6439   -0.2618 H   0  0  0  0  0  0  0  0  0  0  0  0
    0.3484   -3.8168   -1.7328 H   0  0  0  0  0  0  0  0  0  0  0  0
   -0.4627   -5.4909    0.6867 H   0  0  0  0  0  0  0  0  0  0  0  0
    0.9898   -6.2418    1.2455 H   0  0  0  0  0  0  0  0  0  0  0  0
   -1.0700   -1.7525   -1.9166 N   0  0  0  0  0  0  0  0  0  0  0  0
   -1.9538   -1.0758   -2.8353 C   0  0  2  0  0  0  0  0  0  0  0  0
   -1.1572   -0.7317   -4.0869 C   0  0  0  0  0  0  0  0  0  0  0  0
    0.0681   -0.6337   -4.0963 O   0  0  0  0  0  0  0  0  0  0  0  0
   -2.5501    0.1753   -2.2094 C   0  0  0  0  0  0  0  0  0  0  0  0
   -1.3219   -2.6869   -1.6079 H   0  0  0  0  0  0  0  0  0  0  0  0
   -2.7480   -1.7856   -3.0909 H   0  0  0  0  0  0  0  0  0  0  0  0
   -1.7693    0.8983   -1.9466 H   0  0  0  0  0  0  0  0  0  0  0  0
   -3.2422    0.6719   -2.8974 H   0  0  0  0  0  0  0  0  0  0  0  0
   -3.0976   -0.0703   -1.2931 H   0  0  0  0  0  0  0  0  0  0  0  0
   -1.9786   -0.5044   -5.1823 N   0  0  0  0  0  0  0  0  0  0  0  0
   -1.4623   -0.1493   -6.4835 C   0  0  0  0  0  0  0  0  0  0  0  0
   -2.9825   -0.6266   -5.0879 H   0  0  0  0  0  0  0  0  0  0  0  0
   -1.4313    0.9460   -6.5799 H   0  0  0  0  0  0  0  0  0  0  0  0
   -0.4469   -0.5563   -6.5986 H   0  0  0  0  0  0  0  0  0  0  0  0
   -2.1155   -0.5675   -7.2636 H   0  0  0  0  0  0  0  0  0  0  0  0
  1  3  1  0  0  0  0
  1  7  1  0  0  0  0
  1  2  2  0  0  0  0
 21 22  1  0  0  0  0
 22 24  1  0  0  0  0
 22 23  2  0  0  0  0
 32 33  1  0  0  0  0
 33 41  1  0  0  0  0
 33 34  2  0  0  0  0
  8  9  1  0  0  0  0
  9 17  1  0  0  0  0
  9 10  2  0  0  0  0
 18 19  1  0  0  0  0
 19 31  1  0  0  0  0
 19 20  2  0  0  0  0
 32 35  1  0  0  0  0
  8 11  1  0  0  0  0
 41 42  1  0  0  0  0
 18 21  1  0  0  0  0
 31 32  1  0  0  0  0
  7  8  1  0  0  0  0
 17 18  1  0  0  0  0
  3  4  1  0  0  0  0
  3  5  1  0  0  0  0
  3  6  1  0  0  0  0
 35 38  1  0  0  0  0
 35 39  1  0  0  0  0
 35 40  1  0  0  0  0
 11 14  1  0  0  0  0
 11 15  1  0  0  0  0
 11 16  1  0  0  0  0
 42 44  1  0  0  0  0
 42 45  1  0  0  0  0
 42 46  1  0  0  0  0
 21 27  1  0  0  0  0
 21 28  1  0  0  0  0
 32 37  1  0  0  0  0
  8 13  1  0  0  0  0
 18 26  1  0  0  0  0
 24 29  1  0  0  0  0
 24 30  1  0  0  0  0
 41 43  1  0  0  0  0
  7 12  1  0  0  0  0
 31 36  1  0  0  0  0
 17 25  1  0  0  0  0
M  END
$$$$

  -OEChem-05262214473D

 46 45  0     1  0  0  0  0  0999 V2000
   -0.0543    1.9736    3.8406 C   0  0  0  0  0  0  0  0  0  0  0  0
    0.6744    1.6099    4.7562 O   0  0  0  0  0  0  0  0  0  0  0  0
   -0.5599    3.3779    3.8160 C   0  0  0  0  0  0  0  0  0  0  0  0
   -1.5202    3.4885    4.3450 H   0  0  0  0  0  0  0  0  0  0  0  0
    0.1282    4.0814    4.3116 H   0  0  0  0  0  0  0  0  0  0  0  0
   -0.7317    3.7994    2.8126 H   0  0  0  0  0  0  0  0  0  0  0  0
   -0.4812    1.1968    2.7762 N   0  0  0  0  0  0  0  0  0  0  0  0
   -0.1106   -0.1834    2.6051 C   0  0  2  0  0  0  0  0  0  0  0  0
   -0.0696   -0.4775    1.1113 C   0  0  0  0  0  0  0  0  0  0  0  0
   -0.6805    0.1900    0.2792 O   0  0  0  0  0  0  0  0  0  0  0  0
   -1.0852   -1.1101    3.3150 C   0  0  0  0  0  0  0  0  0  0  0  0
   -1.0883    1.6241    2.0791 H   0  0  0  0  0  0  0  0  0  0  0  0
    0.8937   -0.2959    3.0277 H   0  0  0  0  0  0  0  0  0  0  0  0
   -2.0970   -1.0114    2.9051 H   0  0  0  0  0  0  0  0  0  0  0  0
   -0.7860   -2.1580    3.2078 H   0  0  0  0  0  0  0  0  0  0  0  0
   -1.1357   -0.8775    4.3842 H   0  0  0  0  0  0  0  0  0  0  0  0
    0.6950   -1.6003    0.8178 N   0  0  0  0  0  0  0  0  0  0  0  0
    0.8777   -2.0908   -0.5246 C   0  0  2  0  0  0  0  0  0  0  0  0
    0.1038   -1.1699   -1.4596 C   0  0  0  0  0  0  0  0  0  0  0  0
    0.6078   -0.1916   -2.0076 O   0  0  0  0  0  0  0  0  0  0  0  0
    0.3987   -3.5351   -0.6732 C   0  0  0  0  0  0  0  0  0  0  0  0
    1.2837   -4.5353    0.0496 C   0  0  0  0  0  0  0  0  0  0  0  0
    2.5104   -4.4934    0.0507 O   0  0  0  0  0  0  0  0  0  0  0  0
    0.5515   -5.4975    0.7123 N   0  0  0  0  0  0  0  0  0  0  0  0
    1.1810   -2.0803    1.5718 H   0  0  0  0  0  0  0  0  0  0  0  0
    1.9479   -2.0049   -0.7457 H   0  0  0  0  0  0  0  0  0  0  0  0
   -0.6128   -3.6439   -0.2618 H   0  0  0  0  0  0  0  0  0  0  0  0
    0.3484   -3.8168   -1.7328 H   0  0  0  0  0  0  0  0  0  0  0  0
   -0.4627   -5.4909    0.6867 H   0  0  0  0  0  0  0  0  0  0  0  0
    0.9898   -6.2418    1.2455 H   0  0  0  0  0  0  0  0  0  0  0  0
   -1.2031   -1.5955   -1.6518 N   0  0  0  0  0  0  0  0  0  0  0  0
   -2.1176   -0.8930   -2.5196 C   0  0  2  0  0  0  0  0  0  0  0  0
   -1.4992   -0.8398   -3.9104 C   0  0  0  0  0  0  0  0  0  0  0  0
   -0.2919   -0.9526   -4.1124 O   0  0  0  0  0  0  0  0  0  0  0  0
   -2.4086    0.5065   -2.0003 C   0  0  0  0  0  0  0  0  0  0  0  0
   -1.5357   -2.4303   -1.1782 H   0  0  0  0  0  0  0  0  0  0  0  0
   -3.0398   -1.4833   -2.5517 H   0  0  0  0  0  0  0  0  0  0  0  0
   -1.4963    1.1129   -1.9611 H   0  0  0  0  0  0  0  0  0  0  0  0
   -3.1245    1.0277   -2.6444 H   0  0  0  0  0  0  0  0  0  0  0  0
   -2.8257    0.4677   -0.9882 H   0  0  0  0  0  0  0  0  0  0  0  0
   -2.4491   -0.6086   -4.8955 N   0  0  0  0  0  0  0  0  0  0  0  0
   -2.1106   -0.5031   -6.2956 C   0  0  0  0  0  0  0  0  0  0  0  0
   -3.4300   -0.5469   -4.6391 H   0  0  0  0  0  0  0  0  0  0  0  0
   -1.9339    0.5518   -6.5522 H   0  0  0  0  0  0  0  0  0  0  0  0
   -1.2004   -1.0869   -6.4976 H   0  0  0  0  0  0  0  0  0  0  0  0
   -2.9396   -0.8944   -6.9036 H   0  0  0  0  0  0  0  0  0  0  0  0
  1  3  1  0  0  0  0
  1  7  1  0  0  0  0
  1  2  2  0  0  0  0
 21 22  1  0  0  0  0
 22 24  1  0  0  0  0
 22 23  2  0  0  0  0
 32 33  1  0  0  0  0
 33 41  1  0  0  0  0
 33 34  2  0  0  0  0
  8  9  1  0  0  0  0
  9 17  1  0  0  0  0
  9 10  2  0  0  0  0
 18 19  1  0  0  0  0
 19 31  1  0  0  0  0
 19 20  2  0  0  0  0
 32 35  1  0  0  0  0
  8 11  1  0  0  0  0
 41 42  1  0  0  0  0
 18 21  1  0  0  0  0
 31 32  1  0  0  0  0
  7  8  1  0  0  0  0
 17 18  1  0  0  0  0
  3  4  1  0  0  0  0
  3  5  1  0  0  0  0
  3  6  1  0  0  0  0
 35 38  1  0  0  0  0
 35 39  1  0  0  0  0
 35 40  1  0  0  0  0
 11 14  1  0  0  0  0
 11 15  1  0  0  0  0
 11 16  1  0  0  0  0
 42 44  1  0  0  0  0
 42 45  1  0  0  0  0
 42 46  1  0  0  0  0
 21 27  1  0  0  0  0
 21 28  1  0  0  0  0
 32 37  1  0  0  0  0
  8 13  1  0  0  0  0
 18 26  1  0  0  0  0
 24 29  1  0  0  0  0
 24 30  1  0  0  0  0
 41 43  1  0  0  0  0
  7 12  1  0  0  0  0
 31 36  1  0  0  0  0
 17 25  1  0  0  0  0
M  END
$$$$

  -OEChem-05262214473D

 46 45  0     1  0  0  0  0  0999 V2000
   -0.0543    1.9736    3.8406 C   0  0  0  0  0  0  0  0  0  0  0  0
    0.6744    1.6099    4.7562 O   0  0  0  0  0  0  0  0  0  0  0  0
   -0.5599    3.3779    3.8160 C   0  0  0  0  0  0  0  0  0  0  0  0
   -1.5202    3.4885    4.3450 H   0  0  0  0  0  0  0  0  0  0  0  0
    0.1282    4.0814    4.3116 H   0  0  0  0  0  0  0  0  0  0  0  0
   -0.7317    3.7994    2.8126 H   0  0  0  0  0  0  0  0  0  0  0  0
   -0.4812    1.1968    2.7762 N   0  0  0  0  0  0  0  0  0  0  0  0
   -0.1106   -0.1834    2.6051 C   0  0  2  0  0  0  0  0  0  0  0  0
   -0.0696   -0.4775    1.1113 C   0  0  0  0  0  0  0  0  0  0  0  0
   -0.6805    0.1900    0.2792 O   0  0  0  0  0  0  0  0  0  0  0  0
   -1.0852   -1.1101    3.3150 C   0  0  0  0  0  0  0  0  0  0  0  0
   -1.0883    1.6241    2.0791 H   0  0  0  0  0  0  0  0  0  0  0  0
    0.8937   -0.2959    3.0277 H   0  0  0  0  0  0  0  0  0  0  0  0
   -2.0970   -1.0114    2.9051 H   0  0  0  0  0  0  0  0  0  0  0  0
   -0.7860   -2.1580    3.2078 H   0  0  0  0  0  0  0  0  0  0  0  0
   -1.1357   -0.8775    4.3842 H   0  0  0  0  0  0  0  0  0  0  0  0
    0.6950   -1.6003    0.8178 N   0  0  0  0  0  0  0  0  0  0  0  0
    0.8777   -2.0908   -0.5246 C   0  0  2  0  0  0  0  0  0  0  0  0
    0.1038   -1.1699   -1.4596 C   0  0  0  0  0  0  0  0  0  0  0  0
    0.6487   -0.3632   -2.2104 O   0  0  0  0  0  0  0  0  0  0  0  0
    0.3987   -3.5351   -0.6732 C   0  0  0  0  0  0  0  0  0  0  0  0
    1.2837   -4.5353    0.0496 C   0  0  0  0  0  0  0  0  0  0  0  0
    2.5104   -4.4934    0.0507 O   0  0  0  0  0  0  0  0  0  0  0  0
    0.5515   -5.4975    0.7123 N   0  0  0  0  0  0  0  0  0  0  0  0
    1.1810   -2.0803    1.5718 H   0  0  0  0  0  0  0  0  0  0  0  0
    1.9479   -2.0049   -0.7457 H   0  0  0  0  0  0  0  0  0  0  0  0
   -0.6128   -3.6439   -0.2618 H   0  0  0  0  0  0  0  0  0  0  0  0
    0.3484   -3.8168   -1.7328 H   0  0  0  0  0  0  0  0  0  0  0  0
   -0.4627   -5.4909    0.6867 H   0  0  0  0  0  0  0  0  0  0  0  0
    0.9898   -6.2418    1.2455 H   0  0  0  0  0  0  0  0  0  0  0  0
   -1.2653   -1.3879   -1.3958 N   0  0  0  0  0  0  0  0  0  0  0  0
   -2.1974   -0.6488   -2.2131 C   0  0  2  0  0  0  0  0  0  0  0  0
   -1.8191   -0.8668   -3.6722 C   0  0  0  0  0  0  0  0  0  0  0  0
   -0.6928   -1.2055   -4.0297 O   0  0  0  0  0  0  0  0  0  0  0  0
   -2.1866    0.8313   -1.8641 C   0  0  0  0  0  0  0  0  0  0  0  0
   -1.6343   -2.0920   -0.7635 H   0  0  0  0  0  0  0  0  0  0  0  0
   -3.1893   -1.0740   -2.0250 H   0  0  0  0  0  0  0  0  0  0  0  0
   -1.2009    1.2748   -2.0461 H   0  0  0  0  0  0  0  0  0  0  0  0
   -2.9147    1.3860   -2.4652 H   0  0  0  0  0  0  0  0  0  0  0  0
   -2.4298    0.9843   -0.8071 H   0  0  0  0  0  0  0  0  0  0  0  0
   -2.8752   -0.5967   -4.5311 N   0  0  0  0  0  0  0  0  0  0  0  0
   -2.7635   -0.7173   -5.9660 C   0  0  0  0  0  0  0  0  0  0  0  0
   -3.7793   -0.3398   -4.1460 H   0  0  0  0  0  0  0  0  0  0  0  0
   -2.4776    0.2545   -6.3950 H   0  0  0  0  0  0  0  0  0  0  0  0
   -1.9967   -1.4665   -6.2124 H   0  0  0  0  0  0  0  0  0  0  0  0
   -3.7312   -1.0319   -6.3839 H   0  0  0  0  0  0  0  0  0  0  0  0
  1  3  1  0  0  0  0
  1  7  1  0  0  0  0
  1  2  2  0  0  0  0
 21 22  1  0  0  0  0
 22 24  1  0  0  0  0
 22 23  2  0  0  0  0
 32 33  1  0  0  0  0
 33 41  1  0  0  0  0
 33 34  2  0  0  0  0
  8  9  1  0  0  0  0
  9 17  1  0  0  0  0
  9 10  2  0  0  0  0
 18 19  1  0  0  0  0
 19 31  1  0  0  0  0
 19 20  2  0  0  0  0
 32 35  1  0  0  0  0
  8 11  1  0  0  0  0
 41 42  1  0  0  0  0
 18 21  1  0  0  0  0
 31 32  1  0  0  0  0
  7  8  1  0  0  0  0
 17 18  1  0  0  0  0
  3  4  1  0  0  0  0
  3  5  1  0  0  0  0
  3  6  1  0  0  0  0
 35 38  1  0  0  0  0
 35 39  1  0  0  0  0
 35 40  1  0  0  0  0
 11 14  1  0  0  0  0
 11 15  1  0  0  0  0
 11 16  1  0  0  0  0
 42 44  1  0  0  0  0
 42 45  1  0  0  0  0
 42 46  1  0  0  0  0
 21 27  1  0  0  0  0
 21 28  1  0  0  0  0
 32 37  1  0  0  0  0
  8 13  1  0  0  0  0
 18 26  1  0  0  0  0
 24 29  1  0  0  0  0
 24 30  1  0  0  0  0
 41 43  1  0  0  0  0
  7 12  1  0  0  0  0
 31 36  1  0  0  0  0
 17 25  1  0  0  0  0
M  END
$$$$

  -OEChem-05262214473D

 46 45  0     1  0  0  0  0  0999 V2000
   -0.0543    1.9736    3.8406 C   0  0  0  0  0  0  0  0  0  0  0  0
    0.6744    1.6099    4.7562 O   0  0  0  0  0  0  0  0  0  0  0  0
   -0.5599    3.3779    3.8160 C   0  0  0  0  0  0  0  0  0  0  0  0
   -1.5202    3.4885    4.3450 H   0  0  0  0  0  0  0  0  0  0  0  0
    0.1282    4.0814    4.3116 H   0  0  0  0  0  0  0  0  0  0  0  0
   -0.7317    3.7994    2.8126 H   0  0  0  0  0  0  0  0  0  0  0  0
   -0.4812    1.1968    2.7762 N   0  0  0  0  0  0  0  0  0  0  0  0
   -0.1106   -0.1834    2.6051 C   0  0  2  0  0  0  0  0  0  0  0  0
   -0.0696   -0.4775    1.1113 C   0  0  0  0  0  0  0  0  0  0  0  0
   -0.6805    0.1900    0.2792 O   0  0  0  0  0  0  0  0  0  0  0  0
   -1.0852   -1.1101    3.3150 C   0  0  0  0  0  0  0  0  0  0  0  0
   -1.0883    1.6241    2.0791 H   0  0  0  0  0  0  0  0  0  0  0  0
    0.8937   -0.2959    3.0277 H   0  0  0  0  0  0  0  0  0  0  0  0
   -2.0970   -1.0114    2.9051 H   0  0  0  0  0  0  0  0  0  0  0  0
   -0.7860   -2.1580    3.2078 H   0  0  0  0  0  0  0  0  0  0  0  0
   -1.1357   -0.8775    4.3842 H   0  0  0  0  0  0  0  0  0  0  0  0
    0.6950   -1.6003    0.8178 N   0  0  0  0  0  0  0  0  0  0  0  0
    0.8777   -2.0908   -0.5246 C   0  0  2  0  0  0  0  0  0  0  0  0
    0.1038   -1.1699   -1.4596 C   0  0  0  0  0  0  0  0  0  0  0  0
    0.6292   -0.5621   -2.3902 O   0  0  0  0  0  0  0  0  0  0  0  0
    0.3987   -3.5351   -0.6732 C   0  0  0  0  0  0  0  0  0  0  0  0
    1.2837   -4.5353    0.0496 C   0  0  0  0  0  0  0  0  0  0  0  0
    2.5104   -4.4934    0.0507 O   0  0  0  0  0  0  0  0  0  0  0  0
    0.5515   -5.4975    0.7123 N   0  0  0  0  0  0  0  0  0  0  0  0
    1.1810   -2.0803    1.5718 H   0  0  0  0  0  0  0  0  0  0  0  0
    1.9479   -2.0049   -0.7457 H   0  0  0  0  0  0  0  0  0  0  0  0
   -0.6128   -3.6439   -0.2618 H   0  0  0  0  0  0  0  0  0  0  0  0
    0.3484   -3.8168   -1.7328 H   0  0  0  0  0  0  0  0  0  0  0  0
   -0.4627   -5.4909    0.6867 H   0  0  0  0  0  0  0  0  0  0  0  0
    0.9898   -6.2418    1.2455 H   0  0  0  0  0  0  0  0  0  0  0  0
   -1.2523   -1.1438   -1.1661 N   0  0  0  0  0  0  0  0  0  0  0  0
   -2.1878   -0.3600   -1.9367 C   0  0  2  0  0  0  0  0  0  0  0  0
   -2.0951   -0.8107   -3.3885 C   0  0  0  0  0  0  0  0  0  0  0  0
   -1.1073   -1.3752   -3.8538 O   0  0  0  0  0  0  0  0  0  0  0  0
   -1.8993    1.1278   -1.8099 C   0  0  0  0  0  0  0  0  0  0  0  0
   -1.6109   -1.6951   -0.3920 H   0  0  0  0  0  0  0  0  0  0  0  0
   -3.1862   -0.5857   -1.5466 H   0  0  0  0  0  0  0  0  0  0  0  0
   -0.9031    1.3732   -2.1957 H   0  0  0  0  0  0  0  0  0  0  0  0
   -2.6271    1.7223   -2.3720 H   0  0  0  0  0  0  0  0  0  0  0  0
   -1.9371    1.4442   -0.7619 H   0  0  0  0  0  0  0  0  0  0  0  0
   -3.2279   -0.4697   -4.1141 N   0  0  0  0  0  0  0  0  0  0  0  0
   -3.3767   -0.7770   -5.5175 C   0  0  0  0  0  0  0  0  0  0  0  0
   -4.0068   -0.0195   -3.6424 H   0  0  0  0  0  0  0  0  0  0  0  0
   -3.0255    0.0743   -6.1190 H   0  0  0  0  0  0  0  0  0  0  0  0
   -2.7816   -1.6692   -5.7624 H   0  0  0  0  0  0  0  0  0  0  0  0
   -4.4364   -0.9707   -5.7400 H   0  0  0  0  0  0  0  0  0  0  0  0
  1  3  1  0  0  0  0
  1  7  1  0  0  0  0
  1  2  2  0  0  0  0
 21 22  1  0  0  0  0
 22 24  1  0  0  0  0
 22 23  2  0  0  0  0
 32 33  1  0  0  0  0
 33 41  1  0  0  0  0
 33 34  2  0  0  0  0
  8  9  1  0  0  0  0
  9 17  1  0  0  0  0
  9 10  2  0  0  0  0
 18 19  1  0  0  0  0
 19 31  1  0  0  0  0
 19 20  2  0  0  0  0
 32 35  1  0  0  0  0
  8 11  1  0  0  0  0
 41 42  1  0  0  0  0
 18 21  1  0  0  0  0
 31 32  1  0  0  0  0
  7  8  1  0  0  0  0
 17 18  1  0  0  0  0
  3  4  1  0  0  0  0
  3  5  1  0  0  0  0
  3  6  1  0  0  0  0
 35 38  1  0  0  0  0
 35 39  1  0  0  0  0
 35 40  1  0  0  0  0
 11 14  1  0  0  0  0
 11 15  1  0  0  0  0
 11 16  1  0  0  0  0
 42 44  1  0  0  0  0
 42 45  1  0  0  0  0
 42 46  1  0  0  0  0
 21 27  1  0  0  0  0
 21 28  1  0  0  0  0
 32 37  1  0  0  0  0
  8 13  1  0  0  0  0
 18 26  1  0  0  0  0
 24 29  1  0  0  0  0
 24 30  1  0  0  0  0
 41 43  1  0  0  0  0
  7 12  1  0  0  0  0
 31 36  1  0  0  0  0
 17 25  1  0  0  0  0
M  END
$$$$

  -OEChem-05262214473D

 46 45  0     1  0  0  0  0  0999 V2000
   -0.0543    1.9736    3.8406 C   0  0  0  0  0  0  0  0  0  0  0  0
    0.6744    1.6099    4.7562 O   0  0  0  0  0  0  0  0  0  0  0  0
   -0.5599    3.3779    3.8160 C   0  0  0  0  0  0  0  0  0  0  0  0
   -1.5202    3.4885    4.3450 H   0  0  0  0  0  0  0  0  0  0  0  0
    0.1282    4.0814    4.3116 H   0  0  0  0  0  0  0  0  0  0  0  0
   -0.7317    3.7994    2.8126 H   0  0  0  0  0  0  0  0  0  0  0  0
   -0.4812    1.1968    2.7762 N   0  0  0  0  0  0  0  0  0  0  0  0
   -0.1106   -0.1834    2.6051 C   0  0  2  0  0  0  0  0  0  0  0  0
   -0.0696   -0.4775    1.1113 C   0  0  0  0  0  0  0  0  0  0  0  0
   -0.6805    0.1900    0.2792 O   0  0  0  0  0  0  0  0  0  0  0  0
   -1.0852   -1.1101    3.3150 C   0  0  0  0  0  0  0  0  0  0  0  0
   -1.0883    1.6241    2.0791 H   0  0  0  0  0  0  0  0  0  0  0  0
    0.8937   -0.2959    3.0277 H   0  0  0  0  0  0  0  0  0  0  0  0
   -2.0970   -1.0114    2.9051 H   0  0  0  0  0  0  0  0  0  0  0  0
   -0.7860   -2.1580    3.2078 H   0  0  0  0  0  0  0  0  0  0  0  0
   -1.1357   -0.8775    4.3842 H   0  0  0  0  0  0  0  0  0  0  0  0
    0.6950   -1.6003    0.8178 N   0  0  0  0  0  0  0  0  0  0  0  0
    0.8777   -2.0908   -0.5246 C   0  0  2  0  0  0  0  0  0  0  0  0
    0.1038   -1.1699   -1.4596 C   0  0  0  0  0  0  0  0  0  0  0  0
    0.5507   -0.7747   -2.5346 O   0  0  0  0  0  0  0  0  0  0  0  0
    0.3987   -3.5351   -0.6732 C   0  0  0  0  0  0  0  0  0  0  0  0
    1.2837   -4.5353    0.0496 C   0  0  0  0  0  0  0  0  0  0  0  0
    2.5104   -4.4934    0.0507 O   0  0  0  0  0  0  0  0  0  0  0  0
    0.5515   -5.4975    0.7123 N   0  0  0  0  0  0  0  0  0  0  0  0
    1.1810   -2.0803    1.5718 H   0  0  0  0  0  0  0  0  0  0  0  0
    1.9479   -2.0049   -0.7457 H   0  0  0  0  0  0  0  0  0  0  0  0
   -0.6128   -3.6439   -0.2618 H   0  0  0  0  0  0  0  0  0  0  0  0
    0.3484   -3.8168   -1.7328 H   0  0  0  0  0  0  0  0  0  0  0  0
   -0.4627   -5.4909    0.6867 H   0  0  0  0  0  0  0  0  0  0  0  0
    0.9898   -6.2418    1.2455 H   0  0  0  0  0  0  0  0  0  0  0  0
   -1.1651   -0.8798   -0.9784 N   0  0  0  0  0  0  0  0  0  0  0  0
   -2.0893   -0.0462   -1.7091 C   0  0  2  0  0  0  0  0  0  0  0  0
   -2.3084   -0.6753   -3.0787 C   0  0  0  0  0  0  0  0  0  0  0  0
   -1.5071   -1.4502   -3.5968 O   0  0  0  0  0  0  0  0  0  0  0  0
   -1.5662    1.3756   -1.8415 C   0  0  0  0  0  0  0  0  0  0  0  0
   -1.4671   -1.2666   -0.0890 H   0  0  0  0  0  0  0  0  0  0  0  0
   -3.0309   -0.0517   -1.1492 H   0  0  0  0  0  0  0  0  0  0  0  0
   -0.6233    1.4012   -2.3997 H   0  0  0  0  0  0  0  0  0  0  0  0
   -2.2813    2.0138   -2.3712 H   0  0  0  0  0  0  0  0  0  0  0  0
   -1.3810    1.8161   -0.8559 H   0  0  0  0  0  0  0  0  0  0  0  0
   -3.4833   -0.2362   -3.6728 N   0  0  0  0  0  0  0  0  0  0  0  0
   -3.9083   -0.6784   -4.9804 C   0  0  0  0  0  0  0  0  0  0  0  0
   -4.0968    0.3922   -3.1624 H   0  0  0  0  0  0  0  0  0  0  0  0
   -3.5401    0.0236   -5.7431 H   0  0  0  0  0  0  0  0  0  0  0  0
   -3.5015   -1.6811   -5.1783 H   0  0  0  0  0  0  0  0  0  0  0  0
   -5.0071   -0.7149   -5.0157 H   0  0  0  0  0  0  0  0  0  0  0  0
  1  3  1  0  0  0  0
  1  7  1  0  0  0  0
  1  2  2  0  0  0  0
 21 22  1  0  0  0  0
 22 24  1  0  0  0  0
 22 23  2  0  0  0  0
 32 33  1  0  0  0  0
 33 41  1  0  0  0  0
 33 34  2  0  0  0  0
  8  9  1  0  0  0  0
  9 17  1  0  0  0  0
  9 10  2  0  0  0  0
 18 19  1  0  0  0  0
 19 31  1  0  0  0  0
 19 20  2  0  0  0  0
 32 35  1  0  0  0  0
  8 11  1  0  0  0  0
 41 42  1  0  0  0  0
 18 21  1  0  0  0  0
 31 32  1  0  0  0  0
  7  8  1  0  0  0  0
 17 18  1  0  0  0  0
  3  4  1  0  0  0  0
  3  5  1  0  0  0  0
  3  6  1  0  0  0  0
 35 38  1  0  0  0  0
 35 39  1  0  0  0  0
 35 40  1  0  0  0  0
 11 14  1  0  0  0  0
 11 15  1  0  0  0  0
 11 16  1  0  0  0  0
 42 44  1  0  0  0  0
 42 45  1  0  0  0  0
 42 46  1  0  0  0  0
 21 27  1  0  0  0  0
 21 28  1  0  0  0  0
 32 37  1  0  0  0  0
  8 13  1  0  0  0  0
 18 26  1  0  0  0  0
 24 29  1  0  0  0  0
 24 30  1  0  0  0  0
 41 43  1  0  0  0  0
  7 12  1  0  0  0  0
 31 36  1  0  0  0  0
 17 25  1  0  0  0  0
M  END
$$$$

  -OEChem-05262214473D

 46 45  0     1  0  0  0  0  0999 V2000
   -0.0543    1.9736    3.8406 C   0  0  0  0  0  0  0  0  0  0  0  0
    0.6744    1.6099    4.7562 O   0  0  0  0  0  0  0  0  0  0  0  0
   -0.5599    3.3779    3.8160 C   0  0  0  0  0  0  0  0  0  0  0  0
   -1.5202    3.4885    4.3450 H   0  0  0  0  0  0  0  0  0  0  0  0
    0.1282    4.0814    4.3116 H   0  0  0  0  0  0  0  0  0  0  0  0
   -0.7317    3.7994    2.8126 H   0  0  0  0  0  0  0  0  0  0  0  0
   -0.4812    1.1968    2.7762 N   0  0  0  0  0  0  0  0  0  0  0  0
   -0.1106   -0.1834    2.6051 C   0  0  2  0  0  0  0  0  0  0  0  0
   -0.0696   -0.4775    1.1113 C   0  0  0  0  0  0  0  0  0  0  0  0
   -0.6805    0.1900    0.2792 O   0  0  0  0  0  0  0  0  0  0  0  0
   -1.0852   -1.1101    3.3150 C   0  0  0  0  0  0  0  0  0  0  0  0
   -1.0883    1.6241    2.0791 H   0  0  0  0  0  0  0  0  0  0  0  0
    0.8937   -0.2959    3.0277 H   0  0  0  0  0  0  0  0  0  0  0  0
   -2.0970   -1.0114    2.9051 H   0  0  0  0  0  0  0  0  0  0  0  0
   -0.7860   -2.1580    3.2078 H   0  0  0  0  0  0  0  0  0  0  0  0
   -1.1357   -0.8775    4.3842 H   0  0  0  0  0  0  0  0  0  0  0  0
    0.6950   -1.6003    0.8178 N   0  0  0  0  0  0  0  0  0  0  0  0
    0.8777   -2.0908   -0.5246 C   0  0  2  0  0  0  0  0  0  0  0  0
    0.1038   -1.1699   -1.4596 C   0  0  0  0  0  0  0  0  0  0  0  0
    0.4185   -0.9867   -2.6339 O   0  0  0  0  0  0  0  0  0  0  0  0
    0.3987   -3.5351   -0.6732 C   0  0  0  0  0  0  0  0  0  0  0  0
    1.2837   -4.5353    0.0496 C   0  0  0  0  0  0  0  0  0  0  0  0
    2.5104   -4.4934    0.0507 O   0  0  0  0  0  0  0  0  0  0  0  0
    0.5515   -5.4975    0.7123 N   0  0  0  0  0  0  0  0  0  0  0  0
    1.1810   -2.0803    1.5718 H   0  0  0  0  0  0  0  0  0  0  0  0
    1.9479   -2.0049   -0.7457 H   0  0  0  0  0  0  0  0  0  0  0  0
   -0.6128   -3.6439   -0.2618 H   0  0  0  0  0  0  0  0  0  0  0  0
    0.3484   -3.8168   -1.7328 H   0  0  0  0  0  0  0  0  0  0  0  0
   -0.4627   -5.4909    0.6867 H   0  0  0  0  0  0  0  0  0  0  0  0
    0.9898   -6.2418    1.2455 H   0  0  0  0  0  0  0  0  0  0  0  0
   -1.0096   -0.6141   -0.8454 N   0  0  0  0  0  0  0  0  0  0  0  0
   -1.9088    0.2712   -1.5460 C   0  0  2  0  0  0  0  0  0  0  0  0
   -2.4445   -0.4700   -2.7638 C   0  0  0  0  0  0  0  0  0  0  0  0
   -1.8650   -1.4254   -3.2761 O   0  0  0  0  0  0  0  0  0  0  0  0
   -1.2101    1.5580   -1.9567 C   0  0  0  0  0  0  0  0  0  0  0  0
   -1.2127   -0.8356    0.1249 H   0  0  0  0  0  0  0  0  0  0  0  0
   -2.7338    0.4918   -0.8599 H   0  0  0  0  0  0  0  0  0  0  0  0
   -0.3804    1.3570   -2.6442 H   0  0  0  0  0  0  0  0  0  0  0  0
   -1.9008    2.2404   -2.4628 H   0  0  0  0  0  0  0  0  0  0  0  0
   -0.7995    2.0747   -1.0825 H   0  0  0  0  0  0  0  0  0  0  0  0
   -3.6237    0.0880   -3.2373 N   0  0  0  0  0  0  0  0  0  0  0  0
   -4.3221   -0.4281   -4.3914 C   0  0  0  0  0  0  0  0  0  0  0  0
   -4.0432    0.8673   -2.7388 H   0  0  0  0  0  0  0  0  0  0  0  0
   -3.9865    0.1058   -5.2927 H   0  0  0  0  0  0  0  0  0  0  0  0
   -4.1075   -1.5015   -4.5000 H   0  0  0  0  0  0  0  0  0  0  0  0
   -5.4044   -0.2820   -4.2605 H   0  0  0  0  0  0  0  0  0  0  0  0
  1  3  1  0  0  0  0
  1  7  1  0  0  0  0
  1  2  2  0  0  0  0
 21 22  1  0  0  0  0
 22 24  1  0  0  0  0
 22 23  2  0  0  0  0
 32 33  1  0  0  0  0
 33 41  1  0  0  0  0
 33 34  2  0  0  0  0
  8  9  1  0  0  0  0
  9 17  1  0  0  0  0
  9 10  2  0  0  0  0
 18 19  1  0  0  0  0
 19 31  1  0  0  0  0
 19 20  2  0  0  0  0
 32 35  1  0  0  0  0
  8 11  1  0  0  0  0
 41 42  1  0  0  0  0
 18 21  1  0  0  0  0
 31 32  1  0  0  0  0
  7  8  1  0  0  0  0
 17 18  1  0  0  0  0
  3  4  1  0  0  0  0
  3  5  1  0  0  0  0
  3  6  1  0  0  0  0
 35 38  1  0  0  0  0
 35 39  1  0  0  0  0
 35 40  1  0  0  0  0
 11 14  1  0  0  0  0
 11 15  1  0  0  0  0
 11 16  1  0  0  0  0
 42 44  1  0  0  0  0
 42 45  1  0  0  0  0
 42 46  1  0  0  0  0
 21 27  1  0  0  0  0
 21 28  1  0  0  0  0
 32 37  1  0  0  0  0
  8 13  1  0  0  0  0
 18 26  1  0  0  0  0
 24 29  1  0  0  0  0
 24 30  1  0  0  0  0
 41 43  1  0  0  0  0
  7 12  1  0  0  0  0
 31 36  1  0  0  0  0
 17 25  1  0  0  0  0
M  END
$$$$

  -OEChem-05262214473D

 46 45  0     1  0  0  0  0  0999 V2000
   -0.0543    1.9736    3.8406 C   0  0  0  0  0  0  0  0  0  0  0  0
    0.6744    1.6099    4.7562 O   0  0  0  0  0  0  0  0  0  0  0  0
   -0.5599    3.3779    3.8160 C   0  0  0  0  0  0  0  0  0  0  0  0
   -1.5202    3.4885    4.3450 H   0  0  0  0  0  0  0  0  0  0  0  0
    0.1282    4.0814    4.3116 H   0  0  0  0  0  0  0  0  0  0  0  0
   -0.7317    3.7994    2.8126 H   0  0  0  0  0  0  0  0  0  0  0  0
   -0.4812    1.1968    2.7762 N   0  0  0  0  0  0  0  0  0  0  0  0
   -0.1106   -0.1834    2.6051 C   0  0  2  0  0  0  0  0  0  0  0  0
   -0.0696   -0.4775    1.1113 C   0  0  0  0  0  0  0  0  0  0  0  0
   -0.6805    0.1900    0.2792 O   0  0  0  0  0  0  0  0  0  0  0  0
   -1.0852   -1.1101    3.3150 C   0  0  0  0  0  0  0  0  0  0  0  0
   -1.0883    1.6241    2.0791 H   0  0  0  0  0  0  0  0  0  0  0  0
    0.8937   -0.2959    3.0277 H   0  0  0  0  0  0  0  0  0  0  0  0
   -2.0970   -1.0114    2.9051 H   0  0  0  0  0  0  0  0  0  0  0  0
   -0.7860   -2.1580    3.2078 H   0  0  0  0  0  0  0  0  0  0  0  0
   -1.1357   -0.8775    4.3842 H   0  0  0  0  0  0  0  0  0  0  0  0
    0.6950   -1.6003    0.8178 N   0  0  0  0  0  0  0  0  0  0  0  0
    0.8777   -2.0908   -0.5246 C   0  0  2  0  0  0  0  0  0  0  0  0
    0.1038   -1.1699   -1.4596 C   0  0  0  0  0  0  0  0  0  0  0  0
    0.2415   -1.1834   -2.6812 O   0  0  0  0  0  0  0  0  0  0  0  0
    0.3987   -3.5351   -0.6732 C   0  0  0  0  0  0  0  0  0  0  0  0
    1.2837   -4.5353    0.0496 C   0  0  0  0  0  0  0  0  0  0  0  0
    2.5104   -4.4934    0.0507 O   0  0  0  0  0  0  0  0  0  0  0  0
    0.5515   -5.4975    0.7123 N   0  0  0  0  0  0  0  0  0  0  0  0
    1.1810   -2.0803    1.5718 H   0  0  0  0  0  0  0  0  0  0  0  0
    1.9479   -2.0049   -0.7457 H   0  0  0  0  0  0  0  0  0  0  0  0
   -0.6128   -3.6439   -0.2618 H   0  0  0  0  0  0  0  0  0  0  0  0
    0.3484   -3.8168   -1.7328 H   0  0  0  0  0  0  0  0  0  0  0  0
   -0.4627   -5.4909    0.6867 H   0  0  0  0  0  0  0  0  0  0  0  0
    0.9898   -6.2418    1.2455 H   0  0  0  0  0  0  0  0  0  0  0  0
   -0.7963   -0.3646   -0.7762 N   0  0  0  0  0  0  0  0  0  0  0  0
   -1.6585    0.5705   -1.4583 C   0  0  2  0  0  0  0  0  0  0  0  0
   -2.4941   -0.2086   -2.4654 C   0  0  0  0  0  0  0  0  0  0  0  0
   -2.1565   -1.3023   -2.9137 O   0  0  0  0  0  0  0  0  0  0  0  0
   -0.8551    1.6624   -2.1476 C   0  0  0  0  0  0  0  0  0  0  0  0
   -0.8651   -0.4317    0.2350 H   0  0  0  0  0  0  0  0  0  0  0  0
   -2.3153    1.0075   -0.6983 H   0  0  0  0  0  0  0  0  0  0  0  0
   -0.1911    1.2436   -2.9126 H   0  0  0  0  0  0  0  0  0  0  0  0
   -1.5117    2.3869   -2.6406 H   0  0  0  0  0  0  0  0  0  0  0  0
   -0.2322    2.2023   -1.4263 H   0  0  0  0  0  0  0  0  0  0  0  0
   -3.6398    0.4807   -2.8373 N   0  0  0  0  0  0  0  0  0  0  0  0
   -4.5899   -0.0431   -3.7907 C   0  0  0  0  0  0  0  0  0  0  0  0
   -3.8498    1.3734   -2.4005 H   0  0  0  0  0  0  0  0  0  0  0  0
   -4.3341    0.3153   -4.7987 H   0  0  0  0  0  0  0  0  0  0  0  0
   -4.5581   -1.1426   -3.7736 H   0  0  0  0  0  0  0  0  0  0  0  0
   -5.6013    0.2986   -3.5258 H   0  0  0  0  0  0  0  0  0  0  0  0
  1  3  1  0  0  0  0
  1  7  1  0  0  0  0
  1  2  2  0  0  0  0
 21 22  1  0  0  0  0
 22 24  1  0  0  0  0
 22 23  2  0  0  0  0
 32 33  1  0  0  0  0
 33 41  1  0  0  0  0
 33 34  2  0  0  0  0
  8  9  1  0  0  0  0
  9 17  1  0  0  0  0
  9 10  2  0  0  0  0
 18 19  1  0  0  0  0
 19 31  1  0  0  0  0
 19 20  2  0  0  0  0
 32 35  1  0  0  0  0
  8 11  1  0  0  0  0
 41 42  1  0  0  0  0
 18 21  1  0  0  0  0
 31 32  1  0  0  0  0
  7  8  1  0  0  0  0
 17 18  1  0  0  0  0
  3  4  1  0  0  0  0
  3  5  1  0  0  0  0
  3  6  1  0  0  0  0
 35 38  1  0  0  0  0
 35 39  1  0  0  0  0
 35 40  1  0  0  0  0
 11 14  1  0  0  0  0
 11 15  1  0  0  0  0
 11 16  1  0  0  0  0
 42 44  1  0  0  0  0
 42 45  1  0  0  0  0
 42 46  1  0  0  0  0
 21 27  1  0  0  0  0
 21 28  1  0  0  0  0
 32 37  1  0  0  0  0
  8 13  1  0  0  0  0
 18 26  1  0  0  0  0
 24 29  1  0  0  0  0
 24 30  1  0  0  0  0
 41 43  1  0  0  0  0
  7 12  1  0  0  0  0
 31 36  1  0  0  0  0
 17 25  1  0  0  0  0
M  END
$$$$

  -OEChem-05262214473D

 46 45  0     1  0  0  0  0  0999 V2000
   -0.0543    1.9736    3.8406 C   0  0  0  0  0  0  0  0  0  0  0  0
    0.6744    1.6099    4.7562 O   0  0  0  0  0  0  0  0  0  0  0  0
   -0.5599    3.3779    3.8160 C   0  0  0  0  0  0  0  0  0  0  0  0
   -1.5202    3.4885    4.3450 H   0  0  0  0  0  0  0  0  0  0  0  0
    0.1282    4.0814    4.3116 H   0  0  0  0  0  0  0  0  0  0  0  0
   -0.7317    3.7994    2.8126 H   0  0  0  0  0  0  0  0  0  0  0  0
   -0.4812    1.1968    2.7762 N   0  0  0  0  0  0  0  0  0  0  0  0
   -0.1106   -0.1834    2.6051 C   0  0  2  0  0  0  0  0  0  0  0  0
   -0.0696   -0.4775    1.1113 C   0  0  0  0  0  0  0  0  0  0  0  0
   -0.6805    0.1900    0.2792 O   0  0  0  0  0  0  0  0  0  0  0  0
   -1.0852   -1.1101    3.3150 C   0  0  0  0  0  0  0  0  0  0  0  0
   -1.0883    1.6241    2.0791 H   0  0  0  0  0  0  0  0  0  0  0  0
    0.8937   -0.2959    3.0277 H   0  0  0  0  0  0  0  0  0  0  0  0
   -2.0970   -1.0114    2.9051 H   0  0  0  0  0  0  0  0  0  0  0  0
   -0.7860   -2.1580    3.2078 H   0  0  0  0  0  0  0  0  0  0  0  0
   -1.1357   -0.8775    4.3842 H   0  0  0  0  0  0  0  0  0  0  0  0
    0.6950   -1.6003    0.8178 N   0  0  0  0  0  0  0  0  0  0  0  0
    0.8777   -2.0908   -0.5246 C   0  0  2  0  0  0  0  0  0  0  0  0
    0.1038   -1.1699   -1.4596 C   0  0  0  0  0  0  0  0  0  0  0  0
    0.0320   -1.3516   -2.6734 O   0  0  0  0  0  0  0  0  0  0  0  0
    0.3987   -3.5351   -0.6732 C   0  0  0  0  0  0  0  0  0  0  0  0
    1.2837   -4.5353    0.0496 C   0  0  0  0  0  0  0  0  0  0  0  0
    2.5104   -4.4934    0.0507 O   0  0  0  0  0  0  0  0  0  0  0  0
    0.5515   -5.4975    0.7123 N   0  0  0  0  0  0  0  0  0  0  0  0
    1.1810   -2.0803    1.5718 H   0  0  0  0  0  0  0  0  0  0  0  0
    1.9479   -2.0049   -0.7457 H   0  0  0  0  0  0  0  0  0  0  0  0
   -0.6128   -3.6439   -0.2618 H   0  0  0  0  0  0  0  0  0  0  0  0
    0.3484   -3.8168   -1.7328 H   0  0  0  0  0  0  0  0  0  0  0  0
   -0.4627   -5.4909    0.6867 H   0  0  0  0  0  0  0  0  0  0  0  0
    0.9898   -6.2418    1.2455 H   0  0  0  0  0  0  0  0  0  0  0  0
   -0.5399   -0.1484   -0.7755 N   0  0  0  0  0  0  0  0  0  0  0  0
   -1.3554    0.8314   -1.4522 C   0  0  2  0  0  0  0  0  0  0  0  0
   -2.4538    0.0909   -2.2038 C   0  0  0  0  0  0  0  0  0  0  0  0
   -2.3620   -1.0895   -2.5341 O   0  0  0  0  0  0  0  0  0  0  0  0
   -0.5255    1.6817   -2.4013 C   0  0  0  0  0  0  0  0  0  0  0  0
   -0.4479   -0.0822    0.2339 H   0  0  0  0  0  0  0  0  0  0  0  0
   -1.8038    1.4605   -0.6755 H   0  0  0  0  0  0  0  0  0  0  0  0
   -0.0682    1.0687   -3.1865 H   0  0  0  0  0  0  0  0  0  0  0  0
   -1.1403    2.4431   -2.8925 H   0  0  0  0  0  0  0  0  0  0  0  0
    0.2822    2.1902   -1.8640 H   0  0  0  0  0  0  0  0  0  0  0  0
   -3.5304    0.9151   -2.5000 N   0  0  0  0  0  0  0  0  0  0  0  0
   -4.6934    0.4502   -3.2192 C   0  0  0  0  0  0  0  0  0  0  0  0
   -3.5296    1.8759   -2.1706 H   0  0  0  0  0  0  0  0  0  0  0  0
   -4.5593    0.6378   -4.2947 H   0  0  0  0  0  0  0  0  0  0  0  0
   -4.8227   -0.6288   -3.0486 H   0  0  0  0  0  0  0  0  0  0  0  0
   -5.5843    0.9873   -2.8617 H   0  0  0  0  0  0  0  0  0  0  0  0
  1  3  1  0  0  0  0
  1  7  1  0  0  0  0
  1  2  2  0  0  0  0
 21 22  1  0  0  0  0
 22 24  1  0  0  0  0
 22 23  2  0  0  0  0
 32 33  1  0  0  0  0
 33 41  1  0  0  0  0
 33 34  2  0  0  0  0
  8  9  1  0  0  0  0
  9 17  1  0  0  0  0
  9 10  2  0  0  0  0
 18 19  1  0  0  0  0
 19 31  1  0  0  0  0
 19 20  2  0  0  0  0
 32 35  1  0  0  0  0
  8 11  1  0  0  0  0
 41 42  1  0  0  0  0
 18 21  1  0  0  0  0
 31 32  1  0  0  0  0
  7  8  1  0  0  0  0
 17 18  1  0  0  0  0
  3  4  1  0  0  0  0
  3  5  1  0  0  0  0
  3  6  1  0  0  0  0
 35 38  1  0  0  0  0
 35 39  1  0  0  0  0
 35 40  1  0  0  0  0
 11 14  1  0  0  0  0
 11 15  1  0  0  0  0
 11 16  1  0  0  0  0
 42 44  1  0  0  0  0
 42 45  1  0  0  0  0
 42 46  1  0  0  0  0
 21 27  1  0  0  0  0
 21 28  1  0  0  0  0
 32 37  1  0  0  0  0
  8 13  1  0  0  0  0
 18 26  1  0  0  0  0
 24 29  1  0  0  0  0
 24 30  1  0  0  0  0
 41 43  1  0  0  0  0
  7 12  1  0  0  0  0
 31 36  1  0  0  0  0
 17 25  1  0  0  0  0
M  END
$$$$

  -OEChem-05262214473D

 46 45  0     1  0  0  0  0  0999 V2000
   -0.0543    1.9736    3.8406 C   0  0  0  0  0  0  0  0  0  0  0  0
    0.6744    1.6099    4.7562 O   0  0  0  0  0  0  0  0  0  0  0  0
   -0.5599    3.3779    3.8160 C   0  0  0  0  0  0  0  0  0  0  0  0
   -1.5202    3.4885    4.3450 H   0  0  0  0  0  0  0  0  0  0  0  0
    0.1282    4.0814    4.3116 H   0  0  0  0  0  0  0  0  0  0  0  0
   -0.7317    3.7994    2.8126 H   0  0  0  0  0  0  0  0  0  0  0  0
   -0.4812    1.1968    2.7762 N   0  0  0  0  0  0  0  0  0  0  0  0
   -0.1106   -0.1834    2.6051 C   0  0  2  0  0  0  0  0  0  0  0  0
   -0.0696   -0.4775    1.1113 C   0  0  0  0  0  0  0  0  0  0  0  0
   -0.6805    0.1900    0.2792 O   0  0  0  0  0  0  0  0  0  0  0  0
   -1.0852   -1.1101    3.3150 C   0  0  0  0  0  0  0  0  0  0  0  0
   -1.0883    1.6241    2.0791 H   0  0  0  0  0  0  0  0  0  0  0  0
    0.8937   -0.2959    3.0277 H   0  0  0  0  0  0  0  0  0  0  0  0
   -2.0970   -1.0114    2.9051 H   0  0  0  0  0  0  0  0  0  0  0  0
   -0.7860   -2.1580    3.2078 H   0  0  0  0  0  0  0  0  0  0  0  0
   -1.1357   -0.8775    4.3842 H   0  0  0  0  0  0  0  0  0  0  0  0
    0.6950   -1.6003    0.8178 N   0  0  0  0  0  0  0  0  0  0  0  0
    0.8777   -2.0908   -0.5246 C   0  0  2  0  0  0  0  0  0  0  0  0
    0.1038   -1.1699   -1.4596 C   0  0  0  0  0  0  0  0  0  0  0  0
   -0.1959   -1.4798   -2.6110 O   0  0  0  0  0  0  0  0  0  0  0  0
    0.3987   -3.5351   -0.6732 C   0  0  0  0  0  0  0  0  0  0  0  0
    1.2837   -4.5353    0.0496 C   0  0  0  0  0  0  0  0  0  0  0  0
    2.5104   -4.4934    0.0507 O   0  0  0  0  0  0  0  0  0  0  0  0
    0.5515   -5.4975    0.7123 N   0  0  0  0  0  0  0  0  0  0  0  0
    1.1810   -2.0803    1.5718 H   0  0  0  0  0  0  0  0  0  0  0  0
    1.9479   -2.0049   -0.7457 H   0  0  0  0  0  0  0  0  0  0  0  0
   -0.6128   -3.6439   -0.2618 H   0  0  0  0  0  0  0  0  0  0  0  0
    0.3484   -3.8168   -1.7328 H   0  0  0  0  0  0  0  0  0  0  0  0
   -0.4627   -5.4909    0.6867 H   0  0  0  0  0  0  0  0  0  0  0  0
    0.9898   -6.2418    1.2455 H   0  0  0  0  0  0  0  0  0  0  0  0
   -0.2577    0.0198   -0.8434 N   0  0  0  0  0  0  0  0  0  0  0  0
   -1.0203    1.0361   -1.5280 C   0  0  2  0  0  0  0  0  0  0  0  0
   -2.3263    0.4083   -1.9967 C   0  0  0  0  0  0  0  0  0  0  0  0
   -2.4672   -0.8015   -2.1633 O   0  0  0  0  0  0  0  0  0  0  0  0
   -0.2438    1.6147   -2.7005 C   0  0  0  0  0  0  0  0  0  0  0  0
    0.0103    0.1889    0.1217 H   0  0  0  0  0  0  0  0  0  0  0  0
   -1.2343    1.8198   -0.7930 H   0  0  0  0  0  0  0  0  0  0  0  0
   -0.0202    0.8442   -3.4474 H   0  0  0  0  0  0  0  0  0  0  0  0
   -0.8121    2.4054   -3.2013 H   0  0  0  0  0  0  0  0  0  0  0  0
    0.7088    2.0393   -2.3656 H   0  0  0  0  0  0  0  0  0  0  0  0
   -3.3029    1.3617   -2.2485 N   0  0  0  0  0  0  0  0  0  0  0  0
   -4.6257    1.0183   -2.7157 C   0  0  0  0  0  0  0  0  0  0  0  0
   -3.1045    2.3408   -2.0646 H   0  0  0  0  0  0  0  0  0  0  0  0
   -4.6468    1.0513   -3.8150 H   0  0  0  0  0  0  0  0  0  0  0  0
   -4.8833    0.0048   -2.3745 H   0  0  0  0  0  0  0  0  0  0  0  0
   -5.3546    1.7371   -2.3133 H   0  0  0  0  0  0  0  0  0  0  0  0
  1  3  1  0  0  0  0
  1  7  1  0  0  0  0
  1  2  2  0  0  0  0
 21 22  1  0  0  0  0
 22 24  1  0  0  0  0
 22 23  2  0  0  0  0
 32 33  1  0  0  0  0
 33 41  1  0  0  0  0
 33 34  2  0  0  0  0
  8  9  1  0  0  0  0
  9 17  1  0  0  0  0
  9 10  2  0  0  0  0
 18 19  1  0  0  0  0
 19 31  1  0  0  0  0
 19 20  2  0  0  0  0
 32 35  1  0  0  0  0
  8 11  1  0  0  0  0
 41 42  1  0  0  0  0
 18 21  1  0  0  0  0
 31 32  1  0  0  0  0
  7  8  1  0  0  0  0
 17 18  1  0  0  0  0
  3  4  1  0  0  0  0
  3  5  1  0  0  0  0
  3  6  1  0  0  0  0
 35 38  1  0  0  0  0
 35 39  1  0  0  0  0
 35 40  1  0  0  0  0
 11 14  1  0  0  0  0
 11 15  1  0  0  0  0
 11 16  1  0  0  0  0
 42 44  1  0  0  0  0
 42 45  1  0  0  0  0
 42 46  1  0  0  0  0
 21 27  1  0  0  0  0
 21 28  1  0  0  0  0
 32 37  1  0  0  0  0
  8 13  1  0  0  0  0
 18 26  1  0  0  0  0
 24 29  1  0  0  0  0
 24 30  1  0  0  0  0
 41 43  1  0  0  0  0
  7 12  1  0  0  0  0
 31 36  1  0  0  0  0
 17 25  1  0  0  0  0
M  END
$$$$

  -OEChem-05262214473D

 46 45  0     1  0  0  0  0  0999 V2000
   -0.0543    1.9736    3.8406 C   0  0  0  0  0  0  0  0  0  0  0  0
    0.6744    1.6099    4.7562 O   0  0  0  0  0  0  0  0  0  0  0  0
   -0.5599    3.3779    3.8160 C   0  0  0  0  0  0  0  0  0  0  0  0
   -1.5202    3.4885    4.3450 H   0  0  0  0  0  0  0  0  0  0  0  0
    0.1282    4.0814    4.3116 H   0  0  0  0  0  0  0  0  0  0  0  0
   -0.7317    3.7994    2.8126 H   0  0  0  0  0  0  0  0  0  0  0  0
   -0.4812    1.1968    2.7762 N   0  0  0  0  0  0  0  0  0  0  0  0
   -0.1106   -0.1834    2.6051 C   0  0  2  0  0  0  0  0  0  0  0  0
   -0.0696   -0.4775    1.1113 C   0  0  0  0  0  0  0  0  0  0  0  0
   -0.6805    0.1900    0.2792 O   0  0  0  0  0  0  0  0  0  0  0  0
   -1.0852   -1.1101    3.3150 C   0  0  0  0  0  0  0  0  0  0  0  0
   -1.0883    1.6241    2.0791 H   0  0  0  0  0  0  0  0  0  0  0  0
    0.8937   -0.2959    3.0277 H   0  0  0  0  0  0  0  0  0  0  0  0
   -2.0970   -1.0114    2.9051 H   0  0  0  0  0  0  0  0  0  0  0  0
   -0.7860   -2.1580    3.2078 H   0  0  0  0  0  0  0  0  0  0  0  0
   -1.1357   -0.8775    4.3842 H   0  0  0  0  0  0  0  0  0  0  0  0
    0.6950   -1.6003    0.8178 N   0  0  0  0  0  0  0  0  0  0  0  0
    0.8777   -2.0908   -0.5246 C   0  0  2  0  0  0  0  0  0  0  0  0
    0.1038   -1.1699   -1.4596 C   0  0  0  0  0  0  0  0  0  0  0  0
   -0.4267   -1.5591   -2.4982 O   0  0  0  0  0  0  0  0  0  0  0  0
    0.3987   -3.5351   -0.6732 C   0  0  0  0  0  0  0  0  0  0  0  0
    1.2837   -4.5353    0.0496 C   0  0  0  0  0  0  0  0  0  0  0  0
    2.5104   -4.4934    0.0507 O   0  0  0  0  0  0  0  0  0  0  0  0
    0.5515   -5.4975    0.7123 N   0  0  0  0  0  0  0  0  0  0  0  0
    1.1810   -2.0803    1.5718 H   0  0  0  0  0  0  0  0  0  0  0  0
    1.9479   -2.0049   -0.7457 H   0  0  0  0  0  0  0  0  0  0  0  0
   -0.6128   -3.6439   -0.2618 H   0  0  0  0  0  0  0  0  0  0  0  0
    0.3484   -3.8168   -1.7328 H   0  0  0  0  0  0  0  0  0  0  0  0
   -0.4627   -5.4909    0.6867 H   0  0  0  0  0  0  0  0  0  0  0  0
    0.9898   -6.2418    1.2455 H   0  0  0  0  0  0  0  0  0  0  0  0
    0.0309    0.1285   -0.9752 N   0  0  0  0  0  0  0  0  0  0  0  0
   -0.6760    1.1706   -1.6805 C   0  0  2  0  0  0  0  0  0  0  0  0
   -2.1204    0.7218   -1.8584 C   0  0  0  0  0  0  0  0  0  0  0  0
   -2.4651   -0.4578   -1.8266 O   0  0  0  0  0  0  0  0  0  0  0  0
   -0.0291    1.4659   -3.0247 C   0  0  0  0  0  0  0  0  0  0  0  0
    0.4785    0.3632   -0.0941 H   0  0  0  0  0  0  0  0  0  0  0  0
   -0.6454    2.0609   -1.0429 H   0  0  0  0  0  0  0  0  0  0  0  0
   -0.0502    0.5855   -3.6773 H   0  0  0  0  0  0  0  0  0  0  0  0
   -0.5494    2.2762   -3.5460 H   0  0  0  0  0  0  0  0  0  0  0  0
    1.0184    1.7598   -2.8970 H   0  0  0  0  0  0  0  0  0  0  0  0
   -2.9729    1.7900   -2.0998 N   0  0  0  0  0  0  0  0  0  0  0  0
   -4.3912    1.6225   -2.3148 C   0  0  0  0  0  0  0  0  0  0  0  0
   -2.6035    2.7362   -2.0898 H   0  0  0  0  0  0  0  0  0  0  0  0
   -4.5906    1.5277   -3.3924 H   0  0  0  0  0  0  0  0  0  0  0  0
   -4.7357    0.7151   -1.7971 H   0  0  0  0  0  0  0  0  0  0  0  0
   -4.9279    2.4970   -1.9182 H   0  0  0  0  0  0  0  0  0  0  0  0
  1  3  1  0  0  0  0
  1  7  1  0  0  0  0
  1  2  2  0  0  0  0
 21 22  1  0  0  0  0
 22 24  1  0  0  0  0
 22 23  2  0  0  0  0
 32 33  1  0  0  0  0
 33 41  1  0  0  0  0
 33 34  2  0  0  0  0
  8  9  1  0  0  0  0
  9 17  1  0  0  0  0
  9 10  2  0  0  0  0
 18 19  1  0  0  0  0
 19 31  1  0  0  0  0
 19 20  2  0  0  0  0
 32 35  1  0  0  0  0
  8 11  1  0  0  0  0
 41 42  1  0  0  0  0
 18 21  1  0  0  0  0
 31 32  1  0  0  0  0
  7  8  1  0  0  0  0
 17 18  1  0  0  0  0
  3  4  1  0  0  0  0
  3  5  1  0  0  0  0
  3  6  1  0  0  0  0
 35 38  1  0  0  0  0
 35 39  1  0  0  0  0
 35 40  1  0  0  0  0
 11 14  1  0  0  0  0
 11 15  1  0  0  0  0
 11 16  1  0  0  0  0
 42 44  1  0  0  0  0
 42 45  1  0  0  0  0
 42 46  1  0  0  0  0
 21 27  1  0  0  0  0
 21 28  1  0  0  0  0
 32 37  1  0  0  0  0
  8 13  1  0  0  0  0
 18 26  1  0  0  0  0
 24 29  1  0  0  0  0
 24 30  1  0  0  0  0
 41 43  1  0  0  0  0
  7 12  1  0  0  0  0
 31 36  1  0  0  0  0
 17 25  1  0  0  0  0
M  END
$$$$

  -OEChem-05262214473D

 46 45  0     1  0  0  0  0  0999 V2000
   -0.0543    1.9736    3.8406 C   0  0  0  0  0  0  0  0  0  0  0  0
    0.6744    1.6099    4.7562 O   0  0  0  0  0  0  0  0  0  0  0  0
   -0.5599    3.3779    3.8160 C   0  0  0  0  0  0  0  0  0  0  0  0
   -1.5202    3.4885    4.3450 H   0  0  0  0  0  0  0  0  0  0  0  0
    0.1282    4.0814    4.3116 H   0  0  0  0  0  0  0  0  0  0  0  0
   -0.7317    3.7994    2.8126 H   0  0  0  0  0  0  0  0  0  0  0  0
   -0.4812    1.1968    2.7762 N   0  0  0  0  0  0  0  0  0  0  0  0
   -0.1106   -0.1834    2.6051 C   0  0  2  0  0  0  0  0  0  0  0  0
   -0.0696   -0.4775    1.1113 C   0  0  0  0  0  0  0  0  0  0  0  0
   -0.6805    0.1900    0.2792 O   0  0  0  0  0  0  0  0  0  0  0  0
   -1.0852   -1.1101    3.3150 C   0  0  0  0  0  0  0  0  0  0  0  0
   -1.0883    1.6241    2.0791 H   0  0  0  0  0  0  0  0  0  0  0  0
    0.8937   -0.2959    3.0277 H   0  0  0  0  0  0  0  0  0  0  0  0
   -2.0970   -1.0114    2.9051 H   0  0  0  0  0  0  0  0  0  0  0  0
   -0.7860   -2.1580    3.2078 H   0  0  0  0  0  0  0  0  0  0  0  0
   -1.1357   -0.8775    4.3842 H   0  0  0  0  0  0  0  0  0  0  0  0
    0.6950   -1.6003    0.8178 N   0  0  0  0  0  0  0  0  0  0  0  0
    0.8777   -2.0908   -0.5246 C   0  0  2  0  0  0  0  0  0  0  0  0
    0.1038   -1.1699   -1.4596 C   0  0  0  0  0  0  0  0  0  0  0  0
   -0.6445   -1.5843   -2.3427 O   0  0  0  0  0  0  0  0  0  0  0  0
    0.3987   -3.5351   -0.6732 C   0  0  0  0  0  0  0  0  0  0  0  0
    1.2837   -4.5353    0.0496 C   0  0  0  0  0  0  0  0  0  0  0  0
    2.5104   -4.4934    0.0507 O   0  0  0  0  0  0  0  0  0  0  0  0
    0.5515   -5.4975    0.7123 N   0  0  0  0  0  0  0  0  0  0  0  0
    1.1810   -2.0803    1.5718 H   0  0  0  0  0  0  0  0  0  0  0  0
    1.9479   -2.0049   -0.7457 H   0  0  0  0  0  0  0  0  0  0  0  0
   -0.6128   -3.6439   -0.2618 H   0  0  0  0  0  0  0  0  0  0  0  0
    0.3484   -3.8168   -1.7328 H   0  0  0  0  0  0  0  0  0  0  0  0
   -0.4627   -5.4909    0.6867 H   0  0  0  0  0  0  0  0  0  0  0  0
    0.9898   -6.2418    1.2455 H   0  0  0  0  0  0  0  0  0  0  0  0
    0.3064    0.1703   -1.1619 N   0  0  0  0  0  0  0  0  0  0  0  0
   -0.3458    1.2258   -1.8994 C   0  0  2  0  0  0  0  0  0  0  0  0
   -1.8501    1.0100   -1.7982 C   0  0  0  0  0  0  0  0  0  0  0  0
   -2.3557   -0.0818   -1.5469 O   0  0  0  0  0  0  0  0  0  0  0  0
    0.1040    1.2454   -3.3520 C   0  0  0  0  0  0  0  0  0  0  0  0
    0.9247    0.4289   -0.3986 H   0  0  0  0  0  0  0  0  0  0  0  0
   -0.0775    2.1674   -1.4081 H   0  0  0  0  0  0  0  0  0  0  0  0
   -0.1563    0.3101   -3.8607 H   0  0  0  0  0  0  0  0  0  0  0  0
   -0.3700    2.0644   -3.9030 H   0  0  0  0  0  0  0  0  0  0  0  0
    1.1899    1.3708   -3.4220 H   0  0  0  0  0  0  0  0  0  0  0  0
   -2.5628    2.1708   -2.0641 N   0  0  0  0  0  0  0  0  0  0  0  0
   -4.0061    2.2215   -2.0436 C   0  0  0  0  0  0  0  0  0  0  0  0
   -2.0607    3.0352   -2.2445 H   0  0  0  0  0  0  0  0  0  0  0  0
   -4.3945    2.0346   -3.0556 H   0  0  0  0  0  0  0  0  0  0  0  0
   -4.3900    1.4536   -1.3559 H   0  0  0  0  0  0  0  0  0  0  0  0
   -4.3331    3.2151   -1.7032 H   0  0  0  0  0  0  0  0  0  0  0  0
  1  3  1  0  0  0  0
  1  7  1  0  0  0  0
  1  2  2  0  0  0  0
 21 22  1  0  0  0  0
 22 24  1  0  0  0  0
 22 23  2  0  0  0  0
 32 33  1  0  0  0  0
 33 41  1  0  0  0  0
 33 34  2  0  0  0  0
  8  9  1  0  0  0  0
  9 17  1  0  0  0  0
  9 10  2  0  0  0  0
 18 19  1  0  0  0  0
 19 31  1  0  0  0  0
 19 20  2  0  0  0  0
 32 35  1  0  0  0  0
  8 11  1  0  0  0  0
 41 42  1  0  0  0  0
 18 21  1  0  0  0  0
 31 32  1  0  0  0  0
  7  8  1  0  0  0  0
 17 18  1  0  0  0  0
  3  4  1  0  0  0  0
  3  5  1  0  0  0  0
  3  6  1  0  0  0  0
 35 38  1  0  0  0  0
 35 39  1  0  0  0  0
 35 40  1  0  0  0  0
 11 14  1  0  0  0  0
 11 15  1  0  0  0  0
 11 16  1  0  0  0  0
 42 44  1  0  0  0  0
 42 45  1  0  0  0  0
 42 46  1  0  0  0  0
 21 27  1  0  0  0  0
 21 28  1  0  0  0  0
 32 37  1  0  0  0  0
  8 13  1  0  0  0  0
 18 26  1  0  0  0  0
 24 29  1  0  0  0  0
 24 30  1  0  0  0  0
 41 43  1  0  0  0  0
  7 12  1  0  0  0  0
 31 36  1  0  0  0  0
 17 25  1  0  0  0  0
M  END
$$$$

  -OEChem-05262214473D

 46 45  0     1  0  0  0  0  0999 V2000
   -0.0543    1.9736    3.8406 C   0  0  0  0  0  0  0  0  0  0  0  0
    0.6744    1.6099    4.7562 O   0  0  0  0  0  0  0  0  0  0  0  0
   -0.5599    3.3779    3.8160 C   0  0  0  0  0  0  0  0  0  0  0  0
   -1.5202    3.4885    4.3450 H   0  0  0  0  0  0  0  0  0  0  0  0
    0.1282    4.0814    4.3116 H   0  0  0  0  0  0  0  0  0  0  0  0
   -0.7317    3.7994    2.8126 H   0  0  0  0  0  0  0  0  0  0  0  0
   -0.4812    1.1968    2.7762 N   0  0  0  0  0  0  0  0  0  0  0  0
   -0.1106   -0.1834    2.6051 C   0  0  2  0  0  0  0  0  0  0  0  0
   -0.0696   -0.4775    1.1113 C   0  0  0  0  0  0  0  0  0  0  0  0
   -0.6805    0.1900    0.2792 O   0  0  0  0  0  0  0  0  0  0  0  0
   -1.0852   -1.1101    3.3150 C   0  0  0  0  0  0  0  0  0  0  0  0
   -1.0883    1.6241    2.0791 H   0  0  0  0  0  0  0  0  0  0  0  0
    0.8937   -0.2959    3.0277 H   0  0  0  0  0  0  0  0  0  0  0  0
   -2.0970   -1.0114    2.9051 H   0  0  0  0  0  0  0  0  0  0  0  0
   -0.7860   -2.1580    3.2078 H   0  0  0  0  0  0  0  0  0  0  0  0
   -1.1357   -0.8775    4.3842 H   0  0  0  0  0  0  0  0  0  0  0  0
    0.6950   -1.6003    0.8178 N   0  0  0  0  0  0  0  0  0  0  0  0
    0.8777   -2.0908   -0.5246 C   0  0  2  0  0  0  0  0  0  0  0  0
    0.1038   -1.1699   -1.4596 C   0  0  0  0  0  0  0  0  0  0  0  0
   -0.8346   -1.5535   -2.1551 O   0  0  0  0  0  0  0  0  0  0  0  0
    0.3987   -3.5351   -0.6732 C   0  0  0  0  0  0  0  0  0  0  0  0
    1.2837   -4.5353    0.0496 C   0  0  0  0  0  0  0  0  0  0  0  0
    2.5104   -4.4934    0.0507 O   0  0  0  0  0  0  0  0  0  0  0  0
    0.5515   -5.4975    0.7123 N   0  0  0  0  0  0  0  0  0  0  0  0
    1.1810   -2.0803    1.5718 H   0  0  0  0  0  0  0  0  0  0  0  0
    1.9479   -2.0049   -0.7457 H   0  0  0  0  0  0  0  0  0  0  0  0
   -0.6128   -3.6439   -0.2618 H   0  0  0  0  0  0  0  0  0  0  0  0
    0.3484   -3.8168   -1.7328 H   0  0  0  0  0  0  0  0  0  0  0  0
   -0.4627   -5.4909    0.6867 H   0  0  0  0  0  0  0  0  0  0  0  0
    0.9898   -6.2418    1.2455 H   0  0  0  0  0  0  0  0  0  0  0  0
    0.5498    0.1424   -1.3909 N   0  0  0  0  0  0  0  0  0  0  0  0
   -0.0524    1.1978   -2.1697 C   0  0  2  0  0  0  0  0  0  0  0  0
   -1.5337    1.2535   -1.8202 C   0  0  0  0  0  0  0  0  0  0  0  0
   -2.1467    0.3007   -1.3432 O   0  0  0  0  0  0  0  0  0  0  0  0
    0.1462    0.9683   -3.6598 C   0  0  0  0  0  0  0  0  0  0  0  0
    1.3184    0.3814   -0.7713 H   0  0  0  0  0  0  0  0  0  0  0  0
    0.4309    2.1320   -1.8636 H   0  0  0  0  0  0  0  0  0  0  0  0
   -0.3313    0.0368   -3.9851 H   0  0  0  0  0  0  0  0  0  0  0  0
   -0.2863    1.7843   -4.2481 H   0  0  0  0  0  0  0  0  0  0  0  0
    1.2116    0.8988   -3.9048 H   0  0  0  0  0  0  0  0  0  0  0  0
   -2.1006    2.4783   -2.1438 N   0  0  0  0  0  0  0  0  0  0  0  0
   -3.4965    2.7746   -1.9206 C   0  0  0  0  0  0  0  0  0  0  0  0
   -1.5131    3.2175   -2.5182 H   0  0  0  0  0  0  0  0  0  0  0  0
   -4.0719    2.5372   -2.8275 H   0  0  0  0  0  0  0  0  0  0  0  0
   -3.8698    2.1700   -1.0809 H   0  0  0  0  0  0  0  0  0  0  0  0
   -3.6110    3.8425   -1.6829 H   0  0  0  0  0  0  0  0  0  0  0  0
  1  3  1  0  0  0  0
  1  7  1  0  0  0  0
  1  2  2  0  0  0  0
 21 22  1  0  0  0  0
 22 24  1  0  0  0  0
 22 23  2  0  0  0  0
 32 33  1  0  0  0  0
 33 41  1  0  0  0  0
 33 34  2  0  0  0  0
  8  9  1  0  0  0  0
  9 17  1  0  0  0  0
  9 10  2  0  0  0  0
 18 19  1  0  0  0  0
 19 31  1  0  0  0  0
 19 20  2  0  0  0  0
 32 35  1  0  0  0  0
  8 11  1  0  0  0  0
 41 42  1  0  0  0  0
 18 21  1  0  0  0  0
 31 32  1  0  0  0  0
  7  8  1  0  0  0  0
 17 18  1  0  0  0  0
  3  4  1  0  0  0  0
  3  5  1  0  0  0  0
  3  6  1  0  0  0  0
 35 38  1  0  0  0  0
 35 39  1  0  0  0  0
 35 40  1  0  0  0  0
 11 14  1  0  0  0  0
 11 15  1  0  0  0  0
 11 16  1  0  0  0  0
 42 44  1  0  0  0  0
 42 45  1  0  0  0  0
 42 46  1  0  0  0  0
 21 27  1  0  0  0  0
 21 28  1  0  0  0  0
 32 37  1  0  0  0  0
  8 13  1  0  0  0  0
 18 26  1  0  0  0  0
 24 29  1  0  0  0  0
 24 30  1  0  0  0  0
 41 43  1  0  0  0  0
  7 12  1  0  0  0  0
 31 36  1  0  0  0  0
 17 25  1  0  0  0  0
M  END
$$$$

  -OEChem-05262214473D

 46 45  0     1  0  0  0  0  0999 V2000
   -0.0543    1.9736    3.8406 C   0  0  0  0  0  0  0  0  0  0  0  0
    0.6744    1.6099    4.7562 O   0  0  0  0  0  0  0  0  0  0  0  0
   -0.5599    3.3779    3.8160 C   0  0  0  0  0  0  0  0  0  0  0  0
   -1.5202    3.4885    4.3450 H   0  0  0  0  0  0  0  0  0  0  0  0
    0.1282    4.0814    4.3116 H   0  0  0  0  0  0  0  0  0  0  0  0
   -0.7317    3.7994    2.8126 H   0  0  0  0  0  0  0  0  0  0  0  0
   -0.4812    1.1968    2.7762 N   0  0  0  0  0  0  0  0  0  0  0  0
   -0.1106   -0.1834    2.6051 C   0  0  2  0  0  0  0  0  0  0  0  0
   -0.0696   -0.4775    1.1113 C   0  0  0  0  0  0  0  0  0  0  0  0
   -0.6805    0.1900    0.2792 O   0  0  0  0  0  0  0  0  0  0  0  0
   -1.0852   -1.1101    3.3150 C   0  0  0  0  0  0  0  0  0  0  0  0
   -1.0883    1.6241    2.0791 H   0  0  0  0  0  0  0  0  0  0  0  0
    0.8937   -0.2959    3.0277 H   0  0  0  0  0  0  0  0  0  0  0  0
   -2.0970   -1.0114    2.9051 H   0  0  0  0  0  0  0  0  0  0  0  0
   -0.7860   -2.1580    3.2078 H   0  0  0  0  0  0  0  0  0  0  0  0
   -1.1357   -0.8775    4.3842 H   0  0  0  0  0  0  0  0  0  0  0  0
    0.6950   -1.6003    0.8178 N   0  0  0  0  0  0  0  0  0  0  0  0
    0.8777   -2.0908   -0.5246 C   0  0  2  0  0  0  0  0  0  0  0  0
    0.1038   -1.1699   -1.4596 C   0  0  0  0  0  0  0  0  0  0  0  0
   -0.9840   -1.4690   -1.9482 O   0  0  0  0  0  0  0  0  0  0  0  0
    0.3987   -3.5351   -0.6732 C   0  0  0  0  0  0  0  0  0  0  0  0
    1.2837   -4.5353    0.0496 C   0  0  0  0  0  0  0  0  0  0  0  0
    2.5104   -4.4934    0.0507 O   0  0  0  0  0  0  0  0  0  0  0  0
    0.5515   -5.4975    0.7123 N   0  0  0  0  0  0  0  0  0  0  0  0
    1.1810   -2.0803    1.5718 H   0  0  0  0  0  0  0  0  0  0  0  0
    1.9479   -2.0049   -0.7457 H   0  0  0  0  0  0  0  0  0  0  0  0
   -0.6128   -3.6439   -0.2618 H   0  0  0  0  0  0  0  0  0  0  0  0
    0.3484   -3.8168   -1.7328 H   0  0  0  0  0  0  0  0  0  0  0  0
   -0.4627   -5.4909    0.6867 H   0  0  0  0  0  0  0  0  0  0  0  0
    0.9898   -6.2418    1.2455 H   0  0  0  0  0  0  0  0  0  0  0  0
    0.7448    0.0467   -1.6465 N   0  0  0  0  0  0  0  0  0  0  0  0
    0.1842    1.0887   -2.4730 C   0  0  2  0  0  0  0  0  0  0  0  0
   -1.1930    1.4355   -1.9230 C   0  0  0  0  0  0  0  0  0  0  0  0
   -1.8521    0.6638   -1.2294 O   0  0  0  0  0  0  0  0  0  0  0  0
    0.0949    0.6535   -3.9274 C   0  0  0  0  0  0  0  0  0  0  0  0
    1.6329    0.2240   -1.1865 H   0  0  0  0  0  0  0  0  0  0  0  0
    0.8452    1.9572   -2.3786 H   0  0  0  0  0  0  0  0  0  0  0  0
   -0.5631   -0.2157   -4.0419 H   0  0  0  0  0  0  0  0  0  0  0  0
   -0.3039    1.4552   -4.5577 H   0  0  0  0  0  0  0  0  0  0  0  0
    1.0821    0.3760   -4.3125 H   0  0  0  0  0  0  0  0  0  0  0  0
   -1.6179    2.6913   -2.3336 N   0  0  0  0  0  0  0  0  0  0  0  0
   -2.8971    3.2441   -1.9542 C   0  0  0  0  0  0  0  0  0  0  0  0
   -0.9981    3.2706   -2.8922 H   0  0  0  0  0  0  0  0  0  0  0  0
   -3.6447    3.0015   -2.7238 H   0  0  0  0  0  0  0  0  0  0  0  0
   -3.2104    2.8156   -0.9908 H   0  0  0  0  0  0  0  0  0  0  0  0
   -2.8105    4.3366   -1.8588 H   0  0  0  0  0  0  0  0  0  0  0  0
  1  3  1  0  0  0  0
  1  7  1  0  0  0  0
  1  2  2  0  0  0  0
 21 22  1  0  0  0  0
 22 24  1  0  0  0  0
 22 23  2  0  0  0  0
 32 33  1  0  0  0  0
 33 41  1  0  0  0  0
 33 34  2  0  0  0  0
  8  9  1  0  0  0  0
  9 17  1  0  0  0  0
  9 10  2  0  0  0  0
 18 19  1  0  0  0  0
 19 31  1  0  0  0  0
 19 20  2  0  0  0  0
 32 35  1  0  0  0  0
  8 11  1  0  0  0  0
 41 42  1  0  0  0  0
 18 21  1  0  0  0  0
 31 32  1  0  0  0  0
  7  8  1  0  0  0  0
 17 18  1  0  0  0  0
  3  4  1  0  0  0  0
  3  5  1  0  0  0  0
  3  6  1  0  0  0  0
 35 38  1  0  0  0  0
 35 39  1  0  0  0  0
 35 40  1  0  0  0  0
 11 14  1  0  0  0  0
 11 15  1  0  0  0  0
 11 16  1  0  0  0  0
 42 44  1  0  0  0  0
 42 45  1  0  0  0  0
 42 46  1  0  0  0  0
 21 27  1  0  0  0  0
 21 28  1  0  0  0  0
 32 37  1  0  0  0  0
  8 13  1  0  0  0  0
 18 26  1  0  0  0  0
 24 29  1  0  0  0  0
 24 30  1  0  0  0  0
 41 43  1  0  0  0  0
  7 12  1  0  0  0  0
 31 36  1  0  0  0  0
 17 25  1  0  0  0  0
M  END
$$$$

  -OEChem-05262214473D

 46 45  0     1  0  0  0  0  0999 V2000
   -0.0543    1.9736    3.8406 C   0  0  0  0  0  0  0  0  0  0  0  0
    0.6744    1.6099    4.7562 O   0  0  0  0  0  0  0  0  0  0  0  0
   -0.5599    3.3779    3.8160 C   0  0  0  0  0  0  0  0  0  0  0  0
   -1.5202    3.4885    4.3450 H   0  0  0  0  0  0  0  0  0  0  0  0
    0.1282    4.0814    4.3116 H   0  0  0  0  0  0  0  0  0  0  0  0
   -0.7317    3.7994    2.8126 H   0  0  0  0  0  0  0  0  0  0  0  0
   -0.4812    1.1968    2.7762 N   0  0  0  0  0  0  0  0  0  0  0  0
   -0.1106   -0.1834    2.6051 C   0  0  2  0  0  0  0  0  0  0  0  0
   -0.0696   -0.4775    1.1113 C   0  0  0  0  0  0  0  0  0  0  0  0
   -0.6805    0.1900    0.2792 O   0  0  0  0  0  0  0  0  0  0  0  0
   -1.0852   -1.1101    3.3150 C   0  0  0  0  0  0  0  0  0  0  0  0
   -1.0883    1.6241    2.0791 H   0  0  0  0  0  0  0  0  0  0  0  0
    0.8937   -0.2959    3.0277 H   0  0  0  0  0  0  0  0  0  0  0  0
   -2.0970   -1.0114    2.9051 H   0  0  0  0  0  0  0  0  0  0  0  0
   -0.7860   -2.1580    3.2078 H   0  0  0  0  0  0  0  0  0  0  0  0
   -1.1357   -0.8775    4.3842 H   0  0  0  0  0  0  0  0  0  0  0  0
    0.6950   -1.6003    0.8178 N   0  0  0  0  0  0  0  0  0  0  0  0
    0.8777   -2.0908   -0.5246 C   0  0  2  0  0  0  0  0  0  0  0  0
    0.1038   -1.1699   -1.4596 C   0  0  0  0  0  0  0  0  0  0  0  0
   -1.0825   -1.3364   -1.7362 O   0  0  0  0  0  0  0  0  0  0  0  0
    0.3987   -3.5351   -0.6732 C   0  0  0  0  0  0  0  0  0  0  0  0
    1.2837   -4.5353    0.0496 C   0  0  0  0  0  0  0  0  0  0  0  0
    2.5104   -4.4934    0.0507 O   0  0  0  0  0  0  0  0  0  0  0  0
    0.5515   -5.4975    0.7123 N   0  0  0  0  0  0  0  0  0  0  0  0
    1.1810   -2.0803    1.5718 H   0  0  0  0  0  0  0  0  0  0  0  0
    1.9479   -2.0049   -0.7457 H   0  0  0  0  0  0  0  0  0  0  0  0
   -0.6128   -3.6439   -0.2618 H   0  0  0  0  0  0  0  0  0  0  0  0
    0.3484   -3.8168   -1.7328 H   0  0  0  0  0  0  0  0  0  0  0  0
   -0.4627   -5.4909    0.6867 H   0  0  0  0  0  0  0  0  0  0  0  0
    0.9898   -6.2418    1.2455 H   0  0  0  0  0  0  0  0  0  0  0  0
    0.8779   -0.1104   -1.9113 N   0  0  0  0  0  0  0  0  0  0  0  0
    0.3481    0.9058   -2.7887 C   0  0  2  0  0  0  0  0  0  0  0  0
   -0.8510    1.5436   -2.0995 C   0  0  0  0  0  0  0  0  0  0  0  0
   -1.4921    0.9826   -1.2133 O   0  0  0  0  0  0  0  0  0  0  0  0
   -0.0466    0.3223   -4.1365 C   0  0  0  0  0  0  0  0  0  0  0  0
    1.8467   -0.0326   -1.6162 H   0  0  0  0  0  0  0  0  0  0  0  0
    1.1369    1.6549   -2.9178 H   0  0  0  0  0  0  0  0  0  0  0  0
   -0.8360   -0.4302   -4.0273 H   0  0  0  0  0  0  0  0  0  0  0  0
   -0.4216    1.0993   -4.8107 H   0  0  0  0  0  0  0  0  0  0  0  0
    0.8101   -0.1621   -4.6174 H   0  0  0  0  0  0  0  0  0  0  0  0
   -1.1474    2.7955   -2.6204 N   0  0  0  0  0  0  0  0  0  0  0  0
   -2.2489    3.5980   -2.1422 C   0  0  0  0  0  0  0  0  0  0  0  0
   -0.5506    3.1909   -3.3410 H   0  0  0  0  0  0  0  0  0  0  0  0
   -3.1421    3.3958   -2.7515 H   0  0  0  0  0  0  0  0  0  0  0  0
   -2.4569    3.3462   -1.0918 H   0  0  0  0  0  0  0  0  0  0  0  0
   -1.9864    4.6635   -2.2189 H   0  0  0  0  0  0  0  0  0  0  0  0
  1  3  1  0  0  0  0
  1  7  1  0  0  0  0
  1  2  2  0  0  0  0
 21 22  1  0  0  0  0
 22 24  1  0  0  0  0
 22 23  2  0  0  0  0
 32 33  1  0  0  0  0
 33 41  1  0  0  0  0
 33 34  2  0  0  0  0
  8  9  1  0  0  0  0
  9 17  1  0  0  0  0
  9 10  2  0  0  0  0
 18 19  1  0  0  0  0
 19 31  1  0  0  0  0
 19 20  2  0  0  0  0
 32 35  1  0  0  0  0
  8 11  1  0  0  0  0
 41 42  1  0  0  0  0
 18 21  1  0  0  0  0
 31 32  1  0  0  0  0
  7  8  1  0  0  0  0
 17 18  1  0  0  0  0
  3  4  1  0  0  0  0
  3  5  1  0  0  0  0
  3  6  1  0  0  0  0
 35 38  1  0  0  0  0
 35 39  1  0  0  0  0
 35 40  1  0  0  0  0
 11 14  1  0  0  0  0
 11 15  1  0  0  0  0
 11 16  1  0  0  0  0
 42 44  1  0  0  0  0
 42 45  1  0  0  0  0
 42 46  1  0  0  0  0
 21 27  1  0  0  0  0
 21 28  1  0  0  0  0
 32 37  1  0  0  0  0
  8 13  1  0  0  0  0
 18 26  1  0  0  0  0
 24 29  1  0  0  0  0
 24 30  1  0  0  0  0
 41 43  1  0  0  0  0
  7 12  1  0  0  0  0
 31 36  1  0  0  0  0
 17 25  1  0  0  0  0
M  END
$$$$

  -OEChem-05262214473D

 46 45  0     1  0  0  0  0  0999 V2000
   -0.0543    1.9736    3.8406 C   0  0  0  0  0  0  0  0  0  0  0  0
    0.6744    1.6099    4.7562 O   0  0  0  0  0  0  0  0  0  0  0  0
   -0.5599    3.3779    3.8160 C   0  0  0  0  0  0  0  0  0  0  0  0
   -1.5202    3.4885    4.3450 H   0  0  0  0  0  0  0  0  0  0  0  0
    0.1282    4.0814    4.3116 H   0  0  0  0  0  0  0  0  0  0  0  0
   -0.7317    3.7994    2.8126 H   0  0  0  0  0  0  0  0  0  0  0  0
   -0.4812    1.1968    2.7762 N   0  0  0  0  0  0  0  0  0  0  0  0
   -0.1106   -0.1834    2.6051 C   0  0  2  0  0  0  0  0  0  0  0  0
   -0.0696   -0.4775    1.1113 C   0  0  0  0  0  0  0  0  0  0  0  0
   -0.6805    0.1900    0.2792 O   0  0  0  0  0  0  0  0  0  0  0  0
   -1.0852   -1.1101    3.3150 C   0  0  0  0  0  0  0  0  0  0  0  0
   -1.0883    1.6241    2.0791 H   0  0  0  0  0  0  0  0  0  0  0  0
    0.8937   -0.2959    3.0277 H   0  0  0  0  0  0  0  0  0  0  0  0
   -2.0970   -1.0114    2.9051 H   0  0  0  0  0  0  0  0  0  0  0  0
   -0.7860   -2.1580    3.2078 H   0  0  0  0  0  0  0  0  0  0  0  0
   -1.1357   -0.8775    4.3842 H   0  0  0  0  0  0  0  0  0  0  0  0
    0.6950   -1.6003    0.8178 N   0  0  0  0  0  0  0  0  0  0  0  0
    0.8777   -2.0908   -0.5246 C   0  0  2  0  0  0  0  0  0  0  0  0
    0.1038   -1.1699   -1.4596 C   0  0  0  0  0  0  0  0  0  0  0  0
   -1.1234   -1.1648   -1.5333 O   0  0  0  0  0  0  0  0  0  0  0  0
    0.3987   -3.5351   -0.6732 C   0  0  0  0  0  0  0  0  0  0  0  0
    1.2837   -4.5353    0.0496 C   0  0  0  0  0  0  0  0  0  0  0  0
    2.5104   -4.4934    0.0507 O   0  0  0  0  0  0  0  0  0  0  0  0
    0.5515   -5.4975    0.7123 N   0  0  0  0  0  0  0  0  0  0  0  0
    1.1810   -2.0803    1.5718 H   0  0  0  0  0  0  0  0  0  0  0  0
    1.9479   -2.0049   -0.7457 H   0  0  0  0  0  0  0  0  0  0  0  0
   -0.6128   -3.6439   -0.2618 H   0  0  0  0  0  0  0  0  0  0  0  0
    0.3484   -3.8168   -1.7328 H   0  0  0  0  0  0  0  0  0  0  0  0
   -0.4627   -5.4909    0.6867 H   0  0  0  0  0  0  0  0  0  0  0  0
    0.9898   -6.2418    1.2455 H   0  0  0  0  0  0  0  0  0  0  0  0
    0.9401   -0.3180   -2.1673 N   0  0  0  0  0  0  0  0  0  0  0  0
    0.4279    0.6617   -3.0952 C   0  0  2  0  0  0  0  0  0  0  0  0
   -0.5311    1.5706   -2.3377 C   0  0  0  0  0  0  0  0  0  0  0  0
   -1.0912    1.2355   -1.2961 O   0  0  0  0  0  0  0  0  0  0  0  0
   -0.2685   -0.0025   -4.2727 C   0  0  0  0  0  0  0  0  0  0  0  0
    1.9453   -0.3709   -2.0309 H   0  0  0  0  0  0  0  0  0  0  0  0
    1.2864    1.2456   -3.4445 H   0  0  0  0  0  0  0  0  0  0  0  0
   -1.1314   -0.5922   -3.9423 H   0  0  0  0  0  0  0  0  0  0  0  0
   -0.6314    0.7410   -4.9899 H   0  0  0  0  0  0  0  0  0  0  0  0
    0.4143   -0.6786   -4.7985 H   0  0  0  0  0  0  0  0  0  0  0  0
   -0.7212    2.7836   -2.9847 N   0  0  0  0  0  0  0  0  0  0  0  0
   -1.5959    3.8121   -2.4717 C   0  0  0  0  0  0  0  0  0  0  0  0
   -0.2012    2.9839   -3.8340 H   0  0  0  0  0  0  0  0  0  0  0  0
   -2.5984    3.6931   -2.9087 H   0  0  0  0  0  0  0  0  0  0  0  0
   -1.6606    3.7258   -1.3770 H   0  0  0  0  0  0  0  0  0  0  0  0
   -1.1948    4.8010   -2.7386 H   0  0  0  0  0  0  0  0  0  0  0  0
  1  3  1  0  0  0  0
  1  7  1  0  0  0  0
  1  2  2  0  0  0  0
 21 22  1  0  0  0  0
 22 24  1  0  0  0  0
 22 23  2  0  0  0  0
 32 33  1  0  0  0  0
 33 41  1  0  0  0  0
 33 34  2  0  0  0  0
  8  9  1  0  0  0  0
  9 17  1  0  0  0  0
  9 10  2  0  0  0  0
 18 19  1  0  0  0  0
 19 31  1  0  0  0  0
 19 20  2  0  0  0  0
 32 35  1  0  0  0  0
  8 11  1  0  0  0  0
 41 42  1  0  0  0  0
 18 21  1  0  0  0  0
 31 32  1  0  0  0  0
  7  8  1  0  0  0  0
 17 18  1  0  0  0  0
  3  4  1  0  0  0  0
  3  5  1  0  0  0  0
  3  6  1  0  0  0  0
 35 38  1  0  0  0  0
 35 39  1  0  0  0  0
 35 40  1  0  0  0  0
 11 14  1  0  0  0  0
 11 15  1  0  0  0  0
 11 16  1  0  0  0  0
 42 44  1  0  0  0  0
 42 45  1  0  0  0  0
 42 46  1  0  0  0  0
 21 27  1  0  0  0  0
 21 28  1  0  0  0  0
 32 37  1  0  0  0  0
  8 13  1  0  0  0  0
 18 26  1  0  0  0  0
 24 29  1  0  0  0  0
 24 30  1  0  0  0  0
 41 43  1  0  0  0  0
  7 12  1  0  0  0  0
 31 36  1  0  0  0  0
 17 25  1  0  0  0  0
M  END
$$$$

  -OEChem-05262214473D

 46 45  0     1  0  0  0  0  0999 V2000
   -0.0543    1.9736    3.8406 C   0  0  0  0  0  0  0  0  0  0  0  0
    0.6744    1.6099    4.7562 O   0  0  0  0  0  0  0  0  0  0  0  0
   -0.5599    3.3779    3.8160 C   0  0  0  0  0  0  0  0  0  0  0  0
   -1.5202    3.4885    4.3450 H   0  0  0  0  0  0  0  0  0  0  0  0
    0.1282    4.0814    4.3116 H   0  0  0  0  0  0  0  0  0  0  0  0
   -0.7317    3.7994    2.8126 H   0  0  0  0  0  0  0  0  0  0  0  0
   -0.4812    1.1968    2.7762 N   0  0  0  0  0  0  0  0  0  0  0  0
   -0.1106   -0.1834    2.6051 C   0  0  2  0  0  0  0  0  0  0  0  0
   -0.0696   -0.4775    1.1113 C   0  0  0  0  0  0  0  0  0  0  0  0
   -0.6805    0.1900    0.2792 O   0  0  0  0  0  0  0  0  0  0  0  0
   -1.0852   -1.1101    3.3150 C   0  0  0  0  0  0  0  0  0  0  0  0
   -1.0883    1.6241    2.0791 H   0  0  0  0  0  0  0  0  0  0  0  0
    0.8937   -0.2959    3.0277 H   0  0  0  0  0  0  0  0  0  0  0  0
   -2.0970   -1.0114    2.9051 H   0  0  0  0  0  0  0  0  0  0  0  0
   -0.7860   -2.1580    3.2078 H   0  0  0  0  0  0  0  0  0  0  0  0
   -1.1357   -0.8775    4.3842 H   0  0  0  0  0  0  0  0  0  0  0  0
    0.6950   -1.6003    0.8178 N   0  0  0  0  0  0  0  0  0  0  0  0
    0.8777   -2.0908   -0.5246 C   0  0  2  0  0  0  0  0  0  0  0  0
    0.1038   -1.1699   -1.4596 C   0  0  0  0  0  0  0  0  0  0  0  0
   -1.1039   -0.9659   -1.3535 O   0  0  0  0  0  0  0  0  0  0  0  0
    0.3987   -3.5351   -0.6732 C   0  0  0  0  0  0  0  0  0  0  0  0
    1.2837   -4.5353    0.0496 C   0  0  0  0  0  0  0  0  0  0  0  0
    2.5104   -4.4934    0.0507 O   0  0  0  0  0  0  0  0  0  0  0  0
    0.5515   -5.4975    0.7123 N   0  0  0  0  0  0  0  0  0  0  0  0
    1.1810   -2.0803    1.5718 H   0  0  0  0  0  0  0  0  0  0  0  0
    1.9479   -2.0049   -0.7457 H   0  0  0  0  0  0  0  0  0  0  0  0
   -0.6128   -3.6439   -0.2618 H   0  0  0  0  0  0  0  0  0  0  0  0
    0.3484   -3.8168   -1.7328 H   0  0  0  0  0  0  0  0  0  0  0  0
   -0.4627   -5.4909    0.6867 H   0  0  0  0  0  0  0  0  0  0  0  0
    0.9898   -6.2418    1.2455 H   0  0  0  0  0  0  0  0  0  0  0  0
    0.9271   -0.5621   -2.3970 N   0  0  0  0  0  0  0  0  0  0  0  0
    0.4182    0.3729   -3.3717 C   0  0  2  0  0  0  0  0  0  0  0  0
   -0.2551    1.5145   -2.6214 C   0  0  0  0  0  0  0  0  0  0  0  0
   -0.6767    1.4053   -1.4719 O   0  0  0  0  0  0  0  0  0  0  0  0
   -0.5558   -0.2990   -4.3269 C   0  0  0  0  0  0  0  0  0  0  0  0
    1.9218   -0.7678   -2.4024 H   0  0  0  0  0  0  0  0  0  0  0  0
    1.2833    0.7573   -3.9229 H   0  0  0  0  0  0  0  0  0  0  0  0
   -1.4292   -0.6905   -3.7927 H   0  0  0  0  0  0  0  0  0  0  0  0
   -0.9191    0.4047   -5.0831 H   0  0  0  0  0  0  0  0  0  0  0  0
   -0.0784   -1.1386   -4.8437 H   0  0  0  0  0  0  0  0  0  0  0  0
   -0.3685    2.6566   -3.4017 N   0  0  0  0  0  0  0  0  0  0  0  0
   -0.9827    3.8719   -2.9203 C   0  0  0  0  0  0  0  0  0  0  0  0
    0.0262    2.6635   -4.3376 H   0  0  0  0  0  0  0  0  0  0  0  0
   -2.0505    3.8733   -3.1846 H   0  0  0  0  0  0  0  0  0  0  0  0
   -0.8757    3.9285   -1.8270 H   0  0  0  0  0  0  0  0  0  0  0  0
   -0.4896    4.7398   -3.3825 H   0  0  0  0  0  0  0  0  0  0  0  0
  1  3  1  0  0  0  0
  1  7  1  0  0  0  0
  1  2  2  0  0  0  0
 21 22  1  0  0  0  0
 22 24  1  0  0  0  0
 22 23  2  0  0  0  0
 32 33  1  0  0  0  0
 33 41  1  0  0  0  0
 33 34  2  0  0  0  0
  8  9  1  0  0  0  0
  9 17  1  0  0  0  0
  9 10  2  0  0  0  0
 18 19  1  0  0  0  0
 19 31  1  0  0  0  0
 19 20  2  0  0  0  0
 32 35  1  0  0  0  0
  8 11  1  0  0  0  0
 41 42  1  0  0  0  0
 18 21  1  0  0  0  0
 31 32  1  0  0  0  0
  7  8  1  0  0  0  0
 17 18  1  0  0  0  0
  3  4  1  0  0  0  0
  3  5  1  0  0  0  0
  3  6  1  0  0  0  0
 35 38  1  0  0  0  0
 35 39  1  0  0  0  0
 35 40  1  0  0  0  0
 11 14  1  0  0  0  0
 11 15  1  0  0  0  0
 11 16  1  0  0  0  0
 42 44  1  0  0  0  0
 42 45  1  0  0  0  0
 42 46  1  0  0  0  0
 21 27  1  0  0  0  0
 21 28  1  0  0  0  0
 32 37  1  0  0  0  0
  8 13  1  0  0  0  0
 18 26  1  0  0  0  0
 24 29  1  0  0  0  0
 24 30  1  0  0  0  0
 41 43  1  0  0  0  0
  7 12  1  0  0  0  0
 31 36  1  0  0  0  0
 17 25  1  0  0  0  0
M  END
$$$$

  -OEChem-05262214473D

 46 45  0     1  0  0  0  0  0999 V2000
   -0.0543    1.9736    3.8406 C   0  0  0  0  0  0  0  0  0  0  0  0
    0.6744    1.6099    4.7562 O   0  0  0  0  0  0  0  0  0  0  0  0
   -0.5599    3.3779    3.8160 C   0  0  0  0  0  0  0  0  0  0  0  0
   -1.5202    3.4885    4.3450 H   0  0  0  0  0  0  0  0  0  0  0  0
    0.1282    4.0814    4.3116 H   0  0  0  0  0  0  0  0  0  0  0  0
   -0.7317    3.7994    2.8126 H   0  0  0  0  0  0  0  0  0  0  0  0
   -0.4812    1.1968    2.7762 N   0  0  0  0  0  0  0  0  0  0  0  0
   -0.1106   -0.1834    2.6051 C   0  0  2  0  0  0  0  0  0  0  0  0
   -0.0696   -0.4775    1.1113 C   0  0  0  0  0  0  0  0  0  0  0  0
   -0.6805    0.1900    0.2792 O   0  0  0  0  0  0  0  0  0  0  0  0
   -1.0852   -1.1101    3.3150 C   0  0  0  0  0  0  0  0  0  0  0  0
   -1.0883    1.6241    2.0791 H   0  0  0  0  0  0  0  0  0  0  0  0
    0.8937   -0.2959    3.0277 H   0  0  0  0  0  0  0  0  0  0  0  0
   -2.0970   -1.0114    2.9051 H   0  0  0  0  0  0  0  0  0  0  0  0
   -0.7860   -2.1580    3.2078 H   0  0  0  0  0  0  0  0  0  0  0  0
   -1.1357   -0.8775    4.3842 H   0  0  0  0  0  0  0  0  0  0  0  0
    0.6950   -1.6003    0.8178 N   0  0  0  0  0  0  0  0  0  0  0  0
    0.8777   -2.0908   -0.5246 C   0  0  2  0  0  0  0  0  0  0  0  0
    0.1038   -1.1699   -1.4596 C   0  0  0  0  0  0  0  0  0  0  0  0
   -1.0254   -0.7532   -1.2091 O   0  0  0  0  0  0  0  0  0  0  0  0
    0.3987   -3.5351   -0.6732 C   0  0  0  0  0  0  0  0  0  0  0  0
    1.2837   -4.5353    0.0496 C   0  0  0  0  0  0  0  0  0  0  0  0
    2.5104   -4.4934    0.0507 O   0  0  0  0  0  0  0  0  0  0  0  0
    0.5515   -5.4975    0.7123 N   0  0  0  0  0  0  0  0  0  0  0  0
    1.1810   -2.0803    1.5718 H   0  0  0  0  0  0  0  0  0  0  0  0
    1.9479   -2.0049   -0.7457 H   0  0  0  0  0  0  0  0  0  0  0  0
   -0.6128   -3.6439   -0.2618 H   0  0  0  0  0  0  0  0  0  0  0  0
    0.3484   -3.8168   -1.7328 H   0  0  0  0  0  0  0  0  0  0  0  0
   -0.4627   -5.4909    0.6867 H   0  0  0  0  0  0  0  0  0  0  0  0
    0.9898   -6.2418    1.2455 H   0  0  0  0  0  0  0  0  0  0  0  0
    0.8399   -0.8260   -2.5847 N   0  0  0  0  0  0  0  0  0  0  0  0
    0.3198    0.0591   -3.5992 C   0  0  2  0  0  0  0  0  0  0  0  0
   -0.0417    1.3791   -2.9313 C   0  0  0  0  0  0  0  0  0  0  0  0
   -0.2769    1.4803   -1.7289 O   0  0  0  0  0  0  0  0  0  0  0  0
   -0.8889   -0.5468   -4.2953 C   0  0  0  0  0  0  0  0  0  0  0  0
    1.7781   -1.1963   -2.7054 H   0  0  0  0  0  0  0  0  0  0  0  0
    1.1280    0.2233   -4.3203 H   0  0  0  0  0  0  0  0  0  0  0  0
   -1.7091   -0.7186   -3.5887 H   0  0  0  0  0  0  0  0  0  0  0  0
   -1.2649    0.1133   -5.0839 H   0  0  0  0  0  0  0  0  0  0  0  0
   -0.6345   -1.5105   -4.7498 H   0  0  0  0  0  0  0  0  0  0  0  0
   -0.1132    2.4230   -3.8430 N   0  0  0  0  0  0  0  0  0  0  0  0
   -0.4511    3.7732   -3.4574 C   0  0  0  0  0  0  0  0  0  0  0  0
    0.1162    2.2518   -4.8176 H   0  0  0  0  0  0  0  0  0  0  0  0
   -1.5359    3.9240   -3.5606 H   0  0  0  0  0  0  0  0  0  0  0  0
   -0.1558    3.9404   -2.4111 H   0  0  0  0  0  0  0  0  0  0  0  0
    0.0811    4.4840   -4.1067 H   0  0  0  0  0  0  0  0  0  0  0  0
  1  3  1  0  0  0  0
  1  7  1  0  0  0  0
  1  2  2  0  0  0  0
 21 22  1  0  0  0  0
 22 24  1  0  0  0  0
 22 23  2  0  0  0  0
 32 33  1  0  0  0  0
 33 41  1  0  0  0  0
 33 34  2  0  0  0  0
  8  9  1  0  0  0  0
  9 17  1  0  0  0  0
  9 10  2  0  0  0  0
 18 19  1  0  0  0  0
 19 31  1  0  0  0  0
 19 20  2  0  0  0  0
 32 35  1  0  0  0  0
  8 11  1  0  0  0  0
 41 42  1  0  0  0  0
 18 21  1  0  0  0  0
 31 32  1  0  0  0  0
  7  8  1  0  0  0  0
 17 18  1  0  0  0  0
  3  4  1  0  0  0  0
  3  5  1  0  0  0  0
  3  6  1  0  0  0  0
 35 38  1  0  0  0  0
 35 39  1  0  0  0  0
 35 40  1  0  0  0  0
 11 14  1  0  0  0  0
 11 15  1  0  0  0  0
 11 16  1  0  0  0  0
 42 44  1  0  0  0  0
 42 45  1  0  0  0  0
 42 46  1  0  0  0  0
 21 27  1  0  0  0  0
 21 28  1  0  0  0  0
 32 37  1  0  0  0  0
  8 13  1  0  0  0  0
 18 26  1  0  0  0  0
 24 29  1  0  0  0  0
 24 30  1  0  0  0  0
 41 43  1  0  0  0  0
  7 12  1  0  0  0  0
 31 36  1  0  0  0  0
 17 25  1  0  0  0  0
M  END
$$$$

  -OEChem-05262214473D

 46 45  0     1  0  0  0  0  0999 V2000
   -0.0543    1.9736    3.8406 C   0  0  0  0  0  0  0  0  0  0  0  0
    0.6744    1.6099    4.7562 O   0  0  0  0  0  0  0  0  0  0  0  0
   -0.5599    3.3779    3.8160 C   0  0  0  0  0  0  0  0  0  0  0  0
   -1.5202    3.4885    4.3450 H   0  0  0  0  0  0  0  0  0  0  0  0
    0.1282    4.0814    4.3116 H   0  0  0  0  0  0  0  0  0  0  0  0
   -0.7317    3.7994    2.8126 H   0  0  0  0  0  0  0  0  0  0  0  0
   -0.4812    1.1968    2.7762 N   0  0  0  0  0  0  0  0  0  0  0  0
   -0.1106   -0.1834    2.6051 C   0  0  2  0  0  0  0  0  0  0  0  0
   -0.0696   -0.4775    1.1113 C   0  0  0  0  0  0  0  0  0  0  0  0
   -0.6805    0.1900    0.2792 O   0  0  0  0  0  0  0  0  0  0  0  0
   -1.0852   -1.1101    3.3150 C   0  0  0  0  0  0  0  0  0  0  0  0
   -1.0883    1.6241    2.0791 H   0  0  0  0  0  0  0  0  0  0  0  0
    0.8937   -0.2959    3.0277 H   0  0  0  0  0  0  0  0  0  0  0  0
   -2.0970   -1.0114    2.9051 H   0  0  0  0  0  0  0  0  0  0  0  0
   -0.7860   -2.1580    3.2078 H   0  0  0  0  0  0  0  0  0  0  0  0
   -1.1357   -0.8775    4.3842 H   0  0  0  0  0  0  0  0  0  0  0  0
    0.6950   -1.6003    0.8178 N   0  0  0  0  0  0  0  0  0  0  0  0
    0.8777   -2.0908   -0.5246 C   0  0  2  0  0  0  0  0  0  0  0  0
    0.1038   -1.1699   -1.4596 C   0  0  0  0  0  0  0  0  0  0  0  0
   -0.8931   -0.5413   -1.1098 O   0  0  0  0  0  0  0  0  0  0  0  0
    0.3987   -3.5351   -0.6732 C   0  0  0  0  0  0  0  0  0  0  0  0
    1.2837   -4.5353    0.0496 C   0  0  0  0  0  0  0  0  0  0  0  0
    2.5104   -4.4934    0.0507 O   0  0  0  0  0  0  0  0  0  0  0  0
    0.5515   -5.4975    0.7123 N   0  0  0  0  0  0  0  0  0  0  0  0
    1.1810   -2.0803    1.5718 H   0  0  0  0  0  0  0  0  0  0  0  0
    1.9479   -2.0049   -0.7457 H   0  0  0  0  0  0  0  0  0  0  0  0
   -0.6128   -3.6439   -0.2618 H   0  0  0  0  0  0  0  0  0  0  0  0
    0.3484   -3.8168   -1.7328 H   0  0  0  0  0  0  0  0  0  0  0  0
   -0.4627   -5.4909    0.6867 H   0  0  0  0  0  0  0  0  0  0  0  0
    0.9898   -6.2418    1.2455 H   0  0  0  0  0  0  0  0  0  0  0  0
    0.6844   -1.0918   -2.7177 N   0  0  0  0  0  0  0  0  0  0  0  0
    0.1393   -0.2583   -3.7624 C   0  0  2  0  0  0  0  0  0  0  0  0
    0.0943    1.1738   -3.2461 C   0  0  0  0  0  0  0  0  0  0  0  0
    0.0810    1.4554   -2.0496 O   0  0  0  0  0  0  0  0  0  0  0  0
   -1.2451   -0.7292   -4.1801 C   0  0  0  0  0  0  0  0  0  0  0  0
    1.5237   -1.6272   -2.9193 H   0  0  0  0  0  0  0  0  0  0  0  0
    0.8309   -0.3202   -4.6096 H   0  0  0  0  0  0  0  0  0  0  0  0
   -1.9520   -0.6744   -3.3442 H   0  0  0  0  0  0  0  0  0  0  0  0
   -1.6453   -0.1134   -4.9923 H   0  0  0  0  0  0  0  0  0  0  0  0
   -1.2160   -1.7690   -4.5231 H   0  0  0  0  0  0  0  0  0  0  0  0
    0.0273    2.0989   -4.2785 N   0  0  0  0  0  0  0  0  0  0  0  0
   -0.0373    3.5229   -4.0464 C   0  0  0  0  0  0  0  0  0  0  0  0
    0.0627    1.7767   -5.2412 H   0  0  0  0  0  0  0  0  0  0  0  0
   -1.0895    3.8418   -4.0109 H   0  0  0  0  0  0  0  0  0  0  0  0
    0.4502    3.7608   -3.0894 H   0  0  0  0  0  0  0  0  0  0  0  0
    0.4784    4.0510   -4.8619 H   0  0  0  0  0  0  0  0  0  0  0  0
  1  3  1  0  0  0  0
  1  7  1  0  0  0  0
  1  2  2  0  0  0  0
 21 22  1  0  0  0  0
 22 24  1  0  0  0  0
 22 23  2  0  0  0  0
 32 33  1  0  0  0  0
 33 41  1  0  0  0  0
 33 34  2  0  0  0  0
  8  9  1  0  0  0  0
  9 17  1  0  0  0  0
  9 10  2  0  0  0  0
 18 19  1  0  0  0  0
 19 31  1  0  0  0  0
 19 20  2  0  0  0  0
 32 35  1  0  0  0  0
  8 11  1  0  0  0  0
 41 42  1  0  0  0  0
 18 21  1  0  0  0  0
 31 32  1  0  0  0  0
  7  8  1  0  0  0  0
 17 18  1  0  0  0  0
  3  4  1  0  0  0  0
  3  5  1  0  0  0  0
  3  6  1  0  0  0  0
 35 38  1  0  0  0  0
 35 39  1  0  0  0  0
 35 40  1  0  0  0  0
 11 14  1  0  0  0  0
 11 15  1  0  0  0  0
 11 16  1  0  0  0  0
 42 44  1  0  0  0  0
 42 45  1  0  0  0  0
 42 46  1  0  0  0  0
 21 27  1  0  0  0  0
 21 28  1  0  0  0  0
 32 37  1  0  0  0  0
  8 13  1  0  0  0  0
 18 26  1  0  0  0  0
 24 29  1  0  0  0  0
 24 30  1  0  0  0  0
 41 43  1  0  0  0  0
  7 12  1  0  0  0  0
 31 36  1  0  0  0  0
 17 25  1  0  0  0  0
M  END
$$$$

  -OEChem-05262214473D

 46 45  0     1  0  0  0  0  0999 V2000
   -0.0543    1.9736    3.8406 C   0  0  0  0  0  0  0  0  0  0  0  0
    0.6744    1.6099    4.7562 O   0  0  0  0  0  0  0  0  0  0  0  0
   -0.5599    3.3779    3.8160 C   0  0  0  0  0  0  0  0  0  0  0  0
   -1.5202    3.4885    4.3450 H   0  0  0  0  0  0  0  0  0  0  0  0
    0.1282    4.0814    4.3116 H   0  0  0  0  0  0  0  0  0  0  0  0
   -0.7317    3.7994    2.8126 H   0  0  0  0  0  0  0  0  0  0  0  0
   -0.4812    1.1968    2.7762 N   0  0  0  0  0  0  0  0  0  0  0  0
   -0.1106   -0.1834    2.6051 C   0  0  2  0  0  0  0  0  0  0  0  0
   -0.0696   -0.4775    1.1113 C   0  0  0  0  0  0  0  0  0  0  0  0
   -0.6805    0.1900    0.2792 O   0  0  0  0  0  0  0  0  0  0  0  0
   -1.0852   -1.1101    3.3150 C   0  0  0  0  0  0  0  0  0  0  0  0
   -1.0883    1.6241    2.0791 H   0  0  0  0  0  0  0  0  0  0  0  0
    0.8937   -0.2959    3.0277 H   0  0  0  0  0  0  0  0  0  0  0  0
   -2.0970   -1.0114    2.9051 H   0  0  0  0  0  0  0  0  0  0  0  0
   -0.7860   -2.1580    3.2078 H   0  0  0  0  0  0  0  0  0  0  0  0
   -1.1357   -0.8775    4.3842 H   0  0  0  0  0  0  0  0  0  0  0  0
    0.6950   -1.6003    0.8178 N   0  0  0  0  0  0  0  0  0  0  0  0
    0.8777   -2.0908   -0.5246 C   0  0  2  0  0  0  0  0  0  0  0  0
    0.1038   -1.1699   -1.4596 C   0  0  0  0  0  0  0  0  0  0  0  0
   -0.7162   -0.3445   -1.0625 O   0  0  0  0  0  0  0  0  0  0  0  0
    0.3987   -3.5351   -0.6732 C   0  0  0  0  0  0  0  0  0  0  0  0
    1.2837   -4.5353    0.0496 C   0  0  0  0  0  0  0  0  0  0  0  0
    2.5104   -4.4934    0.0507 O   0  0  0  0  0  0  0  0  0  0  0  0
    0.5515   -5.4975    0.7123 N   0  0  0  0  0  0  0  0  0  0  0  0
    1.1810   -2.0803    1.5718 H   0  0  0  0  0  0  0  0  0  0  0  0
    1.9479   -2.0049   -0.7457 H   0  0  0  0  0  0  0  0  0  0  0  0
   -0.6128   -3.6439   -0.2618 H   0  0  0  0  0  0  0  0  0  0  0  0
    0.3484   -3.8168   -1.7328 H   0  0  0  0  0  0  0  0  0  0  0  0
   -0.4627   -5.4909    0.6867 H   0  0  0  0  0  0  0  0  0  0  0  0
    0.9898   -6.2418    1.2455 H   0  0  0  0  0  0  0  0  0  0  0  0
    0.4711   -1.3412   -2.7869 N   0  0  0  0  0  0  0  0  0  0  0  0
   -0.1110   -0.5576   -3.8500 C   0  0  2  0  0  0  0  0  0  0  0  0
    0.1439    0.9124   -3.5445 C   0  0  0  0  0  0  0  0  0  0  0  0
    0.3726    1.3324   -2.4121 O   0  0  0  0  0  0  0  0  0  0  0  0
   -1.6001   -0.8336   -3.9892 C   0  0  0  0  0  0  0  0  0  0  0  0
    1.1761   -2.0312   -3.0294 H   0  0  0  0  0  0  0  0  0  0  0  0
    0.4124   -0.8359   -4.7712 H   0  0  0  0  0  0  0  0  0  0  0  0
   -2.1413   -0.5609   -3.0758 H   0  0  0  0  0  0  0  0  0  0  0  0
   -2.0345   -0.2598   -4.8145 H   0  0  0  0  0  0  0  0  0  0  0  0
   -1.7833   -1.8966   -4.1793 H   0  0  0  0  0  0  0  0  0  0  0  0
    0.0434    1.7062   -4.6785 N   0  0  0  0  0  0  0  0  0  0  0  0
    0.2305    3.1380   -4.6471 C   0  0  0  0  0  0  0  0  0  0  0  0
   -0.1308    1.2707   -5.5795 H   0  0  0  0  0  0  0  0  0  0  0  0
   -0.7419    3.6323   -4.5049 H   0  0  0  0  0  0  0  0  0  0  0  0
    0.9008    3.4019   -3.8158 H   0  0  0  0  0  0  0  0  0  0  0  0
    0.6753    3.4705   -5.5966 H   0  0  0  0  0  0  0  0  0  0  0  0
  1  3  1  0  0  0  0
  1  7  1  0  0  0  0
  1  2  2  0  0  0  0
 21 22  1  0  0  0  0
 22 24  1  0  0  0  0
 22 23  2  0  0  0  0
 32 33  1  0  0  0  0
 33 41  1  0  0  0  0
 33 34  2  0  0  0  0
  8  9  1  0  0  0  0
  9 17  1  0  0  0  0
  9 10  2  0  0  0  0
 18 19  1  0  0  0  0
 19 31  1  0  0  0  0
 19 20  2  0  0  0  0
 32 35  1  0  0  0  0
  8 11  1  0  0  0  0
 41 42  1  0  0  0  0
 18 21  1  0  0  0  0
 31 32  1  0  0  0  0
  7  8  1  0  0  0  0
 17 18  1  0  0  0  0
  3  4  1  0  0  0  0
  3  5  1  0  0  0  0
  3  6  1  0  0  0  0
 35 38  1  0  0  0  0
 35 39  1  0  0  0  0
 35 40  1  0  0  0  0
 11 14  1  0  0  0  0
 11 15  1  0  0  0  0
 11 16  1  0  0  0  0
 42 44  1  0  0  0  0
 42 45  1  0  0  0  0
 42 46  1  0  0  0  0
 21 27  1  0  0  0  0
 21 28  1  0  0  0  0
 32 37  1  0  0  0  0
  8 13  1  0  0  0  0
 18 26  1  0  0  0  0
 24 29  1  0  0  0  0
 24 30  1  0  0  0  0
 41 43  1  0  0  0  0
  7 12  1  0  0  0  0
 31 36  1  0  0  0  0
 17 25  1  0  0  0  0
M  END
$$$$

  -OEChem-05262214473D

 46 45  0     1  0  0  0  0  0999 V2000
   -0.0543    1.9736    3.8406 C   0  0  0  0  0  0  0  0  0  0  0  0
    0.6744    1.6099    4.7562 O   0  0  0  0  0  0  0  0  0  0  0  0
   -0.5599    3.3779    3.8160 C   0  0  0  0  0  0  0  0  0  0  0  0
   -1.5202    3.4885    4.3450 H   0  0  0  0  0  0  0  0  0  0  0  0
    0.1282    4.0814    4.3116 H   0  0  0  0  0  0  0  0  0  0  0  0
   -0.7317    3.7994    2.8126 H   0  0  0  0  0  0  0  0  0  0  0  0
   -0.4812    1.1968    2.7762 N   0  0  0  0  0  0  0  0  0  0  0  0
   -0.1106   -0.1834    2.6051 C   0  0  2  0  0  0  0  0  0  0  0  0
   -0.0696   -0.4775    1.1113 C   0  0  0  0  0  0  0  0  0  0  0  0
   -0.6805    0.1900    0.2792 O   0  0  0  0  0  0  0  0  0  0  0  0
   -1.0852   -1.1101    3.3150 C   0  0  0  0  0  0  0  0  0  0  0  0
   -1.0883    1.6241    2.0791 H   0  0  0  0  0  0  0  0  0  0  0  0
    0.8937   -0.2959    3.0277 H   0  0  0  0  0  0  0  0  0  0  0  0
   -2.0970   -1.0114    2.9051 H   0  0  0  0  0  0  0  0  0  0  0  0
   -0.7860   -2.1580    3.2078 H   0  0  0  0  0  0  0  0  0  0  0  0
   -1.1357   -0.8775    4.3842 H   0  0  0  0  0  0  0  0  0  0  0  0
    0.6950   -1.6003    0.8178 N   0  0  0  0  0  0  0  0  0  0  0  0
    0.8777   -2.0908   -0.5246 C   0  0  2  0  0  0  0  0  0  0  0  0
    0.4366   -0.9894   -1.4803 C   0  0  0  0  0  0  0  0  0  0  0  0
    0.0489    0.1138   -1.1007 O   0  0  0  0  0  0  0  0  0  0  0  0
    0.0823   -3.3721   -0.7758 C   0  0  0  0  0  0  0  0  0  0  0  0
    0.6313   -4.5728   -0.0255 C   0  0  0  0  0  0  0  0  0  0  0  0
    1.8268   -4.8298    0.0806 O   0  0  0  0  0  0  0  0  0  0  0  0
   -0.3680   -5.3429    0.5307 N   0  0  0  0  0  0  0  0  0  0  0  0
    1.1810   -2.0803    1.5718 H   0  0  0  0  0  0  0  0  0  0  0  0
    1.9530   -2.2622   -0.6509 H   0  0  0  0  0  0  0  0  0  0  0  0
   -0.9593   -3.2413   -0.4561 H   0  0  0  0  0  0  0  0  0  0  0  0
    0.0639   -3.6098   -1.8472 H   0  0  0  0  0  0  0  0  0  0  0  0
   -1.3443   -5.0900    0.4202 H   0  0  0  0  0  0  0  0  0  0  0  0
   -0.1719   -6.1829    1.0659 H   0  0  0  0  0  0  0  0  0  0  0  0
    0.5733   -1.3629   -2.8099 N   0  0  0  0  0  0  0  0  0  0  0  0
    0.2411   -0.4702   -3.8943 C   0  0  2  0  0  0  0  0  0  0  0  0
    1.0799    0.7914   -3.7386 C   0  0  0  0  0  0  0  0  0  0  0  0
    1.5664    1.1454   -2.6666 O   0  0  0  0  0  0  0  0  0  0  0  0
   -1.2430   -0.1385   -3.9031 C   0  0  0  0  0  0  0  0  0  0  0  0
    0.9242   -2.2880   -3.0397 H   0  0  0  0  0  0  0  0  0  0  0  0
    0.5193   -0.9822   -4.8219 H   0  0  0  0  0  0  0  0  0  0  0  0
   -1.5404    0.3749   -2.9815 H   0  0  0  0  0  0  0  0  0  0  0  0
   -1.4983    0.5159   -4.7431 H   0  0  0  0  0  0  0  0  0  0  0  0
   -1.8455   -1.0496   -3.9852 H   0  0  0  0  0  0  0  0  0  0  0  0
    1.1853    1.4982   -4.9283 N   0  0  0  0  0  0  0  0  0  0  0  0
    1.9197    2.7372   -5.0367 C   0  0  0  0  0  0  0  0  0  0  0  0
    0.7657    1.1206   -5.7727 H   0  0  0  0  0  0  0  0  0  0  0  0
    1.2376    3.5840   -4.8705 H   0  0  0  0  0  0  0  0  0  0  0  0
    2.7191    2.7567   -4.2814 H   0  0  0  0  0  0  0  0  0  0  0  0
    2.3620    2.8144   -6.0409 H   0  0  0  0  0  0  0  0  0  0  0  0
  1  3  1  0  0  0  0
  1  7  1  0  0  0  0
  1  2  2  0  0  0  0
 21 22  1  0  0  0  0
 22 24  1  0  0  0  0
 22 23  2  0  0  0  0
 32 33  1  0  0  0  0
 33 41  1  0  0  0  0
 33 34  2  0  0  0  0
  8  9  1  0  0  0  0
  9 17  1  0  0  0  0
  9 10  2  0  0  0  0
 18 19  1  0  0  0  0
 19 31  1  0  0  0  0
 19 20  2  0  0  0  0
 32 35  1  0  0  0  0
  8 11  1  0  0  0  0
 41 42  1  0  0  0  0
 18 21  1  0  0  0  0
 31 32  1  0  0  0  0
  7  8  1  0  0  0  0
 17 18  1  0  0  0  0
  3  4  1  0  0  0  0
  3  5  1  0  0  0  0
  3  6  1  0  0  0  0
 35 38  1  0  0  0  0
 35 39  1  0  0  0  0
 35 40  1  0  0  0  0
 11 14  1  0  0  0  0
 11 15  1  0  0  0  0
 11 16  1  0  0  0  0
 42 44  1  0  0  0  0
 42 45  1  0  0  0  0
 42 46  1  0  0  0  0
 21 27  1  0  0  0  0
 21 28  1  0  0  0  0
 32 37  1  0  0  0  0
  8 13  1  0  0  0  0
 18 26  1  0  0  0  0
 24 29  1  0  0  0  0
 24 30  1  0  0  0  0
 41 43  1  0  0  0  0
  7 12  1  0  0  0  0
 31 36  1  0  0  0  0
 17 25  1  0  0  0  0
M  END
$$$$

  -OEChem-05262214473D

 46 45  0     1  0  0  0  0  0999 V2000
   -0.0543    1.9736    3.8406 C   0  0  0  0  0  0  0  0  0  0  0  0
    0.6744    1.6099    4.7562 O   0  0  0  0  0  0  0  0  0  0  0  0
   -0.5599    3.3779    3.8160 C   0  0  0  0  0  0  0  0  0  0  0  0
   -1.5202    3.4885    4.3450 H   0  0  0  0  0  0  0  0  0  0  0  0
    0.1282    4.0814    4.3116 H   0  0  0  0  0  0  0  0  0  0  0  0
   -0.7317    3.7994    2.8126 H   0  0  0  0  0  0  0  0  0  0  0  0
   -0.4812    1.1968    2.7762 N   0  0  0  0  0  0  0  0  0  0  0  0
   -0.1106   -0.1834    2.6051 C   0  0  2  0  0  0  0  0  0  0  0  0
   -0.0696   -0.4775    1.1113 C   0  0  0  0  0  0  0  0  0  0  0  0
   -0.6805    0.1900    0.2792 O   0  0  0  0  0  0  0  0  0  0  0  0
   -1.0852   -1.1101    3.3150 C   0  0  0  0  0  0  0  0  0  0  0  0
   -1.0883    1.6241    2.0791 H   0  0  0  0  0  0  0  0  0  0  0  0
    0.8937   -0.2959    3.0277 H   0  0  0  0  0  0  0  0  0  0  0  0
   -2.0970   -1.0114    2.9051 H   0  0  0  0  0  0  0  0  0  0  0  0
   -0.7860   -2.1580    3.2078 H   0  0  0  0  0  0  0  0  0  0  0  0
   -1.1357   -0.8775    4.3842 H   0  0  0  0  0  0  0  0  0  0  0  0
    0.6950   -1.6003    0.8178 N   0  0  0  0  0  0  0  0  0  0  0  0
    0.8777   -2.0908   -0.5246 C   0  0  2  0  0  0  0  0  0  0  0  0
    0.4366   -0.9894   -1.4803 C   0  0  0  0  0  0  0  0  0  0  0  0
    0.3056    0.1842   -1.1381 O   0  0  0  0  0  0  0  0  0  0  0  0
    0.0823   -3.3721   -0.7758 C   0  0  0  0  0  0  0  0  0  0  0  0
    0.6313   -4.5728   -0.0255 C   0  0  0  0  0  0  0  0  0  0  0  0
    1.8268   -4.8298    0.0806 O   0  0  0  0  0  0  0  0  0  0  0  0
   -0.3680   -5.3429    0.5307 N   0  0  0  0  0  0  0  0  0  0  0  0
    1.1810   -2.0803    1.5718 H   0  0  0  0  0  0  0  0  0  0  0  0
    1.9530   -2.2622   -0.6509 H   0  0  0  0  0  0  0  0  0  0  0  0
   -0.9593   -3.2413   -0.4561 H   0  0  0  0  0  0  0  0  0  0  0  0
    0.0639   -3.6098   -1.8472 H   0  0  0  0  0  0  0  0  0  0  0  0
   -1.3443   -5.0900    0.4202 H   0  0  0  0  0  0  0  0  0  0  0  0
   -0.1719   -6.1829    1.0659 H   0  0  0  0  0  0  0  0  0  0  0  0
    0.2540   -1.4590   -2.7734 N   0  0  0  0  0  0  0  0  0  0  0  0
   -0.1388   -0.5891   -3.8560 C   0  0  2  0  0  0  0  0  0  0  0  0
    0.8998    0.5191   -3.9692 C   0  0  0  0  0  0  0  0  0  0  0  0
    1.6332    0.8487   -3.0394 O   0  0  0  0  0  0  0  0  0  0  0  0
   -1.5268   -0.0118   -3.6261 C   0  0  0  0  0  0  0  0  0  0  0  0
    0.4059   -2.4423   -2.9783 H   0  0  0  0  0  0  0  0  0  0  0  0
   -0.1281   -1.1950   -4.7685 H   0  0  0  0  0  0  0  0  0  0  0  0
   -1.5571    0.5986   -2.7161 H   0  0  0  0  0  0  0  0  0  0  0  0
   -1.8349    0.6253   -4.4617 H   0  0  0  0  0  0  0  0  0  0  0  0
   -2.2678   -0.8108   -3.5151 H   0  0  0  0  0  0  0  0  0  0  0  0
    0.8816    1.1258   -5.2173 N   0  0  0  0  0  0  0  0  0  0  0  0
    1.7644    2.2137   -5.5683 C   0  0  0  0  0  0  0  0  0  0  0  0
    0.2533    0.7752   -5.9343 H   0  0  0  0  0  0  0  0  0  0  0  0
    1.2673    3.1723   -5.3587 H   0  0  0  0  0  0  0  0  0  0  0  0
    2.6880    2.1423   -4.9750 H   0  0  0  0  0  0  0  0  0  0  0  0
    2.0108    2.1550   -6.6388 H   0  0  0  0  0  0  0  0  0  0  0  0
  1  3  1  0  0  0  0
  1  7  1  0  0  0  0
  1  2  2  0  0  0  0
 21 22  1  0  0  0  0
 22 24  1  0  0  0  0
 22 23  2  0  0  0  0
 32 33  1  0  0  0  0
 33 41  1  0  0  0  0
 33 34  2  0  0  0  0
  8  9  1  0  0  0  0
  9 17  1  0  0  0  0
  9 10  2  0  0  0  0
 18 19  1  0  0  0  0
 19 31  1  0  0  0  0
 19 20  2  0  0  0  0
 32 35  1  0  0  0  0
  8 11  1  0  0  0  0
 41 42  1  0  0  0  0
 18 21  1  0  0  0  0
 31 32  1  0  0  0  0
  7  8  1  0  0  0  0
 17 18  1  0  0  0  0
  3  4  1  0  0  0  0
  3  5  1  0  0  0  0
  3  6  1  0  0  0  0
 35 38  1  0  0  0  0
 35 39  1  0  0  0  0
 35 40  1  0  0  0  0
 11 14  1  0  0  0  0
 11 15  1  0  0  0  0
 11 16  1  0  0  0  0
 42 44  1  0  0  0  0
 42 45  1  0  0  0  0
 42 46  1  0  0  0  0
 21 27  1  0  0  0  0
 21 28  1  0  0  0  0
 32 37  1  0  0  0  0
  8 13  1  0  0  0  0
 18 26  1  0  0  0  0
 24 29  1  0  0  0  0
 24 30  1  0  0  0  0
 41 43  1  0  0  0  0
  7 12  1  0  0  0  0
 31 36  1  0  0  0  0
 17 25  1  0  0  0  0
M  END
$$$$

  -OEChem-05262214473D

 46 45  0     1  0  0  0  0  0999 V2000
   -0.0543    1.9736    3.8406 C   0  0  0  0  0  0  0  0  0  0  0  0
    0.6744    1.6099    4.7562 O   0  0  0  0  0  0  0  0  0  0  0  0
   -0.5599    3.3779    3.8160 C   0  0  0  0  0  0  0  0  0  0  0  0
   -1.5202    3.4885    4.3450 H   0  0  0  0  0  0  0  0  0  0  0  0
    0.1282    4.0814    4.3116 H   0  0  0  0  0  0  0  0  0  0  0  0
   -0.7317    3.7994    2.8126 H   0  0  0  0  0  0  0  0  0  0  0  0
   -0.4812    1.1968    2.7762 N   0  0  0  0  0  0  0  0  0  0  0  0
   -0.1106   -0.1834    2.6051 C   0  0  2  0  0  0  0  0  0  0  0  0
   -0.0696   -0.4775    1.1113 C   0  0  0  0  0  0  0  0  0  0  0  0
   -0.6805    0.1900    0.2792 O   0  0  0  0  0  0  0  0  0  0  0  0
   -1.0852   -1.1101    3.3150 C   0  0  0  0  0  0  0  0  0  0  0  0
   -1.0883    1.6241    2.0791 H   0  0  0  0  0  0  0  0  0  0  0  0
    0.8937   -0.2959    3.0277 H   0  0  0  0  0  0  0  0  0  0  0  0
   -2.0970   -1.0114    2.9051 H   0  0  0  0  0  0  0  0  0  0  0  0
   -0.7860   -2.1580    3.2078 H   0  0  0  0  0  0  0  0  0  0  0  0
   -1.1357   -0.8775    4.3842 H   0  0  0  0  0  0  0  0  0  0  0  0
    0.6950   -1.6003    0.8178 N   0  0  0  0  0  0  0  0  0  0  0  0
    0.8777   -2.0908   -0.5246 C   0  0  2  0  0  0  0  0  0  0  0  0
    0.4366   -0.9894   -1.4803 C   0  0  0  0  0  0  0  0  0  0  0  0
    0.5580    0.2076   -1.2276 O   0  0  0  0  0  0  0  0  0  0  0  0
    0.0823   -3.3721   -0.7758 C   0  0  0  0  0  0  0  0  0  0  0  0
    0.6313   -4.5728   -0.0255 C   0  0  0  0  0  0  0  0  0  0  0  0
    1.8268   -4.8298    0.0806 O   0  0  0  0  0  0  0  0  0  0  0  0
   -0.3680   -5.3429    0.5307 N   0  0  0  0  0  0  0  0  0  0  0  0
    1.1810   -2.0803    1.5718 H   0  0  0  0  0  0  0  0  0  0  0  0
    1.9530   -2.2622   -0.6509 H   0  0  0  0  0  0  0  0  0  0  0  0
   -0.9593   -3.2413   -0.4561 H   0  0  0  0  0  0  0  0  0  0  0  0
    0.0639   -3.6098   -1.8472 H   0  0  0  0  0  0  0  0  0  0  0  0
   -1.3443   -5.0900    0.4202 H   0  0  0  0  0  0  0  0  0  0  0  0
   -0.1719   -6.1829    1.0659 H   0  0  0  0  0  0  0  0  0  0  0  0
   -0.0631   -1.4974   -2.6712 N   0  0  0  0  0  0  0  0  0  0  0  0
   -0.5179   -0.6393   -3.7390 C   0  0  2  0  0  0  0  0  0  0  0  0
    0.6384    0.2681   -4.1379 C   0  0  0  0  0  0  0  0  0  0  0  0
    1.5798    0.5232   -3.3898 O   0  0  0  0  0  0  0  0  0  0  0  0
   -1.7285    0.1775   -3.3149 C   0  0  0  0  0  0  0  0  0  0  0  0
   -0.1082   -2.5025   -2.8105 H   0  0  0  0  0  0  0  0  0  0  0  0
   -0.7780   -1.2915   -4.5798 H   0  0  0  0  0  0  0  0  0  0  0  0
   -1.4872    0.8372   -2.4734 H   0  0  0  0  0  0  0  0  0  0  0  0
   -2.0897    0.8068   -4.1350 H   0  0  0  0  0  0  0  0  0  0  0  0
   -2.5489   -0.4763   -2.9999 H   0  0  0  0  0  0  0  0  0  0  0  0
    0.4737    0.7937   -5.4118 N   0  0  0  0  0  0  0  0  0  0  0  0
    1.4300    1.6934   -6.0136 C   0  0  0  0  0  0  0  0  0  0  0  0
   -0.3280    0.5127   -5.9685 H   0  0  0  0  0  0  0  0  0  0  0  0
    1.1377    2.7331   -5.8049 H   0  0  0  0  0  0  0  0  0  0  0  0
    2.4283    1.5019   -5.5932 H   0  0  0  0  0  0  0  0  0  0  0  0
    1.4527    1.5302   -7.1012 H   0  0  0  0  0  0  0  0  0  0  0  0
  1  3  1  0  0  0  0
  1  7  1  0  0  0  0
  1  2  2  0  0  0  0
 21 22  1  0  0  0  0
 22 24  1  0  0  0  0
 22 23  2  0  0  0  0
 32 33  1  0  0  0  0
 33 41  1  0  0  0  0
 33 34  2  0  0  0  0
  8  9  1  0  0  0  0
  9 17  1  0  0  0  0
  9 10  2  0  0  0  0
 18 19  1  0  0  0  0
 19 31  1  0  0  0  0
 19 20  2  0  0  0  0
 32 35  1  0  0  0  0
  8 11  1  0  0  0  0
 41 42  1  0  0  0  0
 18 21  1  0  0  0  0
 31 32  1  0  0  0  0
  7  8  1  0  0  0  0
 17 18  1  0  0  0  0
  3  4  1  0  0  0  0
  3  5  1  0  0  0  0
  3  6  1  0  0  0  0
 35 38  1  0  0  0  0
 35 39  1  0  0  0  0
 35 40  1  0  0  0  0
 11 14  1  0  0  0  0
 11 15  1  0  0  0  0
 11 16  1  0  0  0  0
 42 44  1  0  0  0  0
 42 45  1  0  0  0  0
 42 46  1  0  0  0  0
 21 27  1  0  0  0  0
 21 28  1  0  0  0  0
 32 37  1  0  0  0  0
  8 13  1  0  0  0  0
 18 26  1  0  0  0  0
 24 29  1  0  0  0  0
 24 30  1  0  0  0  0
 41 43  1  0  0  0  0
  7 12  1  0  0  0  0
 31 36  1  0  0  0  0
 17 25  1  0  0  0  0
M  END
$$$$

  -OEChem-05262214473D

 46 45  0     1  0  0  0  0  0999 V2000
   -0.0543    1.9736    3.8406 C   0  0  0  0  0  0  0  0  0  0  0  0
    0.6744    1.6099    4.7562 O   0  0  0  0  0  0  0  0  0  0  0  0
   -0.5599    3.3779    3.8160 C   0  0  0  0  0  0  0  0  0  0  0  0
   -1.5202    3.4885    4.3450 H   0  0  0  0  0  0  0  0  0  0  0  0
    0.1282    4.0814    4.3116 H   0  0  0  0  0  0  0  0  0  0  0  0
   -0.7317    3.7994    2.8126 H   0  0  0  0  0  0  0  0  0  0  0  0
   -0.4812    1.1968    2.7762 N   0  0  0  0  0  0  0  0  0  0  0  0
   -0.1106   -0.1834    2.6051 C   0  0  2  0  0  0  0  0  0  0  0  0
   -0.0696   -0.4775    1.1113 C   0  0  0  0  0  0  0  0  0  0  0  0
   -0.6805    0.1900    0.2792 O   0  0  0  0  0  0  0  0  0  0  0  0
   -1.0852   -1.1101    3.3150 C   0  0  0  0  0  0  0  0  0  0  0  0
   -1.0883    1.6241    2.0791 H   0  0  0  0  0  0  0  0  0  0  0  0
    0.8937   -0.2959    3.0277 H   0  0  0  0  0  0  0  0  0  0  0  0
   -2.0970   -1.0114    2.9051 H   0  0  0  0  0  0  0  0  0  0  0  0
   -0.7860   -2.1580    3.2078 H   0  0  0  0  0  0  0  0  0  0  0  0
   -1.1357   -0.8775    4.3842 H   0  0  0  0  0  0  0  0  0  0  0  0
    0.6950   -1.6003    0.8178 N   0  0  0  0  0  0  0  0  0  0  0  0
    0.8777   -2.0908   -0.5246 C   0  0  2  0  0  0  0  0  0  0  0  0
    0.4366   -0.9894   -1.4803 C   0  0  0  0  0  0  0  0  0  0  0  0
    0.7889    0.1826   -1.3629 O   0  0  0  0  0  0  0  0  0  0  0  0
    0.0823   -3.3721   -0.7758 C   0  0  0  0  0  0  0  0  0  0  0  0
    0.6313   -4.5728   -0.0255 C   0  0  0  0  0  0  0  0  0  0  0  0
    1.8268   -4.8298    0.0806 O   0  0  0  0  0  0  0  0  0  0  0  0
   -0.3680   -5.3429    0.5307 N   0  0  0  0  0  0  0  0  0  0  0  0
    1.1810   -2.0803    1.5718 H   0  0  0  0  0  0  0  0  0  0  0  0
    1.9530   -2.2622   -0.6509 H   0  0  0  0  0  0  0  0  0  0  0  0
   -0.9593   -3.2413   -0.4561 H   0  0  0  0  0  0  0  0  0  0  0  0
    0.0639   -3.6098   -1.8472 H   0  0  0  0  0  0  0  0  0  0  0  0
   -1.3443   -5.0900    0.4202 H   0  0  0  0  0  0  0  0  0  0  0  0
   -0.1719   -6.1829    1.0659 H   0  0  0  0  0  0  0  0  0  0  0  0
   -0.3566   -1.4752   -2.5103 N   0  0  0  0  0  0  0  0  0  0  0  0
   -0.8703   -0.6175   -3.5512 C   0  0  2  0  0  0  0  0  0  0  0  0
    0.3136    0.0554   -4.2332 C   0  0  0  0  0  0  0  0  0  0  0  0
    1.4098    0.1913   -3.6939 O   0  0  0  0  0  0  0  0  0  0  0  0
   -1.8344    0.4164   -2.9907 C   0  0  0  0  0  0  0  0  0  0  0  0
   -0.5832   -2.4647   -2.5477 H   0  0  0  0  0  0  0  0  0  0  0  0
   -1.3861   -1.2650   -4.2687 H   0  0  0  0  0  0  0  0  0  0  0  0
   -1.3355    1.0745   -2.2699 H   0  0  0  0  0  0  0  0  0  0  0  0
   -2.2451    1.0479   -3.7854 H   0  0  0  0  0  0  0  0  0  0  0  0
   -2.6698   -0.0690   -2.4748 H   0  0  0  0  0  0  0  0  0  0  0  0
   -0.0106    0.5247   -5.4984 N   0  0  0  0  0  0  0  0  0  0  0  0
    0.9392    1.2118   -6.3421 C   0  0  0  0  0  0  0  0  0  0  0  0
   -0.9386    0.3509   -5.8732 H   0  0  0  0  0  0  0  0  0  0  0  0
    0.8577    2.2966   -6.1788 H   0  0  0  0  0  0  0  0  0  0  0  0
    1.9578    0.8792   -6.0937 H   0  0  0  0  0  0  0  0  0  0  0  0
    0.7256    0.9828   -7.3966 H   0  0  0  0  0  0  0  0  0  0  0  0
  1  3  1  0  0  0  0
  1  7  1  0  0  0  0
  1  2  2  0  0  0  0
 21 22  1  0  0  0  0
 22 24  1  0  0  0  0
 22 23  2  0  0  0  0
 32 33  1  0  0  0  0
 33 41  1  0  0  0  0
 33 34  2  0  0  0  0
  8  9  1  0  0  0  0
  9 17  1  0  0  0  0
  9 10  2  0  0  0  0
 18 19  1  0  0  0  0
 19 31  1  0  0  0  0
 19 20  2  0  0  0  0
 32 35  1  0  0  0  0
  8 11  1  0  0  0  0
 41 42  1  0  0  0  0
 18 21  1  0  0  0  0
 31 32  1  0  0  0  0
  7  8  1  0  0  0  0
 17 18  1  0  0  0  0
  3  4  1  0  0  0  0
  3  5  1  0  0  0  0
  3  6  1  0  0  0  0
 35 38  1  0  0  0  0
 35 39  1  0  0  0  0
 35 40  1  0  0  0  0
 11 14  1  0  0  0  0
 11 15  1  0  0  0  0
 11 16  1  0  0  0  0
 42 44  1  0  0  0  0
 42 45  1  0  0  0  0
 42 46  1  0  0  0  0
 21 27  1  0  0  0  0
 21 28  1  0  0  0  0
 32 37  1  0  0  0  0
  8 13  1  0  0  0  0
 18 26  1  0  0  0  0
 24 29  1  0  0  0  0
 24 30  1  0  0  0  0
 41 43  1  0  0  0  0
  7 12  1  0  0  0  0
 31 36  1  0  0  0  0
 17 25  1  0  0  0  0
M  END
$$$$

  -OEChem-05262214473D

 46 45  0     1  0  0  0  0  0999 V2000
   -0.0543    1.9736    3.8406 C   0  0  0  0  0  0  0  0  0  0  0  0
    0.6744    1.6099    4.7562 O   0  0  0  0  0  0  0  0  0  0  0  0
   -0.5599    3.3779    3.8160 C   0  0  0  0  0  0  0  0  0  0  0  0
   -1.5202    3.4885    4.3450 H   0  0  0  0  0  0  0  0  0  0  0  0
    0.1282    4.0814    4.3116 H   0  0  0  0  0  0  0  0  0  0  0  0
   -0.7317    3.7994    2.8126 H   0  0  0  0  0  0  0  0  0  0  0  0
   -0.4812    1.1968    2.7762 N   0  0  0  0  0  0  0  0  0  0  0  0
   -0.1106   -0.1834    2.6051 C   0  0  2  0  0  0  0  0  0  0  0  0
   -0.0696   -0.4775    1.1113 C   0  0  0  0  0  0  0  0  0  0  0  0
   -0.6805    0.1900    0.2792 O   0  0  0  0  0  0  0  0  0  0  0  0
   -1.0852   -1.1101    3.3150 C   0  0  0  0  0  0  0  0  0  0  0  0
   -1.0883    1.6241    2.0791 H   0  0  0  0  0  0  0  0  0  0  0  0
    0.8937   -0.2959    3.0277 H   0  0  0  0  0  0  0  0  0  0  0  0
   -2.0970   -1.0114    2.9051 H   0  0  0  0  0  0  0  0  0  0  0  0
   -0.7860   -2.1580    3.2078 H   0  0  0  0  0  0  0  0  0  0  0  0
   -1.1357   -0.8775    4.3842 H   0  0  0  0  0  0  0  0  0  0  0  0
    0.6950   -1.6003    0.8178 N   0  0  0  0  0  0  0  0  0  0  0  0
    0.8777   -2.0908   -0.5246 C   0  0  2  0  0  0  0  0  0  0  0  0
    0.4366   -0.9894   -1.4803 C   0  0  0  0  0  0  0  0  0  0  0  0
    0.9826    0.1108   -1.5350 O   0  0  0  0  0  0  0  0  0  0  0  0
    0.0823   -3.3721   -0.7758 C   0  0  0  0  0  0  0  0  0  0  0  0
    0.6313   -4.5728   -0.0255 C   0  0  0  0  0  0  0  0  0  0  0  0
    1.8268   -4.8298    0.0806 O   0  0  0  0  0  0  0  0  0  0  0  0
   -0.3680   -5.3429    0.5307 N   0  0  0  0  0  0  0  0  0  0  0  0
    1.1810   -2.0803    1.5718 H   0  0  0  0  0  0  0  0  0  0  0  0
    1.9530   -2.2622   -0.6509 H   0  0  0  0  0  0  0  0  0  0  0  0
   -0.9593   -3.2413   -0.4561 H   0  0  0  0  0  0  0  0  0  0  0  0
    0.0639   -3.6098   -1.8472 H   0  0  0  0  0  0  0  0  0  0  0  0
   -1.3443   -5.0900    0.4202 H   0  0  0  0  0  0  0  0  0  0  0  0
   -0.1719   -6.1829    1.0659 H   0  0  0  0  0  0  0  0  0  0  0  0
   -0.6063   -1.3941   -2.3016 N   0  0  0  0  0  0  0  0  0  0  0  0
   -1.1721   -0.5252   -3.3056 C   0  0  2  0  0  0  0  0  0  0  0  0
   -0.0525   -0.1045   -4.2484 C   0  0  0  0  0  0  0  0  0  0  0  0
    1.1349   -0.1245   -3.9309 O   0  0  0  0  0  0  0  0  0  0  0  0
   -1.8372    0.6887   -2.6757 C   0  0  0  0  0  0  0  0  0  0  0  0
   -0.9867   -2.3313   -2.2078 H   0  0  0  0  0  0  0  0  0  0  0  0
   -1.9110   -1.1174   -3.8564 H   0  0  0  0  0  0  0  0  0  0  0  0
   -1.1124    1.2943   -2.1194 H   0  0  0  0  0  0  0  0  0  0  0  0
   -2.2907    1.3322   -3.4367 H   0  0  0  0  0  0  0  0  0  0  0  0
   -2.6222    0.3834   -1.9754 H   0  0  0  0  0  0  0  0  0  0  0  0
   -0.5383    0.3369   -5.4713 N   0  0  0  0  0  0  0  0  0  0  0  0
    0.3254    0.8017   -6.5315 C   0  0  0  0  0  0  0  0  0  0  0  0
   -1.5367    0.3010   -5.6547 H   0  0  0  0  0  0  0  0  0  0  0  0
    0.4465    1.8923   -6.4549 H   0  0  0  0  0  0  0  0  0  0  0  0
    1.3087    0.3166   -6.4424 H   0  0  0  0  0  0  0  0  0  0  0  0
   -0.1209    0.5499   -7.5048 H   0  0  0  0  0  0  0  0  0  0  0  0
  1  3  1  0  0  0  0
  1  7  1  0  0  0  0
  1  2  2  0  0  0  0
 21 22  1  0  0  0  0
 22 24  1  0  0  0  0
 22 23  2  0  0  0  0
 32 33  1  0  0  0  0
 33 41  1  0  0  0  0
 33 34  2  0  0  0  0
  8  9  1  0  0  0  0
  9 17  1  0  0  0  0
  9 10  2  0  0  0  0
 18 19  1  0  0  0  0
 19 31  1  0  0  0  0
 19 20  2  0  0  0  0
 32 35  1  0  0  0  0
  8 11  1  0  0  0  0
 41 42  1  0  0  0  0
 18 21  1  0  0  0  0
 31 32  1  0  0  0  0
  7  8  1  0  0  0  0
 17 18  1  0  0  0  0
  3  4  1  0  0  0  0
  3  5  1  0  0  0  0
  3  6  1  0  0  0  0
 35 38  1  0  0  0  0
 35 39  1  0  0  0  0
 35 40  1  0  0  0  0
 11 14  1  0  0  0  0
 11 15  1  0  0  0  0
 11 16  1  0  0  0  0
 42 44  1  0  0  0  0
 42 45  1  0  0  0  0
 42 46  1  0  0  0  0
 21 27  1  0  0  0  0
 21 28  1  0  0  0  0
 32 37  1  0  0  0  0
  8 13  1  0  0  0  0
 18 26  1  0  0  0  0
 24 29  1  0  0  0  0
 24 30  1  0  0  0  0
 41 43  1  0  0  0  0
  7 12  1  0  0  0  0
 31 36  1  0  0  0  0
 17 25  1  0  0  0  0
M  END
$$$$

  -OEChem-05262214473D

 46 45  0     1  0  0  0  0  0999 V2000
   -0.0543    1.9736    3.8406 C   0  0  0  0  0  0  0  0  0  0  0  0
    0.6744    1.6099    4.7562 O   0  0  0  0  0  0  0  0  0  0  0  0
   -0.5599    3.3779    3.8160 C   0  0  0  0  0  0  0  0  0  0  0  0
   -1.5202    3.4885    4.3450 H   0  0  0  0  0  0  0  0  0  0  0  0
    0.1282    4.0814    4.3116 H   0  0  0  0  0  0  0  0  0  0  0  0
   -0.7317    3.7994    2.8126 H   0  0  0  0  0  0  0  0  0  0  0  0
   -0.4812    1.1968    2.7762 N   0  0  0  0  0  0  0  0  0  0  0  0
   -0.1106   -0.1834    2.6051 C   0  0  2  0  0  0  0  0  0  0  0  0
   -0.0696   -0.4775    1.1113 C   0  0  0  0  0  0  0  0  0  0  0  0
   -0.6805    0.1900    0.2792 O   0  0  0  0  0  0  0  0  0  0  0  0
   -1.0852   -1.1101    3.3150 C   0  0  0  0  0  0  0  0  0  0  0  0
   -1.0883    1.6241    2.0791 H   0  0  0  0  0  0  0  0  0  0  0  0
    0.8937   -0.2959    3.0277 H   0  0  0  0  0  0  0  0  0  0  0  0
   -2.0970   -1.0114    2.9051 H   0  0  0  0  0  0  0  0  0  0  0  0
   -0.7860   -2.1580    3.2078 H   0  0  0  0  0  0  0  0  0  0  0  0
   -1.1357   -0.8775    4.3842 H   0  0  0  0  0  0  0  0  0  0  0  0
    0.6950   -1.6003    0.8178 N   0  0  0  0  0  0  0  0  0  0  0  0
    0.8777   -2.0908   -0.5246 C   0  0  2  0  0  0  0  0  0  0  0  0
    0.4366   -0.9894   -1.4803 C   0  0  0  0  0  0  0  0  0  0  0  0
    1.1257   -0.0029   -1.7321 O   0  0  0  0  0  0  0  0  0  0  0  0
    0.0823   -3.3721   -0.7758 C   0  0  0  0  0  0  0  0  0  0  0  0
    0.6313   -4.5728   -0.0255 C   0  0  0  0  0  0  0  0  0  0  0  0
    1.8268   -4.8298    0.0806 O   0  0  0  0  0  0  0  0  0  0  0  0
   -0.3680   -5.3429    0.5307 N   0  0  0  0  0  0  0  0  0  0  0  0
    1.1810   -2.0803    1.5718 H   0  0  0  0  0  0  0  0  0  0  0  0
    1.9530   -2.2622   -0.6509 H   0  0  0  0  0  0  0  0  0  0  0  0
   -0.9593   -3.2413   -0.4561 H   0  0  0  0  0  0  0  0  0  0  0  0
    0.0639   -3.6098   -1.8472 H   0  0  0  0  0  0  0  0  0  0  0  0
   -1.3443   -5.0900    0.4202 H   0  0  0  0  0  0  0  0  0  0  0  0
   -0.1719   -6.1829    1.0659 H   0  0  0  0  0  0  0  0  0  0  0  0
   -0.7953   -1.2596   -2.0593 N   0  0  0  0  0  0  0  0  0  0  0  0
   -1.4027   -0.3686   -3.0188 C   0  0  2  0  0  0  0  0  0  0  0  0
   -0.4350   -0.2006   -4.1827 C   0  0  0  0  0  0  0  0  0  0  0  0
    0.7736   -0.4026   -4.0848 O   0  0  0  0  0  0  0  0  0  0  0  0
   -1.7368    0.9757   -2.3912 C   0  0  0  0  0  0  0  0  0  0  0  0
   -1.2912   -2.1115   -1.8140 H   0  0  0  0  0  0  0  0  0  0  0  0
   -2.3169   -0.8587   -3.3710 H   0  0  0  0  0  0  0  0  0  0  0  0
   -0.8331    1.4817   -2.0324 H   0  0  0  0  0  0  0  0  0  0  0  0
   -2.2233    1.6404   -3.1127 H   0  0  0  0  0  0  0  0  0  0  0  0
   -2.4093    0.8501   -1.5358 H   0  0  0  0  0  0  0  0  0  0  0  0
   -1.0734    0.2432   -5.3323 N   0  0  0  0  0  0  0  0  0  0  0  0
   -0.3695    0.4910   -6.5688 C   0  0  0  0  0  0  0  0  0  0  0  0
   -2.0817    0.3662   -5.3281 H   0  0  0  0  0  0  0  0  0  0  0  0
   -0.0681    1.5479   -6.6143 H   0  0  0  0  0  0  0  0  0  0  0  0
    0.5250   -0.1475   -6.6157 H   0  0  0  0  0  0  0  0  0  0  0  0
   -1.0291    0.2610   -7.4186 H   0  0  0  0  0  0  0  0  0  0  0  0
  1  3  1  0  0  0  0
  1  7  1  0  0  0  0
  1  2  2  0  0  0  0
 21 22  1  0  0  0  0
 22 24  1  0  0  0  0
 22 23  2  0  0  0  0
 32 33  1  0  0  0  0
 33 41  1  0  0  0  0
 33 34  2  0  0  0  0
  8  9  1  0  0  0  0
  9 17  1  0  0  0  0
  9 10  2  0  0  0  0
 18 19  1  0  0  0  0
 19 31  1  0  0  0  0
 19 20  2  0  0  0  0
 32 35  1  0  0  0  0
  8 11  1  0  0  0  0
 41 42  1  0  0  0  0
 18 21  1  0  0  0  0
 31 32  1  0  0  0  0
  7  8  1  0  0  0  0
 17 18  1  0  0  0  0
  3  4  1  0  0  0  0
  3  5  1  0  0  0  0
  3  6  1  0  0  0  0
 35 38  1  0  0  0  0
 35 39  1  0  0  0  0
 35 40  1  0  0  0  0
 11 14  1  0  0  0  0
 11 15  1  0  0  0  0
 11 16  1  0  0  0  0
 42 44  1  0  0  0  0
 42 45  1  0  0  0  0
 42 46  1  0  0  0  0
 21 27  1  0  0  0  0
 21 28  1  0  0  0  0
 32 37  1  0  0  0  0
  8 13  1  0  0  0  0
 18 26  1  0  0  0  0
 24 29  1  0  0  0  0
 24 30  1  0  0  0  0
 41 43  1  0  0  0  0
  7 12  1  0  0  0  0
 31 36  1  0  0  0  0
 17 25  1  0  0  0  0
M  END
$$$$

  -OEChem-05262214473D

 46 45  0     1  0  0  0  0  0999 V2000
   -0.0543    1.9736    3.8406 C   0  0  0  0  0  0  0  0  0  0  0  0
    0.6744    1.6099    4.7562 O   0  0  0  0  0  0  0  0  0  0  0  0
   -0.5599    3.3779    3.8160 C   0  0  0  0  0  0  0  0  0  0  0  0
   -1.5202    3.4885    4.3450 H   0  0  0  0  0  0  0  0  0  0  0  0
    0.1282    4.0814    4.3116 H   0  0  0  0  0  0  0  0  0  0  0  0
   -0.7317    3.7994    2.8126 H   0  0  0  0  0  0  0  0  0  0  0  0
   -0.4812    1.1968    2.7762 N   0  0  0  0  0  0  0  0  0  0  0  0
   -0.1106   -0.1834    2.6051 C   0  0  2  0  0  0  0  0  0  0  0  0
   -0.0696   -0.4775    1.1113 C   0  0  0  0  0  0  0  0  0  0  0  0
   -0.6805    0.1900    0.2792 O   0  0  0  0  0  0  0  0  0  0  0  0
   -1.0852   -1.1101    3.3150 C   0  0  0  0  0  0  0  0  0  0  0  0
   -1.0883    1.6241    2.0791 H   0  0  0  0  0  0  0  0  0  0  0  0
    0.8937   -0.2959    3.0277 H   0  0  0  0  0  0  0  0  0  0  0  0
   -2.0970   -1.0114    2.9051 H   0  0  0  0  0  0  0  0  0  0  0  0
   -0.7860   -2.1580    3.2078 H   0  0  0  0  0  0  0  0  0  0  0  0
   -1.1357   -0.8775    4.3842 H   0  0  0  0  0  0  0  0  0  0  0  0
    0.6950   -1.6003    0.8178 N   0  0  0  0  0  0  0  0  0  0  0  0
    0.8777   -2.0908   -0.5246 C   0  0  2  0  0  0  0  0  0  0  0  0
    0.4366   -0.9894   -1.4803 C   0  0  0  0  0  0  0  0  0  0  0  0
    1.2087   -0.1507   -1.9407 O   0  0  0  0  0  0  0  0  0  0  0  0
    0.0823   -3.3721   -0.7758 C   0  0  0  0  0  0  0  0  0  0  0  0
    0.6313   -4.5728   -0.0255 C   0  0  0  0  0  0  0  0  0  0  0  0
    1.8268   -4.8298    0.0806 O   0  0  0  0  0  0  0  0  0  0  0  0
   -0.3680   -5.3429    0.5307 N   0  0  0  0  0  0  0  0  0  0  0  0
    1.1810   -2.0803    1.5718 H   0  0  0  0  0  0  0  0  0  0  0  0
    1.9530   -2.2622   -0.6509 H   0  0  0  0  0  0  0  0  0  0  0  0
   -0.9593   -3.2413   -0.4561 H   0  0  0  0  0  0  0  0  0  0  0  0
    0.0639   -3.6098   -1.8472 H   0  0  0  0  0  0  0  0  0  0  0  0
   -1.3443   -5.0900    0.4202 H   0  0  0  0  0  0  0  0  0  0  0  0
   -0.1719   -6.1829    1.0659 H   0  0  0  0  0  0  0  0  0  0  0  0
   -0.9108   -1.0808   -1.8001 N   0  0  0  0  0  0  0  0  0  0  0  0
   -1.5463   -0.1585   -2.7103 C   0  0  2  0  0  0  0  0  0  0  0  0
   -0.8077   -0.2264   -4.0405 C   0  0  0  0  0  0  0  0  0  0  0  0
    0.3507   -0.6242   -4.1450 O   0  0  0  0  0  0  0  0  0  0  0  0
   -1.5400    1.2580   -2.1568 C   0  0  0  0  0  0  0  0  0  0  0  0
   -1.4759   -1.8202   -1.3930 H   0  0  0  0  0  0  0  0  0  0  0  0
   -2.5761   -0.5066   -2.8455 H   0  0  0  0  0  0  0  0  0  0  0  0
   -0.5166    1.6239   -2.0146 H   0  0  0  0  0  0  0  0  0  0  0  0
   -2.0476    1.9514   -2.8354 H   0  0  0  0  0  0  0  0  0  0  0  0
   -2.0456    1.2993   -1.1860 H   0  0  0  0  0  0  0  0  0  0  0  0
   -1.5795    0.2500   -5.0909 N   0  0  0  0  0  0  0  0  0  0  0  0
   -1.0981    0.3009   -6.4517 C   0  0  0  0  0  0  0  0  0  0  0  0
   -2.5364    0.5422   -4.9155 H   0  0  0  0  0  0  0  0  0  0  0  0
   -0.6509    1.2869   -6.6462 H   0  0  0  0  0  0  0  0  0  0  0  0
   -0.3397   -0.4816   -6.6017 H   0  0  0  0  0  0  0  0  0  0  0  0
   -1.9371    0.1360   -7.1437 H   0  0  0  0  0  0  0  0  0  0  0  0
  1  3  1  0  0  0  0
  1  7  1  0  0  0  0
  1  2  2  0  0  0  0
 21 22  1  0  0  0  0
 22 24  1  0  0  0  0
 22 23  2  0  0  0  0
 32 33  1  0  0  0  0
 33 41  1  0  0  0  0
 33 34  2  0  0  0  0
  8  9  1  0  0  0  0
  9 17  1  0  0  0  0
  9 10  2  0  0  0  0
 18 19  1  0  0  0  0
 19 31  1  0  0  0  0
 19 20  2  0  0  0  0
 32 35  1  0  0  0  0
  8 11  1  0  0  0  0
 41 42  1  0  0  0  0
 18 21  1  0  0  0  0
 31 32  1  0  0  0  0
  7  8  1  0  0  0  0
 17 18  1  0  0  0  0
  3  4  1  0  0  0  0
  3  5  1  0  0  0  0
  3  6  1  0  0  0  0
 35 38  1  0  0  0  0
 35 39  1  0  0  0  0
 35 40  1  0  0  0  0
 11 14  1  0  0  0  0
 11 15  1  0  0  0  0
 11 16  1  0  0  0  0
 42 44  1  0  0  0  0
 42 45  1  0  0  0  0
 42 46  1  0  0  0  0
 21 27  1  0  0  0  0
 21 28  1  0  0  0  0
 32 37  1  0  0  0  0
  8 13  1  0  0  0  0
 18 26  1  0  0  0  0
 24 29  1  0  0  0  0
 24 30  1  0  0  0  0
 41 43  1  0  0  0  0
  7 12  1  0  0  0  0
 31 36  1  0  0  0  0
 17 25  1  0  0  0  0
M  END
$$$$

  -OEChem-05262214473D

 46 45  0     1  0  0  0  0  0999 V2000
   -0.0543    1.9736    3.8406 C   0  0  0  0  0  0  0  0  0  0  0  0
    0.6744    1.6099    4.7562 O   0  0  0  0  0  0  0  0  0  0  0  0
   -0.5599    3.3779    3.8160 C   0  0  0  0  0  0  0  0  0  0  0  0
   -1.5202    3.4885    4.3450 H   0  0  0  0  0  0  0  0  0  0  0  0
    0.1282    4.0814    4.3116 H   0  0  0  0  0  0  0  0  0  0  0  0
   -0.7317    3.7994    2.8126 H   0  0  0  0  0  0  0  0  0  0  0  0
   -0.4812    1.1968    2.7762 N   0  0  0  0  0  0  0  0  0  0  0  0
   -0.1106   -0.1834    2.6051 C   0  0  2  0  0  0  0  0  0  0  0  0
   -0.0696   -0.4775    1.1113 C   0  0  0  0  0  0  0  0  0  0  0  0
   -0.6805    0.1900    0.2792 O   0  0  0  0  0  0  0  0  0  0  0  0
   -1.0852   -1.1101    3.3150 C   0  0  0  0  0  0  0  0  0  0  0  0
   -1.0883    1.6241    2.0791 H   0  0  0  0  0  0  0  0  0  0  0  0
    0.8937   -0.2959    3.0277 H   0  0  0  0  0  0  0  0  0  0  0  0
   -2.0970   -1.0114    2.9051 H   0  0  0  0  0  0  0  0  0  0  0  0
   -0.7860   -2.1580    3.2078 H   0  0  0  0  0  0  0  0  0  0  0  0
   -1.1357   -0.8775    4.3842 H   0  0  0  0  0  0  0  0  0  0  0  0
    0.6950   -1.6003    0.8178 N   0  0  0  0  0  0  0  0  0  0  0  0
    0.8777   -2.0908   -0.5246 C   0  0  2  0  0  0  0  0  0  0  0  0
    0.4366   -0.9894   -1.4803 C   0  0  0  0  0  0  0  0  0  0  0  0
    1.2258   -0.3226   -2.1467 O   0  0  0  0  0  0  0  0  0  0  0  0
    0.0823   -3.3721   -0.7758 C   0  0  0  0  0  0  0  0  0  0  0  0
    0.6313   -4.5728   -0.0255 C   0  0  0  0  0  0  0  0  0  0  0  0
    1.8268   -4.8298    0.0806 O   0  0  0  0  0  0  0  0  0  0  0  0
   -0.3680   -5.3429    0.5307 N   0  0  0  0  0  0  0  0  0  0  0  0
    1.1810   -2.0803    1.5718 H   0  0  0  0  0  0  0  0  0  0  0  0
    1.9530   -2.2622   -0.6509 H   0  0  0  0  0  0  0  0  0  0  0  0
   -0.9593   -3.2413   -0.4561 H   0  0  0  0  0  0  0  0  0  0  0  0
    0.0639   -3.6098   -1.8472 H   0  0  0  0  0  0  0  0  0  0  0  0
   -1.3443   -5.0900    0.4202 H   0  0  0  0  0  0  0  0  0  0  0  0
   -0.1719   -6.1829    1.0659 H   0  0  0  0  0  0  0  0  0  0  0  0
   -0.9447   -0.8700   -1.5414 N   0  0  0  0  0  0  0  0  0  0  0  0
   -1.5931    0.0909   -2.4012 C   0  0  2  0  0  0  0  0  0  0  0  0
   -1.1453   -0.1802   -3.8314 C   0  0  0  0  0  0  0  0  0  0  0  0
   -0.1050   -0.7740   -4.1074 O   0  0  0  0  0  0  0  0  0  0  0  0
   -1.2601    1.5162   -1.9883 C   0  0  0  0  0  0  0  0  0  0  0  0
   -1.5283   -1.4773   -0.9737 H   0  0  0  0  0  0  0  0  0  0  0  0
   -2.6710   -0.0850   -2.3159 H   0  0  0  0  0  0  0  0  0  0  0  0
   -0.1844    1.7112   -2.0673 H   0  0  0  0  0  0  0  0  0  0  0  0
   -1.7755    2.2440   -2.6237 H   0  0  0  0  0  0  0  0  0  0  0  0
   -1.5559    1.7003   -0.9498 H   0  0  0  0  0  0  0  0  0  0  0  0
   -2.0221    0.3569   -4.7635 N   0  0  0  0  0  0  0  0  0  0  0  0
   -1.8108    0.2444   -6.1879 C   0  0  0  0  0  0  0  0  0  0  0  0
   -2.8699    0.8169   -4.4450 H   0  0  0  0  0  0  0  0  0  0  0  0
   -1.2621    1.1270   -6.5485 H   0  0  0  0  0  0  0  0  0  0  0  0
   -1.2266   -0.6628   -6.4013 H   0  0  0  0  0  0  0  0  0  0  0  0
   -2.7830    0.1832   -6.6989 H   0  0  0  0  0  0  0  0  0  0  0  0
  1  3  1  0  0  0  0
  1  7  1  0  0  0  0
  1  2  2  0  0  0  0
 21 22  1  0  0  0  0
 22 24  1  0  0  0  0
 22 23  2  0  0  0  0
 32 33  1  0  0  0  0
 33 41  1  0  0  0  0
 33 34  2  0  0  0  0
  8  9  1  0  0  0  0
  9 17  1  0  0  0  0
  9 10  2  0  0  0  0
 18 19  1  0  0  0  0
 19 31  1  0  0  0  0
 19 20  2  0  0  0  0
 32 35  1  0  0  0  0
  8 11  1  0  0  0  0
 41 42  1  0  0  0  0
 18 21  1  0  0  0  0
 31 32  1  0  0  0  0
  7  8  1  0  0  0  0
 17 18  1  0  0  0  0
  3  4  1  0  0  0  0
  3  5  1  0  0  0  0
  3  6  1  0  0  0  0
 35 38  1  0  0  0  0
 35 39  1  0  0  0  0
 35 40  1  0  0  0  0
 11 14  1  0  0  0  0
 11 15  1  0  0  0  0
 11 16  1  0  0  0  0
 42 44  1  0  0  0  0
 42 45  1  0  0  0  0
 42 46  1  0  0  0  0
 21 27  1  0  0  0  0
 21 28  1  0  0  0  0
 32 37  1  0  0  0  0
  8 13  1  0  0  0  0
 18 26  1  0  0  0  0
 24 29  1  0  0  0  0
 24 30  1  0  0  0  0
 41 43  1  0  0  0  0
  7 12  1  0  0  0  0
 31 36  1  0  0  0  0
 17 25  1  0  0  0  0
M  END
$$$$

  -OEChem-05262214473D

 46 45  0     1  0  0  0  0  0999 V2000
   -0.0543    1.9736    3.8406 C   0  0  0  0  0  0  0  0  0  0  0  0
    0.6744    1.6099    4.7562 O   0  0  0  0  0  0  0  0  0  0  0  0
   -0.5599    3.3779    3.8160 C   0  0  0  0  0  0  0  0  0  0  0  0
   -1.5202    3.4885    4.3450 H   0  0  0  0  0  0  0  0  0  0  0  0
    0.1282    4.0814    4.3116 H   0  0  0  0  0  0  0  0  0  0  0  0
   -0.7317    3.7994    2.8126 H   0  0  0  0  0  0  0  0  0  0  0  0
   -0.4812    1.1968    2.7762 N   0  0  0  0  0  0  0  0  0  0  0  0
   -0.1106   -0.1834    2.6051 C   0  0  2  0  0  0  0  0  0  0  0  0
   -0.0696   -0.4775    1.1113 C   0  0  0  0  0  0  0  0  0  0  0  0
   -0.6805    0.1900    0.2792 O   0  0  0  0  0  0  0  0  0  0  0  0
   -1.0852   -1.1101    3.3150 C   0  0  0  0  0  0  0  0  0  0  0  0
   -1.0883    1.6241    2.0791 H   0  0  0  0  0  0  0  0  0  0  0  0
    0.8937   -0.2959    3.0277 H   0  0  0  0  0  0  0  0  0  0  0  0
   -2.0970   -1.0114    2.9051 H   0  0  0  0  0  0  0  0  0  0  0  0
   -0.7860   -2.1580    3.2078 H   0  0  0  0  0  0  0  0  0  0  0  0
   -1.1357   -0.8775    4.3842 H   0  0  0  0  0  0  0  0  0  0  0  0
    0.6950   -1.6003    0.8178 N   0  0  0  0  0  0  0  0  0  0  0  0
    0.8777   -2.0908   -0.5246 C   0  0  2  0  0  0  0  0  0  0  0  0
    0.4366   -0.9894   -1.4803 C   0  0  0  0  0  0  0  0  0  0  0  0
    1.1759   -0.5068   -2.3360 O   0  0  0  0  0  0  0  0  0  0  0  0
    0.0823   -3.3721   -0.7758 C   0  0  0  0  0  0  0  0  0  0  0  0
    0.6313   -4.5728   -0.0255 C   0  0  0  0  0  0  0  0  0  0  0  0
    1.8268   -4.8298    0.0806 O   0  0  0  0  0  0  0  0  0  0  0  0
   -0.3680   -5.3429    0.5307 N   0  0  0  0  0  0  0  0  0  0  0  0
    1.1810   -2.0803    1.5718 H   0  0  0  0  0  0  0  0  0  0  0  0
    1.9530   -2.2622   -0.6509 H   0  0  0  0  0  0  0  0  0  0  0  0
   -0.9593   -3.2413   -0.4561 H   0  0  0  0  0  0  0  0  0  0  0  0
    0.0639   -3.6098   -1.8472 H   0  0  0  0  0  0  0  0  0  0  0  0
   -1.3443   -5.0900    0.4202 H   0  0  0  0  0  0  0  0  0  0  0  0
   -0.1719   -6.1829    1.0659 H   0  0  0  0  0  0  0  0  0  0  0  0
   -0.8948   -0.6414   -1.3010 N   0  0  0  0  0  0  0  0  0  0  0  0
   -1.5401    0.3626   -2.1126 C   0  0  2  0  0  0  0  0  0  0  0  0
   -1.4247   -0.0650   -3.5698 C   0  0  0  0  0  0  0  0  0  0  0  0
   -0.5624   -0.8420   -3.9746 O   0  0  0  0  0  0  0  0  0  0  0  0
   -0.9164    1.7328   -1.8973 C   0  0  0  0  0  0  0  0  0  0  0  0
   -1.4448   -1.1062   -0.5846 H   0  0  0  0  0  0  0  0  0  0  0  0
   -2.5951    0.3773   -1.8181 H   0  0  0  0  0  0  0  0  0  0  0  0
    0.1408    1.7376   -2.1868 H   0  0  0  0  0  0  0  0  0  0  0  0
   -1.4255    2.4984   -2.4921 H   0  0  0  0  0  0  0  0  0  0  0  0
   -0.9736    2.0258   -0.8434 H   0  0  0  0  0  0  0  0  0  0  0  0
   -2.3710    0.5565   -4.3725 N   0  0  0  0  0  0  0  0  0  0  0  0
   -2.4591    0.3254   -5.7955 C   0  0  0  0  0  0  0  0  0  0  0  0
   -3.0593    1.1717   -3.9488 H   0  0  0  0  0  0  0  0  0  0  0  0
   -1.8602    1.0791   -6.3277 H   0  0  0  0  0  0  0  0  0  0  0  0
   -2.0752   -0.6789   -6.0282 H   0  0  0  0  0  0  0  0  0  0  0  0
   -3.5092    0.3995   -6.1146 H   0  0  0  0  0  0  0  0  0  0  0  0
  1  3  1  0  0  0  0
  1  7  1  0  0  0  0
  1  2  2  0  0  0  0
 21 22  1  0  0  0  0
 22 24  1  0  0  0  0
 22 23  2  0  0  0  0
 32 33  1  0  0  0  0
 33 41  1  0  0  0  0
 33 34  2  0  0  0  0
  8  9  1  0  0  0  0
  9 17  1  0  0  0  0
  9 10  2  0  0  0  0
 18 19  1  0  0  0  0
 19 31  1  0  0  0  0
 19 20  2  0  0  0  0
 32 35  1  0  0  0  0
  8 11  1  0  0  0  0
 41 42  1  0  0  0  0
 18 21  1  0  0  0  0
 31 32  1  0  0  0  0
  7  8  1  0  0  0  0
 17 18  1  0  0  0  0
  3  4  1  0  0  0  0
  3  5  1  0  0  0  0
  3  6  1  0  0  0  0
 35 38  1  0  0  0  0
 35 39  1  0  0  0  0
 35 40  1  0  0  0  0
 11 14  1  0  0  0  0
 11 15  1  0  0  0  0
 11 16  1  0  0  0  0
 42 44  1  0  0  0  0
 42 45  1  0  0  0  0
 42 46  1  0  0  0  0
 21 27  1  0  0  0  0
 21 28  1  0  0  0  0
 32 37  1  0  0  0  0
  8 13  1  0  0  0  0
 18 26  1  0  0  0  0
 24 29  1  0  0  0  0
 24 30  1  0  0  0  0
 41 43  1  0  0  0  0
  7 12  1  0  0  0  0
 31 36  1  0  0  0  0
 17 25  1  0  0  0  0
M  END
$$$$

  -OEChem-05262214473D

 46 45  0     1  0  0  0  0  0999 V2000
   -0.0543    1.9736    3.8406 C   0  0  0  0  0  0  0  0  0  0  0  0
    0.6744    1.6099    4.7562 O   0  0  0  0  0  0  0  0  0  0  0  0
   -0.5599    3.3779    3.8160 C   0  0  0  0  0  0  0  0  0  0  0  0
   -1.5202    3.4885    4.3450 H   0  0  0  0  0  0  0  0  0  0  0  0
    0.1282    4.0814    4.3116 H   0  0  0  0  0  0  0  0  0  0  0  0
   -0.7317    3.7994    2.8126 H   0  0  0  0  0  0  0  0  0  0  0  0
   -0.4812    1.1968    2.7762 N   0  0  0  0  0  0  0  0  0  0  0  0
   -0.1106   -0.1834    2.6051 C   0  0  2  0  0  0  0  0  0  0  0  0
   -0.0696   -0.4775    1.1113 C   0  0  0  0  0  0  0  0  0  0  0  0
   -0.6805    0.1900    0.2792 O   0  0  0  0  0  0  0  0  0  0  0  0
   -1.0852   -1.1101    3.3150 C   0  0  0  0  0  0  0  0  0  0  0  0
   -1.0883    1.6241    2.0791 H   0  0  0  0  0  0  0  0  0  0  0  0
    0.8937   -0.2959    3.0277 H   0  0  0  0  0  0  0  0  0  0  0  0
   -2.0970   -1.0114    2.9051 H   0  0  0  0  0  0  0  0  0  0  0  0
   -0.7860   -2.1580    3.2078 H   0  0  0  0  0  0  0  0  0  0  0  0
   -1.1357   -0.8775    4.3842 H   0  0  0  0  0  0  0  0  0  0  0  0
    0.6950   -1.6003    0.8178 N   0  0  0  0  0  0  0  0  0  0  0  0
    0.8777   -2.0908   -0.5246 C   0  0  2  0  0  0  0  0  0  0  0  0
    0.4366   -0.9894   -1.4803 C   0  0  0  0  0  0  0  0  0  0  0  0
    1.0623   -0.6908   -2.4957 O   0  0  0  0  0  0  0  0  0  0  0  0
    0.0823   -3.3721   -0.7758 C   0  0  0  0  0  0  0  0  0  0  0  0
    0.6313   -4.5728   -0.0255 C   0  0  0  0  0  0  0  0  0  0  0  0
    1.8268   -4.8298    0.0806 O   0  0  0  0  0  0  0  0  0  0  0  0
   -0.3680   -5.3429    0.5307 N   0  0  0  0  0  0  0  0  0  0  0  0
    1.1810   -2.0803    1.5718 H   0  0  0  0  0  0  0  0  0  0  0  0
    1.9530   -2.2622   -0.6509 H   0  0  0  0  0  0  0  0  0  0  0  0
   -0.9593   -3.2413   -0.4561 H   0  0  0  0  0  0  0  0  0  0  0  0
    0.0639   -3.6098   -1.8472 H   0  0  0  0  0  0  0  0  0  0  0  0
   -1.3443   -5.0900    0.4202 H   0  0  0  0  0  0  0  0  0  0  0  0
   -0.1719   -6.1829    1.0659 H   0  0  0  0  0  0  0  0  0  0  0  0
   -0.7646   -0.4107   -1.0953 N   0  0  0  0  0  0  0  0  0  0  0  0
   -1.3907    0.6381   -1.8641 C   0  0  2  0  0  0  0  0  0  0  0  0
   -1.6270    0.1112   -3.2734 C   0  0  0  0  0  0  0  0  0  0  0  0
   -0.9905   -0.8234   -3.7556 O   0  0  0  0  0  0  0  0  0  0  0  0
   -0.5322    1.8931   -1.8899 C   0  0  0  0  0  0  0  0  0  0  0  0
   -1.2311   -0.7321   -0.2522 H   0  0  0  0  0  0  0  0  0  0  0  0
   -2.3536    0.8489   -1.3861 H   0  0  0  0  0  0  0  0  0  0  0  0
    0.4367    1.7014   -2.3652 H   0  0  0  0  0  0  0  0  0  0  0  0
   -1.0215    2.6971   -2.4495 H   0  0  0  0  0  0  0  0  0  0  0  0
   -0.3384    2.2537   -0.8739 H   0  0  0  0  0  0  0  0  0  0  0  0
   -2.6025    0.8352   -3.9445 N   0  0  0  0  0  0  0  0  0  0  0  0
   -2.9987    0.5382   -5.3012 C   0  0  0  0  0  0  0  0  0  0  0  0
   -3.0918    1.5823   -3.4606 H   0  0  0  0  0  0  0  0  0  0  0  0
   -2.4044    1.1465   -5.9989 H   0  0  0  0  0  0  0  0  0  0  0  0
   -2.8277   -0.5286   -5.5078 H   0  0  0  0  0  0  0  0  0  0  0  0
   -4.0662    0.7701   -5.4304 H   0  0  0  0  0  0  0  0  0  0  0  0
  1  3  1  0  0  0  0
  1  7  1  0  0  0  0
  1  2  2  0  0  0  0
 21 22  1  0  0  0  0
 22 24  1  0  0  0  0
 22 23  2  0  0  0  0
 32 33  1  0  0  0  0
 33 41  1  0  0  0  0
 33 34  2  0  0  0  0
  8  9  1  0  0  0  0
  9 17  1  0  0  0  0
  9 10  2  0  0  0  0
 18 19  1  0  0  0  0
 19 31  1  0  0  0  0
 19 20  2  0  0  0  0
 32 35  1  0  0  0  0
  8 11  1  0  0  0  0
 41 42  1  0  0  0  0
 18 21  1  0  0  0  0
 31 32  1  0  0  0  0
  7  8  1  0  0  0  0
 17 18  1  0  0  0  0
  3  4  1  0  0  0  0
  3  5  1  0  0  0  0
  3  6  1  0  0  0  0
 35 38  1  0  0  0  0
 35 39  1  0  0  0  0
 35 40  1  0  0  0  0
 11 14  1  0  0  0  0
 11 15  1  0  0  0  0
 11 16  1  0  0  0  0
 42 44  1  0  0  0  0
 42 45  1  0  0  0  0
 42 46  1  0  0  0  0
 21 27  1  0  0  0  0
 21 28  1  0  0  0  0
 32 37  1  0  0  0  0
  8 13  1  0  0  0  0
 18 26  1  0  0  0  0
 24 29  1  0  0  0  0
 24 30  1  0  0  0  0
 41 43  1  0  0  0  0
  7 12  1  0  0  0  0
 31 36  1  0  0  0  0
 17 25  1  0  0  0  0
M  END
$$$$

  -OEChem-05262214473D

 46 45  0     1  0  0  0  0  0999 V2000
   -0.0543    1.9736    3.8406 C   0  0  0  0  0  0  0  0  0  0  0  0
    0.6744    1.6099    4.7562 O   0  0  0  0  0  0  0  0  0  0  0  0
   -0.5599    3.3779    3.8160 C   0  0  0  0  0  0  0  0  0  0  0  0
   -1.5202    3.4885    4.3450 H   0  0  0  0  0  0  0  0  0  0  0  0
    0.1282    4.0814    4.3116 H   0  0  0  0  0  0  0  0  0  0  0  0
   -0.7317    3.7994    2.8126 H   0  0  0  0  0  0  0  0  0  0  0  0
   -0.4812    1.1968    2.7762 N   0  0  0  0  0  0  0  0  0  0  0  0
   -0.1106   -0.1834    2.6051 C   0  0  2  0  0  0  0  0  0  0  0  0
   -0.0696   -0.4775    1.1113 C   0  0  0  0  0  0  0  0  0  0  0  0
   -0.6805    0.1900    0.2792 O   0  0  0  0  0  0  0  0  0  0  0  0
   -1.0852   -1.1101    3.3150 C   0  0  0  0  0  0  0  0  0  0  0  0
   -1.0883    1.6241    2.0791 H   0  0  0  0  0  0  0  0  0  0  0  0
    0.8937   -0.2959    3.0277 H   0  0  0  0  0  0  0  0  0  0  0  0
   -2.0970   -1.0114    2.9051 H   0  0  0  0  0  0  0  0  0  0  0  0
   -0.7860   -2.1580    3.2078 H   0  0  0  0  0  0  0  0  0  0  0  0
   -1.1357   -0.8775    4.3842 H   0  0  0  0  0  0  0  0  0  0  0  0
    0.6950   -1.6003    0.8178 N   0  0  0  0  0  0  0  0  0  0  0  0
    0.8777   -2.0908   -0.5246 C   0  0  2  0  0  0  0  0  0  0  0  0
    0.4366   -0.9894   -1.4803 C   0  0  0  0  0  0  0  0  0  0  0  0
    0.8928   -0.8621   -2.6149 O   0  0  0  0  0  0  0  0  0  0  0  0
    0.0823   -3.3721   -0.7758 C   0  0  0  0  0  0  0  0  0  0  0  0
    0.6313   -4.5728   -0.0255 C   0  0  0  0  0  0  0  0  0  0  0  0
    1.8268   -4.8298    0.0806 O   0  0  0  0  0  0  0  0  0  0  0  0
   -0.3680   -5.3429    0.5307 N   0  0  0  0  0  0  0  0  0  0  0  0
    1.1810   -2.0803    1.5718 H   0  0  0  0  0  0  0  0  0  0  0  0
    1.9530   -2.2622   -0.6509 H   0  0  0  0  0  0  0  0  0  0  0  0
   -0.9593   -3.2413   -0.4561 H   0  0  0  0  0  0  0  0  0  0  0  0
    0.0639   -3.6098   -1.8472 H   0  0  0  0  0  0  0  0  0  0  0  0
   -1.3443   -5.0900    0.4202 H   0  0  0  0  0  0  0  0  0  0  0  0
   -0.1719   -6.1829    1.0659 H   0  0  0  0  0  0  0  0  0  0  0  0
   -0.5628   -0.1937   -0.9382 N   0  0  0  0  0  0  0  0  0  0  0  0
   -1.1552    0.8985   -1.6727 C   0  0  2  0  0  0  0  0  0  0  0  0
   -1.7383    0.3364   -2.9624 C   0  0  0  0  0  0  0  0  0  0  0  0
   -1.3600   -0.7195   -3.4654 O   0  0  0  0  0  0  0  0  0  0  0  0
   -0.1336    1.9861   -1.9667 C   0  0  0  0  0  0  0  0  0  0  0  0
   -0.9017   -0.3806    0.0009 H   0  0  0  0  0  0  0  0  0  0  0  0
   -1.9629    1.2975   -1.0494 H   0  0  0  0  0  0  0  0  0  0  0  0
    0.6834    1.6050   -2.5901 H   0  0  0  0  0  0  0  0  0  0  0  0
   -0.5910    2.8267   -2.4988 H   0  0  0  0  0  0  0  0  0  0  0  0
    0.3064    2.3684   -1.0393 H   0  0  0  0  0  0  0  0  0  0  0  0
   -2.7007    1.1741   -3.5086 N   0  0  0  0  0  0  0  0  0  0  0  0
   -3.3929    0.8684   -4.7388 C   0  0  0  0  0  0  0  0  0  0  0  0
   -2.9653    2.0207   -3.0137 H   0  0  0  0  0  0  0  0  0  0  0  0
   -2.8576    1.3246   -5.5845 H   0  0  0  0  0  0  0  0  0  0  0  0
   -3.4328   -0.2224   -4.8756 H   0  0  0  0  0  0  0  0  0  0  0  0
   -4.4161    1.2698   -4.6931 H   0  0  0  0  0  0  0  0  0  0  0  0
  1  3  1  0  0  0  0
  1  7  1  0  0  0  0
  1  2  2  0  0  0  0
 21 22  1  0  0  0  0
 22 24  1  0  0  0  0
 22 23  2  0  0  0  0
 32 33  1  0  0  0  0
 33 41  1  0  0  0  0
 33 34  2  0  0  0  0
  8  9  1  0  0  0  0
  9 17  1  0  0  0  0
  9 10  2  0  0  0  0
 18 19  1  0  0  0  0
 19 31  1  0  0  0  0
 19 20  2  0  0  0  0
 32 35  1  0  0  0  0
  8 11  1  0  0  0  0
 41 42  1  0  0  0  0
 18 21  1  0  0  0  0
 31 32  1  0  0  0  0
  7  8  1  0  0  0  0
 17 18  1  0  0  0  0
  3  4  1  0  0  0  0
  3  5  1  0  0  0  0
  3  6  1  0  0  0  0
 35 38  1  0  0  0  0
 35 39  1  0  0  0  0
 35 40  1  0  0  0  0
 11 14  1  0  0  0  0
 11 15  1  0  0  0  0
 11 16  1  0  0  0  0
 42 44  1  0  0  0  0
 42 45  1  0  0  0  0
 42 46  1  0  0  0  0
 21 27  1  0  0  0  0
 21 28  1  0  0  0  0
 32 37  1  0  0  0  0
  8 13  1  0  0  0  0
 18 26  1  0  0  0  0
 24 29  1  0  0  0  0
 24 30  1  0  0  0  0
 41 43  1  0  0  0  0
  7 12  1  0  0  0  0
 31 36  1  0  0  0  0
 17 25  1  0  0  0  0
M  END
$$$$

  -OEChem-05262214473D

 46 45  0     1  0  0  0  0  0999 V2000
   -0.0543    1.9736    3.8406 C   0  0  0  0  0  0  0  0  0  0  0  0
    0.6744    1.6099    4.7562 O   0  0  0  0  0  0  0  0  0  0  0  0
   -0.5599    3.3779    3.8160 C   0  0  0  0  0  0  0  0  0  0  0  0
   -1.5202    3.4885    4.3450 H   0  0  0  0  0  0  0  0  0  0  0  0
    0.1282    4.0814    4.3116 H   0  0  0  0  0  0  0  0  0  0  0  0
   -0.7317    3.7994    2.8126 H   0  0  0  0  0  0  0  0  0  0  0  0
   -0.4812    1.1968    2.7762 N   0  0  0  0  0  0  0  0  0  0  0  0
   -0.1106   -0.1834    2.6051 C   0  0  2  0  0  0  0  0  0  0  0  0
   -0.0696   -0.4775    1.1113 C   0  0  0  0  0  0  0  0  0  0  0  0
   -0.6805    0.1900    0.2792 O   0  0  0  0  0  0  0  0  0  0  0  0
   -1.0852   -1.1101    3.3150 C   0  0  0  0  0  0  0  0  0  0  0  0
   -1.0883    1.6241    2.0791 H   0  0  0  0  0  0  0  0  0  0  0  0
    0.8937   -0.2959    3.0277 H   0  0  0  0  0  0  0  0  0  0  0  0
   -2.0970   -1.0114    2.9051 H   0  0  0  0  0  0  0  0  0  0  0  0
   -0.7860   -2.1580    3.2078 H   0  0  0  0  0  0  0  0  0  0  0  0
   -1.1357   -0.8775    4.3842 H   0  0  0  0  0  0  0  0  0  0  0  0
    0.6950   -1.6003    0.8178 N   0  0  0  0  0  0  0  0  0  0  0  0
    0.8777   -2.0908   -0.5246 C   0  0  2  0  0  0  0  0  0  0  0  0
    0.4366   -0.9894   -1.4803 C   0  0  0  0  0  0  0  0  0  0  0  0
    0.6791   -1.0090   -2.6855 O   0  0  0  0  0  0  0  0  0  0  0  0
    0.0823   -3.3721   -0.7758 C   0  0  0  0  0  0  0  0  0  0  0  0
    0.6313   -4.5728   -0.0255 C   0  0  0  0  0  0  0  0  0  0  0  0
    1.8268   -4.8298    0.0806 O   0  0  0  0  0  0  0  0  0  0  0  0
   -0.3680   -5.3429    0.5307 N   0  0  0  0  0  0  0  0  0  0  0  0
    1.1810   -2.0803    1.5718 H   0  0  0  0  0  0  0  0  0  0  0  0
    1.9530   -2.2622   -0.6509 H   0  0  0  0  0  0  0  0  0  0  0  0
   -0.9593   -3.2413   -0.4561 H   0  0  0  0  0  0  0  0  0  0  0  0
    0.0639   -3.6098   -1.8472 H   0  0  0  0  0  0  0  0  0  0  0  0
   -1.3443   -5.0900    0.4202 H   0  0  0  0  0  0  0  0  0  0  0  0
   -0.1719   -6.1829    1.0659 H   0  0  0  0  0  0  0  0  0  0  0  0
   -0.3033   -0.0049   -0.8405 N   0  0  0  0  0  0  0  0  0  0  0  0
   -0.8496    1.1262   -1.5513 C   0  0  2  0  0  0  0  0  0  0  0  0
   -1.7511    0.5954   -2.6581 C   0  0  0  0  0  0  0  0  0  0  0  0
   -1.6457   -0.5374   -3.1237 O   0  0  0  0  0  0  0  0  0  0  0  0
    0.2520    2.0054   -2.1223 C   0  0  0  0  0  0  0  0  0  0  0  0
   -0.4790   -0.0756    0.1574 H   0  0  0  0  0  0  0  0  0  0  0  0
   -1.4497    1.6926   -0.8309 H   0  0  0  0  0  0  0  0  0  0  0  0
    0.8639    1.4550   -2.8463 H   0  0  0  0  0  0  0  0  0  0  0  0
   -0.1635    2.8782   -2.6367 H   0  0  0  0  0  0  0  0  0  0  0  0
    0.9170    2.3621   -1.3283 H   0  0  0  0  0  0  0  0  0  0  0  0
   -2.6589    1.5501   -3.0946 N   0  0  0  0  0  0  0  0  0  0  0  0
   -3.6149    1.2935   -4.1465 C   0  0  0  0  0  0  0  0  0  0  0  0
   -2.6882    2.4572   -2.6386 H   0  0  0  0  0  0  0  0  0  0  0  0
   -3.1889    1.6012   -5.1129 H   0  0  0  0  0  0  0  0  0  0  0  0
   -3.8492    0.2191   -4.1747 H   0  0  0  0  0  0  0  0  0  0  0  0
   -4.5349    1.8645   -3.9530 H   0  0  0  0  0  0  0  0  0  0  0  0
  1  3  1  0  0  0  0
  1  7  1  0  0  0  0
  1  2  2  0  0  0  0
 21 22  1  0  0  0  0
 22 24  1  0  0  0  0
 22 23  2  0  0  0  0
 32 33  1  0  0  0  0
 33 41  1  0  0  0  0
 33 34  2  0  0  0  0
  8  9  1  0  0  0  0
  9 17  1  0  0  0  0
  9 10  2  0  0  0  0
 18 19  1  0  0  0  0
 19 31  1  0  0  0  0
 19 20  2  0  0  0  0
 32 35  1  0  0  0  0
  8 11  1  0  0  0  0
 41 42  1  0  0  0  0
 18 21  1  0  0  0  0
 31 32  1  0  0  0  0
  7  8  1  0  0  0  0
 17 18  1  0  0  0  0
  3  4  1  0  0  0  0
  3  5  1  0  0  0  0
  3  6  1  0  0  0  0
 35 38  1  0  0  0  0
 35 39  1  0  0  0  0
 35 40  1  0  0  0  0
 11 14  1  0  0  0  0
 11 15  1  0  0  0  0
 11 16  1  0  0  0  0
 42 44  1  0  0  0  0
 42 45  1  0  0  0  0
 42 46  1  0  0  0  0
 21 27  1  0  0  0  0
 21 28  1  0  0  0  0
 32 37  1  0  0  0  0
  8 13  1  0  0  0  0
 18 26  1  0  0  0  0
 24 29  1  0  0  0  0
 24 30  1  0  0  0  0
 41 43  1  0  0  0  0
  7 12  1  0  0  0  0
 31 36  1  0  0  0  0
 17 25  1  0  0  0  0
M  END
$$$$

  -OEChem-05262214473D

 46 45  0     1  0  0  0  0  0999 V2000
   -0.0543    1.9736    3.8406 C   0  0  0  0  0  0  0  0  0  0  0  0
    0.6744    1.6099    4.7562 O   0  0  0  0  0  0  0  0  0  0  0  0
   -0.5599    3.3779    3.8160 C   0  0  0  0  0  0  0  0  0  0  0  0
   -1.5202    3.4885    4.3450 H   0  0  0  0  0  0  0  0  0  0  0  0
    0.1282    4.0814    4.3116 H   0  0  0  0  0  0  0  0  0  0  0  0
   -0.7317    3.7994    2.8126 H   0  0  0  0  0  0  0  0  0  0  0  0
   -0.4812    1.1968    2.7762 N   0  0  0  0  0  0  0  0  0  0  0  0
   -0.1106   -0.1834    2.6051 C   0  0  2  0  0  0  0  0  0  0  0  0
   -0.0696   -0.4775    1.1113 C   0  0  0  0  0  0  0  0  0  0  0  0
   -0.6805    0.1900    0.2792 O   0  0  0  0  0  0  0  0  0  0  0  0
   -1.0852   -1.1101    3.3150 C   0  0  0  0  0  0  0  0  0  0  0  0
   -1.0883    1.6241    2.0791 H   0  0  0  0  0  0  0  0  0  0  0  0
    0.8937   -0.2959    3.0277 H   0  0  0  0  0  0  0  0  0  0  0  0
   -2.0970   -1.0114    2.9051 H   0  0  0  0  0  0  0  0  0  0  0  0
   -0.7860   -2.1580    3.2078 H   0  0  0  0  0  0  0  0  0  0  0  0
   -1.1357   -0.8775    4.3842 H   0  0  0  0  0  0  0  0  0  0  0  0
    0.6950   -1.6003    0.8178 N   0  0  0  0  0  0  0  0  0  0  0  0
    0.8777   -2.0908   -0.5246 C   0  0  2  0  0  0  0  0  0  0  0  0
    0.4366   -0.9894   -1.4803 C   0  0  0  0  0  0  0  0  0  0  0  0
    0.4355   -1.1214   -2.7027 O   0  0  0  0  0  0  0  0  0  0  0  0
    0.0823   -3.3721   -0.7758 C   0  0  0  0  0  0  0  0  0  0  0  0
    0.6313   -4.5728   -0.0255 C   0  0  0  0  0  0  0  0  0  0  0  0
    1.8268   -4.8298    0.0806 O   0  0  0  0  0  0  0  0  0  0  0  0
   -0.3680   -5.3429    0.5307 N   0  0  0  0  0  0  0  0  0  0  0  0
    1.1810   -2.0803    1.5718 H   0  0  0  0  0  0  0  0  0  0  0  0
    1.9530   -2.2622   -0.6509 H   0  0  0  0  0  0  0  0  0  0  0  0
   -0.9593   -3.2413   -0.4561 H   0  0  0  0  0  0  0  0  0  0  0  0
    0.0639   -3.6098   -1.8472 H   0  0  0  0  0  0  0  0  0  0  0  0
   -1.3443   -5.0900    0.4202 H   0  0  0  0  0  0  0  0  0  0  0  0
   -0.1719   -6.1829    1.0659 H   0  0  0  0  0  0  0  0  0  0  0  0
   -0.0037    0.1425   -0.8088 N   0  0  0  0  0  0  0  0  0  0  0  0
   -0.4947    1.3056   -1.5083 C   0  0  2  0  0  0  0  0  0  0  0  0
   -1.6645    0.8704   -2.3812 C   0  0  0  0  0  0  0  0  0  0  0  0
   -1.8282   -0.2895   -2.7539 O   0  0  0  0  0  0  0  0  0  0  0  0
    0.5986    1.9498   -2.3463 C   0  0  0  0  0  0  0  0  0  0  0  0
    0.0080    0.1622    0.2067 H   0  0  0  0  0  0  0  0  0  0  0  0
   -0.8489    2.0074   -0.7454 H   0  0  0  0  0  0  0  0  0  0  0  0
    0.9660    1.2616   -3.1163 H   0  0  0  0  0  0  0  0  0  0  0  0
    0.2321    2.8482   -2.8538 H   0  0  0  0  0  0  0  0  0  0  0  0
    1.4516    2.2352   -1.7213 H   0  0  0  0  0  0  0  0  0  0  0  0
   -2.4801    1.9374   -2.7307 N   0  0  0  0  0  0  0  0  0  0  0  0
   -3.6494    1.7845   -3.5647 C   0  0  0  0  0  0  0  0  0  0  0  0
   -2.2795    2.8619   -2.3608 H   0  0  0  0  0  0  0  0  0  0  0  0
   -3.3757    1.9576   -4.6160 H   0  0  0  0  0  0  0  0  0  0  0  0
   -4.0487    0.7656   -3.4528 H   0  0  0  0  0  0  0  0  0  0  0  0
   -4.4146    2.5137   -3.2603 H   0  0  0  0  0  0  0  0  0  0  0  0
  1  3  1  0  0  0  0
  1  7  1  0  0  0  0
  1  2  2  0  0  0  0
 21 22  1  0  0  0  0
 22 24  1  0  0  0  0
 22 23  2  0  0  0  0
 32 33  1  0  0  0  0
 33 41  1  0  0  0  0
 33 34  2  0  0  0  0
  8  9  1  0  0  0  0
  9 17  1  0  0  0  0
  9 10  2  0  0  0  0
 18 19  1  0  0  0  0
 19 31  1  0  0  0  0
 19 20  2  0  0  0  0
 32 35  1  0  0  0  0
  8 11  1  0  0  0  0
 41 42  1  0  0  0  0
 18 21  1  0  0  0  0
 31 32  1  0  0  0  0
  7  8  1  0  0  0  0
 17 18  1  0  0  0  0
  3  4  1  0  0  0  0
  3  5  1  0  0  0  0
  3  6  1  0  0  0  0
 35 38  1  0  0  0  0
 35 39  1  0  0  0  0
 35 40  1  0  0  0  0
 11 14  1  0  0  0  0
 11 15  1  0  0  0  0
 11 16  1  0  0  0  0
 42 44  1  0  0  0  0
 42 45  1  0  0  0  0
 42 46  1  0  0  0  0
 21 27  1  0  0  0  0
 21 28  1  0  0  0  0
 32 37  1  0  0  0  0
  8 13  1  0  0  0  0
 18 26  1  0  0  0  0
 24 29  1  0  0  0  0
 24 30  1  0  0  0  0
 41 43  1  0  0  0  0
  7 12  1  0  0  0  0
 31 36  1  0  0  0  0
 17 25  1  0  0  0  0
M  END
$$$$

  -OEChem-05262214473D

 46 45  0     1  0  0  0  0  0999 V2000
   -0.0543    1.9736    3.8406 C   0  0  0  0  0  0  0  0  0  0  0  0
    0.6744    1.6099    4.7562 O   0  0  0  0  0  0  0  0  0  0  0  0
   -0.5599    3.3779    3.8160 C   0  0  0  0  0  0  0  0  0  0  0  0
   -1.5202    3.4885    4.3450 H   0  0  0  0  0  0  0  0  0  0  0  0
    0.1282    4.0814    4.3116 H   0  0  0  0  0  0  0  0  0  0  0  0
   -0.7317    3.7994    2.8126 H   0  0  0  0  0  0  0  0  0  0  0  0
   -0.4812    1.1968    2.7762 N   0  0  0  0  0  0  0  0  0  0  0  0
   -0.1106   -0.1834    2.6051 C   0  0  2  0  0  0  0  0  0  0  0  0
   -0.0696   -0.4775    1.1113 C   0  0  0  0  0  0  0  0  0  0  0  0
   -0.6805    0.1900    0.2792 O   0  0  0  0  0  0  0  0  0  0  0  0
   -1.0852   -1.1101    3.3150 C   0  0  0  0  0  0  0  0  0  0  0  0
   -1.0883    1.6241    2.0791 H   0  0  0  0  0  0  0  0  0  0  0  0
    0.8937   -0.2959    3.0277 H   0  0  0  0  0  0  0  0  0  0  0  0
   -2.0970   -1.0114    2.9051 H   0  0  0  0  0  0  0  0  0  0  0  0
   -0.7860   -2.1580    3.2078 H   0  0  0  0  0  0  0  0  0  0  0  0
   -1.1357   -0.8775    4.3842 H   0  0  0  0  0  0  0  0  0  0  0  0
    0.6950   -1.6003    0.8178 N   0  0  0  0  0  0  0  0  0  0  0  0
    0.8777   -2.0908   -0.5246 C   0  0  2  0  0  0  0  0  0  0  0  0
    0.4366   -0.9894   -1.4803 C   0  0  0  0  0  0  0  0  0  0  0  0
    0.1787   -1.1918   -2.6653 O   0  0  0  0  0  0  0  0  0  0  0  0
    0.0823   -3.3721   -0.7758 C   0  0  0  0  0  0  0  0  0  0  0  0
    0.6313   -4.5728   -0.0255 C   0  0  0  0  0  0  0  0  0  0  0  0
    1.8268   -4.8298    0.0806 O   0  0  0  0  0  0  0  0  0  0  0  0
   -0.3680   -5.3429    0.5307 N   0  0  0  0  0  0  0  0  0  0  0  0
    1.1810   -2.0803    1.5718 H   0  0  0  0  0  0  0  0  0  0  0  0
    1.9530   -2.2622   -0.6509 H   0  0  0  0  0  0  0  0  0  0  0  0
   -0.9593   -3.2413   -0.4561 H   0  0  0  0  0  0  0  0  0  0  0  0
    0.0639   -3.6098   -1.8472 H   0  0  0  0  0  0  0  0  0  0  0  0
   -1.3443   -5.0900    0.4202 H   0  0  0  0  0  0  0  0  0  0  0  0
   -0.1719   -6.1829    1.0659 H   0  0  0  0  0  0  0  0  0  0  0  0
    0.3155    0.2387   -0.8453 N   0  0  0  0  0  0  0  0  0  0  0  0
   -0.1148    1.4244   -1.5467 C   0  0  2  0  0  0  0  0  0  0  0  0
   -1.4843    1.1427   -2.1505 C   0  0  0  0  0  0  0  0  0  0  0  0
   -1.8950    0.0072   -2.3810 O   0  0  0  0  0  0  0  0  0  0  0  0
    0.8824    1.8230   -2.6234 C   0  0  0  0  0  0  0  0  0  0  0  0
    0.5262    0.3164    0.1453 H   0  0  0  0  0  0  0  0  0  0  0  0
   -0.2015    2.2202   -0.7989 H   0  0  0  0  0  0  0  0  0  0  0  0
    0.9827    1.0379   -3.3817 H   0  0  0  0  0  0  0  0  0  0  0  0
    0.5688    2.7388   -3.1353 H   0  0  0  0  0  0  0  0  0  0  0  0
    1.8739    1.9963   -2.1914 H   0  0  0  0  0  0  0  0  0  0  0  0
   -2.1764    2.3098   -2.4417 N   0  0  0  0  0  0  0  0  0  0  0  0
   -3.4941    2.3080   -3.0331 C   0  0  0  0  0  0  0  0  0  0  0  0
   -1.7670    3.2073   -2.1992 H   0  0  0  0  0  0  0  0  0  0  0  0
   -3.4054    2.3693   -4.1278 H   0  0  0  0  0  0  0  0  0  0  0  0
   -4.0175    1.3800   -2.7592 H   0  0  0  0  0  0  0  0  0  0  0  0
   -4.0634    3.1731   -2.6624 H   0  0  0  0  0  0  0  0  0  0  0  0
  1  3  1  0  0  0  0
  1  7  1  0  0  0  0
  1  2  2  0  0  0  0
 21 22  1  0  0  0  0
 22 24  1  0  0  0  0
 22 23  2  0  0  0  0
 32 33  1  0  0  0  0
 33 41  1  0  0  0  0
 33 34  2  0  0  0  0
  8  9  1  0  0  0  0
  9 17  1  0  0  0  0
  9 10  2  0  0  0  0
 18 19  1  0  0  0  0
 19 31  1  0  0  0  0
 19 20  2  0  0  0  0
 32 35  1  0  0  0  0
  8 11  1  0  0  0  0
 41 42  1  0  0  0  0
 18 21  1  0  0  0  0
 31 32  1  0  0  0  0
  7  8  1  0  0  0  0
 17 18  1  0  0  0  0
  3  4  1  0  0  0  0
  3  5  1  0  0  0  0
  3  6  1  0  0  0  0
 35 38  1  0  0  0  0
 35 39  1  0  0  0  0
 35 40  1  0  0  0  0
 11 14  1  0  0  0  0
 11 15  1  0  0  0  0
 11 16  1  0  0  0  0
 42 44  1  0  0  0  0
 42 45  1  0  0  0  0
 42 46  1  0  0  0  0
 21 27  1  0  0  0  0
 21 28  1  0  0  0  0
 32 37  1  0  0  0  0
  8 13  1  0  0  0  0
 18 26  1  0  0  0  0
 24 29  1  0  0  0  0
 24 30  1  0  0  0  0
 41 43  1  0  0  0  0
  7 12  1  0  0  0  0
 31 36  1  0  0  0  0
 17 25  1  0  0  0  0
M  END
$$$$

  -OEChem-05262214473D

 46 45  0     1  0  0  0  0  0999 V2000
   -0.0543    1.9736    3.8406 C   0  0  0  0  0  0  0  0  0  0  0  0
    0.6744    1.6099    4.7562 O   0  0  0  0  0  0  0  0  0  0  0  0
   -0.5599    3.3779    3.8160 C   0  0  0  0  0  0  0  0  0  0  0  0
   -1.5202    3.4885    4.3450 H   0  0  0  0  0  0  0  0  0  0  0  0
    0.1282    4.0814    4.3116 H   0  0  0  0  0  0  0  0  0  0  0  0
   -0.7317    3.7994    2.8126 H   0  0  0  0  0  0  0  0  0  0  0  0
   -0.4812    1.1968    2.7762 N   0  0  0  0  0  0  0  0  0  0  0  0
   -0.1106   -0.1834    2.6051 C   0  0  2  0  0  0  0  0  0  0  0  0
   -0.0696   -0.4775    1.1113 C   0  0  0  0  0  0  0  0  0  0  0  0
   -0.6805    0.1900    0.2792 O   0  0  0  0  0  0  0  0  0  0  0  0
   -1.0852   -1.1101    3.3150 C   0  0  0  0  0  0  0  0  0  0  0  0
   -1.0883    1.6241    2.0791 H   0  0  0  0  0  0  0  0  0  0  0  0
    0.8937   -0.2959    3.0277 H   0  0  0  0  0  0  0  0  0  0  0  0
   -2.0970   -1.0114    2.9051 H   0  0  0  0  0  0  0  0  0  0  0  0
   -0.7860   -2.1580    3.2078 H   0  0  0  0  0  0  0  0  0  0  0  0
   -1.1357   -0.8775    4.3842 H   0  0  0  0  0  0  0  0  0  0  0  0
    0.6950   -1.6003    0.8178 N   0  0  0  0  0  0  0  0  0  0  0  0
    0.8777   -2.0908   -0.5246 C   0  0  2  0  0  0  0  0  0  0  0  0
    0.4366   -0.9894   -1.4803 C   0  0  0  0  0  0  0  0  0  0  0  0
   -0.0737   -1.2153   -2.5758 O   0  0  0  0  0  0  0  0  0  0  0  0
    0.0823   -3.3721   -0.7758 C   0  0  0  0  0  0  0  0  0  0  0  0
    0.6313   -4.5728   -0.0255 C   0  0  0  0  0  0  0  0  0  0  0  0
    1.8268   -4.8298    0.0806 O   0  0  0  0  0  0  0  0  0  0  0  0
   -0.3680   -5.3429    0.5307 N   0  0  0  0  0  0  0  0  0  0  0  0
    1.1810   -2.0803    1.5718 H   0  0  0  0  0  0  0  0  0  0  0  0
    1.9530   -2.2622   -0.6509 H   0  0  0  0  0  0  0  0  0  0  0  0
   -0.9593   -3.2413   -0.4561 H   0  0  0  0  0  0  0  0  0  0  0  0
    0.0639   -3.6098   -1.8472 H   0  0  0  0  0  0  0  0  0  0  0  0
   -1.3443   -5.0900    0.4202 H   0  0  0  0  0  0  0  0  0  0  0  0
   -0.1719   -6.1829    1.0659 H   0  0  0  0  0  0  0  0  0  0  0  0
    0.6327    0.2770   -0.9475 N   0  0  0  0  0  0  0  0  0  0  0  0
    0.2643    1.4747   -1.6637 C   0  0  2  0  0  0  0  0  0  0  0  0
   -1.2229    1.3937   -1.9818 C   0  0  0  0  0  0  0  0  0  0  0  0
   -1.8416    0.3326   -2.0306 O   0  0  0  0  0  0  0  0  0  0  0  0
    1.0841    1.6337   -2.9346 C   0  0  0  0  0  0  0  0  0  0  0  0
    1.0404    0.3767   -0.0225 H   0  0  0  0  0  0  0  0  0  0  0  0
    0.4484    2.3167   -0.9876 H   0  0  0  0  0  0  0  0  0  0  0  0
    0.9128    0.7993   -3.6244 H   0  0  0  0  0  0  0  0  0  0  0  0
    0.8235    2.5573   -3.4619 H   0  0  0  0  0  0  0  0  0  0  0  0
    2.1551    1.6619   -2.7066 H   0  0  0  0  0  0  0  0  0  0  0  0
   -1.7685    2.6419   -2.2472 N   0  0  0  0  0  0  0  0  0  0  0  0
   -3.1597    2.8283   -2.5878 C   0  0  0  0  0  0  0  0  0  0  0  0
   -1.1857    3.4698   -2.1650 H   0  0  0  0  0  0  0  0  0  0  0  0
   -3.2758    2.8085   -3.6815 H   0  0  0  0  0  0  0  0  0  0  0  0
   -3.7578    2.0204   -2.1411 H   0  0  0  0  0  0  0  0  0  0  0  0
   -3.5053    3.7979   -2.2000 H   0  0  0  0  0  0  0  0  0  0  0  0
  1  3  1  0  0  0  0
  1  7  1  0  0  0  0
  1  2  2  0  0  0  0
 21 22  1  0  0  0  0
 22 24  1  0  0  0  0
 22 23  2  0  0  0  0
 32 33  1  0  0  0  0
 33 41  1  0  0  0  0
 33 34  2  0  0  0  0
  8  9  1  0  0  0  0
  9 17  1  0  0  0  0
  9 10  2  0  0  0  0
 18 19  1  0  0  0  0
 19 31  1  0  0  0  0
 19 20  2  0  0  0  0
 32 35  1  0  0  0  0
  8 11  1  0  0  0  0
 41 42  1  0  0  0  0
 18 21  1  0  0  0  0
 31 32  1  0  0  0  0
  7  8  1  0  0  0  0
 17 18  1  0  0  0  0
  3  4  1  0  0  0  0
  3  5  1  0  0  0  0
  3  6  1  0  0  0  0
 35 38  1  0  0  0  0
 35 39  1  0  0  0  0
 35 40  1  0  0  0  0
 11 14  1  0  0  0  0
 11 15  1  0  0  0  0
 11 16  1  0  0  0  0
 42 44  1  0  0  0  0
 42 45  1  0  0  0  0
 42 46  1  0  0  0  0
 21 27  1  0  0  0  0
 21 28  1  0  0  0  0
 32 37  1  0  0  0  0
  8 13  1  0  0  0  0
 18 26  1  0  0  0  0
 24 29  1  0  0  0  0
 24 30  1  0  0  0  0
 41 43  1  0  0  0  0
  7 12  1  0  0  0  0
 31 36  1  0  0  0  0
 17 25  1  0  0  0  0
M  END
$$$$

  -OEChem-05262214473D

 46 45  0     1  0  0  0  0  0999 V2000
   -0.0543    1.9736    3.8406 C   0  0  0  0  0  0  0  0  0  0  0  0
    0.6744    1.6099    4.7562 O   0  0  0  0  0  0  0  0  0  0  0  0
   -0.5599    3.3779    3.8160 C   0  0  0  0  0  0  0  0  0  0  0  0
   -1.5202    3.4885    4.3450 H   0  0  0  0  0  0  0  0  0  0  0  0
    0.1282    4.0814    4.3116 H   0  0  0  0  0  0  0  0  0  0  0  0
   -0.7317    3.7994    2.8126 H   0  0  0  0  0  0  0  0  0  0  0  0
   -0.4812    1.1968    2.7762 N   0  0  0  0  0  0  0  0  0  0  0  0
   -0.1106   -0.1834    2.6051 C   0  0  2  0  0  0  0  0  0  0  0  0
   -0.0696   -0.4775    1.1113 C   0  0  0  0  0  0  0  0  0  0  0  0
   -0.6805    0.1900    0.2792 O   0  0  0  0  0  0  0  0  0  0  0  0
   -1.0852   -1.1101    3.3150 C   0  0  0  0  0  0  0  0  0  0  0  0
   -1.0883    1.6241    2.0791 H   0  0  0  0  0  0  0  0  0  0  0  0
    0.8937   -0.2959    3.0277 H   0  0  0  0  0  0  0  0  0  0  0  0
   -2.0970   -1.0114    2.9051 H   0  0  0  0  0  0  0  0  0  0  0  0
   -0.7860   -2.1580    3.2078 H   0  0  0  0  0  0  0  0  0  0  0  0
   -1.1357   -0.8775    4.3842 H   0  0  0  0  0  0  0  0  0  0  0  0
    0.6950   -1.6003    0.8178 N   0  0  0  0  0  0  0  0  0  0  0  0
    0.8777   -2.0908   -0.5246 C   0  0  2  0  0  0  0  0  0  0  0  0
    0.4366   -0.9894   -1.4803 C   0  0  0  0  0  0  0  0  0  0  0  0
   -0.3046   -1.1902   -2.4404 O   0  0  0  0  0  0  0  0  0  0  0  0
    0.0823   -3.3721   -0.7758 C   0  0  0  0  0  0  0  0  0  0  0  0
    0.6313   -4.5728   -0.0255 C   0  0  0  0  0  0  0  0  0  0  0  0
    1.8268   -4.8298    0.0806 O   0  0  0  0  0  0  0  0  0  0  0  0
   -0.3680   -5.3429    0.5307 N   0  0  0  0  0  0  0  0  0  0  0  0
    1.1810   -2.0803    1.5718 H   0  0  0  0  0  0  0  0  0  0  0  0
    1.9530   -2.2622   -0.6509 H   0  0  0  0  0  0  0  0  0  0  0  0
   -0.9593   -3.2413   -0.4561 H   0  0  0  0  0  0  0  0  0  0  0  0
    0.0639   -3.6098   -1.8472 H   0  0  0  0  0  0  0  0  0  0  0  0
   -1.3443   -5.0900    0.4202 H   0  0  0  0  0  0  0  0  0  0  0  0
   -0.1719   -6.1829    1.0659 H   0  0  0  0  0  0  0  0  0  0  0  0
    0.9261    0.2548   -1.1085 N   0  0  0  0  0  0  0  0  0  0  0  0
    0.6167    1.4529   -1.8514 C   0  0  2  0  0  0  0  0  0  0  0  0
   -0.8981    1.6064   -1.8866 C   0  0  0  0  0  0  0  0  0  0  0  0
   -1.6717    0.6646   -1.7265 O   0  0  0  0  0  0  0  0  0  0  0  0
    1.1900    1.3948   -3.2588 C   0  0  0  0  0  0  0  0  0  0  0  0
    1.5154    0.3388   -0.2853 H   0  0  0  0  0  0  0  0  0  0  0  0
    1.0565    2.2902   -1.2987 H   0  0  0  0  0  0  0  0  0  0  0  0
    0.7611    0.5620   -3.8279 H   0  0  0  0  0  0  0  0  0  0  0  0
    0.9789    2.3162   -3.8115 H   0  0  0  0  0  0  0  0  0  0  0  0
    2.2760    1.2545   -3.2318 H   0  0  0  0  0  0  0  0  0  0  0  0
   -1.2842    2.9110   -2.1606 N   0  0  0  0  0  0  0  0  0  0  0  0
   -2.6689    3.3099   -2.2593 C   0  0  0  0  0  0  0  0  0  0  0  0
   -0.5752    3.6315   -2.2603 H   0  0  0  0  0  0  0  0  0  0  0  0
   -2.9958    3.2450   -3.3076 H   0  0  0  0  0  0  0  0  0  0  0  0
   -3.2874    2.6431   -1.6406 H   0  0  0  0  0  0  0  0  0  0  0  0
   -2.7782    4.3453   -1.9046 H   0  0  0  0  0  0  0  0  0  0  0  0
  1  3  1  0  0  0  0
  1  7  1  0  0  0  0
  1  2  2  0  0  0  0
 21 22  1  0  0  0  0
 22 24  1  0  0  0  0
 22 23  2  0  0  0  0
 32 33  1  0  0  0  0
 33 41  1  0  0  0  0
 33 34  2  0  0  0  0
  8  9  1  0  0  0  0
  9 17  1  0  0  0  0
  9 10  2  0  0  0  0
 18 19  1  0  0  0  0
 19 31  1  0  0  0  0
 19 20  2  0  0  0  0
 32 35  1  0  0  0  0
  8 11  1  0  0  0  0
 41 42  1  0  0  0  0
 18 21  1  0  0  0  0
 31 32  1  0  0  0  0
  7  8  1  0  0  0  0
 17 18  1  0  0  0  0
  3  4  1  0  0  0  0
  3  5  1  0  0  0  0
  3  6  1  0  0  0  0
 35 38  1  0  0  0  0
 35 39  1  0  0  0  0
 35 40  1  0  0  0  0
 11 14  1  0  0  0  0
 11 15  1  0  0  0  0
 11 16  1  0  0  0  0
 42 44  1  0  0  0  0
 42 45  1  0  0  0  0
 42 46  1  0  0  0  0
 21 27  1  0  0  0  0
 21 28  1  0  0  0  0
 32 37  1  0  0  0  0
  8 13  1  0  0  0  0
 18 26  1  0  0  0  0
 24 29  1  0  0  0  0
 24 30  1  0  0  0  0
 41 43  1  0  0  0  0
  7 12  1  0  0  0  0
 31 36  1  0  0  0  0
 17 25  1  0  0  0  0
M  END
$$$$

  -OEChem-05262214473D

 46 45  0     1  0  0  0  0  0999 V2000
   -0.0543    1.9736    3.8406 C   0  0  0  0  0  0  0  0  0  0  0  0
    0.6744    1.6099    4.7562 O   0  0  0  0  0  0  0  0  0  0  0  0
   -0.5599    3.3779    3.8160 C   0  0  0  0  0  0  0  0  0  0  0  0
   -1.5202    3.4885    4.3450 H   0  0  0  0  0  0  0  0  0  0  0  0
    0.1282    4.0814    4.3116 H   0  0  0  0  0  0  0  0  0  0  0  0
   -0.7317    3.7994    2.8126 H   0  0  0  0  0  0  0  0  0  0  0  0
   -0.4812    1.1968    2.7762 N   0  0  0  0  0  0  0  0  0  0  0  0
   -0.1106   -0.1834    2.6051 C   0  0  2  0  0  0  0  0  0  0  0  0
   -0.0696   -0.4775    1.1113 C   0  0  0  0  0  0  0  0  0  0  0  0
   -0.6805    0.1900    0.2792 O   0  0  0  0  0  0  0  0  0  0  0  0
   -1.0852   -1.1101    3.3150 C   0  0  0  0  0  0  0  0  0  0  0  0
   -1.0883    1.6241    2.0791 H   0  0  0  0  0  0  0  0  0  0  0  0
    0.8937   -0.2959    3.0277 H   0  0  0  0  0  0  0  0  0  0  0  0
   -2.0970   -1.0114    2.9051 H   0  0  0  0  0  0  0  0  0  0  0  0
   -0.7860   -2.1580    3.2078 H   0  0  0  0  0  0  0  0  0  0  0  0
   -1.1357   -0.8775    4.3842 H   0  0  0  0  0  0  0  0  0  0  0  0
    0.6950   -1.6003    0.8178 N   0  0  0  0  0  0  0  0  0  0  0  0
    0.8777   -2.0908   -0.5246 C   0  0  2  0  0  0  0  0  0  0  0  0
    0.4366   -0.9894   -1.4803 C   0  0  0  0  0  0  0  0  0  0  0  0
   -0.4982   -1.1184   -2.2684 O   0  0  0  0  0  0  0  0  0  0  0  0
    0.0823   -3.3721   -0.7758 C   0  0  0  0  0  0  0  0  0  0  0  0
    0.6313   -4.5728   -0.0255 C   0  0  0  0  0  0  0  0  0  0  0  0
    1.8268   -4.8298    0.0806 O   0  0  0  0  0  0  0  0  0  0  0  0
   -0.3680   -5.3429    0.5307 N   0  0  0  0  0  0  0  0  0  0  0  0
    1.1810   -2.0803    1.5718 H   0  0  0  0  0  0  0  0  0  0  0  0
    1.9530   -2.2622   -0.6509 H   0  0  0  0  0  0  0  0  0  0  0  0
   -0.9593   -3.2413   -0.4561 H   0  0  0  0  0  0  0  0  0  0  0  0
    0.0639   -3.6098   -1.8472 H   0  0  0  0  0  0  0  0  0  0  0  0
   -1.3443   -5.0900    0.4202 H   0  0  0  0  0  0  0  0  0  0  0  0
   -0.1719   -6.1829    1.0659 H   0  0  0  0  0  0  0  0  0  0  0  0
    1.1759    0.1737   -1.3172 N   0  0  0  0  0  0  0  0  0  0  0  0
    0.9185    1.3606   -2.0971 C   0  0  2  0  0  0  0  0  0  0  0  0
   -0.5320    1.7663   -1.8713 C   0  0  0  0  0  0  0  0  0  0  0  0
   -1.3967    0.9804   -1.4895 O   0  0  0  0  0  0  0  0  0  0  0  0
    1.1928    1.1226   -3.5738 C   0  0  0  0  0  0  0  0  0  0  0  0
    1.9189    0.2054   -0.6253 H   0  0  0  0  0  0  0  0  0  0  0  0
    1.5814    2.1426   -1.7110 H   0  0  0  0  0  0  0  0  0  0  0  0
    0.5380    0.3422   -3.9783 H   0  0  0  0  0  0  0  0  0  0  0  0
    1.0245    2.0319   -4.1602 H   0  0  0  0  0  0  0  0  0  0  0  0
    2.2284    0.8021   -3.7311 H   0  0  0  0  0  0  0  0  0  0  0  0
   -0.7565    3.0988   -2.1877 N   0  0  0  0  0  0  0  0  0  0  0  0
   -2.0551    3.7200   -2.0699 C   0  0  0  0  0  0  0  0  0  0  0  0
    0.0229    3.6815   -2.4788 H   0  0  0  0  0  0  0  0  0  0  0  0
   -2.5845    3.6493   -3.0315 H   0  0  0  0  0  0  0  0  0  0  0  0
   -2.6382    3.2057   -1.2918 H   0  0  0  0  0  0  0  0  0  0  0  0
   -1.9317    4.7782   -1.7964 H   0  0  0  0  0  0  0  0  0  0  0  0
  1  3  1  0  0  0  0
  1  7  1  0  0  0  0
  1  2  2  0  0  0  0
 21 22  1  0  0  0  0
 22 24  1  0  0  0  0
 22 23  2  0  0  0  0
 32 33  1  0  0  0  0
 33 41  1  0  0  0  0
 33 34  2  0  0  0  0
  8  9  1  0  0  0  0
  9 17  1  0  0  0  0
  9 10  2  0  0  0  0
 18 19  1  0  0  0  0
 19 31  1  0  0  0  0
 19 20  2  0  0  0  0
 32 35  1  0  0  0  0
  8 11  1  0  0  0  0
 41 42  1  0  0  0  0
 18 21  1  0  0  0  0
 31 32  1  0  0  0  0
  7  8  1  0  0  0  0
 17 18  1  0  0  0  0
  3  4  1  0  0  0  0
  3  5  1  0  0  0  0
  3  6  1  0  0  0  0
 35 38  1  0  0  0  0
 35 39  1  0  0  0  0
 35 40  1  0  0  0  0
 11 14  1  0  0  0  0
 11 15  1  0  0  0  0
 11 16  1  0  0  0  0
 42 44  1  0  0  0  0
 42 45  1  0  0  0  0
 42 46  1  0  0  0  0
 21 27  1  0  0  0  0
 21 28  1  0  0  0  0
 32 37  1  0  0  0  0
  8 13  1  0  0  0  0
 18 26  1  0  0  0  0
 24 29  1  0  0  0  0
 24 30  1  0  0  0  0
 41 43  1  0  0  0  0
  7 12  1  0  0  0  0
 31 36  1  0  0  0  0
 17 25  1  0  0  0  0
M  END
$$$$

  -OEChem-05262214473D

 46 45  0     1  0  0  0  0  0999 V2000
   -0.0543    1.9736    3.8406 C   0  0  0  0  0  0  0  0  0  0  0  0
    0.6744    1.6099    4.7562 O   0  0  0  0  0  0  0  0  0  0  0  0
   -0.5599    3.3779    3.8160 C   0  0  0  0  0  0  0  0  0  0  0  0
   -1.5202    3.4885    4.3450 H   0  0  0  0  0  0  0  0  0  0  0  0
    0.1282    4.0814    4.3116 H   0  0  0  0  0  0  0  0  0  0  0  0
   -0.7317    3.7994    2.8126 H   0  0  0  0  0  0  0  0  0  0  0  0
   -0.4812    1.1968    2.7762 N   0  0  0  0  0  0  0  0  0  0  0  0
   -0.1106   -0.1834    2.6051 C   0  0  2  0  0  0  0  0  0  0  0  0
   -0.0696   -0.4775    1.1113 C   0  0  0  0  0  0  0  0  0  0  0  0
   -0.6805    0.1900    0.2792 O   0  0  0  0  0  0  0  0  0  0  0  0
   -1.0852   -1.1101    3.3150 C   0  0  0  0  0  0  0  0  0  0  0  0
   -1.0883    1.6241    2.0791 H   0  0  0  0  0  0  0  0  0  0  0  0
    0.8937   -0.2959    3.0277 H   0  0  0  0  0  0  0  0  0  0  0  0
   -2.0970   -1.0114    2.9051 H   0  0  0  0  0  0  0  0  0  0  0  0
   -0.7860   -2.1580    3.2078 H   0  0  0  0  0  0  0  0  0  0  0  0
   -1.1357   -0.8775    4.3842 H   0  0  0  0  0  0  0  0  0  0  0  0
    0.6950   -1.6003    0.8178 N   0  0  0  0  0  0  0  0  0  0  0  0
    0.8777   -2.0908   -0.5246 C   0  0  2  0  0  0  0  0  0  0  0  0
    0.4366   -0.9894   -1.4803 C   0  0  0  0  0  0  0  0  0  0  0  0
   -0.6414   -1.0048   -2.0713 O   0  0  0  0  0  0  0  0  0  0  0  0
    0.0823   -3.3721   -0.7758 C   0  0  0  0  0  0  0  0  0  0  0  0
    0.6313   -4.5728   -0.0255 C   0  0  0  0  0  0  0  0  0  0  0  0
    1.8268   -4.8298    0.0806 O   0  0  0  0  0  0  0  0  0  0  0  0
   -0.3680   -5.3429    0.5307 N   0  0  0  0  0  0  0  0  0  0  0  0
    1.1810   -2.0803    1.5718 H   0  0  0  0  0  0  0  0  0  0  0  0
    1.9530   -2.2622   -0.6509 H   0  0  0  0  0  0  0  0  0  0  0  0
   -0.9593   -3.2413   -0.4561 H   0  0  0  0  0  0  0  0  0  0  0  0
    0.0639   -3.6098   -1.8472 H   0  0  0  0  0  0  0  0  0  0  0  0
   -1.3443   -5.0900    0.4202 H   0  0  0  0  0  0  0  0  0  0  0  0
   -0.1719   -6.1829    1.0659 H   0  0  0  0  0  0  0  0  0  0  0  0
    1.3649    0.0392   -1.5594 N   0  0  0  0  0  0  0  0  0  0  0  0
    1.1490    1.2040   -2.3839 C   0  0  2  0  0  0  0  0  0  0  0  0
   -0.1496    1.8624   -1.9370 C   0  0  0  0  0  0  0  0  0  0  0  0
   -1.0354    1.2585   -1.3356 O   0  0  0  0  0  0  0  0  0  0  0  0
    1.0924    0.8356   -3.8582 C   0  0  0  0  0  0  0  0  0  0  0  0
    2.2233   -0.0144   -1.0191 H   0  0  0  0  0  0  0  0  0  0  0  0
    1.9872    1.8839   -2.1964 H   0  0  0  0  0  0  0  0  0  0  0  0
    0.2587    0.1547   -4.0654 H   0  0  0  0  0  0  0  0  0  0  0  0
    0.9572    1.7237   -4.4843 H   0  0  0  0  0  0  0  0  0  0  0  0
    2.0155    0.3354   -4.1707 H   0  0  0  0  0  0  0  0  0  0  0  0
   -0.2214    3.1925   -2.3267 N   0  0  0  0  0  0  0  0  0  0  0  0
   -1.3602    4.0306   -2.0326 C   0  0  0  0  0  0  0  0  0  0  0  0
    0.5679    3.6162   -2.8054 H   0  0  0  0  0  0  0  0  0  0  0  0
   -2.0700    3.9936   -2.8721 H   0  0  0  0  0  0  0  0  0  0  0  0
   -1.8545    3.6698   -1.1185 H   0  0  0  0  0  0  0  0  0  0  0  0
   -1.0235    5.0671   -1.8826 H   0  0  0  0  0  0  0  0  0  0  0  0
  1  3  1  0  0  0  0
  1  7  1  0  0  0  0
  1  2  2  0  0  0  0
 21 22  1  0  0  0  0
 22 24  1  0  0  0  0
 22 23  2  0  0  0  0
 32 33  1  0  0  0  0
 33 41  1  0  0  0  0
 33 34  2  0  0  0  0
  8  9  1  0  0  0  0
  9 17  1  0  0  0  0
  9 10  2  0  0  0  0
 18 19  1  0  0  0  0
 19 31  1  0  0  0  0
 19 20  2  0  0  0  0
 32 35  1  0  0  0  0
  8 11  1  0  0  0  0
 41 42  1  0  0  0  0
 18 21  1  0  0  0  0
 31 32  1  0  0  0  0
  7  8  1  0  0  0  0
 17 18  1  0  0  0  0
  3  4  1  0  0  0  0
  3  5  1  0  0  0  0
  3  6  1  0  0  0  0
 35 38  1  0  0  0  0
 35 39  1  0  0  0  0
 35 40  1  0  0  0  0
 11 14  1  0  0  0  0
 11 15  1  0  0  0  0
 11 16  1  0  0  0  0
 42 44  1  0  0  0  0
 42 45  1  0  0  0  0
 42 46  1  0  0  0  0
 21 27  1  0  0  0  0
 21 28  1  0  0  0  0
 32 37  1  0  0  0  0
  8 13  1  0  0  0  0
 18 26  1  0  0  0  0
 24 29  1  0  0  0  0
 24 30  1  0  0  0  0
 41 43  1  0  0  0  0
  7 12  1  0  0  0  0
 31 36  1  0  0  0  0
 17 25  1  0  0  0  0
M  END
$$$$

  -OEChem-05262214473D

 46 45  0     1  0  0  0  0  0999 V2000
   -0.0543    1.9736    3.8406 C   0  0  0  0  0  0  0  0  0  0  0  0
    0.6744    1.6099    4.7562 O   0  0  0  0  0  0  0  0  0  0  0  0
   -0.5599    3.3779    3.8160 C   0  0  0  0  0  0  0  0  0  0  0  0
   -1.5202    3.4885    4.3450 H   0  0  0  0  0  0  0  0  0  0  0  0
    0.1282    4.0814    4.3116 H   0  0  0  0  0  0  0  0  0  0  0  0
   -0.7317    3.7994    2.8126 H   0  0  0  0  0  0  0  0  0  0  0  0
   -0.4812    1.1968    2.7762 N   0  0  0  0  0  0  0  0  0  0  0  0
   -0.1106   -0.1834    2.6051 C   0  0  2  0  0  0  0  0  0  0  0  0
   -0.0696   -0.4775    1.1113 C   0  0  0  0  0  0  0  0  0  0  0  0
   -0.6805    0.1900    0.2792 O   0  0  0  0  0  0  0  0  0  0  0  0
   -1.0852   -1.1101    3.3150 C   0  0  0  0  0  0  0  0  0  0  0  0
   -1.0883    1.6241    2.0791 H   0  0  0  0  0  0  0  0  0  0  0  0
    0.8937   -0.2959    3.0277 H   0  0  0  0  0  0  0  0  0  0  0  0
   -2.0970   -1.0114    2.9051 H   0  0  0  0  0  0  0  0  0  0  0  0
   -0.7860   -2.1580    3.2078 H   0  0  0  0  0  0  0  0  0  0  0  0
   -1.1357   -0.8775    4.3842 H   0  0  0  0  0  0  0  0  0  0  0  0
    0.6950   -1.6003    0.8178 N   0  0  0  0  0  0  0  0  0  0  0  0
    0.8777   -2.0908   -0.5246 C   0  0  2  0  0  0  0  0  0  0  0  0
    0.4366   -0.9894   -1.4803 C   0  0  0  0  0  0  0  0  0  0  0  0
   -0.7243   -0.8569   -1.8626 O   0  0  0  0  0  0  0  0  0  0  0  0
    0.0823   -3.3721   -0.7758 C   0  0  0  0  0  0  0  0  0  0  0  0
    0.6313   -4.5728   -0.0255 C   0  0  0  0  0  0  0  0  0  0  0  0
    1.8268   -4.8298    0.0806 O   0  0  0  0  0  0  0  0  0  0  0  0
   -0.3680   -5.3429    0.5307 N   0  0  0  0  0  0  0  0  0  0  0  0
    1.1810   -2.0803    1.5718 H   0  0  0  0  0  0  0  0  0  0  0  0
    1.9530   -2.2622   -0.6509 H   0  0  0  0  0  0  0  0  0  0  0  0
   -0.9593   -3.2413   -0.4561 H   0  0  0  0  0  0  0  0  0  0  0  0
    0.0639   -3.6098   -1.8472 H   0  0  0  0  0  0  0  0  0  0  0  0
   -1.3443   -5.0900    0.4202 H   0  0  0  0  0  0  0  0  0  0  0  0
   -0.1719   -6.1829    1.0659 H   0  0  0  0  0  0  0  0  0  0  0  0
    1.4803   -0.1396   -1.8187 N   0  0  0  0  0  0  0  0  0  0  0  0
    1.2926    0.9939   -2.6923 C   0  0  2  0  0  0  0  0  0  0  0  0
    0.2231    1.8882   -2.0793 C   0  0  0  0  0  0  0  0  0  0  0  0
   -0.6126    1.4801   -1.2755 O   0  0  0  0  0  0  0  0  0  0  0  0
    0.8956    0.5533   -4.0927 C   0  0  0  0  0  0  0  0  0  0  0  0
    2.4081   -0.3057   -1.4400 H   0  0  0  0  0  0  0  0  0  0  0  0
    2.2465    1.5318   -2.7218 H   0  0  0  0  0  0  0  0  0  0  0  0
   -0.0578    0.0126   -4.0832 H   0  0  0  0  0  0  0  0  0  0  0  0
    0.7814    1.4127   -4.7616 H   0  0  0  0  0  0  0  0  0  0  0  0
    1.6518   -0.1137   -4.5205 H   0  0  0  0  0  0  0  0  0  0  0  0
    0.2847    3.1856   -2.5681 N   0  0  0  0  0  0  0  0  0  0  0  0
   -0.6316    4.2207   -2.1498 C   0  0  0  0  0  0  0  0  0  0  0  0
    1.0226    3.4403   -3.2180 H   0  0  0  0  0  0  0  0  0  0  0  0
   -1.4872    4.2547   -2.8402 H   0  0  0  0  0  0  0  0  0  0  0  0
   -0.9898    4.0039   -1.1326 H   0  0  0  0  0  0  0  0  0  0  0  0
   -0.1155    5.1921   -2.1575 H   0  0  0  0  0  0  0  0  0  0  0  0
  1  3  1  0  0  0  0
  1  7  1  0  0  0  0
  1  2  2  0  0  0  0
 21 22  1  0  0  0  0
 22 24  1  0  0  0  0
 22 23  2  0  0  0  0
 32 33  1  0  0  0  0
 33 41  1  0  0  0  0
 33 34  2  0  0  0  0
  8  9  1  0  0  0  0
  9 17  1  0  0  0  0
  9 10  2  0  0  0  0
 18 19  1  0  0  0  0
 19 31  1  0  0  0  0
 19 20  2  0  0  0  0
 32 35  1  0  0  0  0
  8 11  1  0  0  0  0
 41 42  1  0  0  0  0
 18 21  1  0  0  0  0
 31 32  1  0  0  0  0
  7  8  1  0  0  0  0
 17 18  1  0  0  0  0
  3  4  1  0  0  0  0
  3  5  1  0  0  0  0
  3  6  1  0  0  0  0
 35 38  1  0  0  0  0
 35 39  1  0  0  0  0
 35 40  1  0  0  0  0
 11 14  1  0  0  0  0
 11 15  1  0  0  0  0
 11 16  1  0  0  0  0
 42 44  1  0  0  0  0
 42 45  1  0  0  0  0
 42 46  1  0  0  0  0
 21 27  1  0  0  0  0
 21 28  1  0  0  0  0
 32 37  1  0  0  0  0
  8 13  1  0  0  0  0
 18 26  1  0  0  0  0
 24 29  1  0  0  0  0
 24 30  1  0  0  0  0
 41 43  1  0  0  0  0
  7 12  1  0  0  0  0
 31 36  1  0  0  0  0
 17 25  1  0  0  0  0
M  END
$$$$

  -OEChem-05262214473D

 46 45  0     1  0  0  0  0  0999 V2000
   -0.0543    1.9736    3.8406 C   0  0  0  0  0  0  0  0  0  0  0  0
    0.6744    1.6099    4.7562 O   0  0  0  0  0  0  0  0  0  0  0  0
   -0.5599    3.3779    3.8160 C   0  0  0  0  0  0  0  0  0  0  0  0
   -1.5202    3.4885    4.3450 H   0  0  0  0  0  0  0  0  0  0  0  0
    0.1282    4.0814    4.3116 H   0  0  0  0  0  0  0  0  0  0  0  0
   -0.7317    3.7994    2.8126 H   0  0  0  0  0  0  0  0  0  0  0  0
   -0.4812    1.1968    2.7762 N   0  0  0  0  0  0  0  0  0  0  0  0
   -0.1106   -0.1834    2.6051 C   0  0  2  0  0  0  0  0  0  0  0  0
   -0.0696   -0.4775    1.1113 C   0  0  0  0  0  0  0  0  0  0  0  0
   -0.6805    0.1900    0.2792 O   0  0  0  0  0  0  0  0  0  0  0  0
   -1.0852   -1.1101    3.3150 C   0  0  0  0  0  0  0  0  0  0  0  0
   -1.0883    1.6241    2.0791 H   0  0  0  0  0  0  0  0  0  0  0  0
    0.8937   -0.2959    3.0277 H   0  0  0  0  0  0  0  0  0  0  0  0
   -2.0970   -1.0114    2.9051 H   0  0  0  0  0  0  0  0  0  0  0  0
   -0.7860   -2.1580    3.2078 H   0  0  0  0  0  0  0  0  0  0  0  0
   -1.1357   -0.8775    4.3842 H   0  0  0  0  0  0  0  0  0  0  0  0
    0.6950   -1.6003    0.8178 N   0  0  0  0  0  0  0  0  0  0  0  0
    0.8777   -2.0908   -0.5246 C   0  0  2  0  0  0  0  0  0  0  0  0
    0.4366   -0.9894   -1.4803 C   0  0  0  0  0  0  0  0  0  0  0  0
   -0.7414   -0.6851   -1.6567 O   0  0  0  0  0  0  0  0  0  0  0  0
    0.0823   -3.3721   -0.7758 C   0  0  0  0  0  0  0  0  0  0  0  0
    0.6313   -4.5728   -0.0255 C   0  0  0  0  0  0  0  0  0  0  0  0
    1.8268   -4.8298    0.0806 O   0  0  0  0  0  0  0  0  0  0  0  0
   -0.3680   -5.3429    0.5307 N   0  0  0  0  0  0  0  0  0  0  0  0
    1.1810   -2.0803    1.5718 H   0  0  0  0  0  0  0  0  0  0  0  0
    1.9530   -2.2622   -0.6509 H   0  0  0  0  0  0  0  0  0  0  0  0
   -0.9593   -3.2413   -0.4561 H   0  0  0  0  0  0  0  0  0  0  0  0
    0.0639   -3.6098   -1.8472 H   0  0  0  0  0  0  0  0  0  0  0  0
   -1.3443   -5.0900    0.4202 H   0  0  0  0  0  0  0  0  0  0  0  0
   -0.1719   -6.1829    1.0659 H   0  0  0  0  0  0  0  0  0  0  0  0
    1.5142   -0.3504   -2.0773 N   0  0  0  0  0  0  0  0  0  0  0  0
    1.3395    0.7444   -3.0014 C   0  0  2  0  0  0  0  0  0  0  0  0
    0.5607    1.8419   -2.2884 C   0  0  0  0  0  0  0  0  0  0  0  0
   -0.1569    1.6299   -1.3131 O   0  0  0  0  0  0  0  0  0  0  0  0
    0.6158    0.2951   -4.2612 C   0  0  0  0  0  0  0  0  0  0  0  0
    2.4605   -0.6485   -1.8593 H   0  0  0  0  0  0  0  0  0  0  0  0
    2.3414    1.1102   -3.2515 H   0  0  0  0  0  0  0  0  0  0  0  0
   -0.3900   -0.0747   -4.0305 H   0  0  0  0  0  0  0  0  0  0  0  0
    0.5093    1.1201   -4.9733 H   0  0  0  0  0  0  0  0  0  0  0  0
    1.1621   -0.5147   -4.7567 H   0  0  0  0  0  0  0  0  0  0  0  0
    0.7273    3.0788   -2.8955 N   0  0  0  0  0  0  0  0  0  0  0  0
    0.0812    4.2772   -2.4135 C   0  0  0  0  0  0  0  0  0  0  0  0
    1.3561    3.1655   -3.6885 H   0  0  0  0  0  0  0  0  0  0  0  0
   -0.8760    4.4146   -2.9380 H   0  0  0  0  0  0  0  0  0  0  0  0
   -0.1029    4.1852   -1.3330 H   0  0  0  0  0  0  0  0  0  0  0  0
    0.7304    5.1449   -2.6023 H   0  0  0  0  0  0  0  0  0  0  0  0
  1  3  1  0  0  0  0
  1  7  1  0  0  0  0
  1  2  2  0  0  0  0
 21 22  1  0  0  0  0
 22 24  1  0  0  0  0
 22 23  2  0  0  0  0
 32 33  1  0  0  0  0
 33 41  1  0  0  0  0
 33 34  2  0  0  0  0
  8  9  1  0  0  0  0
  9 17  1  0  0  0  0
  9 10  2  0  0  0  0
 18 19  1  0  0  0  0
 19 31  1  0  0  0  0
 19 20  2  0  0  0  0
 32 35  1  0  0  0  0
  8 11  1  0  0  0  0
 41 42  1  0  0  0  0
 18 21  1  0  0  0  0
 31 32  1  0  0  0  0
  7  8  1  0  0  0  0
 17 18  1  0  0  0  0
  3  4  1  0  0  0  0
  3  5  1  0  0  0  0
  3  6  1  0  0  0  0
 35 38  1  0  0  0  0
 35 39  1  0  0  0  0
 35 40  1  0  0  0  0
 11 14  1  0  0  0  0
 11 15  1  0  0  0  0
 11 16  1  0  0  0  0
 42 44  1  0  0  0  0
 42 45  1  0  0  0  0
 42 46  1  0  0  0  0
 21 27  1  0  0  0  0
 21 28  1  0  0  0  0
 32 37  1  0  0  0  0
  8 13  1  0  0  0  0
 18 26  1  0  0  0  0
 24 29  1  0  0  0  0
 24 30  1  0  0  0  0
 41 43  1  0  0  0  0
  7 12  1  0  0  0  0
 31 36  1  0  0  0  0
 17 25  1  0  0  0  0
M  END
$$$$

  -OEChem-05262214473D

 46 45  0     1  0  0  0  0  0999 V2000
   -0.0543    1.9736    3.8406 C   0  0  0  0  0  0  0  0  0  0  0  0
    0.6744    1.6099    4.7562 O   0  0  0  0  0  0  0  0  0  0  0  0
   -0.5599    3.3779    3.8160 C   0  0  0  0  0  0  0  0  0  0  0  0
   -1.5202    3.4885    4.3450 H   0  0  0  0  0  0  0  0  0  0  0  0
    0.1282    4.0814    4.3116 H   0  0  0  0  0  0  0  0  0  0  0  0
   -0.7317    3.7994    2.8126 H   0  0  0  0  0  0  0  0  0  0  0  0
   -0.4812    1.1968    2.7762 N   0  0  0  0  0  0  0  0  0  0  0  0
   -0.1106   -0.1834    2.6051 C   0  0  2  0  0  0  0  0  0  0  0  0
   -0.0696   -0.4775    1.1113 C   0  0  0  0  0  0  0  0  0  0  0  0
   -0.6805    0.1900    0.2792 O   0  0  0  0  0  0  0  0  0  0  0  0
   -1.0852   -1.1101    3.3150 C   0  0  0  0  0  0  0  0  0  0  0  0
   -1.0883    1.6241    2.0791 H   0  0  0  0  0  0  0  0  0  0  0  0
    0.8937   -0.2959    3.0277 H   0  0  0  0  0  0  0  0  0  0  0  0
   -2.0970   -1.0114    2.9051 H   0  0  0  0  0  0  0  0  0  0  0  0
   -0.7860   -2.1580    3.2078 H   0  0  0  0  0  0  0  0  0  0  0  0
   -1.1357   -0.8775    4.3842 H   0  0  0  0  0  0  0  0  0  0  0  0
    0.6950   -1.6003    0.8178 N   0  0  0  0  0  0  0  0  0  0  0  0
    0.8777   -2.0908   -0.5246 C   0  0  2  0  0  0  0  0  0  0  0  0
    0.4366   -0.9894   -1.4803 C   0  0  0  0  0  0  0  0  0  0  0  0
   -0.6915   -0.5008   -1.4674 O   0  0  0  0  0  0  0  0  0  0  0  0
    0.0823   -3.3721   -0.7758 C   0  0  0  0  0  0  0  0  0  0  0  0
    0.6313   -4.5728   -0.0255 C   0  0  0  0  0  0  0  0  0  0  0  0
    1.8268   -4.8298    0.0806 O   0  0  0  0  0  0  0  0  0  0  0  0
   -0.3680   -5.3429    0.5307 N   0  0  0  0  0  0  0  0  0  0  0  0
    1.1810   -2.0803    1.5718 H   0  0  0  0  0  0  0  0  0  0  0  0
    1.9530   -2.2622   -0.6509 H   0  0  0  0  0  0  0  0  0  0  0  0
   -0.9593   -3.2413   -0.4561 H   0  0  0  0  0  0  0  0  0  0  0  0
    0.0639   -3.6098   -1.8472 H   0  0  0  0  0  0  0  0  0  0  0  0
   -1.3443   -5.0900    0.4202 H   0  0  0  0  0  0  0  0  0  0  0  0
   -0.1719   -6.1829    1.0659 H   0  0  0  0  0  0  0  0  0  0  0  0
    1.4644   -0.5790   -2.3177 N   0  0  0  0  0  0  0  0  0  0  0  0
    1.2864    0.4727   -3.2900 C   0  0  2  0  0  0  0  0  0  0  0  0
    0.8402    1.7268   -2.5500 C   0  0  0  0  0  0  0  0  0  0  0  0
    0.3006    1.6979   -1.4459 O   0  0  0  0  0  0  0  0  0  0  0  0
    0.2720    0.0784   -4.3522 C   0  0  0  0  0  0  0  0  0  0  0  0
    2.3769   -1.0197   -2.2484 H   0  0  0  0  0  0  0  0  0  0  0  0
    2.2655    0.6479   -3.7492 H   0  0  0  0  0  0  0  0  0  0  0  0
   -0.7151   -0.1012   -3.9109 H   0  0  0  0  0  0  0  0  0  0  0  0
    0.1593    0.8657   -5.1049 H   0  0  0  0  0  0  0  0  0  0  0  0
    0.5798   -0.8403   -4.8631 H   0  0  0  0  0  0  0  0  0  0  0  0
    1.0762    2.8792   -3.2865 N   0  0  0  0  0  0  0  0  0  0  0  0
    0.7294    4.1963   -2.8059 C   0  0  0  0  0  0  0  0  0  0  0  0
    1.5455    2.8108   -4.1847 H   0  0  0  0  0  0  0  0  0  0  0  0
   -0.2779    4.4625   -3.1588 H   0  0  0  0  0  0  0  0  0  0  0  0
    0.7457    4.2012   -1.7061 H   0  0  0  0  0  0  0  0  0  0  0  0
    1.4566    4.9286   -3.1866 H   0  0  0  0  0  0  0  0  0  0  0  0
  1  3  1  0  0  0  0
  1  7  1  0  0  0  0
  1  2  2  0  0  0  0
 21 22  1  0  0  0  0
 22 24  1  0  0  0  0
 22 23  2  0  0  0  0
 32 33  1  0  0  0  0
 33 41  1  0  0  0  0
 33 34  2  0  0  0  0
  8  9  1  0  0  0  0
  9 17  1  0  0  0  0
  9 10  2  0  0  0  0
 18 19  1  0  0  0  0
 19 31  1  0  0  0  0
 19 20  2  0  0  0  0
 32 35  1  0  0  0  0
  8 11  1  0  0  0  0
 41 42  1  0  0  0  0
 18 21  1  0  0  0  0
 31 32  1  0  0  0  0
  7  8  1  0  0  0  0
 17 18  1  0  0  0  0
  3  4  1  0  0  0  0
  3  5  1  0  0  0  0
  3  6  1  0  0  0  0
 35 38  1  0  0  0  0
 35 39  1  0  0  0  0
 35 40  1  0  0  0  0
 11 14  1  0  0  0  0
 11 15  1  0  0  0  0
 11 16  1  0  0  0  0
 42 44  1  0  0  0  0
 42 45  1  0  0  0  0
 42 46  1  0  0  0  0
 21 27  1  0  0  0  0
 21 28  1  0  0  0  0
 32 37  1  0  0  0  0
  8 13  1  0  0  0  0
 18 26  1  0  0  0  0
 24 29  1  0  0  0  0
 24 30  1  0  0  0  0
 41 43  1  0  0  0  0
  7 12  1  0  0  0  0
 31 36  1  0  0  0  0
 17 25  1  0  0  0  0
M  END
$$$$

  -OEChem-05262214473D

 46 45  0     1  0  0  0  0  0999 V2000
   -0.0543    1.9736    3.8406 C   0  0  0  0  0  0  0  0  0  0  0  0
    0.6744    1.6099    4.7562 O   0  0  0  0  0  0  0  0  0  0  0  0
   -0.5599    3.3779    3.8160 C   0  0  0  0  0  0  0  0  0  0  0  0
   -1.5202    3.4885    4.3450 H   0  0  0  0  0  0  0  0  0  0  0  0
    0.1282    4.0814    4.3116 H   0  0  0  0  0  0  0  0  0  0  0  0
   -0.7317    3.7994    2.8126 H   0  0  0  0  0  0  0  0  0  0  0  0
   -0.4812    1.1968    2.7762 N   0  0  0  0  0  0  0  0  0  0  0  0
   -0.1106   -0.1834    2.6051 C   0  0  2  0  0  0  0  0  0  0  0  0
   -0.0696   -0.4775    1.1113 C   0  0  0  0  0  0  0  0  0  0  0  0
   -0.6805    0.1900    0.2792 O   0  0  0  0  0  0  0  0  0  0  0  0
   -1.0852   -1.1101    3.3150 C   0  0  0  0  0  0  0  0  0  0  0  0
   -1.0883    1.6241    2.0791 H   0  0  0  0  0  0  0  0  0  0  0  0
    0.8937   -0.2959    3.0277 H   0  0  0  0  0  0  0  0  0  0  0  0
   -2.0970   -1.0114    2.9051 H   0  0  0  0  0  0  0  0  0  0  0  0
   -0.7860   -2.1580    3.2078 H   0  0  0  0  0  0  0  0  0  0  0  0
   -1.1357   -0.8775    4.3842 H   0  0  0  0  0  0  0  0  0  0  0  0
    0.6950   -1.6003    0.8178 N   0  0  0  0  0  0  0  0  0  0  0  0
    0.8777   -2.0908   -0.5246 C   0  0  2  0  0  0  0  0  0  0  0  0
    0.4366   -0.9894   -1.4803 C   0  0  0  0  0  0  0  0  0  0  0  0
   -0.5779   -0.3168   -1.3077 O   0  0  0  0  0  0  0  0  0  0  0  0
    0.0823   -3.3721   -0.7758 C   0  0  0  0  0  0  0  0  0  0  0  0
    0.6313   -4.5728   -0.0255 C   0  0  0  0  0  0  0  0  0  0  0  0
    1.8268   -4.8298    0.0806 O   0  0  0  0  0  0  0  0  0  0  0  0
   -0.3680   -5.3429    0.5307 N   0  0  0  0  0  0  0  0  0  0  0  0
    1.1810   -2.0803    1.5718 H   0  0  0  0  0  0  0  0  0  0  0  0
    1.9530   -2.2622   -0.6509 H   0  0  0  0  0  0  0  0  0  0  0  0
   -0.9593   -3.2413   -0.4561 H   0  0  0  0  0  0  0  0  0  0  0  0
    0.0639   -3.6098   -1.8472 H   0  0  0  0  0  0  0  0  0  0  0  0
   -1.3443   -5.0900    0.4202 H   0  0  0  0  0  0  0  0  0  0  0  0
   -0.1719   -6.1829    1.0659 H   0  0  0  0  0  0  0  0  0  0  0  0
    1.3342   -0.8096   -2.5235 N   0  0  0  0  0  0  0  0  0  0  0  0
    1.1371    0.1973   -3.5385 C   0  0  2  0  0  0  0  0  0  0  0  0
    1.0425    1.5506   -2.8464 C   0  0  0  0  0  0  0  0  0  0  0  0
    0.7287    1.6793   -1.6648 O   0  0  0  0  0  0  0  0  0  0  0  0
   -0.1122   -0.0818   -4.3596 C   0  0  0  0  0  0  0  0  0  0  0  0
    2.1632   -1.3937   -2.5809 H   0  0  0  0  0  0  0  0  0  0  0  0
    2.0239    0.1763   -4.1812 H   0  0  0  0  0  0  0  0  0  0  0  0
   -1.0111   -0.0649   -3.7326 H   0  0  0  0  0  0  0  0  0  0  0  0
   -0.2447    0.6670   -5.1475 H   0  0  0  0  0  0  0  0  0  0  0  0
   -0.0554   -1.0681   -4.8326 H   0  0  0  0  0  0  0  0  0  0  0  0
    1.3076    2.6005   -3.7145 N   0  0  0  0  0  0  0  0  0  0  0  0
    1.2691    3.9835   -3.3002 C   0  0  0  0  0  0  0  0  0  0  0  0
    1.5781    2.4002   -4.6729 H   0  0  0  0  0  0  0  0  0  0  0  0
    0.2663    4.3951   -3.4876 H   0  0  0  0  0  0  0  0  0  0  0  0
    1.4982    4.0510   -2.2264 H   0  0  0  0  0  0  0  0  0  0  0  0
    2.0136    4.5580   -3.8708 H   0  0  0  0  0  0  0  0  0  0  0  0
  1  3  1  0  0  0  0
  1  7  1  0  0  0  0
  1  2  2  0  0  0  0
 21 22  1  0  0  0  0
 22 24  1  0  0  0  0
 22 23  2  0  0  0  0
 32 33  1  0  0  0  0
 33 41  1  0  0  0  0
 33 34  2  0  0  0  0
  8  9  1  0  0  0  0
  9 17  1  0  0  0  0
  9 10  2  0  0  0  0
 18 19  1  0  0  0  0
 19 31  1  0  0  0  0
 19 20  2  0  0  0  0
 32 35  1  0  0  0  0
  8 11  1  0  0  0  0
 41 42  1  0  0  0  0
 18 21  1  0  0  0  0
 31 32  1  0  0  0  0
  7  8  1  0  0  0  0
 17 18  1  0  0  0  0
  3  4  1  0  0  0  0
  3  5  1  0  0  0  0
  3  6  1  0  0  0  0
 35 38  1  0  0  0  0
 35 39  1  0  0  0  0
 35 40  1  0  0  0  0
 11 14  1  0  0  0  0
 11 15  1  0  0  0  0
 11 16  1  0  0  0  0
 42 44  1  0  0  0  0
 42 45  1  0  0  0  0
 42 46  1  0  0  0  0
 21 27  1  0  0  0  0
 21 28  1  0  0  0  0
 32 37  1  0  0  0  0
  8 13  1  0  0  0  0
 18 26  1  0  0  0  0
 24 29  1  0  0  0  0
 24 30  1  0  0  0  0
 41 43  1  0  0  0  0
  7 12  1  0  0  0  0
 31 36  1  0  0  0  0
 17 25  1  0  0  0  0
M  END
$$$$

  -OEChem-05262214473D

 46 45  0     1  0  0  0  0  0999 V2000
   -0.0543    1.9736    3.8406 C   0  0  0  0  0  0  0  0  0  0  0  0
    0.6744    1.6099    4.7562 O   0  0  0  0  0  0  0  0  0  0  0  0
   -0.5599    3.3779    3.8160 C   0  0  0  0  0  0  0  0  0  0  0  0
   -1.5202    3.4885    4.3450 H   0  0  0  0  0  0  0  0  0  0  0  0
    0.1282    4.0814    4.3116 H   0  0  0  0  0  0  0  0  0  0  0  0
   -0.7317    3.7994    2.8126 H   0  0  0  0  0  0  0  0  0  0  0  0
   -0.4812    1.1968    2.7762 N   0  0  0  0  0  0  0  0  0  0  0  0
   -0.1106   -0.1834    2.6051 C   0  0  2  0  0  0  0  0  0  0  0  0
   -0.0696   -0.4775    1.1113 C   0  0  0  0  0  0  0  0  0  0  0  0
   -0.6805    0.1900    0.2792 O   0  0  0  0  0  0  0  0  0  0  0  0
   -1.0852   -1.1101    3.3150 C   0  0  0  0  0  0  0  0  0  0  0  0
   -1.0883    1.6241    2.0791 H   0  0  0  0  0  0  0  0  0  0  0  0
    0.8937   -0.2959    3.0277 H   0  0  0  0  0  0  0  0  0  0  0  0
   -2.0970   -1.0114    2.9051 H   0  0  0  0  0  0  0  0  0  0  0  0
   -0.7860   -2.1580    3.2078 H   0  0  0  0  0  0  0  0  0  0  0  0
   -1.1357   -0.8775    4.3842 H   0  0  0  0  0  0  0  0  0  0  0  0
    0.6950   -1.6003    0.8178 N   0  0  0  0  0  0  0  0  0  0  0  0
    0.8777   -2.0908   -0.5246 C   0  0  2  0  0  0  0  0  0  0  0  0
    0.4366   -0.9894   -1.4803 C   0  0  0  0  0  0  0  0  0  0  0  0
   -0.4085   -0.1455   -1.1885 O   0  0  0  0  0  0  0  0  0  0  0  0
    0.0823   -3.3721   -0.7758 C   0  0  0  0  0  0  0  0  0  0  0  0
    0.6313   -4.5728   -0.0255 C   0  0  0  0  0  0  0  0  0  0  0  0
    1.8268   -4.8298    0.0806 O   0  0  0  0  0  0  0  0  0  0  0  0
   -0.3680   -5.3429    0.5307 N   0  0  0  0  0  0  0  0  0  0  0  0
    1.1810   -2.0803    1.5718 H   0  0  0  0  0  0  0  0  0  0  0  0
    1.9530   -2.2622   -0.6509 H   0  0  0  0  0  0  0  0  0  0  0  0
   -0.9593   -3.2413   -0.4561 H   0  0  0  0  0  0  0  0  0  0  0  0
    0.0639   -3.6098   -1.8472 H   0  0  0  0  0  0  0  0  0  0  0  0
   -1.3443   -5.0900    0.4202 H   0  0  0  0  0  0  0  0  0  0  0  0
   -0.1719   -6.1829    1.0659 H   0  0  0  0  0  0  0  0  0  0  0  0
    1.1324   -1.0267   -2.6805 N   0  0  0  0  0  0  0  0  0  0  0  0
    0.9016   -0.0631   -3.7300 C   0  0  2  0  0  0  0  0  0  0  0  0
    1.1538    1.3254   -3.1573 C   0  0  0  0  0  0  0  0  0  0  0  0
    1.0982    1.5754   -1.9551 O   0  0  0  0  0  0  0  0  0  0  0  0
   -0.5107   -0.1748   -4.2828 C   0  0  0  0  0  0  0  0  0  0  0  0
    1.8338   -1.7453   -2.8340 H   0  0  0  0  0  0  0  0  0  0  0  0
    1.6333   -0.2723   -4.5179 H   0  0  0  0  0  0  0  0  0  0  0  0
   -1.2578    0.0315   -3.5077 H   0  0  0  0  0  0  0  0  0  0  0  0
   -0.6751    0.5375   -5.0981 H   0  0  0  0  0  0  0  0  0  0  0  0
   -0.7003   -1.1828   -4.6672 H   0  0  0  0  0  0  0  0  0  0  0  0
    1.4058    2.2616   -4.1504 N   0  0  0  0  0  0  0  0  0  0  0  0
    1.6633    3.6533   -3.8626 C   0  0  0  0  0  0  0  0  0  0  0  0
    1.4515    1.9617   -5.1198 H   0  0  0  0  0  0  0  0  0  0  0  0
    0.7195    4.2170   -3.9019 H   0  0  0  0  0  0  0  0  0  0  0  0
    2.1033    3.7447   -2.8586 H   0  0  0  0  0  0  0  0  0  0  0  0
    2.3634    4.0583   -4.6081 H   0  0  0  0  0  0  0  0  0  0  0  0
  1  3  1  0  0  0  0
  1  7  1  0  0  0  0
  1  2  2  0  0  0  0
 21 22  1  0  0  0  0
 22 24  1  0  0  0  0
 22 23  2  0  0  0  0
 32 33  1  0  0  0  0
 33 41  1  0  0  0  0
 33 34  2  0  0  0  0
  8  9  1  0  0  0  0
  9 17  1  0  0  0  0
  9 10  2  0  0  0  0
 18 19  1  0  0  0  0
 19 31  1  0  0  0  0
 19 20  2  0  0  0  0
 32 35  1  0  0  0  0
  8 11  1  0  0  0  0
 41 42  1  0  0  0  0
 18 21  1  0  0  0  0
 31 32  1  0  0  0  0
  7  8  1  0  0  0  0
 17 18  1  0  0  0  0
  3  4  1  0  0  0  0
  3  5  1  0  0  0  0
  3  6  1  0  0  0  0
 35 38  1  0  0  0  0
 35 39  1  0  0  0  0
 35 40  1  0  0  0  0
 11 14  1  0  0  0  0
 11 15  1  0  0  0  0
 11 16  1  0  0  0  0
 42 44  1  0  0  0  0
 42 45  1  0  0  0  0
 42 46  1  0  0  0  0
 21 27  1  0  0  0  0
 21 28  1  0  0  0  0
 32 37  1  0  0  0  0
  8 13  1  0  0  0  0
 18 26  1  0  0  0  0
 24 29  1  0  0  0  0
 24 30  1  0  0  0  0
 41 43  1  0  0  0  0
  7 12  1  0  0  0  0
 31 36  1  0  0  0  0
 17 25  1  0  0  0  0
M  END
$$$$

  -OEChem-05262214473D

 46 45  0     1  0  0  0  0  0999 V2000
   -0.0543    1.9736    3.8406 C   0  0  0  0  0  0  0  0  0  0  0  0
    0.6744    1.6099    4.7562 O   0  0  0  0  0  0  0  0  0  0  0  0
   -0.5599    3.3779    3.8160 C   0  0  0  0  0  0  0  0  0  0  0  0
   -1.5202    3.4885    4.3450 H   0  0  0  0  0  0  0  0  0  0  0  0
    0.1282    4.0814    4.3116 H   0  0  0  0  0  0  0  0  0  0  0  0
   -0.7317    3.7994    2.8126 H   0  0  0  0  0  0  0  0  0  0  0  0
   -0.4812    1.1968    2.7762 N   0  0  0  0  0  0  0  0  0  0  0  0
   -0.1106   -0.1834    2.6051 C   0  0  2  0  0  0  0  0  0  0  0  0
   -0.0696   -0.4775    1.1113 C   0  0  0  0  0  0  0  0  0  0  0  0
   -0.6805    0.1900    0.2792 O   0  0  0  0  0  0  0  0  0  0  0  0
   -1.0852   -1.1101    3.3150 C   0  0  0  0  0  0  0  0  0  0  0  0
   -1.0883    1.6241    2.0791 H   0  0  0  0  0  0  0  0  0  0  0  0
    0.8937   -0.2959    3.0277 H   0  0  0  0  0  0  0  0  0  0  0  0
   -2.0970   -1.0114    2.9051 H   0  0  0  0  0  0  0  0  0  0  0  0
   -0.7860   -2.1580    3.2078 H   0  0  0  0  0  0  0  0  0  0  0  0
   -1.1357   -0.8775    4.3842 H   0  0  0  0  0  0  0  0  0  0  0  0
    0.6950   -1.6003    0.8178 N   0  0  0  0  0  0  0  0  0  0  0  0
    0.8777   -2.0908   -0.5246 C   0  0  2  0  0  0  0  0  0  0  0  0
    0.4366   -0.9894   -1.4803 C   0  0  0  0  0  0  0  0  0  0  0  0
   -0.1947    0.0014   -1.1179 O   0  0  0  0  0  0  0  0  0  0  0  0
    0.0823   -3.3721   -0.7758 C   0  0  0  0  0  0  0  0  0  0  0  0
    0.6313   -4.5728   -0.0255 C   0  0  0  0  0  0  0  0  0  0  0  0
    1.8268   -4.8298    0.0806 O   0  0  0  0  0  0  0  0  0  0  0  0
   -0.3680   -5.3429    0.5307 N   0  0  0  0  0  0  0  0  0  0  0  0
    1.1810   -2.0803    1.5718 H   0  0  0  0  0  0  0  0  0  0  0  0
    1.9530   -2.2622   -0.6509 H   0  0  0  0  0  0  0  0  0  0  0  0
   -0.9593   -3.2413   -0.4561 H   0  0  0  0  0  0  0  0  0  0  0  0
    0.0639   -3.6098   -1.8472 H   0  0  0  0  0  0  0  0  0  0  0  0
   -1.3443   -5.0900    0.4202 H   0  0  0  0  0  0  0  0  0  0  0  0
   -0.1719   -6.1829    1.0659 H   0  0  0  0  0  0  0  0  0  0  0  0
    0.8729   -1.2154   -2.7782 N   0  0  0  0  0  0  0  0  0  0  0  0
    0.5960   -0.2908   -3.8513 C   0  0  2  0  0  0  0  0  0  0  0  0
    1.1666    1.0664   -3.4616 C   0  0  0  0  0  0  0  0  0  0  0  0
    1.3839    1.3933   -2.2967 O   0  0  0  0  0  0  0  0  0  0  0  0
   -0.8964   -0.1941   -4.1271 C   0  0  0  0  0  0  0  0  0  0  0  0
    1.4112   -2.0503   -2.9905 H   0  0  0  0  0  0  0  0  0  0  0  0
    1.1201   -0.6674   -4.7365 H   0  0  0  0  0  0  0  0  0  0  0  0
   -1.4383    0.1815   -3.2515 H   0  0  0  0  0  0  0  0  0  0  0  0
   -1.1027    0.4859   -4.9602 H   0  0  0  0  0  0  0  0  0  0  0  0
   -1.3108   -1.1765   -4.3782 H   0  0  0  0  0  0  0  0  0  0  0  0
    1.3641    1.8856   -4.5644 N   0  0  0  0  0  0  0  0  0  0  0  0
    1.8852    3.2282   -4.4549 C   0  0  0  0  0  0  0  0  0  0  0  0
    1.1744    1.5253   -5.4949 H   0  0  0  0  0  0  0  0  0  0  0  0
    1.0508    3.9404   -4.3736 H   0  0  0  0  0  0  0  0  0  0  0  0
    2.5197    3.3032   -3.5595 H   0  0  0  0  0  0  0  0  0  0  0  0
    2.4823    3.4636   -5.3482 H   0  0  0  0  0  0  0  0  0  0  0  0
  1  3  1  0  0  0  0
  1  7  1  0  0  0  0
  1  2  2  0  0  0  0
 21 22  1  0  0  0  0
 22 24  1  0  0  0  0
 22 23  2  0  0  0  0
 32 33  1  0  0  0  0
 33 41  1  0  0  0  0
 33 34  2  0  0  0  0
  8  9  1  0  0  0  0
  9 17  1  0  0  0  0
  9 10  2  0  0  0  0
 18 19  1  0  0  0  0
 19 31  1  0  0  0  0
 19 20  2  0  0  0  0
 32 35  1  0  0  0  0
  8 11  1  0  0  0  0
 41 42  1  0  0  0  0
 18 21  1  0  0  0  0
 31 32  1  0  0  0  0
  7  8  1  0  0  0  0
 17 18  1  0  0  0  0
  3  4  1  0  0  0  0
  3  5  1  0  0  0  0
  3  6  1  0  0  0  0
 35 38  1  0  0  0  0
 35 39  1  0  0  0  0
 35 40  1  0  0  0  0
 11 14  1  0  0  0  0
 11 15  1  0  0  0  0
 11 16  1  0  0  0  0
 42 44  1  0  0  0  0
 42 45  1  0  0  0  0
 42 46  1  0  0  0  0
 21 27  1  0  0  0  0
 21 28  1  0  0  0  0
 32 37  1  0  0  0  0
  8 13  1  0  0  0  0
 18 26  1  0  0  0  0
 24 29  1  0  0  0  0
 24 30  1  0  0  0  0
 41 43  1  0  0  0  0
  7 12  1  0  0  0  0
 31 36  1  0  0  0  0
 17 25  1  0  0  0  0
M  END
$$$$

  -OEChem-05262214473D

 46 45  0     1  0  0  0  0  0999 V2000
   -0.0543    1.9736    3.8406 C   0  0  0  0  0  0  0  0  0  0  0  0
    0.6744    1.6099    4.7562 O   0  0  0  0  0  0  0  0  0  0  0  0
   -0.5599    3.3779    3.8160 C   0  0  0  0  0  0  0  0  0  0  0  0
   -1.5202    3.4885    4.3450 H   0  0  0  0  0  0  0  0  0  0  0  0
    0.1282    4.0814    4.3116 H   0  0  0  0  0  0  0  0  0  0  0  0
   -0.7317    3.7994    2.8126 H   0  0  0  0  0  0  0  0  0  0  0  0
   -0.4812    1.1968    2.7762 N   0  0  0  0  0  0  0  0  0  0  0  0
   -0.1106   -0.1834    2.6051 C   0  0  2  0  0  0  0  0  0  0  0  0
   -0.0696   -0.4775    1.1113 C   0  0  0  0  0  0  0  0  0  0  0  0
   -0.6805    0.1900    0.2792 O   0  0  0  0  0  0  0  0  0  0  0  0
   -1.0852   -1.1101    3.3150 C   0  0  0  0  0  0  0  0  0  0  0  0
   -1.0883    1.6241    2.0791 H   0  0  0  0  0  0  0  0  0  0  0  0
    0.8937   -0.2959    3.0277 H   0  0  0  0  0  0  0  0  0  0  0  0
   -2.0970   -1.0114    2.9051 H   0  0  0  0  0  0  0  0  0  0  0  0
   -0.7860   -2.1580    3.2078 H   0  0  0  0  0  0  0  0  0  0  0  0
   -1.1357   -0.8775    4.3842 H   0  0  0  0  0  0  0  0  0  0  0  0
    0.6950   -1.6003    0.8178 N   0  0  0  0  0  0  0  0  0  0  0  0
    0.8777   -2.0908   -0.5246 C   0  0  2  0  0  0  0  0  0  0  0  0
    0.8034   -0.8945   -1.4651 C   0  0  0  0  0  0  0  0  0  0  0  0
    0.6581    0.2611   -1.0717 O   0  0  0  0  0  0  0  0  0  0  0  0
   -0.1750   -3.1350   -0.8974 C   0  0  0  0  0  0  0  0  0  0  0  0
   -0.0012   -4.4492   -0.1567 C   0  0  0  0  0  0  0  0  0  0  0  0
    1.0828   -4.9909    0.0383 O   0  0  0  0  0  0  0  0  0  0  0  0
   -1.2029   -4.9660    0.2794 N   0  0  0  0  0  0  0  0  0  0  0  0
    1.1810   -2.0803    1.5718 H   0  0  0  0  0  0  0  0  0  0  0  0
    1.8875   -2.5152   -0.5674 H   0  0  0  0  0  0  0  0  0  0  0  0
   -1.1797   -2.7625   -0.6611 H   0  0  0  0  0  0  0  0  0  0  0  0
   -0.1510   -3.3375   -1.9759 H   0  0  0  0  0  0  0  0  0  0  0  0
   -2.0756   -4.4813    0.0983 H   0  0  0  0  0  0  0  0  0  0  0  0
   -1.2640   -5.8400    0.7920 H   0  0  0  0  0  0  0  0  0  0  0  0
    0.9685   -1.2607   -2.7935 N   0  0  0  0  0  0  0  0  0  0  0  0
    0.9614   -0.2904   -3.8620 C   0  0  2  0  0  0  0  0  0  0  0  0
    2.0601    0.7262   -3.5814 C   0  0  0  0  0  0  0  0  0  0  0  0
    2.5163    0.9280   -2.4579 O   0  0  0  0  0  0  0  0  0  0  0  0
   -0.3927    0.3915   -3.9811 C   0  0  0  0  0  0  0  0  0  0  0  0
    1.1071   -2.2380   -3.0331 H   0  0  0  0  0  0  0  0  0  0  0  0
    1.1930   -0.8341   -4.7844 H   0  0  0  0  0  0  0  0  0  0  0  0
   -0.6420    0.9413   -3.0662 H   0  0  0  0  0  0  0  0  0  0  0  0
   -0.4052    1.1066   -4.8103 H   0  0  0  0  0  0  0  0  0  0  0  0
   -1.1857   -0.3442   -4.1533 H   0  0  0  0  0  0  0  0  0  0  0  0
    2.4409    1.4124   -4.7261 N   0  0  0  0  0  0  0  0  0  0  0  0
    3.4576    2.4382   -4.7182 C   0  0  0  0  0  0  0  0  0  0  0  0
    2.0227    1.1664   -5.6185 H   0  0  0  0  0  0  0  0  0  0  0  0
    2.9861    3.4214   -4.5731 H   0  0  0  0  0  0  0  0  0  0  0  0
    4.1653    2.2465   -3.8982 H   0  0  0  0  0  0  0  0  0  0  0  0
    3.9962    2.4279   -5.6773 H   0  0  0  0  0  0  0  0  0  0  0  0
  1  3  1  0  0  0  0
  1  7  1  0  0  0  0
  1  2  2  0  0  0  0
 21 22  1  0  0  0  0
 22 24  1  0  0  0  0
 22 23  2  0  0  0  0
 32 33  1  0  0  0  0
 33 41  1  0  0  0  0
 33 34  2  0  0  0  0
  8  9  1  0  0  0  0
  9 17  1  0  0  0  0
  9 10  2  0  0  0  0
 18 19  1  0  0  0  0
 19 31  1  0  0  0  0
 19 20  2  0  0  0  0
 32 35  1  0  0  0  0
  8 11  1  0  0  0  0
 41 42  1  0  0  0  0
 18 21  1  0  0  0  0
 31 32  1  0  0  0  0
  7  8  1  0  0  0  0
 17 18  1  0  0  0  0
  3  4  1  0  0  0  0
  3  5  1  0  0  0  0
  3  6  1  0  0  0  0
 35 38  1  0  0  0  0
 35 39  1  0  0  0  0
 35 40  1  0  0  0  0
 11 14  1  0  0  0  0
 11 15  1  0  0  0  0
 11 16  1  0  0  0  0
 42 44  1  0  0  0  0
 42 45  1  0  0  0  0
 42 46  1  0  0  0  0
 21 27  1  0  0  0  0
 21 28  1  0  0  0  0
 32 37  1  0  0  0  0
  8 13  1  0  0  0  0
 18 26  1  0  0  0  0
 24 29  1  0  0  0  0
 24 30  1  0  0  0  0
 41 43  1  0  0  0  0
  7 12  1  0  0  0  0
 31 36  1  0  0  0  0
 17 25  1  0  0  0  0
M  END
$$$$

  -OEChem-05262214473D

 46 45  0     1  0  0  0  0  0999 V2000
   -0.0543    1.9736    3.8406 C   0  0  0  0  0  0  0  0  0  0  0  0
    0.6744    1.6099    4.7562 O   0  0  0  0  0  0  0  0  0  0  0  0
   -0.5599    3.3779    3.8160 C   0  0  0  0  0  0  0  0  0  0  0  0
   -1.5202    3.4885    4.3450 H   0  0  0  0  0  0  0  0  0  0  0  0
    0.1282    4.0814    4.3116 H   0  0  0  0  0  0  0  0  0  0  0  0
   -0.7317    3.7994    2.8126 H   0  0  0  0  0  0  0  0  0  0  0  0
   -0.4812    1.1968    2.7762 N   0  0  0  0  0  0  0  0  0  0  0  0
   -0.1106   -0.1834    2.6051 C   0  0  2  0  0  0  0  0  0  0  0  0
   -0.0696   -0.4775    1.1113 C   0  0  0  0  0  0  0  0  0  0  0  0
   -0.6805    0.1900    0.2792 O   0  0  0  0  0  0  0  0  0  0  0  0
   -1.0852   -1.1101    3.3150 C   0  0  0  0  0  0  0  0  0  0  0  0
   -1.0883    1.6241    2.0791 H   0  0  0  0  0  0  0  0  0  0  0  0
    0.8937   -0.2959    3.0277 H   0  0  0  0  0  0  0  0  0  0  0  0
   -2.0970   -1.0114    2.9051 H   0  0  0  0  0  0  0  0  0  0  0  0
   -0.7860   -2.1580    3.2078 H   0  0  0  0  0  0  0  0  0  0  0  0
   -1.1357   -0.8775    4.3842 H   0  0  0  0  0  0  0  0  0  0  0  0
    0.6950   -1.6003    0.8178 N   0  0  0  0  0  0  0  0  0  0  0  0
    0.8777   -2.0908   -0.5246 C   0  0  2  0  0  0  0  0  0  0  0  0
    0.8034   -0.8945   -1.4651 C   0  0  0  0  0  0  0  0  0  0  0  0
    0.9266    0.2679   -1.0842 O   0  0  0  0  0  0  0  0  0  0  0  0
   -0.1750   -3.1350   -0.8974 C   0  0  0  0  0  0  0  0  0  0  0  0
   -0.0012   -4.4492   -0.1567 C   0  0  0  0  0  0  0  0  0  0  0  0
    1.0828   -4.9909    0.0383 O   0  0  0  0  0  0  0  0  0  0  0  0
   -1.2029   -4.9660    0.2794 N   0  0  0  0  0  0  0  0  0  0  0  0
    1.1810   -2.0803    1.5718 H   0  0  0  0  0  0  0  0  0  0  0  0
    1.8875   -2.5152   -0.5674 H   0  0  0  0  0  0  0  0  0  0  0  0
   -1.1797   -2.7625   -0.6611 H   0  0  0  0  0  0  0  0  0  0  0  0
   -0.1510   -3.3375   -1.9759 H   0  0  0  0  0  0  0  0  0  0  0  0
   -2.0756   -4.4813    0.0983 H   0  0  0  0  0  0  0  0  0  0  0  0
   -1.2640   -5.8400    0.7920 H   0  0  0  0  0  0  0  0  0  0  0  0
    0.6336   -1.2773   -2.7882 N   0  0  0  0  0  0  0  0  0  0  0  0
    0.5622   -0.3144   -3.8610 C   0  0  2  0  0  0  0  0  0  0  0  0
    1.8419    0.5109   -3.8380 C   0  0  0  0  0  0  0  0  0  0  0  0
    2.5441    0.6322   -2.8364 O   0  0  0  0  0  0  0  0  0  0  0  0
   -0.6621    0.5772   -3.7237 C   0  0  0  0  0  0  0  0  0  0  0  0
    0.5636   -2.2632   -3.0223 H   0  0  0  0  0  0  0  0  0  0  0  0
    0.5114   -0.8846   -4.7949 H   0  0  0  0  0  0  0  0  0  0  0  0
   -0.6289    1.1564   -2.7937 H   0  0  0  0  0  0  0  0  0  0  0  0
   -0.7303    1.2882   -4.5536 H   0  0  0  0  0  0  0  0  0  0  0  0
   -1.5800   -0.0205   -3.7104 H   0  0  0  0  0  0  0  0  0  0  0  0
    2.0848    1.1312   -5.0556 N   0  0  0  0  0  0  0  0  0  0  0  0
    3.2311    1.9798   -5.2833 C   0  0  0  0  0  0  0  0  0  0  0  0
    1.4596    0.9593   -5.8374 H   0  0  0  0  0  0  0  0  0  0  0  0
    2.9610    3.0255   -5.0746 H   0  0  0  0  0  0  0  0  0  0  0  0
    4.0519    1.6735   -4.6181 H   0  0  0  0  0  0  0  0  0  0  0  0
    3.5538    1.8867   -6.3308 H   0  0  0  0  0  0  0  0  0  0  0  0
  1  3  1  0  0  0  0
  1  7  1  0  0  0  0
  1  2  2  0  0  0  0
 21 22  1  0  0  0  0
 22 24  1  0  0  0  0
 22 23  2  0  0  0  0
 32 33  1  0  0  0  0
 33 41  1  0  0  0  0
 33 34  2  0  0  0  0
  8  9  1  0  0  0  0
  9 17  1  0  0  0  0
  9 10  2  0  0  0  0
 18 19  1  0  0  0  0
 19 31  1  0  0  0  0
 19 20  2  0  0  0  0
 32 35  1  0  0  0  0
  8 11  1  0  0  0  0
 41 42  1  0  0  0  0
 18 21  1  0  0  0  0
 31 32  1  0  0  0  0
  7  8  1  0  0  0  0
 17 18  1  0  0  0  0
  3  4  1  0  0  0  0
  3  5  1  0  0  0  0
  3  6  1  0  0  0  0
 35 38  1  0  0  0  0
 35 39  1  0  0  0  0
 35 40  1  0  0  0  0
 11 14  1  0  0  0  0
 11 15  1  0  0  0  0
 11 16  1  0  0  0  0
 42 44  1  0  0  0  0
 42 45  1  0  0  0  0
 42 46  1  0  0  0  0
 21 27  1  0  0  0  0
 21 28  1  0  0  0  0
 32 37  1  0  0  0  0
  8 13  1  0  0  0  0
 18 26  1  0  0  0  0
 24 29  1  0  0  0  0
 24 30  1  0  0  0  0
 41 43  1  0  0  0  0
  7 12  1  0  0  0  0
 31 36  1  0  0  0  0
 17 25  1  0  0  0  0
M  END
$$$$

  -OEChem-05262214473D

 46 45  0     1  0  0  0  0  0999 V2000
   -0.0543    1.9736    3.8406 C   0  0  0  0  0  0  0  0  0  0  0  0
    0.6744    1.6099    4.7562 O   0  0  0  0  0  0  0  0  0  0  0  0
   -0.5599    3.3779    3.8160 C   0  0  0  0  0  0  0  0  0  0  0  0
   -1.5202    3.4885    4.3450 H   0  0  0  0  0  0  0  0  0  0  0  0
    0.1282    4.0814    4.3116 H   0  0  0  0  0  0  0  0  0  0  0  0
   -0.7317    3.7994    2.8126 H   0  0  0  0  0  0  0  0  0  0  0  0
   -0.4812    1.1968    2.7762 N   0  0  0  0  0  0  0  0  0  0  0  0
   -0.1106   -0.1834    2.6051 C   0  0  2  0  0  0  0  0  0  0  0  0
   -0.0696   -0.4775    1.1113 C   0  0  0  0  0  0  0  0  0  0  0  0
   -0.6805    0.1900    0.2792 O   0  0  0  0  0  0  0  0  0  0  0  0
   -1.0852   -1.1101    3.3150 C   0  0  0  0  0  0  0  0  0  0  0  0
   -1.0883    1.6241    2.0791 H   0  0  0  0  0  0  0  0  0  0  0  0
    0.8937   -0.2959    3.0277 H   0  0  0  0  0  0  0  0  0  0  0  0
   -2.0970   -1.0114    2.9051 H   0  0  0  0  0  0  0  0  0  0  0  0
   -0.7860   -2.1580    3.2078 H   0  0  0  0  0  0  0  0  0  0  0  0
   -1.1357   -0.8775    4.3842 H   0  0  0  0  0  0  0  0  0  0  0  0
    0.6950   -1.6003    0.8178 N   0  0  0  0  0  0  0  0  0  0  0  0
    0.8777   -2.0908   -0.5246 C   0  0  2  0  0  0  0  0  0  0  0  0
    0.8034   -0.8945   -1.4651 C   0  0  0  0  0  0  0  0  0  0  0  0
    1.1844    0.2314   -1.1510 O   0  0  0  0  0  0  0  0  0  0  0  0
   -0.1750   -3.1350   -0.8974 C   0  0  0  0  0  0  0  0  0  0  0  0
   -0.0012   -4.4492   -0.1567 C   0  0  0  0  0  0  0  0  0  0  0  0
    1.0828   -4.9909    0.0383 O   0  0  0  0  0  0  0  0  0  0  0  0
   -1.2029   -4.9660    0.2794 N   0  0  0  0  0  0  0  0  0  0  0  0
    1.1810   -2.0803    1.5718 H   0  0  0  0  0  0  0  0  0  0  0  0
    1.8875   -2.5152   -0.5674 H   0  0  0  0  0  0  0  0  0  0  0  0
   -1.1797   -2.7625   -0.6611 H   0  0  0  0  0  0  0  0  0  0  0  0
   -0.1510   -3.3375   -1.9759 H   0  0  0  0  0  0  0  0  0  0  0  0
   -2.0756   -4.4813    0.0983 H   0  0  0  0  0  0  0  0  0  0  0  0
   -1.2640   -5.8400    0.7920 H   0  0  0  0  0  0  0  0  0  0  0  0
    0.3084   -1.2398   -2.7148 N   0  0  0  0  0  0  0  0  0  0  0  0
    0.1730   -0.2738   -3.7785 C   0  0  2  0  0  0  0  0  0  0  0  0
    1.5447    0.3346   -4.0389 C   0  0  0  0  0  0  0  0  0  0  0  0
    2.4468    0.3372   -3.2039 O   0  0  0  0  0  0  0  0  0  0  0  0
   -0.8404    0.8029   -3.4225 C   0  0  0  0  0  0  0  0  0  0  0  0
    0.0368   -2.2006   -2.9011 H   0  0  0  0  0  0  0  0  0  0  0  0
   -0.1573   -0.8247   -4.6659 H   0  0  0  0  0  0  0  0  0  0  0  0
   -0.5266    1.3655   -2.5358 H   0  0  0  0  0  0  0  0  0  0  0  0
   -0.9630    1.5188   -4.2419 H   0  0  0  0  0  0  0  0  0  0  0  0
   -1.8190    0.3608   -3.2066 H   0  0  0  0  0  0  0  0  0  0  0  0
    1.6289    0.9124   -5.2980 N   0  0  0  0  0  0  0  0  0  0  0  0
    2.8242    1.5662   -5.7774 C   0  0  0  0  0  0  0  0  0  0  0  0
    0.8380    0.8465   -5.9319 H   0  0  0  0  0  0  0  0  0  0  0  0
    2.7717    2.6409   -5.5489 H   0  0  0  0  0  0  0  0  0  0  0  0
    3.7044    1.1290   -5.2832 H   0  0  0  0  0  0  0  0  0  0  0  0
    2.9072    1.4263   -6.8653 H   0  0  0  0  0  0  0  0  0  0  0  0
  1  3  1  0  0  0  0
  1  7  1  0  0  0  0
  1  2  2  0  0  0  0
 21 22  1  0  0  0  0
 22 24  1  0  0  0  0
 22 23  2  0  0  0  0
 32 33  1  0  0  0  0
 33 41  1  0  0  0  0
 33 34  2  0  0  0  0
  8  9  1  0  0  0  0
  9 17  1  0  0  0  0
  9 10  2  0  0  0  0
 18 19  1  0  0  0  0
 19 31  1  0  0  0  0
 19 20  2  0  0  0  0
 32 35  1  0  0  0  0
  8 11  1  0  0  0  0
 41 42  1  0  0  0  0
 18 21  1  0  0  0  0
 31 32  1  0  0  0  0
  7  8  1  0  0  0  0
 17 18  1  0  0  0  0
  3  4  1  0  0  0  0
  3  5  1  0  0  0  0
  3  6  1  0  0  0  0
 35 38  1  0  0  0  0
 35 39  1  0  0  0  0
 35 40  1  0  0  0  0
 11 14  1  0  0  0  0
 11 15  1  0  0  0  0
 11 16  1  0  0  0  0
 42 44  1  0  0  0  0
 42 45  1  0  0  0  0
 42 46  1  0  0  0  0
 21 27  1  0  0  0  0
 21 28  1  0  0  0  0
 32 37  1  0  0  0  0
  8 13  1  0  0  0  0
 18 26  1  0  0  0  0
 24 29  1  0  0  0  0
 24 30  1  0  0  0  0
 41 43  1  0  0  0  0
  7 12  1  0  0  0  0
 31 36  1  0  0  0  0
 17 25  1  0  0  0  0
M  END
$$$$

  -OEChem-05262214473D

 46 45  0     1  0  0  0  0  0999 V2000
   -0.0543    1.9736    3.8406 C   0  0  0  0  0  0  0  0  0  0  0  0
    0.6744    1.6099    4.7562 O   0  0  0  0  0  0  0  0  0  0  0  0
   -0.5599    3.3779    3.8160 C   0  0  0  0  0  0  0  0  0  0  0  0
   -1.5202    3.4885    4.3450 H   0  0  0  0  0  0  0  0  0  0  0  0
    0.1282    4.0814    4.3116 H   0  0  0  0  0  0  0  0  0  0  0  0
   -0.7317    3.7994    2.8126 H   0  0  0  0  0  0  0  0  0  0  0  0
   -0.4812    1.1968    2.7762 N   0  0  0  0  0  0  0  0  0  0  0  0
   -0.1106   -0.1834    2.6051 C   0  0  2  0  0  0  0  0  0  0  0  0
   -0.0696   -0.4775    1.1113 C   0  0  0  0  0  0  0  0  0  0  0  0
   -0.6805    0.1900    0.2792 O   0  0  0  0  0  0  0  0  0  0  0  0
   -1.0852   -1.1101    3.3150 C   0  0  0  0  0  0  0  0  0  0  0  0
   -1.0883    1.6241    2.0791 H   0  0  0  0  0  0  0  0  0  0  0  0
    0.8937   -0.2959    3.0277 H   0  0  0  0  0  0  0  0  0  0  0  0
   -2.0970   -1.0114    2.9051 H   0  0  0  0  0  0  0  0  0  0  0  0
   -0.7860   -2.1580    3.2078 H   0  0  0  0  0  0  0  0  0  0  0  0
   -1.1357   -0.8775    4.3842 H   0  0  0  0  0  0  0  0  0  0  0  0
    0.6950   -1.6003    0.8178 N   0  0  0  0  0  0  0  0  0  0  0  0
    0.8777   -2.0908   -0.5246 C   0  0  2  0  0  0  0  0  0  0  0  0
    0.8034   -0.8945   -1.4651 C   0  0  0  0  0  0  0  0  0  0  0  0
    1.4140    0.1541   -1.2675 O   0  0  0  0  0  0  0  0  0  0  0  0
   -0.1750   -3.1350   -0.8974 C   0  0  0  0  0  0  0  0  0  0  0  0
   -0.0012   -4.4492   -0.1567 C   0  0  0  0  0  0  0  0  0  0  0  0
    1.0828   -4.9909    0.0383 O   0  0  0  0  0  0  0  0  0  0  0  0
   -1.2029   -4.9660    0.2794 N   0  0  0  0  0  0  0  0  0  0  0  0
    1.1810   -2.0803    1.5718 H   0  0  0  0  0  0  0  0  0  0  0  0
    1.8875   -2.5152   -0.5674 H   0  0  0  0  0  0  0  0  0  0  0  0
   -1.1797   -2.7625   -0.6611 H   0  0  0  0  0  0  0  0  0  0  0  0
   -0.1510   -3.3375   -1.9759 H   0  0  0  0  0  0  0  0  0  0  0  0
   -2.0756   -4.4813    0.0983 H   0  0  0  0  0  0  0  0  0  0  0  0
   -1.2640   -5.8400    0.7920 H   0  0  0  0  0  0  0  0  0  0  0  0
    0.0153   -1.1506   -2.5783 N   0  0  0  0  0  0  0  0  0  0  0  0
   -0.1797   -0.1713   -3.6204 C   0  0  2  0  0  0  0  0  0  0  0  0
    1.1886    0.2092   -4.1703 C   0  0  0  0  0  0  0  0  0  0  0  0
    2.2310    0.0632   -3.5353 O   0  0  0  0  0  0  0  0  0  0  0  0
   -0.9153    1.0531   -3.0983 C   0  0  0  0  0  0  0  0  0  0  0  0
   -0.4374   -2.0545   -2.6777 H   0  0  0  0  0  0  0  0  0  0  0  0
   -0.7673   -0.6583   -4.4062 H   0  0  0  0  0  0  0  0  0  0  0  0
   -0.3419    1.5544   -2.3101 H   0  0  0  0  0  0  0  0  0  0  0  0
   -1.0877    1.7827   -3.8965 H   0  0  0  0  0  0  0  0  0  0  0  0
   -1.8866    0.7736   -2.6761 H   0  0  0  0  0  0  0  0  0  0  0  0
    1.1043    0.7708   -5.4367 N   0  0  0  0  0  0  0  0  0  0  0  0
    2.2647    1.2254   -6.1667 C   0  0  0  0  0  0  0  0  0  0  0  0
    0.2004    0.8357   -5.8954 H   0  0  0  0  0  0  0  0  0  0  0  0
    2.4309    2.2936   -5.9637 H   0  0  0  0  0  0  0  0  0  0  0  0
    3.1466    0.6502   -5.8482 H   0  0  0  0  0  0  0  0  0  0  0  0
    2.1005    1.0783   -7.2444 H   0  0  0  0  0  0  0  0  0  0  0  0
  1  3  1  0  0  0  0
  1  7  1  0  0  0  0
  1  2  2  0  0  0  0
 21 22  1  0  0  0  0
 22 24  1  0  0  0  0
 22 23  2  0  0  0  0
 32 33  1  0  0  0  0
 33 41  1  0  0  0  0
 33 34  2  0  0  0  0
  8  9  1  0  0  0  0
  9 17  1  0  0  0  0
  9 10  2  0  0  0  0
 18 19  1  0  0  0  0
 19 31  1  0  0  0  0
 19 20  2  0  0  0  0
 32 35  1  0  0  0  0
  8 11  1  0  0  0  0
 41 42  1  0  0  0  0
 18 21  1  0  0  0  0
 31 32  1  0  0  0  0
  7  8  1  0  0  0  0
 17 18  1  0  0  0  0
  3  4  1  0  0  0  0
  3  5  1  0  0  0  0
  3  6  1  0  0  0  0
 35 38  1  0  0  0  0
 35 39  1  0  0  0  0
 35 40  1  0  0  0  0
 11 14  1  0  0  0  0
 11 15  1  0  0  0  0
 11 16  1  0  0  0  0
 42 44  1  0  0  0  0
 42 45  1  0  0  0  0
 42 46  1  0  0  0  0
 21 27  1  0  0  0  0
 21 28  1  0  0  0  0
 32 37  1  0  0  0  0
  8 13  1  0  0  0  0
 18 26  1  0  0  0  0
 24 29  1  0  0  0  0
 24 30  1  0  0  0  0
 41 43  1  0  0  0  0
  7 12  1  0  0  0  0
 31 36  1  0  0  0  0
 17 25  1  0  0  0  0
M  END
$$$$

  -OEChem-05262214473D

 46 45  0     1  0  0  0  0  0999 V2000
   -0.0543    1.9736    3.8406 C   0  0  0  0  0  0  0  0  0  0  0  0
    0.6744    1.6099    4.7562 O   0  0  0  0  0  0  0  0  0  0  0  0
   -0.5599    3.3779    3.8160 C   0  0  0  0  0  0  0  0  0  0  0  0
   -1.5202    3.4885    4.3450 H   0  0  0  0  0  0  0  0  0  0  0  0
    0.1282    4.0814    4.3116 H   0  0  0  0  0  0  0  0  0  0  0  0
   -0.7317    3.7994    2.8126 H   0  0  0  0  0  0  0  0  0  0  0  0
   -0.4812    1.1968    2.7762 N   0  0  0  0  0  0  0  0  0  0  0  0
   -0.1106   -0.1834    2.6051 C   0  0  2  0  0  0  0  0  0  0  0  0
   -0.0696   -0.4775    1.1113 C   0  0  0  0  0  0  0  0  0  0  0  0
   -0.6805    0.1900    0.2792 O   0  0  0  0  0  0  0  0  0  0  0  0
   -1.0852   -1.1101    3.3150 C   0  0  0  0  0  0  0  0  0  0  0  0
   -1.0883    1.6241    2.0791 H   0  0  0  0  0  0  0  0  0  0  0  0
    0.8937   -0.2959    3.0277 H   0  0  0  0  0  0  0  0  0  0  0  0
   -2.0970   -1.0114    2.9051 H   0  0  0  0  0  0  0  0  0  0  0  0
   -0.7860   -2.1580    3.2078 H   0  0  0  0  0  0  0  0  0  0  0  0
   -1.1357   -0.8775    4.3842 H   0  0  0  0  0  0  0  0  0  0  0  0
    0.6950   -1.6003    0.8178 N   0  0  0  0  0  0  0  0  0  0  0  0
    0.8777   -2.0908   -0.5246 C   0  0  2  0  0  0  0  0  0  0  0  0
    0.8034   -0.8945   -1.4651 C   0  0  0  0  0  0  0  0  0  0  0  0
    1.5998    0.0413   -1.4256 O   0  0  0  0  0  0  0  0  0  0  0  0
   -0.1750   -3.1350   -0.8974 C   0  0  0  0  0  0  0  0  0  0  0  0
   -0.0012   -4.4492   -0.1567 C   0  0  0  0  0  0  0  0  0  0  0  0
    1.0828   -4.9909    0.0383 O   0  0  0  0  0  0  0  0  0  0  0  0
   -1.2029   -4.9660    0.2794 N   0  0  0  0  0  0  0  0  0  0  0  0
    1.1810   -2.0803    1.5718 H   0  0  0  0  0  0  0  0  0  0  0  0
    1.8875   -2.5152   -0.5674 H   0  0  0  0  0  0  0  0  0  0  0  0
   -1.1797   -2.7625   -0.6611 H   0  0  0  0  0  0  0  0  0  0  0  0
   -0.1510   -3.3375   -1.9759 H   0  0  0  0  0  0  0  0  0  0  0  0
   -2.0756   -4.4813    0.0983 H   0  0  0  0  0  0  0  0  0  0  0  0
   -1.2640   -5.8400    0.7920 H   0  0  0  0  0  0  0  0  0  0  0  0
   -0.2259   -1.0160   -2.3880 N   0  0  0  0  0  0  0  0  0  0  0  0
   -0.4719   -0.0139   -3.3972 C   0  0  2  0  0  0  0  0  0  0  0  0
    0.7979    0.1433   -4.2233 C   0  0  0  0  0  0  0  0  0  0  0  0
    1.9114   -0.1712   -3.8082 O   0  0  0  0  0  0  0  0  0  0  0  0
   -0.8818    1.3109   -2.7731 C   0  0  0  0  0  0  0  0  0  0  0  0
   -0.8267   -1.8347   -2.3675 H   0  0  0  0  0  0  0  0  0  0  0  0
   -1.2772   -0.3969   -4.0334 H   0  0  0  0  0  0  0  0  0  0  0  0
   -0.0875    1.7102   -2.1320 H   0  0  0  0  0  0  0  0  0  0  0  0
   -1.0958    2.0618   -3.5408 H   0  0  0  0  0  0  0  0  0  0  0  0
   -1.7782    1.1899   -2.1552 H   0  0  0  0  0  0  0  0  0  0  0  0
    0.5468    0.7161   -5.4622 N   0  0  0  0  0  0  0  0  0  0  0  0
    1.5907    0.9807   -6.4247 C   0  0  0  0  0  0  0  0  0  0  0  0
   -0.4098    0.9275   -5.7304 H   0  0  0  0  0  0  0  0  0  0  0  0
    1.9620    2.0074   -6.2908 H   0  0  0  0  0  0  0  0  0  0  0  0
    2.4165    0.2697   -6.2746 H   0  0  0  0  0  0  0  0  0  0  0  0
    1.1887    0.8661   -7.4422 H   0  0  0  0  0  0  0  0  0  0  0  0
  1  3  1  0  0  0  0
  1  7  1  0  0  0  0
  1  2  2  0  0  0  0
 21 22  1  0  0  0  0
 22 24  1  0  0  0  0
 22 23  2  0  0  0  0
 32 33  1  0  0  0  0
 33 41  1  0  0  0  0
 33 34  2  0  0  0  0
  8  9  1  0  0  0  0
  9 17  1  0  0  0  0
  9 10  2  0  0  0  0
 18 19  1  0  0  0  0
 19 31  1  0  0  0  0
 19 20  2  0  0  0  0
 32 35  1  0  0  0  0
  8 11  1  0  0  0  0
 41 42  1  0  0  0  0
 18 21  1  0  0  0  0
 31 32  1  0  0  0  0
  7  8  1  0  0  0  0
 17 18  1  0  0  0  0
  3  4  1  0  0  0  0
  3  5  1  0  0  0  0
  3  6  1  0  0  0  0
 35 38  1  0  0  0  0
 35 39  1  0  0  0  0
 35 40  1  0  0  0  0
 11 14  1  0  0  0  0
 11 15  1  0  0  0  0
 11 16  1  0  0  0  0
 42 44  1  0  0  0  0
 42 45  1  0  0  0  0
 42 46  1  0  0  0  0
 21 27  1  0  0  0  0
 21 28  1  0  0  0  0
 32 37  1  0  0  0  0
  8 13  1  0  0  0  0
 18 26  1  0  0  0  0
 24 29  1  0  0  0  0
 24 30  1  0  0  0  0
 41 43  1  0  0  0  0
  7 12  1  0  0  0  0
 31 36  1  0  0  0  0
 17 25  1  0  0  0  0
M  END
$$$$

  -OEChem-05262214473D

 46 45  0     1  0  0  0  0  0999 V2000
   -0.0543    1.9736    3.8406 C   0  0  0  0  0  0  0  0  0  0  0  0
    0.6744    1.6099    4.7562 O   0  0  0  0  0  0  0  0  0  0  0  0
   -0.5599    3.3779    3.8160 C   0  0  0  0  0  0  0  0  0  0  0  0
   -1.5202    3.4885    4.3450 H   0  0  0  0  0  0  0  0  0  0  0  0
    0.1282    4.0814    4.3116 H   0  0  0  0  0  0  0  0  0  0  0  0
   -0.7317    3.7994    2.8126 H   0  0  0  0  0  0  0  0  0  0  0  0
   -0.4812    1.1968    2.7762 N   0  0  0  0  0  0  0  0  0  0  0  0
   -0.1106   -0.1834    2.6051 C   0  0  2  0  0  0  0  0  0  0  0  0
   -0.0696   -0.4775    1.1113 C   0  0  0  0  0  0  0  0  0  0  0  0
   -0.6805    0.1900    0.2792 O   0  0  0  0  0  0  0  0  0  0  0  0
   -1.0852   -1.1101    3.3150 C   0  0  0  0  0  0  0  0  0  0  0  0
   -1.0883    1.6241    2.0791 H   0  0  0  0  0  0  0  0  0  0  0  0
    0.8937   -0.2959    3.0277 H   0  0  0  0  0  0  0  0  0  0  0  0
   -2.0970   -1.0114    2.9051 H   0  0  0  0  0  0  0  0  0  0  0  0
   -0.7860   -2.1580    3.2078 H   0  0  0  0  0  0  0  0  0  0  0  0
   -1.1357   -0.8775    4.3842 H   0  0  0  0  0  0  0  0  0  0  0  0
    0.6950   -1.6003    0.8178 N   0  0  0  0  0  0  0  0  0  0  0  0
    0.8777   -2.0908   -0.5246 C   0  0  2  0  0  0  0  0  0  0  0  0
    0.8034   -0.8945   -1.4651 C   0  0  0  0  0  0  0  0  0  0  0  0
    1.7291   -0.0994   -1.6147 O   0  0  0  0  0  0  0  0  0  0  0  0
   -0.1750   -3.1350   -0.8974 C   0  0  0  0  0  0  0  0  0  0  0  0
   -0.0012   -4.4492   -0.1567 C   0  0  0  0  0  0  0  0  0  0  0  0
    1.0828   -4.9909    0.0383 O   0  0  0  0  0  0  0  0  0  0  0  0
   -1.2029   -4.9660    0.2794 N   0  0  0  0  0  0  0  0  0  0  0  0
    1.1810   -2.0803    1.5718 H   0  0  0  0  0  0  0  0  0  0  0  0
    1.8875   -2.5152   -0.5674 H   0  0  0  0  0  0  0  0  0  0  0  0
   -1.1797   -2.7625   -0.6611 H   0  0  0  0  0  0  0  0  0  0  0  0
   -0.1510   -3.3375   -1.9759 H   0  0  0  0  0  0  0  0  0  0  0  0
   -2.0756   -4.4813    0.0983 H   0  0  0  0  0  0  0  0  0  0  0  0
   -1.2640   -5.8400    0.7920 H   0  0  0  0  0  0  0  0  0  0  0  0
   -0.3986   -0.8450   -2.1569 N   0  0  0  0  0  0  0  0  0  0  0  0
   -0.6836    0.1876   -3.1242 C   0  0  2  0  0  0  0  0  0  0  0  0
    0.3992    0.1414   -4.1942 C   0  0  0  0  0  0  0  0  0  0  0  0
    1.5098   -0.3499   -4.0039 O   0  0  0  0  0  0  0  0  0  0  0  0
   -0.7422    1.5587   -2.4689 C   0  0  0  0  0  0  0  0  0  0  0  0
   -1.1046   -1.5563   -1.9915 H   0  0  0  0  0  0  0  0  0  0  0  0
   -1.6522   -0.0582   -3.5731 H   0  0  0  0  0  0  0  0  0  0  0  0
    0.2194    1.8223   -2.0136 H   0  0  0  0  0  0  0  0  0  0  0  0
   -0.9867    2.3372   -3.1991 H   0  0  0  0  0  0  0  0  0  0  0  0
   -1.5011    1.5812   -1.6794 H   0  0  0  0  0  0  0  0  0  0  0  0
   -0.0056    0.7520   -5.3730 N   0  0  0  0  0  0  0  0  0  0  0  0
    0.8481    0.8488   -6.5339 C   0  0  0  0  0  0  0  0  0  0  0  0
   -0.9510    1.1158   -5.4482 H   0  0  0  0  0  0  0  0  0  0  0  0
    1.3968    1.8018   -6.5078 H   0  0  0  0  0  0  0  0  0  0  0  0
    1.5638    0.0135   -6.5332 H   0  0  0  0  0  0  0  0  0  0  0  0
    0.2338    0.8045   -7.4453 H   0  0  0  0  0  0  0  0  0  0  0  0
  1  3  1  0  0  0  0
  1  7  1  0  0  0  0
  1  2  2  0  0  0  0
 21 22  1  0  0  0  0
 22 24  1  0  0  0  0
 22 23  2  0  0  0  0
 32 33  1  0  0  0  0
 33 41  1  0  0  0  0
 33 34  2  0  0  0  0
  8  9  1  0  0  0  0
  9 17  1  0  0  0  0
  9 10  2  0  0  0  0
 18 19  1  0  0  0  0
 19 31  1  0  0  0  0
 19 20  2  0  0  0  0
 32 35  1  0  0  0  0
  8 11  1  0  0  0  0
 41 42  1  0  0  0  0
 18 21  1  0  0  0  0
 31 32  1  0  0  0  0
  7  8  1  0  0  0  0
 17 18  1  0  0  0  0
  3  4  1  0  0  0  0
  3  5  1  0  0  0  0
  3  6  1  0  0  0  0
 35 38  1  0  0  0  0
 35 39  1  0  0  0  0
 35 40  1  0  0  0  0
 11 14  1  0  0  0  0
 11 15  1  0  0  0  0
 11 16  1  0  0  0  0
 42 44  1  0  0  0  0
 42 45  1  0  0  0  0
 42 46  1  0  0  0  0
 21 27  1  0  0  0  0
 21 28  1  0  0  0  0
 32 37  1  0  0  0  0
  8 13  1  0  0  0  0
 18 26  1  0  0  0  0
 24 29  1  0  0  0  0
 24 30  1  0  0  0  0
 41 43  1  0  0  0  0
  7 12  1  0  0  0  0
 31 36  1  0  0  0  0
 17 25  1  0  0  0  0
M  END
$$$$

  -OEChem-05262214473D

 46 45  0     1  0  0  0  0  0999 V2000
   -0.0543    1.9736    3.8406 C   0  0  0  0  0  0  0  0  0  0  0  0
    0.6744    1.6099    4.7562 O   0  0  0  0  0  0  0  0  0  0  0  0
   -0.5599    3.3779    3.8160 C   0  0  0  0  0  0  0  0  0  0  0  0
   -1.5202    3.4885    4.3450 H   0  0  0  0  0  0  0  0  0  0  0  0
    0.1282    4.0814    4.3116 H   0  0  0  0  0  0  0  0  0  0  0  0
   -0.7317    3.7994    2.8126 H   0  0  0  0  0  0  0  0  0  0  0  0
   -0.4812    1.1968    2.7762 N   0  0  0  0  0  0  0  0  0  0  0  0
   -0.1106   -0.1834    2.6051 C   0  0  2  0  0  0  0  0  0  0  0  0
   -0.0696   -0.4775    1.1113 C   0  0  0  0  0  0  0  0  0  0  0  0
   -0.6805    0.1900    0.2792 O   0  0  0  0  0  0  0  0  0  0  0  0
   -1.0852   -1.1101    3.3150 C   0  0  0  0  0  0  0  0  0  0  0  0
   -1.0883    1.6241    2.0791 H   0  0  0  0  0  0  0  0  0  0  0  0
    0.8937   -0.2959    3.0277 H   0  0  0  0  0  0  0  0  0  0  0  0
   -2.0970   -1.0114    2.9051 H   0  0  0  0  0  0  0  0  0  0  0  0
   -0.7860   -2.1580    3.2078 H   0  0  0  0  0  0  0  0  0  0  0  0
   -1.1357   -0.8775    4.3842 H   0  0  0  0  0  0  0  0  0  0  0  0
    0.6950   -1.6003    0.8178 N   0  0  0  0  0  0  0  0  0  0  0  0
    0.8777   -2.0908   -0.5246 C   0  0  2  0  0  0  0  0  0  0  0  0
    0.8034   -0.8945   -1.4651 C   0  0  0  0  0  0  0  0  0  0  0  0
    1.7931   -0.2583   -1.8219 O   0  0  0  0  0  0  0  0  0  0  0  0
   -0.1750   -3.1350   -0.8974 C   0  0  0  0  0  0  0  0  0  0  0  0
   -0.0012   -4.4492   -0.1567 C   0  0  0  0  0  0  0  0  0  0  0  0
    1.0828   -4.9909    0.0383 O   0  0  0  0  0  0  0  0  0  0  0  0
   -1.2029   -4.9660    0.2794 N   0  0  0  0  0  0  0  0  0  0  0  0
    1.1810   -2.0803    1.5718 H   0  0  0  0  0  0  0  0  0  0  0  0
    1.8875   -2.5152   -0.5674 H   0  0  0  0  0  0  0  0  0  0  0  0
   -1.1797   -2.7625   -0.6611 H   0  0  0  0  0  0  0  0  0  0  0  0
   -0.1510   -3.3375   -1.9759 H   0  0  0  0  0  0  0  0  0  0  0  0
   -2.0756   -4.4813    0.0983 H   0  0  0  0  0  0  0  0  0  0  0  0
   -1.2640   -5.8400    0.7920 H   0  0  0  0  0  0  0  0  0  0  0  0
   -0.4912   -0.6493   -1.9007 N   0  0  0  0  0  0  0  0  0  0  0  0
   -0.8005    0.4194   -2.8200 C   0  0  2  0  0  0  0  0  0  0  0  0
    0.0196    0.2037   -4.0851 C   0  0  0  0  0  0  0  0  0  0  0  0
    1.0535   -0.4609   -4.1090 O   0  0  0  0  0  0  0  0  0  0  0  0
   -0.5059    1.7795   -2.2067 C   0  0  0  0  0  0  0  0  0  0  0  0
   -1.2522   -1.2382   -1.5753 H   0  0  0  0  0  0  0  0  0  0  0  0
   -1.8667    0.3346   -3.0564 H   0  0  0  0  0  0  0  0  0  0  0  0
    0.5578    1.8830   -1.9631 H   0  0  0  0  0  0  0  0  0  0  0  0
   -0.7678    2.5901   -2.8947 H   0  0  0  0  0  0  0  0  0  0  0  0
   -1.0742    1.9209   -1.2810 H   0  0  0  0  0  0  0  0  0  0  0  0
   -0.5154    0.8761   -5.1749 N   0  0  0  0  0  0  0  0  0  0  0  0
    0.0875    0.8386   -6.4868 C   0  0  0  0  0  0  0  0  0  0  0  0
   -1.3863    1.3877   -5.0680 H   0  0  0  0  0  0  0  0  0  0  0  0
    0.7740    1.6907   -6.5999 H   0  0  0  0  0  0  0  0  0  0  0  0
    0.6467   -0.1010   -6.6065 H   0  0  0  0  0  0  0  0  0  0  0  0
   -0.6991    0.8974   -7.2535 H   0  0  0  0  0  0  0  0  0  0  0  0
  1  3  1  0  0  0  0
  1  7  1  0  0  0  0
  1  2  2  0  0  0  0
 21 22  1  0  0  0  0
 22 24  1  0  0  0  0
 22 23  2  0  0  0  0
 32 33  1  0  0  0  0
 33 41  1  0  0  0  0
 33 34  2  0  0  0  0
  8  9  1  0  0  0  0
  9 17  1  0  0  0  0
  9 10  2  0  0  0  0
 18 19  1  0  0  0  0
 19 31  1  0  0  0  0
 19 20  2  0  0  0  0
 32 35  1  0  0  0  0
  8 11  1  0  0  0  0
 41 42  1  0  0  0  0
 18 21  1  0  0  0  0
 31 32  1  0  0  0  0
  7  8  1  0  0  0  0
 17 18  1  0  0  0  0
  3  4  1  0  0  0  0
  3  5  1  0  0  0  0
  3  6  1  0  0  0  0
 35 38  1  0  0  0  0
 35 39  1  0  0  0  0
 35 40  1  0  0  0  0
 11 14  1  0  0  0  0
 11 15  1  0  0  0  0
 11 16  1  0  0  0  0
 42 44  1  0  0  0  0
 42 45  1  0  0  0  0
 42 46  1  0  0  0  0
 21 27  1  0  0  0  0
 21 28  1  0  0  0  0
 32 37  1  0  0  0  0
  8 13  1  0  0  0  0
 18 26  1  0  0  0  0
 24 29  1  0  0  0  0
 24 30  1  0  0  0  0
 41 43  1  0  0  0  0
  7 12  1  0  0  0  0
 31 36  1  0  0  0  0
 17 25  1  0  0  0  0
M  END
$$$$

  -OEChem-05262214473D

 46 45  0     1  0  0  0  0  0999 V2000
   -0.0543    1.9736    3.8406 C   0  0  0  0  0  0  0  0  0  0  0  0
    0.6744    1.6099    4.7562 O   0  0  0  0  0  0  0  0  0  0  0  0
   -0.5599    3.3779    3.8160 C   0  0  0  0  0  0  0  0  0  0  0  0
   -1.5202    3.4885    4.3450 H   0  0  0  0  0  0  0  0  0  0  0  0
    0.1282    4.0814    4.3116 H   0  0  0  0  0  0  0  0  0  0  0  0
   -0.7317    3.7994    2.8126 H   0  0  0  0  0  0  0  0  0  0  0  0
   -0.4812    1.1968    2.7762 N   0  0  0  0  0  0  0  0  0  0  0  0
   -0.1106   -0.1834    2.6051 C   0  0  2  0  0  0  0  0  0  0  0  0
   -0.0696   -0.4775    1.1113 C   0  0  0  0  0  0  0  0  0  0  0  0
   -0.6805    0.1900    0.2792 O   0  0  0  0  0  0  0  0  0  0  0  0
   -1.0852   -1.1101    3.3150 C   0  0  0  0  0  0  0  0  0  0  0  0
   -1.0883    1.6241    2.0791 H   0  0  0  0  0  0  0  0  0  0  0  0
    0.8937   -0.2959    3.0277 H   0  0  0  0  0  0  0  0  0  0  0  0
   -2.0970   -1.0114    2.9051 H   0  0  0  0  0  0  0  0  0  0  0  0
   -0.7860   -2.1580    3.2078 H   0  0  0  0  0  0  0  0  0  0  0  0
   -1.1357   -0.8775    4.3842 H   0  0  0  0  0  0  0  0  0  0  0  0
    0.6950   -1.6003    0.8178 N   0  0  0  0  0  0  0  0  0  0  0  0
    0.8777   -2.0908   -0.5246 C   0  0  2  0  0  0  0  0  0  0  0  0
    0.8034   -0.8945   -1.4651 C   0  0  0  0  0  0  0  0  0  0  0  0
    1.7874   -0.4246   -2.0330 O   0  0  0  0  0  0  0  0  0  0  0  0
   -0.1750   -3.1350   -0.8974 C   0  0  0  0  0  0  0  0  0  0  0  0
   -0.0012   -4.4492   -0.1567 C   0  0  0  0  0  0  0  0  0  0  0  0
    1.0828   -4.9909    0.0383 O   0  0  0  0  0  0  0  0  0  0  0  0
   -1.2029   -4.9660    0.2794 N   0  0  0  0  0  0  0  0  0  0  0  0
    1.1810   -2.0803    1.5718 H   0  0  0  0  0  0  0  0  0  0  0  0
    1.8875   -2.5152   -0.5674 H   0  0  0  0  0  0  0  0  0  0  0  0
   -1.1797   -2.7625   -0.6611 H   0  0  0  0  0  0  0  0  0  0  0  0
   -0.1510   -3.3375   -1.9759 H   0  0  0  0  0  0  0  0  0  0  0  0
   -2.0756   -4.4813    0.0983 H   0  0  0  0  0  0  0  0  0  0  0  0
   -1.2640   -5.8400    0.7920 H   0  0  0  0  0  0  0  0  0  0  0  0
   -0.4973   -0.4423   -1.6368 N   0  0  0  0  0  0  0  0  0  0  0  0
   -0.8145    0.6659   -2.5054 C   0  0  2  0  0  0  0  0  0  0  0  0
   -0.3148    0.3258   -3.9033 C   0  0  0  0  0  0  0  0  0  0  0  0
    0.5737   -0.4965   -4.1165 O   0  0  0  0  0  0  0  0  0  0  0  0
   -0.1891    1.9584   -2.0042 C   0  0  0  0  0  0  0  0  0  0  0  0
   -1.2592   -0.9022   -1.1473 H   0  0  0  0  0  0  0  0  0  0  0  0
   -1.9062    0.7549   -2.5188 H   0  0  0  0  0  0  0  0  0  0  0  0
    0.9046    1.8883   -1.9838 H   0  0  0  0  0  0  0  0  0  0  0  0
   -0.4542    2.8033   -2.6483 H   0  0  0  0  0  0  0  0  0  0  0  0
   -0.5266    2.1858   -0.9872 H   0  0  0  0  0  0  0  0  0  0  0  0
   -0.9477    1.0799   -4.8816 N   0  0  0  0  0  0  0  0  0  0  0  0
   -0.6392    0.9509   -6.2866 C   0  0  0  0  0  0  0  0  0  0  0  0
   -1.6861    1.7247   -4.6157 H   0  0  0  0  0  0  0  0  0  0  0  0
    0.1359    1.6817   -6.5610 H   0  0  0  0  0  0  0  0  0  0  0  0
   -0.2723   -0.0660   -6.4895 H   0  0  0  0  0  0  0  0  0  0  0  0
   -1.5463    1.1386   -6.8798 H   0  0  0  0  0  0  0  0  0  0  0  0
  1  3  1  0  0  0  0
  1  7  1  0  0  0  0
  1  2  2  0  0  0  0
 21 22  1  0  0  0  0
 22 24  1  0  0  0  0
 22 23  2  0  0  0  0
 32 33  1  0  0  0  0
 33 41  1  0  0  0  0
 33 34  2  0  0  0  0
  8  9  1  0  0  0  0
  9 17  1  0  0  0  0
  9 10  2  0  0  0  0
 18 19  1  0  0  0  0
 19 31  1  0  0  0  0
 19 20  2  0  0  0  0
 32 35  1  0  0  0  0
  8 11  1  0  0  0  0
 41 42  1  0  0  0  0
 18 21  1  0  0  0  0
 31 32  1  0  0  0  0
  7  8  1  0  0  0  0
 17 18  1  0  0  0  0
  3  4  1  0  0  0  0
  3  5  1  0  0  0  0
  3  6  1  0  0  0  0
 35 38  1  0  0  0  0
 35 39  1  0  0  0  0
 35 40  1  0  0  0  0
 11 14  1  0  0  0  0
 11 15  1  0  0  0  0
 11 16  1  0  0  0  0
 42 44  1  0  0  0  0
 42 45  1  0  0  0  0
 42 46  1  0  0  0  0
 21 27  1  0  0  0  0
 21 28  1  0  0  0  0
 32 37  1  0  0  0  0
  8 13  1  0  0  0  0
 18 26  1  0  0  0  0
 24 29  1  0  0  0  0
 24 30  1  0  0  0  0
 41 43  1  0  0  0  0
  7 12  1  0  0  0  0
 31 36  1  0  0  0  0
 17 25  1  0  0  0  0
M  END
$$$$

  -OEChem-05262214473D

 46 45  0     1  0  0  0  0  0999 V2000
   -0.0543    1.9736    3.8406 C   0  0  0  0  0  0  0  0  0  0  0  0
    0.6744    1.6099    4.7562 O   0  0  0  0  0  0  0  0  0  0  0  0
   -0.5599    3.3779    3.8160 C   0  0  0  0  0  0  0  0  0  0  0  0
   -1.5202    3.4885    4.3450 H   0  0  0  0  0  0  0  0  0  0  0  0
    0.1282    4.0814    4.3116 H   0  0  0  0  0  0  0  0  0  0  0  0
   -0.7317    3.7994    2.8126 H   0  0  0  0  0  0  0  0  0  0  0  0
   -0.4812    1.1968    2.7762 N   0  0  0  0  0  0  0  0  0  0  0  0
   -0.1106   -0.1834    2.6051 C   0  0  2  0  0  0  0  0  0  0  0  0
   -0.0696   -0.4775    1.1113 C   0  0  0  0  0  0  0  0  0  0  0  0
   -0.6805    0.1900    0.2792 O   0  0  0  0  0  0  0  0  0  0  0  0
   -1.0852   -1.1101    3.3150 C   0  0  0  0  0  0  0  0  0  0  0  0
   -1.0883    1.6241    2.0791 H   0  0  0  0  0  0  0  0  0  0  0  0
    0.8937   -0.2959    3.0277 H   0  0  0  0  0  0  0  0  0  0  0  0
   -2.0970   -1.0114    2.9051 H   0  0  0  0  0  0  0  0  0  0  0  0
   -0.7860   -2.1580    3.2078 H   0  0  0  0  0  0  0  0  0  0  0  0
   -1.1357   -0.8775    4.3842 H   0  0  0  0  0  0  0  0  0  0  0  0
    0.6950   -1.6003    0.8178 N   0  0  0  0  0  0  0  0  0  0  0  0
    0.8777   -2.0908   -0.5246 C   0  0  2  0  0  0  0  0  0  0  0  0
    0.8034   -0.8945   -1.4651 C   0  0  0  0  0  0  0  0  0  0  0  0
    1.7124   -0.5870   -2.2337 O   0  0  0  0  0  0  0  0  0  0  0  0
   -0.1750   -3.1350   -0.8974 C   0  0  0  0  0  0  0  0  0  0  0  0
   -0.0012   -4.4492   -0.1567 C   0  0  0  0  0  0  0  0  0  0  0  0
    1.0828   -4.9909    0.0383 O   0  0  0  0  0  0  0  0  0  0  0  0
   -1.2029   -4.9660    0.2794 N   0  0  0  0  0  0  0  0  0  0  0  0
    1.1810   -2.0803    1.5718 H   0  0  0  0  0  0  0  0  0  0  0  0
    1.8875   -2.5152   -0.5674 H   0  0  0  0  0  0  0  0  0  0  0  0
   -1.1797   -2.7625   -0.6611 H   0  0  0  0  0  0  0  0  0  0  0  0
   -0.1510   -3.3375   -1.9759 H   0  0  0  0  0  0  0  0  0  0  0  0
   -2.0756   -4.4813    0.0983 H   0  0  0  0  0  0  0  0  0  0  0  0
   -1.2640   -5.8400    0.7920 H   0  0  0  0  0  0  0  0  0  0  0  0
   -0.4165   -0.2380   -1.3834 N   0  0  0  0  0  0  0  0  0  0  0  0
   -0.7247    0.9102   -2.2018 C   0  0  2  0  0  0  0  0  0  0  0  0
   -0.5814    0.4995   -3.6613 C   0  0  0  0  0  0  0  0  0  0  0  0
    0.1030   -0.4543   -4.0257 O   0  0  0  0  0  0  0  0  0  0  0  0
    0.1866    2.0831   -1.8752 C   0  0  0  0  0  0  0  0  0  0  0  0
   -1.1254   -0.5711   -0.7367 H   0  0  0  0  0  0  0  0  0  0  0  0
   -1.7679    1.1739   -1.9967 H   0  0  0  0  0  0  0  0  0  0  0  0
    1.2362    1.8377   -2.0744 H   0  0  0  0  0  0  0  0  0  0  0  0
   -0.0671    2.9622   -2.4767 H   0  0  0  0  0  0  0  0  0  0  0  0
    0.1044    2.3580   -0.8181 H   0  0  0  0  0  0  0  0  0  0  0  0
   -1.2731    1.3495   -4.5129 N   0  0  0  0  0  0  0  0  0  0  0  0
   -1.2825    1.1780   -5.9470 C   0  0  0  0  0  0  0  0  0  0  0  0
   -1.8299    2.1038   -4.1222 H   0  0  0  0  0  0  0  0  0  0  0  0
   -0.4740    1.7755   -6.3935 H   0  0  0  0  0  0  0  0  0  0  0  0
   -1.1307    0.1161   -6.1902 H   0  0  0  0  0  0  0  0  0  0  0  0
   -2.2502    1.5117   -6.3497 H   0  0  0  0  0  0  0  0  0  0  0  0
  1  3  1  0  0  0  0
  1  7  1  0  0  0  0
  1  2  2  0  0  0  0
 21 22  1  0  0  0  0
 22 24  1  0  0  0  0
 22 23  2  0  0  0  0
 32 33  1  0  0  0  0
 33 41  1  0  0  0  0
 33 34  2  0  0  0  0
  8  9  1  0  0  0  0
  9 17  1  0  0  0  0
  9 10  2  0  0  0  0
 18 19  1  0  0  0  0
 19 31  1  0  0  0  0
 19 20  2  0  0  0  0
 32 35  1  0  0  0  0
  8 11  1  0  0  0  0
 41 42  1  0  0  0  0
 18 21  1  0  0  0  0
 31 32  1  0  0  0  0
  7  8  1  0  0  0  0
 17 18  1  0  0  0  0
  3  4  1  0  0  0  0
  3  5  1  0  0  0  0
  3  6  1  0  0  0  0
 35 38  1  0  0  0  0
 35 39  1  0  0  0  0
 35 40  1  0  0  0  0
 11 14  1  0  0  0  0
 11 15  1  0  0  0  0
 11 16  1  0  0  0  0
 42 44  1  0  0  0  0
 42 45  1  0  0  0  0
 42 46  1  0  0  0  0
 21 27  1  0  0  0  0
 21 28  1  0  0  0  0
 32 37  1  0  0  0  0
  8 13  1  0  0  0  0
 18 26  1  0  0  0  0
 24 29  1  0  0  0  0
 24 30  1  0  0  0  0
 41 43  1  0  0  0  0
  7 12  1  0  0  0  0
 31 36  1  0  0  0  0
 17 25  1  0  0  0  0
M  END
$$$$

  -OEChem-05262214473D

 46 45  0     1  0  0  0  0  0999 V2000
   -0.0543    1.9736    3.8406 C   0  0  0  0  0  0  0  0  0  0  0  0
    0.6744    1.6099    4.7562 O   0  0  0  0  0  0  0  0  0  0  0  0
   -0.5599    3.3779    3.8160 C   0  0  0  0  0  0  0  0  0  0  0  0
   -1.5202    3.4885    4.3450 H   0  0  0  0  0  0  0  0  0  0  0  0
    0.1282    4.0814    4.3116 H   0  0  0  0  0  0  0  0  0  0  0  0
   -0.7317    3.7994    2.8126 H   0  0  0  0  0  0  0  0  0  0  0  0
   -0.4812    1.1968    2.7762 N   0  0  0  0  0  0  0  0  0  0  0  0
   -0.1106   -0.1834    2.6051 C   0  0  2  0  0  0  0  0  0  0  0  0
   -0.0696   -0.4775    1.1113 C   0  0  0  0  0  0  0  0  0  0  0  0
   -0.6805    0.1900    0.2792 O   0  0  0  0  0  0  0  0  0  0  0  0
   -1.0852   -1.1101    3.3150 C   0  0  0  0  0  0  0  0  0  0  0  0
   -1.0883    1.6241    2.0791 H   0  0  0  0  0  0  0  0  0  0  0  0
    0.8937   -0.2959    3.0277 H   0  0  0  0  0  0  0  0  0  0  0  0
   -2.0970   -1.0114    2.9051 H   0  0  0  0  0  0  0  0  0  0  0  0
   -0.7860   -2.1580    3.2078 H   0  0  0  0  0  0  0  0  0  0  0  0
   -1.1357   -0.8775    4.3842 H   0  0  0  0  0  0  0  0  0  0  0  0
    0.6950   -1.6003    0.8178 N   0  0  0  0  0  0  0  0  0  0  0  0
    0.8777   -2.0908   -0.5246 C   0  0  2  0  0  0  0  0  0  0  0  0
    0.8034   -0.8945   -1.4651 C   0  0  0  0  0  0  0  0  0  0  0  0
    1.5733   -0.7344   -2.4102 O   0  0  0  0  0  0  0  0  0  0  0  0
   -0.1750   -3.1350   -0.8974 C   0  0  0  0  0  0  0  0  0  0  0  0
   -0.0012   -4.4492   -0.1567 C   0  0  0  0  0  0  0  0  0  0  0  0
    1.0828   -4.9909    0.0383 O   0  0  0  0  0  0  0  0  0  0  0  0
   -1.2029   -4.9660    0.2794 N   0  0  0  0  0  0  0  0  0  0  0  0
    1.1810   -2.0803    1.5718 H   0  0  0  0  0  0  0  0  0  0  0  0
    1.8875   -2.5152   -0.5674 H   0  0  0  0  0  0  0  0  0  0  0  0
   -1.1797   -2.7625   -0.6611 H   0  0  0  0  0  0  0  0  0  0  0  0
   -0.1510   -3.3375   -1.9759 H   0  0  0  0  0  0  0  0  0  0  0  0
   -2.0756   -4.4813    0.0983 H   0  0  0  0  0  0  0  0  0  0  0  0
   -1.2640   -5.8400    0.7920 H   0  0  0  0  0  0  0  0  0  0  0  0
   -0.2543   -0.0504   -1.1576 N   0  0  0  0  0  0  0  0  0  0  0  0
   -0.5372    1.1357   -1.9298 C   0  0  2  0  0  0  0  0  0  0  0  0
   -0.7620    0.7130   -3.3756 C   0  0  0  0  0  0  0  0  0  0  0  0
   -0.3264   -0.3372   -3.8429 O   0  0  0  0  0  0  0  0  0  0  0  0
    0.5957    2.1452   -1.8285 C   0  0  0  0  0  0  0  0  0  0  0  0
   -0.8598   -0.2675   -0.3715 H   0  0  0  0  0  0  0  0  0  0  0  0
   -1.4613    1.5632   -1.5258 H   0  0  0  0  0  0  0  0  0  0  0  0
    1.5300    1.7346   -2.2286 H   0  0  0  0  0  0  0  0  0  0  0  0
    0.3670    3.0560   -2.3917 H   0  0  0  0  0  0  0  0  0  0  0  0
    0.7757    2.4255   -0.7851 H   0  0  0  0  0  0  0  0  0  0  0  0
   -1.4694    1.6666   -4.0942 N   0  0  0  0  0  0  0  0  0  0  0  0
   -1.7986    1.5045   -5.4911 C   0  0  0  0  0  0  0  0  0  0  0  0
   -1.8079    2.4992   -3.6210 H   0  0  0  0  0  0  0  0  0  0  0  0
   -1.0141    1.9656   -6.1091 H   0  0  0  0  0  0  0  0  0  0  0  0
   -1.8699    0.4329   -5.7289 H   0  0  0  0  0  0  0  0  0  0  0  0
   -2.7627    1.9913   -5.6993 H   0  0  0  0  0  0  0  0  0  0  0  0
  1  3  1  0  0  0  0
  1  7  1  0  0  0  0
  1  2  2  0  0  0  0
 21 22  1  0  0  0  0
 22 24  1  0  0  0  0
 22 23  2  0  0  0  0
 32 33  1  0  0  0  0
 33 41  1  0  0  0  0
 33 34  2  0  0  0  0
  8  9  1  0  0  0  0
  9 17  1  0  0  0  0
  9 10  2  0  0  0  0
 18 19  1  0  0  0  0
 19 31  1  0  0  0  0
 19 20  2  0  0  0  0
 32 35  1  0  0  0  0
  8 11  1  0  0  0  0
 41 42  1  0  0  0  0
 18 21  1  0  0  0  0
 31 32  1  0  0  0  0
  7  8  1  0  0  0  0
 17 18  1  0  0  0  0
  3  4  1  0  0  0  0
  3  5  1  0  0  0  0
  3  6  1  0  0  0  0
 35 38  1  0  0  0  0
 35 39  1  0  0  0  0
 35 40  1  0  0  0  0
 11 14  1  0  0  0  0
 11 15  1  0  0  0  0
 11 16  1  0  0  0  0
 42 44  1  0  0  0  0
 42 45  1  0  0  0  0
 42 46  1  0  0  0  0
 21 27  1  0  0  0  0
 21 28  1  0  0  0  0
 32 37  1  0  0  0  0
  8 13  1  0  0  0  0
 18 26  1  0  0  0  0
 24 29  1  0  0  0  0
 24 30  1  0  0  0  0
 41 43  1  0  0  0  0
  7 12  1  0  0  0  0
 31 36  1  0  0  0  0
 17 25  1  0  0  0  0
M  END
$$$$

  -OEChem-05262214473D

 46 45  0     1  0  0  0  0  0999 V2000
   -0.0543    1.9736    3.8406 C   0  0  0  0  0  0  0  0  0  0  0  0
    0.6744    1.6099    4.7562 O   0  0  0  0  0  0  0  0  0  0  0  0
   -0.5599    3.3779    3.8160 C   0  0  0  0  0  0  0  0  0  0  0  0
   -1.5202    3.4885    4.3450 H   0  0  0  0  0  0  0  0  0  0  0  0
    0.1282    4.0814    4.3116 H   0  0  0  0  0  0  0  0  0  0  0  0
   -0.7317    3.7994    2.8126 H   0  0  0  0  0  0  0  0  0  0  0  0
   -0.4812    1.1968    2.7762 N   0  0  0  0  0  0  0  0  0  0  0  0
   -0.1106   -0.1834    2.6051 C   0  0  2  0  0  0  0  0  0  0  0  0
   -0.0696   -0.4775    1.1113 C   0  0  0  0  0  0  0  0  0  0  0  0
   -0.6805    0.1900    0.2792 O   0  0  0  0  0  0  0  0  0  0  0  0
   -1.0852   -1.1101    3.3150 C   0  0  0  0  0  0  0  0  0  0  0  0
   -1.0883    1.6241    2.0791 H   0  0  0  0  0  0  0  0  0  0  0  0
    0.8937   -0.2959    3.0277 H   0  0  0  0  0  0  0  0  0  0  0  0
   -2.0970   -1.0114    2.9051 H   0  0  0  0  0  0  0  0  0  0  0  0
   -0.7860   -2.1580    3.2078 H   0  0  0  0  0  0  0  0  0  0  0  0
   -1.1357   -0.8775    4.3842 H   0  0  0  0  0  0  0  0  0  0  0  0
    0.6950   -1.6003    0.8178 N   0  0  0  0  0  0  0  0  0  0  0  0
    0.8777   -2.0908   -0.5246 C   0  0  2  0  0  0  0  0  0  0  0  0
    0.8034   -0.8945   -1.4651 C   0  0  0  0  0  0  0  0  0  0  0  0
    1.3794   -0.8568   -2.5506 O   0  0  0  0  0  0  0  0  0  0  0  0
   -0.1750   -3.1350   -0.8974 C   0  0  0  0  0  0  0  0  0  0  0  0
   -0.0012   -4.4492   -0.1567 C   0  0  0  0  0  0  0  0  0  0  0  0
    1.0828   -4.9909    0.0383 O   0  0  0  0  0  0  0  0  0  0  0  0
   -1.2029   -4.9660    0.2794 N   0  0  0  0  0  0  0  0  0  0  0  0
    1.1810   -2.0803    1.5718 H   0  0  0  0  0  0  0  0  0  0  0  0
    1.8875   -2.5152   -0.5674 H   0  0  0  0  0  0  0  0  0  0  0  0
   -1.1797   -2.7625   -0.6611 H   0  0  0  0  0  0  0  0  0  0  0  0
   -0.1510   -3.3375   -1.9759 H   0  0  0  0  0  0  0  0  0  0  0  0
   -2.0756   -4.4813    0.0983 H   0  0  0  0  0  0  0  0  0  0  0  0
   -1.2640   -5.8400    0.7920 H   0  0  0  0  0  0  0  0  0  0  0  0
   -0.0217    0.1078   -0.9748 N   0  0  0  0  0  0  0  0  0  0  0  0
   -0.2648    1.3269   -1.7081 C   0  0  2  0  0  0  0  0  0  0  0  0
   -0.8443    0.9516   -3.0656 C   0  0  0  0  0  0  0  0  0  0  0  0
   -0.6853   -0.1532   -3.5805 O   0  0  0  0  0  0  0  0  0  0  0  0
    1.0102    2.1403   -1.8674 C   0  0  0  0  0  0  0  0  0  0  0  0
   -0.4805   -0.0120   -0.0765 H   0  0  0  0  0  0  0  0  0  0  0  0
   -1.0072    1.8961   -1.1381 H   0  0  0  0  0  0  0  0  0  0  0  0
    1.7660    1.5862   -2.4359 H   0  0  0  0  0  0  0  0  0  0  0  0
    0.8187    3.0783   -2.3990 H   0  0  0  0  0  0  0  0  0  0  0  0
    1.4417    2.3840   -0.8905 H   0  0  0  0  0  0  0  0  0  0  0  0
   -1.5232    2.0095   -3.6537 N   0  0  0  0  0  0  0  0  0  0  0  0
   -2.1522    1.9080   -4.9499 C   0  0  0  0  0  0  0  0  0  0  0  0
   -1.6217    2.8839   -3.1463 H   0  0  0  0  0  0  0  0  0  0  0  0
   -1.4476    2.2392   -5.7269 H   0  0  0  0  0  0  0  0  0  0  0  0
   -2.4395    0.8628   -5.1371 H   0  0  0  0  0  0  0  0  0  0  0  0
   -3.0490    2.5446   -4.9730 H   0  0  0  0  0  0  0  0  0  0  0  0
  1  3  1  0  0  0  0
  1  7  1  0  0  0  0
  1  2  2  0  0  0  0
 21 22  1  0  0  0  0
 22 24  1  0  0  0  0
 22 23  2  0  0  0  0
 32 33  1  0  0  0  0
 33 41  1  0  0  0  0
 33 34  2  0  0  0  0
  8  9  1  0  0  0  0
  9 17  1  0  0  0  0
  9 10  2  0  0  0  0
 18 19  1  0  0  0  0
 19 31  1  0  0  0  0
 19 20  2  0  0  0  0
 32 35  1  0  0  0  0
  8 11  1  0  0  0  0
 41 42  1  0  0  0  0
 18 21  1  0  0  0  0
 31 32  1  0  0  0  0
  7  8  1  0  0  0  0
 17 18  1  0  0  0  0
  3  4  1  0  0  0  0
  3  5  1  0  0  0  0
  3  6  1  0  0  0  0
 35 38  1  0  0  0  0
 35 39  1  0  0  0  0
 35 40  1  0  0  0  0
 11 14  1  0  0  0  0
 11 15  1  0  0  0  0
 11 16  1  0  0  0  0
 42 44  1  0  0  0  0
 42 45  1  0  0  0  0
 42 46  1  0  0  0  0
 21 27  1  0  0  0  0
 21 28  1  0  0  0  0
 32 37  1  0  0  0  0
  8 13  1  0  0  0  0
 18 26  1  0  0  0  0
 24 29  1  0  0  0  0
 24 30  1  0  0  0  0
 41 43  1  0  0  0  0
  7 12  1  0  0  0  0
 31 36  1  0  0  0  0
 17 25  1  0  0  0  0
M  END
$$$$

  -OEChem-05262214473D

 46 45  0     1  0  0  0  0  0999 V2000
   -0.0543    1.9736    3.8406 C   0  0  0  0  0  0  0  0  0  0  0  0
    0.6744    1.6099    4.7562 O   0  0  0  0  0  0  0  0  0  0  0  0
   -0.5599    3.3779    3.8160 C   0  0  0  0  0  0  0  0  0  0  0  0
   -1.5202    3.4885    4.3450 H   0  0  0  0  0  0  0  0  0  0  0  0
    0.1282    4.0814    4.3116 H   0  0  0  0  0  0  0  0  0  0  0  0
   -0.7317    3.7994    2.8126 H   0  0  0  0  0  0  0  0  0  0  0  0
   -0.4812    1.1968    2.7762 N   0  0  0  0  0  0  0  0  0  0  0  0
   -0.1106   -0.1834    2.6051 C   0  0  2  0  0  0  0  0  0  0  0  0
   -0.0696   -0.4775    1.1113 C   0  0  0  0  0  0  0  0  0  0  0  0
   -0.6805    0.1900    0.2792 O   0  0  0  0  0  0  0  0  0  0  0  0
   -1.0852   -1.1101    3.3150 C   0  0  0  0  0  0  0  0  0  0  0  0
   -1.0883    1.6241    2.0791 H   0  0  0  0  0  0  0  0  0  0  0  0
    0.8937   -0.2959    3.0277 H   0  0  0  0  0  0  0  0  0  0  0  0
   -2.0970   -1.0114    2.9051 H   0  0  0  0  0  0  0  0  0  0  0  0
   -0.7860   -2.1580    3.2078 H   0  0  0  0  0  0  0  0  0  0  0  0
   -1.1357   -0.8775    4.3842 H   0  0  0  0  0  0  0  0  0  0  0  0
    0.6950   -1.6003    0.8178 N   0  0  0  0  0  0  0  0  0  0  0  0
    0.8777   -2.0908   -0.5246 C   0  0  2  0  0  0  0  0  0  0  0  0
    0.8034   -0.8945   -1.4651 C   0  0  0  0  0  0  0  0  0  0  0  0
    1.1441   -0.9459   -2.6453 O   0  0  0  0  0  0  0  0  0  0  0  0
   -0.1750   -3.1350   -0.8974 C   0  0  0  0  0  0  0  0  0  0  0  0
   -0.0012   -4.4492   -0.1567 C   0  0  0  0  0  0  0  0  0  0  0  0
    1.0828   -4.9909    0.0383 O   0  0  0  0  0  0  0  0  0  0  0  0
   -1.2029   -4.9660    0.2794 N   0  0  0  0  0  0  0  0  0  0  0  0
    1.1810   -2.0803    1.5718 H   0  0  0  0  0  0  0  0  0  0  0  0
    1.8875   -2.5152   -0.5674 H   0  0  0  0  0  0  0  0  0  0  0  0
   -1.1797   -2.7625   -0.6611 H   0  0  0  0  0  0  0  0  0  0  0  0
   -0.1510   -3.3375   -1.9759 H   0  0  0  0  0  0  0  0  0  0  0  0
   -2.0756   -4.4813    0.0983 H   0  0  0  0  0  0  0  0  0  0  0  0
   -1.2640   -5.8400    0.7920 H   0  0  0  0  0  0  0  0  0  0  0  0
    0.2653    0.2257   -0.8474 N   0  0  0  0  0  0  0  0  0  0  0  0
    0.0739    1.4709   -1.5516 C   0  0  2  0  0  0  0  0  0  0  0  0
   -0.8226    1.1991   -2.7524 C   0  0  0  0  0  0  0  0  0  0  0  0
   -0.9493    0.0852   -3.2565 O   0  0  0  0  0  0  0  0  0  0  0  0
    1.4020    2.0689   -1.9891 C   0  0  0  0  0  0  0  0  0  0  0  0
   -0.0134    0.1778    0.1282 H   0  0  0  0  0  0  0  0  0  0  0  0
   -0.4367    2.1500   -0.8602 H   0  0  0  0  0  0  0  0  0  0  0  0
    1.9281    1.4026   -2.6824 H   0  0  0  0  0  0  0  0  0  0  0  0
    1.2570    3.0276   -2.4980 H   0  0  0  0  0  0  0  0  0  0  0  0
    2.0569    2.2361   -1.1272 H   0  0  0  0  0  0  0  0  0  0  0  0
   -1.4310    2.3549   -3.2217 N   0  0  0  0  0  0  0  0  0  0  0  0
   -2.3194    2.3611   -4.3604 C   0  0  0  0  0  0  0  0  0  0  0  0
   -1.2839    3.2318   -2.7306 H   0  0  0  0  0  0  0  0  0  0  0  0
   -1.7449    2.5775   -5.2732 H   0  0  0  0  0  0  0  0  0  0  0  0
   -2.8008    1.3766   -4.4551 H   0  0  0  0  0  0  0  0  0  0  0  0
   -3.0896    3.1339   -4.2202 H   0  0  0  0  0  0  0  0  0  0  0  0
  1  3  1  0  0  0  0
  1  7  1  0  0  0  0
  1  2  2  0  0  0  0
 21 22  1  0  0  0  0
 22 24  1  0  0  0  0
 22 23  2  0  0  0  0
 32 33  1  0  0  0  0
 33 41  1  0  0  0  0
 33 34  2  0  0  0  0
  8  9  1  0  0  0  0
  9 17  1  0  0  0  0
  9 10  2  0  0  0  0
 18 19  1  0  0  0  0
 19 31  1  0  0  0  0
 19 20  2  0  0  0  0
 32 35  1  0  0  0  0
  8 11  1  0  0  0  0
 41 42  1  0  0  0  0
 18 21  1  0  0  0  0
 31 32  1  0  0  0  0
  7  8  1  0  0  0  0
 17 18  1  0  0  0  0
  3  4  1  0  0  0  0
  3  5  1  0  0  0  0
  3  6  1  0  0  0  0
 35 38  1  0  0  0  0
 35 39  1  0  0  0  0
 35 40  1  0  0  0  0
 11 14  1  0  0  0  0
 11 15  1  0  0  0  0
 11 16  1  0  0  0  0
 42 44  1  0  0  0  0
 42 45  1  0  0  0  0
 42 46  1  0  0  0  0
 21 27  1  0  0  0  0
 21 28  1  0  0  0  0
 32 37  1  0  0  0  0
  8 13  1  0  0  0  0
 18 26  1  0  0  0  0
 24 29  1  0  0  0  0
 24 30  1  0  0  0  0
 41 43  1  0  0  0  0
  7 12  1  0  0  0  0
 31 36  1  0  0  0  0
 17 25  1  0  0  0  0
M  END
$$$$

  -OEChem-05262214473D

 46 45  0     1  0  0  0  0  0999 V2000
   -0.0543    1.9736    3.8406 C   0  0  0  0  0  0  0  0  0  0  0  0
    0.6744    1.6099    4.7562 O   0  0  0  0  0  0  0  0  0  0  0  0
   -0.5599    3.3779    3.8160 C   0  0  0  0  0  0  0  0  0  0  0  0
   -1.5202    3.4885    4.3450 H   0  0  0  0  0  0  0  0  0  0  0  0
    0.1282    4.0814    4.3116 H   0  0  0  0  0  0  0  0  0  0  0  0
   -0.7317    3.7994    2.8126 H   0  0  0  0  0  0  0  0  0  0  0  0
   -0.4812    1.1968    2.7762 N   0  0  0  0  0  0  0  0  0  0  0  0
   -0.1106   -0.1834    2.6051 C   0  0  2  0  0  0  0  0  0  0  0  0
   -0.0696   -0.4775    1.1113 C   0  0  0  0  0  0  0  0  0  0  0  0
   -0.6805    0.1900    0.2792 O   0  0  0  0  0  0  0  0  0  0  0  0
   -1.0852   -1.1101    3.3150 C   0  0  0  0  0  0  0  0  0  0  0  0
   -1.0883    1.6241    2.0791 H   0  0  0  0  0  0  0  0  0  0  0  0
    0.8937   -0.2959    3.0277 H   0  0  0  0  0  0  0  0  0  0  0  0
   -2.0970   -1.0114    2.9051 H   0  0  0  0  0  0  0  0  0  0  0  0
   -0.7860   -2.1580    3.2078 H   0  0  0  0  0  0  0  0  0  0  0  0
   -1.1357   -0.8775    4.3842 H   0  0  0  0  0  0  0  0  0  0  0  0
    0.6950   -1.6003    0.8178 N   0  0  0  0  0  0  0  0  0  0  0  0
    0.8777   -2.0908   -0.5246 C   0  0  2  0  0  0  0  0  0  0  0  0
    0.8034   -0.8945   -1.4651 C   0  0  0  0  0  0  0  0  0  0  0  0
    0.8833   -0.9955   -2.6878 O   0  0  0  0  0  0  0  0  0  0  0  0
   -0.1750   -3.1350   -0.8974 C   0  0  0  0  0  0  0  0  0  0  0  0
   -0.0012   -4.4492   -0.1567 C   0  0  0  0  0  0  0  0  0  0  0  0
    1.0828   -4.9909    0.0383 O   0  0  0  0  0  0  0  0  0  0  0  0
   -1.2029   -4.9660    0.2794 N   0  0  0  0  0  0  0  0  0  0  0  0
    1.1810   -2.0803    1.5718 H   0  0  0  0  0  0  0  0  0  0  0  0
    1.8875   -2.5152   -0.5674 H   0  0  0  0  0  0  0  0  0  0  0  0
   -1.1797   -2.7625   -0.6611 H   0  0  0  0  0  0  0  0  0  0  0  0
   -0.1510   -3.3375   -1.9759 H   0  0  0  0  0  0  0  0  0  0  0  0
   -2.0756   -4.4813    0.0983 H   0  0  0  0  0  0  0  0  0  0  0  0
   -1.2640   -5.8400    0.7920 H   0  0  0  0  0  0  0  0  0  0  0  0
    0.5873    0.2953   -0.7843 N   0  0  0  0  0  0  0  0  0  0  0  0
    0.4559    1.5578   -1.4712 C   0  0  2  0  0  0  0  0  0  0  0  0
   -0.6985    1.4387   -2.4575 C   0  0  0  0  0  0  0  0  0  0  0  0
   -1.1004    0.3617   -2.8928 O   0  0  0  0  0  0  0  0  0  0  0  0
    1.7442    1.9359   -2.1854 C   0  0  0  0  0  0  0  0  0  0  0  0
    0.5097    0.2892    0.2285 H   0  0  0  0  0  0  0  0  0  0  0  0
    0.2115    2.3076   -0.7109 H   0  0  0  0  0  0  0  0  0  0  0  0
    2.0053    1.1962   -2.9510 H   0  0  0  0  0  0  0  0  0  0  0  0
    1.6521    2.9073   -2.6822 H   0  0  0  0  0  0  0  0  0  0  0  0
    2.5794    1.9919   -1.4789 H   0  0  0  0  0  0  0  0  0  0  0  0
   -1.1989    2.6792   -2.8275 N   0  0  0  0  0  0  0  0  0  0  0  0
   -2.2887    2.8329   -3.7627 C   0  0  0  0  0  0  0  0  0  0  0  0
   -0.8175    3.5190   -2.4020 H   0  0  0  0  0  0  0  0  0  0  0  0
   -1.8859    2.9575   -4.7787 H   0  0  0  0  0  0  0  0  0  0  0  0
   -2.9291    1.9392   -3.7294 H   0  0  0  0  0  0  0  0  0  0  0  0
   -2.8816    3.7191   -3.4923 H   0  0  0  0  0  0  0  0  0  0  0  0
  1  3  1  0  0  0  0
  1  7  1  0  0  0  0
  1  2  2  0  0  0  0
 21 22  1  0  0  0  0
 22 24  1  0  0  0  0
 22 23  2  0  0  0  0
 32 33  1  0  0  0  0
 33 41  1  0  0  0  0
 33 34  2  0  0  0  0
  8  9  1  0  0  0  0
  9 17  1  0  0  0  0
  9 10  2  0  0  0  0
 18 19  1  0  0  0  0
 19 31  1  0  0  0  0
 19 20  2  0  0  0  0
 32 35  1  0  0  0  0
  8 11  1  0  0  0  0
 41 42  1  0  0  0  0
 18 21  1  0  0  0  0
 31 32  1  0  0  0  0
  7  8  1  0  0  0  0
 17 18  1  0  0  0  0
  3  4  1  0  0  0  0
  3  5  1  0  0  0  0
  3  6  1  0  0  0  0
 35 38  1  0  0  0  0
 35 39  1  0  0  0  0
 35 40  1  0  0  0  0
 11 14  1  0  0  0  0
 11 15  1  0  0  0  0
 11 16  1  0  0  0  0
 42 44  1  0  0  0  0
 42 45  1  0  0  0  0
 42 46  1  0  0  0  0
 21 27  1  0  0  0  0
 21 28  1  0  0  0  0
 32 37  1  0  0  0  0
  8 13  1  0  0  0  0
 18 26  1  0  0  0  0
 24 29  1  0  0  0  0
 24 30  1  0  0  0  0
 41 43  1  0  0  0  0
  7 12  1  0  0  0  0
 31 36  1  0  0  0  0
 17 25  1  0  0  0  0
M  END
$$$$

  -OEChem-05262214473D

 46 45  0     1  0  0  0  0  0999 V2000
   -0.0543    1.9736    3.8406 C   0  0  0  0  0  0  0  0  0  0  0  0
    0.6744    1.6099    4.7562 O   0  0  0  0  0  0  0  0  0  0  0  0
   -0.5599    3.3779    3.8160 C   0  0  0  0  0  0  0  0  0  0  0  0
   -1.5202    3.4885    4.3450 H   0  0  0  0  0  0  0  0  0  0  0  0
    0.1282    4.0814    4.3116 H   0  0  0  0  0  0  0  0  0  0  0  0
   -0.7317    3.7994    2.8126 H   0  0  0  0  0  0  0  0  0  0  0  0
   -0.4812    1.1968    2.7762 N   0  0  0  0  0  0  0  0  0  0  0  0
   -0.1106   -0.1834    2.6051 C   0  0  2  0  0  0  0  0  0  0  0  0
   -0.0696   -0.4775    1.1113 C   0  0  0  0  0  0  0  0  0  0  0  0
   -0.6805    0.1900    0.2792 O   0  0  0  0  0  0  0  0  0  0  0  0
   -1.0852   -1.1101    3.3150 C   0  0  0  0  0  0  0  0  0  0  0  0
   -1.0883    1.6241    2.0791 H   0  0  0  0  0  0  0  0  0  0  0  0
    0.8937   -0.2959    3.0277 H   0  0  0  0  0  0  0  0  0  0  0  0
   -2.0970   -1.0114    2.9051 H   0  0  0  0  0  0  0  0  0  0  0  0
   -0.7860   -2.1580    3.2078 H   0  0  0  0  0  0  0  0  0  0  0  0
   -1.1357   -0.8775    4.3842 H   0  0  0  0  0  0  0  0  0  0  0  0
    0.6950   -1.6003    0.8178 N   0  0  0  0  0  0  0  0  0  0  0  0
    0.8777   -2.0908   -0.5246 C   0  0  2  0  0  0  0  0  0  0  0  0
    0.8034   -0.8945   -1.4651 C   0  0  0  0  0  0  0  0  0  0  0  0
    0.6149   -1.0022   -2.6752 O   0  0  0  0  0  0  0  0  0  0  0  0
   -0.1750   -3.1350   -0.8974 C   0  0  0  0  0  0  0  0  0  0  0  0
   -0.0012   -4.4492   -0.1567 C   0  0  0  0  0  0  0  0  0  0  0  0
    1.0828   -4.9909    0.0383 O   0  0  0  0  0  0  0  0  0  0  0  0
   -1.2029   -4.9660    0.2794 N   0  0  0  0  0  0  0  0  0  0  0  0
    1.1810   -2.0803    1.5718 H   0  0  0  0  0  0  0  0  0  0  0  0
    1.8875   -2.5152   -0.5674 H   0  0  0  0  0  0  0  0  0  0  0  0
   -1.1797   -2.7625   -0.6611 H   0  0  0  0  0  0  0  0  0  0  0  0
   -0.1510   -3.3375   -1.9759 H   0  0  0  0  0  0  0  0  0  0  0  0
   -2.0756   -4.4813    0.0983 H   0  0  0  0  0  0  0  0  0  0  0  0
   -1.2640   -5.8400    0.7920 H   0  0  0  0  0  0  0  0  0  0  0  0
    0.9222    0.3119   -0.7896 N   0  0  0  0  0  0  0  0  0  0  0  0
    0.8551    1.5818   -1.4722 C   0  0  2  0  0  0  0  0  0  0  0  0
   -0.4803    1.6541   -2.2008 C   0  0  0  0  0  0  0  0  0  0  0  0
   -1.1282    0.6575   -2.5143 O   0  0  0  0  0  0  0  0  0  0  0  0
    2.0137    1.7502   -2.4428 C   0  0  0  0  0  0  0  0  0  0  0  0
    1.0532    0.3144    0.2177 H   0  0  0  0  0  0  0  0  0  0  0  0
    0.8931    2.3582   -0.7003 H   0  0  0  0  0  0  0  0  0  0  0  0
    1.9923    0.9811   -3.2236 H   0  0  0  0  0  0  0  0  0  0  0  0
    1.9772    2.7257   -2.9388 H   0  0  0  0  0  0  0  0  0  0  0  0
    2.9737    1.6682   -1.9218 H   0  0  0  0  0  0  0  0  0  0  0  0
   -0.8427    2.9604   -2.4980 N   0  0  0  0  0  0  0  0  0  0  0  0
   -2.0622    3.2913   -3.1976 C   0  0  0  0  0  0  0  0  0  0  0  0
   -0.2543    3.7261   -2.1830 H   0  0  0  0  0  0  0  0  0  0  0  0
   -1.8608    3.3533   -4.2772 H   0  0  0  0  0  0  0  0  0  0  0  0
   -2.8156    2.5122   -3.0094 H   0  0  0  0  0  0  0  0  0  0  0  0
   -2.4392    4.2603   -2.8388 H   0  0  0  0  0  0  0  0  0  0  0  0
  1  3  1  0  0  0  0
  1  7  1  0  0  0  0
  1  2  2  0  0  0  0
 21 22  1  0  0  0  0
 22 24  1  0  0  0  0
 22 23  2  0  0  0  0
 32 33  1  0  0  0  0
 33 41  1  0  0  0  0
 33 34  2  0  0  0  0
  8  9  1  0  0  0  0
  9 17  1  0  0  0  0
  9 10  2  0  0  0  0
 18 19  1  0  0  0  0
 19 31  1  0  0  0  0
 19 20  2  0  0  0  0
 32 35  1  0  0  0  0
  8 11  1  0  0  0  0
 41 42  1  0  0  0  0
 18 21  1  0  0  0  0
 31 32  1  0  0  0  0
  7  8  1  0  0  0  0
 17 18  1  0  0  0  0
  3  4  1  0  0  0  0
  3  5  1  0  0  0  0
  3  6  1  0  0  0  0
 35 38  1  0  0  0  0
 35 39  1  0  0  0  0
 35 40  1  0  0  0  0
 11 14  1  0  0  0  0
 11 15  1  0  0  0  0
 11 16  1  0  0  0  0
 42 44  1  0  0  0  0
 42 45  1  0  0  0  0
 42 46  1  0  0  0  0
 21 27  1  0  0  0  0
 21 28  1  0  0  0  0
 32 37  1  0  0  0  0
  8 13  1  0  0  0  0
 18 26  1  0  0  0  0
 24 29  1  0  0  0  0
 24 30  1  0  0  0  0
 41 43  1  0  0  0  0
  7 12  1  0  0  0  0
 31 36  1  0  0  0  0
 17 25  1  0  0  0  0
M  END
$$$$

  -OEChem-05262214473D

 46 45  0     1  0  0  0  0  0999 V2000
   -0.0543    1.9736    3.8406 C   0  0  0  0  0  0  0  0  0  0  0  0
    0.6744    1.6099    4.7562 O   0  0  0  0  0  0  0  0  0  0  0  0
   -0.5599    3.3779    3.8160 C   0  0  0  0  0  0  0  0  0  0  0  0
   -1.5202    3.4885    4.3450 H   0  0  0  0  0  0  0  0  0  0  0  0
    0.1282    4.0814    4.3116 H   0  0  0  0  0  0  0  0  0  0  0  0
   -0.7317    3.7994    2.8126 H   0  0  0  0  0  0  0  0  0  0  0  0
   -0.4812    1.1968    2.7762 N   0  0  0  0  0  0  0  0  0  0  0  0
   -0.1106   -0.1834    2.6051 C   0  0  2  0  0  0  0  0  0  0  0  0
   -0.0696   -0.4775    1.1113 C   0  0  0  0  0  0  0  0  0  0  0  0
   -0.6805    0.1900    0.2792 O   0  0  0  0  0  0  0  0  0  0  0  0
   -1.0852   -1.1101    3.3150 C   0  0  0  0  0  0  0  0  0  0  0  0
   -1.0883    1.6241    2.0791 H   0  0  0  0  0  0  0  0  0  0  0  0
    0.8937   -0.2959    3.0277 H   0  0  0  0  0  0  0  0  0  0  0  0
   -2.0970   -1.0114    2.9051 H   0  0  0  0  0  0  0  0  0  0  0  0
   -0.7860   -2.1580    3.2078 H   0  0  0  0  0  0  0  0  0  0  0  0
   -1.1357   -0.8775    4.3842 H   0  0  0  0  0  0  0  0  0  0  0  0
    0.6950   -1.6003    0.8178 N   0  0  0  0  0  0  0  0  0  0  0  0
    0.8777   -2.0908   -0.5246 C   0  0  2  0  0  0  0  0  0  0  0  0
    0.8034   -0.8945   -1.4651 C   0  0  0  0  0  0  0  0  0  0  0  0
    0.3571   -0.9657   -2.6084 O   0  0  0  0  0  0  0  0  0  0  0  0
   -0.1750   -3.1350   -0.8974 C   0  0  0  0  0  0  0  0  0  0  0  0
   -0.0012   -4.4492   -0.1567 C   0  0  0  0  0  0  0  0  0  0  0  0
    1.0828   -4.9909    0.0383 O   0  0  0  0  0  0  0  0  0  0  0  0
   -1.2029   -4.9660    0.2794 N   0  0  0  0  0  0  0  0  0  0  0  0
    1.1810   -2.0803    1.5718 H   0  0  0  0  0  0  0  0  0  0  0  0
    1.8875   -2.5152   -0.5674 H   0  0  0  0  0  0  0  0  0  0  0  0
   -1.1797   -2.7625   -0.6611 H   0  0  0  0  0  0  0  0  0  0  0  0
   -0.1510   -3.3375   -1.9759 H   0  0  0  0  0  0  0  0  0  0  0  0
   -2.0756   -4.4813    0.0983 H   0  0  0  0  0  0  0  0  0  0  0  0
   -1.2640   -5.8400    0.7920 H   0  0  0  0  0  0  0  0  0  0  0  0
    1.2474    0.2744   -0.8630 N   0  0  0  0  0  0  0  0  0  0  0  0
    1.2443    1.5412   -1.5546 C   0  0  2  0  0  0  0  0  0  0  0  0
   -0.1831    1.8304   -1.9999 C   0  0  0  0  0  0  0  0  0  0  0  0
   -1.0309    0.9525   -2.1468 O   0  0  0  0  0  0  0  0  0  0  0  0
    2.1919    1.5245   -2.7439 C   0  0  0  0  0  0  0  0  0  0  0  0
    1.5800    0.2518    0.0965 H   0  0  0  0  0  0  0  0  0  0  0  0
    1.5618    2.2983   -0.8293 H   0  0  0  0  0  0  0  0  0  0  0  0
    1.8899    0.7719   -3.4815 H   0  0  0  0  0  0  0  0  0  0  0  0
    2.2100    2.4951   -3.2505 H   0  0  0  0  0  0  0  0  0  0  0  0
    3.2127    1.2869   -2.4256 H   0  0  0  0  0  0  0  0  0  0  0  0
   -0.3868    3.1792   -2.2556 N   0  0  0  0  0  0  0  0  0  0  0  0
   -1.6553    3.7049   -2.7035 C   0  0  0  0  0  0  0  0  0  0  0  0
    0.3673    3.8389   -2.0886 H   0  0  0  0  0  0  0  0  0  0  0  0
   -1.6715    3.7380   -3.8029 H   0  0  0  0  0  0  0  0  0  0  0  0
   -2.4681    3.0567   -2.3443 H   0  0  0  0  0  0  0  0  0  0  0  0
   -1.7927    4.7207   -2.3042 H   0  0  0  0  0  0  0  0  0  0  0  0
  1  3  1  0  0  0  0
  1  7  1  0  0  0  0
  1  2  2  0  0  0  0
 21 22  1  0  0  0  0
 22 24  1  0  0  0  0
 22 23  2  0  0  0  0
 32 33  1  0  0  0  0
 33 41  1  0  0  0  0
 33 34  2  0  0  0  0
  8  9  1  0  0  0  0
  9 17  1  0  0  0  0
  9 10  2  0  0  0  0
 18 19  1  0  0  0  0
 19 31  1  0  0  0  0
 19 20  2  0  0  0  0
 32 35  1  0  0  0  0
  8 11  1  0  0  0  0
 41 42  1  0  0  0  0
 18 21  1  0  0  0  0
 31 32  1  0  0  0  0
  7  8  1  0  0  0  0
 17 18  1  0  0  0  0
  3  4  1  0  0  0  0
  3  5  1  0  0  0  0
  3  6  1  0  0  0  0
 35 38  1  0  0  0  0
 35 39  1  0  0  0  0
 35 40  1  0  0  0  0
 11 14  1  0  0  0  0
 11 15  1  0  0  0  0
 11 16  1  0  0  0  0
 42 44  1  0  0  0  0
 42 45  1  0  0  0  0
 42 46  1  0  0  0  0
 21 27  1  0  0  0  0
 21 28  1  0  0  0  0
 32 37  1  0  0  0  0
  8 13  1  0  0  0  0
 18 26  1  0  0  0  0
 24 29  1  0  0  0  0
 24 30  1  0  0  0  0
 41 43  1  0  0  0  0
  7 12  1  0  0  0  0
 31 36  1  0  0  0  0
 17 25  1  0  0  0  0
M  END
$$$$

  -OEChem-05262214473D

 46 45  0     1  0  0  0  0  0999 V2000
   -0.0543    1.9736    3.8406 C   0  0  0  0  0  0  0  0  0  0  0  0
    0.6744    1.6099    4.7562 O   0  0  0  0  0  0  0  0  0  0  0  0
   -0.5599    3.3779    3.8160 C   0  0  0  0  0  0  0  0  0  0  0  0
   -1.5202    3.4885    4.3450 H   0  0  0  0  0  0  0  0  0  0  0  0
    0.1282    4.0814    4.3116 H   0  0  0  0  0  0  0  0  0  0  0  0
   -0.7317    3.7994    2.8126 H   0  0  0  0  0  0  0  0  0  0  0  0
   -0.4812    1.1968    2.7762 N   0  0  0  0  0  0  0  0  0  0  0  0
   -0.1106   -0.1834    2.6051 C   0  0  2  0  0  0  0  0  0  0  0  0
   -0.0696   -0.4775    1.1113 C   0  0  0  0  0  0  0  0  0  0  0  0
   -0.6805    0.1900    0.2792 O   0  0  0  0  0  0  0  0  0  0  0  0
   -1.0852   -1.1101    3.3150 C   0  0  0  0  0  0  0  0  0  0  0  0
   -1.0883    1.6241    2.0791 H   0  0  0  0  0  0  0  0  0  0  0  0
    0.8937   -0.2959    3.0277 H   0  0  0  0  0  0  0  0  0  0  0  0
   -2.0970   -1.0114    2.9051 H   0  0  0  0  0  0  0  0  0  0  0  0
   -0.7860   -2.1580    3.2078 H   0  0  0  0  0  0  0  0  0  0  0  0
   -1.1357   -0.8775    4.3842 H   0  0  0  0  0  0  0  0  0  0  0  0
    0.6950   -1.6003    0.8178 N   0  0  0  0  0  0  0  0  0  0  0  0
    0.8777   -2.0908   -0.5246 C   0  0  2  0  0  0  0  0  0  0  0  0
    0.8034   -0.8945   -1.4651 C   0  0  0  0  0  0  0  0  0  0  0  0
    0.1275   -0.8884   -2.4920 O   0  0  0  0  0  0  0  0  0  0  0  0
   -0.1750   -3.1350   -0.8974 C   0  0  0  0  0  0  0  0  0  0  0  0
   -0.0012   -4.4492   -0.1567 C   0  0  0  0  0  0  0  0  0  0  0  0
    1.0828   -4.9909    0.0383 O   0  0  0  0  0  0  0  0  0  0  0  0
   -1.2029   -4.9660    0.2794 N   0  0  0  0  0  0  0  0  0  0  0  0
    1.1810   -2.0803    1.5718 H   0  0  0  0  0  0  0  0  0  0  0  0
    1.8875   -2.5152   -0.5674 H   0  0  0  0  0  0  0  0  0  0  0  0
   -1.1797   -2.7625   -0.6611 H   0  0  0  0  0  0  0  0  0  0  0  0
   -0.1510   -3.3375   -1.9759 H   0  0  0  0  0  0  0  0  0  0  0  0
   -2.0756   -4.4813    0.0983 H   0  0  0  0  0  0  0  0  0  0  0  0
   -1.2640   -5.8400    0.7920 H   0  0  0  0  0  0  0  0  0  0  0  0
    1.5405    0.1853   -0.9995 N   0  0  0  0  0  0  0  0  0  0  0  0
    1.5970    1.4387   -1.7128 C   0  0  2  0  0  0  0  0  0  0  0  0
    0.1730    1.9558   -1.8685 C   0  0  0  0  0  0  0  0  0  0  0  0
   -0.8151    1.2265   -1.8153 O   0  0  0  0  0  0  0  0  0  0  0  0
    2.2669    1.2742   -3.0682 C   0  0  0  0  0  0  0  0  0  0  0  0
    2.0542    0.1056   -0.1268 H   0  0  0  0  0  0  0  0  0  0  0  0
    2.1718    2.1319   -1.0891 H   0  0  0  0  0  0  0  0  0  0  0  0
    1.7052    0.5830   -3.7072 H   0  0  0  0  0  0  0  0  0  0  0  0
    2.3346    2.2312   -3.5960 H   0  0  0  0  0  0  0  0  0  0  0  0
    3.2803    0.8741   -2.9561 H   0  0  0  0  0  0  0  0  0  0  0  0
    0.1378    3.3208   -2.1169 N   0  0  0  0  0  0  0  0  0  0  0  0
   -1.0958    4.0457   -2.3142 C   0  0  0  0  0  0  0  0  0  0  0  0
    1.0049    3.8498   -2.1251 H   0  0  0  0  0  0  0  0  0  0  0  0
   -1.3307    4.0852   -3.3881 H   0  0  0  0  0  0  0  0  0  0  0  0
   -1.9103    3.5355   -1.7793 H   0  0  0  0  0  0  0  0  0  0  0  0
   -0.9860    5.0688   -1.9252 H   0  0  0  0  0  0  0  0  0  0  0  0
  1  3  1  0  0  0  0
  1  7  1  0  0  0  0
  1  2  2  0  0  0  0
 21 22  1  0  0  0  0
 22 24  1  0  0  0  0
 22 23  2  0  0  0  0
 32 33  1  0  0  0  0
 33 41  1  0  0  0  0
 33 34  2  0  0  0  0
  8  9  1  0  0  0  0
  9 17  1  0  0  0  0
  9 10  2  0  0  0  0
 18 19  1  0  0  0  0
 19 31  1  0  0  0  0
 19 20  2  0  0  0  0
 32 35  1  0  0  0  0
  8 11  1  0  0  0  0
 41 42  1  0  0  0  0
 18 21  1  0  0  0  0
 31 32  1  0  0  0  0
  7  8  1  0  0  0  0
 17 18  1  0  0  0  0
  3  4  1  0  0  0  0
  3  5  1  0  0  0  0
  3  6  1  0  0  0  0
 35 38  1  0  0  0  0
 35 39  1  0  0  0  0
 35 40  1  0  0  0  0
 11 14  1  0  0  0  0
 11 15  1  0  0  0  0
 11 16  1  0  0  0  0
 42 44  1  0  0  0  0
 42 45  1  0  0  0  0
 42 46  1  0  0  0  0
 21 27  1  0  0  0  0
 21 28  1  0  0  0  0
 32 37  1  0  0  0  0
  8 13  1  0  0  0  0
 18 26  1  0  0  0  0
 24 29  1  0  0  0  0
 24 30  1  0  0  0  0
 41 43  1  0  0  0  0
  7 12  1  0  0  0  0
 31 36  1  0  0  0  0
 17 25  1  0  0  0  0
M  END
$$$$

  -OEChem-05262214473D

 46 45  0     1  0  0  0  0  0999 V2000
   -0.0543    1.9736    3.8406 C   0  0  0  0  0  0  0  0  0  0  0  0
    0.6744    1.6099    4.7562 O   0  0  0  0  0  0  0  0  0  0  0  0
   -0.5599    3.3779    3.8160 C   0  0  0  0  0  0  0  0  0  0  0  0
   -1.5202    3.4885    4.3450 H   0  0  0  0  0  0  0  0  0  0  0  0
    0.1282    4.0814    4.3116 H   0  0  0  0  0  0  0  0  0  0  0  0
   -0.7317    3.7994    2.8126 H   0  0  0  0  0  0  0  0  0  0  0  0
   -0.4812    1.1968    2.7762 N   0  0  0  0  0  0  0  0  0  0  0  0
   -0.1106   -0.1834    2.6051 C   0  0  2  0  0  0  0  0  0  0  0  0
   -0.0696   -0.4775    1.1113 C   0  0  0  0  0  0  0  0  0  0  0  0
   -0.6805    0.1900    0.2792 O   0  0  0  0  0  0  0  0  0  0  0  0
   -1.0852   -1.1101    3.3150 C   0  0  0  0  0  0  0  0  0  0  0  0
   -1.0883    1.6241    2.0791 H   0  0  0  0  0  0  0  0  0  0  0  0
    0.8937   -0.2959    3.0277 H   0  0  0  0  0  0  0  0  0  0  0  0
   -2.0970   -1.0114    2.9051 H   0  0  0  0  0  0  0  0  0  0  0  0
   -0.7860   -2.1580    3.2078 H   0  0  0  0  0  0  0  0  0  0  0  0
   -1.1357   -0.8775    4.3842 H   0  0  0  0  0  0  0  0  0  0  0  0
    0.6950   -1.6003    0.8178 N   0  0  0  0  0  0  0  0  0  0  0  0
    0.8777   -2.0908   -0.5246 C   0  0  2  0  0  0  0  0  0  0  0  0
    0.8034   -0.8945   -1.4651 C   0  0  0  0  0  0  0  0  0  0  0  0
   -0.0583   -0.7756   -2.3338 O   0  0  0  0  0  0  0  0  0  0  0  0
   -0.1750   -3.1350   -0.8974 C   0  0  0  0  0  0  0  0  0  0  0  0
   -0.0012   -4.4492   -0.1567 C   0  0  0  0  0  0  0  0  0  0  0  0
    1.0828   -4.9909    0.0383 O   0  0  0  0  0  0  0  0  0  0  0  0
   -1.2029   -4.9660    0.2794 N   0  0  0  0  0  0  0  0  0  0  0  0
    1.1810   -2.0803    1.5718 H   0  0  0  0  0  0  0  0  0  0  0  0
    1.8875   -2.5152   -0.5674 H   0  0  0  0  0  0  0  0  0  0  0  0
   -1.1797   -2.7625   -0.6611 H   0  0  0  0  0  0  0  0  0  0  0  0
   -0.1510   -3.3375   -1.9759 H   0  0  0  0  0  0  0  0  0  0  0  0
   -2.0756   -4.4813    0.0983 H   0  0  0  0  0  0  0  0  0  0  0  0
   -1.2640   -5.8400    0.7920 H   0  0  0  0  0  0  0  0  0  0  0  0
    1.7817    0.0506   -1.1898 N   0  0  0  0  0  0  0  0  0  0  0  0
    1.8892    1.2813   -1.9360 C   0  0  2  0  0  0  0  0  0  0  0  0
    0.5638    2.0217   -1.8156 C   0  0  0  0  0  0  0  0  0  0  0  0
   -0.4955    1.4609   -1.5425 O   0  0  0  0  0  0  0  0  0  0  0  0
    2.2334    1.0164   -3.3934 C   0  0  0  0  0  0  0  0  0  0  0  0
    2.4436   -0.1141   -0.4371 H   0  0  0  0  0  0  0  0  0  0  0  0
    2.6817    1.8705   -1.4618 H   0  0  0  0  0  0  0  0  0  0  0  0
    1.4508    0.4272   -3.8853 H   0  0  0  0  0  0  0  0  0  0  0  0
    2.3427    1.9521   -3.9517 H   0  0  0  0  0  0  0  0  0  0  0  0
    3.1719    0.4578   -3.4770 H   0  0  0  0  0  0  0  0  0  0  0  0
    0.6953    3.3755   -2.0913 N   0  0  0  0  0  0  0  0  0  0  0  0
   -0.4217    4.2904   -2.0562 C   0  0  0  0  0  0  0  0  0  0  0  0
    1.6151    3.7579   -2.2901 H   0  0  0  0  0  0  0  0  0  0  0  0
   -0.8618    4.3715   -3.0610 H   0  0  0  0  0  0  0  0  0  0  0  0
   -1.1802    3.9160   -1.3530 H   0  0  0  0  0  0  0  0  0  0  0  0
   -0.0741    5.2809   -1.7273 H   0  0  0  0  0  0  0  0  0  0  0  0
  1  3  1  0  0  0  0
  1  7  1  0  0  0  0
  1  2  2  0  0  0  0
 21 22  1  0  0  0  0
 22 24  1  0  0  0  0
 22 23  2  0  0  0  0
 32 33  1  0  0  0  0
 33 41  1  0  0  0  0
 33 34  2  0  0  0  0
  8  9  1  0  0  0  0
  9 17  1  0  0  0  0
  9 10  2  0  0  0  0
 18 19  1  0  0  0  0
 19 31  1  0  0  0  0
 19 20  2  0  0  0  0
 32 35  1  0  0  0  0
  8 11  1  0  0  0  0
 41 42  1  0  0  0  0
 18 21  1  0  0  0  0
 31 32  1  0  0  0  0
  7  8  1  0  0  0  0
 17 18  1  0  0  0  0
  3  4  1  0  0  0  0
  3  5  1  0  0  0  0
  3  6  1  0  0  0  0
 35 38  1  0  0  0  0
 35 39  1  0  0  0  0
 35 40  1  0  0  0  0
 11 14  1  0  0  0  0
 11 15  1  0  0  0  0
 11 16  1  0  0  0  0
 42 44  1  0  0  0  0
 42 45  1  0  0  0  0
 42 46  1  0  0  0  0
 21 27  1  0  0  0  0
 21 28  1  0  0  0  0
 32 37  1  0  0  0  0
  8 13  1  0  0  0  0
 18 26  1  0  0  0  0
 24 29  1  0  0  0  0
 24 30  1  0  0  0  0
 41 43  1  0  0  0  0
  7 12  1  0  0  0  0
 31 36  1  0  0  0  0
 17 25  1  0  0  0  0
M  END
$$$$

  -OEChem-05262214473D

 46 45  0     1  0  0  0  0  0999 V2000
   -0.0543    1.9736    3.8406 C   0  0  0  0  0  0  0  0  0  0  0  0
    0.6744    1.6099    4.7562 O   0  0  0  0  0  0  0  0  0  0  0  0
   -0.5599    3.3779    3.8160 C   0  0  0  0  0  0  0  0  0  0  0  0
   -1.5202    3.4885    4.3450 H   0  0  0  0  0  0  0  0  0  0  0  0
    0.1282    4.0814    4.3116 H   0  0  0  0  0  0  0  0  0  0  0  0
   -0.7317    3.7994    2.8126 H   0  0  0  0  0  0  0  0  0  0  0  0
   -0.4812    1.1968    2.7762 N   0  0  0  0  0  0  0  0  0  0  0  0
   -0.1106   -0.1834    2.6051 C   0  0  2  0  0  0  0  0  0  0  0  0
   -0.0696   -0.4775    1.1113 C   0  0  0  0  0  0  0  0  0  0  0  0
   -0.6805    0.1900    0.2792 O   0  0  0  0  0  0  0  0  0  0  0  0
   -1.0852   -1.1101    3.3150 C   0  0  0  0  0  0  0  0  0  0  0  0
   -1.0883    1.6241    2.0791 H   0  0  0  0  0  0  0  0  0  0  0  0
    0.8937   -0.2959    3.0277 H   0  0  0  0  0  0  0  0  0  0  0  0
   -2.0970   -1.0114    2.9051 H   0  0  0  0  0  0  0  0  0  0  0  0
   -0.7860   -2.1580    3.2078 H   0  0  0  0  0  0  0  0  0  0  0  0
   -1.1357   -0.8775    4.3842 H   0  0  0  0  0  0  0  0  0  0  0  0
    0.6950   -1.6003    0.8178 N   0  0  0  0  0  0  0  0  0  0  0  0
    0.8777   -2.0908   -0.5246 C   0  0  2  0  0  0  0  0  0  0  0  0
    0.8034   -0.8945   -1.4651 C   0  0  0  0  0  0  0  0  0  0  0  0
   -0.1876   -0.6349   -2.1447 O   0  0  0  0  0  0  0  0  0  0  0  0
   -0.1750   -3.1350   -0.8974 C   0  0  0  0  0  0  0  0  0  0  0  0
   -0.0012   -4.4492   -0.1567 C   0  0  0  0  0  0  0  0  0  0  0  0
    1.0828   -4.9909    0.0383 O   0  0  0  0  0  0  0  0  0  0  0  0
   -1.2029   -4.9660    0.2794 N   0  0  0  0  0  0  0  0  0  0  0  0
    1.1810   -2.0803    1.5718 H   0  0  0  0  0  0  0  0  0  0  0  0
    1.8875   -2.5152   -0.5674 H   0  0  0  0  0  0  0  0  0  0  0  0
   -1.1797   -2.7625   -0.6611 H   0  0  0  0  0  0  0  0  0  0  0  0
   -0.1510   -3.3375   -1.9759 H   0  0  0  0  0  0  0  0  0  0  0  0
   -2.0756   -4.4813    0.0983 H   0  0  0  0  0  0  0  0  0  0  0  0
   -1.2640   -5.8400    0.7920 H   0  0  0  0  0  0  0  0  0  0  0  0
    1.9544   -0.1204   -1.4209 N   0  0  0  0  0  0  0  0  0  0  0  0
    2.1009    1.0798   -2.2090 C   0  0  2  0  0  0  0  0  0  0  0  0
    0.9625    2.0236   -1.8446 C   0  0  0  0  0  0  0  0  0  0  0  0
   -0.0939    1.6396   -1.3468 O   0  0  0  0  0  0  0  0  0  0  0  0
    2.0937    0.7687   -3.6976 C   0  0  0  0  0  0  0  0  0  0  0  0
    2.7214   -0.3925   -0.8131 H   0  0  0  0  0  0  0  0  0  0  0  0
    3.0567    1.5318   -1.9222 H   0  0  0  0  0  0  0  0  0  0  0  0
    1.1439    0.3152   -4.0036 H   0  0  0  0  0  0  0  0  0  0  0  0
    2.2336    1.6767   -4.2934 H   0  0  0  0  0  0  0  0  0  0  0  0
    2.8948    0.0665   -3.9528 H   0  0  0  0  0  0  0  0  0  0  0  0
    1.2477    3.3396   -2.1806 N   0  0  0  0  0  0  0  0  0  0  0  0
    0.3209    4.4223   -1.9470 C   0  0  0  0  0  0  0  0  0  0  0  0
    2.1562    3.5696   -2.5723 H   0  0  0  0  0  0  0  0  0  0  0  0
   -0.2966    4.5771   -2.8440 H   0  0  0  0  0  0  0  0  0  0  0  0
   -0.3276    4.1722   -1.0943 H   0  0  0  0  0  0  0  0  0  0  0  0
    0.8808    5.3426   -1.7242 H   0  0  0  0  0  0  0  0  0  0  0  0
  1  3  1  0  0  0  0
  1  7  1  0  0  0  0
  1  2  2  0  0  0  0
 21 22  1  0  0  0  0
 22 24  1  0  0  0  0
 22 23  2  0  0  0  0
 32 33  1  0  0  0  0
 33 41  1  0  0  0  0
 33 34  2  0  0  0  0
  8  9  1  0  0  0  0
  9 17  1  0  0  0  0
  9 10  2  0  0  0  0
 18 19  1  0  0  0  0
 19 31  1  0  0  0  0
 19 20  2  0  0  0  0
 32 35  1  0  0  0  0
  8 11  1  0  0  0  0
 41 42  1  0  0  0  0
 18 21  1  0  0  0  0
 31 32  1  0  0  0  0
  7  8  1  0  0  0  0
 17 18  1  0  0  0  0
  3  4  1  0  0  0  0
  3  5  1  0  0  0  0
  3  6  1  0  0  0  0
 35 38  1  0  0  0  0
 35 39  1  0  0  0  0
 35 40  1  0  0  0  0
 11 14  1  0  0  0  0
 11 15  1  0  0  0  0
 11 16  1  0  0  0  0
 42 44  1  0  0  0  0
 42 45  1  0  0  0  0
 42 46  1  0  0  0  0
 21 27  1  0  0  0  0
 21 28  1  0  0  0  0
 32 37  1  0  0  0  0
  8 13  1  0  0  0  0
 18 26  1  0  0  0  0
 24 29  1  0  0  0  0
 24 30  1  0  0  0  0
 41 43  1  0  0  0  0
  7 12  1  0  0  0  0
 31 36  1  0  0  0  0
 17 25  1  0  0  0  0
M  END
$$$$

  -OEChem-05262214473D

 46 45  0     1  0  0  0  0  0999 V2000
   -0.0543    1.9736    3.8406 C   0  0  0  0  0  0  0  0  0  0  0  0
    0.6744    1.6099    4.7562 O   0  0  0  0  0  0  0  0  0  0  0  0
   -0.5599    3.3779    3.8160 C   0  0  0  0  0  0  0  0  0  0  0  0
   -1.5202    3.4885    4.3450 H   0  0  0  0  0  0  0  0  0  0  0  0
    0.1282    4.0814    4.3116 H   0  0  0  0  0  0  0  0  0  0  0  0
   -0.7317    3.7994    2.8126 H   0  0  0  0  0  0  0  0  0  0  0  0
   -0.4812    1.1968    2.7762 N   0  0  0  0  0  0  0  0  0  0  0  0
   -0.1106   -0.1834    2.6051 C   0  0  2  0  0  0  0  0  0  0  0  0
   -0.0696   -0.4775    1.1113 C   0  0  0  0  0  0  0  0  0  0  0  0
   -0.6805    0.1900    0.2792 O   0  0  0  0  0  0  0  0  0  0  0  0
   -1.0852   -1.1101    3.3150 C   0  0  0  0  0  0  0  0  0  0  0  0
   -1.0883    1.6241    2.0791 H   0  0  0  0  0  0  0  0  0  0  0  0
    0.8937   -0.2959    3.0277 H   0  0  0  0  0  0  0  0  0  0  0  0
   -2.0970   -1.0114    2.9051 H   0  0  0  0  0  0  0  0  0  0  0  0
   -0.7860   -2.1580    3.2078 H   0  0  0  0  0  0  0  0  0  0  0  0
   -1.1357   -0.8775    4.3842 H   0  0  0  0  0  0  0  0  0  0  0  0
    0.6950   -1.6003    0.8178 N   0  0  0  0  0  0  0  0  0  0  0  0
    0.8777   -2.0908   -0.5246 C   0  0  2  0  0  0  0  0  0  0  0  0
    0.8034   -0.8945   -1.4651 C   0  0  0  0  0  0  0  0  0  0  0  0
   -0.2516   -0.4760   -1.9375 O   0  0  0  0  0  0  0  0  0  0  0  0
   -0.1750   -3.1350   -0.8974 C   0  0  0  0  0  0  0  0  0  0  0  0
   -0.0012   -4.4492   -0.1567 C   0  0  0  0  0  0  0  0  0  0  0  0
    1.0828   -4.9909    0.0383 O   0  0  0  0  0  0  0  0  0  0  0  0
   -1.2029   -4.9660    0.2794 N   0  0  0  0  0  0  0  0  0  0  0  0
    1.1810   -2.0803    1.5718 H   0  0  0  0  0  0  0  0  0  0  0  0
    1.8875   -2.5152   -0.5674 H   0  0  0  0  0  0  0  0  0  0  0  0
   -1.1797   -2.7625   -0.6611 H   0  0  0  0  0  0  0  0  0  0  0  0
   -0.1510   -3.3375   -1.9759 H   0  0  0  0  0  0  0  0  0  0  0  0
   -2.0756   -4.4813    0.0983 H   0  0  0  0  0  0  0  0  0  0  0  0
   -1.2640   -5.8400    0.7920 H   0  0  0  0  0  0  0  0  0  0  0  0
    2.0470   -0.3161   -1.6771 N   0  0  0  0  0  0  0  0  0  0  0  0
    2.2178    0.8479   -2.5131 C   0  0  2  0  0  0  0  0  0  0  0  0
    1.3420    1.9613   -1.9538 C   0  0  0  0  0  0  0  0  0  0  0  0
    0.3624    1.7506   -1.2417 O   0  0  0  0  0  0  0  0  0  0  0  0
    1.8575    0.5478   -3.9598 C   0  0  0  0  0  0  0  0  0  0  0  0
    2.8690   -0.7106   -1.2293 H   0  0  0  0  0  0  0  0  0  0  0  0
    3.2712    1.1389   -2.4388 H   0  0  0  0  0  0  0  0  0  0  0  0
    0.8056    0.2544   -4.0541 H   0  0  0  0  0  0  0  0  0  0  0  0
    2.0148    1.4238   -4.5978 H   0  0  0  0  0  0  0  0  0  0  0  0
    2.4679   -0.2732   -4.3512 H   0  0  0  0  0  0  0  0  0  0  0  0
    1.7575    3.2155   -2.3786 N   0  0  0  0  0  0  0  0  0  0  0  0
    1.0814    4.4325   -1.9941 C   0  0  0  0  0  0  0  0  0  0  0  0
    2.5916    3.2977   -2.9525 H   0  0  0  0  0  0  0  0  0  0  0  0
    0.3262    4.6882   -2.7519 H   0  0  0  0  0  0  0  0  0  0  0  0
    0.5895    4.2867   -1.0210 H   0  0  0  0  0  0  0  0  0  0  0  0
    1.8137    5.2496   -1.9160 H   0  0  0  0  0  0  0  0  0  0  0  0
  1  3  1  0  0  0  0
  1  7  1  0  0  0  0
  1  2  2  0  0  0  0
 21 22  1  0  0  0  0
 22 24  1  0  0  0  0
 22 23  2  0  0  0  0
 32 33  1  0  0  0  0
 33 41  1  0  0  0  0
 33 34  2  0  0  0  0
  8  9  1  0  0  0  0
  9 17  1  0  0  0  0
  9 10  2  0  0  0  0
 18 19  1  0  0  0  0
 19 31  1  0  0  0  0
 19 20  2  0  0  0  0
 32 35  1  0  0  0  0
  8 11  1  0  0  0  0
 41 42  1  0  0  0  0
 18 21  1  0  0  0  0
 31 32  1  0  0  0  0
  7  8  1  0  0  0  0
 17 18  1  0  0  0  0
  3  4  1  0  0  0  0
  3  5  1  0  0  0  0
  3  6  1  0  0  0  0
 35 38  1  0  0  0  0
 35 39  1  0  0  0  0
 35 40  1  0  0  0  0
 11 14  1  0  0  0  0
 11 15  1  0  0  0  0
 11 16  1  0  0  0  0
 42 44  1  0  0  0  0
 42 45  1  0  0  0  0
 42 46  1  0  0  0  0
 21 27  1  0  0  0  0
 21 28  1  0  0  0  0
 32 37  1  0  0  0  0
  8 13  1  0  0  0  0
 18 26  1  0  0  0  0
 24 29  1  0  0  0  0
 24 30  1  0  0  0  0
 41 43  1  0  0  0  0
  7 12  1  0  0  0  0
 31 36  1  0  0  0  0
 17 25  1  0  0  0  0
M  END
$$$$

  -OEChem-05262214473D

 46 45  0     1  0  0  0  0  0999 V2000
   -0.0543    1.9736    3.8406 C   0  0  0  0  0  0  0  0  0  0  0  0
    0.6744    1.6099    4.7562 O   0  0  0  0  0  0  0  0  0  0  0  0
   -0.5599    3.3779    3.8160 C   0  0  0  0  0  0  0  0  0  0  0  0
   -1.5202    3.4885    4.3450 H   0  0  0  0  0  0  0  0  0  0  0  0
    0.1282    4.0814    4.3116 H   0  0  0  0  0  0  0  0  0  0  0  0
   -0.7317    3.7994    2.8126 H   0  0  0  0  0  0  0  0  0  0  0  0
   -0.4812    1.1968    2.7762 N   0  0  0  0  0  0  0  0  0  0  0  0
   -0.1106   -0.1834    2.6051 C   0  0  2  0  0  0  0  0  0  0  0  0
   -0.0696   -0.4775    1.1113 C   0  0  0  0  0  0  0  0  0  0  0  0
   -0.6805    0.1900    0.2792 O   0  0  0  0  0  0  0  0  0  0  0  0
   -1.0852   -1.1101    3.3150 C   0  0  0  0  0  0  0  0  0  0  0  0
   -1.0883    1.6241    2.0791 H   0  0  0  0  0  0  0  0  0  0  0  0
    0.8937   -0.2959    3.0277 H   0  0  0  0  0  0  0  0  0  0  0  0
   -2.0970   -1.0114    2.9051 H   0  0  0  0  0  0  0  0  0  0  0  0
   -0.7860   -2.1580    3.2078 H   0  0  0  0  0  0  0  0  0  0  0  0
   -1.1357   -0.8775    4.3842 H   0  0  0  0  0  0  0  0  0  0  0  0
    0.6950   -1.6003    0.8178 N   0  0  0  0  0  0  0  0  0  0  0  0
    0.8777   -2.0908   -0.5246 C   0  0  2  0  0  0  0  0  0  0  0  0
    0.8034   -0.8945   -1.4651 C   0  0  0  0  0  0  0  0  0  0  0  0
   -0.2459   -0.3097   -1.7264 O   0  0  0  0  0  0  0  0  0  0  0  0
   -0.1750   -3.1350   -0.8974 C   0  0  0  0  0  0  0  0  0  0  0  0
   -0.0012   -4.4492   -0.1567 C   0  0  0  0  0  0  0  0  0  0  0  0
    1.0828   -4.9909    0.0383 O   0  0  0  0  0  0  0  0  0  0  0  0
   -1.2029   -4.9660    0.2794 N   0  0  0  0  0  0  0  0  0  0  0  0
    1.1810   -2.0803    1.5718 H   0  0  0  0  0  0  0  0  0  0  0  0
    1.8875   -2.5152   -0.5674 H   0  0  0  0  0  0  0  0  0  0  0  0
   -1.1797   -2.7625   -0.6611 H   0  0  0  0  0  0  0  0  0  0  0  0
   -0.1510   -3.3375   -1.9759 H   0  0  0  0  0  0  0  0  0  0  0  0
   -2.0756   -4.4813    0.0983 H   0  0  0  0  0  0  0  0  0  0  0  0
   -1.2640   -5.8400    0.7920 H   0  0  0  0  0  0  0  0  0  0  0  0
    2.0531   -0.5231   -1.9409 N   0  0  0  0  0  0  0  0  0  0  0  0
    2.2318    0.6015   -2.8278 C   0  0  2  0  0  0  0  0  0  0  0  0
    1.6764    1.8392   -2.1355 C   0  0  0  0  0  0  0  0  0  0  0  0
    0.8422    1.7862   -1.2342 O   0  0  0  0  0  0  0  0  0  0  0  0
    1.5407    0.3690   -4.1623 C   0  0  0  0  0  0  0  0  0  0  0  0
    2.8761   -1.0466   -1.6573 H   0  0  0  0  0  0  0  0  0  0  0  0
    3.3107    0.7187   -2.9765 H   0  0  0  0  0  0  0  0  0  0  0  0
    0.4588    0.2492   -4.0334 H   0  0  0  0  0  0  0  0  0  0  0  0
    1.7011    1.2106   -4.8442 H   0  0  0  0  0  0  0  0  0  0  0  0
    1.9203   -0.5381   -4.6450 H   0  0  0  0  0  0  0  0  0  0  0  0
    2.1898    3.0117   -2.6720 N   0  0  0  0  0  0  0  0  0  0  0  0
    1.8081    4.3202   -2.1943 C   0  0  0  0  0  0  0  0  0  0  0  0
    2.8913    2.9607   -3.4048 H   0  0  0  0  0  0  0  0  0  0  0  0
    0.9643    4.6972   -2.7908 H   0  0  0  0  0  0  0  0  0  0  0  0
    1.5086    4.2518   -1.1380 H   0  0  0  0  0  0  0  0  0  0  0  0
    2.6609    5.0084   -2.2897 H   0  0  0  0  0  0  0  0  0  0  0  0
  1  3  1  0  0  0  0
  1  7  1  0  0  0  0
  1  2  2  0  0  0  0
 21 22  1  0  0  0  0
 22 24  1  0  0  0  0
 22 23  2  0  0  0  0
 32 33  1  0  0  0  0
 33 41  1  0  0  0  0
 33 34  2  0  0  0  0
  8  9  1  0  0  0  0
  9 17  1  0  0  0  0
  9 10  2  0  0  0  0
 18 19  1  0  0  0  0
 19 31  1  0  0  0  0
 19 20  2  0  0  0  0
 32 35  1  0  0  0  0
  8 11  1  0  0  0  0
 41 42  1  0  0  0  0
 18 21  1  0  0  0  0
 31 32  1  0  0  0  0
  7  8  1  0  0  0  0
 17 18  1  0  0  0  0
  3  4  1  0  0  0  0
  3  5  1  0  0  0  0
  3  6  1  0  0  0  0
 35 38  1  0  0  0  0
 35 39  1  0  0  0  0
 35 40  1  0  0  0  0
 11 14  1  0  0  0  0
 11 15  1  0  0  0  0
 11 16  1  0  0  0  0
 42 44  1  0  0  0  0
 42 45  1  0  0  0  0
 42 46  1  0  0  0  0
 21 27  1  0  0  0  0
 21 28  1  0  0  0  0
 32 37  1  0  0  0  0
  8 13  1  0  0  0  0
 18 26  1  0  0  0  0
 24 29  1  0  0  0  0
 24 30  1  0  0  0  0
 41 43  1  0  0  0  0
  7 12  1  0  0  0  0
 31 36  1  0  0  0  0
 17 25  1  0  0  0  0
M  END
$$$$

  -OEChem-05262214473D

 46 45  0     1  0  0  0  0  0999 V2000
   -0.0543    1.9736    3.8406 C   0  0  0  0  0  0  0  0  0  0  0  0
    0.6744    1.6099    4.7562 O   0  0  0  0  0  0  0  0  0  0  0  0
   -0.5599    3.3779    3.8160 C   0  0  0  0  0  0  0  0  0  0  0  0
   -1.5202    3.4885    4.3450 H   0  0  0  0  0  0  0  0  0  0  0  0
    0.1282    4.0814    4.3116 H   0  0  0  0  0  0  0  0  0  0  0  0
   -0.7317    3.7994    2.8126 H   0  0  0  0  0  0  0  0  0  0  0  0
   -0.4812    1.1968    2.7762 N   0  0  0  0  0  0  0  0  0  0  0  0
   -0.1106   -0.1834    2.6051 C   0  0  2  0  0  0  0  0  0  0  0  0
   -0.0696   -0.4775    1.1113 C   0  0  0  0  0  0  0  0  0  0  0  0
   -0.6805    0.1900    0.2792 O   0  0  0  0  0  0  0  0  0  0  0  0
   -1.0852   -1.1101    3.3150 C   0  0  0  0  0  0  0  0  0  0  0  0
   -1.0883    1.6241    2.0791 H   0  0  0  0  0  0  0  0  0  0  0  0
    0.8937   -0.2959    3.0277 H   0  0  0  0  0  0  0  0  0  0  0  0
   -2.0970   -1.0114    2.9051 H   0  0  0  0  0  0  0  0  0  0  0  0
   -0.7860   -2.1580    3.2078 H   0  0  0  0  0  0  0  0  0  0  0  0
   -1.1357   -0.8775    4.3842 H   0  0  0  0  0  0  0  0  0  0  0  0
    0.6950   -1.6003    0.8178 N   0  0  0  0  0  0  0  0  0  0  0  0
    0.8777   -2.0908   -0.5246 C   0  0  2  0  0  0  0  0  0  0  0  0
    0.8034   -0.8945   -1.4651 C   0  0  0  0  0  0  0  0  0  0  0  0
   -0.1709   -0.1473   -1.5258 O   0  0  0  0  0  0  0  0  0  0  0  0
   -0.1750   -3.1350   -0.8974 C   0  0  0  0  0  0  0  0  0  0  0  0
   -0.0012   -4.4492   -0.1567 C   0  0  0  0  0  0  0  0  0  0  0  0
    1.0828   -4.9909    0.0383 O   0  0  0  0  0  0  0  0  0  0  0  0
   -1.2029   -4.9660    0.2794 N   0  0  0  0  0  0  0  0  0  0  0  0
    1.1810   -2.0803    1.5718 H   0  0  0  0  0  0  0  0  0  0  0  0
    1.8875   -2.5152   -0.5674 H   0  0  0  0  0  0  0  0  0  0  0  0
   -1.1797   -2.7625   -0.6611 H   0  0  0  0  0  0  0  0  0  0  0  0
   -0.1510   -3.3375   -1.9759 H   0  0  0  0  0  0  0  0  0  0  0  0
   -2.0756   -4.4813    0.0983 H   0  0  0  0  0  0  0  0  0  0  0  0
   -1.2640   -5.8400    0.7920 H   0  0  0  0  0  0  0  0  0  0  0  0
    1.9723   -0.7274   -2.1944 N   0  0  0  0  0  0  0  0  0  0  0  0
    2.1419    0.3572   -3.1314 C   0  0  2  0  0  0  0  0  0  0  0  0
    1.9430    1.6655   -2.3775 C   0  0  0  0  0  0  0  0  0  0  0  0
    1.3129    1.7440   -1.3250 O   0  0  0  0  0  0  0  0  0  0  0  0
    1.1649    0.2442   -4.2913 C   0  0  0  0  0  0  0  0  0  0  0  0
    2.7422   -1.3777   -2.0679 H   0  0  0  0  0  0  0  0  0  0  0  0
    3.1724    0.2996   -3.4986 H   0  0  0  0  0  0  0  0  0  0  0  0
    0.1271    0.2998   -3.9429 H   0  0  0  0  0  0  0  0  0  0  0  0
    1.3140    1.0517   -5.0157 H   0  0  0  0  0  0  0  0  0  0  0  0
    1.2893   -0.7102   -4.8141 H   0  0  0  0  0  0  0  0  0  0  0  0
    2.5152    2.7421   -3.0406 N   0  0  0  0  0  0  0  0  0  0  0  0
    2.4514    4.0931   -2.5339 C   0  0  0  0  0  0  0  0  0  0  0  0
    3.0351    2.5816   -3.8983 H   0  0  0  0  0  0  0  0  0  0  0  0
    1.5742    4.6034   -2.9583 H   0  0  0  0  0  0  0  0  0  0  0  0
    2.3670    4.0697   -1.4374 H   0  0  0  0  0  0  0  0  0  0  0  0
    3.3648    4.6353   -2.8198 H   0  0  0  0  0  0  0  0  0  0  0  0
  1  3  1  0  0  0  0
  1  7  1  0  0  0  0
  1  2  2  0  0  0  0
 21 22  1  0  0  0  0
 22 24  1  0  0  0  0
 22 23  2  0  0  0  0
 32 33  1  0  0  0  0
 33 41  1  0  0  0  0
 33 34  2  0  0  0  0
  8  9  1  0  0  0  0
  9 17  1  0  0  0  0
  9 10  2  0  0  0  0
 18 19  1  0  0  0  0
 19 31  1  0  0  0  0
 19 20  2  0  0  0  0
 32 35  1  0  0  0  0
  8 11  1  0  0  0  0
 41 42  1  0  0  0  0
 18 21  1  0  0  0  0
 31 32  1  0  0  0  0
  7  8  1  0  0  0  0
 17 18  1  0  0  0  0
  3  4  1  0  0  0  0
  3  5  1  0  0  0  0
  3  6  1  0  0  0  0
 35 38  1  0  0  0  0
 35 39  1  0  0  0  0
 35 40  1  0  0  0  0
 11 14  1  0  0  0  0
 11 15  1  0  0  0  0
 11 16  1  0  0  0  0
 42 44  1  0  0  0  0
 42 45  1  0  0  0  0
 42 46  1  0  0  0  0
 21 27  1  0  0  0  0
 21 28  1  0  0  0  0
 32 37  1  0  0  0  0
  8 13  1  0  0  0  0
 18 26  1  0  0  0  0
 24 29  1  0  0  0  0
 24 30  1  0  0  0  0
 41 43  1  0  0  0  0
  7 12  1  0  0  0  0
 31 36  1  0  0  0  0
 17 25  1  0  0  0  0
M  END
$$$$

  -OEChem-05262214473D

 46 45  0     1  0  0  0  0  0999 V2000
   -0.0543    1.9736    3.8406 C   0  0  0  0  0  0  0  0  0  0  0  0
    0.6744    1.6099    4.7562 O   0  0  0  0  0  0  0  0  0  0  0  0
   -0.5599    3.3779    3.8160 C   0  0  0  0  0  0  0  0  0  0  0  0
   -1.5202    3.4885    4.3450 H   0  0  0  0  0  0  0  0  0  0  0  0
    0.1282    4.0814    4.3116 H   0  0  0  0  0  0  0  0  0  0  0  0
   -0.7317    3.7994    2.8126 H   0  0  0  0  0  0  0  0  0  0  0  0
   -0.4812    1.1968    2.7762 N   0  0  0  0  0  0  0  0  0  0  0  0
   -0.1106   -0.1834    2.6051 C   0  0  2  0  0  0  0  0  0  0  0  0
   -0.0696   -0.4775    1.1113 C   0  0  0  0  0  0  0  0  0  0  0  0
   -0.6805    0.1900    0.2792 O   0  0  0  0  0  0  0  0  0  0  0  0
   -1.0852   -1.1101    3.3150 C   0  0  0  0  0  0  0  0  0  0  0  0
   -1.0883    1.6241    2.0791 H   0  0  0  0  0  0  0  0  0  0  0  0
    0.8937   -0.2959    3.0277 H   0  0  0  0  0  0  0  0  0  0  0  0
   -2.0970   -1.0114    2.9051 H   0  0  0  0  0  0  0  0  0  0  0  0
   -0.7860   -2.1580    3.2078 H   0  0  0  0  0  0  0  0  0  0  0  0
   -1.1357   -0.8775    4.3842 H   0  0  0  0  0  0  0  0  0  0  0  0
    0.6950   -1.6003    0.8178 N   0  0  0  0  0  0  0  0  0  0  0  0
    0.8777   -2.0908   -0.5246 C   0  0  2  0  0  0  0  0  0  0  0  0
    0.8034   -0.8945   -1.4651 C   0  0  0  0  0  0  0  0  0  0  0  0
   -0.0318    0.0001   -1.3492 O   0  0  0  0  0  0  0  0  0  0  0  0
   -0.1750   -3.1350   -0.8974 C   0  0  0  0  0  0  0  0  0  0  0  0
   -0.0012   -4.4492   -0.1567 C   0  0  0  0  0  0  0  0  0  0  0  0
    1.0828   -4.9909    0.0383 O   0  0  0  0  0  0  0  0  0  0  0  0
   -1.2029   -4.9660    0.2794 N   0  0  0  0  0  0  0  0  0  0  0  0
    1.1810   -2.0803    1.5718 H   0  0  0  0  0  0  0  0  0  0  0  0
    1.8875   -2.5152   -0.5674 H   0  0  0  0  0  0  0  0  0  0  0  0
   -1.1797   -2.7625   -0.6611 H   0  0  0  0  0  0  0  0  0  0  0  0
   -0.1510   -3.3375   -1.9759 H   0  0  0  0  0  0  0  0  0  0  0  0
   -2.0756   -4.4813    0.0983 H   0  0  0  0  0  0  0  0  0  0  0  0
   -1.2640   -5.8400    0.7920 H   0  0  0  0  0  0  0  0  0  0  0  0
    1.8101   -0.9150   -2.4202 N   0  0  0  0  0  0  0  0  0  0  0  0
    1.9545    0.1317   -3.4034 C   0  0  2  0  0  0  0  0  0  0  0  0
    2.1236    1.4520   -2.6633 C   0  0  0  0  0  0  0  0  0  0  0  0
    1.7423    1.6269   -1.5078 O   0  0  0  0  0  0  0  0  0  0  0  0
    0.7558    0.1822   -4.3380 C   0  0  0  0  0  0  0  0  0  0  0  0
    2.4766   -1.6814   -2.4331 H   0  0  0  0  0  0  0  0  0  0  0  0
    2.8658   -0.0896   -3.9695 H   0  0  0  0  0  0  0  0  0  0  0  0
   -0.1667    0.4028   -3.7887 H   0  0  0  0  0  0  0  0  0  0  0  0
    0.8799    0.9579   -5.1008 H   0  0  0  0  0  0  0  0  0  0  0  0
    0.6179   -0.7778   -4.8471 H   0  0  0  0  0  0  0  0  0  0  0  0
    2.7115    2.4250   -3.4594 N   0  0  0  0  0  0  0  0  0  0  0  0
    2.9675    3.7666   -2.9898 C   0  0  0  0  0  0  0  0  0  0  0  0
    3.0132    2.1862   -4.3995 H   0  0  0  0  0  0  0  0  0  0  0  0
    2.1143    4.4132   -3.2427 H   0  0  0  0  0  0  0  0  0  0  0  0
    3.1062    3.7528   -1.8987 H   0  0  0  0  0  0  0  0  0  0  0  0
    3.8773    4.1557   -3.4702 H   0  0  0  0  0  0  0  0  0  0  0  0
  1  3  1  0  0  0  0
  1  7  1  0  0  0  0
  1  2  2  0  0  0  0
 21 22  1  0  0  0  0
 22 24  1  0  0  0  0
 22 23  2  0  0  0  0
 32 33  1  0  0  0  0
 33 41  1  0  0  0  0
 33 34  2  0  0  0  0
  8  9  1  0  0  0  0
  9 17  1  0  0  0  0
  9 10  2  0  0  0  0
 18 19  1  0  0  0  0
 19 31  1  0  0  0  0
 19 20  2  0  0  0  0
 32 35  1  0  0  0  0
  8 11  1  0  0  0  0
 41 42  1  0  0  0  0
 18 21  1  0  0  0  0
 31 32  1  0  0  0  0
  7  8  1  0  0  0  0
 17 18  1  0  0  0  0
  3  4  1  0  0  0  0
  3  5  1  0  0  0  0
  3  6  1  0  0  0  0
 35 38  1  0  0  0  0
 35 39  1  0  0  0  0
 35 40  1  0  0  0  0
 11 14  1  0  0  0  0
 11 15  1  0  0  0  0
 11 16  1  0  0  0  0
 42 44  1  0  0  0  0
 42 45  1  0  0  0  0
 42 46  1  0  0  0  0
 21 27  1  0  0  0  0
 21 28  1  0  0  0  0
 32 37  1  0  0  0  0
  8 13  1  0  0  0  0
 18 26  1  0  0  0  0
 24 29  1  0  0  0  0
 24 30  1  0  0  0  0
 41 43  1  0  0  0  0
  7 12  1  0  0  0  0
 31 36  1  0  0  0  0
 17 25  1  0  0  0  0
M  END
$$$$

  -OEChem-05262214473D

 46 45  0     1  0  0  0  0  0999 V2000
   -0.0543    1.9736    3.8406 C   0  0  0  0  0  0  0  0  0  0  0  0
    0.6744    1.6099    4.7562 O   0  0  0  0  0  0  0  0  0  0  0  0
   -0.5599    3.3779    3.8160 C   0  0  0  0  0  0  0  0  0  0  0  0
   -1.5202    3.4885    4.3450 H   0  0  0  0  0  0  0  0  0  0  0  0
    0.1282    4.0814    4.3116 H   0  0  0  0  0  0  0  0  0  0  0  0
   -0.7317    3.7994    2.8126 H   0  0  0  0  0  0  0  0  0  0  0  0
   -0.4812    1.1968    2.7762 N   0  0  0  0  0  0  0  0  0  0  0  0
   -0.1106   -0.1834    2.6051 C   0  0  2  0  0  0  0  0  0  0  0  0
   -0.0696   -0.4775    1.1113 C   0  0  0  0  0  0  0  0  0  0  0  0
   -0.6805    0.1900    0.2792 O   0  0  0  0  0  0  0  0  0  0  0  0
   -1.0852   -1.1101    3.3150 C   0  0  0  0  0  0  0  0  0  0  0  0
   -1.0883    1.6241    2.0791 H   0  0  0  0  0  0  0  0  0  0  0  0
    0.8937   -0.2959    3.0277 H   0  0  0  0  0  0  0  0  0  0  0  0
   -2.0970   -1.0114    2.9051 H   0  0  0  0  0  0  0  0  0  0  0  0
   -0.7860   -2.1580    3.2078 H   0  0  0  0  0  0  0  0  0  0  0  0
   -1.1357   -0.8775    4.3842 H   0  0  0  0  0  0  0  0  0  0  0  0
    0.6950   -1.6003    0.8178 N   0  0  0  0  0  0  0  0  0  0  0  0
    0.8777   -2.0908   -0.5246 C   0  0  2  0  0  0  0  0  0  0  0  0
    0.8034   -0.8945   -1.4651 C   0  0  0  0  0  0  0  0  0  0  0  0
    0.1620    0.1225   -1.2088 O   0  0  0  0  0  0  0  0  0  0  0  0
   -0.1750   -3.1350   -0.8974 C   0  0  0  0  0  0  0  0  0  0  0  0
   -0.0012   -4.4492   -0.1567 C   0  0  0  0  0  0  0  0  0  0  0  0
    1.0828   -4.9909    0.0383 O   0  0  0  0  0  0  0  0  0  0  0  0
   -1.2029   -4.9660    0.2794 N   0  0  0  0  0  0  0  0  0  0  0  0
    1.1810   -2.0803    1.5718 H   0  0  0  0  0  0  0  0  0  0  0  0
    1.8875   -2.5152   -0.5674 H   0  0  0  0  0  0  0  0  0  0  0  0
   -1.1797   -2.7625   -0.6611 H   0  0  0  0  0  0  0  0  0  0  0  0
   -0.1510   -3.3375   -1.9759 H   0  0  0  0  0  0  0  0  0  0  0  0
   -2.0756   -4.4813    0.0983 H   0  0  0  0  0  0  0  0  0  0  0  0
   -1.2640   -5.8400    0.7920 H   0  0  0  0  0  0  0  0  0  0  0  0
    1.5775   -1.0732   -2.6030 N   0  0  0  0  0  0  0  0  0  0  0  0
    1.6821   -0.0595   -3.6251 C   0  0  2  0  0  0  0  0  0  0  0  0
    2.2059    1.2134   -2.9733 C   0  0  0  0  0  0  0  0  0  0  0  0
    2.1012    1.4429   -1.7702 O   0  0  0  0  0  0  0  0  0  0  0  0
    0.3413    0.1870   -4.2991 C   0  0  0  0  0  0  0  0  0  0  0  0
    2.0973   -1.9368   -2.7281 H   0  0  0  0  0  0  0  0  0  0  0  0
    2.4117   -0.4225   -4.3571 H   0  0  0  0  0  0  0  0  0  0  0  0
   -0.4027    0.5512   -3.5813 H   0  0  0  0  0  0  0  0  0  0  0  0
    0.4283    0.9356   -5.0935 H   0  0  0  0  0  0  0  0  0  0  0  0
   -0.0480   -0.7362   -4.7417 H   0  0  0  0  0  0  0  0  0  0  0  0
    2.7653    2.0821   -3.8998 N   0  0  0  0  0  0  0  0  0  0  0  0
    3.3211    3.3631   -3.5310 C   0  0  0  0  0  0  0  0  0  0  0  0
    2.8269    1.8015   -4.8741 H   0  0  0  0  0  0  0  0  0  0  0  0
    2.5478    4.1397   -3.6249 H   0  0  0  0  0  0  0  0  0  0  0  0
    3.6758    3.3229   -2.4905 H   0  0  0  0  0  0  0  0  0  0  0  0
    4.1636    3.6025   -4.1965 H   0  0  0  0  0  0  0  0  0  0  0  0
  1  3  1  0  0  0  0
  1  7  1  0  0  0  0
  1  2  2  0  0  0  0
 21 22  1  0  0  0  0
 22 24  1  0  0  0  0
 22 23  2  0  0  0  0
 32 33  1  0  0  0  0
 33 41  1  0  0  0  0
 33 34  2  0  0  0  0
  8  9  1  0  0  0  0
  9 17  1  0  0  0  0
  9 10  2  0  0  0  0
 18 19  1  0  0  0  0
 19 31  1  0  0  0  0
 19 20  2  0  0  0  0
 32 35  1  0  0  0  0
  8 11  1  0  0  0  0
 41 42  1  0  0  0  0
 18 21  1  0  0  0  0
 31 32  1  0  0  0  0
  7  8  1  0  0  0  0
 17 18  1  0  0  0  0
  3  4  1  0  0  0  0
  3  5  1  0  0  0  0
  3  6  1  0  0  0  0
 35 38  1  0  0  0  0
 35 39  1  0  0  0  0
 35 40  1  0  0  0  0
 11 14  1  0  0  0  0
 11 15  1  0  0  0  0
 11 16  1  0  0  0  0
 42 44  1  0  0  0  0
 42 45  1  0  0  0  0
 42 46  1  0  0  0  0
 21 27  1  0  0  0  0
 21 28  1  0  0  0  0
 32 37  1  0  0  0  0
  8 13  1  0  0  0  0
 18 26  1  0  0  0  0
 24 29  1  0  0  0  0
 24 30  1  0  0  0  0
 41 43  1  0  0  0  0
  7 12  1  0  0  0  0
 31 36  1  0  0  0  0
 17 25  1  0  0  0  0
M  END
$$$$

  -OEChem-05262214473D

 46 45  0     1  0  0  0  0  0999 V2000
   -0.0543    1.9736    3.8406 C   0  0  0  0  0  0  0  0  0  0  0  0
    0.6744    1.6099    4.7562 O   0  0  0  0  0  0  0  0  0  0  0  0
   -0.5599    3.3779    3.8160 C   0  0  0  0  0  0  0  0  0  0  0  0
   -1.5202    3.4885    4.3450 H   0  0  0  0  0  0  0  0  0  0  0  0
    0.1282    4.0814    4.3116 H   0  0  0  0  0  0  0  0  0  0  0  0
   -0.7317    3.7994    2.8126 H   0  0  0  0  0  0  0  0  0  0  0  0
   -0.4812    1.1968    2.7762 N   0  0  0  0  0  0  0  0  0  0  0  0
   -0.1106   -0.1834    2.6051 C   0  0  2  0  0  0  0  0  0  0  0  0
   -0.0696   -0.4775    1.1113 C   0  0  0  0  0  0  0  0  0  0  0  0
   -0.6805    0.1900    0.2792 O   0  0  0  0  0  0  0  0  0  0  0  0
   -1.0852   -1.1101    3.3150 C   0  0  0  0  0  0  0  0  0  0  0  0
   -1.0883    1.6241    2.0791 H   0  0  0  0  0  0  0  0  0  0  0  0
    0.8937   -0.2959    3.0277 H   0  0  0  0  0  0  0  0  0  0  0  0
   -2.0970   -1.0114    2.9051 H   0  0  0  0  0  0  0  0  0  0  0  0
   -0.7860   -2.1580    3.2078 H   0  0  0  0  0  0  0  0  0  0  0  0
   -1.1357   -0.8775    4.3842 H   0  0  0  0  0  0  0  0  0  0  0  0
    0.6950   -1.6003    0.8178 N   0  0  0  0  0  0  0  0  0  0  0  0
    0.8777   -2.0908   -0.5246 C   0  0  2  0  0  0  0  0  0  0  0  0
    0.8034   -0.8945   -1.4651 C   0  0  0  0  0  0  0  0  0  0  0  0
    0.3974    0.2116   -1.1142 O   0  0  0  0  0  0  0  0  0  0  0  0
   -0.1750   -3.1350   -0.8974 C   0  0  0  0  0  0  0  0  0  0  0  0
   -0.0012   -4.4492   -0.1567 C   0  0  0  0  0  0  0  0  0  0  0  0
    1.0828   -4.9909    0.0383 O   0  0  0  0  0  0  0  0  0  0  0  0
   -1.2029   -4.9660    0.2794 N   0  0  0  0  0  0  0  0  0  0  0  0
    1.1810   -2.0803    1.5718 H   0  0  0  0  0  0  0  0  0  0  0  0
    1.8875   -2.5152   -0.5674 H   0  0  0  0  0  0  0  0  0  0  0  0
   -1.1797   -2.7625   -0.6611 H   0  0  0  0  0  0  0  0  0  0  0  0
   -0.1510   -3.3375   -1.9759 H   0  0  0  0  0  0  0  0  0  0  0  0
   -2.0756   -4.4813    0.0983 H   0  0  0  0  0  0  0  0  0  0  0  0
   -1.2640   -5.8400    0.7920 H   0  0  0  0  0  0  0  0  0  0  0  0
    1.2905   -1.1911   -2.7303 N   0  0  0  0  0  0  0  0  0  0  0  0
    1.3434   -0.2035   -3.7815 C   0  0  2  0  0  0  0  0  0  0  0  0
    2.1842    0.9658   -3.2864 C   0  0  0  0  0  0  0  0  0  0  0  0
    2.3652    1.2045   -2.0942 O   0  0  0  0  0  0  0  0  0  0  0  0
   -0.0504    0.2584   -4.1774 C   0  0  0  0  0  0  0  0  0  0  0  0
    1.6302   -2.1267   -2.9327 H   0  0  0  0  0  0  0  0  0  0  0  0
    1.8412   -0.6765   -4.6351 H   0  0  0  0  0  0  0  0  0  0  0  0
   -0.5648    0.7349   -3.3349 H   0  0  0  0  0  0  0  0  0  0  0  0
   -0.0101    0.9863   -4.9944 H   0  0  0  0  0  0  0  0  0  0  0  0
   -0.6632   -0.5883   -4.5050 H   0  0  0  0  0  0  0  0  0  0  0  0
    2.6731    1.7367   -4.3319 N   0  0  0  0  0  0  0  0  0  0  0  0
    3.4883    2.9100   -4.1205 C   0  0  0  0  0  0  0  0  0  0  0  0
    2.4891    1.4537   -5.2899 H   0  0  0  0  0  0  0  0  0  0  0  0
    2.8451    3.8014   -4.0787 H   0  0  0  0  0  0  0  0  0  0  0  0
    4.0371    2.8091   -3.1725 H   0  0  0  0  0  0  0  0  0  0  0  0
    4.2042    3.0131   -4.9493 H   0  0  0  0  0  0  0  0  0  0  0  0
  1  3  1  0  0  0  0
  1  7  1  0  0  0  0
  1  2  2  0  0  0  0
 21 22  1  0  0  0  0
 22 24  1  0  0  0  0
 22 23  2  0  0  0  0
 32 33  1  0  0  0  0
 33 41  1  0  0  0  0
 33 34  2  0  0  0  0
  8  9  1  0  0  0  0
  9 17  1  0  0  0  0
  9 10  2  0  0  0  0
 18 19  1  0  0  0  0
 19 31  1  0  0  0  0
 19 20  2  0  0  0  0
 32 35  1  0  0  0  0
  8 11  1  0  0  0  0
 41 42  1  0  0  0  0
 18 21  1  0  0  0  0
 31 32  1  0  0  0  0
  7  8  1  0  0  0  0
 17 18  1  0  0  0  0
  3  4  1  0  0  0  0
  3  5  1  0  0  0  0
  3  6  1  0  0  0  0
 35 38  1  0  0  0  0
 35 39  1  0  0  0  0
 35 40  1  0  0  0  0
 11 14  1  0  0  0  0
 11 15  1  0  0  0  0
 11 16  1  0  0  0  0
 42 44  1  0  0  0  0
 42 45  1  0  0  0  0
 42 46  1  0  0  0  0
 21 27  1  0  0  0  0
 21 28  1  0  0  0  0
 32 37  1  0  0  0  0
  8 13  1  0  0  0  0
 18 26  1  0  0  0  0
 24 29  1  0  0  0  0
 24 30  1  0  0  0  0
 41 43  1  0  0  0  0
  7 12  1  0  0  0  0
 31 36  1  0  0  0  0
 17 25  1  0  0  0  0
M  END
$$$$

  -OEChem-05262214473D

 46 45  0     1  0  0  0  0  0999 V2000
   -0.0543    1.9736    3.8406 C   0  0  0  0  0  0  0  0  0  0  0  0
    0.6744    1.6099    4.7562 O   0  0  0  0  0  0  0  0  0  0  0  0
   -0.5599    3.3779    3.8160 C   0  0  0  0  0  0  0  0  0  0  0  0
   -1.5202    3.4885    4.3450 H   0  0  0  0  0  0  0  0  0  0  0  0
    0.1282    4.0814    4.3116 H   0  0  0  0  0  0  0  0  0  0  0  0
   -0.7317    3.7994    2.8126 H   0  0  0  0  0  0  0  0  0  0  0  0
   -0.4812    1.1968    2.7762 N   0  0  0  0  0  0  0  0  0  0  0  0
   -0.1106   -0.1834    2.6051 C   0  0  2  0  0  0  0  0  0  0  0  0
   -0.0696   -0.4775    1.1113 C   0  0  0  0  0  0  0  0  0  0  0  0
   -0.6805    0.1900    0.2792 O   0  0  0  0  0  0  0  0  0  0  0  0
   -1.0852   -1.1101    3.3150 C   0  0  0  0  0  0  0  0  0  0  0  0
   -1.0883    1.6241    2.0791 H   0  0  0  0  0  0  0  0  0  0  0  0
    0.8937   -0.2959    3.0277 H   0  0  0  0  0  0  0  0  0  0  0  0
   -2.0970   -1.0114    2.9051 H   0  0  0  0  0  0  0  0  0  0  0  0
   -0.7860   -2.1580    3.2078 H   0  0  0  0  0  0  0  0  0  0  0  0
   -1.1357   -0.8775    4.3842 H   0  0  0  0  0  0  0  0  0  0  0  0
    0.6950   -1.6003    0.8178 N   0  0  0  0  0  0  0  0  0  0  0  0
    0.8777   -2.0908   -0.5246 C   0  0  2  0  0  0  0  0  0  0  0  0
    1.1793   -0.8919   -1.4149 C   0  0  0  0  0  0  0  0  0  0  0  0
    1.2796    0.2556   -0.9851 O   0  0  0  0  0  0  0  0  0  0  0  0
   -0.3556   -2.8400   -1.0298 C   0  0  0  0  0  0  0  0  0  0  0  0
   -0.5709   -4.1730   -0.3351 C   0  0  0  0  0  0  0  0  0  0  0  0
    0.3290   -4.9657   -0.0735 O   0  0  0  0  0  0  0  0  0  0  0  0
   -1.8963   -4.3923   -0.0246 N   0  0  0  0  0  0  0  0  0  0  0  0
    1.1810   -2.0803    1.5718 H   0  0  0  0  0  0  0  0  0  0  0  0
    1.7559   -2.7465   -0.5008 H   0  0  0  0  0  0  0  0  0  0  0  0
   -1.2592   -2.2402   -0.8628 H   0  0  0  0  0  0  0  0  0  0  0  0
   -0.2816   -3.0185   -2.1103 H   0  0  0  0  0  0  0  0  0  0  0  0
   -2.6069   -3.7066   -0.2571 H   0  0  0  0  0  0  0  0  0  0  0  0
   -2.2120   -5.2364    0.4424 H   0  0  0  0  0  0  0  0  0  0  0  0
    1.3735   -1.2578   -2.7394 N   0  0  0  0  0  0  0  0  0  0  0  0
    1.6976   -0.2916   -3.7614 C   0  0  2  0  0  0  0  0  0  0  0  0
    2.9772    0.4218   -3.3453 C   0  0  0  0  0  0  0  0  0  0  0  0
    3.3630    0.4821   -2.1797 O   0  0  0  0  0  0  0  0  0  0  0  0
    0.5633    0.7009   -3.9641 C   0  0  0  0  0  0  0  0  0  0  0  0
    1.2953   -2.2341   -3.0089 H   0  0  0  0  0  0  0  0  0  0  0  0
    1.8761   -0.8547   -4.6839 H   0  0  0  0  0  0  0  0  0  0  0  0
    0.3699    1.2746   -3.0503 H   0  0  0  0  0  0  0  0  0  0  0  0
    0.7990    1.4158   -4.7594 H   0  0  0  0  0  0  0  0  0  0  0  0
   -0.3636    0.1836   -4.2343 H   0  0  0  0  0  0  0  0  0  0  0  0
    3.6153    1.0200   -4.4229 N   0  0  0  0  0  0  0  0  0  0  0  0
    4.8430    1.7681   -4.2848 C   0  0  0  0  0  0  0  0  0  0  0  0
    3.2343    0.9026   -5.3572 H   0  0  0  0  0  0  0  0  0  0  0  0
    4.6095    2.8329   -4.1372 H   0  0  0  0  0  0  0  0  0  0  0  0
    5.4055    1.3925   -3.4173 H   0  0  0  0  0  0  0  0  0  0  0  0
    5.4494    1.6486   -5.1947 H   0  0  0  0  0  0  0  0  0  0  0  0
  1  3  1  0  0  0  0
  1  7  1  0  0  0  0
  1  2  2  0  0  0  0
 21 22  1  0  0  0  0
 22 24  1  0  0  0  0
 22 23  2  0  0  0  0
 32 33  1  0  0  0  0
 33 41  1  0  0  0  0
 33 34  2  0  0  0  0
  8  9  1  0  0  0  0
  9 17  1  0  0  0  0
  9 10  2  0  0  0  0
 18 19  1  0  0  0  0
 19 31  1  0  0  0  0
 19 20  2  0  0  0  0
 32 35  1  0  0  0  0
  8 11  1  0  0  0  0
 41 42  1  0  0  0  0
 18 21  1  0  0  0  0
 31 32  1  0  0  0  0
  7  8  1  0  0  0  0
 17 18  1  0  0  0  0
  3  4  1  0  0  0  0
  3  5  1  0  0  0  0
  3  6  1  0  0  0  0
 35 38  1  0  0  0  0
 35 39  1  0  0  0  0
 35 40  1  0  0  0  0
 11 14  1  0  0  0  0
 11 15  1  0  0  0  0
 11 16  1  0  0  0  0
 42 44  1  0  0  0  0
 42 45  1  0  0  0  0
 42 46  1  0  0  0  0
 21 27  1  0  0  0  0
 21 28  1  0  0  0  0
 32 37  1  0  0  0  0
  8 13  1  0  0  0  0
 18 26  1  0  0  0  0
 24 29  1  0  0  0  0
 24 30  1  0  0  0  0
 41 43  1  0  0  0  0
  7 12  1  0  0  0  0
 31 36  1  0  0  0  0
 17 25  1  0  0  0  0
M  END
$$$$

  -OEChem-05262214473D

 46 45  0     1  0  0  0  0  0999 V2000
   -0.0543    1.9736    3.8406 C   0  0  0  0  0  0  0  0  0  0  0  0
    0.6744    1.6099    4.7562 O   0  0  0  0  0  0  0  0  0  0  0  0
   -0.5599    3.3779    3.8160 C   0  0  0  0  0  0  0  0  0  0  0  0
   -1.5202    3.4885    4.3450 H   0  0  0  0  0  0  0  0  0  0  0  0
    0.1282    4.0814    4.3116 H   0  0  0  0  0  0  0  0  0  0  0  0
   -0.7317    3.7994    2.8126 H   0  0  0  0  0  0  0  0  0  0  0  0
   -0.4812    1.1968    2.7762 N   0  0  0  0  0  0  0  0  0  0  0  0
   -0.1106   -0.1834    2.6051 C   0  0  2  0  0  0  0  0  0  0  0  0
   -0.0696   -0.4775    1.1113 C   0  0  0  0  0  0  0  0  0  0  0  0
   -0.6805    0.1900    0.2792 O   0  0  0  0  0  0  0  0  0  0  0  0
   -1.0852   -1.1101    3.3150 C   0  0  0  0  0  0  0  0  0  0  0  0
   -1.0883    1.6241    2.0791 H   0  0  0  0  0  0  0  0  0  0  0  0
    0.8937   -0.2959    3.0277 H   0  0  0  0  0  0  0  0  0  0  0  0
   -2.0970   -1.0114    2.9051 H   0  0  0  0  0  0  0  0  0  0  0  0
   -0.7860   -2.1580    3.2078 H   0  0  0  0  0  0  0  0  0  0  0  0
   -1.1357   -0.8775    4.3842 H   0  0  0  0  0  0  0  0  0  0  0  0
    0.6950   -1.6003    0.8178 N   0  0  0  0  0  0  0  0  0  0  0  0
    0.8777   -2.0908   -0.5246 C   0  0  2  0  0  0  0  0  0  0  0  0
    1.1793   -0.8919   -1.4149 C   0  0  0  0  0  0  0  0  0  0  0  0
    1.5418    0.1973   -0.9747 O   0  0  0  0  0  0  0  0  0  0  0  0
   -0.3556   -2.8400   -1.0298 C   0  0  0  0  0  0  0  0  0  0  0  0
   -0.5709   -4.1730   -0.3351 C   0  0  0  0  0  0  0  0  0  0  0  0
    0.3290   -4.9657   -0.0735 O   0  0  0  0  0  0  0  0  0  0  0  0
   -1.8963   -4.3923   -0.0246 N   0  0  0  0  0  0  0  0  0  0  0  0
    1.1810   -2.0803    1.5718 H   0  0  0  0  0  0  0  0  0  0  0  0
    1.7559   -2.7465   -0.5008 H   0  0  0  0  0  0  0  0  0  0  0  0
   -1.2592   -2.2402   -0.8628 H   0  0  0  0  0  0  0  0  0  0  0  0
   -0.2816   -3.0185   -2.1103 H   0  0  0  0  0  0  0  0  0  0  0  0
   -2.6069   -3.7066   -0.2571 H   0  0  0  0  0  0  0  0  0  0  0  0
   -2.2120   -5.2364    0.4424 H   0  0  0  0  0  0  0  0  0  0  0  0
    1.0453   -1.1928   -2.7631 N   0  0  0  0  0  0  0  0  0  0  0  0
    1.3059   -0.2180   -3.7950 C   0  0  2  0  0  0  0  0  0  0  0  0
    2.7385    0.2715   -3.6286 C   0  0  0  0  0  0  0  0  0  0  0  0
    3.3538    0.1967   -2.5670 O   0  0  0  0  0  0  0  0  0  0  0  0
    0.3237    0.9408   -3.7224 C   0  0  0  0  0  0  0  0  0  0  0  0
    0.7630   -2.1269   -3.0450 H   0  0  0  0  0  0  0  0  0  0  0  0
    1.2062   -0.7382   -4.7539 H   0  0  0  0  0  0  0  0  0  0  0  0
    0.4089    1.4740   -2.7685 H   0  0  0  0  0  0  0  0  0  0  0  0
    0.5047    1.6651   -4.5233 H   0  0  0  0  0  0  0  0  0  0  0  0
   -0.7078    0.5835   -3.8124 H   0  0  0  0  0  0  0  0  0  0  0  0
    3.2340    0.8410   -4.7932 N   0  0  0  0  0  0  0  0  0  0  0  0
    4.5663    1.3910   -4.8864 C   0  0  0  0  0  0  0  0  0  0  0  0
    2.6606    0.8432   -5.6316 H   0  0  0  0  0  0  0  0  0  0  0  0
    4.5366    2.4661   -4.6558 H   0  0  0  0  0  0  0  0  0  0  0  0
    5.2248    0.8801   -4.1686 H   0  0  0  0  0  0  0  0  0  0  0  0
    4.9524    1.2454   -5.9061 H   0  0  0  0  0  0  0  0  0  0  0  0
  1  3  1  0  0  0  0
  1  7  1  0  0  0  0
  1  2  2  0  0  0  0
 21 22  1  0  0  0  0
 22 24  1  0  0  0  0
 22 23  2  0  0  0  0
 32 33  1  0  0  0  0
 33 41  1  0  0  0  0
 33 34  2  0  0  0  0
  8  9  1  0  0  0  0
  9 17  1  0  0  0  0
  9 10  2  0  0  0  0
 18 19  1  0  0  0  0
 19 31  1  0  0  0  0
 19 20  2  0  0  0  0
 32 35  1  0  0  0  0
  8 11  1  0  0  0  0
 41 42  1  0  0  0  0
 18 21  1  0  0  0  0
 31 32  1  0  0  0  0
  7  8  1  0  0  0  0
 17 18  1  0  0  0  0
  3  4  1  0  0  0  0
  3  5  1  0  0  0  0
  3  6  1  0  0  0  0
 35 38  1  0  0  0  0
 35 39  1  0  0  0  0
 35 40  1  0  0  0  0
 11 14  1  0  0  0  0
 11 15  1  0  0  0  0
 11 16  1  0  0  0  0
 42 44  1  0  0  0  0
 42 45  1  0  0  0  0
 42 46  1  0  0  0  0
 21 27  1  0  0  0  0
 21 28  1  0  0  0  0
 32 37  1  0  0  0  0
  8 13  1  0  0  0  0
 18 26  1  0  0  0  0
 24 29  1  0  0  0  0
 24 30  1  0  0  0  0
 41 43  1  0  0  0  0
  7 12  1  0  0  0  0
 31 36  1  0  0  0  0
 17 25  1  0  0  0  0
M  END
$$$$

  -OEChem-05262214473D

 46 45  0     1  0  0  0  0  0999 V2000
   -0.0543    1.9736    3.8406 C   0  0  0  0  0  0  0  0  0  0  0  0
    0.6744    1.6099    4.7562 O   0  0  0  0  0  0  0  0  0  0  0  0
   -0.5599    3.3779    3.8160 C   0  0  0  0  0  0  0  0  0  0  0  0
   -1.5202    3.4885    4.3450 H   0  0  0  0  0  0  0  0  0  0  0  0
    0.1282    4.0814    4.3116 H   0  0  0  0  0  0  0  0  0  0  0  0
   -0.7317    3.7994    2.8126 H   0  0  0  0  0  0  0  0  0  0  0  0
   -0.4812    1.1968    2.7762 N   0  0  0  0  0  0  0  0  0  0  0  0
   -0.1106   -0.1834    2.6051 C   0  0  2  0  0  0  0  0  0  0  0  0
   -0.0696   -0.4775    1.1113 C   0  0  0  0  0  0  0  0  0  0  0  0
   -0.6805    0.1900    0.2792 O   0  0  0  0  0  0  0  0  0  0  0  0
   -1.0852   -1.1101    3.3150 C   0  0  0  0  0  0  0  0  0  0  0  0
   -1.0883    1.6241    2.0791 H   0  0  0  0  0  0  0  0  0  0  0  0
    0.8937   -0.2959    3.0277 H   0  0  0  0  0  0  0  0  0  0  0  0
   -2.0970   -1.0114    2.9051 H   0  0  0  0  0  0  0  0  0  0  0  0
   -0.7860   -2.1580    3.2078 H   0  0  0  0  0  0  0  0  0  0  0  0
   -1.1357   -0.8775    4.3842 H   0  0  0  0  0  0  0  0  0  0  0  0
    0.6950   -1.6003    0.8178 N   0  0  0  0  0  0  0  0  0  0  0  0
    0.8777   -2.0908   -0.5246 C   0  0  2  0  0  0  0  0  0  0  0  0
    1.1793   -0.8919   -1.4149 C   0  0  0  0  0  0  0  0  0  0  0  0
    1.7884    0.1008   -1.0211 O   0  0  0  0  0  0  0  0  0  0  0  0
   -0.3556   -2.8400   -1.0298 C   0  0  0  0  0  0  0  0  0  0  0  0
   -0.5709   -4.1730   -0.3351 C   0  0  0  0  0  0  0  0  0  0  0  0
    0.3290   -4.9657   -0.0735 O   0  0  0  0  0  0  0  0  0  0  0  0
   -1.8963   -4.3923   -0.0246 N   0  0  0  0  0  0  0  0  0  0  0  0
    1.1810   -2.0803    1.5718 H   0  0  0  0  0  0  0  0  0  0  0  0
    1.7559   -2.7465   -0.5008 H   0  0  0  0  0  0  0  0  0  0  0  0
   -1.2592   -2.2402   -0.8628 H   0  0  0  0  0  0  0  0  0  0  0  0
   -0.2816   -3.0185   -2.1103 H   0  0  0  0  0  0  0  0  0  0  0  0
   -2.6069   -3.7066   -0.2571 H   0  0  0  0  0  0  0  0  0  0  0  0
   -2.2120   -5.2364    0.4424 H   0  0  0  0  0  0  0  0  0  0  0  0
    0.7333   -1.0791   -2.7157 N   0  0  0  0  0  0  0  0  0  0  0  0
    0.9319   -0.0859   -3.7439 C   0  0  2  0  0  0  0  0  0  0  0  0
    2.4274    0.1770   -3.8612 C   0  0  0  0  0  0  0  0  0  0  0  0
    3.2230   -0.0577   -2.9539 O   0  0  0  0  0  0  0  0  0  0  0  0
    0.1778    1.1963   -3.4278 C   0  0  0  0  0  0  0  0  0  0  0  0
    0.2576   -1.9410   -2.9659 H   0  0  0  0  0  0  0  0  0  0  0  0
    0.5625   -0.5206   -4.6791 H   0  0  0  0  0  0  0  0  0  0  0  0
    0.5342    1.6464   -2.4940 H   0  0  0  0  0  0  0  0  0  0  0  0
    0.3063    1.9384   -4.2226 H   0  0  0  0  0  0  0  0  0  0  0  0
   -0.8939    1.0002   -3.3143 H   0  0  0  0  0  0  0  0  0  0  0  0
    2.7633    0.7447   -5.0823 N   0  0  0  0  0  0  0  0  0  0  0  0
    4.1194    1.0993   -5.4305 C   0  0  0  0  0  0  0  0  0  0  0  0
    2.0415    0.8866   -5.7828 H   0  0  0  0  0  0  0  0  0  0  0  0
    4.3051    2.1494   -5.1606 H   0  0  0  0  0  0  0  0  0  0  0  0
    4.8198    0.4509   -4.8837 H   0  0  0  0  0  0  0  0  0  0  0  0
    4.2664    0.9675   -6.5127 H   0  0  0  0  0  0  0  0  0  0  0  0
  1  3  1  0  0  0  0
  1  7  1  0  0  0  0
  1  2  2  0  0  0  0
 21 22  1  0  0  0  0
 22 24  1  0  0  0  0
 22 23  2  0  0  0  0
 32 33  1  0  0  0  0
 33 41  1  0  0  0  0
 33 34  2  0  0  0  0
  8  9  1  0  0  0  0
  9 17  1  0  0  0  0
  9 10  2  0  0  0  0
 18 19  1  0  0  0  0
 19 31  1  0  0  0  0
 19 20  2  0  0  0  0
 32 35  1  0  0  0  0
  8 11  1  0  0  0  0
 41 42  1  0  0  0  0
 18 21  1  0  0  0  0
 31 32  1  0  0  0  0
  7  8  1  0  0  0  0
 17 18  1  0  0  0  0
  3  4  1  0  0  0  0
  3  5  1  0  0  0  0
  3  6  1  0  0  0  0
 35 38  1  0  0  0  0
 35 39  1  0  0  0  0
 35 40  1  0  0  0  0
 11 14  1  0  0  0  0
 11 15  1  0  0  0  0
 11 16  1  0  0  0  0
 42 44  1  0  0  0  0
 42 45  1  0  0  0  0
 42 46  1  0  0  0  0
 21 27  1  0  0  0  0
 21 28  1  0  0  0  0
 32 37  1  0  0  0  0
  8 13  1  0  0  0  0
 18 26  1  0  0  0  0
 24 29  1  0  0  0  0
 24 30  1  0  0  0  0
 41 43  1  0  0  0  0
  7 12  1  0  0  0  0
 31 36  1  0  0  0  0
 17 25  1  0  0  0  0
M  END
$$$$

  -OEChem-05262214473D

 46 45  0     1  0  0  0  0  0999 V2000
   -0.0543    1.9736    3.8406 C   0  0  0  0  0  0  0  0  0  0  0  0
    0.6744    1.6099    4.7562 O   0  0  0  0  0  0  0  0  0  0  0  0
   -0.5599    3.3779    3.8160 C   0  0  0  0  0  0  0  0  0  0  0  0
   -1.5202    3.4885    4.3450 H   0  0  0  0  0  0  0  0  0  0  0  0
    0.1282    4.0814    4.3116 H   0  0  0  0  0  0  0  0  0  0  0  0
   -0.7317    3.7994    2.8126 H   0  0  0  0  0  0  0  0  0  0  0  0
   -0.4812    1.1968    2.7762 N   0  0  0  0  0  0  0  0  0  0  0  0
   -0.1106   -0.1834    2.6051 C   0  0  2  0  0  0  0  0  0  0  0  0
   -0.0696   -0.4775    1.1113 C   0  0  0  0  0  0  0  0  0  0  0  0
   -0.6805    0.1900    0.2792 O   0  0  0  0  0  0  0  0  0  0  0  0
   -1.0852   -1.1101    3.3150 C   0  0  0  0  0  0  0  0  0  0  0  0
   -1.0883    1.6241    2.0791 H   0  0  0  0  0  0  0  0  0  0  0  0
    0.8937   -0.2959    3.0277 H   0  0  0  0  0  0  0  0  0  0  0  0
   -2.0970   -1.0114    2.9051 H   0  0  0  0  0  0  0  0  0  0  0  0
   -0.7860   -2.1580    3.2078 H   0  0  0  0  0  0  0  0  0  0  0  0
   -1.1357   -0.8775    4.3842 H   0  0  0  0  0  0  0  0  0  0  0  0
    0.6950   -1.6003    0.8178 N   0  0  0  0  0  0  0  0  0  0  0  0
    0.8777   -2.0908   -0.5246 C   0  0  2  0  0  0  0  0  0  0  0  0
    1.1793   -0.8919   -1.4149 C   0  0  0  0  0  0  0  0  0  0  0  0
    2.0025   -0.0273   -1.1211 O   0  0  0  0  0  0  0  0  0  0  0  0
   -0.3556   -2.8400   -1.0298 C   0  0  0  0  0  0  0  0  0  0  0  0
   -0.5709   -4.1730   -0.3351 C   0  0  0  0  0  0  0  0  0  0  0  0
    0.3290   -4.9657   -0.0735 O   0  0  0  0  0  0  0  0  0  0  0  0
   -1.8963   -4.3923   -0.0246 N   0  0  0  0  0  0  0  0  0  0  0  0
    1.1810   -2.0803    1.5718 H   0  0  0  0  0  0  0  0  0  0  0  0
    1.7559   -2.7465   -0.5008 H   0  0  0  0  0  0  0  0  0  0  0  0
   -1.2592   -2.2402   -0.8628 H   0  0  0  0  0  0  0  0  0  0  0  0
   -0.2816   -3.0185   -2.1103 H   0  0  0  0  0  0  0  0  0  0  0  0
   -2.6069   -3.7066   -0.2571 H   0  0  0  0  0  0  0  0  0  0  0  0
   -2.2120   -5.2364    0.4424 H   0  0  0  0  0  0  0  0  0  0  0  0
    0.4588   -0.9246   -2.6006 N   0  0  0  0  0  0  0  0  0  0  0  0
    0.6010    0.0956   -3.6116 C   0  0  2  0  0  0  0  0  0  0  0  0
    2.0653    0.1447   -4.0274 C   0  0  0  0  0  0  0  0  0  0  0  0
    2.9793   -0.2638   -3.3140 O   0  0  0  0  0  0  0  0  0  0  0  0
    0.1354    1.4500   -3.1004 C   0  0  0  0  0  0  0  0  0  0  0  0
   -0.1862   -1.6891   -2.7771 H   0  0  0  0  0  0  0  0  0  0  0  0
   -0.0112   -0.2170   -4.4646 H   0  0  0  0  0  0  0  0  0  0  0  0
    0.7371    1.7798   -2.2456 H   0  0  0  0  0  0  0  0  0  0  0  0
    0.2172    2.2170   -3.8776 H   0  0  0  0  0  0  0  0  0  0  0  0
   -0.9092    1.4053   -2.7740 H   0  0  0  0  0  0  0  0  0  0  0  0
    2.2352    0.7377   -5.2707 N   0  0  0  0  0  0  0  0  0  0  0  0
    3.5328    0.9131   -5.8800 C   0  0  0  0  0  0  0  0  0  0  0  0
    1.4194    1.0300   -5.8005 H   0  0  0  0  0  0  0  0  0  0  0  0
    3.9308    1.9044   -5.6174 H   0  0  0  0  0  0  0  0  0  0  0  0
    4.2180    0.1343   -5.5139 H   0  0  0  0  0  0  0  0  0  0  0  0
    3.4382    0.8340   -6.9731 H   0  0  0  0  0  0  0  0  0  0  0  0
  1  3  1  0  0  0  0
  1  7  1  0  0  0  0
  1  2  2  0  0  0  0
 21 22  1  0  0  0  0
 22 24  1  0  0  0  0
 22 23  2  0  0  0  0
 32 33  1  0  0  0  0
 33 41  1  0  0  0  0
 33 34  2  0  0  0  0
  8  9  1  0  0  0  0
  9 17  1  0  0  0  0
  9 10  2  0  0  0  0
 18 19  1  0  0  0  0
 19 31  1  0  0  0  0
 19 20  2  0  0  0  0
 32 35  1  0  0  0  0
  8 11  1  0  0  0  0
 41 42  1  0  0  0  0
 18 21  1  0  0  0  0
 31 32  1  0  0  0  0
  7  8  1  0  0  0  0
 17 18  1  0  0  0  0
  3  4  1  0  0  0  0
  3  5  1  0  0  0  0
  3  6  1  0  0  0  0
 35 38  1  0  0  0  0
 35 39  1  0  0  0  0
 35 40  1  0  0  0  0
 11 14  1  0  0  0  0
 11 15  1  0  0  0  0
 11 16  1  0  0  0  0
 42 44  1  0  0  0  0
 42 45  1  0  0  0  0
 42 46  1  0  0  0  0
 21 27  1  0  0  0  0
 21 28  1  0  0  0  0
 32 37  1  0  0  0  0
  8 13  1  0  0  0  0
 18 26  1  0  0  0  0
 24 29  1  0  0  0  0
 24 30  1  0  0  0  0
 41 43  1  0  0  0  0
  7 12  1  0  0  0  0
 31 36  1  0  0  0  0
 17 25  1  0  0  0  0
M  END
$$$$

  -OEChem-05262214473D

 46 45  0     1  0  0  0  0  0999 V2000
   -0.0543    1.9736    3.8406 C   0  0  0  0  0  0  0  0  0  0  0  0
    0.6744    1.6099    4.7562 O   0  0  0  0  0  0  0  0  0  0  0  0
   -0.5599    3.3779    3.8160 C   0  0  0  0  0  0  0  0  0  0  0  0
   -1.5202    3.4885    4.3450 H   0  0  0  0  0  0  0  0  0  0  0  0
    0.1282    4.0814    4.3116 H   0  0  0  0  0  0  0  0  0  0  0  0
   -0.7317    3.7994    2.8126 H   0  0  0  0  0  0  0  0  0  0  0  0
   -0.4812    1.1968    2.7762 N   0  0  0  0  0  0  0  0  0  0  0  0
   -0.1106   -0.1834    2.6051 C   0  0  2  0  0  0  0  0  0  0  0  0
   -0.0696   -0.4775    1.1113 C   0  0  0  0  0  0  0  0  0  0  0  0
   -0.6805    0.1900    0.2792 O   0  0  0  0  0  0  0  0  0  0  0  0
   -1.0852   -1.1101    3.3150 C   0  0  0  0  0  0  0  0  0  0  0  0
   -1.0883    1.6241    2.0791 H   0  0  0  0  0  0  0  0  0  0  0  0
    0.8937   -0.2959    3.0277 H   0  0  0  0  0  0  0  0  0  0  0  0
   -2.0970   -1.0114    2.9051 H   0  0  0  0  0  0  0  0  0  0  0  0
   -0.7860   -2.1580    3.2078 H   0  0  0  0  0  0  0  0  0  0  0  0
   -1.1357   -0.8775    4.3842 H   0  0  0  0  0  0  0  0  0  0  0  0
    0.6950   -1.6003    0.8178 N   0  0  0  0  0  0  0  0  0  0  0  0
    0.8777   -2.0908   -0.5246 C   0  0  2  0  0  0  0  0  0  0  0  0
    1.1793   -0.8919   -1.4149 C   0  0  0  0  0  0  0  0  0  0  0  0
    2.1696   -0.1783   -1.2678 O   0  0  0  0  0  0  0  0  0  0  0  0
   -0.3556   -2.8400   -1.0298 C   0  0  0  0  0  0  0  0  0  0  0  0
   -0.5709   -4.1730   -0.3351 C   0  0  0  0  0  0  0  0  0  0  0  0
    0.3290   -4.9657   -0.0735 O   0  0  0  0  0  0  0  0  0  0  0  0
   -1.8963   -4.3923   -0.0246 N   0  0  0  0  0  0  0  0  0  0  0  0
    1.1810   -2.0803    1.5718 H   0  0  0  0  0  0  0  0  0  0  0  0
    1.7559   -2.7465   -0.5008 H   0  0  0  0  0  0  0  0  0  0  0  0
   -1.2592   -2.2402   -0.8628 H   0  0  0  0  0  0  0  0  0  0  0  0
   -0.2816   -3.0185   -2.1103 H   0  0  0  0  0  0  0  0  0  0  0  0
   -2.6069   -3.7066   -0.2571 H   0  0  0  0  0  0  0  0  0  0  0  0
   -2.2120   -5.2364    0.4424 H   0  0  0  0  0  0  0  0  0  0  0  0
    0.2404   -0.7396   -2.4255 N   0  0  0  0  0  0  0  0  0  0  0  0
    0.3358    0.3141   -3.4071 C   0  0  2  0  0  0  0  0  0  0  0  0
    1.6768    0.1767   -4.1159 C   0  0  0  0  0  0  0  0  0  0  0  0
    2.6394   -0.4075   -3.6228 O   0  0  0  0  0  0  0  0  0  0  0  0
    0.1996    1.6848   -2.7625 C   0  0  0  0  0  0  0  0  0  0  0  0
   -0.5384   -1.3884   -2.4914 H   0  0  0  0  0  0  0  0  0  0  0  0
   -0.4757    0.1520   -4.1250 H   0  0  0  0  0  0  0  0  0  0  0  0
    1.0040    1.8652   -2.0401 H   0  0  0  0  0  0  0  0  0  0  0  0
    0.2436    2.4818   -3.5120 H   0  0  0  0  0  0  0  0  0  0  0  0
   -0.7526    1.7713   -2.2282 H   0  0  0  0  0  0  0  0  0  0  0  0
    1.6856    0.8204   -5.3454 N   0  0  0  0  0  0  0  0  0  0  0  0
    2.8466    0.8450   -6.2043 C   0  0  0  0  0  0  0  0  0  0  0  0
    0.8364    1.2635   -5.6836 H   0  0  0  0  0  0  0  0  0  0  0  0
    3.4391    1.7478   -5.9949 H   0  0  0  0  0  0  0  0  0  0  0  0
    3.4605   -0.0482   -6.0163 H   0  0  0  0  0  0  0  0  0  0  0  0
    2.5243    0.8538   -7.2560 H   0  0  0  0  0  0  0  0  0  0  0  0
  1  3  1  0  0  0  0
  1  7  1  0  0  0  0
  1  2  2  0  0  0  0
 21 22  1  0  0  0  0
 22 24  1  0  0  0  0
 22 23  2  0  0  0  0
 32 33  1  0  0  0  0
 33 41  1  0  0  0  0
 33 34  2  0  0  0  0
  8  9  1  0  0  0  0
  9 17  1  0  0  0  0
  9 10  2  0  0  0  0
 18 19  1  0  0  0  0
 19 31  1  0  0  0  0
 19 20  2  0  0  0  0
 32 35  1  0  0  0  0
  8 11  1  0  0  0  0
 41 42  1  0  0  0  0
 18 21  1  0  0  0  0
 31 32  1  0  0  0  0
  7  8  1  0  0  0  0
 17 18  1  0  0  0  0
  3  4  1  0  0  0  0
  3  5  1  0  0  0  0
  3  6  1  0  0  0  0
 35 38  1  0  0  0  0
 35 39  1  0  0  0  0
 35 40  1  0  0  0  0
 11 14  1  0  0  0  0
 11 15  1  0  0  0  0
 11 16  1  0  0  0  0
 42 44  1  0  0  0  0
 42 45  1  0  0  0  0
 42 46  1  0  0  0  0
 21 27  1  0  0  0  0
 21 28  1  0  0  0  0
 32 37  1  0  0  0  0
  8 13  1  0  0  0  0
 18 26  1  0  0  0  0
 24 29  1  0  0  0  0
 24 30  1  0  0  0  0
 41 43  1  0  0  0  0
  7 12  1  0  0  0  0
 31 36  1  0  0  0  0
 17 25  1  0  0  0  0
M  END
$$$$

  -OEChem-05262214473D

 46 45  0     1  0  0  0  0  0999 V2000
   -0.0543    1.9736    3.8406 C   0  0  0  0  0  0  0  0  0  0  0  0
    0.6744    1.6099    4.7562 O   0  0  0  0  0  0  0  0  0  0  0  0
   -0.5599    3.3779    3.8160 C   0  0  0  0  0  0  0  0  0  0  0  0
   -1.5202    3.4885    4.3450 H   0  0  0  0  0  0  0  0  0  0  0  0
    0.1282    4.0814    4.3116 H   0  0  0  0  0  0  0  0  0  0  0  0
   -0.7317    3.7994    2.8126 H   0  0  0  0  0  0  0  0  0  0  0  0
   -0.4812    1.1968    2.7762 N   0  0  0  0  0  0  0  0  0  0  0  0
   -0.1106   -0.1834    2.6051 C   0  0  2  0  0  0  0  0  0  0  0  0
   -0.0696   -0.4775    1.1113 C   0  0  0  0  0  0  0  0  0  0  0  0
   -0.6805    0.1900    0.2792 O   0  0  0  0  0  0  0  0  0  0  0  0
   -1.0852   -1.1101    3.3150 C   0  0  0  0  0  0  0  0  0  0  0  0
   -1.0883    1.6241    2.0791 H   0  0  0  0  0  0  0  0  0  0  0  0
    0.8937   -0.2959    3.0277 H   0  0  0  0  0  0  0  0  0  0  0  0
   -2.0970   -1.0114    2.9051 H   0  0  0  0  0  0  0  0  0  0  0  0
   -0.7860   -2.1580    3.2078 H   0  0  0  0  0  0  0  0  0  0  0  0
   -1.1357   -0.8775    4.3842 H   0  0  0  0  0  0  0  0  0  0  0  0
    0.6950   -1.6003    0.8178 N   0  0  0  0  0  0  0  0  0  0  0  0
    0.8777   -2.0908   -0.5246 C   0  0  2  0  0  0  0  0  0  0  0  0
    1.1793   -0.8919   -1.4149 C   0  0  0  0  0  0  0  0  0  0  0  0
    2.2783   -0.3419   -1.4514 O   0  0  0  0  0  0  0  0  0  0  0  0
   -0.3556   -2.8400   -1.0298 C   0  0  0  0  0  0  0  0  0  0  0  0
   -0.5709   -4.1730   -0.3351 C   0  0  0  0  0  0  0  0  0  0  0  0
    0.3290   -4.9657   -0.0735 O   0  0  0  0  0  0  0  0  0  0  0  0
   -1.8963   -4.3923   -0.0246 N   0  0  0  0  0  0  0  0  0  0  0  0
    1.1810   -2.0803    1.5718 H   0  0  0  0  0  0  0  0  0  0  0  0
    1.7559   -2.7465   -0.5008 H   0  0  0  0  0  0  0  0  0  0  0  0
   -1.2592   -2.2402   -0.8628 H   0  0  0  0  0  0  0  0  0  0  0  0
   -0.2816   -3.0185   -2.1103 H   0  0  0  0  0  0  0  0  0  0  0  0
   -2.6069   -3.7066   -0.2571 H   0  0  0  0  0  0  0  0  0  0  0  0
   -2.2120   -5.2364    0.4424 H   0  0  0  0  0  0  0  0  0  0  0  0
    0.0932   -0.5370   -2.2025 N   0  0  0  0  0  0  0  0  0  0  0  0
    0.1543    0.5549   -3.1444 C   0  0  2  0  0  0  0  0  0  0  0  0
    1.2883    0.2710   -4.1206 C   0  0  0  0  0  0  0  0  0  0  0  0
    2.2264   -0.4792   -3.8592 O   0  0  0  0  0  0  0  0  0  0  0  0
    0.3659    1.8845   -2.4372 C   0  0  0  0  0  0  0  0  0  0  0  0
   -0.7749   -1.0592   -2.1282 H   0  0  0  0  0  0  0  0  0  0  0  0
   -0.7993    0.5614   -3.6835 H   0  0  0  0  0  0  0  0  0  0  0  0
    1.3165    1.8969   -1.8916 H   0  0  0  0  0  0  0  0  0  0  0  0
    0.3835    2.7150   -3.1507 H   0  0  0  0  0  0  0  0  0  0  0  0
   -0.4349    2.0731   -1.7141 H   0  0  0  0  0  0  0  0  0  0  0  0
    1.1521    0.9873   -5.3014 N   0  0  0  0  0  0  0  0  0  0  0  0
    2.1073    0.8996   -6.3812 C   0  0  0  0  0  0  0  0  0  0  0  0
    0.3325    1.5712   -5.4400 H   0  0  0  0  0  0  0  0  0  0  0  0
    2.8636    1.6902   -6.2674 H   0  0  0  0  0  0  0  0  0  0  0  0
    2.5988   -0.0842   -6.3567 H   0  0  0  0  0  0  0  0  0  0  0  0
    1.5870    1.0257   -7.3421 H   0  0  0  0  0  0  0  0  0  0  0  0
  1  3  1  0  0  0  0
  1  7  1  0  0  0  0
  1  2  2  0  0  0  0
 21 22  1  0  0  0  0
 22 24  1  0  0  0  0
 22 23  2  0  0  0  0
 32 33  1  0  0  0  0
 33 41  1  0  0  0  0
 33 34  2  0  0  0  0
  8  9  1  0  0  0  0
  9 17  1  0  0  0  0
  9 10  2  0  0  0  0
 18 19  1  0  0  0  0
 19 31  1  0  0  0  0
 19 20  2  0  0  0  0
 32 35  1  0  0  0  0
  8 11  1  0  0  0  0
 41 42  1  0  0  0  0
 18 21  1  0  0  0  0
 31 32  1  0  0  0  0
  7  8  1  0  0  0  0
 17 18  1  0  0  0  0
  3  4  1  0  0  0  0
  3  5  1  0  0  0  0
  3  6  1  0  0  0  0
 35 38  1  0  0  0  0
 35 39  1  0  0  0  0
 35 40  1  0  0  0  0
 11 14  1  0  0  0  0
 11 15  1  0  0  0  0
 11 16  1  0  0  0  0
 42 44  1  0  0  0  0
 42 45  1  0  0  0  0
 42 46  1  0  0  0  0
 21 27  1  0  0  0  0
 21 28  1  0  0  0  0
 32 37  1  0  0  0  0
  8 13  1  0  0  0  0
 18 26  1  0  0  0  0
 24 29  1  0  0  0  0
 24 30  1  0  0  0  0
 41 43  1  0  0  0  0
  7 12  1  0  0  0  0
 31 36  1  0  0  0  0
 17 25  1  0  0  0  0
M  END
$$$$

  -OEChem-05262214473D

 46 45  0     1  0  0  0  0  0999 V2000
   -0.0543    1.9736    3.8406 C   0  0  0  0  0  0  0  0  0  0  0  0
    0.6744    1.6099    4.7562 O   0  0  0  0  0  0  0  0  0  0  0  0
   -0.5599    3.3779    3.8160 C   0  0  0  0  0  0  0  0  0  0  0  0
   -1.5202    3.4885    4.3450 H   0  0  0  0  0  0  0  0  0  0  0  0
    0.1282    4.0814    4.3116 H   0  0  0  0  0  0  0  0  0  0  0  0
   -0.7317    3.7994    2.8126 H   0  0  0  0  0  0  0  0  0  0  0  0
   -0.4812    1.1968    2.7762 N   0  0  0  0  0  0  0  0  0  0  0  0
   -0.1106   -0.1834    2.6051 C   0  0  2  0  0  0  0  0  0  0  0  0
   -0.0696   -0.4775    1.1113 C   0  0  0  0  0  0  0  0  0  0  0  0
   -0.6805    0.1900    0.2792 O   0  0  0  0  0  0  0  0  0  0  0  0
   -1.0852   -1.1101    3.3150 C   0  0  0  0  0  0  0  0  0  0  0  0
   -1.0883    1.6241    2.0791 H   0  0  0  0  0  0  0  0  0  0  0  0
    0.8937   -0.2959    3.0277 H   0  0  0  0  0  0  0  0  0  0  0  0
   -2.0970   -1.0114    2.9051 H   0  0  0  0  0  0  0  0  0  0  0  0
   -0.7860   -2.1580    3.2078 H   0  0  0  0  0  0  0  0  0  0  0  0
   -1.1357   -0.8775    4.3842 H   0  0  0  0  0  0  0  0  0  0  0  0
    0.6950   -1.6003    0.8178 N   0  0  0  0  0  0  0  0  0  0  0  0
    0.8777   -2.0908   -0.5246 C   0  0  2  0  0  0  0  0  0  0  0  0
    1.1793   -0.8919   -1.4149 C   0  0  0  0  0  0  0  0  0  0  0  0
    2.3211   -0.5070   -1.6592 O   0  0  0  0  0  0  0  0  0  0  0  0
   -0.3556   -2.8400   -1.0298 C   0  0  0  0  0  0  0  0  0  0  0  0
   -0.5709   -4.1730   -0.3351 C   0  0  0  0  0  0  0  0  0  0  0  0
    0.3290   -4.9657   -0.0735 O   0  0  0  0  0  0  0  0  0  0  0  0
   -1.8963   -4.3923   -0.0246 N   0  0  0  0  0  0  0  0  0  0  0  0
    1.1810   -2.0803    1.5718 H   0  0  0  0  0  0  0  0  0  0  0  0
    1.7559   -2.7465   -0.5008 H   0  0  0  0  0  0  0  0  0  0  0  0
   -1.2592   -2.2402   -0.8628 H   0  0  0  0  0  0  0  0  0  0  0  0
   -0.2816   -3.0185   -2.1103 H   0  0  0  0  0  0  0  0  0  0  0  0
   -2.6069   -3.7066   -0.2571 H   0  0  0  0  0  0  0  0  0  0  0  0
   -2.2120   -5.2364    0.4424 H   0  0  0  0  0  0  0  0  0  0  0  0
    0.0270   -0.3304   -1.9467 N   0  0  0  0  0  0  0  0  0  0  0  0
    0.0689    0.8015   -2.8413 C   0  0  2  0  0  0  0  0  0  0  0  0
    0.9264    0.4210   -4.0411 C   0  0  0  0  0  0  0  0  0  0  0  0
    1.7685   -0.4738   -4.0070 O   0  0  0  0  0  0  0  0  0  0  0  0
    0.6230    2.0356   -2.1467 C   0  0  0  0  0  0  0  0  0  0  0  0
   -0.8796   -0.7241   -1.7125 H   0  0  0  0  0  0  0  0  0  0  0  0
   -0.9601    0.9831   -3.1700 H   0  0  0  0  0  0  0  0  0  0  0  0
    1.6534    1.8726   -1.8102 H   0  0  0  0  0  0  0  0  0  0  0  0
    0.6276    2.9005   -2.8182 H   0  0  0  0  0  0  0  0  0  0  0  0
    0.0224    2.2902   -1.2667 H   0  0  0  0  0  0  0  0  0  0  0  0
    0.6709    1.2270   -5.1417 N   0  0  0  0  0  0  0  0  0  0  0  0
    1.3655    1.0732   -6.3987 C   0  0  0  0  0  0  0  0  0  0  0  0
   -0.0581    1.9322   -5.0862 H   0  0  0  0  0  0  0  0  0  0  0  0
    2.2435    1.7356   -6.4164 H   0  0  0  0  0  0  0  0  0  0  0  0
    1.6918    0.0289   -6.5118 H   0  0  0  0  0  0  0  0  0  0  0  0
    0.6900    1.3379   -7.2255 H   0  0  0  0  0  0  0  0  0  0  0  0
  1  3  1  0  0  0  0
  1  7  1  0  0  0  0
  1  2  2  0  0  0  0
 21 22  1  0  0  0  0
 22 24  1  0  0  0  0
 22 23  2  0  0  0  0
 32 33  1  0  0  0  0
 33 41  1  0  0  0  0
 33 34  2  0  0  0  0
  8  9  1  0  0  0  0
  9 17  1  0  0  0  0
  9 10  2  0  0  0  0
 18 19  1  0  0  0  0
 19 31  1  0  0  0  0
 19 20  2  0  0  0  0
 32 35  1  0  0  0  0
  8 11  1  0  0  0  0
 41 42  1  0  0  0  0
 18 21  1  0  0  0  0
 31 32  1  0  0  0  0
  7  8  1  0  0  0  0
 17 18  1  0  0  0  0
  3  4  1  0  0  0  0
  3  5  1  0  0  0  0
  3  6  1  0  0  0  0
 35 38  1  0  0  0  0
 35 39  1  0  0  0  0
 35 40  1  0  0  0  0
 11 14  1  0  0  0  0
 11 15  1  0  0  0  0
 11 16  1  0  0  0  0
 42 44  1  0  0  0  0
 42 45  1  0  0  0  0
 42 46  1  0  0  0  0
 21 27  1  0  0  0  0
 21 28  1  0  0  0  0
 32 37  1  0  0  0  0
  8 13  1  0  0  0  0
 18 26  1  0  0  0  0
 24 29  1  0  0  0  0
 24 30  1  0  0  0  0
 41 43  1  0  0  0  0
  7 12  1  0  0  0  0
 31 36  1  0  0  0  0
 17 25  1  0  0  0  0
M  END
$$$$

  -OEChem-05262214473D

 46 45  0     1  0  0  0  0  0999 V2000
   -0.0543    1.9736    3.8406 C   0  0  0  0  0  0  0  0  0  0  0  0
    0.6744    1.6099    4.7562 O   0  0  0  0  0  0  0  0  0  0  0  0
   -0.5599    3.3779    3.8160 C   0  0  0  0  0  0  0  0  0  0  0  0
   -1.5202    3.4885    4.3450 H   0  0  0  0  0  0  0  0  0  0  0  0
    0.1282    4.0814    4.3116 H   0  0  0  0  0  0  0  0  0  0  0  0
   -0.7317    3.7994    2.8126 H   0  0  0  0  0  0  0  0  0  0  0  0
   -0.4812    1.1968    2.7762 N   0  0  0  0  0  0  0  0  0  0  0  0
   -0.1106   -0.1834    2.6051 C   0  0  2  0  0  0  0  0  0  0  0  0
   -0.0696   -0.4775    1.1113 C   0  0  0  0  0  0  0  0  0  0  0  0
   -0.6805    0.1900    0.2792 O   0  0  0  0  0  0  0  0  0  0  0  0
   -1.0852   -1.1101    3.3150 C   0  0  0  0  0  0  0  0  0  0  0  0
   -1.0883    1.6241    2.0791 H   0  0  0  0  0  0  0  0  0  0  0  0
    0.8937   -0.2959    3.0277 H   0  0  0  0  0  0  0  0  0  0  0  0
   -2.0970   -1.0114    2.9051 H   0  0  0  0  0  0  0  0  0  0  0  0
   -0.7860   -2.1580    3.2078 H   0  0  0  0  0  0  0  0  0  0  0  0
   -1.1357   -0.8775    4.3842 H   0  0  0  0  0  0  0  0  0  0  0  0
    0.6950   -1.6003    0.8178 N   0  0  0  0  0  0  0  0  0  0  0  0
    0.8777   -2.0908   -0.5246 C   0  0  2  0  0  0  0  0  0  0  0  0
    1.1793   -0.8919   -1.4149 C   0  0  0  0  0  0  0  0  0  0  0  0
    2.2952   -0.6623   -1.8770 O   0  0  0  0  0  0  0  0  0  0  0  0
   -0.3556   -2.8400   -1.0298 C   0  0  0  0  0  0  0  0  0  0  0  0
   -0.5709   -4.1730   -0.3351 C   0  0  0  0  0  0  0  0  0  0  0  0
    0.3290   -4.9657   -0.0735 O   0  0  0  0  0  0  0  0  0  0  0  0
   -1.8963   -4.3923   -0.0246 N   0  0  0  0  0  0  0  0  0  0  0  0
    1.1810   -2.0803    1.5718 H   0  0  0  0  0  0  0  0  0  0  0  0
    1.7559   -2.7465   -0.5008 H   0  0  0  0  0  0  0  0  0  0  0  0
   -1.2592   -2.2402   -0.8628 H   0  0  0  0  0  0  0  0  0  0  0  0
   -0.2816   -3.0185   -2.1103 H   0  0  0  0  0  0  0  0  0  0  0  0
   -2.6069   -3.7066   -0.2571 H   0  0  0  0  0  0  0  0  0  0  0  0
   -2.2120   -5.2364    0.4424 H   0  0  0  0  0  0  0  0  0  0  0  0
    0.0464   -0.1339   -1.6756 N   0  0  0  0  0  0  0  0  0  0  0  0
    0.0855    1.0370   -2.5186 C   0  0  2  0  0  0  0  0  0  0  0  0
    0.6157    0.6166   -3.8830 C   0  0  0  0  0  0  0  0  0  0  0  0
    1.2970   -0.3918   -4.0563 O   0  0  0  0  0  0  0  0  0  0  0  0
    0.9534    2.1278   -1.9106 C   0  0  0  0  0  0  0  0  0  0  0  0
   -0.8454   -0.4059   -1.2723 H   0  0  0  0  0  0  0  0  0  0  0  0
   -0.9471    1.3884   -2.6198 H   0  0  0  0  0  0  0  0  0  0  0  0
    1.9918    1.7940   -1.8014 H   0  0  0  0  0  0  0  0  0  0  0  0
    0.9591    3.0257   -2.5373 H   0  0  0  0  0  0  0  0  0  0  0  0
    0.5881    2.4079   -0.9167 H   0  0  0  0  0  0  0  0  0  0  0  0
    0.2749    1.5231   -4.8772 N   0  0  0  0  0  0  0  0  0  0  0  0
    0.6716    1.3541   -6.2556 C   0  0  0  0  0  0  0  0  0  0  0  0
   -0.3087    2.3218   -4.6465 H   0  0  0  0  0  0  0  0  0  0  0  0
    1.6211    1.8808   -6.4317 H   0  0  0  0  0  0  0  0  0  0  0  0
    0.8011    0.2832   -6.4711 H   0  0  0  0  0  0  0  0  0  0  0  0
   -0.1055    1.7692   -6.9142 H   0  0  0  0  0  0  0  0  0  0  0  0
  1  3  1  0  0  0  0
  1  7  1  0  0  0  0
  1  2  2  0  0  0  0
 21 22  1  0  0  0  0
 22 24  1  0  0  0  0
 22 23  2  0  0  0  0
 32 33  1  0  0  0  0
 33 41  1  0  0  0  0
 33 34  2  0  0  0  0
  8  9  1  0  0  0  0
  9 17  1  0  0  0  0
  9 10  2  0  0  0  0
 18 19  1  0  0  0  0
 19 31  1  0  0  0  0
 19 20  2  0  0  0  0
 32 35  1  0  0  0  0
  8 11  1  0  0  0  0
 41 42  1  0  0  0  0
 18 21  1  0  0  0  0
 31 32  1  0  0  0  0
  7  8  1  0  0  0  0
 17 18  1  0  0  0  0
  3  4  1  0  0  0  0
  3  5  1  0  0  0  0
  3  6  1  0  0  0  0
 35 38  1  0  0  0  0
 35 39  1  0  0  0  0
 35 40  1  0  0  0  0
 11 14  1  0  0  0  0
 11 15  1  0  0  0  0
 11 16  1  0  0  0  0
 42 44  1  0  0  0  0
 42 45  1  0  0  0  0
 42 46  1  0  0  0  0
 21 27  1  0  0  0  0
 21 28  1  0  0  0  0
 32 37  1  0  0  0  0
  8 13  1  0  0  0  0
 18 26  1  0  0  0  0
 24 29  1  0  0  0  0
 24 30  1  0  0  0  0
 41 43  1  0  0  0  0
  7 12  1  0  0  0  0
 31 36  1  0  0  0  0
 17 25  1  0  0  0  0
M  END
$$$$

  -OEChem-05262214473D

 46 45  0     1  0  0  0  0  0999 V2000
   -0.0543    1.9736    3.8406 C   0  0  0  0  0  0  0  0  0  0  0  0
    0.6744    1.6099    4.7562 O   0  0  0  0  0  0  0  0  0  0  0  0
   -0.5599    3.3779    3.8160 C   0  0  0  0  0  0  0  0  0  0  0  0
   -1.5202    3.4885    4.3450 H   0  0  0  0  0  0  0  0  0  0  0  0
    0.1282    4.0814    4.3116 H   0  0  0  0  0  0  0  0  0  0  0  0
   -0.7317    3.7994    2.8126 H   0  0  0  0  0  0  0  0  0  0  0  0
   -0.4812    1.1968    2.7762 N   0  0  0  0  0  0  0  0  0  0  0  0
   -0.1106   -0.1834    2.6051 C   0  0  2  0  0  0  0  0  0  0  0  0
   -0.0696   -0.4775    1.1113 C   0  0  0  0  0  0  0  0  0  0  0  0
   -0.6805    0.1900    0.2792 O   0  0  0  0  0  0  0  0  0  0  0  0
   -1.0852   -1.1101    3.3150 C   0  0  0  0  0  0  0  0  0  0  0  0
   -1.0883    1.6241    2.0791 H   0  0  0  0  0  0  0  0  0  0  0  0
    0.8937   -0.2959    3.0277 H   0  0  0  0  0  0  0  0  0  0  0  0
   -2.0970   -1.0114    2.9051 H   0  0  0  0  0  0  0  0  0  0  0  0
   -0.7860   -2.1580    3.2078 H   0  0  0  0  0  0  0  0  0  0  0  0
   -1.1357   -0.8775    4.3842 H   0  0  0  0  0  0  0  0  0  0  0  0
    0.6950   -1.6003    0.8178 N   0  0  0  0  0  0  0  0  0  0  0  0
    0.8777   -2.0908   -0.5246 C   0  0  2  0  0  0  0  0  0  0  0  0
    1.1793   -0.8919   -1.4149 C   0  0  0  0  0  0  0  0  0  0  0  0
    2.2023   -0.7972   -2.0902 O   0  0  0  0  0  0  0  0  0  0  0  0
   -0.3556   -2.8400   -1.0298 C   0  0  0  0  0  0  0  0  0  0  0  0
   -0.5709   -4.1730   -0.3351 C   0  0  0  0  0  0  0  0  0  0  0  0
    0.3290   -4.9657   -0.0735 O   0  0  0  0  0  0  0  0  0  0  0  0
   -1.8963   -4.3923   -0.0246 N   0  0  0  0  0  0  0  0  0  0  0  0
    1.1810   -2.0803    1.5718 H   0  0  0  0  0  0  0  0  0  0  0  0
    1.7559   -2.7465   -0.5008 H   0  0  0  0  0  0  0  0  0  0  0  0
   -1.2592   -2.2402   -0.8628 H   0  0  0  0  0  0  0  0  0  0  0  0
   -0.2816   -3.0185   -2.1103 H   0  0  0  0  0  0  0  0  0  0  0  0
   -2.6069   -3.7066   -0.2571 H   0  0  0  0  0  0  0  0  0  0  0  0
   -2.2120   -5.2364    0.4424 H   0  0  0  0  0  0  0  0  0  0  0  0
    0.1501    0.0391   -1.4075 N   0  0  0  0  0  0  0  0  0  0  0  0
    0.2028    1.2454   -2.1981 C   0  0  2  0  0  0  0  0  0  0  0  0
    0.3774    0.8445   -3.6569 C   0  0  0  0  0  0  0  0  0  0  0  0
    0.8438   -0.2387   -4.0037 O   0  0  0  0  0  0  0  0  0  0  0  0
    1.3346    2.1547   -1.7452 C   0  0  0  0  0  0  0  0  0  0  0  0
   -0.6745   -0.1262   -0.8379 H   0  0  0  0  0  0  0  0  0  0  0  0
   -0.7611    1.7498   -2.0701 H   0  0  0  0  0  0  0  0  0  0  0  0
    2.3085    1.6664   -1.8659 H   0  0  0  0  0  0  0  0  0  0  0  0
    1.3555    3.0821   -2.3270 H   0  0  0  0  0  0  0  0  0  0  0  0
    1.2236    2.4180   -0.6877 H   0  0  0  0  0  0  0  0  0  0  0  0
   -0.0089    1.8554   -4.5258 N   0  0  0  0  0  0  0  0  0  0  0  0
    0.0730    1.7229   -5.9617 C   0  0  0  0  0  0  0  0  0  0  0  0
   -0.4023    2.7135   -4.1507 H   0  0  0  0  0  0  0  0  0  0  0  0
    1.0387    2.1161   -6.3122 H   0  0  0  0  0  0  0  0  0  0  0  0
   -0.0124    0.6615   -6.2373 H   0  0  0  0  0  0  0  0  0  0  0  0
   -0.7452    2.2902   -6.4294 H   0  0  0  0  0  0  0  0  0  0  0  0
  1  3  1  0  0  0  0
  1  7  1  0  0  0  0
  1  2  2  0  0  0  0
 21 22  1  0  0  0  0
 22 24  1  0  0  0  0
 22 23  2  0  0  0  0
 32 33  1  0  0  0  0
 33 41  1  0  0  0  0
 33 34  2  0  0  0  0
  8  9  1  0  0  0  0
  9 17  1  0  0  0  0
  9 10  2  0  0  0  0
 18 19  1  0  0  0  0
 19 31  1  0  0  0  0
 19 20  2  0  0  0  0
 32 35  1  0  0  0  0
  8 11  1  0  0  0  0
 41 42  1  0  0  0  0
 18 21  1  0  0  0  0
 31 32  1  0  0  0  0
  7  8  1  0  0  0  0
 17 18  1  0  0  0  0
  3  4  1  0  0  0  0
  3  5  1  0  0  0  0
  3  6  1  0  0  0  0
 35 38  1  0  0  0  0
 35 39  1  0  0  0  0
 35 40  1  0  0  0  0
 11 14  1  0  0  0  0
 11 15  1  0  0  0  0
 11 16  1  0  0  0  0
 42 44  1  0  0  0  0
 42 45  1  0  0  0  0
 42 46  1  0  0  0  0
 21 27  1  0  0  0  0
 21 28  1  0  0  0  0
 32 37  1  0  0  0  0
  8 13  1  0  0  0  0
 18 26  1  0  0  0  0
 24 29  1  0  0  0  0
 24 30  1  0  0  0  0
 41 43  1  0  0  0  0
  7 12  1  0  0  0  0
 31 36  1  0  0  0  0
 17 25  1  0  0  0  0
M  END
$$$$

  -OEChem-05262214473D

 46 45  0     1  0  0  0  0  0999 V2000
   -0.0543    1.9736    3.8406 C   0  0  0  0  0  0  0  0  0  0  0  0
    0.6744    1.6099    4.7562 O   0  0  0  0  0  0  0  0  0  0  0  0
   -0.5599    3.3779    3.8160 C   0  0  0  0  0  0  0  0  0  0  0  0
   -1.5202    3.4885    4.3450 H   0  0  0  0  0  0  0  0  0  0  0  0
    0.1282    4.0814    4.3116 H   0  0  0  0  0  0  0  0  0  0  0  0
   -0.7317    3.7994    2.8126 H   0  0  0  0  0  0  0  0  0  0  0  0
   -0.4812    1.1968    2.7762 N   0  0  0  0  0  0  0  0  0  0  0  0
   -0.1106   -0.1834    2.6051 C   0  0  2  0  0  0  0  0  0  0  0  0
   -0.0696   -0.4775    1.1113 C   0  0  0  0  0  0  0  0  0  0  0  0
   -0.6805    0.1900    0.2792 O   0  0  0  0  0  0  0  0  0  0  0  0
   -1.0852   -1.1101    3.3150 C   0  0  0  0  0  0  0  0  0  0  0  0
   -1.0883    1.6241    2.0791 H   0  0  0  0  0  0  0  0  0  0  0  0
    0.8937   -0.2959    3.0277 H   0  0  0  0  0  0  0  0  0  0  0  0
   -2.0970   -1.0114    2.9051 H   0  0  0  0  0  0  0  0  0  0  0  0
   -0.7860   -2.1580    3.2078 H   0  0  0  0  0  0  0  0  0  0  0  0
   -1.1357   -0.8775    4.3842 H   0  0  0  0  0  0  0  0  0  0  0  0
    0.6950   -1.6003    0.8178 N   0  0  0  0  0  0  0  0  0  0  0  0
    0.8777   -2.0908   -0.5246 C   0  0  2  0  0  0  0  0  0  0  0  0
    1.1793   -0.8919   -1.4149 C   0  0  0  0  0  0  0  0  0  0  0  0
    2.0488   -0.9026   -2.2841 O   0  0  0  0  0  0  0  0  0  0  0  0
   -0.3556   -2.8400   -1.0298 C   0  0  0  0  0  0  0  0  0  0  0  0
   -0.5709   -4.1730   -0.3351 C   0  0  0  0  0  0  0  0  0  0  0  0
    0.3290   -4.9657   -0.0735 O   0  0  0  0  0  0  0  0  0  0  0  0
   -1.8963   -4.3923   -0.0246 N   0  0  0  0  0  0  0  0  0  0  0  0
    1.1810   -2.0803    1.5718 H   0  0  0  0  0  0  0  0  0  0  0  0
    1.7559   -2.7465   -0.5008 H   0  0  0  0  0  0  0  0  0  0  0  0
   -1.2592   -2.2402   -0.8628 H   0  0  0  0  0  0  0  0  0  0  0  0
   -0.2816   -3.0185   -2.1103 H   0  0  0  0  0  0  0  0  0  0  0  0
   -2.6069   -3.7066   -0.2571 H   0  0  0  0  0  0  0  0  0  0  0  0
   -2.2120   -5.2364    0.4424 H   0  0  0  0  0  0  0  0  0  0  0  0
    0.3310    0.1767   -1.1609 N   0  0  0  0  0  0  0  0  0  0  0  0
    0.4130    1.4126   -1.9017 C   0  0  2  0  0  0  0  0  0  0  0  0
    0.2276    1.0890   -3.3784 C   0  0  0  0  0  0  0  0  0  0  0  0
    0.4400   -0.0250   -3.8527 O   0  0  0  0  0  0  0  0  0  0  0  0
    1.7405    2.1146   -1.6616 C   0  0  0  0  0  0  0  0  0  0  0  0
   -0.3787    0.0958   -0.4387 H   0  0  0  0  0  0  0  0  0  0  0  0
   -0.4149    2.0426   -1.5586 H   0  0  0  0  0  0  0  0  0  0  0  0
    2.5820    1.4986   -1.9992 H   0  0  0  0  0  0  0  0  0  0  0  0
    1.7897    3.0659   -2.2017 H   0  0  0  0  0  0  0  0  0  0  0  0
    1.8856    2.3199   -0.5955 H   0  0  0  0  0  0  0  0  0  0  0  0
   -0.1613    2.2013   -4.1116 N   0  0  0  0  0  0  0  0  0  0  0  0
   -0.3895    2.1547   -5.5370 C   0  0  0  0  0  0  0  0  0  0  0  0
   -0.3325    3.0806   -3.6327 H   0  0  0  0  0  0  0  0  0  0  0  0
    0.5361    2.4253   -6.0661 H   0  0  0  0  0  0  0  0  0  0  0  0
   -0.6934    1.1379   -5.8264 H   0  0  0  0  0  0  0  0  0  0  0  0
   -1.1855    2.8653   -5.8041 H   0  0  0  0  0  0  0  0  0  0  0  0
  1  3  1  0  0  0  0
  1  7  1  0  0  0  0
  1  2  2  0  0  0  0
 21 22  1  0  0  0  0
 22 24  1  0  0  0  0
 22 23  2  0  0  0  0
 32 33  1  0  0  0  0
 33 41  1  0  0  0  0
 33 34  2  0  0  0  0
  8  9  1  0  0  0  0
  9 17  1  0  0  0  0
  9 10  2  0  0  0  0
 18 19  1  0  0  0  0
 19 31  1  0  0  0  0
 19 20  2  0  0  0  0
 32 35  1  0  0  0  0
  8 11  1  0  0  0  0
 41 42  1  0  0  0  0
 18 21  1  0  0  0  0
 31 32  1  0  0  0  0
  7  8  1  0  0  0  0
 17 18  1  0  0  0  0
  3  4  1  0  0  0  0
  3  5  1  0  0  0  0
  3  6  1  0  0  0  0
 35 38  1  0  0  0  0
 35 39  1  0  0  0  0
 35 40  1  0  0  0  0
 11 14  1  0  0  0  0
 11 15  1  0  0  0  0
 11 16  1  0  0  0  0
 42 44  1  0  0  0  0
 42 45  1  0  0  0  0
 42 46  1  0  0  0  0
 21 27  1  0  0  0  0
 21 28  1  0  0  0  0
 32 37  1  0  0  0  0
  8 13  1  0  0  0  0
 18 26  1  0  0  0  0
 24 29  1  0  0  0  0
 24 30  1  0  0  0  0
 41 43  1  0  0  0  0
  7 12  1  0  0  0  0
 31 36  1  0  0  0  0
 17 25  1  0  0  0  0
M  END
$$$$

  -OEChem-05262214473D

 46 45  0     1  0  0  0  0  0999 V2000
   -0.0543    1.9736    3.8406 C   0  0  0  0  0  0  0  0  0  0  0  0
    0.6744    1.6099    4.7562 O   0  0  0  0  0  0  0  0  0  0  0  0
   -0.5599    3.3779    3.8160 C   0  0  0  0  0  0  0  0  0  0  0  0
   -1.5202    3.4885    4.3450 H   0  0  0  0  0  0  0  0  0  0  0  0
    0.1282    4.0814    4.3116 H   0  0  0  0  0  0  0  0  0  0  0  0
   -0.7317    3.7994    2.8126 H   0  0  0  0  0  0  0  0  0  0  0  0
   -0.4812    1.1968    2.7762 N   0  0  0  0  0  0  0  0  0  0  0  0
   -0.1106   -0.1834    2.6051 C   0  0  2  0  0  0  0  0  0  0  0  0
   -0.0696   -0.4775    1.1113 C   0  0  0  0  0  0  0  0  0  0  0  0
   -0.6805    0.1900    0.2792 O   0  0  0  0  0  0  0  0  0  0  0  0
   -1.0852   -1.1101    3.3150 C   0  0  0  0  0  0  0  0  0  0  0  0
   -1.0883    1.6241    2.0791 H   0  0  0  0  0  0  0  0  0  0  0  0
    0.8937   -0.2959    3.0277 H   0  0  0  0  0  0  0  0  0  0  0  0
   -2.0970   -1.0114    2.9051 H   0  0  0  0  0  0  0  0  0  0  0  0
   -0.7860   -2.1580    3.2078 H   0  0  0  0  0  0  0  0  0  0  0  0
   -1.1357   -0.8775    4.3842 H   0  0  0  0  0  0  0  0  0  0  0  0
    0.6950   -1.6003    0.8178 N   0  0  0  0  0  0  0  0  0  0  0  0
    0.8777   -2.0908   -0.5246 C   0  0  2  0  0  0  0  0  0  0  0  0
    1.1793   -0.8919   -1.4149 C   0  0  0  0  0  0  0  0  0  0  0  0
    1.8450   -0.9712   -2.4455 O   0  0  0  0  0  0  0  0  0  0  0  0
   -0.3556   -2.8400   -1.0298 C   0  0  0  0  0  0  0  0  0  0  0  0
   -0.5709   -4.1730   -0.3351 C   0  0  0  0  0  0  0  0  0  0  0  0
    0.3290   -4.9657   -0.0735 O   0  0  0  0  0  0  0  0  0  0  0  0
   -1.8963   -4.3923   -0.0246 N   0  0  0  0  0  0  0  0  0  0  0  0
    1.1810   -2.0803    1.5718 H   0  0  0  0  0  0  0  0  0  0  0  0
    1.7559   -2.7465   -0.5008 H   0  0  0  0  0  0  0  0  0  0  0  0
   -1.2592   -2.2402   -0.8628 H   0  0  0  0  0  0  0  0  0  0  0  0
   -0.2816   -3.0185   -2.1103 H   0  0  0  0  0  0  0  0  0  0  0  0
   -2.6069   -3.7066   -0.2571 H   0  0  0  0  0  0  0  0  0  0  0  0
   -2.2120   -5.2364    0.4424 H   0  0  0  0  0  0  0  0  0  0  0  0
    0.5768    0.2696   -0.9525 N   0  0  0  0  0  0  0  0  0  0  0  0
    0.7017    1.5271   -1.6497 C   0  0  2  0  0  0  0  0  0  0  0  0
    0.1768    1.3336   -3.0663 C   0  0  0  0  0  0  0  0  0  0  0  0
    0.1130    0.2348   -3.6137 O   0  0  0  0  0  0  0  0  0  0  0  0
    2.1436    2.0102   -1.6656 C   0  0  0  0  0  0  0  0  0  0  0  0
    0.0219    0.2450   -0.1020 H   0  0  0  0  0  0  0  0  0  0  0  0
    0.0680    2.2468   -1.1200 H   0  0  0  0  0  0  0  0  0  0  0  0
    2.7936    1.3020   -2.1923 H   0  0  0  0  0  0  0  0  0  0  0  0
    2.2322    2.9781   -2.1700 H   0  0  0  0  0  0  0  0  0  0  0  0
    2.5290    2.1204   -0.6463 H   0  0  0  0  0  0  0  0  0  0  0  0
   -0.1717    2.5373   -3.6627 N   0  0  0  0  0  0  0  0  0  0  0  0
   -0.6845    2.6200   -5.0104 C   0  0  0  0  0  0  0  0  0  0  0  0
   -0.1040    3.3981   -3.1277 H   0  0  0  0  0  0  0  0  0  0  0  0
    0.1475    2.7873   -5.7102 H   0  0  0  0  0  0  0  0  0  0  0  0
   -1.1954    1.6801   -5.2664 H   0  0  0  0  0  0  0  0  0  0  0  0
   -1.3966    3.4554   -5.0810 H   0  0  0  0  0  0  0  0  0  0  0  0
  1  3  1  0  0  0  0
  1  7  1  0  0  0  0
  1  2  2  0  0  0  0
 21 22  1  0  0  0  0
 22 24  1  0  0  0  0
 22 23  2  0  0  0  0
 32 33  1  0  0  0  0
 33 41  1  0  0  0  0
 33 34  2  0  0  0  0
  8  9  1  0  0  0  0
  9 17  1  0  0  0  0
  9 10  2  0  0  0  0
 18 19  1  0  0  0  0
 19 31  1  0  0  0  0
 19 20  2  0  0  0  0
 32 35  1  0  0  0  0
  8 11  1  0  0  0  0
 41 42  1  0  0  0  0
 18 21  1  0  0  0  0
 31 32  1  0  0  0  0
  7  8  1  0  0  0  0
 17 18  1  0  0  0  0
  3  4  1  0  0  0  0
  3  5  1  0  0  0  0
  3  6  1  0  0  0  0
 35 38  1  0  0  0  0
 35 39  1  0  0  0  0
 35 40  1  0  0  0  0
 11 14  1  0  0  0  0
 11 15  1  0  0  0  0
 11 16  1  0  0  0  0
 42 44  1  0  0  0  0
 42 45  1  0  0  0  0
 42 46  1  0  0  0  0
 21 27  1  0  0  0  0
 21 28  1  0  0  0  0
 32 37  1  0  0  0  0
  8 13  1  0  0  0  0
 18 26  1  0  0  0  0
 24 29  1  0  0  0  0
 24 30  1  0  0  0  0
 41 43  1  0  0  0  0
  7 12  1  0  0  0  0
 31 36  1  0  0  0  0
 17 25  1  0  0  0  0
M  END
$$$$

  -OEChem-05262214473D

 46 45  0     1  0  0  0  0  0999 V2000
   -0.0543    1.9736    3.8406 C   0  0  0  0  0  0  0  0  0  0  0  0
    0.6744    1.6099    4.7562 O   0  0  0  0  0  0  0  0  0  0  0  0
   -0.5599    3.3779    3.8160 C   0  0  0  0  0  0  0  0  0  0  0  0
   -1.5202    3.4885    4.3450 H   0  0  0  0  0  0  0  0  0  0  0  0
    0.1282    4.0814    4.3116 H   0  0  0  0  0  0  0  0  0  0  0  0
   -0.7317    3.7994    2.8126 H   0  0  0  0  0  0  0  0  0  0  0  0
   -0.4812    1.1968    2.7762 N   0  0  0  0  0  0  0  0  0  0  0  0
   -0.1106   -0.1834    2.6051 C   0  0  2  0  0  0  0  0  0  0  0  0
   -0.0696   -0.4775    1.1113 C   0  0  0  0  0  0  0  0  0  0  0  0
   -0.6805    0.1900    0.2792 O   0  0  0  0  0  0  0  0  0  0  0  0
   -1.0852   -1.1101    3.3150 C   0  0  0  0  0  0  0  0  0  0  0  0
   -1.0883    1.6241    2.0791 H   0  0  0  0  0  0  0  0  0  0  0  0
    0.8937   -0.2959    3.0277 H   0  0  0  0  0  0  0  0  0  0  0  0
   -2.0970   -1.0114    2.9051 H   0  0  0  0  0  0  0  0  0  0  0  0
   -0.7860   -2.1580    3.2078 H   0  0  0  0  0  0  0  0  0  0  0  0
   -1.1357   -0.8775    4.3842 H   0  0  0  0  0  0  0  0  0  0  0  0
    0.6950   -1.6003    0.8178 N   0  0  0  0  0  0  0  0  0  0  0  0
    0.8777   -2.0908   -0.5246 C   0  0  2  0  0  0  0  0  0  0  0  0
    1.1793   -0.8919   -1.4149 C   0  0  0  0  0  0  0  0  0  0  0  0
    1.6050   -0.9983   -2.5634 O   0  0  0  0  0  0  0  0  0  0  0  0
   -0.3556   -2.8400   -1.0298 C   0  0  0  0  0  0  0  0  0  0  0  0
   -0.5709   -4.1730   -0.3351 C   0  0  0  0  0  0  0  0  0  0  0  0
    0.3290   -4.9657   -0.0735 O   0  0  0  0  0  0  0  0  0  0  0  0
   -1.8963   -4.3923   -0.0246 N   0  0  0  0  0  0  0  0  0  0  0  0
    1.1810   -2.0803    1.5718 H   0  0  0  0  0  0  0  0  0  0  0  0
    1.7559   -2.7465   -0.5008 H   0  0  0  0  0  0  0  0  0  0  0  0
   -1.2592   -2.2402   -0.8628 H   0  0  0  0  0  0  0  0  0  0  0  0
   -0.2816   -3.0185   -2.1103 H   0  0  0  0  0  0  0  0  0  0  0  0
   -2.6069   -3.7066   -0.2571 H   0  0  0  0  0  0  0  0  0  0  0  0
   -2.2120   -5.2364    0.4424 H   0  0  0  0  0  0  0  0  0  0  0  0
    0.8707    0.3116   -0.7964 N   0  0  0  0  0  0  0  0  0  0  0  0
    1.0491    1.5812   -1.4593 C   0  0  2  0  0  0  0  0  0  0  0  0
    0.2282    1.5615   -2.7419 C   0  0  0  0  0  0  0  0  0  0  0  0
   -0.1148    0.5229   -3.3029 O   0  0  0  0  0  0  0  0  0  0  0  0
    2.5163    1.8486   -1.7570 C   0  0  0  0  0  0  0  0  0  0  0  0
    0.5000    0.3113    0.1493 H   0  0  0  0  0  0  0  0  0  0  0  0
    0.6547    2.3485   -0.7842 H   0  0  0  0  0  0  0  0  0  0  0  0
    2.9290    1.0900   -2.4319 H   0  0  0  0  0  0  0  0  0  0  0  0
    2.6528    2.8248   -2.2340 H   0  0  0  0  0  0  0  0  0  0  0  0
    3.1099    1.8329   -0.8366 H   0  0  0  0  0  0  0  0  0  0  0  0
   -0.0396    2.8404   -3.2098 N   0  0  0  0  0  0  0  0  0  0  0  0
   -0.7918    3.0870   -4.4178 C   0  0  0  0  0  0  0  0  0  0  0  0
    0.2675    3.6444   -2.6703 H   0  0  0  0  0  0  0  0  0  0  0  0
   -0.1006    3.1776   -5.2687 H   0  0  0  0  0  0  0  0  0  0  0  0
   -1.4843    2.2510   -4.5955 H   0  0  0  0  0  0  0  0  0  0  0  0
   -1.3639    4.0203   -4.3093 H   0  0  0  0  0  0  0  0  0  0  0  0
  1  3  1  0  0  0  0
  1  7  1  0  0  0  0
  1  2  2  0  0  0  0
 21 22  1  0  0  0  0
 22 24  1  0  0  0  0
 22 23  2  0  0  0  0
 32 33  1  0  0  0  0
 33 41  1  0  0  0  0
 33 34  2  0  0  0  0
  8  9  1  0  0  0  0
  9 17  1  0  0  0  0
  9 10  2  0  0  0  0
 18 19  1  0  0  0  0
 19 31  1  0  0  0  0
 19 20  2  0  0  0  0
 32 35  1  0  0  0  0
  8 11  1  0  0  0  0
 41 42  1  0  0  0  0
 18 21  1  0  0  0  0
 31 32  1  0  0  0  0
  7  8  1  0  0  0  0
 17 18  1  0  0  0  0
  3  4  1  0  0  0  0
  3  5  1  0  0  0  0
  3  6  1  0  0  0  0
 35 38  1  0  0  0  0
 35 39  1  0  0  0  0
 35 40  1  0  0  0  0
 11 14  1  0  0  0  0
 11 15  1  0  0  0  0
 11 16  1  0  0  0  0
 42 44  1  0  0  0  0
 42 45  1  0  0  0  0
 42 46  1  0  0  0  0
 21 27  1  0  0  0  0
 21 28  1  0  0  0  0
 32 37  1  0  0  0  0
  8 13  1  0  0  0  0
 18 26  1  0  0  0  0
 24 29  1  0  0  0  0
 24 30  1  0  0  0  0
 41 43  1  0  0  0  0
  7 12  1  0  0  0  0
 31 36  1  0  0  0  0
 17 25  1  0  0  0  0
M  END
$$$$

  -OEChem-05262214473D

 46 45  0     1  0  0  0  0  0999 V2000
   -0.0543    1.9736    3.8406 C   0  0  0  0  0  0  0  0  0  0  0  0
    0.6744    1.6099    4.7562 O   0  0  0  0  0  0  0  0  0  0  0  0
   -0.5599    3.3779    3.8160 C   0  0  0  0  0  0  0  0  0  0  0  0
   -1.5202    3.4885    4.3450 H   0  0  0  0  0  0  0  0  0  0  0  0
    0.1282    4.0814    4.3116 H   0  0  0  0  0  0  0  0  0  0  0  0
   -0.7317    3.7994    2.8126 H   0  0  0  0  0  0  0  0  0  0  0  0
   -0.4812    1.1968    2.7762 N   0  0  0  0  0  0  0  0  0  0  0  0
   -0.1106   -0.1834    2.6051 C   0  0  2  0  0  0  0  0  0  0  0  0
   -0.0696   -0.4775    1.1113 C   0  0  0  0  0  0  0  0  0  0  0  0
   -0.6805    0.1900    0.2792 O   0  0  0  0  0  0  0  0  0  0  0  0
   -1.0852   -1.1101    3.3150 C   0  0  0  0  0  0  0  0  0  0  0  0
   -1.0883    1.6241    2.0791 H   0  0  0  0  0  0  0  0  0  0  0  0
    0.8937   -0.2959    3.0277 H   0  0  0  0  0  0  0  0  0  0  0  0
   -2.0970   -1.0114    2.9051 H   0  0  0  0  0  0  0  0  0  0  0  0
   -0.7860   -2.1580    3.2078 H   0  0  0  0  0  0  0  0  0  0  0  0
   -1.1357   -0.8775    4.3842 H   0  0  0  0  0  0  0  0  0  0  0  0
    0.6950   -1.6003    0.8178 N   0  0  0  0  0  0  0  0  0  0  0  0
    0.8777   -2.0908   -0.5246 C   0  0  2  0  0  0  0  0  0  0  0  0
    1.1793   -0.8919   -1.4149 C   0  0  0  0  0  0  0  0  0  0  0  0
    1.3450   -0.9822   -2.6298 O   0  0  0  0  0  0  0  0  0  0  0  0
   -0.3556   -2.8400   -1.0298 C   0  0  0  0  0  0  0  0  0  0  0  0
   -0.5709   -4.1730   -0.3351 C   0  0  0  0  0  0  0  0  0  0  0  0
    0.3290   -4.9657   -0.0735 O   0  0  0  0  0  0  0  0  0  0  0  0
   -1.8963   -4.3923   -0.0246 N   0  0  0  0  0  0  0  0  0  0  0  0
    1.1810   -2.0803    1.5718 H   0  0  0  0  0  0  0  0  0  0  0  0
    1.7559   -2.7465   -0.5008 H   0  0  0  0  0  0  0  0  0  0  0  0
   -1.2592   -2.2402   -0.8628 H   0  0  0  0  0  0  0  0  0  0  0  0
   -0.2816   -3.0185   -2.1103 H   0  0  0  0  0  0  0  0  0  0  0  0
   -2.6069   -3.7066   -0.2571 H   0  0  0  0  0  0  0  0  0  0  0  0
   -2.2120   -5.2364    0.4424 H   0  0  0  0  0  0  0  0  0  0  0  0
    1.1928    0.2996   -0.7034 N   0  0  0  0  0  0  0  0  0  0  0  0
    1.4317    1.5711   -1.3433 C   0  0  2  0  0  0  0  0  0  0  0  0
    0.3784    1.7573   -2.4274 C   0  0  0  0  0  0  0  0  0  0  0  0
   -0.2281    0.8198   -2.9415 O   0  0  0  0  0  0  0  0  0  0  0  0
    2.8332    1.6409   -1.9294 C   0  0  0  0  0  0  0  0  0  0  0  0
    1.0231    0.2902    0.2980 H   0  0  0  0  0  0  0  0  0  0  0  0
    1.3052    2.3408   -0.5742 H   0  0  0  0  0  0  0  0  0  0  0  0
    2.9788    0.8770   -2.7019 H   0  0  0  0  0  0  0  0  0  0  0  0
    3.0228    2.6163   -2.3894 H   0  0  0  0  0  0  0  0  0  0  0  0
    3.5888    1.4771   -1.1534 H   0  0  0  0  0  0  0  0  0  0  0  0
    0.2262    3.0900   -2.7837 N   0  0  0  0  0  0  0  0  0  0  0  0
   -0.7041    3.5240   -3.7997 C   0  0  0  0  0  0  0  0  0  0  0  0
    0.7568    3.8026   -2.2914 H   0  0  0  0  0  0  0  0  0  0  0  0
   -0.1913    3.5695   -4.7718 H   0  0  0  0  0  0  0  0  0  0  0  0
   -1.5403    2.8118   -3.8593 H   0  0  0  0  0  0  0  0  0  0  0  0
   -1.0897    4.5214   -3.5416 H   0  0  0  0  0  0  0  0  0  0  0  0
  1  3  1  0  0  0  0
  1  7  1  0  0  0  0
  1  2  2  0  0  0  0
 21 22  1  0  0  0  0
 22 24  1  0  0  0  0
 22 23  2  0  0  0  0
 32 33  1  0  0  0  0
 33 41  1  0  0  0  0
 33 34  2  0  0  0  0
  8  9  1  0  0  0  0
  9 17  1  0  0  0  0
  9 10  2  0  0  0  0
 18 19  1  0  0  0  0
 19 31  1  0  0  0  0
 19 20  2  0  0  0  0
 32 35  1  0  0  0  0
  8 11  1  0  0  0  0
 41 42  1  0  0  0  0
 18 21  1  0  0  0  0
 31 32  1  0  0  0  0
  7  8  1  0  0  0  0
 17 18  1  0  0  0  0
  3  4  1  0  0  0  0
  3  5  1  0  0  0  0
  3  6  1  0  0  0  0
 35 38  1  0  0  0  0
 35 39  1  0  0  0  0
 35 40  1  0  0  0  0
 11 14  1  0  0  0  0
 11 15  1  0  0  0  0
 11 16  1  0  0  0  0
 42 44  1  0  0  0  0
 42 45  1  0  0  0  0
 42 46  1  0  0  0  0
 21 27  1  0  0  0  0
 21 28  1  0  0  0  0
 32 37  1  0  0  0  0
  8 13  1  0  0  0  0
 18 26  1  0  0  0  0
 24 29  1  0  0  0  0
 24 30  1  0  0  0  0
 41 43  1  0  0  0  0
  7 12  1  0  0  0  0
 31 36  1  0  0  0  0
 17 25  1  0  0  0  0
M  END
$$$$

  -OEChem-05262214473D

 46 45  0     1  0  0  0  0  0999 V2000
   -0.0543    1.9736    3.8406 C   0  0  0  0  0  0  0  0  0  0  0  0
    0.6744    1.6099    4.7562 O   0  0  0  0  0  0  0  0  0  0  0  0
   -0.5599    3.3779    3.8160 C   0  0  0  0  0  0  0  0  0  0  0  0
   -1.5202    3.4885    4.3450 H   0  0  0  0  0  0  0  0  0  0  0  0
    0.1282    4.0814    4.3116 H   0  0  0  0  0  0  0  0  0  0  0  0
   -0.7317    3.7994    2.8126 H   0  0  0  0  0  0  0  0  0  0  0  0
   -0.4812    1.1968    2.7762 N   0  0  0  0  0  0  0  0  0  0  0  0
   -0.1106   -0.1834    2.6051 C   0  0  2  0  0  0  0  0  0  0  0  0
   -0.0696   -0.4775    1.1113 C   0  0  0  0  0  0  0  0  0  0  0  0
   -0.6805    0.1900    0.2792 O   0  0  0  0  0  0  0  0  0  0  0  0
   -1.0852   -1.1101    3.3150 C   0  0  0  0  0  0  0  0  0  0  0  0
   -1.0883    1.6241    2.0791 H   0  0  0  0  0  0  0  0  0  0  0  0
    0.8937   -0.2959    3.0277 H   0  0  0  0  0  0  0  0  0  0  0  0
   -2.0970   -1.0114    2.9051 H   0  0  0  0  0  0  0  0  0  0  0  0
   -0.7860   -2.1580    3.2078 H   0  0  0  0  0  0  0  0  0  0  0  0
   -1.1357   -0.8775    4.3842 H   0  0  0  0  0  0  0  0  0  0  0  0
    0.6950   -1.6003    0.8178 N   0  0  0  0  0  0  0  0  0  0  0  0
    0.8777   -2.0908   -0.5246 C   0  0  2  0  0  0  0  0  0  0  0  0
    1.1793   -0.8919   -1.4149 C   0  0  0  0  0  0  0  0  0  0  0  0
    1.0828   -0.9240   -2.6401 O   0  0  0  0  0  0  0  0  0  0  0  0
   -0.3556   -2.8400   -1.0298 C   0  0  0  0  0  0  0  0  0  0  0  0
   -0.5709   -4.1730   -0.3351 C   0  0  0  0  0  0  0  0  0  0  0  0
    0.3290   -4.9657   -0.0735 O   0  0  0  0  0  0  0  0  0  0  0  0
   -1.8963   -4.3923   -0.0246 N   0  0  0  0  0  0  0  0  0  0  0  0
    1.1810   -2.0803    1.5718 H   0  0  0  0  0  0  0  0  0  0  0  0
    1.7559   -2.7465   -0.5008 H   0  0  0  0  0  0  0  0  0  0  0  0
   -1.2592   -2.2402   -0.8628 H   0  0  0  0  0  0  0  0  0  0  0  0
   -0.2816   -3.0185   -2.1103 H   0  0  0  0  0  0  0  0  0  0  0  0
   -2.6069   -3.7066   -0.2571 H   0  0  0  0  0  0  0  0  0  0  0  0
   -2.2120   -5.2364    0.4424 H   0  0  0  0  0  0  0  0  0  0  0  0
    1.5210    0.2346   -0.6798 N   0  0  0  0  0  0  0  0  0  0  0  0
    1.8234    1.4975   -1.3097 C   0  0  2  0  0  0  0  0  0  0  0  0
    0.6171    1.9076   -2.1441 C   0  0  0  0  0  0  0  0  0  0  0  0
   -0.2189    1.1051   -2.5542 O   0  0  0  0  0  0  0  0  0  0  0  0
    3.0729    1.4011   -2.1711 C   0  0  0  0  0  0  0  0  0  0  0  0
    1.5554    0.1830    0.3341 H   0  0  0  0  0  0  0  0  0  0  0  0
    1.9751    2.2243   -0.5042 H   0  0  0  0  0  0  0  0  0  0  0  0
    2.9398    0.6775   -2.9837 H   0  0  0  0  0  0  0  0  0  0  0  0
    3.3171    2.3670   -2.6254 H   0  0  0  0  0  0  0  0  0  0  0  0
    3.9330    1.0772   -1.5753 H   0  0  0  0  0  0  0  0  0  0  0  0
    0.6074    3.2690   -2.4134 N   0  0  0  0  0  0  0  0  0  0  0  0
   -0.4274    3.9012   -3.1980 C   0  0  0  0  0  0  0  0  0  0  0  0
    1.3306    3.8620   -2.0170 H   0  0  0  0  0  0  0  0  0  0  0  0
   -0.1185    3.9363   -4.2532 H   0  0  0  0  0  0  0  0  0  0  0  0
   -1.3596    3.3242   -3.1081 H   0  0  0  0  0  0  0  0  0  0  0  0
   -0.5926    4.9246   -2.8303 H   0  0  0  0  0  0  0  0  0  0  0  0
  1  3  1  0  0  0  0
  1  7  1  0  0  0  0
  1  2  2  0  0  0  0
 21 22  1  0  0  0  0
 22 24  1  0  0  0  0
 22 23  2  0  0  0  0
 32 33  1  0  0  0  0
 33 41  1  0  0  0  0
 33 34  2  0  0  0  0
  8  9  1  0  0  0  0
  9 17  1  0  0  0  0
  9 10  2  0  0  0  0
 18 19  1  0  0  0  0
 19 31  1  0  0  0  0
 19 20  2  0  0  0  0
 32 35  1  0  0  0  0
  8 11  1  0  0  0  0
 41 42  1  0  0  0  0
 18 21  1  0  0  0  0
 31 32  1  0  0  0  0
  7  8  1  0  0  0  0
 17 18  1  0  0  0  0
  3  4  1  0  0  0  0
  3  5  1  0  0  0  0
  3  6  1  0  0  0  0
 35 38  1  0  0  0  0
 35 39  1  0  0  0  0
 35 40  1  0  0  0  0
 11 14  1  0  0  0  0
 11 15  1  0  0  0  0
 11 16  1  0  0  0  0
 42 44  1  0  0  0  0
 42 45  1  0  0  0  0
 42 46  1  0  0  0  0
 21 27  1  0  0  0  0
 21 28  1  0  0  0  0
 32 37  1  0  0  0  0
  8 13  1  0  0  0  0
 18 26  1  0  0  0  0
 24 29  1  0  0  0  0
 24 30  1  0  0  0  0
 41 43  1  0  0  0  0
  7 12  1  0  0  0  0
 31 36  1  0  0  0  0
 17 25  1  0  0  0  0
M  END
$$$$

  -OEChem-05262214473D

 46 45  0     1  0  0  0  0  0999 V2000
   -0.0543    1.9736    3.8406 C   0  0  0  0  0  0  0  0  0  0  0  0
    0.6744    1.6099    4.7562 O   0  0  0  0  0  0  0  0  0  0  0  0
   -0.5599    3.3779    3.8160 C   0  0  0  0  0  0  0  0  0  0  0  0
   -1.5202    3.4885    4.3450 H   0  0  0  0  0  0  0  0  0  0  0  0
    0.1282    4.0814    4.3116 H   0  0  0  0  0  0  0  0  0  0  0  0
   -0.7317    3.7994    2.8126 H   0  0  0  0  0  0  0  0  0  0  0  0
   -0.4812    1.1968    2.7762 N   0  0  0  0  0  0  0  0  0  0  0  0
   -0.1106   -0.1834    2.6051 C   0  0  2  0  0  0  0  0  0  0  0  0
   -0.0696   -0.4775    1.1113 C   0  0  0  0  0  0  0  0  0  0  0  0
   -0.6805    0.1900    0.2792 O   0  0  0  0  0  0  0  0  0  0  0  0
   -1.0852   -1.1101    3.3150 C   0  0  0  0  0  0  0  0  0  0  0  0
   -1.0883    1.6241    2.0791 H   0  0  0  0  0  0  0  0  0  0  0  0
    0.8937   -0.2959    3.0277 H   0  0  0  0  0  0  0  0  0  0  0  0
   -2.0970   -1.0114    2.9051 H   0  0  0  0  0  0  0  0  0  0  0  0
   -0.7860   -2.1580    3.2078 H   0  0  0  0  0  0  0  0  0  0  0  0
   -1.1357   -0.8775    4.3842 H   0  0  0  0  0  0  0  0  0  0  0  0
    0.6950   -1.6003    0.8178 N   0  0  0  0  0  0  0  0  0  0  0  0
    0.8777   -2.0908   -0.5246 C   0  0  2  0  0  0  0  0  0  0  0  0
    1.1793   -0.8919   -1.4149 C   0  0  0  0  0  0  0  0  0  0  0  0
    0.8362   -0.8275   -2.5937 O   0  0  0  0  0  0  0  0  0  0  0  0
   -0.3556   -2.8400   -1.0298 C   0  0  0  0  0  0  0  0  0  0  0  0
   -0.5709   -4.1730   -0.3351 C   0  0  0  0  0  0  0  0  0  0  0  0
    0.3290   -4.9657   -0.0735 O   0  0  0  0  0  0  0  0  0  0  0  0
   -1.8963   -4.3923   -0.0246 N   0  0  0  0  0  0  0  0  0  0  0  0
    1.1810   -2.0803    1.5718 H   0  0  0  0  0  0  0  0  0  0  0  0
    1.7559   -2.7465   -0.5008 H   0  0  0  0  0  0  0  0  0  0  0  0
   -1.2592   -2.2402   -0.8628 H   0  0  0  0  0  0  0  0  0  0  0  0
   -0.2816   -3.0185   -2.1103 H   0  0  0  0  0  0  0  0  0  0  0  0
   -2.6069   -3.7066   -0.2571 H   0  0  0  0  0  0  0  0  0  0  0  0
   -2.2120   -5.2364    0.4424 H   0  0  0  0  0  0  0  0  0  0  0  0
    1.8330    0.1209   -0.7272 N   0  0  0  0  0  0  0  0  0  0  0  0
    2.1974    1.3655   -1.3607 C   0  0  2  0  0  0  0  0  0  0  0  0
    0.9282    2.0021   -1.9115 C   0  0  0  0  0  0  0  0  0  0  0  0
   -0.0880    1.3595   -2.1673 O   0  0  0  0  0  0  0  0  0  0  0  0
    3.2188    1.1456   -2.4657 C   0  0  0  0  0  0  0  0  0  0  0  0
    2.0607   -0.0028    0.2550 H   0  0  0  0  0  0  0  0  0  0  0  0
    2.6188    2.0068   -0.5790 H   0  0  0  0  0  0  0  0  0  0  0  0
    2.8145    0.5052   -3.2582 H   0  0  0  0  0  0  0  0  0  0  0  0
    3.5155    2.0937   -2.9262 H   0  0  0  0  0  0  0  0  0  0  0  0
    4.1191    0.6605   -2.0734 H   0  0  0  0  0  0  0  0  0  0  0  0
    1.0781    3.3653   -2.1243 N   0  0  0  0  0  0  0  0  0  0  0  0
    0.0194    4.1928   -2.6539 C   0  0  0  0  0  0  0  0  0  0  0  0
    1.9496    3.8185   -1.8658 H   0  0  0  0  0  0  0  0  0  0  0  0
    0.1130    4.2529   -3.7483 H   0  0  0  0  0  0  0  0  0  0  0  0
   -0.9546    3.7534   -2.3930 H   0  0  0  0  0  0  0  0  0  0  0  0
    0.0933    5.2025   -2.2237 H   0  0  0  0  0  0  0  0  0  0  0  0
  1  3  1  0  0  0  0
  1  7  1  0  0  0  0
  1  2  2  0  0  0  0
 21 22  1  0  0  0  0
 22 24  1  0  0  0  0
 22 23  2  0  0  0  0
 32 33  1  0  0  0  0
 33 41  1  0  0  0  0
 33 34  2  0  0  0  0
  8  9  1  0  0  0  0
  9 17  1  0  0  0  0
  9 10  2  0  0  0  0
 18 19  1  0  0  0  0
 19 31  1  0  0  0  0
 19 20  2  0  0  0  0
 32 35  1  0  0  0  0
  8 11  1  0  0  0  0
 41 42  1  0  0  0  0
 18 21  1  0  0  0  0
 31 32  1  0  0  0  0
  7  8  1  0  0  0  0
 17 18  1  0  0  0  0
  3  4  1  0  0  0  0
  3  5  1  0  0  0  0
  3  6  1  0  0  0  0
 35 38  1  0  0  0  0
 35 39  1  0  0  0  0
 35 40  1  0  0  0  0
 11 14  1  0  0  0  0
 11 15  1  0  0  0  0
 11 16  1  0  0  0  0
 42 44  1  0  0  0  0
 42 45  1  0  0  0  0
 42 46  1  0  0  0  0
 21 27  1  0  0  0  0
 21 28  1  0  0  0  0
 32 37  1  0  0  0  0
  8 13  1  0  0  0  0
 18 26  1  0  0  0  0
 24 29  1  0  0  0  0
 24 30  1  0  0  0  0
 41 43  1  0  0  0  0
  7 12  1  0  0  0  0
 31 36  1  0  0  0  0
 17 25  1  0  0  0  0
M  END
$$$$

  -OEChem-05262214473D

 46 45  0     1  0  0  0  0  0999 V2000
   -0.0543    1.9736    3.8406 C   0  0  0  0  0  0  0  0  0  0  0  0
    0.6744    1.6099    4.7562 O   0  0  0  0  0  0  0  0  0  0  0  0
   -0.5599    3.3779    3.8160 C   0  0  0  0  0  0  0  0  0  0  0  0
   -1.5202    3.4885    4.3450 H   0  0  0  0  0  0  0  0  0  0  0  0
    0.1282    4.0814    4.3116 H   0  0  0  0  0  0  0  0  0  0  0  0
   -0.7317    3.7994    2.8126 H   0  0  0  0  0  0  0  0  0  0  0  0
   -0.4812    1.1968    2.7762 N   0  0  0  0  0  0  0  0  0  0  0  0
   -0.1106   -0.1834    2.6051 C   0  0  2  0  0  0  0  0  0  0  0  0
   -0.0696   -0.4775    1.1113 C   0  0  0  0  0  0  0  0  0  0  0  0
   -0.6805    0.1900    0.2792 O   0  0  0  0  0  0  0  0  0  0  0  0
   -1.0852   -1.1101    3.3150 C   0  0  0  0  0  0  0  0  0  0  0  0
   -1.0883    1.6241    2.0791 H   0  0  0  0  0  0  0  0  0  0  0  0
    0.8937   -0.2959    3.0277 H   0  0  0  0  0  0  0  0  0  0  0  0
   -2.0970   -1.0114    2.9051 H   0  0  0  0  0  0  0  0  0  0  0  0
   -0.7860   -2.1580    3.2078 H   0  0  0  0  0  0  0  0  0  0  0  0
   -1.1357   -0.8775    4.3842 H   0  0  0  0  0  0  0  0  0  0  0  0
    0.6950   -1.6003    0.8178 N   0  0  0  0  0  0  0  0  0  0  0  0
    0.8777   -2.0908   -0.5246 C   0  0  2  0  0  0  0  0  0  0  0  0
    1.1793   -0.8919   -1.4149 C   0  0  0  0  0  0  0  0  0  0  0  0
    0.6221   -0.6993   -2.4938 O   0  0  0  0  0  0  0  0  0  0  0  0
   -0.3556   -2.8400   -1.0298 C   0  0  0  0  0  0  0  0  0  0  0  0
   -0.5709   -4.1730   -0.3351 C   0  0  0  0  0  0  0  0  0  0  0  0
    0.3290   -4.9657   -0.0735 O   0  0  0  0  0  0  0  0  0  0  0  0
   -1.8963   -4.3923   -0.0246 N   0  0  0  0  0  0  0  0  0  0  0  0
    1.1810   -2.0803    1.5718 H   0  0  0  0  0  0  0  0  0  0  0  0
    1.7559   -2.7465   -0.5008 H   0  0  0  0  0  0  0  0  0  0  0  0
   -1.2592   -2.2402   -0.8628 H   0  0  0  0  0  0  0  0  0  0  0  0
   -0.2816   -3.0185   -2.1103 H   0  0  0  0  0  0  0  0  0  0  0  0
   -2.6069   -3.7066   -0.2571 H   0  0  0  0  0  0  0  0  0  0  0  0
   -2.2120   -5.2364    0.4424 H   0  0  0  0  0  0  0  0  0  0  0  0
    2.1075   -0.0337   -0.8423 N   0  0  0  0  0  0  0  0  0  0  0  0
    2.5283    1.1840   -1.4930 C   0  0  2  0  0  0  0  0  0  0  0  0
    1.2903    2.0344   -1.7452 C   0  0  0  0  0  0  0  0  0  0  0  0
    0.1557    1.5656   -1.8072 O   0  0  0  0  0  0  0  0  0  0  0  0
    3.2611    0.8918   -2.7931 C   0  0  0  0  0  0  0  0  0  0  0  0
    2.5045   -0.2547    0.0661 H   0  0  0  0  0  0  0  0  0  0  0  0
    3.1925    1.7032   -0.7935 H   0  0  0  0  0  0  0  0  0  0  0  0
    2.6116    0.3717   -3.5066 H   0  0  0  0  0  0  0  0  0  0  0  0
    3.6046    1.8151   -3.2711 H   0  0  0  0  0  0  0  0  0  0  0  0
    4.1344    0.2554   -2.6137 H   0  0  0  0  0  0  0  0  0  0  0  0
    1.6063    3.3723   -1.9359 N   0  0  0  0  0  0  0  0  0  0  0  0
    0.6060    4.3790   -2.2045 C   0  0  0  0  0  0  0  0  0  0  0  0
    2.5718    3.6752   -1.8481 H   0  0  0  0  0  0  0  0  0  0  0  0
    0.4874    4.4979   -3.2915 H   0  0  0  0  0  0  0  0  0  0  0  0
   -0.3528    4.0700   -1.7627 H   0  0  0  0  0  0  0  0  0  0  0  0
    0.9215    5.3360   -1.7633 H   0  0  0  0  0  0  0  0  0  0  0  0
  1  3  1  0  0  0  0
  1  7  1  0  0  0  0
  1  2  2  0  0  0  0
 21 22  1  0  0  0  0
 22 24  1  0  0  0  0
 22 23  2  0  0  0  0
 32 33  1  0  0  0  0
 33 41  1  0  0  0  0
 33 34  2  0  0  0  0
  8  9  1  0  0  0  0
  9 17  1  0  0  0  0
  9 10  2  0  0  0  0
 18 19  1  0  0  0  0
 19 31  1  0  0  0  0
 19 20  2  0  0  0  0
 32 35  1  0  0  0  0
  8 11  1  0  0  0  0
 41 42  1  0  0  0  0
 18 21  1  0  0  0  0
 31 32  1  0  0  0  0
  7  8  1  0  0  0  0
 17 18  1  0  0  0  0
  3  4  1  0  0  0  0
  3  5  1  0  0  0  0
  3  6  1  0  0  0  0
 35 38  1  0  0  0  0
 35 39  1  0  0  0  0
 35 40  1  0  0  0  0
 11 14  1  0  0  0  0
 11 15  1  0  0  0  0
 11 16  1  0  0  0  0
 42 44  1  0  0  0  0
 42 45  1  0  0  0  0
 42 46  1  0  0  0  0
 21 27  1  0  0  0  0
 21 28  1  0  0  0  0
 32 37  1  0  0  0  0
  8 13  1  0  0  0  0
 18 26  1  0  0  0  0
 24 29  1  0  0  0  0
 24 30  1  0  0  0  0
 41 43  1  0  0  0  0
  7 12  1  0  0  0  0
 31 36  1  0  0  0  0
 17 25  1  0  0  0  0
M  END
$$$$

  -OEChem-05262214473D

 46 45  0     1  0  0  0  0  0999 V2000
   -0.0543    1.9736    3.8406 C   0  0  0  0  0  0  0  0  0  0  0  0
    0.6744    1.6099    4.7562 O   0  0  0  0  0  0  0  0  0  0  0  0
   -0.5599    3.3779    3.8160 C   0  0  0  0  0  0  0  0  0  0  0  0
   -1.5202    3.4885    4.3450 H   0  0  0  0  0  0  0  0  0  0  0  0
    0.1282    4.0814    4.3116 H   0  0  0  0  0  0  0  0  0  0  0  0
   -0.7317    3.7994    2.8126 H   0  0  0  0  0  0  0  0  0  0  0  0
   -0.4812    1.1968    2.7762 N   0  0  0  0  0  0  0  0  0  0  0  0
   -0.1106   -0.1834    2.6051 C   0  0  2  0  0  0  0  0  0  0  0  0
   -0.0696   -0.4775    1.1113 C   0  0  0  0  0  0  0  0  0  0  0  0
   -0.6805    0.1900    0.2792 O   0  0  0  0  0  0  0  0  0  0  0  0
   -1.0852   -1.1101    3.3150 C   0  0  0  0  0  0  0  0  0  0  0  0
   -1.0883    1.6241    2.0791 H   0  0  0  0  0  0  0  0  0  0  0  0
    0.8937   -0.2959    3.0277 H   0  0  0  0  0  0  0  0  0  0  0  0
   -2.0970   -1.0114    2.9051 H   0  0  0  0  0  0  0  0  0  0  0  0
   -0.7860   -2.1580    3.2078 H   0  0  0  0  0  0  0  0  0  0  0  0
   -1.1357   -0.8775    4.3842 H   0  0  0  0  0  0  0  0  0  0  0  0
    0.6950   -1.6003    0.8178 N   0  0  0  0  0  0  0  0  0  0  0  0
    0.8777   -2.0908   -0.5246 C   0  0  2  0  0  0  0  0  0  0  0  0
    1.1793   -0.8919   -1.4149 C   0  0  0  0  0  0  0  0  0  0  0  0
    0.4550   -0.5483   -2.3470 O   0  0  0  0  0  0  0  0  0  0  0  0
   -0.3556   -2.8400   -1.0298 C   0  0  0  0  0  0  0  0  0  0  0  0
   -0.5709   -4.1730   -0.3351 C   0  0  0  0  0  0  0  0  0  0  0  0
    0.3290   -4.9657   -0.0735 O   0  0  0  0  0  0  0  0  0  0  0  0
   -1.8963   -4.3923   -0.0246 N   0  0  0  0  0  0  0  0  0  0  0  0
    1.1810   -2.0803    1.5718 H   0  0  0  0  0  0  0  0  0  0  0  0
    1.7559   -2.7465   -0.5008 H   0  0  0  0  0  0  0  0  0  0  0  0
   -1.2592   -2.2402   -0.8628 H   0  0  0  0  0  0  0  0  0  0  0  0
   -0.2816   -3.0185   -2.1103 H   0  0  0  0  0  0  0  0  0  0  0  0
   -2.6069   -3.7066   -0.2571 H   0  0  0  0  0  0  0  0  0  0  0  0
   -2.2120   -5.2364    0.4424 H   0  0  0  0  0  0  0  0  0  0  0  0
    2.3259   -0.2186   -1.0173 N   0  0  0  0  0  0  0  0  0  0  0  0
    2.7935    0.9654   -1.6975 C   0  0  2  0  0  0  0  0  0  0  0  0
    1.6789    2.0024   -1.6568 C   0  0  0  0  0  0  0  0  0  0  0  0
    0.4956    1.7094   -1.4984 O   0  0  0  0  0  0  0  0  0  0  0  0
    3.1970    0.6570   -3.1310 C   0  0  0  0  0  0  0  0  0  0  0  0
    2.8567   -0.5555   -0.2196 H   0  0  0  0  0  0  0  0  0  0  0  0
    3.6570    1.3341   -1.1331 H   0  0  0  0  0  0  0  0  0  0  0  0
    2.3447    0.2863   -3.7121 H   0  0  0  0  0  0  0  0  0  0  0  0
    3.5783    1.5503   -3.6367 H   0  0  0  0  0  0  0  0  0  0  0  0
    3.9778   -0.1106   -3.1596 H   0  0  0  0  0  0  0  0  0  0  0  0
    2.1558    3.2896   -1.8612 N   0  0  0  0  0  0  0  0  0  0  0  0
    1.2923    4.4471   -1.8802 C   0  0  0  0  0  0  0  0  0  0  0  0
    3.1547    3.4417   -1.9650 H   0  0  0  0  0  0  0  0  0  0  0  0
    0.9790    4.6546   -2.9140 H   0  0  0  0  0  0  0  0  0  0  0  0
    0.4047    4.2525   -1.2603 H   0  0  0  0  0  0  0  0  0  0  0  0
    1.8354    5.3162   -1.4804 H   0  0  0  0  0  0  0  0  0  0  0  0
  1  3  1  0  0  0  0
  1  7  1  0  0  0  0
  1  2  2  0  0  0  0
 21 22  1  0  0  0  0
 22 24  1  0  0  0  0
 22 23  2  0  0  0  0
 32 33  1  0  0  0  0
 33 41  1  0  0  0  0
 33 34  2  0  0  0  0
  8  9  1  0  0  0  0
  9 17  1  0  0  0  0
  9 10  2  0  0  0  0
 18 19  1  0  0  0  0
 19 31  1  0  0  0  0
 19 20  2  0  0  0  0
 32 35  1  0  0  0  0
  8 11  1  0  0  0  0
 41 42  1  0  0  0  0
 18 21  1  0  0  0  0
 31 32  1  0  0  0  0
  7  8  1  0  0  0  0
 17 18  1  0  0  0  0
  3  4  1  0  0  0  0
  3  5  1  0  0  0  0
  3  6  1  0  0  0  0
 35 38  1  0  0  0  0
 35 39  1  0  0  0  0
 35 40  1  0  0  0  0
 11 14  1  0  0  0  0
 11 15  1  0  0  0  0
 11 16  1  0  0  0  0
 42 44  1  0  0  0  0
 42 45  1  0  0  0  0
 42 46  1  0  0  0  0
 21 27  1  0  0  0  0
 21 28  1  0  0  0  0
 32 37  1  0  0  0  0
  8 13  1  0  0  0  0
 18 26  1  0  0  0  0
 24 29  1  0  0  0  0
 24 30  1  0  0  0  0
 41 43  1  0  0  0  0
  7 12  1  0  0  0  0
 31 36  1  0  0  0  0
 17 25  1  0  0  0  0
M  END
$$$$

  -OEChem-05262214473D

 46 45  0     1  0  0  0  0  0999 V2000
   -0.0543    1.9736    3.8406 C   0  0  0  0  0  0  0  0  0  0  0  0
    0.6744    1.6099    4.7562 O   0  0  0  0  0  0  0  0  0  0  0  0
   -0.5599    3.3779    3.8160 C   0  0  0  0  0  0  0  0  0  0  0  0
   -1.5202    3.4885    4.3450 H   0  0  0  0  0  0  0  0  0  0  0  0
    0.1282    4.0814    4.3116 H   0  0  0  0  0  0  0  0  0  0  0  0
   -0.7317    3.7994    2.8126 H   0  0  0  0  0  0  0  0  0  0  0  0
   -0.4812    1.1968    2.7762 N   0  0  0  0  0  0  0  0  0  0  0  0
   -0.1106   -0.1834    2.6051 C   0  0  2  0  0  0  0  0  0  0  0  0
   -0.0696   -0.4775    1.1113 C   0  0  0  0  0  0  0  0  0  0  0  0
   -0.6805    0.1900    0.2792 O   0  0  0  0  0  0  0  0  0  0  0  0
   -1.0852   -1.1101    3.3150 C   0  0  0  0  0  0  0  0  0  0  0  0
   -1.0883    1.6241    2.0791 H   0  0  0  0  0  0  0  0  0  0  0  0
    0.8937   -0.2959    3.0277 H   0  0  0  0  0  0  0  0  0  0  0  0
   -2.0970   -1.0114    2.9051 H   0  0  0  0  0  0  0  0  0  0  0  0
   -0.7860   -2.1580    3.2078 H   0  0  0  0  0  0  0  0  0  0  0  0
   -1.1357   -0.8775    4.3842 H   0  0  0  0  0  0  0  0  0  0  0  0
    0.6950   -1.6003    0.8178 N   0  0  0  0  0  0  0  0  0  0  0  0
    0.8777   -2.0908   -0.5246 C   0  0  2  0  0  0  0  0  0  0  0  0
    1.1793   -0.8919   -1.4149 C   0  0  0  0  0  0  0  0  0  0  0  0
    0.3463   -0.3847   -2.1635 O   0  0  0  0  0  0  0  0  0  0  0  0
   -0.3556   -2.8400   -1.0298 C   0  0  0  0  0  0  0  0  0  0  0  0
   -0.5709   -4.1730   -0.3351 C   0  0  0  0  0  0  0  0  0  0  0  0
    0.3290   -4.9657   -0.0735 O   0  0  0  0  0  0  0  0  0  0  0  0
   -1.8963   -4.3923   -0.0246 N   0  0  0  0  0  0  0  0  0  0  0  0
    1.1810   -2.0803    1.5718 H   0  0  0  0  0  0  0  0  0  0  0  0
    1.7559   -2.7465   -0.5008 H   0  0  0  0  0  0  0  0  0  0  0  0
   -1.2592   -2.2402   -0.8628 H   0  0  0  0  0  0  0  0  0  0  0  0
   -0.2816   -3.0185   -2.1103 H   0  0  0  0  0  0  0  0  0  0  0  0
   -2.6069   -3.7066   -0.2571 H   0  0  0  0  0  0  0  0  0  0  0  0
   -2.2120   -5.2364    0.4424 H   0  0  0  0  0  0  0  0  0  0  0  0
    2.4731   -0.4213   -1.2404 N   0  0  0  0  0  0  0  0  0  0  0  0
    2.9750    0.7246   -1.9602 C   0  0  2  0  0  0  0  0  0  0  0  0
    2.0673    1.9081   -1.6521 C   0  0  0  0  0  0  0  0  0  0  0  0
    0.9085    1.7810   -1.2621 O   0  0  0  0  0  0  0  0  0  0  0  0
    3.0306    0.4573   -3.4563 C   0  0  0  0  0  0  0  0  0  0  0  0
    3.0932   -0.8847   -0.5827 H   0  0  0  0  0  0  0  0  0  0  0  0
    3.9806    0.9248   -1.5746 H   0  0  0  0  0  0  0  0  0  0  0  0
    2.0322    0.2546   -3.8606 H   0  0  0  0  0  0  0  0  0  0  0  0
    3.4383    1.3171   -3.9981 H   0  0  0  0  0  0  0  0  0  0  0  0
    3.6601   -0.4124   -3.6737 H   0  0  0  0  0  0  0  0  0  0  0  0
    2.6894    3.1227   -1.9052 N   0  0  0  0  0  0  0  0  0  0  0  0
    2.0315    4.3925   -1.7033 C   0  0  0  0  0  0  0  0  0  0  0  0
    3.6587    3.1340   -2.2086 H   0  0  0  0  0  0  0  0  0  0  0  0
    1.5545    4.7122   -2.6415 H   0  0  0  0  0  0  0  0  0  0  0  0
    1.2663    4.2885   -0.9200 H   0  0  0  0  0  0  0  0  0  0  0  0
    2.7728    5.1443   -1.3943 H   0  0  0  0  0  0  0  0  0  0  0  0
  1  3  1  0  0  0  0
  1  7  1  0  0  0  0
  1  2  2  0  0  0  0
 21 22  1  0  0  0  0
 22 24  1  0  0  0  0
 22 23  2  0  0  0  0
 32 33  1  0  0  0  0
 33 41  1  0  0  0  0
 33 34  2  0  0  0  0
  8  9  1  0  0  0  0
  9 17  1  0  0  0  0
  9 10  2  0  0  0  0
 18 19  1  0  0  0  0
 19 31  1  0  0  0  0
 19 20  2  0  0  0  0
 32 35  1  0  0  0  0
  8 11  1  0  0  0  0
 41 42  1  0  0  0  0
 18 21  1  0  0  0  0
 31 32  1  0  0  0  0
  7  8  1  0  0  0  0
 17 18  1  0  0  0  0
  3  4  1  0  0  0  0
  3  5  1  0  0  0  0
  3  6  1  0  0  0  0
 35 38  1  0  0  0  0
 35 39  1  0  0  0  0
 35 40  1  0  0  0  0
 11 14  1  0  0  0  0
 11 15  1  0  0  0  0
 11 16  1  0  0  0  0
 42 44  1  0  0  0  0
 42 45  1  0  0  0  0
 42 46  1  0  0  0  0
 21 27  1  0  0  0  0
 21 28  1  0  0  0  0
 32 37  1  0  0  0  0
  8 13  1  0  0  0  0
 18 26  1  0  0  0  0
 24 29  1  0  0  0  0
 24 30  1  0  0  0  0
 41 43  1  0  0  0  0
  7 12  1  0  0  0  0
 31 36  1  0  0  0  0
 17 25  1  0  0  0  0
M  END
$$$$

  -OEChem-05262214473D

 46 45  0     1  0  0  0  0  0999 V2000
   -0.0543    1.9736    3.8406 C   0  0  0  0  0  0  0  0  0  0  0  0
    0.6744    1.6099    4.7562 O   0  0  0  0  0  0  0  0  0  0  0  0
   -0.5599    3.3779    3.8160 C   0  0  0  0  0  0  0  0  0  0  0  0
   -1.5202    3.4885    4.3450 H   0  0  0  0  0  0  0  0  0  0  0  0
    0.1282    4.0814    4.3116 H   0  0  0  0  0  0  0  0  0  0  0  0
   -0.7317    3.7994    2.8126 H   0  0  0  0  0  0  0  0  0  0  0  0
   -0.4812    1.1968    2.7762 N   0  0  0  0  0  0  0  0  0  0  0  0
   -0.1106   -0.1834    2.6051 C   0  0  2  0  0  0  0  0  0  0  0  0
   -0.0696   -0.4775    1.1113 C   0  0  0  0  0  0  0  0  0  0  0  0
   -0.6805    0.1900    0.2792 O   0  0  0  0  0  0  0  0  0  0  0  0
   -1.0852   -1.1101    3.3150 C   0  0  0  0  0  0  0  0  0  0  0  0
   -1.0883    1.6241    2.0791 H   0  0  0  0  0  0  0  0  0  0  0  0
    0.8937   -0.2959    3.0277 H   0  0  0  0  0  0  0  0  0  0  0  0
   -2.0970   -1.0114    2.9051 H   0  0  0  0  0  0  0  0  0  0  0  0
   -0.7860   -2.1580    3.2078 H   0  0  0  0  0  0  0  0  0  0  0  0
   -1.1357   -0.8775    4.3842 H   0  0  0  0  0  0  0  0  0  0  0  0
    0.6950   -1.6003    0.8178 N   0  0  0  0  0  0  0  0  0  0  0  0
    0.8777   -2.0908   -0.5246 C   0  0  2  0  0  0  0  0  0  0  0  0
    1.1793   -0.8919   -1.4149 C   0  0  0  0  0  0  0  0  0  0  0  0
    0.3035   -0.2196   -1.9557 O   0  0  0  0  0  0  0  0  0  0  0  0
   -0.3556   -2.8400   -1.0298 C   0  0  0  0  0  0  0  0  0  0  0  0
   -0.5709   -4.1730   -0.3351 C   0  0  0  0  0  0  0  0  0  0  0  0
    0.3290   -4.9657   -0.0735 O   0  0  0  0  0  0  0  0  0  0  0  0
   -1.8963   -4.3923   -0.0246 N   0  0  0  0  0  0  0  0  0  0  0  0
    1.1810   -2.0803    1.5718 H   0  0  0  0  0  0  0  0  0  0  0  0
    1.7559   -2.7465   -0.5008 H   0  0  0  0  0  0  0  0  0  0  0  0
   -1.2592   -2.2402   -0.8628 H   0  0  0  0  0  0  0  0  0  0  0  0
   -0.2816   -3.0185   -2.1103 H   0  0  0  0  0  0  0  0  0  0  0  0
   -2.6069   -3.7066   -0.2571 H   0  0  0  0  0  0  0  0  0  0  0  0
   -2.2120   -5.2364    0.4424 H   0  0  0  0  0  0  0  0  0  0  0  0
    2.5393   -0.6279   -1.4962 N   0  0  0  0  0  0  0  0  0  0  0  0
    3.0604    0.4781   -2.2633 C   0  0  2  0  0  0  0  0  0  0  0  0
    2.4292    1.7580   -1.7316 C   0  0  0  0  0  0  0  0  0  0  0  0
    1.3664    1.7756   -1.1142 O   0  0  0  0  0  0  0  0  0  0  0  0
    2.7735    0.3062   -3.7469 C   0  0  0  0  0  0  0  0  0  0  0  0
    3.1979   -1.2198   -0.9985 H   0  0  0  0  0  0  0  0  0  0  0  0
    4.1414    0.5031   -2.0880 H   0  0  0  0  0  0  0  0  0  0  0  0
    1.6953    0.2789   -3.9420 H   0  0  0  0  0  0  0  0  0  0  0  0
    3.1943    1.1316   -4.3305 H   0  0  0  0  0  0  0  0  0  0  0  0
    3.2028   -0.6295   -4.1210 H   0  0  0  0  0  0  0  0  0  0  0  0
    3.1705    2.8830   -2.0649 N   0  0  0  0  0  0  0  0  0  0  0  0
    2.7734    4.2189   -1.6858 C   0  0  0  0  0  0  0  0  0  0  0  0
    4.0493    2.7730   -2.5624 H   0  0  0  0  0  0  0  0  0  0  0  0
    2.1746    4.6668   -2.4926 H   0  0  0  0  0  0  0  0  0  0  0  0
    2.1734    4.1754   -0.7648 H   0  0  0  0  0  0  0  0  0  0  0  0
    3.6697    4.8320   -1.5109 H   0  0  0  0  0  0  0  0  0  0  0  0
  1  3  1  0  0  0  0
  1  7  1  0  0  0  0
  1  2  2  0  0  0  0
 21 22  1  0  0  0  0
 22 24  1  0  0  0  0
 22 23  2  0  0  0  0
 32 33  1  0  0  0  0
 33 41  1  0  0  0  0
 33 34  2  0  0  0  0
  8  9  1  0  0  0  0
  9 17  1  0  0  0  0
  9 10  2  0  0  0  0
 18 19  1  0  0  0  0
 19 31  1  0  0  0  0
 19 20  2  0  0  0  0
 32 35  1  0  0  0  0
  8 11  1  0  0  0  0
 41 42  1  0  0  0  0
 18 21  1  0  0  0  0
 31 32  1  0  0  0  0
  7  8  1  0  0  0  0
 17 18  1  0  0  0  0
  3  4  1  0  0  0  0
  3  5  1  0  0  0  0
  3  6  1  0  0  0  0
 35 38  1  0  0  0  0
 35 39  1  0  0  0  0
 35 40  1  0  0  0  0
 11 14  1  0  0  0  0
 11 15  1  0  0  0  0
 11 16  1  0  0  0  0
 42 44  1  0  0  0  0
 42 45  1  0  0  0  0
 42 46  1  0  0  0  0
 21 27  1  0  0  0  0
 21 28  1  0  0  0  0
 32 37  1  0  0  0  0
  8 13  1  0  0  0  0
 18 26  1  0  0  0  0
 24 29  1  0  0  0  0
 24 30  1  0  0  0  0
 41 43  1  0  0  0  0
  7 12  1  0  0  0  0
 31 36  1  0  0  0  0
 17 25  1  0  0  0  0
M  END
$$$$

  -OEChem-05262214473D

 46 45  0     1  0  0  0  0  0999 V2000
   -0.0543    1.9736    3.8406 C   0  0  0  0  0  0  0  0  0  0  0  0
    0.6744    1.6099    4.7562 O   0  0  0  0  0  0  0  0  0  0  0  0
   -0.5599    3.3779    3.8160 C   0  0  0  0  0  0  0  0  0  0  0  0
   -1.5202    3.4885    4.3450 H   0  0  0  0  0  0  0  0  0  0  0  0
    0.1282    4.0814    4.3116 H   0  0  0  0  0  0  0  0  0  0  0  0
   -0.7317    3.7994    2.8126 H   0  0  0  0  0  0  0  0  0  0  0  0
   -0.4812    1.1968    2.7762 N   0  0  0  0  0  0  0  0  0  0  0  0
   -0.1106   -0.1834    2.6051 C   0  0  2  0  0  0  0  0  0  0  0  0
   -0.0696   -0.4775    1.1113 C   0  0  0  0  0  0  0  0  0  0  0  0
   -0.6805    0.1900    0.2792 O   0  0  0  0  0  0  0  0  0  0  0  0
   -1.0852   -1.1101    3.3150 C   0  0  0  0  0  0  0  0  0  0  0  0
   -1.0883    1.6241    2.0791 H   0  0  0  0  0  0  0  0  0  0  0  0
    0.8937   -0.2959    3.0277 H   0  0  0  0  0  0  0  0  0  0  0  0
   -2.0970   -1.0114    2.9051 H   0  0  0  0  0  0  0  0  0  0  0  0
   -0.7860   -2.1580    3.2078 H   0  0  0  0  0  0  0  0  0  0  0  0
   -1.1357   -0.8775    4.3842 H   0  0  0  0  0  0  0  0  0  0  0  0
    0.6950   -1.6003    0.8178 N   0  0  0  0  0  0  0  0  0  0  0  0
    0.8777   -2.0908   -0.5246 C   0  0  2  0  0  0  0  0  0  0  0  0
    1.1793   -0.8919   -1.4149 C   0  0  0  0  0  0  0  0  0  0  0  0
    0.3294   -0.0643   -1.7378 O   0  0  0  0  0  0  0  0  0  0  0  0
   -0.3556   -2.8400   -1.0298 C   0  0  0  0  0  0  0  0  0  0  0  0
   -0.5709   -4.1730   -0.3351 C   0  0  0  0  0  0  0  0  0  0  0  0
    0.3290   -4.9657   -0.0735 O   0  0  0  0  0  0  0  0  0  0  0  0
   -1.8963   -4.3923   -0.0246 N   0  0  0  0  0  0  0  0  0  0  0  0
    1.1810   -2.0803    1.5718 H   0  0  0  0  0  0  0  0  0  0  0  0
    1.7559   -2.7465   -0.5008 H   0  0  0  0  0  0  0  0  0  0  0  0
   -1.2592   -2.2402   -0.8628 H   0  0  0  0  0  0  0  0  0  0  0  0
   -0.2816   -3.0185   -2.1103 H   0  0  0  0  0  0  0  0  0  0  0  0
   -2.6069   -3.7066   -0.2571 H   0  0  0  0  0  0  0  0  0  0  0  0
   -2.2120   -5.2364    0.4424 H   0  0  0  0  0  0  0  0  0  0  0  0
    2.5199   -0.8243   -1.7673 N   0  0  0  0  0  0  0  0  0  0  0  0
    3.0438    0.2425   -2.5861 C   0  0  2  0  0  0  0  0  0  0  0  0
    2.7399    1.5624   -1.8897 C   0  0  0  0  0  0  0  0  0  0  0  0
    1.8380    1.6936   -1.0649 O   0  0  0  0  0  0  0  0  0  0  0  0
    2.4432    0.2140   -3.9829 C   0  0  0  0  0  0  0  0  0  0  0  0
    3.1637   -1.5380   -1.4386 H   0  0  0  0  0  0  0  0  0  0  0  0
    4.1284    0.0977   -2.6383 H   0  0  0  0  0  0  0  0  0  0  0  0
    1.3569    0.3575   -3.9508 H   0  0  0  0  0  0  0  0  0  0  0  0
    2.8628    1.0064   -4.6115 H   0  0  0  0  0  0  0  0  0  0  0  0
    2.6371   -0.7472   -4.4710 H   0  0  0  0  0  0  0  0  0  0  0  0
    3.5665    2.5869   -2.3294 N   0  0  0  0  0  0  0  0  0  0  0  0
    3.4672    3.9381   -1.8289 C   0  0  0  0  0  0  0  0  0  0  0  0
    4.2999    2.3834   -3.0021 H   0  0  0  0  0  0  0  0  0  0  0  0
    2.7971    4.5215   -2.4773 H   0  0  0  0  0  0  0  0  0  0  0  0
    3.0640    3.9211   -0.8056 H   0  0  0  0  0  0  0  0  0  0  0  0
    4.4652    4.4007   -1.8222 H   0  0  0  0  0  0  0  0  0  0  0  0
  1  3  1  0  0  0  0
  1  7  1  0  0  0  0
  1  2  2  0  0  0  0
 21 22  1  0  0  0  0
 22 24  1  0  0  0  0
 22 23  2  0  0  0  0
 32 33  1  0  0  0  0
 33 41  1  0  0  0  0
 33 34  2  0  0  0  0
  8  9  1  0  0  0  0
  9 17  1  0  0  0  0
  9 10  2  0  0  0  0
 18 19  1  0  0  0  0
 19 31  1  0  0  0  0
 19 20  2  0  0  0  0
 32 35  1  0  0  0  0
  8 11  1  0  0  0  0
 41 42  1  0  0  0  0
 18 21  1  0  0  0  0
 31 32  1  0  0  0  0
  7  8  1  0  0  0  0
 17 18  1  0  0  0  0
  3  4  1  0  0  0  0
  3  5  1  0  0  0  0
  3  6  1  0  0  0  0
 35 38  1  0  0  0  0
 35 39  1  0  0  0  0
 35 40  1  0  0  0  0
 11 14  1  0  0  0  0
 11 15  1  0  0  0  0
 11 16  1  0  0  0  0
 42 44  1  0  0  0  0
 42 45  1  0  0  0  0
 42 46  1  0  0  0  0
 21 27  1  0  0  0  0
 21 28  1  0  0  0  0
 32 37  1  0  0  0  0
  8 13  1  0  0  0  0
 18 26  1  0  0  0  0
 24 29  1  0  0  0  0
 24 30  1  0  0  0  0
 41 43  1  0  0  0  0
  7 12  1  0  0  0  0
 31 36  1  0  0  0  0
 17 25  1  0  0  0  0
M  END
$$$$

  -OEChem-05262214473D

 46 45  0     1  0  0  0  0  0999 V2000
   -0.0543    1.9736    3.8406 C   0  0  0  0  0  0  0  0  0  0  0  0
    0.6744    1.6099    4.7562 O   0  0  0  0  0  0  0  0  0  0  0  0
   -0.5599    3.3779    3.8160 C   0  0  0  0  0  0  0  0  0  0  0  0
   -1.5202    3.4885    4.3450 H   0  0  0  0  0  0  0  0  0  0  0  0
    0.1282    4.0814    4.3116 H   0  0  0  0  0  0  0  0  0  0  0  0
   -0.7317    3.7994    2.8126 H   0  0  0  0  0  0  0  0  0  0  0  0
   -0.4812    1.1968    2.7762 N   0  0  0  0  0  0  0  0  0  0  0  0
   -0.1106   -0.1834    2.6051 C   0  0  2  0  0  0  0  0  0  0  0  0
   -0.0696   -0.4775    1.1113 C   0  0  0  0  0  0  0  0  0  0  0  0
   -0.6805    0.1900    0.2792 O   0  0  0  0  0  0  0  0  0  0  0  0
   -1.0852   -1.1101    3.3150 C   0  0  0  0  0  0  0  0  0  0  0  0
   -1.0883    1.6241    2.0791 H   0  0  0  0  0  0  0  0  0  0  0  0
    0.8937   -0.2959    3.0277 H   0  0  0  0  0  0  0  0  0  0  0  0
   -2.0970   -1.0114    2.9051 H   0  0  0  0  0  0  0  0  0  0  0  0
   -0.7860   -2.1580    3.2078 H   0  0  0  0  0  0  0  0  0  0  0  0
   -1.1357   -0.8775    4.3842 H   0  0  0  0  0  0  0  0  0  0  0  0
    0.6950   -1.6003    0.8178 N   0  0  0  0  0  0  0  0  0  0  0  0
    0.8777   -2.0908   -0.5246 C   0  0  2  0  0  0  0  0  0  0  0  0
    1.1793   -0.8919   -1.4149 C   0  0  0  0  0  0  0  0  0  0  0  0
    0.4223    0.0706   -1.5247 O   0  0  0  0  0  0  0  0  0  0  0  0
   -0.3556   -2.8400   -1.0298 C   0  0  0  0  0  0  0  0  0  0  0  0
   -0.5709   -4.1730   -0.3351 C   0  0  0  0  0  0  0  0  0  0  0  0
    0.3290   -4.9657   -0.0735 O   0  0  0  0  0  0  0  0  0  0  0  0
   -1.8963   -4.3923   -0.0246 N   0  0  0  0  0  0  0  0  0  0  0  0
    1.1810   -2.0803    1.5718 H   0  0  0  0  0  0  0  0  0  0  0  0
    1.7559   -2.7465   -0.5008 H   0  0  0  0  0  0  0  0  0  0  0  0
   -1.2592   -2.2402   -0.8628 H   0  0  0  0  0  0  0  0  0  0  0  0
   -0.2816   -3.0185   -2.1103 H   0  0  0  0  0  0  0  0  0  0  0  0
   -2.6069   -3.7066   -0.2571 H   0  0  0  0  0  0  0  0  0  0  0  0
   -2.2120   -5.2364    0.4424 H   0  0  0  0  0  0  0  0  0  0  0  0
    2.4162   -0.9973   -2.0353 N   0  0  0  0  0  0  0  0  0  0  0  0
    2.9265    0.0341   -2.9066 C   0  0  2  0  0  0  0  0  0  0  0  0
    2.9783    1.3346   -2.1158 C   0  0  0  0  0  0  0  0  0  0  0  0
    2.2911    1.5405   -1.1175 O   0  0  0  0  0  0  0  0  0  0  0  0
    2.0620    0.1871   -4.1484 C   0  0  0  0  0  0  0  0  0  0  0  0
    2.9928   -1.8176   -1.8730 H   0  0  0  0  0  0  0  0  0  0  0  0
    3.9424   -0.2637   -3.1880 H   0  0  0  0  0  0  0  0  0  0  0  0
    1.0402    0.4851   -3.8863 H   0  0  0  0  0  0  0  0  0  0  0  0
    2.4664    0.9500   -4.8218 H   0  0  0  0  0  0  0  0  0  0  0  0
    2.0016   -0.7573   -4.7000 H   0  0  0  0  0  0  0  0  0  0  0  0
    3.8504    2.2546   -2.6808 N   0  0  0  0  0  0  0  0  0  0  0  0
    4.0658    3.5692   -2.1228 C   0  0  0  0  0  0  0  0  0  0  0  0
    4.3935    1.9917   -3.4979 H   0  0  0  0  0  0  0  0  0  0  0  0
    3.3795    4.2863   -2.5968 H   0  0  0  0  0  0  0  0  0  0  0  0
    3.8776    3.5429   -1.0393 H   0  0  0  0  0  0  0  0  0  0  0  0
    5.1049    3.8798   -2.3070 H   0  0  0  0  0  0  0  0  0  0  0  0
  1  3  1  0  0  0  0
  1  7  1  0  0  0  0
  1  2  2  0  0  0  0
 21 22  1  0  0  0  0
 22 24  1  0  0  0  0
 22 23  2  0  0  0  0
 32 33  1  0  0  0  0
 33 41  1  0  0  0  0
 33 34  2  0  0  0  0
  8  9  1  0  0  0  0
  9 17  1  0  0  0  0
  9 10  2  0  0  0  0
 18 19  1  0  0  0  0
 19 31  1  0  0  0  0
 19 20  2  0  0  0  0
 32 35  1  0  0  0  0
  8 11  1  0  0  0  0
 41 42  1  0  0  0  0
 18 21  1  0  0  0  0
 31 32  1  0  0  0  0
  7  8  1  0  0  0  0
 17 18  1  0  0  0  0
  3  4  1  0  0  0  0
  3  5  1  0  0  0  0
  3  6  1  0  0  0  0
 35 38  1  0  0  0  0
 35 39  1  0  0  0  0
 35 40  1  0  0  0  0
 11 14  1  0  0  0  0
 11 15  1  0  0  0  0
 11 16  1  0  0  0  0
 42 44  1  0  0  0  0
 42 45  1  0  0  0  0
 42 46  1  0  0  0  0
 21 27  1  0  0  0  0
 21 28  1  0  0  0  0
 32 37  1  0  0  0  0
  8 13  1  0  0  0  0
 18 26  1  0  0  0  0
 24 29  1  0  0  0  0
 24 30  1  0  0  0  0
 41 43  1  0  0  0  0
  7 12  1  0  0  0  0
 31 36  1  0  0  0  0
 17 25  1  0  0  0  0
M  END
$$$$

  -OEChem-05262214473D

 46 45  0     1  0  0  0  0  0999 V2000
   -0.0543    1.9736    3.8406 C   0  0  0  0  0  0  0  0  0  0  0  0
    0.6744    1.6099    4.7562 O   0  0  0  0  0  0  0  0  0  0  0  0
   -0.5599    3.3779    3.8160 C   0  0  0  0  0  0  0  0  0  0  0  0
   -1.5202    3.4885    4.3450 H   0  0  0  0  0  0  0  0  0  0  0  0
    0.1282    4.0814    4.3116 H   0  0  0  0  0  0  0  0  0  0  0  0
   -0.7317    3.7994    2.8126 H   0  0  0  0  0  0  0  0  0  0  0  0
   -0.4812    1.1968    2.7762 N   0  0  0  0  0  0  0  0  0  0  0  0
   -0.1106   -0.1834    2.6051 C   0  0  2  0  0  0  0  0  0  0  0  0
   -0.0696   -0.4775    1.1113 C   0  0  0  0  0  0  0  0  0  0  0  0
   -0.6805    0.1900    0.2792 O   0  0  0  0  0  0  0  0  0  0  0  0
   -1.0852   -1.1101    3.3150 C   0  0  0  0  0  0  0  0  0  0  0  0
   -1.0883    1.6241    2.0791 H   0  0  0  0  0  0  0  0  0  0  0  0
    0.8937   -0.2959    3.0277 H   0  0  0  0  0  0  0  0  0  0  0  0
   -2.0970   -1.0114    2.9051 H   0  0  0  0  0  0  0  0  0  0  0  0
   -0.7860   -2.1580    3.2078 H   0  0  0  0  0  0  0  0  0  0  0  0
   -1.1357   -0.8775    4.3842 H   0  0  0  0  0  0  0  0  0  0  0  0
    0.6950   -1.6003    0.8178 N   0  0  0  0  0  0  0  0  0  0  0  0
    0.8777   -2.0908   -0.5246 C   0  0  2  0  0  0  0  0  0  0  0  0
    1.1793   -0.8919   -1.4149 C   0  0  0  0  0  0  0  0  0  0  0  0
    0.5758    0.1759   -1.3308 O   0  0  0  0  0  0  0  0  0  0  0  0
   -0.3556   -2.8400   -1.0298 C   0  0  0  0  0  0  0  0  0  0  0  0
   -0.5709   -4.1730   -0.3351 C   0  0  0  0  0  0  0  0  0  0  0  0
    0.3290   -4.9657   -0.0735 O   0  0  0  0  0  0  0  0  0  0  0  0
   -1.8963   -4.3923   -0.0246 N   0  0  0  0  0  0  0  0  0  0  0  0
    1.1810   -2.0803    1.5718 H   0  0  0  0  0  0  0  0  0  0  0  0
    1.7559   -2.7465   -0.5008 H   0  0  0  0  0  0  0  0  0  0  0  0
   -1.2592   -2.2402   -0.8628 H   0  0  0  0  0  0  0  0  0  0  0  0
   -0.2816   -3.0185   -2.1103 H   0  0  0  0  0  0  0  0  0  0  0  0
   -2.6069   -3.7066   -0.2571 H   0  0  0  0  0  0  0  0  0  0  0  0
   -2.2120   -5.2364    0.4424 H   0  0  0  0  0  0  0  0  0  0  0  0
    2.2353   -1.1349   -2.2820 N   0  0  0  0  0  0  0  0  0  0  0  0
    2.7163   -0.1331   -3.2029 C   0  0  2  0  0  0  0  0  0  0  0  0
    3.1280    1.0901   -2.3943 C   0  0  0  0  0  0  0  0  0  0  0  0
    2.6949    1.3268   -1.2685 O   0  0  0  0  0  0  0  0  0  0  0  0
    1.6561    0.2272   -4.2319 C   0  0  0  0  0  0  0  0  0  0  0  0
    2.6970   -2.0396   -2.2722 H   0  0  0  0  0  0  0  0  0  0  0  0
    3.5962   -0.5564   -3.6995 H   0  0  0  0  0  0  0  0  0  0  0  0
    0.7667    0.6529   -3.7530 H   0  0  0  0  0  0  0  0  0  0  0  0
    2.0321    0.9662   -4.9470 H   0  0  0  0  0  0  0  0  0  0  0  0
    1.3396   -0.6592   -4.7922 H   0  0  0  0  0  0  0  0  0  0  0  0
    4.0027    1.9086   -3.0950 N   0  0  0  0  0  0  0  0  0  0  0  0
    4.5284    3.1374   -2.5475 C   0  0  0  0  0  0  0  0  0  0  0  0
    4.3237    1.6246   -4.0159 H   0  0  0  0  0  0  0  0  0  0  0  0
    3.8821    3.9771   -2.8428 H   0  0  0  0  0  0  0  0  0  0  0  0
    4.5586    3.0664   -1.4502 H   0  0  0  0  0  0  0  0  0  0  0  0
    5.5453    3.3046   -2.9322 H   0  0  0  0  0  0  0  0  0  0  0  0
  1  3  1  0  0  0  0
  1  7  1  0  0  0  0
  1  2  2  0  0  0  0
 21 22  1  0  0  0  0
 22 24  1  0  0  0  0
 22 23  2  0  0  0  0
 32 33  1  0  0  0  0
 33 41  1  0  0  0  0
 33 34  2  0  0  0  0
  8  9  1  0  0  0  0
  9 17  1  0  0  0  0
  9 10  2  0  0  0  0
 18 19  1  0  0  0  0
 19 31  1  0  0  0  0
 19 20  2  0  0  0  0
 32 35  1  0  0  0  0
  8 11  1  0  0  0  0
 41 42  1  0  0  0  0
 18 21  1  0  0  0  0
 31 32  1  0  0  0  0
  7  8  1  0  0  0  0
 17 18  1  0  0  0  0
  3  4  1  0  0  0  0
  3  5  1  0  0  0  0
  3  6  1  0  0  0  0
 35 38  1  0  0  0  0
 35 39  1  0  0  0  0
 35 40  1  0  0  0  0
 11 14  1  0  0  0  0
 11 15  1  0  0  0  0
 11 16  1  0  0  0  0
 42 44  1  0  0  0  0
 42 45  1  0  0  0  0
 42 46  1  0  0  0  0
 21 27  1  0  0  0  0
 21 28  1  0  0  0  0
 32 37  1  0  0  0  0
  8 13  1  0  0  0  0
 18 26  1  0  0  0  0
 24 29  1  0  0  0  0
 24 30  1  0  0  0  0
 41 43  1  0  0  0  0
  7 12  1  0  0  0  0
 31 36  1  0  0  0  0
 17 25  1  0  0  0  0
M  END
$$$$

  -OEChem-05262214473D

 46 45  0     1  0  0  0  0  0999 V2000
   -0.0543    1.9736    3.8406 C   0  0  0  0  0  0  0  0  0  0  0  0
    0.6744    1.6099    4.7562 O   0  0  0  0  0  0  0  0  0  0  0  0
   -0.5599    3.3779    3.8160 C   0  0  0  0  0  0  0  0  0  0  0  0
   -1.5202    3.4885    4.3450 H   0  0  0  0  0  0  0  0  0  0  0  0
    0.1282    4.0814    4.3116 H   0  0  0  0  0  0  0  0  0  0  0  0
   -0.7317    3.7994    2.8126 H   0  0  0  0  0  0  0  0  0  0  0  0
   -0.4812    1.1968    2.7762 N   0  0  0  0  0  0  0  0  0  0  0  0
   -0.1106   -0.1834    2.6051 C   0  0  2  0  0  0  0  0  0  0  0  0
   -0.0696   -0.4775    1.1113 C   0  0  0  0  0  0  0  0  0  0  0  0
   -0.6805    0.1900    0.2792 O   0  0  0  0  0  0  0  0  0  0  0  0
   -1.0852   -1.1101    3.3150 C   0  0  0  0  0  0  0  0  0  0  0  0
   -1.0883    1.6241    2.0791 H   0  0  0  0  0  0  0  0  0  0  0  0
    0.8937   -0.2959    3.0277 H   0  0  0  0  0  0  0  0  0  0  0  0
   -2.0970   -1.0114    2.9051 H   0  0  0  0  0  0  0  0  0  0  0  0
   -0.7860   -2.1580    3.2078 H   0  0  0  0  0  0  0  0  0  0  0  0
   -1.1357   -0.8775    4.3842 H   0  0  0  0  0  0  0  0  0  0  0  0
    0.6950   -1.6003    0.8178 N   0  0  0  0  0  0  0  0  0  0  0  0
    0.8777   -2.0908   -0.5246 C   0  0  2  0  0  0  0  0  0  0  0  0
    1.1793   -0.8919   -1.4149 C   0  0  0  0  0  0  0  0  0  0  0  0
    0.7795    0.2445   -1.1694 O   0  0  0  0  0  0  0  0  0  0  0  0
   -0.3556   -2.8400   -1.0298 C   0  0  0  0  0  0  0  0  0  0  0  0
   -0.5709   -4.1730   -0.3351 C   0  0  0  0  0  0  0  0  0  0  0  0
    0.3290   -4.9657   -0.0735 O   0  0  0  0  0  0  0  0  0  0  0  0
   -1.8963   -4.3923   -0.0246 N   0  0  0  0  0  0  0  0  0  0  0  0
    1.1810   -2.0803    1.5718 H   0  0  0  0  0  0  0  0  0  0  0  0
    1.7559   -2.7465   -0.5008 H   0  0  0  0  0  0  0  0  0  0  0  0
   -1.2592   -2.2402   -0.8628 H   0  0  0  0  0  0  0  0  0  0  0  0
   -0.2816   -3.0185   -2.1103 H   0  0  0  0  0  0  0  0  0  0  0  0
   -2.6069   -3.7066   -0.2571 H   0  0  0  0  0  0  0  0  0  0  0  0
   -2.2120   -5.2364    0.4424 H   0  0  0  0  0  0  0  0  0  0  0  0
    1.9895   -1.2279   -2.4904 N   0  0  0  0  0  0  0  0  0  0  0  0
    2.4276   -0.2476   -3.4549 C   0  0  2  0  0  0  0  0  0  0  0  0
    3.1789    0.8455   -2.7064 C   0  0  0  0  0  0  0  0  0  0  0  0
    3.0219    1.0670   -1.5075 O   0  0  0  0  0  0  0  0  0  0  0  0
    1.2530    0.3316   -4.2279 C   0  0  0  0  0  0  0  0  0  0  0  0
    2.2964   -2.1889   -2.6089 H   0  0  0  0  0  0  0  0  0  0  0  0
    3.1133   -0.7607   -4.1381 H   0  0  0  0  0  0  0  0  0  0  0  0
    0.5551    0.8495   -3.5600 H   0  0  0  0  0  0  0  0  0  0  0  0
    1.5897    1.0540   -4.9787 H   0  0  0  0  0  0  0  0  0  0  0  0
    0.6962   -0.4597   -4.7415 H   0  0  0  0  0  0  0  0  0  0  0  0
    4.0131    1.5727   -3.5439 N   0  0  0  0  0  0  0  0  0  0  0  0
    4.8234    2.6722   -3.0741 C   0  0  0  0  0  0  0  0  0  0  0  0
    4.0952    1.3071   -4.5209 H   0  0  0  0  0  0  0  0  0  0  0  0
    4.2707    3.6150   -3.1987 H   0  0  0  0  0  0  0  0  0  0  0  0
    5.0606    2.5242   -2.0102 H   0  0  0  0  0  0  0  0  0  0  0  0
    5.7563    2.7145   -3.6553 H   0  0  0  0  0  0  0  0  0  0  0  0
  1  3  1  0  0  0  0
  1  7  1  0  0  0  0
  1  2  2  0  0  0  0
 21 22  1  0  0  0  0
 22 24  1  0  0  0  0
 22 23  2  0  0  0  0
 32 33  1  0  0  0  0
 33 41  1  0  0  0  0
 33 34  2  0  0  0  0
  8  9  1  0  0  0  0
  9 17  1  0  0  0  0
  9 10  2  0  0  0  0
 18 19  1  0  0  0  0
 19 31  1  0  0  0  0
 19 20  2  0  0  0  0
 32 35  1  0  0  0  0
  8 11  1  0  0  0  0
 41 42  1  0  0  0  0
 18 21  1  0  0  0  0
 31 32  1  0  0  0  0
  7  8  1  0  0  0  0
 17 18  1  0  0  0  0
  3  4  1  0  0  0  0
  3  5  1  0  0  0  0
  3  6  1  0  0  0  0
 35 38  1  0  0  0  0
 35 39  1  0  0  0  0
 35 40  1  0  0  0  0
 11 14  1  0  0  0  0
 11 15  1  0  0  0  0
 11 16  1  0  0  0  0
 42 44  1  0  0  0  0
 42 45  1  0  0  0  0
 42 46  1  0  0  0  0
 21 27  1  0  0  0  0
 21 28  1  0  0  0  0
 32 37  1  0  0  0  0
  8 13  1  0  0  0  0
 18 26  1  0  0  0  0
 24 29  1  0  0  0  0
 24 30  1  0  0  0  0
 41 43  1  0  0  0  0
  7 12  1  0  0  0  0
 31 36  1  0  0  0  0
 17 25  1  0  0  0  0
M  END
$$$$

  -OEChem-05262214473D

 46 45  0     1  0  0  0  0  0999 V2000
   -0.0543    1.9736    3.8406 C   0  0  0  0  0  0  0  0  0  0  0  0
    0.6744    1.6099    4.7562 O   0  0  0  0  0  0  0  0  0  0  0  0
   -0.5599    3.3779    3.8160 C   0  0  0  0  0  0  0  0  0  0  0  0
   -1.5202    3.4885    4.3450 H   0  0  0  0  0  0  0  0  0  0  0  0
    0.1282    4.0814    4.3116 H   0  0  0  0  0  0  0  0  0  0  0  0
   -0.7317    3.7994    2.8126 H   0  0  0  0  0  0  0  0  0  0  0  0
   -0.4812    1.1968    2.7762 N   0  0  0  0  0  0  0  0  0  0  0  0
   -0.1106   -0.1834    2.6051 C   0  0  2  0  0  0  0  0  0  0  0  0
   -0.0696   -0.4775    1.1113 C   0  0  0  0  0  0  0  0  0  0  0  0
   -0.6805    0.1900    0.2792 O   0  0  0  0  0  0  0  0  0  0  0  0
   -1.0852   -1.1101    3.3150 C   0  0  0  0  0  0  0  0  0  0  0  0
   -1.0883    1.6241    2.0791 H   0  0  0  0  0  0  0  0  0  0  0  0
    0.8937   -0.2959    3.0277 H   0  0  0  0  0  0  0  0  0  0  0  0
   -2.0970   -1.0114    2.9051 H   0  0  0  0  0  0  0  0  0  0  0  0
   -0.7860   -2.1580    3.2078 H   0  0  0  0  0  0  0  0  0  0  0  0
   -1.1357   -0.8775    4.3842 H   0  0  0  0  0  0  0  0  0  0  0  0
    0.6950   -1.6003    0.8178 N   0  0  0  0  0  0  0  0  0  0  0  0
    0.8777   -2.0908   -0.5246 C   0  0  2  0  0  0  0  0  0  0  0  0
    1.1793   -0.8919   -1.4149 C   0  0  0  0  0  0  0  0  0  0  0  0
    1.0196    0.2717   -1.0515 O   0  0  0  0  0  0  0  0  0  0  0  0
   -0.3556   -2.8400   -1.0298 C   0  0  0  0  0  0  0  0  0  0  0  0
   -0.5709   -4.1730   -0.3351 C   0  0  0  0  0  0  0  0  0  0  0  0
    0.3290   -4.9657   -0.0735 O   0  0  0  0  0  0  0  0  0  0  0  0
   -1.8963   -4.3923   -0.0246 N   0  0  0  0  0  0  0  0  0  0  0  0
    1.1810   -2.0803    1.5718 H   0  0  0  0  0  0  0  0  0  0  0  0
    1.7559   -2.7465   -0.5008 H   0  0  0  0  0  0  0  0  0  0  0  0
   -1.2592   -2.2402   -0.8628 H   0  0  0  0  0  0  0  0  0  0  0  0
   -0.2816   -3.0185   -2.1103 H   0  0  0  0  0  0  0  0  0  0  0  0
   -2.6069   -3.7066   -0.2571 H   0  0  0  0  0  0  0  0  0  0  0  0
   -2.2120   -5.2364    0.4424 H   0  0  0  0  0  0  0  0  0  0  0  0
    1.6955   -1.2698   -2.6464 N   0  0  0  0  0  0  0  0  0  0  0  0
    2.0802   -0.3017   -3.6454 C   0  0  2  0  0  0  0  0  0  0  0  0
    3.1274    0.6176   -3.0308 C   0  0  0  0  0  0  0  0  0  0  0  0
    3.2498    0.7789   -1.8183 O   0  0  0  0  0  0  0  0  0  0  0  0
    0.8803    0.4932   -4.1365 C   0  0  0  0  0  0  0  0  0  0  0  0
    1.8183   -2.2552   -2.8602 H   0  0  0  0  0  0  0  0  0  0  0  0
    2.5266   -0.8624   -4.4739 H   0  0  0  0  0  0  0  0  0  0  0  0
    0.4197    1.0616   -3.3203 H   0  0  0  0  0  0  0  0  0  0  0  0
    1.1691    1.2073   -4.9147 H   0  0  0  0  0  0  0  0  0  0  0  0
    0.1153   -0.1722   -4.5512 H   0  0  0  0  0  0  0  0  0  0  0  0
    3.8810    1.2696   -3.9968 N   0  0  0  0  0  0  0  0  0  0  0  0
    4.9307    2.2051   -3.6666 C   0  0  0  0  0  0  0  0  0  0  0  0
    3.7237    1.0608   -4.9783 H   0  0  0  0  0  0  0  0  0  0  0  0
    4.5188    3.2248   -3.6402 H   0  0  0  0  0  0  0  0  0  0  0  0
    5.3495    1.9533   -2.6812 H   0  0  0  0  0  0  0  0  0  0  0  0
    5.7236    2.1497   -4.4271 H   0  0  0  0  0  0  0  0  0  0  0  0
  1  3  1  0  0  0  0
  1  7  1  0  0  0  0
  1  2  2  0  0  0  0
 21 22  1  0  0  0  0
 22 24  1  0  0  0  0
 22 23  2  0  0  0  0
 32 33  1  0  0  0  0
 33 41  1  0  0  0  0
 33 34  2  0  0  0  0
  8  9  1  0  0  0  0
  9 17  1  0  0  0  0
  9 10  2  0  0  0  0
 18 19  1  0  0  0  0
 19 31  1  0  0  0  0
 19 20  2  0  0  0  0
 32 35  1  0  0  0  0
  8 11  1  0  0  0  0
 41 42  1  0  0  0  0
 18 21  1  0  0  0  0
 31 32  1  0  0  0  0
  7  8  1  0  0  0  0
 17 18  1  0  0  0  0
  3  4  1  0  0  0  0
  3  5  1  0  0  0  0
  3  6  1  0  0  0  0
 35 38  1  0  0  0  0
 35 39  1  0  0  0  0
 35 40  1  0  0  0  0
 11 14  1  0  0  0  0
 11 15  1  0  0  0  0
 11 16  1  0  0  0  0
 42 44  1  0  0  0  0
 42 45  1  0  0  0  0
 42 46  1  0  0  0  0
 21 27  1  0  0  0  0
 21 28  1  0  0  0  0
 32 37  1  0  0  0  0
  8 13  1  0  0  0  0
 18 26  1  0  0  0  0
 24 29  1  0  0  0  0
 24 30  1  0  0  0  0
 41 43  1  0  0  0  0
  7 12  1  0  0  0  0
 31 36  1  0  0  0  0
 17 25  1  0  0  0  0
M  END
$$$$

  -OEChem-05262214473D

 46 45  0     1  0  0  0  0  0999 V2000
   -0.0543    1.9736    3.8406 C   0  0  0  0  0  0  0  0  0  0  0  0
    0.6744    1.6099    4.7562 O   0  0  0  0  0  0  0  0  0  0  0  0
   -0.5599    3.3779    3.8160 C   0  0  0  0  0  0  0  0  0  0  0  0
   -1.5202    3.4885    4.3450 H   0  0  0  0  0  0  0  0  0  0  0  0
    0.1282    4.0814    4.3116 H   0  0  0  0  0  0  0  0  0  0  0  0
   -0.7317    3.7994    2.8126 H   0  0  0  0  0  0  0  0  0  0  0  0
   -0.4812    1.1968    2.7762 N   0  0  0  0  0  0  0  0  0  0  0  0
   -0.1106   -0.1834    2.6051 C   0  0  2  0  0  0  0  0  0  0  0  0
   -0.0696   -0.4775    1.1113 C   0  0  0  0  0  0  0  0  0  0  0  0
   -0.6805    0.1900    0.2792 O   0  0  0  0  0  0  0  0  0  0  0  0
   -1.0852   -1.1101    3.3150 C   0  0  0  0  0  0  0  0  0  0  0  0
   -1.0883    1.6241    2.0791 H   0  0  0  0  0  0  0  0  0  0  0  0
    0.8937   -0.2959    3.0277 H   0  0  0  0  0  0  0  0  0  0  0  0
   -2.0970   -1.0114    2.9051 H   0  0  0  0  0  0  0  0  0  0  0  0
   -0.7860   -2.1580    3.2078 H   0  0  0  0  0  0  0  0  0  0  0  0
   -1.1357   -0.8775    4.3842 H   0  0  0  0  0  0  0  0  0  0  0  0
    0.6950   -1.6003    0.8178 N   0  0  0  0  0  0  0  0  0  0  0  0
    0.8777   -2.0908   -0.5246 C   0  0  2  0  0  0  0  0  0  0  0  0
    1.5386   -0.9816   -1.3333 C   0  0  0  0  0  0  0  0  0  0  0  0
    1.8709    0.0975   -0.8469 O   0  0  0  0  0  0  0  0  0  0  0  0
   -0.4472   -2.5071   -1.1639 C   0  0  0  0  0  0  0  0  0  0  0  0
   -1.0388   -3.7631   -0.5486 C   0  0  0  0  0  0  0  0  0  0  0  0
   -0.3832   -4.7559   -0.2471 O   0  0  0  0  0  0  0  0  0  0  0  0
   -2.4009   -3.6610   -0.3605 N   0  0  0  0  0  0  0  0  0  0  0  0
    1.1810   -2.0803    1.5718 H   0  0  0  0  0  0  0  0  0  0  0  0
    1.5671   -2.9403   -0.4556 H   0  0  0  0  0  0  0  0  0  0  0  0
   -1.1922   -1.7098   -1.0474 H   0  0  0  0  0  0  0  0  0  0  0  0
   -0.3190   -2.6744   -2.2411 H   0  0  0  0  0  0  0  0  0  0  0  0
   -2.9020   -2.8184   -0.6219 H   0  0  0  0  0  0  0  0  0  0  0  0
   -2.9514   -4.4134    0.0410 H   0  0  0  0  0  0  0  0  0  0  0  0
    1.7606   -1.3545   -2.6514 N   0  0  0  0  0  0  0  0  0  0  0  0
    2.3996   -0.4735   -3.5994 C   0  0  2  0  0  0  0  0  0  0  0  0
    3.7689   -0.1012   -3.0465 C   0  0  0  0  0  0  0  0  0  0  0  0
    4.0488   -0.1620   -1.8510 O   0  0  0  0  0  0  0  0  0  0  0  0
    1.5599    0.7688   -3.8533 C   0  0  0  0  0  0  0  0  0  0  0  0
    1.4759   -2.2764   -2.9689 H   0  0  0  0  0  0  0  0  0  0  0  0
    2.5222   -1.0427   -4.5273 H   0  0  0  0  0  0  0  0  0  0  0  0
    1.4262    1.3520   -2.9349 H   0  0  0  0  0  0  0  0  0  0  0  0
    2.0323    1.4224   -4.5940 H   0  0  0  0  0  0  0  0  0  0  0  0
    0.5649    0.4978   -4.2228 H   0  0  0  0  0  0  0  0  0  0  0  0
    4.6282    0.3479   -4.0395 N   0  0  0  0  0  0  0  0  0  0  0  0
    5.9814    0.7726   -3.7661 C   0  0  0  0  0  0  0  0  0  0  0  0
    4.3180    0.3470   -5.0067 H   0  0  0  0  0  0  0  0  0  0  0  0
    5.9973    1.8587   -3.5923 H   0  0  0  0  0  0  0  0  0  0  0  0
    6.3550    0.2527   -2.8716 H   0  0  0  0  0  0  0  0  0  0  0  0
    6.6226    0.5296   -4.6262 H   0  0  0  0  0  0  0  0  0  0  0  0
  1  3  1  0  0  0  0
  1  7  1  0  0  0  0
  1  2  2  0  0  0  0
 21 22  1  0  0  0  0
 22 24  1  0  0  0  0
 22 23  2  0  0  0  0
 32 33  1  0  0  0  0
 33 41  1  0  0  0  0
 33 34  2  0  0  0  0
  8  9  1  0  0  0  0
  9 17  1  0  0  0  0
  9 10  2  0  0  0  0
 18 19  1  0  0  0  0
 19 31  1  0  0  0  0
 19 20  2  0  0  0  0
 32 35  1  0  0  0  0
  8 11  1  0  0  0  0
 41 42  1  0  0  0  0
 18 21  1  0  0  0  0
 31 32  1  0  0  0  0
  7  8  1  0  0  0  0
 17 18  1  0  0  0  0
  3  4  1  0  0  0  0
  3  5  1  0  0  0  0
  3  6  1  0  0  0  0
 35 38  1  0  0  0  0
 35 39  1  0  0  0  0
 35 40  1  0  0  0  0
 11 14  1  0  0  0  0
 11 15  1  0  0  0  0
 11 16  1  0  0  0  0
 42 44  1  0  0  0  0
 42 45  1  0  0  0  0
 42 46  1  0  0  0  0
 21 27  1  0  0  0  0
 21 28  1  0  0  0  0
 32 37  1  0  0  0  0
  8 13  1  0  0  0  0
 18 26  1  0  0  0  0
 24 29  1  0  0  0  0
 24 30  1  0  0  0  0
 41 43  1  0  0  0  0
  7 12  1  0  0  0  0
 31 36  1  0  0  0  0
 17 25  1  0  0  0  0
M  END
$$$$

  -OEChem-05262214473D

 46 45  0     1  0  0  0  0  0999 V2000
   -0.0543    1.9736    3.8406 C   0  0  0  0  0  0  0  0  0  0  0  0
    0.6744    1.6099    4.7562 O   0  0  0  0  0  0  0  0  0  0  0  0
   -0.5599    3.3779    3.8160 C   0  0  0  0  0  0  0  0  0  0  0  0
   -1.5202    3.4885    4.3450 H   0  0  0  0  0  0  0  0  0  0  0  0
    0.1282    4.0814    4.3116 H   0  0  0  0  0  0  0  0  0  0  0  0
   -0.7317    3.7994    2.8126 H   0  0  0  0  0  0  0  0  0  0  0  0
   -0.4812    1.1968    2.7762 N   0  0  0  0  0  0  0  0  0  0  0  0
   -0.1106   -0.1834    2.6051 C   0  0  2  0  0  0  0  0  0  0  0  0
   -0.0696   -0.4775    1.1113 C   0  0  0  0  0  0  0  0  0  0  0  0
   -0.6805    0.1900    0.2792 O   0  0  0  0  0  0  0  0  0  0  0  0
   -1.0852   -1.1101    3.3150 C   0  0  0  0  0  0  0  0  0  0  0  0
   -1.0883    1.6241    2.0791 H   0  0  0  0  0  0  0  0  0  0  0  0
    0.8937   -0.2959    3.0277 H   0  0  0  0  0  0  0  0  0  0  0  0
   -2.0970   -1.0114    2.9051 H   0  0  0  0  0  0  0  0  0  0  0  0
   -0.7860   -2.1580    3.2078 H   0  0  0  0  0  0  0  0  0  0  0  0
   -1.1357   -0.8775    4.3842 H   0  0  0  0  0  0  0  0  0  0  0  0
    0.6950   -1.6003    0.8178 N   0  0  0  0  0  0  0  0  0  0  0  0
    0.8777   -2.0908   -0.5246 C   0  0  2  0  0  0  0  0  0  0  0  0
    1.5386   -0.9816   -1.3333 C   0  0  0  0  0  0  0  0  0  0  0  0
    2.1094   -0.0228   -0.8170 O   0  0  0  0  0  0  0  0  0  0  0  0
   -0.4472   -2.5071   -1.1639 C   0  0  0  0  0  0  0  0  0  0  0  0
   -1.0388   -3.7631   -0.5486 C   0  0  0  0  0  0  0  0  0  0  0  0
   -0.3832   -4.7559   -0.2471 O   0  0  0  0  0  0  0  0  0  0  0  0
   -2.4009   -3.6610   -0.3605 N   0  0  0  0  0  0  0  0  0  0  0  0
    1.1810   -2.0803    1.5718 H   0  0  0  0  0  0  0  0  0  0  0  0
    1.5671   -2.9403   -0.4556 H   0  0  0  0  0  0  0  0  0  0  0  0
   -1.1922   -1.7098   -1.0474 H   0  0  0  0  0  0  0  0  0  0  0  0
   -0.3190   -2.6744   -2.2411 H   0  0  0  0  0  0  0  0  0  0  0  0
   -2.9020   -2.8184   -0.6219 H   0  0  0  0  0  0  0  0  0  0  0  0
   -2.9514   -4.4134    0.0410 H   0  0  0  0  0  0  0  0  0  0  0  0
    1.4612   -1.2113   -2.6997 N   0  0  0  0  0  0  0  0  0  0  0  0
    2.0418   -0.3063   -3.6626 C   0  0  2  0  0  0  0  0  0  0  0  0
    3.5283   -0.1828   -3.3551 C   0  0  0  0  0  0  0  0  0  0  0  0
    4.0073   -0.4280   -2.2498 O   0  0  0  0  0  0  0  0  0  0  0  0
    1.3635    1.0542   -3.6224 C   0  0  0  0  0  0  0  0  0  0  0  0
    0.9904   -2.0425   -3.0449 H   0  0  0  0  0  0  0  0  0  0  0  0
    1.9091   -0.7656   -4.6483 H   0  0  0  0  0  0  0  0  0  0  0  0
    1.4857    1.5297   -2.6424 H   0  0  0  0  0  0  0  0  0  0  0  0
    1.7859    1.7304   -4.3729 H   0  0  0  0  0  0  0  0  0  0  0  0
    0.2892    0.9599   -3.8143 H   0  0  0  0  0  0  0  0  0  0  0  0
    4.2510    0.2749   -4.4479 N   0  0  0  0  0  0  0  0  0  0  0  0
    5.6790    0.4872   -4.4047 C   0  0  0  0  0  0  0  0  0  0  0  0
    3.7746    0.4346   -5.3307 H   0  0  0  0  0  0  0  0  0  0  0  0
    5.8867    1.5320   -4.1307 H   0  0  0  0  0  0  0  0  0  0  0  0
    6.1269   -0.1839   -3.6570 H   0  0  0  0  0  0  0  0  0  0  0  0
    6.1112    0.2747   -5.3937 H   0  0  0  0  0  0  0  0  0  0  0  0
  1  3  1  0  0  0  0
  1  7  1  0  0  0  0
  1  2  2  0  0  0  0
 21 22  1  0  0  0  0
 22 24  1  0  0  0  0
 22 23  2  0  0  0  0
 32 33  1  0  0  0  0
 33 41  1  0  0  0  0
 33 34  2  0  0  0  0
  8  9  1  0  0  0  0
  9 17  1  0  0  0  0
  9 10  2  0  0  0  0
 18 19  1  0  0  0  0
 19 31  1  0  0  0  0
 19 20  2  0  0  0  0
 32 35  1  0  0  0  0
  8 11  1  0  0  0  0
 41 42  1  0  0  0  0
 18 21  1  0  0  0  0
 31 32  1  0  0  0  0
  7  8  1  0  0  0  0
 17 18  1  0  0  0  0
  3  4  1  0  0  0  0
  3  5  1  0  0  0  0
  3  6  1  0  0  0  0
 35 38  1  0  0  0  0
 35 39  1  0  0  0  0
 35 40  1  0  0  0  0
 11 14  1  0  0  0  0
 11 15  1  0  0  0  0
 11 16  1  0  0  0  0
 42 44  1  0  0  0  0
 42 45  1  0  0  0  0
 42 46  1  0  0  0  0
 21 27  1  0  0  0  0
 21 28  1  0  0  0  0
 32 37  1  0  0  0  0
  8 13  1  0  0  0  0
 18 26  1  0  0  0  0
 24 29  1  0  0  0  0
 24 30  1  0  0  0  0
 41 43  1  0  0  0  0
  7 12  1  0  0  0  0
 31 36  1  0  0  0  0
 17 25  1  0  0  0  0
M  END
$$$$

  -OEChem-05262214473D

 46 45  0     1  0  0  0  0  0999 V2000
   -0.0543    1.9736    3.8406 C   0  0  0  0  0  0  0  0  0  0  0  0
    0.6744    1.6099    4.7562 O   0  0  0  0  0  0  0  0  0  0  0  0
   -0.5599    3.3779    3.8160 C   0  0  0  0  0  0  0  0  0  0  0  0
   -1.5202    3.4885    4.3450 H   0  0  0  0  0  0  0  0  0  0  0  0
    0.1282    4.0814    4.3116 H   0  0  0  0  0  0  0  0  0  0  0  0
   -0.7317    3.7994    2.8126 H   0  0  0  0  0  0  0  0  0  0  0  0
   -0.4812    1.1968    2.7762 N   0  0  0  0  0  0  0  0  0  0  0  0
   -0.1106   -0.1834    2.6051 C   0  0  2  0  0  0  0  0  0  0  0  0
   -0.0696   -0.4775    1.1113 C   0  0  0  0  0  0  0  0  0  0  0  0
   -0.6805    0.1900    0.2792 O   0  0  0  0  0  0  0  0  0  0  0  0
   -1.0852   -1.1101    3.3150 C   0  0  0  0  0  0  0  0  0  0  0  0
   -1.0883    1.6241    2.0791 H   0  0  0  0  0  0  0  0  0  0  0  0
    0.8937   -0.2959    3.0277 H   0  0  0  0  0  0  0  0  0  0  0  0
   -2.0970   -1.0114    2.9051 H   0  0  0  0  0  0  0  0  0  0  0  0
   -0.7860   -2.1580    3.2078 H   0  0  0  0  0  0  0  0  0  0  0  0
   -1.1357   -0.8775    4.3842 H   0  0  0  0  0  0  0  0  0  0  0  0
    0.6950   -1.6003    0.8178 N   0  0  0  0  0  0  0  0  0  0  0  0
    0.8777   -2.0908   -0.5246 C   0  0  2  0  0  0  0  0  0  0  0  0
    1.5386   -0.9816   -1.3333 C   0  0  0  0  0  0  0  0  0  0  0  0
    2.3288   -0.1752   -0.8467 O   0  0  0  0  0  0  0  0  0  0  0  0
   -0.4472   -2.5071   -1.1639 C   0  0  0  0  0  0  0  0  0  0  0  0
   -1.0388   -3.7631   -0.5486 C   0  0  0  0  0  0  0  0  0  0  0  0
   -0.3832   -4.7559   -0.2471 O   0  0  0  0  0  0  0  0  0  0  0  0
   -2.4009   -3.6610   -0.3605 N   0  0  0  0  0  0  0  0  0  0  0  0
    1.1810   -2.0803    1.5718 H   0  0  0  0  0  0  0  0  0  0  0  0
    1.5671   -2.9403   -0.4556 H   0  0  0  0  0  0  0  0  0  0  0  0
   -1.1922   -1.7098   -1.0474 H   0  0  0  0  0  0  0  0  0  0  0  0
   -0.3190   -2.6744   -2.2411 H   0  0  0  0  0  0  0  0  0  0  0  0
   -2.9020   -2.8184   -0.6219 H   0  0  0  0  0  0  0  0  0  0  0  0
   -2.9514   -4.4134    0.0410 H   0  0  0  0  0  0  0  0  0  0  0  0
    1.1825   -1.0264   -2.6738 N   0  0  0  0  0  0  0  0  0  0  0  0
    1.7072   -0.0887   -3.6374 C   0  0  2  0  0  0  0  0  0  0  0  0
    3.2264   -0.1939   -3.6170 C   0  0  0  0  0  0  0  0  0  0  0  0
    3.8555   -0.6345   -2.6571 O   0  0  0  0  0  0  0  0  0  0  0  0
    1.2565    1.3309   -3.3302 C   0  0  0  0  0  0  0  0  0  0  0  0
    0.5393   -1.7414   -3.0005 H   0  0  0  0  0  0  0  0  0  0  0  0
    1.3322   -0.4001   -4.6184 H   0  0  0  0  0  0  0  0  0  0  0  0
    1.6228    1.6604   -2.3511 H   0  0  0  0  0  0  0  0  0  0  0  0
    1.6319    2.0370   -4.0782 H   0  0  0  0  0  0  0  0  0  0  0  0
    0.1633    1.3983   -3.3160 H   0  0  0  0  0  0  0  0  0  0  0  0
    3.7996    0.3021   -4.7796 N   0  0  0  0  0  0  0  0  0  0  0  0
    5.2273    0.3247   -4.9967 C   0  0  0  0  0  0  0  0  0  0  0  0
    3.2006    0.6303   -5.5314 H   0  0  0  0  0  0  0  0  0  0  0  0
    5.6336    1.2922   -4.6666 H   0  0  0  0  0  0  0  0  0  0  0  0
    5.6985   -0.4861   -4.4217 H   0  0  0  0  0  0  0  0  0  0  0  0
    5.4375    0.1850   -6.0674 H   0  0  0  0  0  0  0  0  0  0  0  0
  1  3  1  0  0  0  0
  1  7  1  0  0  0  0
  1  2  2  0  0  0  0
 21 22  1  0  0  0  0
 22 24  1  0  0  0  0
 22 23  2  0  0  0  0
 32 33  1  0  0  0  0
 33 41  1  0  0  0  0
 33 34  2  0  0  0  0
  8  9  1  0  0  0  0
  9 17  1  0  0  0  0
  9 10  2  0  0  0  0
 18 19  1  0  0  0  0
 19 31  1  0  0  0  0
 19 20  2  0  0  0  0
 32 35  1  0  0  0  0
  8 11  1  0  0  0  0
 41 42  1  0  0  0  0
 18 21  1  0  0  0  0
 31 32  1  0  0  0  0
  7  8  1  0  0  0  0
 17 18  1  0  0  0  0
  3  4  1  0  0  0  0
  3  5  1  0  0  0  0
  3  6  1  0  0  0  0
 35 38  1  0  0  0  0
 35 39  1  0  0  0  0
 35 40  1  0  0  0  0
 11 14  1  0  0  0  0
 11 15  1  0  0  0  0
 11 16  1  0  0  0  0
 42 44  1  0  0  0  0
 42 45  1  0  0  0  0
 42 46  1  0  0  0  0
 21 27  1  0  0  0  0
 21 28  1  0  0  0  0
 32 37  1  0  0  0  0
  8 13  1  0  0  0  0
 18 26  1  0  0  0  0
 24 29  1  0  0  0  0
 24 30  1  0  0  0  0
 41 43  1  0  0  0  0
  7 12  1  0  0  0  0
 31 36  1  0  0  0  0
 17 25  1  0  0  0  0
M  END
$$$$

  -OEChem-05262214473D

 46 45  0     1  0  0  0  0  0999 V2000
   -0.0543    1.9736    3.8406 C   0  0  0  0  0  0  0  0  0  0  0  0
    0.6744    1.6099    4.7562 O   0  0  0  0  0  0  0  0  0  0  0  0
   -0.5599    3.3779    3.8160 C   0  0  0  0  0  0  0  0  0  0  0  0
   -1.5202    3.4885    4.3450 H   0  0  0  0  0  0  0  0  0  0  0  0
    0.1282    4.0814    4.3116 H   0  0  0  0  0  0  0  0  0  0  0  0
   -0.7317    3.7994    2.8126 H   0  0  0  0  0  0  0  0  0  0  0  0
   -0.4812    1.1968    2.7762 N   0  0  0  0  0  0  0  0  0  0  0  0
   -0.1106   -0.1834    2.6051 C   0  0  2  0  0  0  0  0  0  0  0  0
   -0.0696   -0.4775    1.1113 C   0  0  0  0  0  0  0  0  0  0  0  0
   -0.6805    0.1900    0.2792 O   0  0  0  0  0  0  0  0  0  0  0  0
   -1.0852   -1.1101    3.3150 C   0  0  0  0  0  0  0  0  0  0  0  0
   -1.0883    1.6241    2.0791 H   0  0  0  0  0  0  0  0  0  0  0  0
    0.8937   -0.2959    3.0277 H   0  0  0  0  0  0  0  0  0  0  0  0
   -2.0970   -1.0114    2.9051 H   0  0  0  0  0  0  0  0  0  0  0  0
   -0.7860   -2.1580    3.2078 H   0  0  0  0  0  0  0  0  0  0  0  0
   -1.1357   -0.8775    4.3842 H   0  0  0  0  0  0  0  0  0  0  0  0
    0.6950   -1.6003    0.8178 N   0  0  0  0  0  0  0  0  0  0  0  0
    0.8777   -2.0908   -0.5246 C   0  0  2  0  0  0  0  0  0  0  0  0
    1.5386   -0.9816   -1.3333 C   0  0  0  0  0  0  0  0  0  0  0  0
    2.5143   -0.3492   -0.9338 O   0  0  0  0  0  0  0  0  0  0  0  0
   -0.4472   -2.5071   -1.1639 C   0  0  0  0  0  0  0  0  0  0  0  0
   -1.0388   -3.7631   -0.5486 C   0  0  0  0  0  0  0  0  0  0  0  0
   -0.3832   -4.7559   -0.2471 O   0  0  0  0  0  0  0  0  0  0  0  0
   -2.4009   -3.6610   -0.3605 N   0  0  0  0  0  0  0  0  0  0  0  0
    1.1810   -2.0803    1.5718 H   0  0  0  0  0  0  0  0  0  0  0  0
    1.5671   -2.9403   -0.4556 H   0  0  0  0  0  0  0  0  0  0  0  0
   -1.1922   -1.7098   -1.0474 H   0  0  0  0  0  0  0  0  0  0  0  0
   -0.3190   -2.6744   -2.2411 H   0  0  0  0  0  0  0  0  0  0  0  0
   -2.9020   -2.8184   -0.6219 H   0  0  0  0  0  0  0  0  0  0  0  0
   -2.9514   -4.4134    0.0410 H   0  0  0  0  0  0  0  0  0  0  0  0
    0.9436   -0.8124   -2.5756 N   0  0  0  0  0  0  0  0  0  0  0  0
    1.4187    0.1647   -3.5256 C   0  0  2  0  0  0  0  0  0  0  0  0
    2.8840   -0.1337   -3.8143 C   0  0  0  0  0  0  0  0  0  0  0  0
    3.6037   -0.7673   -3.0451 O   0  0  0  0  0  0  0  0  0  0  0  0
    1.2463    1.5801   -2.9968 C   0  0  0  0  0  0  0  0  0  0  0  0
    0.1533   -1.3936   -2.8389 H   0  0  0  0  0  0  0  0  0  0  0  0
    0.8308    0.0288   -4.4399 H   0  0  0  0  0  0  0  0  0  0  0  0
    1.8281    1.7351   -2.0808 H   0  0  0  0  0  0  0  0  0  0  0  0
    1.5807    2.3212   -3.7302 H   0  0  0  0  0  0  0  0  0  0  0  0
    0.1959    1.7830   -2.7616 H   0  0  0  0  0  0  0  0  0  0  0  0
    3.3049    0.4275   -5.0118 N   0  0  0  0  0  0  0  0  0  0  0  0
    4.6572    0.2963   -5.5016 C   0  0  0  0  0  0  0  0  0  0  0  0
    2.6353    0.9206   -5.5951 H   0  0  0  0  0  0  0  0  0  0  0  0
    5.2552    1.1554   -5.1635 H   0  0  0  0  0  0  0  0  0  0  0  0
    5.0990   -0.6333   -5.1135 H   0  0  0  0  0  0  0  0  0  0  0  0
    4.6476    0.2665   -6.6012 H   0  0  0  0  0  0  0  0  0  0  0  0
  1  3  1  0  0  0  0
  1  7  1  0  0  0  0
  1  2  2  0  0  0  0
 21 22  1  0  0  0  0
 22 24  1  0  0  0  0
 22 23  2  0  0  0  0
 32 33  1  0  0  0  0
 33 41  1  0  0  0  0
 33 34  2  0  0  0  0
  8  9  1  0  0  0  0
  9 17  1  0  0  0  0
  9 10  2  0  0  0  0
 18 19  1  0  0  0  0
 19 31  1  0  0  0  0
 19 20  2  0  0  0  0
 32 35  1  0  0  0  0
  8 11  1  0  0  0  0
 41 42  1  0  0  0  0
 18 21  1  0  0  0  0
 31 32  1  0  0  0  0
  7  8  1  0  0  0  0
 17 18  1  0  0  0  0
  3  4  1  0  0  0  0
  3  5  1  0  0  0  0
  3  6  1  0  0  0  0
 35 38  1  0  0  0  0
 35 39  1  0  0  0  0
 35 40  1  0  0  0  0
 11 14  1  0  0  0  0
 11 15  1  0  0  0  0
 11 16  1  0  0  0  0
 42 44  1  0  0  0  0
 42 45  1  0  0  0  0
 42 46  1  0  0  0  0
 21 27  1  0  0  0  0
 21 28  1  0  0  0  0
 32 37  1  0  0  0  0
  8 13  1  0  0  0  0
 18 26  1  0  0  0  0
 24 29  1  0  0  0  0
 24 30  1  0  0  0  0
 41 43  1  0  0  0  0
  7 12  1  0  0  0  0
 31 36  1  0  0  0  0
 17 25  1  0  0  0  0
M  END
$$$$

  -OEChem-05262214473D

 46 45  0     1  0  0  0  0  0999 V2000
   -0.0543    1.9736    3.8406 C   0  0  0  0  0  0  0  0  0  0  0  0
    0.6744    1.6099    4.7562 O   0  0  0  0  0  0  0  0  0  0  0  0
   -0.5599    3.3779    3.8160 C   0  0  0  0  0  0  0  0  0  0  0  0
   -1.5202    3.4885    4.3450 H   0  0  0  0  0  0  0  0  0  0  0  0
    0.1282    4.0814    4.3116 H   0  0  0  0  0  0  0  0  0  0  0  0
   -0.7317    3.7994    2.8126 H   0  0  0  0  0  0  0  0  0  0  0  0
   -0.4812    1.1968    2.7762 N   0  0  0  0  0  0  0  0  0  0  0  0
   -0.1106   -0.1834    2.6051 C   0  0  2  0  0  0  0  0  0  0  0  0
   -0.0696   -0.4775    1.1113 C   0  0  0  0  0  0  0  0  0  0  0  0
   -0.6805    0.1900    0.2792 O   0  0  0  0  0  0  0  0  0  0  0  0
   -1.0852   -1.1101    3.3150 C   0  0  0  0  0  0  0  0  0  0  0  0
   -1.0883    1.6241    2.0791 H   0  0  0  0  0  0  0  0  0  0  0  0
    0.8937   -0.2959    3.0277 H   0  0  0  0  0  0  0  0  0  0  0  0
   -2.0970   -1.0114    2.9051 H   0  0  0  0  0  0  0  0  0  0  0  0
   -0.7860   -2.1580    3.2078 H   0  0  0  0  0  0  0  0  0  0  0  0
   -1.1357   -0.8775    4.3842 H   0  0  0  0  0  0  0  0  0  0  0  0
    0.6950   -1.6003    0.8178 N   0  0  0  0  0  0  0  0  0  0  0  0
    0.8777   -2.0908   -0.5246 C   0  0  2  0  0  0  0  0  0  0  0  0
    1.5386   -0.9816   -1.3333 C   0  0  0  0  0  0  0  0  0  0  0  0
    2.6531   -0.5330   -1.0724 O   0  0  0  0  0  0  0  0  0  0  0  0
   -0.4472   -2.5071   -1.1639 C   0  0  0  0  0  0  0  0  0  0  0  0
   -1.0388   -3.7631   -0.5486 C   0  0  0  0  0  0  0  0  0  0  0  0
   -0.3832   -4.7559   -0.2471 O   0  0  0  0  0  0  0  0  0  0  0  0
   -2.4009   -3.6610   -0.3605 N   0  0  0  0  0  0  0  0  0  0  0  0
    1.1810   -2.0803    1.5718 H   0  0  0  0  0  0  0  0  0  0  0  0
    1.5671   -2.9403   -0.4556 H   0  0  0  0  0  0  0  0  0  0  0  0
   -1.1922   -1.7098   -1.0474 H   0  0  0  0  0  0  0  0  0  0  0  0
   -0.3190   -2.6744   -2.2411 H   0  0  0  0  0  0  0  0  0  0  0  0
   -2.9020   -2.8184   -0.6219 H   0  0  0  0  0  0  0  0  0  0  0  0
   -2.9514   -4.4134    0.0410 H   0  0  0  0  0  0  0  0  0  0  0  0
    0.7608   -0.5839   -2.4116 N   0  0  0  0  0  0  0  0  0  0  0  0
    1.1959    0.4366   -3.3349 C   0  0  2  0  0  0  0  0  0  0  0  0
    2.5244   -0.0064   -3.9336 C   0  0  0  0  0  0  0  0  0  0  0  0
    3.2692   -0.8175   -3.3873 O   0  0  0  0  0  0  0  0  0  0  0  0
    1.3334    1.7848   -2.6448 C   0  0  0  0  0  0  0  0  0  0  0  0
   -0.1414   -1.0227   -2.5710 H   0  0  0  0  0  0  0  0  0  0  0  0
    0.4390    0.4920   -4.1248 H   0  0  0  0  0  0  0  0  0  0  0  0
    2.0875    1.7488   -1.8501 H   0  0  0  0  0  0  0  0  0  0  0  0
    1.6360    2.5637   -3.3525 H   0  0  0  0  0  0  0  0  0  0  0  0
    0.3846    2.0879   -2.1891 H   0  0  0  0  0  0  0  0  0  0  0  0
    2.8005    0.6428   -5.1288 N   0  0  0  0  0  0  0  0  0  0  0  0
    4.0075    0.4039   -5.8851 C   0  0  0  0  0  0  0  0  0  0  0  0
    2.1171    1.2859   -5.5175 H   0  0  0  0  0  0  0  0  0  0  0  0
    4.7773    1.1311   -5.5874 H   0  0  0  0  0  0  0  0  0  0  0  0
    4.3695   -0.6155   -5.6853 H   0  0  0  0  0  0  0  0  0  0  0  0
    3.7951    0.5137   -6.9588 H   0  0  0  0  0  0  0  0  0  0  0  0
  1  3  1  0  0  0  0
  1  7  1  0  0  0  0
  1  2  2  0  0  0  0
 21 22  1  0  0  0  0
 22 24  1  0  0  0  0
 22 23  2  0  0  0  0
 32 33  1  0  0  0  0
 33 41  1  0  0  0  0
 33 34  2  0  0  0  0
  8  9  1  0  0  0  0
  9 17  1  0  0  0  0
  9 10  2  0  0  0  0
 18 19  1  0  0  0  0
 19 31  1  0  0  0  0
 19 20  2  0  0  0  0
 32 35  1  0  0  0  0
  8 11  1  0  0  0  0
 41 42  1  0  0  0  0
 18 21  1  0  0  0  0
 31 32  1  0  0  0  0
  7  8  1  0  0  0  0
 17 18  1  0  0  0  0
  3  4  1  0  0  0  0
  3  5  1  0  0  0  0
  3  6  1  0  0  0  0
 35 38  1  0  0  0  0
 35 39  1  0  0  0  0
 35 40  1  0  0  0  0
 11 14  1  0  0  0  0
 11 15  1  0  0  0  0
 11 16  1  0  0  0  0
 42 44  1  0  0  0  0
 42 45  1  0  0  0  0
 42 46  1  0  0  0  0
 21 27  1  0  0  0  0
 21 28  1  0  0  0  0
 32 37  1  0  0  0  0
  8 13  1  0  0  0  0
 18 26  1  0  0  0  0
 24 29  1  0  0  0  0
 24 30  1  0  0  0  0
 41 43  1  0  0  0  0
  7 12  1  0  0  0  0
 31 36  1  0  0  0  0
 17 25  1  0  0  0  0
M  END
$$$$

  -OEChem-05262214473D

 46 45  0     1  0  0  0  0  0999 V2000
   -0.0543    1.9736    3.8406 C   0  0  0  0  0  0  0  0  0  0  0  0
    0.6744    1.6099    4.7562 O   0  0  0  0  0  0  0  0  0  0  0  0
   -0.5599    3.3779    3.8160 C   0  0  0  0  0  0  0  0  0  0  0  0
   -1.5202    3.4885    4.3450 H   0  0  0  0  0  0  0  0  0  0  0  0
    0.1282    4.0814    4.3116 H   0  0  0  0  0  0  0  0  0  0  0  0
   -0.7317    3.7994    2.8126 H   0  0  0  0  0  0  0  0  0  0  0  0
   -0.4812    1.1968    2.7762 N   0  0  0  0  0  0  0  0  0  0  0  0
   -0.1106   -0.1834    2.6051 C   0  0  2  0  0  0  0  0  0  0  0  0
   -0.0696   -0.4775    1.1113 C   0  0  0  0  0  0  0  0  0  0  0  0
   -0.6805    0.1900    0.2792 O   0  0  0  0  0  0  0  0  0  0  0  0
   -1.0852   -1.1101    3.3150 C   0  0  0  0  0  0  0  0  0  0  0  0
   -1.0883    1.6241    2.0791 H   0  0  0  0  0  0  0  0  0  0  0  0
    0.8937   -0.2959    3.0277 H   0  0  0  0  0  0  0  0  0  0  0  0
   -2.0970   -1.0114    2.9051 H   0  0  0  0  0  0  0  0  0  0  0  0
   -0.7860   -2.1580    3.2078 H   0  0  0  0  0  0  0  0  0  0  0  0
   -1.1357   -0.8775    4.3842 H   0  0  0  0  0  0  0  0  0  0  0  0
    0.6950   -1.6003    0.8178 N   0  0  0  0  0  0  0  0  0  0  0  0
    0.8777   -2.0908   -0.5246 C   0  0  2  0  0  0  0  0  0  0  0  0
    1.5386   -0.9816   -1.3333 C   0  0  0  0  0  0  0  0  0  0  0  0
    2.7359   -0.7140   -1.2531 O   0  0  0  0  0  0  0  0  0  0  0  0
   -0.4472   -2.5071   -1.1639 C   0  0  0  0  0  0  0  0  0  0  0  0
   -1.0388   -3.7631   -0.5486 C   0  0  0  0  0  0  0  0  0  0  0  0
   -0.3832   -4.7559   -0.2471 O   0  0  0  0  0  0  0  0  0  0  0  0
   -2.4009   -3.6610   -0.3605 N   0  0  0  0  0  0  0  0  0  0  0  0
    1.1810   -2.0803    1.5718 H   0  0  0  0  0  0  0  0  0  0  0  0
    1.5671   -2.9403   -0.4556 H   0  0  0  0  0  0  0  0  0  0  0  0
   -1.1922   -1.7098   -1.0474 H   0  0  0  0  0  0  0  0  0  0  0  0
   -0.3190   -2.6744   -2.2411 H   0  0  0  0  0  0  0  0  0  0  0  0
   -2.9020   -2.8184   -0.6219 H   0  0  0  0  0  0  0  0  0  0  0  0
   -2.9514   -4.4134    0.0410 H   0  0  0  0  0  0  0  0  0  0  0  0
    0.6465   -0.3565   -2.1932 N   0  0  0  0  0  0  0  0  0  0  0  0
    1.0540    0.7083   -3.0781 C   0  0  2  0  0  0  0  0  0  0  0  0
    2.1719    0.1793   -3.9668 C   0  0  0  0  0  0  0  0  0  0  0  0
    2.8747   -0.7816   -3.6604 O   0  0  0  0  0  0  0  0  0  0  0  0
    1.5121    1.9310   -2.2983 C   0  0  0  0  0  0  0  0  0  0  0  0
   -0.3245   -0.6541   -2.2150 H   0  0  0  0  0  0  0  0  0  0  0  0
    0.1836    0.9578   -3.6946 H   0  0  0  0  0  0  0  0  0  0  0  0
    2.3835    1.7004   -1.6746 H   0  0  0  0  0  0  0  0  0  0  0  0
    1.7938    2.7479   -2.9708 H   0  0  0  0  0  0  0  0  0  0  0  0
    0.7167    2.2922   -1.6375 H   0  0  0  0  0  0  0  0  0  0  0  0
    2.3207    0.9331   -5.1226 N   0  0  0  0  0  0  0  0  0  0  0  0
    3.3224    0.6401   -6.1210 C   0  0  0  0  0  0  0  0  0  0  0  0
    1.6814    1.7013   -5.3040 H   0  0  0  0  0  0  0  0  0  0  0  0
    4.2324    1.2208   -5.9096 H   0  0  0  0  0  0  0  0  0  0  0  0
    3.5594   -0.4339   -6.0982 H   0  0  0  0  0  0  0  0  0  0  0  0
    2.9383    0.9097   -7.1158 H   0  0  0  0  0  0  0  0  0  0  0  0
  1  3  1  0  0  0  0
  1  7  1  0  0  0  0
  1  2  2  0  0  0  0
 21 22  1  0  0  0  0
 22 24  1  0  0  0  0
 22 23  2  0  0  0  0
 32 33  1  0  0  0  0
 33 41  1  0  0  0  0
 33 34  2  0  0  0  0
  8  9  1  0  0  0  0
  9 17  1  0  0  0  0
  9 10  2  0  0  0  0
 18 19  1  0  0  0  0
 19 31  1  0  0  0  0
 19 20  2  0  0  0  0
 32 35  1  0  0  0  0
  8 11  1  0  0  0  0
 41 42  1  0  0  0  0
 18 21  1  0  0  0  0
 31 32  1  0  0  0  0
  7  8  1  0  0  0  0
 17 18  1  0  0  0  0
  3  4  1  0  0  0  0
  3  5  1  0  0  0  0
  3  6  1  0  0  0  0
 35 38  1  0  0  0  0
 35 39  1  0  0  0  0
 35 40  1  0  0  0  0
 11 14  1  0  0  0  0
 11 15  1  0  0  0  0
 11 16  1  0  0  0  0
 42 44  1  0  0  0  0
 42 45  1  0  0  0  0
 42 46  1  0  0  0  0
 21 27  1  0  0  0  0
 21 28  1  0  0  0  0
 32 37  1  0  0  0  0
  8 13  1  0  0  0  0
 18 26  1  0  0  0  0
 24 29  1  0  0  0  0
 24 30  1  0  0  0  0
 41 43  1  0  0  0  0
  7 12  1  0  0  0  0
 31 36  1  0  0  0  0
 17 25  1  0  0  0  0
M  END
$$$$

  -OEChem-05262214473D

 46 45  0     1  0  0  0  0  0999 V2000
   -0.0543    1.9736    3.8406 C   0  0  0  0  0  0  0  0  0  0  0  0
    0.6744    1.6099    4.7562 O   0  0  0  0  0  0  0  0  0  0  0  0
   -0.5599    3.3779    3.8160 C   0  0  0  0  0  0  0  0  0  0  0  0
   -1.5202    3.4885    4.3450 H   0  0  0  0  0  0  0  0  0  0  0  0
    0.1282    4.0814    4.3116 H   0  0  0  0  0  0  0  0  0  0  0  0
   -0.7317    3.7994    2.8126 H   0  0  0  0  0  0  0  0  0  0  0  0
   -0.4812    1.1968    2.7762 N   0  0  0  0  0  0  0  0  0  0  0  0
   -0.1106   -0.1834    2.6051 C   0  0  2  0  0  0  0  0  0  0  0  0
   -0.0696   -0.4775    1.1113 C   0  0  0  0  0  0  0  0  0  0  0  0
   -0.6805    0.1900    0.2792 O   0  0  0  0  0  0  0  0  0  0  0  0
   -1.0852   -1.1101    3.3150 C   0  0  0  0  0  0  0  0  0  0  0  0
   -1.0883    1.6241    2.0791 H   0  0  0  0  0  0  0  0  0  0  0  0
    0.8937   -0.2959    3.0277 H   0  0  0  0  0  0  0  0  0  0  0  0
   -2.0970   -1.0114    2.9051 H   0  0  0  0  0  0  0  0  0  0  0  0
   -0.7860   -2.1580    3.2078 H   0  0  0  0  0  0  0  0  0  0  0  0
   -1.1357   -0.8775    4.3842 H   0  0  0  0  0  0  0  0  0  0  0  0
    0.6950   -1.6003    0.8178 N   0  0  0  0  0  0  0  0  0  0  0  0
    0.8777   -2.0908   -0.5246 C   0  0  2  0  0  0  0  0  0  0  0  0
    1.5386   -0.9816   -1.3333 C   0  0  0  0  0  0  0  0  0  0  0  0
    2.7568   -0.8800   -1.4636 O   0  0  0  0  0  0  0  0  0  0  0  0
   -0.4472   -2.5071   -1.1639 C   0  0  0  0  0  0  0  0  0  0  0  0
   -1.0388   -3.7631   -0.5486 C   0  0  0  0  0  0  0  0  0  0  0  0
   -0.3832   -4.7559   -0.2471 O   0  0  0  0  0  0  0  0  0  0  0  0
   -2.4009   -3.6610   -0.3605 N   0  0  0  0  0  0  0  0  0  0  0  0
    1.1810   -2.0803    1.5718 H   0  0  0  0  0  0  0  0  0  0  0  0
    1.5671   -2.9403   -0.4556 H   0  0  0  0  0  0  0  0  0  0  0  0
   -1.1922   -1.7098   -1.0474 H   0  0  0  0  0  0  0  0  0  0  0  0
   -0.3190   -2.6744   -2.2411 H   0  0  0  0  0  0  0  0  0  0  0  0
   -2.9020   -2.8184   -0.6219 H   0  0  0  0  0  0  0  0  0  0  0  0
   -2.9514   -4.4134    0.0410 H   0  0  0  0  0  0  0  0  0  0  0  0
    0.6084   -0.1457   -1.9351 N   0  0  0  0  0  0  0  0  0  0  0  0
    1.0027    0.9615   -2.7728 C   0  0  2  0  0  0  0  0  0  0  0  0
    1.8508    0.4109   -3.9117 C   0  0  0  0  0  0  0  0  0  0  0  0
    2.4471   -0.6620   -3.8459 O   0  0  0  0  0  0  0  0  0  0  0  0
    1.7700    2.0088   -1.9808 C   0  0  0  0  0  0  0  0  0  0  0  0
   -0.3837   -0.3128   -1.7953 H   0  0  0  0  0  0  0  0  0  0  0  0
    0.0819    1.3945   -3.1786 H   0  0  0  0  0  0  0  0  0  0  0  0
    2.6958    1.5933   -1.5663 H   0  0  0  0  0  0  0  0  0  0  0  0
    2.0435    2.8613   -2.6112 H   0  0  0  0  0  0  0  0  0  0  0  0
    1.1695    2.3820   -1.1442 H   0  0  0  0  0  0  0  0  0  0  0  0
    1.8984    1.2788   -4.9936 N   0  0  0  0  0  0  0  0  0  0  0  0
    2.6487    0.9888   -6.1932 C   0  0  0  0  0  0  0  0  0  0  0  0
    1.3578    2.1383   -4.9689 H   0  0  0  0  0  0  0  0  0  0  0  0
    3.6577    1.4186   -6.1081 H   0  0  0  0  0  0  0  0  0  0  0  0
    2.7242   -0.1008   -6.3239 H   0  0  0  0  0  0  0  0  0  0  0  0
    2.1355    1.4276   -7.0616 H   0  0  0  0  0  0  0  0  0  0  0  0
  1  3  1  0  0  0  0
  1  7  1  0  0  0  0
  1  2  2  0  0  0  0
 21 22  1  0  0  0  0
 22 24  1  0  0  0  0
 22 23  2  0  0  0  0
 32 33  1  0  0  0  0
 33 41  1  0  0  0  0
 33 34  2  0  0  0  0
  8  9  1  0  0  0  0
  9 17  1  0  0  0  0
  9 10  2  0  0  0  0
 18 19  1  0  0  0  0
 19 31  1  0  0  0  0
 19 20  2  0  0  0  0
 32 35  1  0  0  0  0
  8 11  1  0  0  0  0
 41 42  1  0  0  0  0
 18 21  1  0  0  0  0
 31 32  1  0  0  0  0
  7  8  1  0  0  0  0
 17 18  1  0  0  0  0
  3  4  1  0  0  0  0
  3  5  1  0  0  0  0
  3  6  1  0  0  0  0
 35 38  1  0  0  0  0
 35 39  1  0  0  0  0
 35 40  1  0  0  0  0
 11 14  1  0  0  0  0
 11 15  1  0  0  0  0
 11 16  1  0  0  0  0
 42 44  1  0  0  0  0
 42 45  1  0  0  0  0
 42 46  1  0  0  0  0
 21 27  1  0  0  0  0
 21 28  1  0  0  0  0
 32 37  1  0  0  0  0
  8 13  1  0  0  0  0
 18 26  1  0  0  0  0
 24 29  1  0  0  0  0
 24 30  1  0  0  0  0
 41 43  1  0  0  0  0
  7 12  1  0  0  0  0
 31 36  1  0  0  0  0
 17 25  1  0  0  0  0
M  END
$$$$

  -OEChem-05262214473D

 46 45  0     1  0  0  0  0  0999 V2000
   -0.0543    1.9736    3.8406 C   0  0  0  0  0  0  0  0  0  0  0  0
    0.6744    1.6099    4.7562 O   0  0  0  0  0  0  0  0  0  0  0  0
   -0.5599    3.3779    3.8160 C   0  0  0  0  0  0  0  0  0  0  0  0
   -1.5202    3.4885    4.3450 H   0  0  0  0  0  0  0  0  0  0  0  0
    0.1282    4.0814    4.3116 H   0  0  0  0  0  0  0  0  0  0  0  0
   -0.7317    3.7994    2.8126 H   0  0  0  0  0  0  0  0  0  0  0  0
   -0.4812    1.1968    2.7762 N   0  0  0  0  0  0  0  0  0  0  0  0
   -0.1106   -0.1834    2.6051 C   0  0  2  0  0  0  0  0  0  0  0  0
   -0.0696   -0.4775    1.1113 C   0  0  0  0  0  0  0  0  0  0  0  0
   -0.6805    0.1900    0.2792 O   0  0  0  0  0  0  0  0  0  0  0  0
   -1.0852   -1.1101    3.3150 C   0  0  0  0  0  0  0  0  0  0  0  0
   -1.0883    1.6241    2.0791 H   0  0  0  0  0  0  0  0  0  0  0  0
    0.8937   -0.2959    3.0277 H   0  0  0  0  0  0  0  0  0  0  0  0
   -2.0970   -1.0114    2.9051 H   0  0  0  0  0  0  0  0  0  0  0  0
   -0.7860   -2.1580    3.2078 H   0  0  0  0  0  0  0  0  0  0  0  0
   -1.1357   -0.8775    4.3842 H   0  0  0  0  0  0  0  0  0  0  0  0
    0.6950   -1.6003    0.8178 N   0  0  0  0  0  0  0  0  0  0  0  0
    0.8777   -2.0908   -0.5246 C   0  0  2  0  0  0  0  0  0  0  0  0
    1.5386   -0.9816   -1.3333 C   0  0  0  0  0  0  0  0  0  0  0  0
    2.7147   -1.0195   -1.6894 O   0  0  0  0  0  0  0  0  0  0  0  0
   -0.4472   -2.5071   -1.1639 C   0  0  0  0  0  0  0  0  0  0  0  0
   -1.0388   -3.7631   -0.5486 C   0  0  0  0  0  0  0  0  0  0  0  0
   -0.3832   -4.7559   -0.2471 O   0  0  0  0  0  0  0  0  0  0  0  0
   -2.4009   -3.6610   -0.3605 N   0  0  0  0  0  0  0  0  0  0  0  0
    1.1810   -2.0803    1.5718 H   0  0  0  0  0  0  0  0  0  0  0  0
    1.5671   -2.9403   -0.4556 H   0  0  0  0  0  0  0  0  0  0  0  0
   -1.1922   -1.7098   -1.0474 H   0  0  0  0  0  0  0  0  0  0  0  0
   -0.3190   -2.6744   -2.2411 H   0  0  0  0  0  0  0  0  0  0  0  0
   -2.9020   -2.8184   -0.6219 H   0  0  0  0  0  0  0  0  0  0  0  0
   -2.9514   -4.4134    0.0410 H   0  0  0  0  0  0  0  0  0  0  0  0
    0.6493    0.0342   -1.6549 N   0  0  0  0  0  0  0  0  0  0  0  0
    1.0454    1.1788   -2.4398 C   0  0  2  0  0  0  0  0  0  0  0  0
    1.5828    0.6725   -3.7718 C   0  0  0  0  0  0  0  0  0  0  0  0
    2.0155   -0.4670   -3.9311 O   0  0  0  0  0  0  0  0  0  0  0  0
    2.0896    2.0128   -1.7140 C   0  0  0  0  0  0  0  0  0  0  0  0
   -0.3149   -0.0222   -1.3404 H   0  0  0  0  0  0  0  0  0  0  0  0
    0.1410    1.7724   -2.6121 H   0  0  0  0  0  0  0  0  0  0  0  0
    3.0031    1.4348   -1.5325 H   0  0  0  0  0  0  0  0  0  0  0  0
    2.3681    2.8961   -2.2982 H   0  0  0  0  0  0  0  0  0  0  0  0
    1.7121    2.3512   -0.7430 H   0  0  0  0  0  0  0  0  0  0  0  0
    1.5623    1.6562   -4.7507 N   0  0  0  0  0  0  0  0  0  0  0  0
    2.0322    1.4264   -6.0969 C   0  0  0  0  0  0  0  0  0  0  0  0
    1.1684    2.5674   -4.5352 H   0  0  0  0  0  0  0  0  0  0  0  0
    3.0923    1.7108   -6.1693 H   0  0  0  0  0  0  0  0  0  0  0  0
    1.9206    0.3611   -6.3472 H   0  0  0  0  0  0  0  0  0  0  0  0
    1.4414    2.0321   -6.7998 H   0  0  0  0  0  0  0  0  0  0  0  0
  1  3  1  0  0  0  0
  1  7  1  0  0  0  0
  1  2  2  0  0  0  0
 21 22  1  0  0  0  0
 22 24  1  0  0  0  0
 22 23  2  0  0  0  0
 32 33  1  0  0  0  0
 33 41  1  0  0  0  0
 33 34  2  0  0  0  0
  8  9  1  0  0  0  0
  9 17  1  0  0  0  0
  9 10  2  0  0  0  0
 18 19  1  0  0  0  0
 19 31  1  0  0  0  0
 19 20  2  0  0  0  0
 32 35  1  0  0  0  0
  8 11  1  0  0  0  0
 41 42  1  0  0  0  0
 18 21  1  0  0  0  0
 31 32  1  0  0  0  0
  7  8  1  0  0  0  0
 17 18  1  0  0  0  0
  3  4  1  0  0  0  0
  3  5  1  0  0  0  0
  3  6  1  0  0  0  0
 35 38  1  0  0  0  0
 35 39  1  0  0  0  0
 35 40  1  0  0  0  0
 11 14  1  0  0  0  0
 11 15  1  0  0  0  0
 11 16  1  0  0  0  0
 42 44  1  0  0  0  0
 42 45  1  0  0  0  0
 42 46  1  0  0  0  0
 21 27  1  0  0  0  0
 21 28  1  0  0  0  0
 32 37  1  0  0  0  0
  8 13  1  0  0  0  0
 18 26  1  0  0  0  0
 24 29  1  0  0  0  0
 24 30  1  0  0  0  0
 41 43  1  0  0  0  0
  7 12  1  0  0  0  0
 31 36  1  0  0  0  0
 17 25  1  0  0  0  0
M  END
$$$$

  -OEChem-05262214473D

 46 45  0     1  0  0  0  0  0999 V2000
   -0.0543    1.9736    3.8406 C   0  0  0  0  0  0  0  0  0  0  0  0
    0.6744    1.6099    4.7562 O   0  0  0  0  0  0  0  0  0  0  0  0
   -0.5599    3.3779    3.8160 C   0  0  0  0  0  0  0  0  0  0  0  0
   -1.5202    3.4885    4.3450 H   0  0  0  0  0  0  0  0  0  0  0  0
    0.1282    4.0814    4.3116 H   0  0  0  0  0  0  0  0  0  0  0  0
   -0.7317    3.7994    2.8126 H   0  0  0  0  0  0  0  0  0  0  0  0
   -0.4812    1.1968    2.7762 N   0  0  0  0  0  0  0  0  0  0  0  0
   -0.1106   -0.1834    2.6051 C   0  0  2  0  0  0  0  0  0  0  0  0
   -0.0696   -0.4775    1.1113 C   0  0  0  0  0  0  0  0  0  0  0  0
   -0.6805    0.1900    0.2792 O   0  0  0  0  0  0  0  0  0  0  0  0
   -1.0852   -1.1101    3.3150 C   0  0  0  0  0  0  0  0  0  0  0  0
   -1.0883    1.6241    2.0791 H   0  0  0  0  0  0  0  0  0  0  0  0
    0.8937   -0.2959    3.0277 H   0  0  0  0  0  0  0  0  0  0  0  0
   -2.0970   -1.0114    2.9051 H   0  0  0  0  0  0  0  0  0  0  0  0
   -0.7860   -2.1580    3.2078 H   0  0  0  0  0  0  0  0  0  0  0  0
   -1.1357   -0.8775    4.3842 H   0  0  0  0  0  0  0  0  0  0  0  0
    0.6950   -1.6003    0.8178 N   0  0  0  0  0  0  0  0  0  0  0  0
    0.8777   -2.0908   -0.5246 C   0  0  2  0  0  0  0  0  0  0  0  0
    1.5386   -0.9816   -1.3333 C   0  0  0  0  0  0  0  0  0  0  0  0
    2.6122   -1.1231   -1.9153 O   0  0  0  0  0  0  0  0  0  0  0  0
   -0.4472   -2.5071   -1.1639 C   0  0  0  0  0  0  0  0  0  0  0  0
   -1.0388   -3.7631   -0.5486 C   0  0  0  0  0  0  0  0  0  0  0  0
   -0.3832   -4.7559   -0.2471 O   0  0  0  0  0  0  0  0  0  0  0  0
   -2.4009   -3.6610   -0.3605 N   0  0  0  0  0  0  0  0  0  0  0  0
    1.1810   -2.0803    1.5718 H   0  0  0  0  0  0  0  0  0  0  0  0
    1.5671   -2.9403   -0.4556 H   0  0  0  0  0  0  0  0  0  0  0  0
   -1.1922   -1.7098   -1.0474 H   0  0  0  0  0  0  0  0  0  0  0  0
   -0.3190   -2.6744   -2.2411 H   0  0  0  0  0  0  0  0  0  0  0  0
   -2.9020   -2.8184   -0.6219 H   0  0  0  0  0  0  0  0  0  0  0  0
   -2.9514   -4.4134    0.0410 H   0  0  0  0  0  0  0  0  0  0  0  0
    0.7663    0.1708   -1.3719 N   0  0  0  0  0  0  0  0  0  0  0  0
    1.1793    1.3455   -2.1018 C   0  0  2  0  0  0  0  0  0  0  0  0
    1.3862    0.9463   -3.5569 C   0  0  0  0  0  0  0  0  0  0  0  0
    1.6094   -0.2097   -3.9101 O   0  0  0  0  0  0  0  0  0  0  0  0
    2.4492    1.9428   -1.5161 C   0  0  0  0  0  0  0  0  0  0  0  0
   -0.1228    0.1980   -0.8813 H   0  0  0  0  0  0  0  0  0  0  0  0
    0.3567    2.0657   -2.0335 H   0  0  0  0  0  0  0  0  0  0  0  0
    3.2846    1.2356   -1.5756 H   0  0  0  0  0  0  0  0  0  0  0  0
    2.7453    2.8500   -2.0531 H   0  0  0  0  0  0  0  0  0  0  0  0
    2.3076    2.2018   -0.4612 H   0  0  0  0  0  0  0  0  0  0  0  0
    1.3352    2.0397   -4.4103 N   0  0  0  0  0  0  0  0  0  0  0  0
    1.5150    1.9229   -5.8386 C   0  0  0  0  0  0  0  0  0  0  0  0
    1.1261    2.9591   -4.0325 H   0  0  0  0  0  0  0  0  0  0  0  0
    2.5749    2.0776   -6.0891 H   0  0  0  0  0  0  0  0  0  0  0  0
    1.2034    0.9202   -6.1664 H   0  0  0  0  0  0  0  0  0  0  0  0
    0.9033    2.6819   -6.3482 H   0  0  0  0  0  0  0  0  0  0  0  0
  1  3  1  0  0  0  0
  1  7  1  0  0  0  0
  1  2  2  0  0  0  0
 21 22  1  0  0  0  0
 22 24  1  0  0  0  0
 22 23  2  0  0  0  0
 32 33  1  0  0  0  0
 33 41  1  0  0  0  0
 33 34  2  0  0  0  0
  8  9  1  0  0  0  0
  9 17  1  0  0  0  0
  9 10  2  0  0  0  0
 18 19  1  0  0  0  0
 19 31  1  0  0  0  0
 19 20  2  0  0  0  0
 32 35  1  0  0  0  0
  8 11  1  0  0  0  0
 41 42  1  0  0  0  0
 18 21  1  0  0  0  0
 31 32  1  0  0  0  0
  7  8  1  0  0  0  0
 17 18  1  0  0  0  0
  3  4  1  0  0  0  0
  3  5  1  0  0  0  0
  3  6  1  0  0  0  0
 35 38  1  0  0  0  0
 35 39  1  0  0  0  0
 35 40  1  0  0  0  0
 11 14  1  0  0  0  0
 11 15  1  0  0  0  0
 11 16  1  0  0  0  0
 42 44  1  0  0  0  0
 42 45  1  0  0  0  0
 42 46  1  0  0  0  0
 21 27  1  0  0  0  0
 21 28  1  0  0  0  0
 32 37  1  0  0  0  0
  8 13  1  0  0  0  0
 18 26  1  0  0  0  0
 24 29  1  0  0  0  0
 24 30  1  0  0  0  0
 41 43  1  0  0  0  0
  7 12  1  0  0  0  0
 31 36  1  0  0  0  0
 17 25  1  0  0  0  0
M  END
$$$$

  -OEChem-05262214473D

 46 45  0     1  0  0  0  0  0999 V2000
   -0.0543    1.9736    3.8406 C   0  0  0  0  0  0  0  0  0  0  0  0
    0.6744    1.6099    4.7562 O   0  0  0  0  0  0  0  0  0  0  0  0
   -0.5599    3.3779    3.8160 C   0  0  0  0  0  0  0  0  0  0  0  0
   -1.5202    3.4885    4.3450 H   0  0  0  0  0  0  0  0  0  0  0  0
    0.1282    4.0814    4.3116 H   0  0  0  0  0  0  0  0  0  0  0  0
   -0.7317    3.7994    2.8126 H   0  0  0  0  0  0  0  0  0  0  0  0
   -0.4812    1.1968    2.7762 N   0  0  0  0  0  0  0  0  0  0  0  0
   -0.1106   -0.1834    2.6051 C   0  0  2  0  0  0  0  0  0  0  0  0
   -0.0696   -0.4775    1.1113 C   0  0  0  0  0  0  0  0  0  0  0  0
   -0.6805    0.1900    0.2792 O   0  0  0  0  0  0  0  0  0  0  0  0
   -1.0852   -1.1101    3.3150 C   0  0  0  0  0  0  0  0  0  0  0  0
   -1.0883    1.6241    2.0791 H   0  0  0  0  0  0  0  0  0  0  0  0
    0.8937   -0.2959    3.0277 H   0  0  0  0  0  0  0  0  0  0  0  0
   -2.0970   -1.0114    2.9051 H   0  0  0  0  0  0  0  0  0  0  0  0
   -0.7860   -2.1580    3.2078 H   0  0  0  0  0  0  0  0  0  0  0  0
   -1.1357   -0.8775    4.3842 H   0  0  0  0  0  0  0  0  0  0  0  0
    0.6950   -1.6003    0.8178 N   0  0  0  0  0  0  0  0  0  0  0  0
    0.8777   -2.0908   -0.5246 C   0  0  2  0  0  0  0  0  0  0  0  0
    1.5386   -0.9816   -1.3333 C   0  0  0  0  0  0  0  0  0  0  0  0
    2.4564   -1.1838   -2.1258 O   0  0  0  0  0  0  0  0  0  0  0  0
   -0.4472   -2.5071   -1.1639 C   0  0  0  0  0  0  0  0  0  0  0  0
   -1.0388   -3.7631   -0.5486 C   0  0  0  0  0  0  0  0  0  0  0  0
   -0.3832   -4.7559   -0.2471 O   0  0  0  0  0  0  0  0  0  0  0  0
   -2.4009   -3.6610   -0.3605 N   0  0  0  0  0  0  0  0  0  0  0  0
    1.1810   -2.0803    1.5718 H   0  0  0  0  0  0  0  0  0  0  0  0
    1.5671   -2.9403   -0.4556 H   0  0  0  0  0  0  0  0  0  0  0  0
   -1.1922   -1.7098   -1.0474 H   0  0  0  0  0  0  0  0  0  0  0  0
   -0.3190   -2.6744   -2.2411 H   0  0  0  0  0  0  0  0  0  0  0  0
   -2.9020   -2.8184   -0.6219 H   0  0  0  0  0  0  0  0  0  0  0  0
   -2.9514   -4.4134    0.0410 H   0  0  0  0  0  0  0  0  0  0  0  0
    0.9514    0.2550   -1.1051 N   0  0  0  0  0  0  0  0  0  0  0  0
    1.3951    1.4501   -1.7818 C   0  0  2  0  0  0  0  0  0  0  0  0
    1.2745    1.2137   -3.2815 C   0  0  0  0  0  0  0  0  0  0  0  0
    1.2565    0.0922   -3.7845 O   0  0  0  0  0  0  0  0  0  0  0  0
    2.8242    1.8036   -1.4005 C   0  0  0  0  0  0  0  0  0  0  0  0
    0.1796    0.3328   -0.4494 H   0  0  0  0  0  0  0  0  0  0  0  0
    0.7143    2.2544   -1.4824 H   0  0  0  0  0  0  0  0  0  0  0  0
    3.5210    1.0095   -1.6927 H   0  0  0  0  0  0  0  0  0  0  0  0
    3.1495    2.7262   -1.8926 H   0  0  0  0  0  0  0  0  0  0  0  0
    2.9154    1.9441   -0.3180 H   0  0  0  0  0  0  0  0  0  0  0  0
    1.2328    2.4030   -3.9956 N   0  0  0  0  0  0  0  0  0  0  0  0
    1.1323    2.4445   -5.4358 C   0  0  0  0  0  0  0  0  0  0  0  0
    1.2339    3.2868   -3.4949 H   0  0  0  0  0  0  0  0  0  0  0  0
    2.1405    2.4940   -5.8729 H   0  0  0  0  0  0  0  0  0  0  0  0
    0.6216    1.5384   -5.7939 H   0  0  0  0  0  0  0  0  0  0  0  0
    0.5579    3.3327   -5.7377 H   0  0  0  0  0  0  0  0  0  0  0  0
  1  3  1  0  0  0  0
  1  7  1  0  0  0  0
  1  2  2  0  0  0  0
 21 22  1  0  0  0  0
 22 24  1  0  0  0  0
 22 23  2  0  0  0  0
 32 33  1  0  0  0  0
 33 41  1  0  0  0  0
 33 34  2  0  0  0  0
  8  9  1  0  0  0  0
  9 17  1  0  0  0  0
  9 10  2  0  0  0  0
 18 19  1  0  0  0  0
 19 31  1  0  0  0  0
 19 20  2  0  0  0  0
 32 35  1  0  0  0  0
  8 11  1  0  0  0  0
 41 42  1  0  0  0  0
 18 21  1  0  0  0  0
 31 32  1  0  0  0  0
  7  8  1  0  0  0  0
 17 18  1  0  0  0  0
  3  4  1  0  0  0  0
  3  5  1  0  0  0  0
  3  6  1  0  0  0  0
 35 38  1  0  0  0  0
 35 39  1  0  0  0  0
 35 40  1  0  0  0  0
 11 14  1  0  0  0  0
 11 15  1  0  0  0  0
 11 16  1  0  0  0  0
 42 44  1  0  0  0  0
 42 45  1  0  0  0  0
 42 46  1  0  0  0  0
 21 27  1  0  0  0  0
 21 28  1  0  0  0  0
 32 37  1  0  0  0  0
  8 13  1  0  0  0  0
 18 26  1  0  0  0  0
 24 29  1  0  0  0  0
 24 30  1  0  0  0  0
 41 43  1  0  0  0  0
  7 12  1  0  0  0  0
 31 36  1  0  0  0  0
 17 25  1  0  0  0  0
M  END
$$$$

  -OEChem-05262214473D

 46 45  0     1  0  0  0  0  0999 V2000
   -0.0543    1.9736    3.8406 C   0  0  0  0  0  0  0  0  0  0  0  0
    0.6744    1.6099    4.7562 O   0  0  0  0  0  0  0  0  0  0  0  0
   -0.5599    3.3779    3.8160 C   0  0  0  0  0  0  0  0  0  0  0  0
   -1.5202    3.4885    4.3450 H   0  0  0  0  0  0  0  0  0  0  0  0
    0.1282    4.0814    4.3116 H   0  0  0  0  0  0  0  0  0  0  0  0
   -0.7317    3.7994    2.8126 H   0  0  0  0  0  0  0  0  0  0  0  0
   -0.4812    1.1968    2.7762 N   0  0  0  0  0  0  0  0  0  0  0  0
   -0.1106   -0.1834    2.6051 C   0  0  2  0  0  0  0  0  0  0  0  0
   -0.0696   -0.4775    1.1113 C   0  0  0  0  0  0  0  0  0  0  0  0
   -0.6805    0.1900    0.2792 O   0  0  0  0  0  0  0  0  0  0  0  0
   -1.0852   -1.1101    3.3150 C   0  0  0  0  0  0  0  0  0  0  0  0
   -1.0883    1.6241    2.0791 H   0  0  0  0  0  0  0  0  0  0  0  0
    0.8937   -0.2959    3.0277 H   0  0  0  0  0  0  0  0  0  0  0  0
   -2.0970   -1.0114    2.9051 H   0  0  0  0  0  0  0  0  0  0  0  0
   -0.7860   -2.1580    3.2078 H   0  0  0  0  0  0  0  0  0  0  0  0
   -1.1357   -0.8775    4.3842 H   0  0  0  0  0  0  0  0  0  0  0  0
    0.6950   -1.6003    0.8178 N   0  0  0  0  0  0  0  0  0  0  0  0
    0.8777   -2.0908   -0.5246 C   0  0  2  0  0  0  0  0  0  0  0  0
    1.5386   -0.9816   -1.3333 C   0  0  0  0  0  0  0  0  0  0  0  0
    2.2579   -1.1973   -2.3066 O   0  0  0  0  0  0  0  0  0  0  0  0
   -0.4472   -2.5071   -1.1639 C   0  0  0  0  0  0  0  0  0  0  0  0
   -1.0388   -3.7631   -0.5486 C   0  0  0  0  0  0  0  0  0  0  0  0
   -0.3832   -4.7559   -0.2471 O   0  0  0  0  0  0  0  0  0  0  0  0
   -2.4009   -3.6610   -0.3605 N   0  0  0  0  0  0  0  0  0  0  0  0
    1.1810   -2.0803    1.5718 H   0  0  0  0  0  0  0  0  0  0  0  0
    1.5671   -2.9403   -0.4556 H   0  0  0  0  0  0  0  0  0  0  0  0
   -1.1922   -1.7098   -1.0474 H   0  0  0  0  0  0  0  0  0  0  0  0
   -0.3190   -2.6744   -2.2411 H   0  0  0  0  0  0  0  0  0  0  0  0
   -2.9020   -2.8184   -0.6219 H   0  0  0  0  0  0  0  0  0  0  0  0
   -2.9514   -4.4134    0.0410 H   0  0  0  0  0  0  0  0  0  0  0  0
    1.1920    0.2809   -0.8729 N   0  0  0  0  0  0  0  0  0  0  0  0
    1.6783    1.4856   -1.5017 C   0  0  2  0  0  0  0  0  0  0  0  0
    1.2552    1.4564   -2.9644 C   0  0  0  0  0  0  0  0  0  0  0  0
    0.9807    0.4182   -3.5627 O   0  0  0  0  0  0  0  0  0  0  0  0
    3.1891    1.6047   -1.3752 C   0  0  0  0  0  0  0  0  0  0  0  0
    0.5715    0.3730   -0.0740 H   0  0  0  0  0  0  0  0  0  0  0  0
    1.1896    2.3256   -0.9962 H   0  0  0  0  0  0  0  0  0  0  0  0
    3.6962    0.7717   -1.8756 H   0  0  0  0  0  0  0  0  0  0  0  0
    3.5532    2.5330   -1.8276 H   0  0  0  0  0  0  0  0  0  0  0  0
    3.4941    1.5956   -0.3232 H   0  0  0  0  0  0  0  0  0  0  0  0
    1.2618    2.7215   -3.5350 N   0  0  0  0  0  0  0  0  0  0  0  0
    0.9102    2.9557   -4.9161 C   0  0  0  0  0  0  0  0  0  0  0  0
    1.4842    3.5282   -2.9592 H   0  0  0  0  0  0  0  0  0  0  0  0
    1.8189    2.9316   -5.5355 H   0  0  0  0  0  0  0  0  0  0  0  0
    0.2148    2.1738   -5.2550 H   0  0  0  0  0  0  0  0  0  0  0  0
    0.4288    3.9403   -5.0099 H   0  0  0  0  0  0  0  0  0  0  0  0
  1  3  1  0  0  0  0
  1  7  1  0  0  0  0
  1  2  2  0  0  0  0
 21 22  1  0  0  0  0
 22 24  1  0  0  0  0
 22 23  2  0  0  0  0
 32 33  1  0  0  0  0
 33 41  1  0  0  0  0
 33 34  2  0  0  0  0
  8  9  1  0  0  0  0
  9 17  1  0  0  0  0
  9 10  2  0  0  0  0
 18 19  1  0  0  0  0
 19 31  1  0  0  0  0
 19 20  2  0  0  0  0
 32 35  1  0  0  0  0
  8 11  1  0  0  0  0
 41 42  1  0  0  0  0
 18 21  1  0  0  0  0
 31 32  1  0  0  0  0
  7  8  1  0  0  0  0
 17 18  1  0  0  0  0
  3  4  1  0  0  0  0
  3  5  1  0  0  0  0
  3  6  1  0  0  0  0
 35 38  1  0  0  0  0
 35 39  1  0  0  0  0
 35 40  1  0  0  0  0
 11 14  1  0  0  0  0
 11 15  1  0  0  0  0
 11 16  1  0  0  0  0
 42 44  1  0  0  0  0
 42 45  1  0  0  0  0
 42 46  1  0  0  0  0
 21 27  1  0  0  0  0
 21 28  1  0  0  0  0
 32 37  1  0  0  0  0
  8 13  1  0  0  0  0
 18 26  1  0  0  0  0
 24 29  1  0  0  0  0
 24 30  1  0  0  0  0
 41 43  1  0  0  0  0
  7 12  1  0  0  0  0
 31 36  1  0  0  0  0
 17 25  1  0  0  0  0
M  END
$$$$

  -OEChem-05262214473D

 46 45  0     1  0  0  0  0  0999 V2000
   -0.0543    1.9736    3.8406 C   0  0  0  0  0  0  0  0  0  0  0  0
    0.6744    1.6099    4.7562 O   0  0  0  0  0  0  0  0  0  0  0  0
   -0.5599    3.3779    3.8160 C   0  0  0  0  0  0  0  0  0  0  0  0
   -1.5202    3.4885    4.3450 H   0  0  0  0  0  0  0  0  0  0  0  0
    0.1282    4.0814    4.3116 H   0  0  0  0  0  0  0  0  0  0  0  0
   -0.7317    3.7994    2.8126 H   0  0  0  0  0  0  0  0  0  0  0  0
   -0.4812    1.1968    2.7762 N   0  0  0  0  0  0  0  0  0  0  0  0
   -0.1106   -0.1834    2.6051 C   0  0  2  0  0  0  0  0  0  0  0  0
   -0.0696   -0.4775    1.1113 C   0  0  0  0  0  0  0  0  0  0  0  0
   -0.6805    0.1900    0.2792 O   0  0  0  0  0  0  0  0  0  0  0  0
   -1.0852   -1.1101    3.3150 C   0  0  0  0  0  0  0  0  0  0  0  0
   -1.0883    1.6241    2.0791 H   0  0  0  0  0  0  0  0  0  0  0  0
    0.8937   -0.2959    3.0277 H   0  0  0  0  0  0  0  0  0  0  0  0
   -2.0970   -1.0114    2.9051 H   0  0  0  0  0  0  0  0  0  0  0  0
   -0.7860   -2.1580    3.2078 H   0  0  0  0  0  0  0  0  0  0  0  0
   -1.1357   -0.8775    4.3842 H   0  0  0  0  0  0  0  0  0  0  0  0
    0.6950   -1.6003    0.8178 N   0  0  0  0  0  0  0  0  0  0  0  0
    0.8777   -2.0908   -0.5246 C   0  0  2  0  0  0  0  0  0  0  0  0
    1.5386   -0.9816   -1.3333 C   0  0  0  0  0  0  0  0  0  0  0  0
    2.0303   -1.1628   -2.4454 O   0  0  0  0  0  0  0  0  0  0  0  0
   -0.4472   -2.5071   -1.1639 C   0  0  0  0  0  0  0  0  0  0  0  0
   -1.0388   -3.7631   -0.5486 C   0  0  0  0  0  0  0  0  0  0  0  0
   -0.3832   -4.7559   -0.2471 O   0  0  0  0  0  0  0  0  0  0  0  0
   -2.4009   -3.6610   -0.3605 N   0  0  0  0  0  0  0  0  0  0  0  0
    1.1810   -2.0803    1.5718 H   0  0  0  0  0  0  0  0  0  0  0  0
    1.5671   -2.9403   -0.4556 H   0  0  0  0  0  0  0  0  0  0  0  0
   -1.1922   -1.7098   -1.0474 H   0  0  0  0  0  0  0  0  0  0  0  0
   -0.3190   -2.6744   -2.2411 H   0  0  0  0  0  0  0  0  0  0  0  0
   -2.9020   -2.8184   -0.6219 H   0  0  0  0  0  0  0  0  0  0  0  0
   -2.9514   -4.4134    0.0410 H   0  0  0  0  0  0  0  0  0  0  0  0
    1.4718    0.2468   -0.6910 N   0  0  0  0  0  0  0  0  0  0  0  0
    2.0095    1.4495   -1.2805 C   0  0  2  0  0  0  0  0  0  0  0  0
    1.3296    1.6579   -2.6272 C   0  0  0  0  0  0  0  0  0  0  0  0
    0.8009    0.7461   -3.2599 O   0  0  0  0  0  0  0  0  0  0  0  0
    3.5190    1.3596   -1.4418 C   0  0  0  0  0  0  0  0  0  0  0  0
    1.0263    0.3158    0.2192 H   0  0  0  0  0  0  0  0  0  0  0  0
    1.7500    2.2746   -0.6082 H   0  0  0  0  0  0  0  0  0  0  0  0
    3.7983    0.5385   -2.1121 H   0  0  0  0  0  0  0  0  0  0  0  0
    3.9289    2.2837   -1.8626 H   0  0  0  0  0  0  0  0  0  0  0  0
    4.0042    1.1800   -0.4763 H   0  0  0  0  0  0  0  0  0  0  0  0
    1.4204    2.9735   -3.0598 N   0  0  0  0  0  0  0  0  0  0  0  0
    0.8638    3.4217   -4.3149 C   0  0  0  0  0  0  0  0  0  0  0  0
    1.8602    3.6668   -2.4618 H   0  0  0  0  0  0  0  0  0  0  0  0
    1.6320    3.3606   -5.0999 H   0  0  0  0  0  0  0  0  0  0  0  0
    0.0106    2.7828   -4.5864 H   0  0  0  0  0  0  0  0  0  0  0  0
    0.5246    4.4633   -4.2142 H   0  0  0  0  0  0  0  0  0  0  0  0
  1  3  1  0  0  0  0
  1  7  1  0  0  0  0
  1  2  2  0  0  0  0
 21 22  1  0  0  0  0
 22 24  1  0  0  0  0
 22 23  2  0  0  0  0
 32 33  1  0  0  0  0
 33 41  1  0  0  0  0
 33 34  2  0  0  0  0
  8  9  1  0  0  0  0
  9 17  1  0  0  0  0
  9 10  2  0  0  0  0
 18 19  1  0  0  0  0
 19 31  1  0  0  0  0
 19 20  2  0  0  0  0
 32 35  1  0  0  0  0
  8 11  1  0  0  0  0
 41 42  1  0  0  0  0
 18 21  1  0  0  0  0
 31 32  1  0  0  0  0
  7  8  1  0  0  0  0
 17 18  1  0  0  0  0
  3  4  1  0  0  0  0
  3  5  1  0  0  0  0
  3  6  1  0  0  0  0
 35 38  1  0  0  0  0
 35 39  1  0  0  0  0
 35 40  1  0  0  0  0
 11 14  1  0  0  0  0
 11 15  1  0  0  0  0
 11 16  1  0  0  0  0
 42 44  1  0  0  0  0
 42 45  1  0  0  0  0
 42 46  1  0  0  0  0
 21 27  1  0  0  0  0
 21 28  1  0  0  0  0
 32 37  1  0  0  0  0
  8 13  1  0  0  0  0
 18 26  1  0  0  0  0
 24 29  1  0  0  0  0
 24 30  1  0  0  0  0
 41 43  1  0  0  0  0
  7 12  1  0  0  0  0
 31 36  1  0  0  0  0
 17 25  1  0  0  0  0
M  END
$$$$

  -OEChem-05262214473D

 46 45  0     1  0  0  0  0  0999 V2000
   -0.0543    1.9736    3.8406 C   0  0  0  0  0  0  0  0  0  0  0  0
    0.6744    1.6099    4.7562 O   0  0  0  0  0  0  0  0  0  0  0  0
   -0.5599    3.3779    3.8160 C   0  0  0  0  0  0  0  0  0  0  0  0
   -1.5202    3.4885    4.3450 H   0  0  0  0  0  0  0  0  0  0  0  0
    0.1282    4.0814    4.3116 H   0  0  0  0  0  0  0  0  0  0  0  0
   -0.7317    3.7994    2.8126 H   0  0  0  0  0  0  0  0  0  0  0  0
   -0.4812    1.1968    2.7762 N   0  0  0  0  0  0  0  0  0  0  0  0
   -0.1106   -0.1834    2.6051 C   0  0  2  0  0  0  0  0  0  0  0  0
   -0.0696   -0.4775    1.1113 C   0  0  0  0  0  0  0  0  0  0  0  0
   -0.6805    0.1900    0.2792 O   0  0  0  0  0  0  0  0  0  0  0  0
   -1.0852   -1.1101    3.3150 C   0  0  0  0  0  0  0  0  0  0  0  0
   -1.0883    1.6241    2.0791 H   0  0  0  0  0  0  0  0  0  0  0  0
    0.8937   -0.2959    3.0277 H   0  0  0  0  0  0  0  0  0  0  0  0
   -2.0970   -1.0114    2.9051 H   0  0  0  0  0  0  0  0  0  0  0  0
   -0.7860   -2.1580    3.2078 H   0  0  0  0  0  0  0  0  0  0  0  0
   -1.1357   -0.8775    4.3842 H   0  0  0  0  0  0  0  0  0  0  0  0
    0.6950   -1.6003    0.8178 N   0  0  0  0  0  0  0  0  0  0  0  0
    0.8777   -2.0908   -0.5246 C   0  0  2  0  0  0  0  0  0  0  0  0
    1.5386   -0.9816   -1.3333 C   0  0  0  0  0  0  0  0  0  0  0  0
    1.7890   -1.0827   -2.5326 O   0  0  0  0  0  0  0  0  0  0  0  0
   -0.4472   -2.5071   -1.1639 C   0  0  0  0  0  0  0  0  0  0  0  0
   -1.0388   -3.7631   -0.5486 C   0  0  0  0  0  0  0  0  0  0  0  0
   -0.3832   -4.7559   -0.2471 O   0  0  0  0  0  0  0  0  0  0  0  0
   -2.4009   -3.6610   -0.3605 N   0  0  0  0  0  0  0  0  0  0  0  0
    1.1810   -2.0803    1.5718 H   0  0  0  0  0  0  0  0  0  0  0  0
    1.5671   -2.9403   -0.4556 H   0  0  0  0  0  0  0  0  0  0  0  0
   -1.1922   -1.7098   -1.0474 H   0  0  0  0  0  0  0  0  0  0  0  0
   -0.3190   -2.6744   -2.2411 H   0  0  0  0  0  0  0  0  0  0  0  0
   -2.9020   -2.8184   -0.6219 H   0  0  0  0  0  0  0  0  0  0  0  0
   -2.9514   -4.4134    0.0410 H   0  0  0  0  0  0  0  0  0  0  0  0
    1.7716    0.1551   -0.5719 N   0  0  0  0  0  0  0  0  0  0  0  0
    2.3662    1.3444   -1.1333 C   0  0  2  0  0  0  0  0  0  0  0  0
    1.4927    1.8044   -2.2930 C   0  0  0  0  0  0  0  0  0  0  0  0
    0.7293    1.0535   -2.8967 O   0  0  0  0  0  0  0  0  0  0  0  0
    3.7915    1.0849   -1.5959 C   0  0  0  0  0  0  0  0  0  0  0  0
    1.5130    0.1651    0.4104 H   0  0  0  0  0  0  0  0  0  0  0  0
    2.3575    2.1047   -0.3447 H   0  0  0  0  0  0  0  0  0  0  0  0
    3.8203    0.3257   -2.3859 H   0  0  0  0  0  0  0  0  0  0  0  0
    4.2509    1.9951   -1.9952 H   0  0  0  0  0  0  0  0  0  0  0  0
    4.4109    0.7257   -0.7670 H   0  0  0  0  0  0  0  0  0  0  0  0
    1.6978    3.1417   -2.6023 N   0  0  0  0  0  0  0  0  0  0  0  0
    0.9964    3.8107   -3.6730 C   0  0  0  0  0  0  0  0  0  0  0  0
    2.3361    3.6932   -2.0366 H   0  0  0  0  0  0  0  0  0  0  0  0
    1.5924    3.7517   -4.5957 H   0  0  0  0  0  0  0  0  0  0  0  0
    0.0230    3.3241   -3.8338 H   0  0  0  0  0  0  0  0  0  0  0  0
    0.8390    4.8659   -3.4051 H   0  0  0  0  0  0  0  0  0  0  0  0
  1  3  1  0  0  0  0
  1  7  1  0  0  0  0
  1  2  2  0  0  0  0
 21 22  1  0  0  0  0
 22 24  1  0  0  0  0
 22 23  2  0  0  0  0
 32 33  1  0  0  0  0
 33 41  1  0  0  0  0
 33 34  2  0  0  0  0
  8  9  1  0  0  0  0
  9 17  1  0  0  0  0
  9 10  2  0  0  0  0
 18 19  1  0  0  0  0
 19 31  1  0  0  0  0
 19 20  2  0  0  0  0
 32 35  1  0  0  0  0
  8 11  1  0  0  0  0
 41 42  1  0  0  0  0
 18 21  1  0  0  0  0
 31 32  1  0  0  0  0
  7  8  1  0  0  0  0
 17 18  1  0  0  0  0
  3  4  1  0  0  0  0
  3  5  1  0  0  0  0
  3  6  1  0  0  0  0
 35 38  1  0  0  0  0
 35 39  1  0  0  0  0
 35 40  1  0  0  0  0
 11 14  1  0  0  0  0
 11 15  1  0  0  0  0
 11 16  1  0  0  0  0
 42 44  1  0  0  0  0
 42 45  1  0  0  0  0
 42 46  1  0  0  0  0
 21 27  1  0  0  0  0
 21 28  1  0  0  0  0
 32 37  1  0  0  0  0
  8 13  1  0  0  0  0
 18 26  1  0  0  0  0
 24 29  1  0  0  0  0
 24 30  1  0  0  0  0
 41 43  1  0  0  0  0
  7 12  1  0  0  0  0
 31 36  1  0  0  0  0
 17 25  1  0  0  0  0
M  END
$$$$

  -OEChem-05262214473D

 46 45  0     1  0  0  0  0  0999 V2000
   -0.0543    1.9736    3.8406 C   0  0  0  0  0  0  0  0  0  0  0  0
    0.6744    1.6099    4.7562 O   0  0  0  0  0  0  0  0  0  0  0  0
   -0.5599    3.3779    3.8160 C   0  0  0  0  0  0  0  0  0  0  0  0
   -1.5202    3.4885    4.3450 H   0  0  0  0  0  0  0  0  0  0  0  0
    0.1282    4.0814    4.3116 H   0  0  0  0  0  0  0  0  0  0  0  0
   -0.7317    3.7994    2.8126 H   0  0  0  0  0  0  0  0  0  0  0  0
   -0.4812    1.1968    2.7762 N   0  0  0  0  0  0  0  0  0  0  0  0
   -0.1106   -0.1834    2.6051 C   0  0  2  0  0  0  0  0  0  0  0  0
   -0.0696   -0.4775    1.1113 C   0  0  0  0  0  0  0  0  0  0  0  0
   -0.6805    0.1900    0.2792 O   0  0  0  0  0  0  0  0  0  0  0  0
   -1.0852   -1.1101    3.3150 C   0  0  0  0  0  0  0  0  0  0  0  0
   -1.0883    1.6241    2.0791 H   0  0  0  0  0  0  0  0  0  0  0  0
    0.8937   -0.2959    3.0277 H   0  0  0  0  0  0  0  0  0  0  0  0
   -2.0970   -1.0114    2.9051 H   0  0  0  0  0  0  0  0  0  0  0  0
   -0.7860   -2.1580    3.2078 H   0  0  0  0  0  0  0  0  0  0  0  0
   -1.1357   -0.8775    4.3842 H   0  0  0  0  0  0  0  0  0  0  0  0
    0.6950   -1.6003    0.8178 N   0  0  0  0  0  0  0  0  0  0  0  0
    0.8777   -2.0908   -0.5246 C   0  0  2  0  0  0  0  0  0  0  0  0
    1.5386   -0.9816   -1.3333 C   0  0  0  0  0  0  0  0  0  0  0  0
    1.5505   -0.9623   -2.5625 O   0  0  0  0  0  0  0  0  0  0  0  0
   -0.4472   -2.5071   -1.1639 C   0  0  0  0  0  0  0  0  0  0  0  0
   -1.0388   -3.7631   -0.5486 C   0  0  0  0  0  0  0  0  0  0  0  0
   -0.3832   -4.7559   -0.2471 O   0  0  0  0  0  0  0  0  0  0  0  0
   -2.4009   -3.6610   -0.3605 N   0  0  0  0  0  0  0  0  0  0  0  0
    1.1810   -2.0803    1.5718 H   0  0  0  0  0  0  0  0  0  0  0  0
    1.5671   -2.9403   -0.4556 H   0  0  0  0  0  0  0  0  0  0  0  0
   -1.1922   -1.7098   -1.0474 H   0  0  0  0  0  0  0  0  0  0  0  0
   -0.3190   -2.6744   -2.2411 H   0  0  0  0  0  0  0  0  0  0  0  0
   -2.9020   -2.8184   -0.6219 H   0  0  0  0  0  0  0  0  0  0  0  0
   -2.9514   -4.4134    0.0410 H   0  0  0  0  0  0  0  0  0  0  0  0
    2.0710    0.0118   -0.5236 N   0  0  0  0  0  0  0  0  0  0  0  0
    2.7240    1.1772   -1.0701 C   0  0  2  0  0  0  0  0  0  0  0  0
    1.7334    1.8860   -1.9844 C   0  0  0  0  0  0  0  0  0  0  0  0
    0.7708    1.3195   -2.4979 O   0  0  0  0  0  0  0  0  0  0  0  0
    3.9879    0.7995   -1.8268 C   0  0  0  0  0  0  0  0  0  0  0  0
    1.9985   -0.0688    0.4864 H   0  0  0  0  0  0  0  0  0  0  0  0
    2.9706    1.8276   -0.2238 H   0  0  0  0  0  0  0  0  0  0  0  0
    3.7607    0.1479   -2.6785 H   0  0  0  0  0  0  0  0  0  0  0  0
    4.4973    1.6871   -2.2164 H   0  0  0  0  0  0  0  0  0  0  0  0
    4.6867    0.2636   -1.1754 H   0  0  0  0  0  0  0  0  0  0  0  0
    2.0751    3.2147   -2.1939 N   0  0  0  0  0  0  0  0  0  0  0  0
    1.2987    4.0961   -3.0344 C   0  0  0  0  0  0  0  0  0  0  0  0
    2.8796    3.6056   -1.7126 H   0  0  0  0  0  0  0  0  0  0  0  0
    1.7030    4.0784   -4.0573 H   0  0  0  0  0  0  0  0  0  0  0  0
    0.2512    3.7607   -3.0484 H   0  0  0  0  0  0  0  0  0  0  0  0
    1.3505    5.1207   -2.6375 H   0  0  0  0  0  0  0  0  0  0  0  0
  1  3  1  0  0  0  0
  1  7  1  0  0  0  0
  1  2  2  0  0  0  0
 21 22  1  0  0  0  0
 22 24  1  0  0  0  0
 22 23  2  0  0  0  0
 32 33  1  0  0  0  0
 33 41  1  0  0  0  0
 33 34  2  0  0  0  0
  8  9  1  0  0  0  0
  9 17  1  0  0  0  0
  9 10  2  0  0  0  0
 18 19  1  0  0  0  0
 19 31  1  0  0  0  0
 19 20  2  0  0  0  0
 32 35  1  0  0  0  0
  8 11  1  0  0  0  0
 41 42  1  0  0  0  0
 18 21  1  0  0  0  0
 31 32  1  0  0  0  0
  7  8  1  0  0  0  0
 17 18  1  0  0  0  0
  3  4  1  0  0  0  0
  3  5  1  0  0  0  0
  3  6  1  0  0  0  0
 35 38  1  0  0  0  0
 35 39  1  0  0  0  0
 35 40  1  0  0  0  0
 11 14  1  0  0  0  0
 11 15  1  0  0  0  0
 11 16  1  0  0  0  0
 42 44  1  0  0  0  0
 42 45  1  0  0  0  0
 42 46  1  0  0  0  0
 21 27  1  0  0  0  0
 21 28  1  0  0  0  0
 32 37  1  0  0  0  0
  8 13  1  0  0  0  0
 18 26  1  0  0  0  0
 24 29  1  0  0  0  0
 24 30  1  0  0  0  0
 41 43  1  0  0  0  0
  7 12  1  0  0  0  0
 31 36  1  0  0  0  0
 17 25  1  0  0  0  0
M  END
$$$$

  -OEChem-05262214473D

 46 45  0     1  0  0  0  0  0999 V2000
   -0.0543    1.9736    3.8406 C   0  0  0  0  0  0  0  0  0  0  0  0
    0.6744    1.6099    4.7562 O   0  0  0  0  0  0  0  0  0  0  0  0
   -0.5599    3.3779    3.8160 C   0  0  0  0  0  0  0  0  0  0  0  0
   -1.5202    3.4885    4.3450 H   0  0  0  0  0  0  0  0  0  0  0  0
    0.1282    4.0814    4.3116 H   0  0  0  0  0  0  0  0  0  0  0  0
   -0.7317    3.7994    2.8126 H   0  0  0  0  0  0  0  0  0  0  0  0
   -0.4812    1.1968    2.7762 N   0  0  0  0  0  0  0  0  0  0  0  0
   -0.1106   -0.1834    2.6051 C   0  0  2  0  0  0  0  0  0  0  0  0
   -0.0696   -0.4775    1.1113 C   0  0  0  0  0  0  0  0  0  0  0  0
   -0.6805    0.1900    0.2792 O   0  0  0  0  0  0  0  0  0  0  0  0
   -1.0852   -1.1101    3.3150 C   0  0  0  0  0  0  0  0  0  0  0  0
   -1.0883    1.6241    2.0791 H   0  0  0  0  0  0  0  0  0  0  0  0
    0.8937   -0.2959    3.0277 H   0  0  0  0  0  0  0  0  0  0  0  0
   -2.0970   -1.0114    2.9051 H   0  0  0  0  0  0  0  0  0  0  0  0
   -0.7860   -2.1580    3.2078 H   0  0  0  0  0  0  0  0  0  0  0  0
   -1.1357   -0.8775    4.3842 H   0  0  0  0  0  0  0  0  0  0  0  0
    0.6950   -1.6003    0.8178 N   0  0  0  0  0  0  0  0  0  0  0  0
    0.8777   -2.0908   -0.5246 C   0  0  2  0  0  0  0  0  0  0  0  0
    1.5386   -0.9816   -1.3333 C   0  0  0  0  0  0  0  0  0  0  0  0
    1.3310   -0.8099   -2.5328 O   0  0  0  0  0  0  0  0  0  0  0  0
   -0.4472   -2.5071   -1.1639 C   0  0  0  0  0  0  0  0  0  0  0  0
   -1.0388   -3.7631   -0.5486 C   0  0  0  0  0  0  0  0  0  0  0  0
   -0.3832   -4.7559   -0.2471 O   0  0  0  0  0  0  0  0  0  0  0  0
   -2.4009   -3.6610   -0.3605 N   0  0  0  0  0  0  0  0  0  0  0  0
    1.1810   -2.0803    1.5718 H   0  0  0  0  0  0  0  0  0  0  0  0
    1.5671   -2.9403   -0.4556 H   0  0  0  0  0  0  0  0  0  0  0  0
   -1.1922   -1.7098   -1.0474 H   0  0  0  0  0  0  0  0  0  0  0  0
   -0.3190   -2.6744   -2.2411 H   0  0  0  0  0  0  0  0  0  0  0  0
   -2.9020   -2.8184   -0.6219 H   0  0  0  0  0  0  0  0  0  0  0  0
   -2.9514   -4.4134    0.0410 H   0  0  0  0  0  0  0  0  0  0  0  0
    2.3497   -0.1730   -0.5495 N   0  0  0  0  0  0  0  0  0  0  0  0
    3.0585    0.9596   -1.0952 C   0  0  2  0  0  0  0  0  0  0  0  0
    2.0352    1.8971   -1.7225 C   0  0  0  0  0  0  0  0  0  0  0  0
    0.9226    1.5260   -2.0906 O   0  0  0  0  0  0  0  0  0  0  0  0
    4.0948    0.5228   -2.1190 C   0  0  0  0  0  0  0  0  0  0  0  0
    2.4496   -0.3699    0.4420 H   0  0  0  0  0  0  0  0  0  0  0  0
    3.5475    1.4621   -0.2536 H   0  0  0  0  0  0  0  0  0  0  0  0
    3.6236    0.0172   -2.9698 H   0  0  0  0  0  0  0  0  0  0  0  0
    4.6513    1.3805   -2.5110 H   0  0  0  0  0  0  0  0  0  0  0  0
    4.8126   -0.1747   -1.6738 H   0  0  0  0  0  0  0  0  0  0  0  0
    2.5264    3.1875   -1.8622 N   0  0  0  0  0  0  0  0  0  0  0  0
    1.7504    4.2586   -2.4425 C   0  0  0  0  0  0  0  0  0  0  0  0
    3.4535    3.4100   -1.5119 H   0  0  0  0  0  0  0  0  0  0  0  0
    1.9561    4.3183   -3.5214 H   0  0  0  0  0  0  0  0  0  0  0  0
    0.6796    4.0630   -2.2837 H   0  0  0  0  0  0  0  0  0  0  0  0
    2.0241    5.2104   -1.9639 H   0  0  0  0  0  0  0  0  0  0  0  0
  1  3  1  0  0  0  0
  1  7  1  0  0  0  0
  1  2  2  0  0  0  0
 21 22  1  0  0  0  0
 22 24  1  0  0  0  0
 22 23  2  0  0  0  0
 32 33  1  0  0  0  0
 33 41  1  0  0  0  0
 33 34  2  0  0  0  0
  8  9  1  0  0  0  0
  9 17  1  0  0  0  0
  9 10  2  0  0  0  0
 18 19  1  0  0  0  0
 19 31  1  0  0  0  0
 19 20  2  0  0  0  0
 32 35  1  0  0  0  0
  8 11  1  0  0  0  0
 41 42  1  0  0  0  0
 18 21  1  0  0  0  0
 31 32  1  0  0  0  0
  7  8  1  0  0  0  0
 17 18  1  0  0  0  0
  3  4  1  0  0  0  0
  3  5  1  0  0  0  0
  3  6  1  0  0  0  0
 35 38  1  0  0  0  0
 35 39  1  0  0  0  0
 35 40  1  0  0  0  0
 11 14  1  0  0  0  0
 11 15  1  0  0  0  0
 11 16  1  0  0  0  0
 42 44  1  0  0  0  0
 42 45  1  0  0  0  0
 42 46  1  0  0  0  0
 21 27  1  0  0  0  0
 21 28  1  0  0  0  0
 32 37  1  0  0  0  0
  8 13  1  0  0  0  0
 18 26  1  0  0  0  0
 24 29  1  0  0  0  0
 24 30  1  0  0  0  0
 41 43  1  0  0  0  0
  7 12  1  0  0  0  0
 31 36  1  0  0  0  0
 17 25  1  0  0  0  0
M  END
$$$$

  -OEChem-05262214473D

 46 45  0     1  0  0  0  0  0999 V2000
   -0.0543    1.9736    3.8406 C   0  0  0  0  0  0  0  0  0  0  0  0
    0.6744    1.6099    4.7562 O   0  0  0  0  0  0  0  0  0  0  0  0
   -0.5599    3.3779    3.8160 C   0  0  0  0  0  0  0  0  0  0  0  0
   -1.5202    3.4885    4.3450 H   0  0  0  0  0  0  0  0  0  0  0  0
    0.1282    4.0814    4.3116 H   0  0  0  0  0  0  0  0  0  0  0  0
   -0.7317    3.7994    2.8126 H   0  0  0  0  0  0  0  0  0  0  0  0
   -0.4812    1.1968    2.7762 N   0  0  0  0  0  0  0  0  0  0  0  0
   -0.1106   -0.1834    2.6051 C   0  0  2  0  0  0  0  0  0  0  0  0
   -0.0696   -0.4775    1.1113 C   0  0  0  0  0  0  0  0  0  0  0  0
   -0.6805    0.1900    0.2792 O   0  0  0  0  0  0  0  0  0  0  0  0
   -1.0852   -1.1101    3.3150 C   0  0  0  0  0  0  0  0  0  0  0  0
   -1.0883    1.6241    2.0791 H   0  0  0  0  0  0  0  0  0  0  0  0
    0.8937   -0.2959    3.0277 H   0  0  0  0  0  0  0  0  0  0  0  0
   -2.0970   -1.0114    2.9051 H   0  0  0  0  0  0  0  0  0  0  0  0
   -0.7860   -2.1580    3.2078 H   0  0  0  0  0  0  0  0  0  0  0  0
   -1.1357   -0.8775    4.3842 H   0  0  0  0  0  0  0  0  0  0  0  0
    0.6950   -1.6003    0.8178 N   0  0  0  0  0  0  0  0  0  0  0  0
    0.8777   -2.0908   -0.5246 C   0  0  2  0  0  0  0  0  0  0  0  0
    1.5386   -0.9816   -1.3333 C   0  0  0  0  0  0  0  0  0  0  0  0
    1.1456   -0.6359   -2.4457 O   0  0  0  0  0  0  0  0  0  0  0  0
   -0.4472   -2.5071   -1.1639 C   0  0  0  0  0  0  0  0  0  0  0  0
   -1.0388   -3.7631   -0.5486 C   0  0  0  0  0  0  0  0  0  0  0  0
   -0.3832   -4.7559   -0.2471 O   0  0  0  0  0  0  0  0  0  0  0  0
   -2.4009   -3.6610   -0.3605 N   0  0  0  0  0  0  0  0  0  0  0  0
    1.1810   -2.0803    1.5718 H   0  0  0  0  0  0  0  0  0  0  0  0
    1.5671   -2.9403   -0.4556 H   0  0  0  0  0  0  0  0  0  0  0  0
   -1.1922   -1.7098   -1.0474 H   0  0  0  0  0  0  0  0  0  0  0  0
   -0.3190   -2.6744   -2.2411 H   0  0  0  0  0  0  0  0  0  0  0  0
   -2.9020   -2.8184   -0.6219 H   0  0  0  0  0  0  0  0  0  0  0  0
   -2.9514   -4.4134    0.0410 H   0  0  0  0  0  0  0  0  0  0  0  0
    2.5886   -0.3870   -0.6477 N   0  0  0  0  0  0  0  0  0  0  0  0
    3.3470    0.7062   -1.2070 C   0  0  2  0  0  0  0  0  0  0  0  0
    2.3776    1.8369   -1.5251 C   0  0  0  0  0  0  0  0  0  0  0  0
    1.1744    1.6589   -1.7027 O   0  0  0  0  0  0  0  0  0  0  0  0
    4.1051    0.2736   -2.4524 C   0  0  0  0  0  0  0  0  0  0  0  0
    2.8356   -0.7177    0.2804 H   0  0  0  0  0  0  0  0  0  0  0  0
    4.0489    1.0332   -0.4321 H   0  0  0  0  0  0  0  0  0  0  0  0
    3.4184   -0.0575   -3.2400 H   0  0  0  0  0  0  0  0  0  0  0  0
    4.7024    1.0963   -2.8591 H   0  0  0  0  0  0  0  0  0  0  0  0
    4.7800   -0.5594   -2.2281 H   0  0  0  0  0  0  0  0  0  0  0  0
    3.0212    3.0620   -1.6300 N   0  0  0  0  0  0  0  0  0  0  0  0
    2.3205    4.2870   -1.9375 C   0  0  0  0  0  0  0  0  0  0  0  0
    4.0189    3.1196   -1.4481 H   0  0  0  0  0  0  0  0  0  0  0  0
    2.3345    4.4550   -3.0245 H   0  0  0  0  0  0  0  0  0  0  0  0
    1.2790    4.2102   -1.5919 H   0  0  0  0  0  0  0  0  0  0  0  0
    2.8141    5.1289   -1.4301 H   0  0  0  0  0  0  0  0  0  0  0  0
  1  3  1  0  0  0  0
  1  7  1  0  0  0  0
  1  2  2  0  0  0  0
 21 22  1  0  0  0  0
 22 24  1  0  0  0  0
 22 23  2  0  0  0  0
 32 33  1  0  0  0  0
 33 41  1  0  0  0  0
 33 34  2  0  0  0  0
  8  9  1  0  0  0  0
  9 17  1  0  0  0  0
  9 10  2  0  0  0  0
 18 19  1  0  0  0  0
 19 31  1  0  0  0  0
 19 20  2  0  0  0  0
 32 35  1  0  0  0  0
  8 11  1  0  0  0  0
 41 42  1  0  0  0  0
 18 21  1  0  0  0  0
 31 32  1  0  0  0  0
  7  8  1  0  0  0  0
 17 18  1  0  0  0  0
  3  4  1  0  0  0  0
  3  5  1  0  0  0  0
  3  6  1  0  0  0  0
 35 38  1  0  0  0  0
 35 39  1  0  0  0  0
 35 40  1  0  0  0  0
 11 14  1  0  0  0  0
 11 15  1  0  0  0  0
 11 16  1  0  0  0  0
 42 44  1  0  0  0  0
 42 45  1  0  0  0  0
 42 46  1  0  0  0  0
 21 27  1  0  0  0  0
 21 28  1  0  0  0  0
 32 37  1  0  0  0  0
  8 13  1  0  0  0  0
 18 26  1  0  0  0  0
 24 29  1  0  0  0  0
 24 30  1  0  0  0  0
 41 43  1  0  0  0  0
  7 12  1  0  0  0  0
 31 36  1  0  0  0  0
 17 25  1  0  0  0  0
M  END
$$$$

  -OEChem-05262214473D

 46 45  0     1  0  0  0  0  0999 V2000
   -0.0543    1.9736    3.8406 C   0  0  0  0  0  0  0  0  0  0  0  0
    0.6744    1.6099    4.7562 O   0  0  0  0  0  0  0  0  0  0  0  0
   -0.5599    3.3779    3.8160 C   0  0  0  0  0  0  0  0  0  0  0  0
   -1.5202    3.4885    4.3450 H   0  0  0  0  0  0  0  0  0  0  0  0
    0.1282    4.0814    4.3116 H   0  0  0  0  0  0  0  0  0  0  0  0
   -0.7317    3.7994    2.8126 H   0  0  0  0  0  0  0  0  0  0  0  0
   -0.4812    1.1968    2.7762 N   0  0  0  0  0  0  0  0  0  0  0  0
   -0.1106   -0.1834    2.6051 C   0  0  2  0  0  0  0  0  0  0  0  0
   -0.0696   -0.4775    1.1113 C   0  0  0  0  0  0  0  0  0  0  0  0
   -0.6805    0.1900    0.2792 O   0  0  0  0  0  0  0  0  0  0  0  0
   -1.0852   -1.1101    3.3150 C   0  0  0  0  0  0  0  0  0  0  0  0
   -1.0883    1.6241    2.0791 H   0  0  0  0  0  0  0  0  0  0  0  0
    0.8937   -0.2959    3.0277 H   0  0  0  0  0  0  0  0  0  0  0  0
   -2.0970   -1.0114    2.9051 H   0  0  0  0  0  0  0  0  0  0  0  0
   -0.7860   -2.1580    3.2078 H   0  0  0  0  0  0  0  0  0  0  0  0
   -1.1357   -0.8775    4.3842 H   0  0  0  0  0  0  0  0  0  0  0  0
    0.6950   -1.6003    0.8178 N   0  0  0  0  0  0  0  0  0  0  0  0
    0.8777   -2.0908   -0.5246 C   0  0  2  0  0  0  0  0  0  0  0  0
    1.5386   -0.9816   -1.3333 C   0  0  0  0  0  0  0  0  0  0  0  0
    1.0067   -0.4522   -2.3071 O   0  0  0  0  0  0  0  0  0  0  0  0
   -0.4472   -2.5071   -1.1639 C   0  0  0  0  0  0  0  0  0  0  0  0
   -1.0388   -3.7631   -0.5486 C   0  0  0  0  0  0  0  0  0  0  0  0
   -0.3832   -4.7559   -0.2471 O   0  0  0  0  0  0  0  0  0  0  0  0
   -2.4009   -3.6610   -0.3605 N   0  0  0  0  0  0  0  0  0  0  0  0
    1.1810   -2.0803    1.5718 H   0  0  0  0  0  0  0  0  0  0  0  0
    1.5671   -2.9403   -0.4556 H   0  0  0  0  0  0  0  0  0  0  0  0
   -1.1922   -1.7098   -1.0474 H   0  0  0  0  0  0  0  0  0  0  0  0
   -0.3190   -2.6744   -2.2411 H   0  0  0  0  0  0  0  0  0  0  0  0
   -2.9020   -2.8184   -0.6219 H   0  0  0  0  0  0  0  0  0  0  0  0
   -2.9514   -4.4134    0.0410 H   0  0  0  0  0  0  0  0  0  0  0  0
    2.7714   -0.6155   -0.8117 N   0  0  0  0  0  0  0  0  0  0  0  0
    3.5698    0.4343   -1.3978 C   0  0  2  0  0  0  0  0  0  0  0  0
    2.7373    1.7096   -1.4058 C   0  0  0  0  0  0  0  0  0  0  0  0
    1.5089    1.7090   -1.3604 O   0  0  0  0  0  0  0  0  0  0  0  0
    4.0179    0.0689   -2.8044 C   0  0  0  0  0  0  0  0  0  0  0  0
    3.1302   -1.0886    0.0125 H   0  0  0  0  0  0  0  0  0  0  0  0
    4.4407    0.5701   -0.7472 H   0  0  0  0  0  0  0  0  0  0  0  0
    3.1590   -0.0711   -3.4707 H   0  0  0  0  0  0  0  0  0  0  0  0
    4.6471    0.8539   -3.2368 H   0  0  0  0  0  0  0  0  0  0  0  0
    4.5913   -0.8644   -2.8006 H   0  0  0  0  0  0  0  0  0  0  0  0
    3.5256    2.8468   -1.5130 N   0  0  0  0  0  0  0  0  0  0  0  0
    2.9702    4.1794   -1.5541 C   0  0  0  0  0  0  0  0  0  0  0  0
    4.5371    2.7543   -1.5257 H   0  0  0  0  0  0  0  0  0  0  0  0
    2.8124    4.4794   -2.6006 H   0  0  0  0  0  0  0  0  0  0  0  0
    2.0086    4.1923   -1.0201 H   0  0  0  0  0  0  0  0  0  0  0  0
    3.6665    4.8817   -1.0725 H   0  0  0  0  0  0  0  0  0  0  0  0
  1  3  1  0  0  0  0
  1  7  1  0  0  0  0
  1  2  2  0  0  0  0
 21 22  1  0  0  0  0
 22 24  1  0  0  0  0
 22 23  2  0  0  0  0
 32 33  1  0  0  0  0
 33 41  1  0  0  0  0
 33 34  2  0  0  0  0
  8  9  1  0  0  0  0
  9 17  1  0  0  0  0
  9 10  2  0  0  0  0
 18 19  1  0  0  0  0
 19 31  1  0  0  0  0
 19 20  2  0  0  0  0
 32 35  1  0  0  0  0
  8 11  1  0  0  0  0
 41 42  1  0  0  0  0
 18 21  1  0  0  0  0
 31 32  1  0  0  0  0
  7  8  1  0  0  0  0
 17 18  1  0  0  0  0
  3  4  1  0  0  0  0
  3  5  1  0  0  0  0
  3  6  1  0  0  0  0
 35 38  1  0  0  0  0
 35 39  1  0  0  0  0
 35 40  1  0  0  0  0
 11 14  1  0  0  0  0
 11 15  1  0  0  0  0
 11 16  1  0  0  0  0
 42 44  1  0  0  0  0
 42 45  1  0  0  0  0
 42 46  1  0  0  0  0
 21 27  1  0  0  0  0
 21 28  1  0  0  0  0
 32 37  1  0  0  0  0
  8 13  1  0  0  0  0
 18 26  1  0  0  0  0
 24 29  1  0  0  0  0
 24 30  1  0  0  0  0
 41 43  1  0  0  0  0
  7 12  1  0  0  0  0
 31 36  1  0  0  0  0
 17 25  1  0  0  0  0
M  END
$$$$

  -OEChem-05262214473D

 46 45  0     1  0  0  0  0  0999 V2000
   -0.0543    1.9736    3.8406 C   0  0  0  0  0  0  0  0  0  0  0  0
    0.6744    1.6099    4.7562 O   0  0  0  0  0  0  0  0  0  0  0  0
   -0.5599    3.3779    3.8160 C   0  0  0  0  0  0  0  0  0  0  0  0
   -1.5202    3.4885    4.3450 H   0  0  0  0  0  0  0  0  0  0  0  0
    0.1282    4.0814    4.3116 H   0  0  0  0  0  0  0  0  0  0  0  0
   -0.7317    3.7994    2.8126 H   0  0  0  0  0  0  0  0  0  0  0  0
   -0.4812    1.1968    2.7762 N   0  0  0  0  0  0  0  0  0  0  0  0
   -0.1106   -0.1834    2.6051 C   0  0  2  0  0  0  0  0  0  0  0  0
   -0.0696   -0.4775    1.1113 C   0  0  0  0  0  0  0  0  0  0  0  0
   -0.6805    0.1900    0.2792 O   0  0  0  0  0  0  0  0  0  0  0  0
   -1.0852   -1.1101    3.3150 C   0  0  0  0  0  0  0  0  0  0  0  0
   -1.0883    1.6241    2.0791 H   0  0  0  0  0  0  0  0  0  0  0  0
    0.8937   -0.2959    3.0277 H   0  0  0  0  0  0  0  0  0  0  0  0
   -2.0970   -1.0114    2.9051 H   0  0  0  0  0  0  0  0  0  0  0  0
   -0.7860   -2.1580    3.2078 H   0  0  0  0  0  0  0  0  0  0  0  0
   -1.1357   -0.8775    4.3842 H   0  0  0  0  0  0  0  0  0  0  0  0
    0.6950   -1.6003    0.8178 N   0  0  0  0  0  0  0  0  0  0  0  0
    0.8777   -2.0908   -0.5246 C   0  0  2  0  0  0  0  0  0  0  0  0
    1.5386   -0.9816   -1.3333 C   0  0  0  0  0  0  0  0  0  0  0  0
    0.9240   -0.2711   -2.1264 O   0  0  0  0  0  0  0  0  0  0  0  0
   -0.4472   -2.5071   -1.1639 C   0  0  0  0  0  0  0  0  0  0  0  0
   -1.0388   -3.7631   -0.5486 C   0  0  0  0  0  0  0  0  0  0  0  0
   -0.3832   -4.7559   -0.2471 O   0  0  0  0  0  0  0  0  0  0  0  0
   -2.4009   -3.6610   -0.3605 N   0  0  0  0  0  0  0  0  0  0  0  0
    1.1810   -2.0803    1.5718 H   0  0  0  0  0  0  0  0  0  0  0  0
    1.5671   -2.9403   -0.4556 H   0  0  0  0  0  0  0  0  0  0  0  0
   -1.1922   -1.7098   -1.0474 H   0  0  0  0  0  0  0  0  0  0  0  0
   -0.3190   -2.6744   -2.2411 H   0  0  0  0  0  0  0  0  0  0  0  0
   -2.9020   -2.8184   -0.6219 H   0  0  0  0  0  0  0  0  0  0  0  0
   -2.9514   -4.4134    0.0410 H   0  0  0  0  0  0  0  0  0  0  0  0
    2.8857   -0.8429   -1.0301 N   0  0  0  0  0  0  0  0  0  0  0  0
    3.7117    0.1626   -1.6546 C   0  0  2  0  0  0  0  0  0  0  0  0
    3.0897    1.5238   -1.3726 C   0  0  0  0  0  0  0  0  0  0  0  0
    1.9034    1.6731   -1.0873 O   0  0  0  0  0  0  0  0  0  0  0  0
    3.8393   -0.0773   -3.1509 C   0  0  0  0  0  0  0  0  0  0  0  0
    3.3134   -1.4572   -0.3435 H   0  0  0  0  0  0  0  0  0  0  0  0
    4.6961    0.1042   -1.1774 H   0  0  0  0  0  0  0  0  0  0  0  0
    2.8630   -0.0227   -3.6462 H   0  0  0  0  0  0  0  0  0  0  0  0
    4.4893    0.6697   -3.6185 H   0  0  0  0  0  0  0  0  0  0  0  0
    4.2592   -1.0687   -3.3523 H   0  0  0  0  0  0  0  0  0  0  0  0
    4.0053    2.5565   -1.5192 N   0  0  0  0  0  0  0  0  0  0  0  0
    3.6553    3.9432   -1.3182 C   0  0  0  0  0  0  0  0  0  0  0  0
    4.9728    2.3389   -1.7393 H   0  0  0  0  0  0  0  0  0  0  0  0
    3.3573    4.3896   -2.2783 H   0  0  0  0  0  0  0  0  0  0  0  0
    2.8186    4.0107   -0.6072 H   0  0  0  0  0  0  0  0  0  0  0  0
    4.5233    4.4857   -0.9154 H   0  0  0  0  0  0  0  0  0  0  0  0
  1  3  1  0  0  0  0
  1  7  1  0  0  0  0
  1  2  2  0  0  0  0
 21 22  1  0  0  0  0
 22 24  1  0  0  0  0
 22 23  2  0  0  0  0
 32 33  1  0  0  0  0
 33 41  1  0  0  0  0
 33 34  2  0  0  0  0
  8  9  1  0  0  0  0
  9 17  1  0  0  0  0
  9 10  2  0  0  0  0
 18 19  1  0  0  0  0
 19 31  1  0  0  0  0
 19 20  2  0  0  0  0
 32 35  1  0  0  0  0
  8 11  1  0  0  0  0
 41 42  1  0  0  0  0
 18 21  1  0  0  0  0
 31 32  1  0  0  0  0
  7  8  1  0  0  0  0
 17 18  1  0  0  0  0
  3  4  1  0  0  0  0
  3  5  1  0  0  0  0
  3  6  1  0  0  0  0
 35 38  1  0  0  0  0
 35 39  1  0  0  0  0
 35 40  1  0  0  0  0
 11 14  1  0  0  0  0
 11 15  1  0  0  0  0
 11 16  1  0  0  0  0
 42 44  1  0  0  0  0
 42 45  1  0  0  0  0
 42 46  1  0  0  0  0
 21 27  1  0  0  0  0
 21 28  1  0  0  0  0
 32 37  1  0  0  0  0
  8 13  1  0  0  0  0
 18 26  1  0  0  0  0
 24 29  1  0  0  0  0
 24 30  1  0  0  0  0
 41 43  1  0  0  0  0
  7 12  1  0  0  0  0
 31 36  1  0  0  0  0
 17 25  1  0  0  0  0
M  END
$$$$

  -OEChem-05262214473D

 46 45  0     1  0  0  0  0  0999 V2000
   -0.0543    1.9736    3.8406 C   0  0  0  0  0  0  0  0  0  0  0  0
    0.6744    1.6099    4.7562 O   0  0  0  0  0  0  0  0  0  0  0  0
   -0.5599    3.3779    3.8160 C   0  0  0  0  0  0  0  0  0  0  0  0
   -1.5202    3.4885    4.3450 H   0  0  0  0  0  0  0  0  0  0  0  0
    0.1282    4.0814    4.3116 H   0  0  0  0  0  0  0  0  0  0  0  0
   -0.7317    3.7994    2.8126 H   0  0  0  0  0  0  0  0  0  0  0  0
   -0.4812    1.1968    2.7762 N   0  0  0  0  0  0  0  0  0  0  0  0
   -0.1106   -0.1834    2.6051 C   0  0  2  0  0  0  0  0  0  0  0  0
   -0.0696   -0.4775    1.1113 C   0  0  0  0  0  0  0  0  0  0  0  0
   -0.6805    0.1900    0.2792 O   0  0  0  0  0  0  0  0  0  0  0  0
   -1.0852   -1.1101    3.3150 C   0  0  0  0  0  0  0  0  0  0  0  0
   -1.0883    1.6241    2.0791 H   0  0  0  0  0  0  0  0  0  0  0  0
    0.8937   -0.2959    3.0277 H   0  0  0  0  0  0  0  0  0  0  0  0
   -2.0970   -1.0114    2.9051 H   0  0  0  0  0  0  0  0  0  0  0  0
   -0.7860   -2.1580    3.2078 H   0  0  0  0  0  0  0  0  0  0  0  0
   -1.1357   -0.8775    4.3842 H   0  0  0  0  0  0  0  0  0  0  0  0
    0.6950   -1.6003    0.8178 N   0  0  0  0  0  0  0  0  0  0  0  0
    0.8777   -2.0908   -0.5246 C   0  0  2  0  0  0  0  0  0  0  0  0
    1.5386   -0.9816   -1.3333 C   0  0  0  0  0  0  0  0  0  0  0  0
    0.9030   -0.1052   -1.9159 O   0  0  0  0  0  0  0  0  0  0  0  0
   -0.4472   -2.5071   -1.1639 C   0  0  0  0  0  0  0  0  0  0  0  0
   -1.0388   -3.7631   -0.5486 C   0  0  0  0  0  0  0  0  0  0  0  0
   -0.3832   -4.7559   -0.2471 O   0  0  0  0  0  0  0  0  0  0  0  0
   -2.4009   -3.6610   -0.3605 N   0  0  0  0  0  0  0  0  0  0  0  0
    1.1810   -2.0803    1.5718 H   0  0  0  0  0  0  0  0  0  0  0  0
    1.5671   -2.9403   -0.4556 H   0  0  0  0  0  0  0  0  0  0  0  0
   -1.1922   -1.7098   -1.0474 H   0  0  0  0  0  0  0  0  0  0  0  0
   -0.3190   -2.6744   -2.2411 H   0  0  0  0  0  0  0  0  0  0  0  0
   -2.9020   -2.8184   -0.6219 H   0  0  0  0  0  0  0  0  0  0  0  0
   -2.9514   -4.4134    0.0410 H   0  0  0  0  0  0  0  0  0  0  0  0
    2.9238   -1.0537   -1.2882 N   0  0  0  0  0  0  0  0  0  0  0  0
    3.7631   -0.0906   -1.9599 C   0  0  2  0  0  0  0  0  0  0  0  0
    3.4109    1.2922   -1.4278 C   0  0  0  0  0  0  0  0  0  0  0  0
    2.3310    1.5536   -0.9018 O   0  0  0  0  0  0  0  0  0  0  0  0
    3.5814   -0.1551   -3.4684 C   0  0  0  0  0  0  0  0  0  0  0  0
    3.3726   -1.7985   -0.7632 H   0  0  0  0  0  0  0  0  0  0  0  0
    4.7977   -0.3325   -1.6934 H   0  0  0  0  0  0  0  0  0  0  0  0
    2.5507    0.0844   -3.7545 H   0  0  0  0  0  0  0  0  0  0  0  0
    4.2396    0.5563   -3.9781 H   0  0  0  0  0  0  0  0  0  0  0  0
    3.8064   -1.1585   -3.8455 H   0  0  0  0  0  0  0  0  0  0  0  0
    4.4276    2.2108   -1.6482 N   0  0  0  0  0  0  0  0  0  0  0  0
    4.3290    3.5944   -1.2459 C   0  0  0  0  0  0  0  0  0  0  0  0
    5.2964    1.9019   -2.0743 H   0  0  0  0  0  0  0  0  0  0  0  0
    3.9320    4.1919   -2.0799 H   0  0  0  0  0  0  0  0  0  0  0  0
    3.6539    3.6776   -0.3815 H   0  0  0  0  0  0  0  0  0  0  0  0
    5.3262    3.9678   -0.9697 H   0  0  0  0  0  0  0  0  0  0  0  0
  1  3  1  0  0  0  0
  1  7  1  0  0  0  0
  1  2  2  0  0  0  0
 21 22  1  0  0  0  0
 22 24  1  0  0  0  0
 22 23  2  0  0  0  0
 32 33  1  0  0  0  0
 33 41  1  0  0  0  0
 33 34  2  0  0  0  0
  8  9  1  0  0  0  0
  9 17  1  0  0  0  0
  9 10  2  0  0  0  0
 18 19  1  0  0  0  0
 19 31  1  0  0  0  0
 19 20  2  0  0  0  0
 32 35  1  0  0  0  0
  8 11  1  0  0  0  0
 41 42  1  0  0  0  0
 18 21  1  0  0  0  0
 31 32  1  0  0  0  0
  7  8  1  0  0  0  0
 17 18  1  0  0  0  0
  3  4  1  0  0  0  0
  3  5  1  0  0  0  0
  3  6  1  0  0  0  0
 35 38  1  0  0  0  0
 35 39  1  0  0  0  0
 35 40  1  0  0  0  0
 11 14  1  0  0  0  0
 11 15  1  0  0  0  0
 11 16  1  0  0  0  0
 42 44  1  0  0  0  0
 42 45  1  0  0  0  0
 42 46  1  0  0  0  0
 21 27  1  0  0  0  0
 21 28  1  0  0  0  0
 32 37  1  0  0  0  0
  8 13  1  0  0  0  0
 18 26  1  0  0  0  0
 24 29  1  0  0  0  0
 24 30  1  0  0  0  0
 41 43  1  0  0  0  0
  7 12  1  0  0  0  0
 31 36  1  0  0  0  0
 17 25  1  0  0  0  0
M  END
$$$$

  -OEChem-05262214473D

 46 45  0     1  0  0  0  0  0999 V2000
   -0.0543    1.9736    3.8406 C   0  0  0  0  0  0  0  0  0  0  0  0
    0.6744    1.6099    4.7562 O   0  0  0  0  0  0  0  0  0  0  0  0
   -0.5599    3.3779    3.8160 C   0  0  0  0  0  0  0  0  0  0  0  0
   -1.5202    3.4885    4.3450 H   0  0  0  0  0  0  0  0  0  0  0  0
    0.1282    4.0814    4.3116 H   0  0  0  0  0  0  0  0  0  0  0  0
   -0.7317    3.7994    2.8126 H   0  0  0  0  0  0  0  0  0  0  0  0
   -0.4812    1.1968    2.7762 N   0  0  0  0  0  0  0  0  0  0  0  0
   -0.1106   -0.1834    2.6051 C   0  0  2  0  0  0  0  0  0  0  0  0
   -0.0696   -0.4775    1.1113 C   0  0  0  0  0  0  0  0  0  0  0  0
   -0.6805    0.1900    0.2792 O   0  0  0  0  0  0  0  0  0  0  0  0
   -1.0852   -1.1101    3.3150 C   0  0  0  0  0  0  0  0  0  0  0  0
   -1.0883    1.6241    2.0791 H   0  0  0  0  0  0  0  0  0  0  0  0
    0.8937   -0.2959    3.0277 H   0  0  0  0  0  0  0  0  0  0  0  0
   -2.0970   -1.0114    2.9051 H   0  0  0  0  0  0  0  0  0  0  0  0
   -0.7860   -2.1580    3.2078 H   0  0  0  0  0  0  0  0  0  0  0  0
   -1.1357   -0.8775    4.3842 H   0  0  0  0  0  0  0  0  0  0  0  0
    0.6950   -1.6003    0.8178 N   0  0  0  0  0  0  0  0  0  0  0  0
    0.8777   -2.0908   -0.5246 C   0  0  2  0  0  0  0  0  0  0  0  0
    1.5386   -0.9816   -1.3333 C   0  0  0  0  0  0  0  0  0  0  0  0
    0.9452    0.0343   -1.6901 O   0  0  0  0  0  0  0  0  0  0  0  0
   -0.4472   -2.5071   -1.1639 C   0  0  0  0  0  0  0  0  0  0  0  0
   -1.0388   -3.7631   -0.5486 C   0  0  0  0  0  0  0  0  0  0  0  0
   -0.3832   -4.7559   -0.2471 O   0  0  0  0  0  0  0  0  0  0  0  0
   -2.4009   -3.6610   -0.3605 N   0  0  0  0  0  0  0  0  0  0  0  0
    1.1810   -2.0803    1.5718 H   0  0  0  0  0  0  0  0  0  0  0  0
    1.5671   -2.9403   -0.4556 H   0  0  0  0  0  0  0  0  0  0  0  0
   -1.1922   -1.7098   -1.0474 H   0  0  0  0  0  0  0  0  0  0  0  0
   -0.3190   -2.6744   -2.2411 H   0  0  0  0  0  0  0  0  0  0  0  0
   -2.9020   -2.8184   -0.6219 H   0  0  0  0  0  0  0  0  0  0  0  0
   -2.9514   -4.4134    0.0410 H   0  0  0  0  0  0  0  0  0  0  0  0
    2.8829   -1.2336   -1.5684 N   0  0  0  0  0  0  0  0  0  0  0  0
    3.7204   -0.3079   -2.2929 C   0  0  2  0  0  0  0  0  0  0  0  0
    3.6789    1.0306   -1.5676 C   0  0  0  0  0  0  0  0  0  0  0  0
    2.7625    1.3585   -0.8166 O   0  0  0  0  0  0  0  0  0  0  0  0
    3.2617   -0.1591   -3.7352 C   0  0  0  0  0  0  0  0  0  0  0  0
    3.3037   -2.0891   -1.2181 H   0  0  0  0  0  0  0  0  0  0  0  0
    4.7387   -0.7104   -2.2600 H   0  0  0  0  0  0  0  0  0  0  0  0
    2.2434    0.2429   -3.7883 H   0  0  0  0  0  0  0  0  0  0  0  0
    3.9151    0.5214   -4.2911 H   0  0  0  0  0  0  0  0  0  0  0  0
    3.2638   -1.1277   -4.2467 H   0  0  0  0  0  0  0  0  0  0  0  0
    4.7638    1.8334   -1.8911 N   0  0  0  0  0  0  0  0  0  0  0  0
    4.9455    3.1569   -1.3423 C   0  0  0  0  0  0  0  0  0  0  0  0
    5.4858    1.4729   -2.5080 H   0  0  0  0  0  0  0  0  0  0  0  0
    4.4974    3.8996   -2.0187 H   0  0  0  0  0  0  0  0  0  0  0  0
    4.4575    3.2158   -0.3582 H   0  0  0  0  0  0  0  0  0  0  0  0
    6.0203    3.3634   -1.2315 H   0  0  0  0  0  0  0  0  0  0  0  0
  1  3  1  0  0  0  0
  1  7  1  0  0  0  0
  1  2  2  0  0  0  0
 21 22  1  0  0  0  0
 22 24  1  0  0  0  0
 22 23  2  0  0  0  0
 32 33  1  0  0  0  0
 33 41  1  0  0  0  0
 33 34  2  0  0  0  0
  8  9  1  0  0  0  0
  9 17  1  0  0  0  0
  9 10  2  0  0  0  0
 18 19  1  0  0  0  0
 19 31  1  0  0  0  0
 19 20  2  0  0  0  0
 32 35  1  0  0  0  0
  8 11  1  0  0  0  0
 41 42  1  0  0  0  0
 18 21  1  0  0  0  0
 31 32  1  0  0  0  0
  7  8  1  0  0  0  0
 17 18  1  0  0  0  0
  3  4  1  0  0  0  0
  3  5  1  0  0  0  0
  3  6  1  0  0  0  0
 35 38  1  0  0  0  0
 35 39  1  0  0  0  0
 35 40  1  0  0  0  0
 11 14  1  0  0  0  0
 11 15  1  0  0  0  0
 11 16  1  0  0  0  0
 42 44  1  0  0  0  0
 42 45  1  0  0  0  0
 42 46  1  0  0  0  0
 21 27  1  0  0  0  0
 21 28  1  0  0  0  0
 32 37  1  0  0  0  0
  8 13  1  0  0  0  0
 18 26  1  0  0  0  0
 24 29  1  0  0  0  0
 24 30  1  0  0  0  0
 41 43  1  0  0  0  0
  7 12  1  0  0  0  0
 31 36  1  0  0  0  0
 17 25  1  0  0  0  0
M  END
$$$$

  -OEChem-05262214473D

 46 45  0     1  0  0  0  0  0999 V2000
   -0.0543    1.9736    3.8406 C   0  0  0  0  0  0  0  0  0  0  0  0
    0.6744    1.6099    4.7562 O   0  0  0  0  0  0  0  0  0  0  0  0
   -0.5599    3.3779    3.8160 C   0  0  0  0  0  0  0  0  0  0  0  0
   -1.5202    3.4885    4.3450 H   0  0  0  0  0  0  0  0  0  0  0  0
    0.1282    4.0814    4.3116 H   0  0  0  0  0  0  0  0  0  0  0  0
   -0.7317    3.7994    2.8126 H   0  0  0  0  0  0  0  0  0  0  0  0
   -0.4812    1.1968    2.7762 N   0  0  0  0  0  0  0  0  0  0  0  0
   -0.1106   -0.1834    2.6051 C   0  0  2  0  0  0  0  0  0  0  0  0
   -0.0696   -0.4775    1.1113 C   0  0  0  0  0  0  0  0  0  0  0  0
   -0.6805    0.1900    0.2792 O   0  0  0  0  0  0  0  0  0  0  0  0
   -1.0852   -1.1101    3.3150 C   0  0  0  0  0  0  0  0  0  0  0  0
   -1.0883    1.6241    2.0791 H   0  0  0  0  0  0  0  0  0  0  0  0
    0.8937   -0.2959    3.0277 H   0  0  0  0  0  0  0  0  0  0  0  0
   -2.0970   -1.0114    2.9051 H   0  0  0  0  0  0  0  0  0  0  0  0
   -0.7860   -2.1580    3.2078 H   0  0  0  0  0  0  0  0  0  0  0  0
   -1.1357   -0.8775    4.3842 H   0  0  0  0  0  0  0  0  0  0  0  0
    0.6950   -1.6003    0.8178 N   0  0  0  0  0  0  0  0  0  0  0  0
    0.8777   -2.0908   -0.5246 C   0  0  2  0  0  0  0  0  0  0  0  0
    1.5386   -0.9816   -1.3333 C   0  0  0  0  0  0  0  0  0  0  0  0
    1.0477    0.1380   -1.4642 O   0  0  0  0  0  0  0  0  0  0  0  0
   -0.4472   -2.5071   -1.1639 C   0  0  0  0  0  0  0  0  0  0  0  0
   -1.0388   -3.7631   -0.5486 C   0  0  0  0  0  0  0  0  0  0  0  0
   -0.3832   -4.7559   -0.2471 O   0  0  0  0  0  0  0  0  0  0  0  0
   -2.4009   -3.6610   -0.3605 N   0  0  0  0  0  0  0  0  0  0  0  0
    1.1810   -2.0803    1.5718 H   0  0  0  0  0  0  0  0  0  0  0  0
    1.5671   -2.9403   -0.4556 H   0  0  0  0  0  0  0  0  0  0  0  0
   -1.1922   -1.7098   -1.0474 H   0  0  0  0  0  0  0  0  0  0  0  0
   -0.3190   -2.6744   -2.2411 H   0  0  0  0  0  0  0  0  0  0  0  0
   -2.9020   -2.8184   -0.6219 H   0  0  0  0  0  0  0  0  0  0  0  0
   -2.9514   -4.4134    0.0410 H   0  0  0  0  0  0  0  0  0  0  0  0
    2.7659   -1.3703   -1.8515 N   0  0  0  0  0  0  0  0  0  0  0  0
    3.5865   -0.4746   -2.6309 C   0  0  2  0  0  0  0  0  0  0  0  0
    3.8754    0.7568   -1.7825 C   0  0  0  0  0  0  0  0  0  0  0  0
    3.1686    1.1013   -0.8376 O   0  0  0  0  0  0  0  0  0  0  0  0
    2.9021   -0.0891   -3.9331 C   0  0  0  0  0  0  0  0  0  0  0  0
    3.1116   -2.3093   -1.6772 H   0  0  0  0  0  0  0  0  0  0  0  0
    4.5230   -1.0036   -2.8385 H   0  0  0  0  0  0  0  0  0  0  0  0
    1.9619    0.4420   -3.7452 H   0  0  0  0  0  0  0  0  0  0  0  0
    3.5378    0.5675   -4.5362 H   0  0  0  0  0  0  0  0  0  0  0  0
    2.6683   -0.9783   -4.5285 H   0  0  0  0  0  0  0  0  0  0  0  0
    4.9908    1.4499   -2.2316 N   0  0  0  0  0  0  0  0  0  0  0  0
    5.4627    2.6604   -1.6006 C   0  0  0  0  0  0  0  0  0  0  0  0
    5.5280    1.0812   -3.0108 H   0  0  0  0  0  0  0  0  0  0  0  0
    5.0149    3.5328   -2.0989 H   0  0  0  0  0  0  0  0  0  0  0  0
    5.1746    2.6567   -0.5390 H   0  0  0  0  0  0  0  0  0  0  0  0
    6.5583    2.7136   -1.6830 H   0  0  0  0  0  0  0  0  0  0  0  0
  1  3  1  0  0  0  0
  1  7  1  0  0  0  0
  1  2  2  0  0  0  0
 21 22  1  0  0  0  0
 22 24  1  0  0  0  0
 22 23  2  0  0  0  0
 32 33  1  0  0  0  0
 33 41  1  0  0  0  0
 33 34  2  0  0  0  0
  8  9  1  0  0  0  0
  9 17  1  0  0  0  0
  9 10  2  0  0  0  0
 18 19  1  0  0  0  0
 19 31  1  0  0  0  0
 19 20  2  0  0  0  0
 32 35  1  0  0  0  0
  8 11  1  0  0  0  0
 41 42  1  0  0  0  0
 18 21  1  0  0  0  0
 31 32  1  0  0  0  0
  7  8  1  0  0  0  0
 17 18  1  0  0  0  0
  3  4  1  0  0  0  0
  3  5  1  0  0  0  0
  3  6  1  0  0  0  0
 35 38  1  0  0  0  0
 35 39  1  0  0  0  0
 35 40  1  0  0  0  0
 11 14  1  0  0  0  0
 11 15  1  0  0  0  0
 11 16  1  0  0  0  0
 42 44  1  0  0  0  0
 42 45  1  0  0  0  0
 42 46  1  0  0  0  0
 21 27  1  0  0  0  0
 21 28  1  0  0  0  0
 32 37  1  0  0  0  0
  8 13  1  0  0  0  0
 18 26  1  0  0  0  0
 24 29  1  0  0  0  0
 24 30  1  0  0  0  0
 41 43  1  0  0  0  0
  7 12  1  0  0  0  0
 31 36  1  0  0  0  0
 17 25  1  0  0  0  0
M  END
$$$$

  -OEChem-05262214473D

 46 45  0     1  0  0  0  0  0999 V2000
   -0.0543    1.9736    3.8406 C   0  0  0  0  0  0  0  0  0  0  0  0
    0.6744    1.6099    4.7562 O   0  0  0  0  0  0  0  0  0  0  0  0
   -0.5599    3.3779    3.8160 C   0  0  0  0  0  0  0  0  0  0  0  0
   -1.5202    3.4885    4.3450 H   0  0  0  0  0  0  0  0  0  0  0  0
    0.1282    4.0814    4.3116 H   0  0  0  0  0  0  0  0  0  0  0  0
   -0.7317    3.7994    2.8126 H   0  0  0  0  0  0  0  0  0  0  0  0
   -0.4812    1.1968    2.7762 N   0  0  0  0  0  0  0  0  0  0  0  0
   -0.1106   -0.1834    2.6051 C   0  0  2  0  0  0  0  0  0  0  0  0
   -0.0696   -0.4775    1.1113 C   0  0  0  0  0  0  0  0  0  0  0  0
   -0.6805    0.1900    0.2792 O   0  0  0  0  0  0  0  0  0  0  0  0
   -1.0852   -1.1101    3.3150 C   0  0  0  0  0  0  0  0  0  0  0  0
   -1.0883    1.6241    2.0791 H   0  0  0  0  0  0  0  0  0  0  0  0
    0.8937   -0.2959    3.0277 H   0  0  0  0  0  0  0  0  0  0  0  0
   -2.0970   -1.0114    2.9051 H   0  0  0  0  0  0  0  0  0  0  0  0
   -0.7860   -2.1580    3.2078 H   0  0  0  0  0  0  0  0  0  0  0  0
   -1.1357   -0.8775    4.3842 H   0  0  0  0  0  0  0  0  0  0  0  0
    0.6950   -1.6003    0.8178 N   0  0  0  0  0  0  0  0  0  0  0  0
    0.8777   -2.0908   -0.5246 C   0  0  2  0  0  0  0  0  0  0  0  0
    1.5386   -0.9816   -1.3333 C   0  0  0  0  0  0  0  0  0  0  0  0
    1.2035    0.1986   -1.2537 O   0  0  0  0  0  0  0  0  0  0  0  0
   -0.4472   -2.5071   -1.1639 C   0  0  0  0  0  0  0  0  0  0  0  0
   -1.0388   -3.7631   -0.5486 C   0  0  0  0  0  0  0  0  0  0  0  0
   -0.3832   -4.7559   -0.2471 O   0  0  0  0  0  0  0  0  0  0  0  0
   -2.4009   -3.6610   -0.3605 N   0  0  0  0  0  0  0  0  0  0  0  0
    1.1810   -2.0803    1.5718 H   0  0  0  0  0  0  0  0  0  0  0  0
    1.5671   -2.9403   -0.4556 H   0  0  0  0  0  0  0  0  0  0  0  0
   -1.1922   -1.7098   -1.0474 H   0  0  0  0  0  0  0  0  0  0  0  0
   -0.3190   -2.6744   -2.2411 H   0  0  0  0  0  0  0  0  0  0  0  0
   -2.9020   -2.8184   -0.6219 H   0  0  0  0  0  0  0  0  0  0  0  0
   -2.9514   -4.4134    0.0410 H   0  0  0  0  0  0  0  0  0  0  0  0
    2.5808   -1.4544   -2.1182 N   0  0  0  0  0  0  0  0  0  0  0  0
    3.3706   -0.5792   -2.9509 C   0  0  2  0  0  0  0  0  0  0  0  0
    3.9872    0.4894   -2.0579 C   0  0  0  0  0  0  0  0  0  0  0  0
    3.5216    0.7993   -0.9633 O   0  0  0  0  0  0  0  0  0  0  0  0
    2.5271    0.0501   -4.0487 C   0  0  0  0  0  0  0  0  0  0  0  0
    2.8093   -2.4441   -2.1091 H   0  0  0  0  0  0  0  0  0  0  0  0
    4.1653   -1.1923   -3.3897 H   0  0  0  0  0  0  0  0  0  0  0  0
    1.7255    0.6682   -3.6282 H   0  0  0  0  0  0  0  0  0  0  0  0
    3.1336    0.6913   -4.6967 H   0  0  0  0  0  0  0  0  0  0  0  0
    2.0605   -0.7206   -4.6717 H   0  0  0  0  0  0  0  0  0  0  0  0
    5.0933    1.0866   -2.6462 N   0  0  0  0  0  0  0  0  0  0  0  0
    5.8454    2.1387   -2.0033 C   0  0  0  0  0  0  0  0  0  0  0  0
    5.4203    0.7534   -3.5483 H   0  0  0  0  0  0  0  0  0  0  0  0
    5.4492    3.1164   -2.3151 H   0  0  0  0  0  0  0  0  0  0  0  0
    5.7564    2.0384   -0.9115 H   0  0  0  0  0  0  0  0  0  0  0  0
    6.9037    2.0627   -2.2935 H   0  0  0  0  0  0  0  0  0  0  0  0
  1  3  1  0  0  0  0
  1  7  1  0  0  0  0
  1  2  2  0  0  0  0
 21 22  1  0  0  0  0
 22 24  1  0  0  0  0
 22 23  2  0  0  0  0
 32 33  1  0  0  0  0
 33 41  1  0  0  0  0
 33 34  2  0  0  0  0
  8  9  1  0  0  0  0
  9 17  1  0  0  0  0
  9 10  2  0  0  0  0
 18 19  1  0  0  0  0
 19 31  1  0  0  0  0
 19 20  2  0  0  0  0
 32 35  1  0  0  0  0
  8 11  1  0  0  0  0
 41 42  1  0  0  0  0
 18 21  1  0  0  0  0
 31 32  1  0  0  0  0
  7  8  1  0  0  0  0
 17 18  1  0  0  0  0
  3  4  1  0  0  0  0
  3  5  1  0  0  0  0
  3  6  1  0  0  0  0
 35 38  1  0  0  0  0
 35 39  1  0  0  0  0
 35 40  1  0  0  0  0
 11 14  1  0  0  0  0
 11 15  1  0  0  0  0
 11 16  1  0  0  0  0
 42 44  1  0  0  0  0
 42 45  1  0  0  0  0
 42 46  1  0  0  0  0
 21 27  1  0  0  0  0
 21 28  1  0  0  0  0
 32 37  1  0  0  0  0
  8 13  1  0  0  0  0
 18 26  1  0  0  0  0
 24 29  1  0  0  0  0
 24 30  1  0  0  0  0
 41 43  1  0  0  0  0
  7 12  1  0  0  0  0
 31 36  1  0  0  0  0
 17 25  1  0  0  0  0
M  END
$$$$

  -OEChem-05262214473D

 46 45  0     1  0  0  0  0  0999 V2000
   -0.0543    1.9736    3.8406 C   0  0  0  0  0  0  0  0  0  0  0  0
    0.6744    1.6099    4.7562 O   0  0  0  0  0  0  0  0  0  0  0  0
   -0.5599    3.3779    3.8160 C   0  0  0  0  0  0  0  0  0  0  0  0
   -1.5202    3.4885    4.3450 H   0  0  0  0  0  0  0  0  0  0  0  0
    0.1282    4.0814    4.3116 H   0  0  0  0  0  0  0  0  0  0  0  0
   -0.7317    3.7994    2.8126 H   0  0  0  0  0  0  0  0  0  0  0  0
   -0.4812    1.1968    2.7762 N   0  0  0  0  0  0  0  0  0  0  0  0
   -0.1106   -0.1834    2.6051 C   0  0  2  0  0  0  0  0  0  0  0  0
   -0.0696   -0.4775    1.1113 C   0  0  0  0  0  0  0  0  0  0  0  0
   -0.6805    0.1900    0.2792 O   0  0  0  0  0  0  0  0  0  0  0  0
   -1.0852   -1.1101    3.3150 C   0  0  0  0  0  0  0  0  0  0  0  0
   -1.0883    1.6241    2.0791 H   0  0  0  0  0  0  0  0  0  0  0  0
    0.8937   -0.2959    3.0277 H   0  0  0  0  0  0  0  0  0  0  0  0
   -2.0970   -1.0114    2.9051 H   0  0  0  0  0  0  0  0  0  0  0  0
   -0.7860   -2.1580    3.2078 H   0  0  0  0  0  0  0  0  0  0  0  0
   -1.1357   -0.8775    4.3842 H   0  0  0  0  0  0  0  0  0  0  0  0
    0.6950   -1.6003    0.8178 N   0  0  0  0  0  0  0  0  0  0  0  0
    0.8777   -2.0908   -0.5246 C   0  0  2  0  0  0  0  0  0  0  0  0
    1.5386   -0.9816   -1.3333 C   0  0  0  0  0  0  0  0  0  0  0  0
    1.4019    0.2122   -1.0729 O   0  0  0  0  0  0  0  0  0  0  0  0
   -0.4472   -2.5071   -1.1639 C   0  0  0  0  0  0  0  0  0  0  0  0
   -1.0388   -3.7631   -0.5486 C   0  0  0  0  0  0  0  0  0  0  0  0
   -0.3832   -4.7559   -0.2471 O   0  0  0  0  0  0  0  0  0  0  0  0
   -2.4009   -3.6610   -0.3605 N   0  0  0  0  0  0  0  0  0  0  0  0
    1.1810   -2.0803    1.5718 H   0  0  0  0  0  0  0  0  0  0  0  0
    1.5671   -2.9403   -0.4556 H   0  0  0  0  0  0  0  0  0  0  0  0
   -1.1922   -1.7098   -1.0474 H   0  0  0  0  0  0  0  0  0  0  0  0
   -0.3190   -2.6744   -2.2411 H   0  0  0  0  0  0  0  0  0  0  0  0
   -2.9020   -2.8184   -0.6219 H   0  0  0  0  0  0  0  0  0  0  0  0
   -2.9514   -4.4134    0.0410 H   0  0  0  0  0  0  0  0  0  0  0  0
    2.3402   -1.4804   -2.3504 N   0  0  0  0  0  0  0  0  0  0  0  0
    3.0874   -0.6147   -3.2310 C   0  0  2  0  0  0  0  0  0  0  0  0
    4.0065    0.2468   -2.3750 C   0  0  0  0  0  0  0  0  0  0  0  0
    3.7974    0.4733   -1.1851 O   0  0  0  0  0  0  0  0  0  0  0  0
    2.1622    0.2490   -4.0740 C   0  0  0  0  0  0  0  0  0  0  0  0
    2.4174   -2.4843   -2.4845 H   0  0  0  0  0  0  0  0  0  0  0  0
    3.6901   -1.2636   -3.8758 H   0  0  0  0  0  0  0  0  0  0  0  0
    1.5503    0.9060   -3.4452 H   0  0  0  0  0  0  0  0  0  0  0  0
    2.7299    0.8845   -4.7617 H   0  0  0  0  0  0  0  0  0  0  0  0
    1.4818   -0.3720   -4.6666 H   0  0  0  0  0  0  0  0  0  0  0  0
    5.0642    0.7681   -3.1068 N   0  0  0  0  0  0  0  0  0  0  0  0
    6.0675    1.6275   -2.5230 C   0  0  0  0  0  0  0  0  0  0  0  0
    5.1699    0.5120   -4.0841 H   0  0  0  0  0  0  0  0  0  0  0  0
    5.7708    2.6788   -2.6525 H   0  0  0  0  0  0  0  0  0  0  0  0
    6.1633    1.4031   -1.4505 H   0  0  0  0  0  0  0  0  0  0  0  0
    7.0329    1.4551   -3.0214 H   0  0  0  0  0  0  0  0  0  0  0  0
  1  3  1  0  0  0  0
  1  7  1  0  0  0  0
  1  2  2  0  0  0  0
 21 22  1  0  0  0  0
 22 24  1  0  0  0  0
 22 23  2  0  0  0  0
 32 33  1  0  0  0  0
 33 41  1  0  0  0  0
 33 34  2  0  0  0  0
  8  9  1  0  0  0  0
  9 17  1  0  0  0  0
  9 10  2  0  0  0  0
 18 19  1  0  0  0  0
 19 31  1  0  0  0  0
 19 20  2  0  0  0  0
 32 35  1  0  0  0  0
  8 11  1  0  0  0  0
 41 42  1  0  0  0  0
 18 21  1  0  0  0  0
 31 32  1  0  0  0  0
  7  8  1  0  0  0  0
 17 18  1  0  0  0  0
  3  4  1  0  0  0  0
  3  5  1  0  0  0  0
  3  6  1  0  0  0  0
 35 38  1  0  0  0  0
 35 39  1  0  0  0  0
 35 40  1  0  0  0  0
 11 14  1  0  0  0  0
 11 15  1  0  0  0  0
 11 16  1  0  0  0  0
 42 44  1  0  0  0  0
 42 45  1  0  0  0  0
 42 46  1  0  0  0  0
 21 27  1  0  0  0  0
 21 28  1  0  0  0  0
 32 37  1  0  0  0  0
  8 13  1  0  0  0  0
 18 26  1  0  0  0  0
 24 29  1  0  0  0  0
 24 30  1  0  0  0  0
 41 43  1  0  0  0  0
  7 12  1  0  0  0  0
 31 36  1  0  0  0  0
 17 25  1  0  0  0  0
M  END
$$$$

  -OEChem-05262214473D

 46 45  0     1  0  0  0  0  0999 V2000
   -0.0543    1.9736    3.8406 C   0  0  0  0  0  0  0  0  0  0  0  0
    0.6744    1.6099    4.7562 O   0  0  0  0  0  0  0  0  0  0  0  0
   -0.5599    3.3779    3.8160 C   0  0  0  0  0  0  0  0  0  0  0  0
   -1.5202    3.4885    4.3450 H   0  0  0  0  0  0  0  0  0  0  0  0
    0.1282    4.0814    4.3116 H   0  0  0  0  0  0  0  0  0  0  0  0
   -0.7317    3.7994    2.8126 H   0  0  0  0  0  0  0  0  0  0  0  0
   -0.4812    1.1968    2.7762 N   0  0  0  0  0  0  0  0  0  0  0  0
   -0.1106   -0.1834    2.6051 C   0  0  2  0  0  0  0  0  0  0  0  0
   -0.0696   -0.4775    1.1113 C   0  0  0  0  0  0  0  0  0  0  0  0
   -0.6805    0.1900    0.2792 O   0  0  0  0  0  0  0  0  0  0  0  0
   -1.0852   -1.1101    3.3150 C   0  0  0  0  0  0  0  0  0  0  0  0
   -1.0883    1.6241    2.0791 H   0  0  0  0  0  0  0  0  0  0  0  0
    0.8937   -0.2959    3.0277 H   0  0  0  0  0  0  0  0  0  0  0  0
   -2.0970   -1.0114    2.9051 H   0  0  0  0  0  0  0  0  0  0  0  0
   -0.7860   -2.1580    3.2078 H   0  0  0  0  0  0  0  0  0  0  0  0
   -1.1357   -0.8775    4.3842 H   0  0  0  0  0  0  0  0  0  0  0  0
    0.6950   -1.6003    0.8178 N   0  0  0  0  0  0  0  0  0  0  0  0
    0.8777   -2.0908   -0.5246 C   0  0  2  0  0  0  0  0  0  0  0  0
    1.5386   -0.9816   -1.3333 C   0  0  0  0  0  0  0  0  0  0  0  0
    1.6296    0.1777   -0.9341 O   0  0  0  0  0  0  0  0  0  0  0  0
   -0.4472   -2.5071   -1.1639 C   0  0  0  0  0  0  0  0  0  0  0  0
   -1.0388   -3.7631   -0.5486 C   0  0  0  0  0  0  0  0  0  0  0  0
   -0.3832   -4.7559   -0.2471 O   0  0  0  0  0  0  0  0  0  0  0  0
   -2.4009   -3.6610   -0.3605 N   0  0  0  0  0  0  0  0  0  0  0  0
    1.1810   -2.0803    1.5718 H   0  0  0  0  0  0  0  0  0  0  0  0
    1.5671   -2.9403   -0.4556 H   0  0  0  0  0  0  0  0  0  0  0  0
   -1.1922   -1.7098   -1.0474 H   0  0  0  0  0  0  0  0  0  0  0  0
   -0.3190   -2.6744   -2.2411 H   0  0  0  0  0  0  0  0  0  0  0  0
   -2.9020   -2.8184   -0.6219 H   0  0  0  0  0  0  0  0  0  0  0  0
   -2.9514   -4.4134    0.0410 H   0  0  0  0  0  0  0  0  0  0  0  0
    2.0604   -1.4463   -2.5323 N   0  0  0  0  0  0  0  0  0  0  0  0
    2.7562   -0.5787   -3.4522 C   0  0  2  0  0  0  0  0  0  0  0  0
    3.9320    0.0453   -2.7122 C   0  0  0  0  0  0  0  0  0  0  0  0
    3.9772    0.1454   -1.4879 O   0  0  0  0  0  0  0  0  0  0  0  0
    1.8323    0.4941   -4.0074 C   0  0  0  0  0  0  0  0  0  0  0  0
    1.9626   -2.4271   -2.7777 H   0  0  0  0  0  0  0  0  0  0  0  0
    3.1296   -1.2125   -4.2638 H   0  0  0  0  0  0  0  0  0  0  0  0
    1.4482    1.1392   -3.2087 H   0  0  0  0  0  0  0  0  0  0  0  0
    2.3543    1.1339   -4.7266 H   0  0  0  0  0  0  0  0  0  0  0  0
    0.9717    0.0436   -4.5135 H   0  0  0  0  0  0  0  0  0  0  0  0
    4.9056    0.5161   -3.5820 N   0  0  0  0  0  0  0  0  0  0  0  0
    6.1139    1.1616   -3.1243 C   0  0  0  0  0  0  0  0  0  0  0  0
    4.7940    0.3734   -4.5815 H   0  0  0  0  0  0  0  0  0  0  0  0
    5.9578    2.2498   -3.0881 H   0  0  0  0  0  0  0  0  0  0  0  0
    6.3675    0.7940   -2.1190 H   0  0  0  0  0  0  0  0  0  0  0  0
    6.9370    0.9322   -3.8170 H   0  0  0  0  0  0  0  0  0  0  0  0
  1  3  1  0  0  0  0
  1  7  1  0  0  0  0
  1  2  2  0  0  0  0
 21 22  1  0  0  0  0
 22 24  1  0  0  0  0
 22 23  2  0  0  0  0
 32 33  1  0  0  0  0
 33 41  1  0  0  0  0
 33 34  2  0  0  0  0
  8  9  1  0  0  0  0
  9 17  1  0  0  0  0
  9 10  2  0  0  0  0
 18 19  1  0  0  0  0
 19 31  1  0  0  0  0
 19 20  2  0  0  0  0
 32 35  1  0  0  0  0
  8 11  1  0  0  0  0
 41 42  1  0  0  0  0
 18 21  1  0  0  0  0
 31 32  1  0  0  0  0
  7  8  1  0  0  0  0
 17 18  1  0  0  0  0
  3  4  1  0  0  0  0
  3  5  1  0  0  0  0
  3  6  1  0  0  0  0
 35 38  1  0  0  0  0
 35 39  1  0  0  0  0
 35 40  1  0  0  0  0
 11 14  1  0  0  0  0
 11 15  1  0  0  0  0
 11 16  1  0  0  0  0
 42 44  1  0  0  0  0
 42 45  1  0  0  0  0
 42 46  1  0  0  0  0
 21 27  1  0  0  0  0
 21 28  1  0  0  0  0
 32 37  1  0  0  0  0
  8 13  1  0  0  0  0
 18 26  1  0  0  0  0
 24 29  1  0  0  0  0
 24 30  1  0  0  0  0
 41 43  1  0  0  0  0
  7 12  1  0  0  0  0
 31 36  1  0  0  0  0
 17 25  1  0  0  0  0
M  END
$$$$

  -OEChem-05262214473D

 46 45  0     1  0  0  0  0  0999 V2000
   -0.0543    1.9736    3.8406 C   0  0  0  0  0  0  0  0  0  0  0  0
    0.6744    1.6099    4.7562 O   0  0  0  0  0  0  0  0  0  0  0  0
   -0.5599    3.3779    3.8160 C   0  0  0  0  0  0  0  0  0  0  0  0
   -1.5202    3.4885    4.3450 H   0  0  0  0  0  0  0  0  0  0  0  0
    0.1282    4.0814    4.3116 H   0  0  0  0  0  0  0  0  0  0  0  0
   -0.7317    3.7994    2.8126 H   0  0  0  0  0  0  0  0  0  0  0  0
   -0.4812    1.1968    2.7762 N   0  0  0  0  0  0  0  0  0  0  0  0
   -0.1106   -0.1834    2.6051 C   0  0  2  0  0  0  0  0  0  0  0  0
   -0.0696   -0.4775    1.1113 C   0  0  0  0  0  0  0  0  0  0  0  0
   -0.6805    0.1900    0.2792 O   0  0  0  0  0  0  0  0  0  0  0  0
   -1.0852   -1.1101    3.3150 C   0  0  0  0  0  0  0  0  0  0  0  0
   -1.0883    1.6241    2.0791 H   0  0  0  0  0  0  0  0  0  0  0  0
    0.8937   -0.2959    3.0277 H   0  0  0  0  0  0  0  0  0  0  0  0
   -2.0970   -1.0114    2.9051 H   0  0  0  0  0  0  0  0  0  0  0  0
   -0.7860   -2.1580    3.2078 H   0  0  0  0  0  0  0  0  0  0  0  0
   -1.1357   -0.8775    4.3842 H   0  0  0  0  0  0  0  0  0  0  0  0
    0.6950   -1.6003    0.8178 N   0  0  0  0  0  0  0  0  0  0  0  0
    0.8777   -2.0908   -0.5246 C   0  0  2  0  0  0  0  0  0  0  0  0
    1.8568   -1.1575   -1.2257 C   0  0  0  0  0  0  0  0  0  0  0  0
    2.3917   -0.2023   -0.6664 O   0  0  0  0  0  0  0  0  0  0  0  0
   -0.4437   -2.1591   -1.2906 C   0  0  0  0  0  0  0  0  0  0  0  0
   -1.3731   -3.2472   -0.7826 C   0  0  0  0  0  0  0  0  0  0  0  0
   -1.0052   -4.3759   -0.4706 O   0  0  0  0  0  0  0  0  0  0  0  0
   -2.6825   -2.8219   -0.7055 N   0  0  0  0  0  0  0  0  0  0  0  0
    1.1810   -2.0803    1.5718 H   0  0  0  0  0  0  0  0  0  0  0  0
    1.3341   -3.0835   -0.4350 H   0  0  0  0  0  0  0  0  0  0  0  0
   -0.9833   -1.2076   -1.2025 H   0  0  0  0  0  0  0  0  0  0  0  0
   -0.2605   -2.3287   -2.3595 H   0  0  0  0  0  0  0  0  0  0  0  0
   -2.9407   -1.8774   -0.9710 H   0  0  0  0  0  0  0  0  0  0  0  0
   -3.4318   -3.4269   -0.3848 H   0  0  0  0  0  0  0  0  0  0  0  0
    2.1035   -1.5441   -2.5355 N   0  0  0  0  0  0  0  0  0  0  0  0
    3.0195   -0.8238   -3.3870 C   0  0  2  0  0  0  0  0  0  0  0  0
    4.3812   -0.8071   -2.7052 C   0  0  0  0  0  0  0  0  0  0  0  0
    4.5270   -0.9602   -1.4943 O   0  0  0  0  0  0  0  0  0  0  0  0
    2.5291    0.5904   -3.6562 C   0  0  0  0  0  0  0  0  0  0  0  0
    1.6366   -2.3622   -2.9157 H   0  0  0  0  0  0  0  0  0  0  0  0
    3.0871   -1.3851   -4.3253 H   0  0  0  0  0  0  0  0  0  0  0  0
    2.4550    1.1682   -2.7278 H   0  0  0  0  0  0  0  0  0  0  0  0
    3.2105    1.1260   -4.3254 H   0  0  0  0  0  0  0  0  0  0  0  0
    1.5366    0.5771   -4.1195 H   0  0  0  0  0  0  0  0  0  0  0  0
    5.4108   -0.5581   -3.6019 N   0  0  0  0  0  0  0  0  0  0  0  0
    6.7952   -0.4805   -3.1974 C   0  0  0  0  0  0  0  0  0  0  0  0
    5.2000   -0.4625   -4.5909 H   0  0  0  0  0  0  0  0  0  0  0  0
    7.0549    0.5651   -2.9757 H   0  0  0  0  0  0  0  0  0  0  0  0
    6.9493   -1.0951   -2.2982 H   0  0  0  0  0  0  0  0  0  0  0  0
    7.4360   -0.8529   -4.0103 H   0  0  0  0  0  0  0  0  0  0  0  0
  1  3  1  0  0  0  0
  1  7  1  0  0  0  0
  1  2  2  0  0  0  0
 21 22  1  0  0  0  0
 22 24  1  0  0  0  0
 22 23  2  0  0  0  0
 32 33  1  0  0  0  0
 33 41  1  0  0  0  0
 33 34  2  0  0  0  0
  8  9  1  0  0  0  0
  9 17  1  0  0  0  0
  9 10  2  0  0  0  0
 18 19  1  0  0  0  0
 19 31  1  0  0  0  0
 19 20  2  0  0  0  0
 32 35  1  0  0  0  0
  8 11  1  0  0  0  0
 41 42  1  0  0  0  0
 18 21  1  0  0  0  0
 31 32  1  0  0  0  0
  7  8  1  0  0  0  0
 17 18  1  0  0  0  0
  3  4  1  0  0  0  0
  3  5  1  0  0  0  0
  3  6  1  0  0  0  0
 35 38  1  0  0  0  0
 35 39  1  0  0  0  0
 35 40  1  0  0  0  0
 11 14  1  0  0  0  0
 11 15  1  0  0  0  0
 11 16  1  0  0  0  0
 42 44  1  0  0  0  0
 42 45  1  0  0  0  0
 42 46  1  0  0  0  0
 21 27  1  0  0  0  0
 21 28  1  0  0  0  0
 32 37  1  0  0  0  0
  8 13  1  0  0  0  0
 18 26  1  0  0  0  0
 24 29  1  0  0  0  0
 24 30  1  0  0  0  0
 41 43  1  0  0  0  0
  7 12  1  0  0  0  0
 31 36  1  0  0  0  0
 17 25  1  0  0  0  0
M  END
$$$$

  -OEChem-05262214473D

 46 45  0     1  0  0  0  0  0999 V2000
   -0.0543    1.9736    3.8406 C   0  0  0  0  0  0  0  0  0  0  0  0
    0.6744    1.6099    4.7562 O   0  0  0  0  0  0  0  0  0  0  0  0
   -0.5599    3.3779    3.8160 C   0  0  0  0  0  0  0  0  0  0  0  0
   -1.5202    3.4885    4.3450 H   0  0  0  0  0  0  0  0  0  0  0  0
    0.1282    4.0814    4.3116 H   0  0  0  0  0  0  0  0  0  0  0  0
   -0.7317    3.7994    2.8126 H   0  0  0  0  0  0  0  0  0  0  0  0
   -0.4812    1.1968    2.7762 N   0  0  0  0  0  0  0  0  0  0  0  0
   -0.1106   -0.1834    2.6051 C   0  0  2  0  0  0  0  0  0  0  0  0
   -0.0696   -0.4775    1.1113 C   0  0  0  0  0  0  0  0  0  0  0  0
   -0.6805    0.1900    0.2792 O   0  0  0  0  0  0  0  0  0  0  0  0
   -1.0852   -1.1101    3.3150 C   0  0  0  0  0  0  0  0  0  0  0  0
   -1.0883    1.6241    2.0791 H   0  0  0  0  0  0  0  0  0  0  0  0
    0.8937   -0.2959    3.0277 H   0  0  0  0  0  0  0  0  0  0  0  0
   -2.0970   -1.0114    2.9051 H   0  0  0  0  0  0  0  0  0  0  0  0
   -0.7860   -2.1580    3.2078 H   0  0  0  0  0  0  0  0  0  0  0  0
   -1.1357   -0.8775    4.3842 H   0  0  0  0  0  0  0  0  0  0  0  0
    0.6950   -1.6003    0.8178 N   0  0  0  0  0  0  0  0  0  0  0  0
    0.8777   -2.0908   -0.5246 C   0  0  2  0  0  0  0  0  0  0  0  0
    1.8568   -1.1575   -1.2257 C   0  0  0  0  0  0  0  0  0  0  0  0
    2.5907   -0.3775   -0.6219 O   0  0  0  0  0  0  0  0  0  0  0  0
   -0.4437   -2.1591   -1.2906 C   0  0  0  0  0  0  0  0  0  0  0  0
   -1.3731   -3.2472   -0.7826 C   0  0  0  0  0  0  0  0  0  0  0  0
   -1.0052   -4.3759   -0.4706 O   0  0  0  0  0  0  0  0  0  0  0  0
   -2.6825   -2.8219   -0.7055 N   0  0  0  0  0  0  0  0  0  0  0  0
    1.1810   -2.0803    1.5718 H   0  0  0  0  0  0  0  0  0  0  0  0
    1.3341   -3.0835   -0.4350 H   0  0  0  0  0  0  0  0  0  0  0  0
   -0.9833   -1.2076   -1.2025 H   0  0  0  0  0  0  0  0  0  0  0  0
   -0.2605   -2.3287   -2.3595 H   0  0  0  0  0  0  0  0  0  0  0  0
   -2.9407   -1.8774   -0.9710 H   0  0  0  0  0  0  0  0  0  0  0  0
   -3.4318   -3.4269   -0.3848 H   0  0  0  0  0  0  0  0  0  0  0  0
    1.8528   -1.3315   -2.6025 N   0  0  0  0  0  0  0  0  0  0  0  0
    2.7196   -0.5735   -3.4727 C   0  0  2  0  0  0  0  0  0  0  0  0
    4.1575   -0.8211   -3.0362 C   0  0  0  0  0  0  0  0  0  0  0  0
    4.4598   -1.1994   -1.9064 O   0  0  0  0  0  0  0  0  0  0  0  0
    2.3864    0.9097   -3.4304 C   0  0  0  0  0  0  0  0  0  0  0  0
    1.2304   -2.0159   -3.0219 H   0  0  0  0  0  0  0  0  0  0  0  0
    2.5721   -0.9650   -4.4852 H   0  0  0  0  0  0  0  0  0  0  0  0
    2.5282    1.3197   -2.4238 H   0  0  0  0  0  0  0  0  0  0  0  0
    3.0258    1.4797   -4.1125 H   0  0  0  0  0  0  0  0  0  0  0  0
    1.3432    1.0831   -3.7159 H   0  0  0  0  0  0  0  0  0  0  0  0
    5.0664   -0.5284   -4.0434 N   0  0  0  0  0  0  0  0  0  0  0  0
    6.4934   -0.6699   -3.8711 C   0  0  0  0  0  0  0  0  0  0  0  0
    4.7256   -0.2385   -4.9553 H   0  0  0  0  0  0  0  0  0  0  0  0
    6.9194    0.2870   -3.5352 H   0  0  0  0  0  0  0  0  0  0  0  0
    6.6965   -1.4459   -3.1183 H   0  0  0  0  0  0  0  0  0  0  0  0
    6.9513   -0.9591   -4.8285 H   0  0  0  0  0  0  0  0  0  0  0  0
  1  3  1  0  0  0  0
  1  7  1  0  0  0  0
  1  2  2  0  0  0  0
 21 22  1  0  0  0  0
 22 24  1  0  0  0  0
 22 23  2  0  0  0  0
 32 33  1  0  0  0  0
 33 41  1  0  0  0  0
 33 34  2  0  0  0  0
  8  9  1  0  0  0  0
  9 17  1  0  0  0  0
  9 10  2  0  0  0  0
 18 19  1  0  0  0  0
 19 31  1  0  0  0  0
 19 20  2  0  0  0  0
 32 35  1  0  0  0  0
  8 11  1  0  0  0  0
 41 42  1  0  0  0  0
 18 21  1  0  0  0  0
 31 32  1  0  0  0  0
  7  8  1  0  0  0  0
 17 18  1  0  0  0  0
  3  4  1  0  0  0  0
  3  5  1  0  0  0  0
  3  6  1  0  0  0  0
 35 38  1  0  0  0  0
 35 39  1  0  0  0  0
 35 40  1  0  0  0  0
 11 14  1  0  0  0  0
 11 15  1  0  0  0  0
 11 16  1  0  0  0  0
 42 44  1  0  0  0  0
 42 45  1  0  0  0  0
 42 46  1  0  0  0  0
 21 27  1  0  0  0  0
 21 28  1  0  0  0  0
 32 37  1  0  0  0  0
  8 13  1  0  0  0  0
 18 26  1  0  0  0  0
 24 29  1  0  0  0  0
 24 30  1  0  0  0  0
 41 43  1  0  0  0  0
  7 12  1  0  0  0  0
 31 36  1  0  0  0  0
 17 25  1  0  0  0  0
M  END
$$$$

  -OEChem-05262214473D

 46 45  0     1  0  0  0  0  0999 V2000
   -0.0543    1.9736    3.8406 C   0  0  0  0  0  0  0  0  0  0  0  0
    0.6744    1.6099    4.7562 O   0  0  0  0  0  0  0  0  0  0  0  0
   -0.5599    3.3779    3.8160 C   0  0  0  0  0  0  0  0  0  0  0  0
   -1.5202    3.4885    4.3450 H   0  0  0  0  0  0  0  0  0  0  0  0
    0.1282    4.0814    4.3116 H   0  0  0  0  0  0  0  0  0  0  0  0
   -0.7317    3.7994    2.8126 H   0  0  0  0  0  0  0  0  0  0  0  0
   -0.4812    1.1968    2.7762 N   0  0  0  0  0  0  0  0  0  0  0  0
   -0.1106   -0.1834    2.6051 C   0  0  2  0  0  0  0  0  0  0  0  0
   -0.0696   -0.4775    1.1113 C   0  0  0  0  0  0  0  0  0  0  0  0
   -0.6805    0.1900    0.2792 O   0  0  0  0  0  0  0  0  0  0  0  0
   -1.0852   -1.1101    3.3150 C   0  0  0  0  0  0  0  0  0  0  0  0
   -1.0883    1.6241    2.0791 H   0  0  0  0  0  0  0  0  0  0  0  0
    0.8937   -0.2959    3.0277 H   0  0  0  0  0  0  0  0  0  0  0  0
   -2.0970   -1.0114    2.9051 H   0  0  0  0  0  0  0  0  0  0  0  0
   -0.7860   -2.1580    3.2078 H   0  0  0  0  0  0  0  0  0  0  0  0
   -1.1357   -0.8775    4.3842 H   0  0  0  0  0  0  0  0  0  0  0  0
    0.6950   -1.6003    0.8178 N   0  0  0  0  0  0  0  0  0  0  0  0
    0.8777   -2.0908   -0.5246 C   0  0  2  0  0  0  0  0  0  0  0  0
    1.8568   -1.1575   -1.2257 C   0  0  0  0  0  0  0  0  0  0  0  0
    2.7690   -0.5779   -0.6397 O   0  0  0  0  0  0  0  0  0  0  0  0
   -0.4437   -2.1591   -1.2906 C   0  0  0  0  0  0  0  0  0  0  0  0
   -1.3731   -3.2472   -0.7826 C   0  0  0  0  0  0  0  0  0  0  0  0
   -1.0052   -4.3759   -0.4706 O   0  0  0  0  0  0  0  0  0  0  0  0
   -2.6825   -2.8219   -0.7055 N   0  0  0  0  0  0  0  0  0  0  0  0
    1.1810   -2.0803    1.5718 H   0  0  0  0  0  0  0  0  0  0  0  0
    1.3341   -3.0835   -0.4350 H   0  0  0  0  0  0  0  0  0  0  0  0
   -0.9833   -1.2076   -1.2025 H   0  0  0  0  0  0  0  0  0  0  0  0
   -0.2605   -2.3287   -2.3595 H   0  0  0  0  0  0  0  0  0  0  0  0
   -2.9407   -1.8774   -0.9710 H   0  0  0  0  0  0  0  0  0  0  0  0
   -3.4318   -3.4269   -0.3848 H   0  0  0  0  0  0  0  0  0  0  0  0
    1.6254   -1.0851   -2.5921 N   0  0  0  0  0  0  0  0  0  0  0  0
    2.4461   -0.2818   -3.4663 C   0  0  2  0  0  0  0  0  0  0  0  0
    3.8873   -0.7528   -3.3228 C   0  0  0  0  0  0  0  0  0  0  0  0
    4.3012   -1.3538   -2.3336 O   0  0  0  0  0  0  0  0  0  0  0  0
    2.3224    1.1976   -3.1365 C   0  0  0  0  0  0  0  0  0  0  0  0
    0.8625   -1.6154   -3.0026 H   0  0  0  0  0  0  0  0  0  0  0  0
    2.0994   -0.4712   -4.4881 H   0  0  0  0  0  0  0  0  0  0  0  0
    2.6652    1.4068   -2.1166 H   0  0  0  0  0  0  0  0  0  0  0  0
    2.9233    1.8079   -3.8188 H   0  0  0  0  0  0  0  0  0  0  0  0
    1.2807    1.5279   -3.2113 H   0  0  0  0  0  0  0  0  0  0  0  0
    4.6672   -0.3853   -4.4103 N   0  0  0  0  0  0  0  0  0  0  0  0
    6.0725   -0.7049   -4.5054 C   0  0  0  0  0  0  0  0  0  0  0  0
    4.2362    0.0949   -5.1948 H   0  0  0  0  0  0  0  0  0  0  0  0
    6.6666    0.1275   -4.1004 H   0  0  0  0  0  0  0  0  0  0  0  0
    6.2805   -1.6183   -3.9288 H   0  0  0  0  0  0  0  0  0  0  0  0
    6.3408   -0.8679   -5.5597 H   0  0  0  0  0  0  0  0  0  0  0  0
  1  3  1  0  0  0  0
  1  7  1  0  0  0  0
  1  2  2  0  0  0  0
 21 22  1  0  0  0  0
 22 24  1  0  0  0  0
 22 23  2  0  0  0  0
 32 33  1  0  0  0  0
 33 41  1  0  0  0  0
 33 34  2  0  0  0  0
  8  9  1  0  0  0  0
  9 17  1  0  0  0  0
  9 10  2  0  0  0  0
 18 19  1  0  0  0  0
 19 31  1  0  0  0  0
 19 20  2  0  0  0  0
 32 35  1  0  0  0  0
  8 11  1  0  0  0  0
 41 42  1  0  0  0  0
 18 21  1  0  0  0  0
 31 32  1  0  0  0  0
  7  8  1  0  0  0  0
 17 18  1  0  0  0  0
  3  4  1  0  0  0  0
  3  5  1  0  0  0  0
  3  6  1  0  0  0  0
 35 38  1  0  0  0  0
 35 39  1  0  0  0  0
 35 40  1  0  0  0  0
 11 14  1  0  0  0  0
 11 15  1  0  0  0  0
 11 16  1  0  0  0  0
 42 44  1  0  0  0  0
 42 45  1  0  0  0  0
 42 46  1  0  0  0  0
 21 27  1  0  0  0  0
 21 28  1  0  0  0  0
 32 37  1  0  0  0  0
  8 13  1  0  0  0  0
 18 26  1  0  0  0  0
 24 29  1  0  0  0  0
 24 30  1  0  0  0  0
 41 43  1  0  0  0  0
  7 12  1  0  0  0  0
 31 36  1  0  0  0  0
 17 25  1  0  0  0  0
M  END
$$$$

  -OEChem-05262214473D

 46 45  0     1  0  0  0  0  0999 V2000
   -0.0543    1.9736    3.8406 C   0  0  0  0  0  0  0  0  0  0  0  0
    0.6744    1.6099    4.7562 O   0  0  0  0  0  0  0  0  0  0  0  0
   -0.5599    3.3779    3.8160 C   0  0  0  0  0  0  0  0  0  0  0  0
   -1.5202    3.4885    4.3450 H   0  0  0  0  0  0  0  0  0  0  0  0
    0.1282    4.0814    4.3116 H   0  0  0  0  0  0  0  0  0  0  0  0
   -0.7317    3.7994    2.8126 H   0  0  0  0  0  0  0  0  0  0  0  0
   -0.4812    1.1968    2.7762 N   0  0  0  0  0  0  0  0  0  0  0  0
   -0.1106   -0.1834    2.6051 C   0  0  2  0  0  0  0  0  0  0  0  0
   -0.0696   -0.4775    1.1113 C   0  0  0  0  0  0  0  0  0  0  0  0
   -0.6805    0.1900    0.2792 O   0  0  0  0  0  0  0  0  0  0  0  0
   -1.0852   -1.1101    3.3150 C   0  0  0  0  0  0  0  0  0  0  0  0
   -1.0883    1.6241    2.0791 H   0  0  0  0  0  0  0  0  0  0  0  0
    0.8937   -0.2959    3.0277 H   0  0  0  0  0  0  0  0  0  0  0  0
   -2.0970   -1.0114    2.9051 H   0  0  0  0  0  0  0  0  0  0  0  0
   -0.7860   -2.1580    3.2078 H   0  0  0  0  0  0  0  0  0  0  0  0
   -1.1357   -0.8775    4.3842 H   0  0  0  0  0  0  0  0  0  0  0  0
    0.6950   -1.6003    0.8178 N   0  0  0  0  0  0  0  0  0  0  0  0
    0.8777   -2.0908   -0.5246 C   0  0  2  0  0  0  0  0  0  0  0  0
    1.8568   -1.1575   -1.2257 C   0  0  0  0  0  0  0  0  0  0  0  0
    2.9145   -0.7897   -0.7184 O   0  0  0  0  0  0  0  0  0  0  0  0
   -0.4437   -2.1591   -1.2906 C   0  0  0  0  0  0  0  0  0  0  0  0
   -1.3731   -3.2472   -0.7826 C   0  0  0  0  0  0  0  0  0  0  0  0
   -1.0052   -4.3759   -0.4706 O   0  0  0  0  0  0  0  0  0  0  0  0
   -2.6825   -2.8219   -0.7055 N   0  0  0  0  0  0  0  0  0  0  0  0
    1.1810   -2.0803    1.5718 H   0  0  0  0  0  0  0  0  0  0  0  0
    1.3341   -3.0835   -0.4350 H   0  0  0  0  0  0  0  0  0  0  0  0
   -0.9833   -1.2076   -1.2025 H   0  0  0  0  0  0  0  0  0  0  0  0
   -0.2605   -2.3287   -2.3595 H   0  0  0  0  0  0  0  0  0  0  0  0
   -2.9407   -1.8774   -0.9710 H   0  0  0  0  0  0  0  0  0  0  0  0
   -3.4318   -3.4269   -0.3848 H   0  0  0  0  0  0  0  0  0  0  0  0
    1.4368   -0.8218   -2.5051 N   0  0  0  0  0  0  0  0  0  0  0  0
    2.2177    0.0315   -3.3683 C   0  0  2  0  0  0  0  0  0  0  0  0
    3.5889   -0.6071   -3.5454 C   0  0  0  0  0  0  0  0  0  0  0  0
    4.0618   -1.4131   -2.7467 O   0  0  0  0  0  0  0  0  0  0  0  0
    2.3415    1.4345   -2.7945 C   0  0  0  0  0  0  0  0  0  0  0  0
    0.5579   -1.1879   -2.8590 H   0  0  0  0  0  0  0  0  0  0  0  0
    1.7011    0.0625   -4.3338 H   0  0  0  0  0  0  0  0  0  0  0  0
    2.8566    1.4236   -1.8270 H   0  0  0  0  0  0  0  0  0  0  0  0
    2.9100    2.0883   -3.4642 H   0  0  0  0  0  0  0  0  0  0  0  0
    1.3533    1.8809   -2.6399 H   0  0  0  0  0  0  0  0  0  0  0  0
    4.2405   -0.1385   -4.6777 N   0  0  0  0  0  0  0  0  0  0  0  0
    5.5612   -0.5831   -5.0573 C   0  0  0  0  0  0  0  0  0  0  0  0
    3.7653    0.5151   -5.2931 H   0  0  0  0  0  0  0  0  0  0  0  0
    6.3139    0.0976   -4.6329 H   0  0  0  0  0  0  0  0  0  0  0  0
    5.7297   -1.6004   -4.6743 H   0  0  0  0  0  0  0  0  0  0  0  0
    5.6461   -0.5854   -6.1540 H   0  0  0  0  0  0  0  0  0  0  0  0
  1  3  1  0  0  0  0
  1  7  1  0  0  0  0
  1  2  2  0  0  0  0
 21 22  1  0  0  0  0
 22 24  1  0  0  0  0
 22 23  2  0  0  0  0
 32 33  1  0  0  0  0
 33 41  1  0  0  0  0
 33 34  2  0  0  0  0
  8  9  1  0  0  0  0
  9 17  1  0  0  0  0
  9 10  2  0  0  0  0
 18 19  1  0  0  0  0
 19 31  1  0  0  0  0
 19 20  2  0  0  0  0
 32 35  1  0  0  0  0
  8 11  1  0  0  0  0
 41 42  1  0  0  0  0
 18 21  1  0  0  0  0
 31 32  1  0  0  0  0
  7  8  1  0  0  0  0
 17 18  1  0  0  0  0
  3  4  1  0  0  0  0
  3  5  1  0  0  0  0
  3  6  1  0  0  0  0
 35 38  1  0  0  0  0
 35 39  1  0  0  0  0
 35 40  1  0  0  0  0
 11 14  1  0  0  0  0
 11 15  1  0  0  0  0
 11 16  1  0  0  0  0
 42 44  1  0  0  0  0
 42 45  1  0  0  0  0
 42 46  1  0  0  0  0
 21 27  1  0  0  0  0
 21 28  1  0  0  0  0
 32 37  1  0  0  0  0
  8 13  1  0  0  0  0
 18 26  1  0  0  0  0
 24 29  1  0  0  0  0
 24 30  1  0  0  0  0
 41 43  1  0  0  0  0
  7 12  1  0  0  0  0
 31 36  1  0  0  0  0
 17 25  1  0  0  0  0
M  END
$$$$

  -OEChem-05262214473D

 46 45  0     1  0  0  0  0  0999 V2000
   -0.0543    1.9736    3.8406 C   0  0  0  0  0  0  0  0  0  0  0  0
    0.6744    1.6099    4.7562 O   0  0  0  0  0  0  0  0  0  0  0  0
   -0.5599    3.3779    3.8160 C   0  0  0  0  0  0  0  0  0  0  0  0
   -1.5202    3.4885    4.3450 H   0  0  0  0  0  0  0  0  0  0  0  0
    0.1282    4.0814    4.3116 H   0  0  0  0  0  0  0  0  0  0  0  0
   -0.7317    3.7994    2.8126 H   0  0  0  0  0  0  0  0  0  0  0  0
   -0.4812    1.1968    2.7762 N   0  0  0  0  0  0  0  0  0  0  0  0
   -0.1106   -0.1834    2.6051 C   0  0  2  0  0  0  0  0  0  0  0  0
   -0.0696   -0.4775    1.1113 C   0  0  0  0  0  0  0  0  0  0  0  0
   -0.6805    0.1900    0.2792 O   0  0  0  0  0  0  0  0  0  0  0  0
   -1.0852   -1.1101    3.3150 C   0  0  0  0  0  0  0  0  0  0  0  0
   -1.0883    1.6241    2.0791 H   0  0  0  0  0  0  0  0  0  0  0  0
    0.8937   -0.2959    3.0277 H   0  0  0  0  0  0  0  0  0  0  0  0
   -2.0970   -1.0114    2.9051 H   0  0  0  0  0  0  0  0  0  0  0  0
   -0.7860   -2.1580    3.2078 H   0  0  0  0  0  0  0  0  0  0  0  0
   -1.1357   -0.8775    4.3842 H   0  0  0  0  0  0  0  0  0  0  0  0
    0.6950   -1.6003    0.8178 N   0  0  0  0  0  0  0  0  0  0  0  0
    0.8777   -2.0908   -0.5246 C   0  0  2  0  0  0  0  0  0  0  0  0
    1.8568   -1.1575   -1.2257 C   0  0  0  0  0  0  0  0  0  0  0  0
    3.0174   -0.9986   -0.8527 O   0  0  0  0  0  0  0  0  0  0  0  0
   -0.4437   -2.1591   -1.2906 C   0  0  0  0  0  0  0  0  0  0  0  0
   -1.3731   -3.2472   -0.7826 C   0  0  0  0  0  0  0  0  0  0  0  0
   -1.0052   -4.3759   -0.4706 O   0  0  0  0  0  0  0  0  0  0  0  0
   -2.6825   -2.8219   -0.7055 N   0  0  0  0  0  0  0  0  0  0  0  0
    1.1810   -2.0803    1.5718 H   0  0  0  0  0  0  0  0  0  0  0  0
    1.3341   -3.0835   -0.4350 H   0  0  0  0  0  0  0  0  0  0  0  0
   -0.9833   -1.2076   -1.2025 H   0  0  0  0  0  0  0  0  0  0  0  0
   -0.2605   -2.3287   -2.3595 H   0  0  0  0  0  0  0  0  0  0  0  0
   -2.9407   -1.8774   -0.9710 H   0  0  0  0  0  0  0  0  0  0  0  0
   -3.4318   -3.4269   -0.3848 H   0  0  0  0  0  0  0  0  0  0  0  0
    1.2997   -0.5595   -2.3473 N   0  0  0  0  0  0  0  0  0  0  0  0
    2.0499    0.3450   -3.1852 C   0  0  2  0  0  0  0  0  0  0  0  0
    3.2828   -0.3937   -3.6889 C   0  0  0  0  0  0  0  0  0  0  0  0
    3.7580   -1.3731   -3.1177 O   0  0  0  0  0  0  0  0  0  0  0  0
    2.4424    1.6041   -2.4279 C   0  0  0  0  0  0  0  0  0  0  0  0
    0.3374   -0.7627   -2.6009 H   0  0  0  0  0  0  0  0  0  0  0  0
    1.4044    0.5998   -4.0328 H   0  0  0  0  0  0  0  0  0  0  0  0
    3.0893    1.3688   -1.5749 H   0  0  0  0  0  0  0  0  0  0  0  0
    2.9866    2.3017   -3.0730 H   0  0  0  0  0  0  0  0  0  0  0  0
    1.5560    2.1183   -2.0408 H   0  0  0  0  0  0  0  0  0  0  0  0
    3.8154    0.1952   -4.8272 N   0  0  0  0  0  0  0  0  0  0  0  0
    4.9944   -0.3127   -5.4890 C   0  0  0  0  0  0  0  0  0  0  0  0
    3.3449    0.9934   -5.2436 H   0  0  0  0  0  0  0  0  0  0  0  0
    5.8852    0.1993   -5.0962 H   0  0  0  0  0  0  0  0  0  0  0  0
    5.0815   -1.3935   -5.3041 H   0  0  0  0  0  0  0  0  0  0  0  0
    4.9144   -0.1310   -6.5709 H   0  0  0  0  0  0  0  0  0  0  0  0
  1  3  1  0  0  0  0
  1  7  1  0  0  0  0
  1  2  2  0  0  0  0
 21 22  1  0  0  0  0
 22 24  1  0  0  0  0
 22 23  2  0  0  0  0
 32 33  1  0  0  0  0
 33 41  1  0  0  0  0
 33 34  2  0  0  0  0
  8  9  1  0  0  0  0
  9 17  1  0  0  0  0
  9 10  2  0  0  0  0
 18 19  1  0  0  0  0
 19 31  1  0  0  0  0
 19 20  2  0  0  0  0
 32 35  1  0  0  0  0
  8 11  1  0  0  0  0
 41 42  1  0  0  0  0
 18 21  1  0  0  0  0
 31 32  1  0  0  0  0
  7  8  1  0  0  0  0
 17 18  1  0  0  0  0
  3  4  1  0  0  0  0
  3  5  1  0  0  0  0
  3  6  1  0  0  0  0
 35 38  1  0  0  0  0
 35 39  1  0  0  0  0
 35 40  1  0  0  0  0
 11 14  1  0  0  0  0
 11 15  1  0  0  0  0
 11 16  1  0  0  0  0
 42 44  1  0  0  0  0
 42 45  1  0  0  0  0
 42 46  1  0  0  0  0
 21 27  1  0  0  0  0
 21 28  1  0  0  0  0
 32 37  1  0  0  0  0
  8 13  1  0  0  0  0
 18 26  1  0  0  0  0
 24 29  1  0  0  0  0
 24 30  1  0  0  0  0
 41 43  1  0  0  0  0
  7 12  1  0  0  0  0
 31 36  1  0  0  0  0
 17 25  1  0  0  0  0
M  END
$$$$

  -OEChem-05262214473D

 46 45  0     1  0  0  0  0  0999 V2000
   -0.0543    1.9736    3.8406 C   0  0  0  0  0  0  0  0  0  0  0  0
    0.6744    1.6099    4.7562 O   0  0  0  0  0  0  0  0  0  0  0  0
   -0.5599    3.3779    3.8160 C   0  0  0  0  0  0  0  0  0  0  0  0
   -1.5202    3.4885    4.3450 H   0  0  0  0  0  0  0  0  0  0  0  0
    0.1282    4.0814    4.3116 H   0  0  0  0  0  0  0  0  0  0  0  0
   -0.7317    3.7994    2.8126 H   0  0  0  0  0  0  0  0  0  0  0  0
   -0.4812    1.1968    2.7762 N   0  0  0  0  0  0  0  0  0  0  0  0
   -0.1106   -0.1834    2.6051 C   0  0  2  0  0  0  0  0  0  0  0  0
   -0.0696   -0.4775    1.1113 C   0  0  0  0  0  0  0  0  0  0  0  0
   -0.6805    0.1900    0.2792 O   0  0  0  0  0  0  0  0  0  0  0  0
   -1.0852   -1.1101    3.3150 C   0  0  0  0  0  0  0  0  0  0  0  0
   -1.0883    1.6241    2.0791 H   0  0  0  0  0  0  0  0  0  0  0  0
    0.8937   -0.2959    3.0277 H   0  0  0  0  0  0  0  0  0  0  0  0
   -2.0970   -1.0114    2.9051 H   0  0  0  0  0  0  0  0  0  0  0  0
   -0.7860   -2.1580    3.2078 H   0  0  0  0  0  0  0  0  0  0  0  0
   -1.1357   -0.8775    4.3842 H   0  0  0  0  0  0  0  0  0  0  0  0
    0.6950   -1.6003    0.8178 N   0  0  0  0  0  0  0  0  0  0  0  0
    0.8777   -2.0908   -0.5246 C   0  0  2  0  0  0  0  0  0  0  0  0
    1.8568   -1.1575   -1.2257 C   0  0  0  0  0  0  0  0  0  0  0  0
    3.0707   -1.1903   -1.0335 O   0  0  0  0  0  0  0  0  0  0  0  0
   -0.4437   -2.1591   -1.2906 C   0  0  0  0  0  0  0  0  0  0  0  0
   -1.3731   -3.2472   -0.7826 C   0  0  0  0  0  0  0  0  0  0  0  0
   -1.0052   -4.3759   -0.4706 O   0  0  0  0  0  0  0  0  0  0  0  0
   -2.6825   -2.8219   -0.7055 N   0  0  0  0  0  0  0  0  0  0  0  0
    1.1810   -2.0803    1.5718 H   0  0  0  0  0  0  0  0  0  0  0  0
    1.3341   -3.0835   -0.4350 H   0  0  0  0  0  0  0  0  0  0  0  0
   -0.9833   -1.2076   -1.2025 H   0  0  0  0  0  0  0  0  0  0  0  0
   -0.2605   -2.3287   -2.3595 H   0  0  0  0  0  0  0  0  0  0  0  0
   -2.9407   -1.8774   -0.9710 H   0  0  0  0  0  0  0  0  0  0  0  0
   -3.4318   -3.4269   -0.3848 H   0  0  0  0  0  0  0  0  0  0  0  0
    1.2236   -0.3160   -2.1295 N   0  0  0  0  0  0  0  0  0  0  0  0
    1.9543    0.6374   -2.9297 C   0  0  2  0  0  0  0  0  0  0  0  0
    2.9898   -0.1273   -3.7435 C   0  0  0  0  0  0  0  0  0  0  0  0
    3.4105   -1.2365   -3.4213 O   0  0  0  0  0  0  0  0  0  0  0  0
    2.6181    1.6949   -2.0615 C   0  0  0  0  0  0  0  0  0  0  0  0
    0.2159   -0.3685   -2.2458 H   0  0  0  0  0  0  0  0  0  0  0  0
    1.2296    1.1041   -3.6057 H   0  0  0  0  0  0  0  0  0  0  0  0
    3.3476    1.2462   -1.3774 H   0  0  0  0  0  0  0  0  0  0  0  0
    3.1482    2.4337   -2.6717 H   0  0  0  0  0  0  0  0  0  0  0  0
    1.8751    2.2237   -1.4548 H   0  0  0  0  0  0  0  0  0  0  0  0
    3.4208    0.5931   -4.8487 N   0  0  0  0  0  0  0  0  0  0  0  0
    4.4106    0.0878   -5.7711 C   0  0  0  0  0  0  0  0  0  0  0  0
    3.0036    1.4972   -5.0495 H   0  0  0  0  0  0  0  0  0  0  0  0
    5.4098    0.4257   -5.4589 H   0  0  0  0  0  0  0  0  0  0  0  0
    4.3802   -1.0118   -5.7753 H   0  0  0  0  0  0  0  0  0  0  0  0
    4.1957    0.4644   -6.7820 H   0  0  0  0  0  0  0  0  0  0  0  0
  1  3  1  0  0  0  0
  1  7  1  0  0  0  0
  1  2  2  0  0  0  0
 21 22  1  0  0  0  0
 22 24  1  0  0  0  0
 22 23  2  0  0  0  0
 32 33  1  0  0  0  0
 33 41  1  0  0  0  0
 33 34  2  0  0  0  0
  8  9  1  0  0  0  0
  9 17  1  0  0  0  0
  9 10  2  0  0  0  0
 18 19  1  0  0  0  0
 19 31  1  0  0  0  0
 19 20  2  0  0  0  0
 32 35  1  0  0  0  0
  8 11  1  0  0  0  0
 41 42  1  0  0  0  0
 18 21  1  0  0  0  0
 31 32  1  0  0  0  0
  7  8  1  0  0  0  0
 17 18  1  0  0  0  0
  3  4  1  0  0  0  0
  3  5  1  0  0  0  0
  3  6  1  0  0  0  0
 35 38  1  0  0  0  0
 35 39  1  0  0  0  0
 35 40  1  0  0  0  0
 11 14  1  0  0  0  0
 11 15  1  0  0  0  0
 11 16  1  0  0  0  0
 42 44  1  0  0  0  0
 42 45  1  0  0  0  0
 42 46  1  0  0  0  0
 21 27  1  0  0  0  0
 21 28  1  0  0  0  0
 32 37  1  0  0  0  0
  8 13  1  0  0  0  0
 18 26  1  0  0  0  0
 24 29  1  0  0  0  0
 24 30  1  0  0  0  0
 41 43  1  0  0  0  0
  7 12  1  0  0  0  0
 31 36  1  0  0  0  0
 17 25  1  0  0  0  0
M  END
$$$$

  -OEChem-05262214473D

 46 45  0     1  0  0  0  0  0999 V2000
   -0.0543    1.9736    3.8406 C   0  0  0  0  0  0  0  0  0  0  0  0
    0.6744    1.6099    4.7562 O   0  0  0  0  0  0  0  0  0  0  0  0
   -0.5599    3.3779    3.8160 C   0  0  0  0  0  0  0  0  0  0  0  0
   -1.5202    3.4885    4.3450 H   0  0  0  0  0  0  0  0  0  0  0  0
    0.1282    4.0814    4.3116 H   0  0  0  0  0  0  0  0  0  0  0  0
   -0.7317    3.7994    2.8126 H   0  0  0  0  0  0  0  0  0  0  0  0
   -0.4812    1.1968    2.7762 N   0  0  0  0  0  0  0  0  0  0  0  0
   -0.1106   -0.1834    2.6051 C   0  0  2  0  0  0  0  0  0  0  0  0
   -0.0696   -0.4775    1.1113 C   0  0  0  0  0  0  0  0  0  0  0  0
   -0.6805    0.1900    0.2792 O   0  0  0  0  0  0  0  0  0  0  0  0
   -1.0852   -1.1101    3.3150 C   0  0  0  0  0  0  0  0  0  0  0  0
   -1.0883    1.6241    2.0791 H   0  0  0  0  0  0  0  0  0  0  0  0
    0.8937   -0.2959    3.0277 H   0  0  0  0  0  0  0  0  0  0  0  0
   -2.0970   -1.0114    2.9051 H   0  0  0  0  0  0  0  0  0  0  0  0
   -0.7860   -2.1580    3.2078 H   0  0  0  0  0  0  0  0  0  0  0  0
   -1.1357   -0.8775    4.3842 H   0  0  0  0  0  0  0  0  0  0  0  0
    0.6950   -1.6003    0.8178 N   0  0  0  0  0  0  0  0  0  0  0  0
    0.8777   -2.0908   -0.5246 C   0  0  2  0  0  0  0  0  0  0  0  0
    1.8568   -1.1575   -1.2257 C   0  0  0  0  0  0  0  0  0  0  0  0
    3.0706   -1.3517   -1.2485 O   0  0  0  0  0  0  0  0  0  0  0  0
   -0.4437   -2.1591   -1.2906 C   0  0  0  0  0  0  0  0  0  0  0  0
   -1.3731   -3.2472   -0.7826 C   0  0  0  0  0  0  0  0  0  0  0  0
   -1.0052   -4.3759   -0.4706 O   0  0  0  0  0  0  0  0  0  0  0  0
   -2.6825   -2.8219   -0.7055 N   0  0  0  0  0  0  0  0  0  0  0  0
    1.1810   -2.0803    1.5718 H   0  0  0  0  0  0  0  0  0  0  0  0
    1.3341   -3.0835   -0.4350 H   0  0  0  0  0  0  0  0  0  0  0  0
   -0.9833   -1.2076   -1.2025 H   0  0  0  0  0  0  0  0  0  0  0  0
   -0.2605   -2.3287   -2.3595 H   0  0  0  0  0  0  0  0  0  0  0  0
   -2.9407   -1.8774   -0.9710 H   0  0  0  0  0  0  0  0  0  0  0  0
   -3.4318   -3.4269   -0.3848 H   0  0  0  0  0  0  0  0  0  0  0  0
    1.2136   -0.1080   -1.8665 N   0  0  0  0  0  0  0  0  0  0  0  0
    1.9372    0.8887   -2.6190 C   0  0  2  0  0  0  0  0  0  0  0  0
    2.7298    0.1740   -3.7055 C   0  0  0  0  0  0  0  0  0  0  0  0
    3.0430   -1.0127   -3.6367 O   0  0  0  0  0  0  0  0  0  0  0  0
    2.8568    1.7008   -1.7204 C   0  0  0  0  0  0  0  0  0  0  0  0
    0.2018   -0.0324   -1.8181 H   0  0  0  0  0  0  0  0  0  0  0  0
    1.1885    1.5410   -3.0816 H   0  0  0  0  0  0  0  0  0  0  0  0
    3.6137    1.0641   -1.2480 H   0  0  0  0  0  0  0  0  0  0  0  0
    3.3835    2.4751   -2.2878 H   0  0  0  0  0  0  0  0  0  0  0  0
    2.2888    2.1901   -0.9218 H   0  0  0  0  0  0  0  0  0  0  0  0
    3.0836    1.0280   -4.7407 N   0  0  0  0  0  0  0  0  0  0  0  0
    3.8497    0.5911   -5.8845 C   0  0  0  0  0  0  0  0  0  0  0  0
    2.7648    1.9922   -4.7241 H   0  0  0  0  0  0  0  0  0  0  0  0
    4.9201    0.7612   -5.6961 H   0  0  0  0  0  0  0  0  0  0  0  0
    3.6736   -0.4811   -6.0558 H   0  0  0  0  0  0  0  0  0  0  0  0
    3.5389    1.1603   -6.7729 H   0  0  0  0  0  0  0  0  0  0  0  0
  1  3  1  0  0  0  0
  1  7  1  0  0  0  0
  1  2  2  0  0  0  0
 21 22  1  0  0  0  0
 22 24  1  0  0  0  0
 22 23  2  0  0  0  0
 32 33  1  0  0  0  0
 33 41  1  0  0  0  0
 33 34  2  0  0  0  0
  8  9  1  0  0  0  0
  9 17  1  0  0  0  0
  9 10  2  0  0  0  0
 18 19  1  0  0  0  0
 19 31  1  0  0  0  0
 19 20  2  0  0  0  0
 32 35  1  0  0  0  0
  8 11  1  0  0  0  0
 41 42  1  0  0  0  0
 18 21  1  0  0  0  0
 31 32  1  0  0  0  0
  7  8  1  0  0  0  0
 17 18  1  0  0  0  0
  3  4  1  0  0  0  0
  3  5  1  0  0  0  0
  3  6  1  0  0  0  0
 35 38  1  0  0  0  0
 35 39  1  0  0  0  0
 35 40  1  0  0  0  0
 11 14  1  0  0  0  0
 11 15  1  0  0  0  0
 11 16  1  0  0  0  0
 42 44  1  0  0  0  0
 42 45  1  0  0  0  0
 42 46  1  0  0  0  0
 21 27  1  0  0  0  0
 21 28  1  0  0  0  0
 32 37  1  0  0  0  0
  8 13  1  0  0  0  0
 18 26  1  0  0  0  0
 24 29  1  0  0  0  0
 24 30  1  0  0  0  0
 41 43  1  0  0  0  0
  7 12  1  0  0  0  0
 31 36  1  0  0  0  0
 17 25  1  0  0  0  0
M  END
$$$$

  -OEChem-05262214473D

 46 45  0     1  0  0  0  0  0999 V2000
   -0.0543    1.9736    3.8406 C   0  0  0  0  0  0  0  0  0  0  0  0
    0.6744    1.6099    4.7562 O   0  0  0  0  0  0  0  0  0  0  0  0
   -0.5599    3.3779    3.8160 C   0  0  0  0  0  0  0  0  0  0  0  0
   -1.5202    3.4885    4.3450 H   0  0  0  0  0  0  0  0  0  0  0  0
    0.1282    4.0814    4.3116 H   0  0  0  0  0  0  0  0  0  0  0  0
   -0.7317    3.7994    2.8126 H   0  0  0  0  0  0  0  0  0  0  0  0
   -0.4812    1.1968    2.7762 N   0  0  0  0  0  0  0  0  0  0  0  0
   -0.1106   -0.1834    2.6051 C   0  0  2  0  0  0  0  0  0  0  0  0
   -0.0696   -0.4775    1.1113 C   0  0  0  0  0  0  0  0  0  0  0  0
   -0.6805    0.1900    0.2792 O   0  0  0  0  0  0  0  0  0  0  0  0
   -1.0852   -1.1101    3.3150 C   0  0  0  0  0  0  0  0  0  0  0  0
   -1.0883    1.6241    2.0791 H   0  0  0  0  0  0  0  0  0  0  0  0
    0.8937   -0.2959    3.0277 H   0  0  0  0  0  0  0  0  0  0  0  0
   -2.0970   -1.0114    2.9051 H   0  0  0  0  0  0  0  0  0  0  0  0
   -0.7860   -2.1580    3.2078 H   0  0  0  0  0  0  0  0  0  0  0  0
   -1.1357   -0.8775    4.3842 H   0  0  0  0  0  0  0  0  0  0  0  0
    0.6950   -1.6003    0.8178 N   0  0  0  0  0  0  0  0  0  0  0  0
    0.8777   -2.0908   -0.5246 C   0  0  2  0  0  0  0  0  0  0  0  0
    1.8568   -1.1575   -1.2257 C   0  0  0  0  0  0  0  0  0  0  0  0
    3.0172   -1.4718   -1.4830 O   0  0  0  0  0  0  0  0  0  0  0  0
   -0.4437   -2.1591   -1.2906 C   0  0  0  0  0  0  0  0  0  0  0  0
   -1.3731   -3.2472   -0.7826 C   0  0  0  0  0  0  0  0  0  0  0  0
   -1.0052   -4.3759   -0.4706 O   0  0  0  0  0  0  0  0  0  0  0  0
   -2.6825   -2.8219   -0.7055 N   0  0  0  0  0  0  0  0  0  0  0  0
    1.1810   -2.0803    1.5718 H   0  0  0  0  0  0  0  0  0  0  0  0
    1.3341   -3.0835   -0.4350 H   0  0  0  0  0  0  0  0  0  0  0  0
   -0.9833   -1.2076   -1.2025 H   0  0  0  0  0  0  0  0  0  0  0  0
   -0.2605   -2.3287   -2.3595 H   0  0  0  0  0  0  0  0  0  0  0  0
   -2.9407   -1.8774   -0.9710 H   0  0  0  0  0  0  0  0  0  0  0  0
   -3.4318   -3.4269   -0.3848 H   0  0  0  0  0  0  0  0  0  0  0  0
    1.2704    0.0504   -1.5764 N   0  0  0  0  0  0  0  0  0  0  0  0
    1.9999    1.0818   -2.2744 C   0  0  2  0  0  0  0  0  0  0  0  0
    2.5207    0.4897   -3.5774 C   0  0  0  0  0  0  0  0  0  0  0  0
    2.6805   -0.7170   -3.7492 O   0  0  0  0  0  0  0  0  0  0  0  0
    3.1421    1.6213   -1.4277 C   0  0  0  0  0  0  0  0  0  0  0  0
    0.2961    0.2228   -1.3468 H   0  0  0  0  0  0  0  0  0  0  0  0
    1.2839    1.8807   -2.4961 H   0  0  0  0  0  0  0  0  0  0  0  0
    3.8697    0.8351   -1.1955 H   0  0  0  0  0  0  0  0  0  0  0  0
    3.6767    2.4233   -1.9474 H   0  0  0  0  0  0  0  0  0  0  0  0
    2.7688    2.0198   -0.4781 H   0  0  0  0  0  0  0  0  0  0  0  0
    2.8268    1.4702   -4.5106 N   0  0  0  0  0  0  0  0  0  0  0  0
    3.3499    1.1629   -5.8213 C   0  0  0  0  0  0  0  0  0  0  0  0
    2.6446    2.4447   -4.2896 H   0  0  0  0  0  0  0  0  0  0  0  0
    4.4493    1.1832   -5.7919 H   0  0  0  0  0  0  0  0  0  0  0  0
    3.0098    0.1623   -6.1264 H   0  0  0  0  0  0  0  0  0  0  0  0
    2.9888    1.9092   -6.5443 H   0  0  0  0  0  0  0  0  0  0  0  0
  1  3  1  0  0  0  0
  1  7  1  0  0  0  0
  1  2  2  0  0  0  0
 21 22  1  0  0  0  0
 22 24  1  0  0  0  0
 22 23  2  0  0  0  0
 32 33  1  0  0  0  0
 33 41  1  0  0  0  0
 33 34  2  0  0  0  0
  8  9  1  0  0  0  0
  9 17  1  0  0  0  0
  9 10  2  0  0  0  0
 18 19  1  0  0  0  0
 19 31  1  0  0  0  0
 19 20  2  0  0  0  0
 32 35  1  0  0  0  0
  8 11  1  0  0  0  0
 41 42  1  0  0  0  0
 18 21  1  0  0  0  0
 31 32  1  0  0  0  0
  7  8  1  0  0  0  0
 17 18  1  0  0  0  0
  3  4  1  0  0  0  0
  3  5  1  0  0  0  0
  3  6  1  0  0  0  0
 35 38  1  0  0  0  0
 35 39  1  0  0  0  0
 35 40  1  0  0  0  0
 11 14  1  0  0  0  0
 11 15  1  0  0  0  0
 11 16  1  0  0  0  0
 42 44  1  0  0  0  0
 42 45  1  0  0  0  0
 42 46  1  0  0  0  0
 21 27  1  0  0  0  0
 21 28  1  0  0  0  0
 32 37  1  0  0  0  0
  8 13  1  0  0  0  0
 18 26  1  0  0  0  0
 24 29  1  0  0  0  0
 24 30  1  0  0  0  0
 41 43  1  0  0  0  0
  7 12  1  0  0  0  0
 31 36  1  0  0  0  0
 17 25  1  0  0  0  0
M  END
$$$$

  -OEChem-05262214473D

 46 45  0     1  0  0  0  0  0999 V2000
   -0.0543    1.9736    3.8406 C   0  0  0  0  0  0  0  0  0  0  0  0
    0.6744    1.6099    4.7562 O   0  0  0  0  0  0  0  0  0  0  0  0
   -0.5599    3.3779    3.8160 C   0  0  0  0  0  0  0  0  0  0  0  0
   -1.5202    3.4885    4.3450 H   0  0  0  0  0  0  0  0  0  0  0  0
    0.1282    4.0814    4.3116 H   0  0  0  0  0  0  0  0  0  0  0  0
   -0.7317    3.7994    2.8126 H   0  0  0  0  0  0  0  0  0  0  0  0
   -0.4812    1.1968    2.7762 N   0  0  0  0  0  0  0  0  0  0  0  0
   -0.1106   -0.1834    2.6051 C   0  0  2  0  0  0  0  0  0  0  0  0
   -0.0696   -0.4775    1.1113 C   0  0  0  0  0  0  0  0  0  0  0  0
   -0.6805    0.1900    0.2792 O   0  0  0  0  0  0  0  0  0  0  0  0
   -1.0852   -1.1101    3.3150 C   0  0  0  0  0  0  0  0  0  0  0  0
   -1.0883    1.6241    2.0791 H   0  0  0  0  0  0  0  0  0  0  0  0
    0.8937   -0.2959    3.0277 H   0  0  0  0  0  0  0  0  0  0  0  0
   -2.0970   -1.0114    2.9051 H   0  0  0  0  0  0  0  0  0  0  0  0
   -0.7860   -2.1580    3.2078 H   0  0  0  0  0  0  0  0  0  0  0  0
   -1.1357   -0.8775    4.3842 H   0  0  0  0  0  0  0  0  0  0  0  0
    0.6950   -1.6003    0.8178 N   0  0  0  0  0  0  0  0  0  0  0  0
    0.8777   -2.0908   -0.5246 C   0  0  2  0  0  0  0  0  0  0  0  0
    1.8568   -1.1575   -1.2257 C   0  0  0  0  0  0  0  0  0  0  0  0
    2.9141   -1.5425   -1.7210 O   0  0  0  0  0  0  0  0  0  0  0  0
   -0.4437   -2.1591   -1.2906 C   0  0  0  0  0  0  0  0  0  0  0  0
   -1.3731   -3.2472   -0.7826 C   0  0  0  0  0  0  0  0  0  0  0  0
   -1.0052   -4.3759   -0.4706 O   0  0  0  0  0  0  0  0  0  0  0  0
   -2.6825   -2.8219   -0.7055 N   0  0  0  0  0  0  0  0  0  0  0  0
    1.1810   -2.0803    1.5718 H   0  0  0  0  0  0  0  0  0  0  0  0
    1.3341   -3.0835   -0.4350 H   0  0  0  0  0  0  0  0  0  0  0  0
   -0.9833   -1.2076   -1.2025 H   0  0  0  0  0  0  0  0  0  0  0  0
   -0.2605   -2.3287   -2.3595 H   0  0  0  0  0  0  0  0  0  0  0  0
   -2.9407   -1.8774   -0.9710 H   0  0  0  0  0  0  0  0  0  0  0  0
   -3.4318   -3.4269   -0.3848 H   0  0  0  0  0  0  0  0  0  0  0  0
    1.3901    0.1484   -1.2788 N   0  0  0  0  0  0  0  0  0  0  0  0
    2.1380    1.2035   -1.9194 C   0  0  2  0  0  0  0  0  0  0  0  0
    2.3765    0.7982   -3.3680 C   0  0  0  0  0  0  0  0  0  0  0  0
    2.3477   -0.3694   -3.7513 O   0  0  0  0  0  0  0  0  0  0  0  0
    3.4546    1.4619   -1.2035 C   0  0  0  0  0  0  0  0  0  0  0  0
    0.4922    0.3796   -0.8640 H   0  0  0  0  0  0  0  0  0  0  0  0
    1.5093    2.1001   -1.8892 H   0  0  0  0  0  0  0  0  0  0  0  0
    4.0979    0.5746   -1.2234 H   0  0  0  0  0  0  0  0  0  0  0  0
    4.0077    2.2817   -1.6736 H   0  0  0  0  0  0  0  0  0  0  0  0
    3.2826    1.7242   -0.1540 H   0  0  0  0  0  0  0  0  0  0  0  0
    2.6679    1.8897   -4.1741 N   0  0  0  0  0  0  0  0  0  0  0  0
    2.9452    1.7643   -5.5860 C   0  0  0  0  0  0  0  0  0  0  0  0
    2.6513    2.8238   -3.7755 H   0  0  0  0  0  0  0  0  0  0  0  0
    4.0297    1.6627   -5.7395 H   0  0  0  0  0  0  0  0  0  0  0  0
    2.4340    0.8746   -5.9823 H   0  0  0  0  0  0  0  0  0  0  0  0
    2.5829    2.6600   -6.1117 H   0  0  0  0  0  0  0  0  0  0  0  0
  1  3  1  0  0  0  0
  1  7  1  0  0  0  0
  1  2  2  0  0  0  0
 21 22  1  0  0  0  0
 22 24  1  0  0  0  0
 22 23  2  0  0  0  0
 32 33  1  0  0  0  0
 33 41  1  0  0  0  0
 33 34  2  0  0  0  0
  8  9  1  0  0  0  0
  9 17  1  0  0  0  0
  9 10  2  0  0  0  0
 18 19  1  0  0  0  0
 19 31  1  0  0  0  0
 19 20  2  0  0  0  0
 32 35  1  0  0  0  0
  8 11  1  0  0  0  0
 41 42  1  0  0  0  0
 18 21  1  0  0  0  0
 31 32  1  0  0  0  0
  7  8  1  0  0  0  0
 17 18  1  0  0  0  0
  3  4  1  0  0  0  0
  3  5  1  0  0  0  0
  3  6  1  0  0  0  0
 35 38  1  0  0  0  0
 35 39  1  0  0  0  0
 35 40  1  0  0  0  0
 11 14  1  0  0  0  0
 11 15  1  0  0  0  0
 11 16  1  0  0  0  0
 42 44  1  0  0  0  0
 42 45  1  0  0  0  0
 42 46  1  0  0  0  0
 21 27  1  0  0  0  0
 21 28  1  0  0  0  0
 32 37  1  0  0  0  0
  8 13  1  0  0  0  0
 18 26  1  0  0  0  0
 24 29  1  0  0  0  0
 24 30  1  0  0  0  0
 41 43  1  0  0  0  0
  7 12  1  0  0  0  0
 31 36  1  0  0  0  0
 17 25  1  0  0  0  0
M  END
$$$$

  -OEChem-05262214473D

 46 45  0     1  0  0  0  0  0999 V2000
   -0.0543    1.9736    3.8406 C   0  0  0  0  0  0  0  0  0  0  0  0
    0.6744    1.6099    4.7562 O   0  0  0  0  0  0  0  0  0  0  0  0
   -0.5599    3.3779    3.8160 C   0  0  0  0  0  0  0  0  0  0  0  0
   -1.5202    3.4885    4.3450 H   0  0  0  0  0  0  0  0  0  0  0  0
    0.1282    4.0814    4.3116 H   0  0  0  0  0  0  0  0  0  0  0  0
   -0.7317    3.7994    2.8126 H   0  0  0  0  0  0  0  0  0  0  0  0
   -0.4812    1.1968    2.7762 N   0  0  0  0  0  0  0  0  0  0  0  0
   -0.1106   -0.1834    2.6051 C   0  0  2  0  0  0  0  0  0  0  0  0
   -0.0696   -0.4775    1.1113 C   0  0  0  0  0  0  0  0  0  0  0  0
   -0.6805    0.1900    0.2792 O   0  0  0  0  0  0  0  0  0  0  0  0
   -1.0852   -1.1101    3.3150 C   0  0  0  0  0  0  0  0  0  0  0  0
   -1.0883    1.6241    2.0791 H   0  0  0  0  0  0  0  0  0  0  0  0
    0.8937   -0.2959    3.0277 H   0  0  0  0  0  0  0  0  0  0  0  0
   -2.0970   -1.0114    2.9051 H   0  0  0  0  0  0  0  0  0  0  0  0
   -0.7860   -2.1580    3.2078 H   0  0  0  0  0  0  0  0  0  0  0  0
   -1.1357   -0.8775    4.3842 H   0  0  0  0  0  0  0  0  0  0  0  0
    0.6950   -1.6003    0.8178 N   0  0  0  0  0  0  0  0  0  0  0  0
    0.8777   -2.0908   -0.5246 C   0  0  2  0  0  0  0  0  0  0  0  0
    1.8568   -1.1575   -1.2257 C   0  0  0  0  0  0  0  0  0  0  0  0
    2.7684   -1.5589   -1.9463 O   0  0  0  0  0  0  0  0  0  0  0  0
   -0.4437   -2.1591   -1.2906 C   0  0  0  0  0  0  0  0  0  0  0  0
   -1.3731   -3.2472   -0.7826 C   0  0  0  0  0  0  0  0  0  0  0  0
   -1.0052   -4.3759   -0.4706 O   0  0  0  0  0  0  0  0  0  0  0  0
   -2.6825   -2.8219   -0.7055 N   0  0  0  0  0  0  0  0  0  0  0  0
    1.1810   -2.0803    1.5718 H   0  0  0  0  0  0  0  0  0  0  0  0
    1.3341   -3.0835   -0.4350 H   0  0  0  0  0  0  0  0  0  0  0  0
   -0.9833   -1.2076   -1.2025 H   0  0  0  0  0  0  0  0  0  0  0  0
   -0.2605   -2.3287   -2.3595 H   0  0  0  0  0  0  0  0  0  0  0  0
   -2.9407   -1.8774   -0.9710 H   0  0  0  0  0  0  0  0  0  0  0  0
   -3.4318   -3.4269   -0.3848 H   0  0  0  0  0  0  0  0  0  0  0  0
    1.5646    0.1792   -0.9940 N   0  0  0  0  0  0  0  0  0  0  0  0
    2.3423    1.2456   -1.5782 C   0  0  2  0  0  0  0  0  0  0  0  0
    2.3072    1.0785   -3.0916 C   0  0  0  0  0  0  0  0  0  0  0  0
    2.0673    0.0063   -3.6427 O   0  0  0  0  0  0  0  0  0  0  0  0
    3.7730    1.2333   -1.0630 C   0  0  0  0  0  0  0  0  0  0  0  0
    0.7769    0.4275   -0.4027 H   0  0  0  0  0  0  0  0  0  0  0  0
    1.8495    2.1842   -1.3022 H   0  0  0  0  0  0  0  0  0  0  0  0
    4.2830    0.3005   -1.3299 H   0  0  0  0  0  0  0  0  0  0  0  0
    4.3539    2.0600   -1.4853 H   0  0  0  0  0  0  0  0  0  0  0  0
    3.7951    1.3236    0.0284 H   0  0  0  0  0  0  0  0  0  0  0  0
    2.6177    2.2579   -3.7541 N   0  0  0  0  0  0  0  0  0  0  0  0
    2.6633    2.3542   -5.1945 C   0  0  0  0  0  0  0  0  0  0  0  0
    2.7844    3.1037   -3.2170 H   0  0  0  0  0  0  0  0  0  0  0  0
    3.6898    2.1672   -5.5427 H   0  0  0  0  0  0  0  0  0  0  0  0
    1.9855    1.6072   -5.6334 H   0  0  0  0  0  0  0  0  0  0  0  0
    2.3488    3.3616   -5.5046 H   0  0  0  0  0  0  0  0  0  0  0  0
  1  3  1  0  0  0  0
  1  7  1  0  0  0  0
  1  2  2  0  0  0  0
 21 22  1  0  0  0  0
 22 24  1  0  0  0  0
 22 23  2  0  0  0  0
 32 33  1  0  0  0  0
 33 41  1  0  0  0  0
 33 34  2  0  0  0  0
  8  9  1  0  0  0  0
  9 17  1  0  0  0  0
  9 10  2  0  0  0  0
 18 19  1  0  0  0  0
 19 31  1  0  0  0  0
 19 20  2  0  0  0  0
 32 35  1  0  0  0  0
  8 11  1  0  0  0  0
 41 42  1  0  0  0  0
 18 21  1  0  0  0  0
 31 32  1  0  0  0  0
  7  8  1  0  0  0  0
 17 18  1  0  0  0  0
  3  4  1  0  0  0  0
  3  5  1  0  0  0  0
  3  6  1  0  0  0  0
 35 38  1  0  0  0  0
 35 39  1  0  0  0  0
 35 40  1  0  0  0  0
 11 14  1  0  0  0  0
 11 15  1  0  0  0  0
 11 16  1  0  0  0  0
 42 44  1  0  0  0  0
 42 45  1  0  0  0  0
 42 46  1  0  0  0  0
 21 27  1  0  0  0  0
 21 28  1  0  0  0  0
 32 37  1  0  0  0  0
  8 13  1  0  0  0  0
 18 26  1  0  0  0  0
 24 29  1  0  0  0  0
 24 30  1  0  0  0  0
 41 43  1  0  0  0  0
  7 12  1  0  0  0  0
 31 36  1  0  0  0  0
 17 25  1  0  0  0  0
M  END
$$$$

  -OEChem-05262214473D

 46 45  0     1  0  0  0  0  0999 V2000
   -0.0543    1.9736    3.8406 C   0  0  0  0  0  0  0  0  0  0  0  0
    0.6744    1.6099    4.7562 O   0  0  0  0  0  0  0  0  0  0  0  0
   -0.5599    3.3779    3.8160 C   0  0  0  0  0  0  0  0  0  0  0  0
   -1.5202    3.4885    4.3450 H   0  0  0  0  0  0  0  0  0  0  0  0
    0.1282    4.0814    4.3116 H   0  0  0  0  0  0  0  0  0  0  0  0
   -0.7317    3.7994    2.8126 H   0  0  0  0  0  0  0  0  0  0  0  0
   -0.4812    1.1968    2.7762 N   0  0  0  0  0  0  0  0  0  0  0  0
   -0.1106   -0.1834    2.6051 C   0  0  2  0  0  0  0  0  0  0  0  0
   -0.0696   -0.4775    1.1113 C   0  0  0  0  0  0  0  0  0  0  0  0
   -0.6805    0.1900    0.2792 O   0  0  0  0  0  0  0  0  0  0  0  0
   -1.0852   -1.1101    3.3150 C   0  0  0  0  0  0  0  0  0  0  0  0
   -1.0883    1.6241    2.0791 H   0  0  0  0  0  0  0  0  0  0  0  0
    0.8937   -0.2959    3.0277 H   0  0  0  0  0  0  0  0  0  0  0  0
   -2.0970   -1.0114    2.9051 H   0  0  0  0  0  0  0  0  0  0  0  0
   -0.7860   -2.1580    3.2078 H   0  0  0  0  0  0  0  0  0  0  0  0
   -1.1357   -0.8775    4.3842 H   0  0  0  0  0  0  0  0  0  0  0  0
    0.6950   -1.6003    0.8178 N   0  0  0  0  0  0  0  0  0  0  0  0
    0.8777   -2.0908   -0.5246 C   0  0  2  0  0  0  0  0  0  0  0  0
    1.8568   -1.1575   -1.2257 C   0  0  0  0  0  0  0  0  0  0  0  0
    2.5900   -1.5199   -2.1436 O   0  0  0  0  0  0  0  0  0  0  0  0
   -0.4437   -2.1591   -1.2906 C   0  0  0  0  0  0  0  0  0  0  0  0
   -1.3731   -3.2472   -0.7826 C   0  0  0  0  0  0  0  0  0  0  0  0
   -1.0052   -4.3759   -0.4706 O   0  0  0  0  0  0  0  0  0  0  0  0
   -2.6825   -2.8219   -0.7055 N   0  0  0  0  0  0  0  0  0  0  0  0
    1.1810   -2.0803    1.5718 H   0  0  0  0  0  0  0  0  0  0  0  0
    1.3341   -3.0835   -0.4350 H   0  0  0  0  0  0  0  0  0  0  0  0
   -0.9833   -1.2076   -1.2025 H   0  0  0  0  0  0  0  0  0  0  0  0
   -0.2605   -2.3287   -2.3595 H   0  0  0  0  0  0  0  0  0  0  0  0
   -2.9407   -1.8774   -0.9710 H   0  0  0  0  0  0  0  0  0  0  0  0
   -3.4318   -3.4269   -0.3848 H   0  0  0  0  0  0  0  0  0  0  0  0
    1.7820    0.1409   -0.7414 N   0  0  0  0  0  0  0  0  0  0  0  0
    2.5987    1.2051   -1.2739 C   0  0  2  0  0  0  0  0  0  0  0  0
    2.3175    1.3116   -2.7670 C   0  0  0  0  0  0  0  0  0  0  0  0
    1.8585    0.3845   -3.4309 O   0  0  0  0  0  0  0  0  0  0  0  0
    4.0757    0.9513   -1.0158 C   0  0  0  0  0  0  0  0  0  0  0  0
    1.1307    0.3631    0.0057 H   0  0  0  0  0  0  0  0  0  0  0  0
    2.2811    2.1273   -0.7752 H   0  0  0  0  0  0  0  0  0  0  0  0
    4.4122    0.0314   -1.5077 H   0  0  0  0  0  0  0  0  0  0  0  0
    4.6918    1.7733   -1.3951 H   0  0  0  0  0  0  0  0  0  0  0  0
    4.2713    0.8453    0.0568 H   0  0  0  0  0  0  0  0  0  0  0  0
    2.6797    2.5496   -3.2792 N   0  0  0  0  0  0  0  0  0  0  0  0
    2.5233    2.8924   -4.6735 C   0  0  0  0  0  0  0  0  0  0  0  0
    3.0349    3.2653   -2.6521 H   0  0  0  0  0  0  0  0  0  0  0  0
    3.4528    2.6622   -5.2148 H   0  0  0  0  0  0  0  0  0  0  0  0
    1.6949    2.3102   -5.1034 H   0  0  0  0  0  0  0  0  0  0  0  0
    2.3026    3.9662   -4.7644 H   0  0  0  0  0  0  0  0  0  0  0  0
  1  3  1  0  0  0  0
  1  7  1  0  0  0  0
  1  2  2  0  0  0  0
 21 22  1  0  0  0  0
 22 24  1  0  0  0  0
 22 23  2  0  0  0  0
 32 33  1  0  0  0  0
 33 41  1  0  0  0  0
 33 34  2  0  0  0  0
  8  9  1  0  0  0  0
  9 17  1  0  0  0  0
  9 10  2  0  0  0  0
 18 19  1  0  0  0  0
 19 31  1  0  0  0  0
 19 20  2  0  0  0  0
 32 35  1  0  0  0  0
  8 11  1  0  0  0  0
 41 42  1  0  0  0  0
 18 21  1  0  0  0  0
 31 32  1  0  0  0  0
  7  8  1  0  0  0  0
 17 18  1  0  0  0  0
  3  4  1  0  0  0  0
  3  5  1  0  0  0  0
  3  6  1  0  0  0  0
 35 38  1  0  0  0  0
 35 39  1  0  0  0  0
 35 40  1  0  0  0  0
 11 14  1  0  0  0  0
 11 15  1  0  0  0  0
 11 16  1  0  0  0  0
 42 44  1  0  0  0  0
 42 45  1  0  0  0  0
 42 46  1  0  0  0  0
 21 27  1  0  0  0  0
 21 28  1  0  0  0  0
 32 37  1  0  0  0  0
  8 13  1  0  0  0  0
 18 26  1  0  0  0  0
 24 29  1  0  0  0  0
 24 30  1  0  0  0  0
 41 43  1  0  0  0  0
  7 12  1  0  0  0  0
 31 36  1  0  0  0  0
 17 25  1  0  0  0  0
M  END
$$$$

  -OEChem-05262214473D

 46 45  0     1  0  0  0  0  0999 V2000
   -0.0543    1.9736    3.8406 C   0  0  0  0  0  0  0  0  0  0  0  0
    0.6744    1.6099    4.7562 O   0  0  0  0  0  0  0  0  0  0  0  0
   -0.5599    3.3779    3.8160 C   0  0  0  0  0  0  0  0  0  0  0  0
   -1.5202    3.4885    4.3450 H   0  0  0  0  0  0  0  0  0  0  0  0
    0.1282    4.0814    4.3116 H   0  0  0  0  0  0  0  0  0  0  0  0
   -0.7317    3.7994    2.8126 H   0  0  0  0  0  0  0  0  0  0  0  0
   -0.4812    1.1968    2.7762 N   0  0  0  0  0  0  0  0  0  0  0  0
   -0.1106   -0.1834    2.6051 C   0  0  2  0  0  0  0  0  0  0  0  0
   -0.0696   -0.4775    1.1113 C   0  0  0  0  0  0  0  0  0  0  0  0
   -0.6805    0.1900    0.2792 O   0  0  0  0  0  0  0  0  0  0  0  0
   -1.0852   -1.1101    3.3150 C   0  0  0  0  0  0  0  0  0  0  0  0
   -1.0883    1.6241    2.0791 H   0  0  0  0  0  0  0  0  0  0  0  0
    0.8937   -0.2959    3.0277 H   0  0  0  0  0  0  0  0  0  0  0  0
   -2.0970   -1.0114    2.9051 H   0  0  0  0  0  0  0  0  0  0  0  0
   -0.7860   -2.1580    3.2078 H   0  0  0  0  0  0  0  0  0  0  0  0
   -1.1357   -0.8775    4.3842 H   0  0  0  0  0  0  0  0  0  0  0  0
    0.6950   -1.6003    0.8178 N   0  0  0  0  0  0  0  0  0  0  0  0
    0.8777   -2.0908   -0.5246 C   0  0  2  0  0  0  0  0  0  0  0  0
    1.8568   -1.1575   -1.2257 C   0  0  0  0  0  0  0  0  0  0  0  0
    2.3910   -1.4282   -2.2993 O   0  0  0  0  0  0  0  0  0  0  0  0
   -0.4437   -2.1591   -1.2906 C   0  0  0  0  0  0  0  0  0  0  0  0
   -1.3731   -3.2472   -0.7826 C   0  0  0  0  0  0  0  0  0  0  0  0
   -1.0052   -4.3759   -0.4706 O   0  0  0  0  0  0  0  0  0  0  0  0
   -2.6825   -2.8219   -0.7055 N   0  0  0  0  0  0  0  0  0  0  0  0
    1.1810   -2.0803    1.5718 H   0  0  0  0  0  0  0  0  0  0  0  0
    1.3341   -3.0835   -0.4350 H   0  0  0  0  0  0  0  0  0  0  0  0
   -0.9833   -1.2076   -1.2025 H   0  0  0  0  0  0  0  0  0  0  0  0
   -0.2605   -2.3287   -2.3595 H   0  0  0  0  0  0  0  0  0  0  0  0
   -2.9407   -1.8774   -0.9710 H   0  0  0  0  0  0  0  0  0  0  0  0
   -3.4318   -3.4269   -0.3848 H   0  0  0  0  0  0  0  0  0  0  0  0
    2.0275    0.0359   -0.5383 N   0  0  0  0  0  0  0  0  0  0  0  0
    2.8897    1.0849   -1.0275 C   0  0  2  0  0  0  0  0  0  0  0  0
    2.4066    1.4815   -2.4163 C   0  0  0  0  0  0  0  0  0  0  0  0
    1.7354    0.7395   -3.1303 O   0  0  0  0  0  0  0  0  0  0  0  0
    4.3419    0.6350   -1.0651 C   0  0  0  0  0  0  0  0  0  0  0  0
    1.5295    0.1908    0.3334 H   0  0  0  0  0  0  0  0  0  0  0  0
    2.7747    1.9333   -0.3440 H   0  0  0  0  0  0  0  0  0  0  0  0
    4.4768   -0.2144   -1.7447 H   0  0  0  0  0  0  0  0  0  0  0  0
    4.9983    1.4411   -1.4092 H   0  0  0  0  0  0  0  0  0  0  0  0
    4.6788    0.3219   -0.0709 H   0  0  0  0  0  0  0  0  0  0  0  0
    2.8496    2.7450   -2.7818 N   0  0  0  0  0  0  0  0  0  0  0  0
    2.5347    3.3424   -4.0585 C   0  0  0  0  0  0  0  0  0  0  0  0
    3.3857    3.2976   -2.1193 H   0  0  0  0  0  0  0  0  0  0  0  0
    3.3348    3.1140   -4.7781 H   0  0  0  0  0  0  0  0  0  0  0  0
    1.5820    2.9357   -4.4285 H   0  0  0  0  0  0  0  0  0  0  0  0
    2.4472    4.4326   -3.9415 H   0  0  0  0  0  0  0  0  0  0  0  0
  1  3  1  0  0  0  0
  1  7  1  0  0  0  0
  1  2  2  0  0  0  0
 21 22  1  0  0  0  0
 22 24  1  0  0  0  0
 22 23  2  0  0  0  0
 32 33  1  0  0  0  0
 33 41  1  0  0  0  0
 33 34  2  0  0  0  0
  8  9  1  0  0  0  0
  9 17  1  0  0  0  0
  9 10  2  0  0  0  0
 18 19  1  0  0  0  0
 19 31  1  0  0  0  0
 19 20  2  0  0  0  0
 32 35  1  0  0  0  0
  8 11  1  0  0  0  0
 41 42  1  0  0  0  0
 18 21  1  0  0  0  0
 31 32  1  0  0  0  0
  7  8  1  0  0  0  0
 17 18  1  0  0  0  0
  3  4  1  0  0  0  0
  3  5  1  0  0  0  0
  3  6  1  0  0  0  0
 35 38  1  0  0  0  0
 35 39  1  0  0  0  0
 35 40  1  0  0  0  0
 11 14  1  0  0  0  0
 11 15  1  0  0  0  0
 11 16  1  0  0  0  0
 42 44  1  0  0  0  0
 42 45  1  0  0  0  0
 42 46  1  0  0  0  0
 21 27  1  0  0  0  0
 21 28  1  0  0  0  0
 32 37  1  0  0  0  0
  8 13  1  0  0  0  0
 18 26  1  0  0  0  0
 24 29  1  0  0  0  0
 24 30  1  0  0  0  0
 41 43  1  0  0  0  0
  7 12  1  0  0  0  0
 31 36  1  0  0  0  0
 17 25  1  0  0  0  0
M  END
$$$$

  -OEChem-05262214473D

 46 45  0     1  0  0  0  0  0999 V2000
   -0.0543    1.9736    3.8406 C   0  0  0  0  0  0  0  0  0  0  0  0
    0.6744    1.6099    4.7562 O   0  0  0  0  0  0  0  0  0  0  0  0
   -0.5599    3.3779    3.8160 C   0  0  0  0  0  0  0  0  0  0  0  0
   -1.5202    3.4885    4.3450 H   0  0  0  0  0  0  0  0  0  0  0  0
    0.1282    4.0814    4.3116 H   0  0  0  0  0  0  0  0  0  0  0  0
   -0.7317    3.7994    2.8126 H   0  0  0  0  0  0  0  0  0  0  0  0
   -0.4812    1.1968    2.7762 N   0  0  0  0  0  0  0  0  0  0  0  0
   -0.1106   -0.1834    2.6051 C   0  0  2  0  0  0  0  0  0  0  0  0
   -0.0696   -0.4775    1.1113 C   0  0  0  0  0  0  0  0  0  0  0  0
   -0.6805    0.1900    0.2792 O   0  0  0  0  0  0  0  0  0  0  0  0
   -1.0852   -1.1101    3.3150 C   0  0  0  0  0  0  0  0  0  0  0  0
   -1.0883    1.6241    2.0791 H   0  0  0  0  0  0  0  0  0  0  0  0
    0.8937   -0.2959    3.0277 H   0  0  0  0  0  0  0  0  0  0  0  0
   -2.0970   -1.0114    2.9051 H   0  0  0  0  0  0  0  0  0  0  0  0
   -0.7860   -2.1580    3.2078 H   0  0  0  0  0  0  0  0  0  0  0  0
   -1.1357   -0.8775    4.3842 H   0  0  0  0  0  0  0  0  0  0  0  0
    0.6950   -1.6003    0.8178 N   0  0  0  0  0  0  0  0  0  0  0  0
    0.8777   -2.0908   -0.5246 C   0  0  2  0  0  0  0  0  0  0  0  0
    1.8568   -1.1575   -1.2257 C   0  0  0  0  0  0  0  0  0  0  0  0
    2.1851   -1.2900   -2.4030 O   0  0  0  0  0  0  0  0  0  0  0  0
   -0.4437   -2.1591   -1.2906 C   0  0  0  0  0  0  0  0  0  0  0  0
   -1.3731   -3.2472   -0.7826 C   0  0  0  0  0  0  0  0  0  0  0  0
   -1.0052   -4.3759   -0.4706 O   0  0  0  0  0  0  0  0  0  0  0  0
   -2.6825   -2.8219   -0.7055 N   0  0  0  0  0  0  0  0  0  0  0  0
    1.1810   -2.0803    1.5718 H   0  0  0  0  0  0  0  0  0  0  0  0
    1.3341   -3.0835   -0.4350 H   0  0  0  0  0  0  0  0  0  0  0  0
   -0.9833   -1.2076   -1.2025 H   0  0  0  0  0  0  0  0  0  0  0  0
   -0.2605   -2.3287   -2.3595 H   0  0  0  0  0  0  0  0  0  0  0  0
   -2.9407   -1.8774   -0.9710 H   0  0  0  0  0  0  0  0  0  0  0  0
   -3.4318   -3.4269   -0.3848 H   0  0  0  0  0  0  0  0  0  0  0  0
    2.2842   -0.1284   -0.3985 N   0  0  0  0  0  0  0  0  0  0  0  0
    3.1957    0.8931   -0.8555 C   0  0  2  0  0  0  0  0  0  0  0  0
    2.5686    1.5767   -2.0634 C   0  0  0  0  0  0  0  0  0  0  0  0
    1.7064    1.0470   -2.7614 O   0  0  0  0  0  0  0  0  0  0  0  0
    4.5536    0.3059   -1.2075 C   0  0  0  0  0  0  0  0  0  0  0  0
    1.9462   -0.0776    0.5580 H   0  0  0  0  0  0  0  0  0  0  0  0
    3.2968    1.6154   -0.0381 H   0  0  0  0  0  0  0  0  0  0  0  0
    4.4723   -0.4200   -2.0247 H   0  0  0  0  0  0  0  0  0  0  0  0
    5.2525    1.0860   -1.5267 H   0  0  0  0  0  0  0  0  0  0  0  0
    4.9898   -0.2110   -0.3459 H   0  0  0  0  0  0  0  0  0  0  0  0
    3.1158    2.8308   -2.2958 N   0  0  0  0  0  0  0  0  0  0  0  0
    2.6969    3.6734   -3.3915 C   0  0  0  0  0  0  0  0  0  0  0  0
    3.8128    3.1984   -1.6548 H   0  0  0  0  0  0  0  0  0  0  0  0
    3.3438    3.4919   -4.2624 H   0  0  0  0  0  0  0  0  0  0  0  0
    1.6544    3.4411   -3.6546 H   0  0  0  0  0  0  0  0  0  0  0  0
    2.7730    4.7290   -3.0919 H   0  0  0  0  0  0  0  0  0  0  0  0
  1  3  1  0  0  0  0
  1  7  1  0  0  0  0
  1  2  2  0  0  0  0
 21 22  1  0  0  0  0
 22 24  1  0  0  0  0
 22 23  2  0  0  0  0
 32 33  1  0  0  0  0
 33 41  1  0  0  0  0
 33 34  2  0  0  0  0
  8  9  1  0  0  0  0
  9 17  1  0  0  0  0
  9 10  2  0  0  0  0
 18 19  1  0  0  0  0
 19 31  1  0  0  0  0
 19 20  2  0  0  0  0
 32 35  1  0  0  0  0
  8 11  1  0  0  0  0
 41 42  1  0  0  0  0
 18 21  1  0  0  0  0
 31 32  1  0  0  0  0
  7  8  1  0  0  0  0
 17 18  1  0  0  0  0
  3  4  1  0  0  0  0
  3  5  1  0  0  0  0
  3  6  1  0  0  0  0
 35 38  1  0  0  0  0
 35 39  1  0  0  0  0
 35 40  1  0  0  0  0
 11 14  1  0  0  0  0
 11 15  1  0  0  0  0
 11 16  1  0  0  0  0
 42 44  1  0  0  0  0
 42 45  1  0  0  0  0
 42 46  1  0  0  0  0
 21 27  1  0  0  0  0
 21 28  1  0  0  0  0
 32 37  1  0  0  0  0
  8 13  1  0  0  0  0
 18 26  1  0  0  0  0
 24 29  1  0  0  0  0
 24 30  1  0  0  0  0
 41 43  1  0  0  0  0
  7 12  1  0  0  0  0
 31 36  1  0  0  0  0
 17 25  1  0  0  0  0
M  END
$$$$

  -OEChem-05262214473D

 46 45  0     1  0  0  0  0  0999 V2000
   -0.0543    1.9736    3.8406 C   0  0  0  0  0  0  0  0  0  0  0  0
    0.6744    1.6099    4.7562 O   0  0  0  0  0  0  0  0  0  0  0  0
   -0.5599    3.3779    3.8160 C   0  0  0  0  0  0  0  0  0  0  0  0
   -1.5202    3.4885    4.3450 H   0  0  0  0  0  0  0  0  0  0  0  0
    0.1282    4.0814    4.3116 H   0  0  0  0  0  0  0  0  0  0  0  0
   -0.7317    3.7994    2.8126 H   0  0  0  0  0  0  0  0  0  0  0  0
   -0.4812    1.1968    2.7762 N   0  0  0  0  0  0  0  0  0  0  0  0
   -0.1106   -0.1834    2.6051 C   0  0  2  0  0  0  0  0  0  0  0  0
   -0.0696   -0.4775    1.1113 C   0  0  0  0  0  0  0  0  0  0  0  0
   -0.6805    0.1900    0.2792 O   0  0  0  0  0  0  0  0  0  0  0  0
   -1.0852   -1.1101    3.3150 C   0  0  0  0  0  0  0  0  0  0  0  0
   -1.0883    1.6241    2.0791 H   0  0  0  0  0  0  0  0  0  0  0  0
    0.8937   -0.2959    3.0277 H   0  0  0  0  0  0  0  0  0  0  0  0
   -2.0970   -1.0114    2.9051 H   0  0  0  0  0  0  0  0  0  0  0  0
   -0.7860   -2.1580    3.2078 H   0  0  0  0  0  0  0  0  0  0  0  0
   -1.1357   -0.8775    4.3842 H   0  0  0  0  0  0  0  0  0  0  0  0
    0.6950   -1.6003    0.8178 N   0  0  0  0  0  0  0  0  0  0  0  0
    0.8777   -2.0908   -0.5246 C   0  0  2  0  0  0  0  0  0  0  0  0
    1.8568   -1.1575   -1.2257 C   0  0  0  0  0  0  0  0  0  0  0  0
    1.9862   -1.1147   -2.4475 O   0  0  0  0  0  0  0  0  0  0  0  0
   -0.4437   -2.1591   -1.2906 C   0  0  0  0  0  0  0  0  0  0  0  0
   -1.3731   -3.2472   -0.7826 C   0  0  0  0  0  0  0  0  0  0  0  0
   -1.0052   -4.3759   -0.4706 O   0  0  0  0  0  0  0  0  0  0  0  0
   -2.6825   -2.8219   -0.7055 N   0  0  0  0  0  0  0  0  0  0  0  0
    1.1810   -2.0803    1.5718 H   0  0  0  0  0  0  0  0  0  0  0  0
    1.3341   -3.0835   -0.4350 H   0  0  0  0  0  0  0  0  0  0  0  0
   -0.9833   -1.2076   -1.2025 H   0  0  0  0  0  0  0  0  0  0  0  0
   -0.2605   -2.3287   -2.3595 H   0  0  0  0  0  0  0  0  0  0  0  0
   -2.9407   -1.8774   -0.9710 H   0  0  0  0  0  0  0  0  0  0  0  0
   -3.4318   -3.4269   -0.3848 H   0  0  0  0  0  0  0  0  0  0  0  0
    2.5349   -0.3410   -0.3315 N   0  0  0  0  0  0  0  0  0  0  0  0
    3.4956    0.6429   -0.7698 C   0  0  2  0  0  0  0  0  0  0  0  0
    2.7923    1.5907   -1.7324 C   0  0  0  0  0  0  0  0  0  0  0  0
    1.7736    1.2861   -2.3492 O   0  0  0  0  0  0  0  0  0  0  0  0
    4.6963   -0.0134   -1.4333 C   0  0  0  0  0  0  0  0  0  0  0  0
    2.3524   -0.4238    0.6643 H   0  0  0  0  0  0  0  0  0  0  0  0
    3.8118    1.1952    0.1218 H   0  0  0  0  0  0  0  0  0  0  0  0
    4.3991   -0.5716   -2.3287 H   0  0  0  0  0  0  0  0  0  0  0  0
    5.4372    0.7324   -1.7396 H   0  0  0  0  0  0  0  0  0  0  0  0
    5.1832   -0.7171   -0.7495 H   0  0  0  0  0  0  0  0  0  0  0  0
    3.4603    2.8011   -1.8543 N   0  0  0  0  0  0  0  0  0  0  0  0
    2.9987    3.8628   -2.7178 C   0  0  0  0  0  0  0  0  0  0  0  0
    4.2872    2.9745   -1.2904 H   0  0  0  0  0  0  0  0  0  0  0  0
    3.4794    3.7700   -3.7029 H   0  0  0  0  0  0  0  0  0  0  0  0
    1.9072    3.7920   -2.8345 H   0  0  0  0  0  0  0  0  0  0  0  0
    3.2576    4.8352   -2.2737 H   0  0  0  0  0  0  0  0  0  0  0  0
  1  3  1  0  0  0  0
  1  7  1  0  0  0  0
  1  2  2  0  0  0  0
 21 22  1  0  0  0  0
 22 24  1  0  0  0  0
 22 23  2  0  0  0  0
 32 33  1  0  0  0  0
 33 41  1  0  0  0  0
 33 34  2  0  0  0  0
  8  9  1  0  0  0  0
  9 17  1  0  0  0  0
  9 10  2  0  0  0  0
 18 19  1  0  0  0  0
 19 31  1  0  0  0  0
 19 20  2  0  0  0  0
 32 35  1  0  0  0  0
  8 11  1  0  0  0  0
 41 42  1  0  0  0  0
 18 21  1  0  0  0  0
 31 32  1  0  0  0  0
  7  8  1  0  0  0  0
 17 18  1  0  0  0  0
  3  4  1  0  0  0  0
  3  5  1  0  0  0  0
  3  6  1  0  0  0  0
 35 38  1  0  0  0  0
 35 39  1  0  0  0  0
 35 40  1  0  0  0  0
 11 14  1  0  0  0  0
 11 15  1  0  0  0  0
 11 16  1  0  0  0  0
 42 44  1  0  0  0  0
 42 45  1  0  0  0  0
 42 46  1  0  0  0  0
 21 27  1  0  0  0  0
 21 28  1  0  0  0  0
 32 37  1  0  0  0  0
  8 13  1  0  0  0  0
 18 26  1  0  0  0  0
 24 29  1  0  0  0  0
 24 30  1  0  0  0  0
 41 43  1  0  0  0  0
  7 12  1  0  0  0  0
 31 36  1  0  0  0  0
 17 25  1  0  0  0  0
M  END
$$$$

  -OEChem-05262214473D

 46 45  0     1  0  0  0  0  0999 V2000
   -0.0543    1.9736    3.8406 C   0  0  0  0  0  0  0  0  0  0  0  0
    0.6744    1.6099    4.7562 O   0  0  0  0  0  0  0  0  0  0  0  0
   -0.5599    3.3779    3.8160 C   0  0  0  0  0  0  0  0  0  0  0  0
   -1.5202    3.4885    4.3450 H   0  0  0  0  0  0  0  0  0  0  0  0
    0.1282    4.0814    4.3116 H   0  0  0  0  0  0  0  0  0  0  0  0
   -0.7317    3.7994    2.8126 H   0  0  0  0  0  0  0  0  0  0  0  0
   -0.4812    1.1968    2.7762 N   0  0  0  0  0  0  0  0  0  0  0  0
   -0.1106   -0.1834    2.6051 C   0  0  2  0  0  0  0  0  0  0  0  0
   -0.0696   -0.4775    1.1113 C   0  0  0  0  0  0  0  0  0  0  0  0
   -0.6805    0.1900    0.2792 O   0  0  0  0  0  0  0  0  0  0  0  0
   -1.0852   -1.1101    3.3150 C   0  0  0  0  0  0  0  0  0  0  0  0
   -1.0883    1.6241    2.0791 H   0  0  0  0  0  0  0  0  0  0  0  0
    0.8937   -0.2959    3.0277 H   0  0  0  0  0  0  0  0  0  0  0  0
   -2.0970   -1.0114    2.9051 H   0  0  0  0  0  0  0  0  0  0  0  0
   -0.7860   -2.1580    3.2078 H   0  0  0  0  0  0  0  0  0  0  0  0
   -1.1357   -0.8775    4.3842 H   0  0  0  0  0  0  0  0  0  0  0  0
    0.6950   -1.6003    0.8178 N   0  0  0  0  0  0  0  0  0  0  0  0
    0.8777   -2.0908   -0.5246 C   0  0  2  0  0  0  0  0  0  0  0  0
    1.8568   -1.1575   -1.2257 C   0  0  0  0  0  0  0  0  0  0  0  0
    1.8079   -0.9143   -2.4298 O   0  0  0  0  0  0  0  0  0  0  0  0
   -0.4437   -2.1591   -1.2906 C   0  0  0  0  0  0  0  0  0  0  0  0
   -1.3731   -3.2472   -0.7826 C   0  0  0  0  0  0  0  0  0  0  0  0
   -1.0052   -4.3759   -0.4706 O   0  0  0  0  0  0  0  0  0  0  0  0
   -2.6825   -2.8219   -0.7055 N   0  0  0  0  0  0  0  0  0  0  0  0
    1.1810   -2.0803    1.5718 H   0  0  0  0  0  0  0  0  0  0  0  0
    1.3341   -3.0835   -0.4350 H   0  0  0  0  0  0  0  0  0  0  0  0
   -0.9833   -1.2076   -1.2025 H   0  0  0  0  0  0  0  0  0  0  0  0
   -0.2605   -2.3287   -2.3595 H   0  0  0  0  0  0  0  0  0  0  0  0
   -2.9407   -1.8774   -0.9710 H   0  0  0  0  0  0  0  0  0  0  0  0
   -3.4318   -3.4269   -0.3848 H   0  0  0  0  0  0  0  0  0  0  0  0
    2.7623   -0.5874   -0.3419 N   0  0  0  0  0  0  0  0  0  0  0  0
    3.7691    0.3511   -0.7762 C   0  0  2  0  0  0  0  0  0  0  0  0
    3.0625    1.5224   -1.4458 C   0  0  0  0  0  0  0  0  0  0  0  0
    1.9322    1.4406   -1.9220 O   0  0  0  0  0  0  0  0  0  0  0  0
    4.7603   -0.3014   -1.7272 C   0  0  0  0  0  0  0  0  0  0  0  0
    2.7203   -0.8243    0.6449 H   0  0  0  0  0  0  0  0  0  0  0  0
    4.2845    0.7014    0.1247 H   0  0  0  0  0  0  0  0  0  0  0  0
    4.2621   -0.6587   -2.6359 H   0  0  0  0  0  0  0  0  0  0  0  0
    5.5397    0.4042   -2.0333 H   0  0  0  0  0  0  0  0  0  0  0  0
    5.2457   -1.1618   -1.2542 H   0  0  0  0  0  0  0  0  0  0  0  0
    3.8594    2.6580   -1.4873 N   0  0  0  0  0  0  0  0  0  0  0  0
    3.4196    3.8978   -2.0835 C   0  0  0  0  0  0  0  0  0  0  0  0
    4.7765    2.6411   -1.0509 H   0  0  0  0  0  0  0  0  0  0  0  0
    3.7321    3.9295   -3.1377 H   0  0  0  0  0  0  0  0  0  0  0  0
    2.3232    3.9643   -2.0241 H   0  0  0  0  0  0  0  0  0  0  0  0
    3.8681    4.7440   -1.5425 H   0  0  0  0  0  0  0  0  0  0  0  0
  1  3  1  0  0  0  0
  1  7  1  0  0  0  0
  1  2  2  0  0  0  0
 21 22  1  0  0  0  0
 22 24  1  0  0  0  0
 22 23  2  0  0  0  0
 32 33  1  0  0  0  0
 33 41  1  0  0  0  0
 33 34  2  0  0  0  0
  8  9  1  0  0  0  0
  9 17  1  0  0  0  0
  9 10  2  0  0  0  0
 18 19  1  0  0  0  0
 19 31  1  0  0  0  0
 19 20  2  0  0  0  0
 32 35  1  0  0  0  0
  8 11  1  0  0  0  0
 41 42  1  0  0  0  0
 18 21  1  0  0  0  0
 31 32  1  0  0  0  0
  7  8  1  0  0  0  0
 17 18  1  0  0  0  0
  3  4  1  0  0  0  0
  3  5  1  0  0  0  0
  3  6  1  0  0  0  0
 35 38  1  0  0  0  0
 35 39  1  0  0  0  0
 35 40  1  0  0  0  0
 11 14  1  0  0  0  0
 11 15  1  0  0  0  0
 11 16  1  0  0  0  0
 42 44  1  0  0  0  0
 42 45  1  0  0  0  0
 42 46  1  0  0  0  0
 21 27  1  0  0  0  0
 21 28  1  0  0  0  0
 32 37  1  0  0  0  0
  8 13  1  0  0  0  0
 18 26  1  0  0  0  0
 24 29  1  0  0  0  0
 24 30  1  0  0  0  0
 41 43  1  0  0  0  0
  7 12  1  0  0  0  0
 31 36  1  0  0  0  0
 17 25  1  0  0  0  0
M  END
$$$$

  -OEChem-05262214473D

 46 45  0     1  0  0  0  0  0999 V2000
   -0.0543    1.9736    3.8406 C   0  0  0  0  0  0  0  0  0  0  0  0
    0.6744    1.6099    4.7562 O   0  0  0  0  0  0  0  0  0  0  0  0
   -0.5599    3.3779    3.8160 C   0  0  0  0  0  0  0  0  0  0  0  0
   -1.5202    3.4885    4.3450 H   0  0  0  0  0  0  0  0  0  0  0  0
    0.1282    4.0814    4.3116 H   0  0  0  0  0  0  0  0  0  0  0  0
   -0.7317    3.7994    2.8126 H   0  0  0  0  0  0  0  0  0  0  0  0
   -0.4812    1.1968    2.7762 N   0  0  0  0  0  0  0  0  0  0  0  0
   -0.1106   -0.1834    2.6051 C   0  0  2  0  0  0  0  0  0  0  0  0
   -0.0696   -0.4775    1.1113 C   0  0  0  0  0  0  0  0  0  0  0  0
   -0.6805    0.1900    0.2792 O   0  0  0  0  0  0  0  0  0  0  0  0
   -1.0852   -1.1101    3.3150 C   0  0  0  0  0  0  0  0  0  0  0  0
   -1.0883    1.6241    2.0791 H   0  0  0  0  0  0  0  0  0  0  0  0
    0.8937   -0.2959    3.0277 H   0  0  0  0  0  0  0  0  0  0  0  0
   -2.0970   -1.0114    2.9051 H   0  0  0  0  0  0  0  0  0  0  0  0
   -0.7860   -2.1580    3.2078 H   0  0  0  0  0  0  0  0  0  0  0  0
   -1.1357   -0.8775    4.3842 H   0  0  0  0  0  0  0  0  0  0  0  0
    0.6950   -1.6003    0.8178 N   0  0  0  0  0  0  0  0  0  0  0  0
    0.8777   -2.0908   -0.5246 C   0  0  2  0  0  0  0  0  0  0  0  0
    1.8568   -1.1575   -1.2257 C   0  0  0  0  0  0  0  0  0  0  0  0
    1.6623   -0.7025   -2.3511 O   0  0  0  0  0  0  0  0  0  0  0  0
   -0.4437   -2.1591   -1.2906 C   0  0  0  0  0  0  0  0  0  0  0  0
   -1.3731   -3.2472   -0.7826 C   0  0  0  0  0  0  0  0  0  0  0  0
   -1.0052   -4.3759   -0.4706 O   0  0  0  0  0  0  0  0  0  0  0  0
   -2.6825   -2.8219   -0.7055 N   0  0  0  0  0  0  0  0  0  0  0  0
    1.1810   -2.0803    1.5718 H   0  0  0  0  0  0  0  0  0  0  0  0
    1.3341   -3.0835   -0.4350 H   0  0  0  0  0  0  0  0  0  0  0  0
   -0.9833   -1.2076   -1.2025 H   0  0  0  0  0  0  0  0  0  0  0  0
   -0.2605   -2.3287   -2.3595 H   0  0  0  0  0  0  0  0  0  0  0  0
   -2.9407   -1.8774   -0.9710 H   0  0  0  0  0  0  0  0  0  0  0  0
   -3.4318   -3.4269   -0.3848 H   0  0  0  0  0  0  0  0  0  0  0  0
    2.9509   -0.8507   -0.4290 N   0  0  0  0  0  0  0  0  0  0  0  0
    3.9975    0.0378   -0.8743 C   0  0  2  0  0  0  0  0  0  0  0  0
    3.3609    1.3767   -1.2232 C   0  0  0  0  0  0  0  0  0  0  0  0
    2.1716    1.4998   -1.5089 O   0  0  0  0  0  0  0  0  0  0  0  0
    4.7412   -0.5382   -2.0692 C   0  0  0  0  0  0  0  0  0  0  0  0
    3.0249   -1.2518    0.5013 H   0  0  0  0  0  0  0  0  0  0  0  0
    4.6828    0.1677   -0.0296 H   0  0  0  0  0  0  0  0  0  0  0  0
    4.0707   -0.6754   -2.9254 H   0  0  0  0  0  0  0  0  0  0  0  0
    5.5531    0.1238   -2.3879 H   0  0  0  0  0  0  0  0  0  0  0  0
    5.1732   -1.5148   -1.8255 H   0  0  0  0  0  0  0  0  0  0  0  0
    4.2861    2.4111   -1.2200 N   0  0  0  0  0  0  0  0  0  0  0  0
    3.9308    3.7759   -1.5317 C   0  0  0  0  0  0  0  0  0  0  0  0
    5.2474    2.2209   -0.9526 H   0  0  0  0  0  0  0  0  0  0  0  0
    4.0848    3.9594   -2.6053 H   0  0  0  0  0  0  0  0  0  0  0  0
    2.8740    3.9465   -1.2785 H   0  0  0  0  0  0  0  0  0  0  0  0
    4.5629    4.4616   -0.9483 H   0  0  0  0  0  0  0  0  0  0  0  0
  1  3  1  0  0  0  0
  1  7  1  0  0  0  0
  1  2  2  0  0  0  0
 21 22  1  0  0  0  0
 22 24  1  0  0  0  0
 22 23  2  0  0  0  0
 32 33  1  0  0  0  0
 33 41  1  0  0  0  0
 33 34  2  0  0  0  0
  8  9  1  0  0  0  0
  9 17  1  0  0  0  0
  9 10  2  0  0  0  0
 18 19  1  0  0  0  0
 19 31  1  0  0  0  0
 19 20  2  0  0  0  0
 32 35  1  0  0  0  0
  8 11  1  0  0  0  0
 41 42  1  0  0  0  0
 18 21  1  0  0  0  0
 31 32  1  0  0  0  0
  7  8  1  0  0  0  0
 17 18  1  0  0  0  0
  3  4  1  0  0  0  0
  3  5  1  0  0  0  0
  3  6  1  0  0  0  0
 35 38  1  0  0  0  0
 35 39  1  0  0  0  0
 35 40  1  0  0  0  0
 11 14  1  0  0  0  0
 11 15  1  0  0  0  0
 11 16  1  0  0  0  0
 42 44  1  0  0  0  0
 42 45  1  0  0  0  0
 42 46  1  0  0  0  0
 21 27  1  0  0  0  0
 21 28  1  0  0  0  0
 32 37  1  0  0  0  0
  8 13  1  0  0  0  0
 18 26  1  0  0  0  0
 24 29  1  0  0  0  0
 24 30  1  0  0  0  0
 41 43  1  0  0  0  0
  7 12  1  0  0  0  0
 31 36  1  0  0  0  0
 17 25  1  0  0  0  0
M  END
$$$$

  -OEChem-05262214473D

 46 45  0     1  0  0  0  0  0999 V2000
   -0.0543    1.9736    3.8406 C   0  0  0  0  0  0  0  0  0  0  0  0
    0.6744    1.6099    4.7562 O   0  0  0  0  0  0  0  0  0  0  0  0
   -0.5599    3.3779    3.8160 C   0  0  0  0  0  0  0  0  0  0  0  0
   -1.5202    3.4885    4.3450 H   0  0  0  0  0  0  0  0  0  0  0  0
    0.1282    4.0814    4.3116 H   0  0  0  0  0  0  0  0  0  0  0  0
   -0.7317    3.7994    2.8126 H   0  0  0  0  0  0  0  0  0  0  0  0
   -0.4812    1.1968    2.7762 N   0  0  0  0  0  0  0  0  0  0  0  0
   -0.1106   -0.1834    2.6051 C   0  0  2  0  0  0  0  0  0  0  0  0
   -0.0696   -0.4775    1.1113 C   0  0  0  0  0  0  0  0  0  0  0  0
   -0.6805    0.1900    0.2792 O   0  0  0  0  0  0  0  0  0  0  0  0
   -1.0852   -1.1101    3.3150 C   0  0  0  0  0  0  0  0  0  0  0  0
   -1.0883    1.6241    2.0791 H   0  0  0  0  0  0  0  0  0  0  0  0
    0.8937   -0.2959    3.0277 H   0  0  0  0  0  0  0  0  0  0  0  0
   -2.0970   -1.0114    2.9051 H   0  0  0  0  0  0  0  0  0  0  0  0
   -0.7860   -2.1580    3.2078 H   0  0  0  0  0  0  0  0  0  0  0  0
   -1.1357   -0.8775    4.3842 H   0  0  0  0  0  0  0  0  0  0  0  0
    0.6950   -1.6003    0.8178 N   0  0  0  0  0  0  0  0  0  0  0  0
    0.8777   -2.0908   -0.5246 C   0  0  2  0  0  0  0  0  0  0  0  0
    1.8568   -1.1575   -1.2257 C   0  0  0  0  0  0  0  0  0  0  0  0
    1.5594   -0.4936   -2.2167 O   0  0  0  0  0  0  0  0  0  0  0  0
   -0.4437   -2.1591   -1.2906 C   0  0  0  0  0  0  0  0  0  0  0  0
   -1.3731   -3.2472   -0.7826 C   0  0  0  0  0  0  0  0  0  0  0  0
   -1.0052   -4.3759   -0.4706 O   0  0  0  0  0  0  0  0  0  0  0  0
   -2.6825   -2.8219   -0.7055 N   0  0  0  0  0  0  0  0  0  0  0  0
    1.1810   -2.0803    1.5718 H   0  0  0  0  0  0  0  0  0  0  0  0
    1.3341   -3.0835   -0.4350 H   0  0  0  0  0  0  0  0  0  0  0  0
   -0.9833   -1.2076   -1.2025 H   0  0  0  0  0  0  0  0  0  0  0  0
   -0.2605   -2.3287   -2.3595 H   0  0  0  0  0  0  0  0  0  0  0  0
   -2.9407   -1.8774   -0.9710 H   0  0  0  0  0  0  0  0  0  0  0  0
   -3.4318   -3.4269   -0.3848 H   0  0  0  0  0  0  0  0  0  0  0  0
    3.0880   -1.1130   -0.5868 N   0  0  0  0  0  0  0  0  0  0  0  0
    4.1652   -0.2757   -1.0573 C   0  0  2  0  0  0  0  0  0  0  0  0
    3.6670    1.1633   -1.0797 C   0  0  0  0  0  0  0  0  0  0  0  0
    2.4754    1.4598   -1.1379 O   0  0  0  0  0  0  0  0  0  0  0  0
    4.6403   -0.7078   -2.4358 C   0  0  0  0  0  0  0  0  0  0  0  0
    3.2454   -1.6771    0.2432 H   0  0  0  0  0  0  0  0  0  0  0  0
    4.9794   -0.3696   -0.3305 H   0  0  0  0  0  0  0  0  0  0  0  0
    3.8380   -0.6206   -3.1775 H   0  0  0  0  0  0  0  0  0  0  0  0
    5.4764   -0.0897   -2.7792 H   0  0  0  0  0  0  0  0  0  0  0  0
    4.9704   -1.7522   -2.4246 H   0  0  0  0  0  0  0  0  0  0  0  0
    4.7113    2.0774   -1.0705 N   0  0  0  0  0  0  0  0  0  0  0  0
    4.4977    3.5055   -1.1000 C   0  0  0  0  0  0  0  0  0  0  0  0
    5.6678    1.7426   -1.0021 H   0  0  0  0  0  0  0  0  0  0  0  0
    4.5135    3.8577   -2.1419 H   0  0  0  0  0  0  0  0  0  0  0  0
    3.5222    3.7396   -0.6487 H   0  0  0  0  0  0  0  0  0  0  0  0
    5.2946    4.0071   -0.5313 H   0  0  0  0  0  0  0  0  0  0  0  0
  1  3  1  0  0  0  0
  1  7  1  0  0  0  0
  1  2  2  0  0  0  0
 21 22  1  0  0  0  0
 22 24  1  0  0  0  0
 22 23  2  0  0  0  0
 32 33  1  0  0  0  0
 33 41  1  0  0  0  0
 33 34  2  0  0  0  0
  8  9  1  0  0  0  0
  9 17  1  0  0  0  0
  9 10  2  0  0  0  0
 18 19  1  0  0  0  0
 19 31  1  0  0  0  0
 19 20  2  0  0  0  0
 32 35  1  0  0  0  0
  8 11  1  0  0  0  0
 41 42  1  0  0  0  0
 18 21  1  0  0  0  0
 31 32  1  0  0  0  0
  7  8  1  0  0  0  0
 17 18  1  0  0  0  0
  3  4  1  0  0  0  0
  3  5  1  0  0  0  0
  3  6  1  0  0  0  0
 35 38  1  0  0  0  0
 35 39  1  0  0  0  0
 35 40  1  0  0  0  0
 11 14  1  0  0  0  0
 11 15  1  0  0  0  0
 11 16  1  0  0  0  0
 42 44  1  0  0  0  0
 42 45  1  0  0  0  0
 42 46  1  0  0  0  0
 21 27  1  0  0  0  0
 21 28  1  0  0  0  0
 32 37  1  0  0  0  0
  8 13  1  0  0  0  0
 18 26  1  0  0  0  0
 24 29  1  0  0  0  0
 24 30  1  0  0  0  0
 41 43  1  0  0  0  0
  7 12  1  0  0  0  0
 31 36  1  0  0  0  0
 17 25  1  0  0  0  0
M  END
$$$$

  -OEChem-05262214473D

 46 45  0     1  0  0  0  0  0999 V2000
   -0.0543    1.9736    3.8406 C   0  0  0  0  0  0  0  0  0  0  0  0
    0.6744    1.6099    4.7562 O   0  0  0  0  0  0  0  0  0  0  0  0
   -0.5599    3.3779    3.8160 C   0  0  0  0  0  0  0  0  0  0  0  0
   -1.5202    3.4885    4.3450 H   0  0  0  0  0  0  0  0  0  0  0  0
    0.1282    4.0814    4.3116 H   0  0  0  0  0  0  0  0  0  0  0  0
   -0.7317    3.7994    2.8126 H   0  0  0  0  0  0  0  0  0  0  0  0
   -0.4812    1.1968    2.7762 N   0  0  0  0  0  0  0  0  0  0  0  0
   -0.1106   -0.1834    2.6051 C   0  0  2  0  0  0  0  0  0  0  0  0
   -0.0696   -0.4775    1.1113 C   0  0  0  0  0  0  0  0  0  0  0  0
   -0.6805    0.1900    0.2792 O   0  0  0  0  0  0  0  0  0  0  0  0
   -1.0852   -1.1101    3.3150 C   0  0  0  0  0  0  0  0  0  0  0  0
   -1.0883    1.6241    2.0791 H   0  0  0  0  0  0  0  0  0  0  0  0
    0.8937   -0.2959    3.0277 H   0  0  0  0  0  0  0  0  0  0  0  0
   -2.0970   -1.0114    2.9051 H   0  0  0  0  0  0  0  0  0  0  0  0
   -0.7860   -2.1580    3.2078 H   0  0  0  0  0  0  0  0  0  0  0  0
   -1.1357   -0.8775    4.3842 H   0  0  0  0  0  0  0  0  0  0  0  0
    0.6950   -1.6003    0.8178 N   0  0  0  0  0  0  0  0  0  0  0  0
    0.8777   -2.0908   -0.5246 C   0  0  2  0  0  0  0  0  0  0  0  0
    1.8568   -1.1575   -1.2257 C   0  0  0  0  0  0  0  0  0  0  0  0
    1.5062   -0.3020   -2.0359 O   0  0  0  0  0  0  0  0  0  0  0  0
   -0.4437   -2.1591   -1.2906 C   0  0  0  0  0  0  0  0  0  0  0  0
   -1.3731   -3.2472   -0.7826 C   0  0  0  0  0  0  0  0  0  0  0  0
   -1.0052   -4.3759   -0.4706 O   0  0  0  0  0  0  0  0  0  0  0  0
   -2.6825   -2.8219   -0.7055 N   0  0  0  0  0  0  0  0  0  0  0  0
    1.1810   -2.0803    1.5718 H   0  0  0  0  0  0  0  0  0  0  0  0
    1.3341   -3.0835   -0.4350 H   0  0  0  0  0  0  0  0  0  0  0  0
   -0.9833   -1.2076   -1.2025 H   0  0  0  0  0  0  0  0  0  0  0  0
   -0.2605   -2.3287   -2.3595 H   0  0  0  0  0  0  0  0  0  0  0  0
   -2.9407   -1.8774   -0.9710 H   0  0  0  0  0  0  0  0  0  0  0  0
   -3.4318   -3.4269   -0.3848 H   0  0  0  0  0  0  0  0  0  0  0  0
    3.1641   -1.3565   -0.8046 N   0  0  0  0  0  0  0  0  0  0  0  0
    4.2609   -0.5680   -1.3129 C   0  0  2  0  0  0  0  0  0  0  0  0
    3.9600    0.8969   -1.0251 C   0  0  0  0  0  0  0  0  0  0  0  0
    2.8229    1.3233   -0.8343 O   0  0  0  0  0  0  0  0  0  0  0  0
    4.4646   -0.7987   -2.8022 C   0  0  0  0  0  0  0  0  0  0  0  0
    3.3669   -2.0712   -0.1118 H   0  0  0  0  0  0  0  0  0  0  0  0
    5.1543   -0.8739   -0.7576 H   0  0  0  0  0  0  0  0  0  0  0  0
    3.5797   -0.4980   -3.3750 H   0  0  0  0  0  0  0  0  0  0  0  0
    5.3149   -0.2216   -3.1804 H   0  0  0  0  0  0  0  0  0  0  0  0
    4.6514   -1.8577   -3.0106 H   0  0  0  0  0  0  0  0  0  0  0  0
    5.1059    1.6796   -1.0490 N   0  0  0  0  0  0  0  0  0  0  0  0
    5.0814    3.1050   -0.8178 C   0  0  0  0  0  0  0  0  0  0  0  0
    6.0091    1.2387   -1.1962 H   0  0  0  0  0  0  0  0  0  0  0  0
    4.9889    3.6314   -1.7793 H   0  0  0  0  0  0  0  0  0  0  0  0
    4.2235    3.3578   -0.1775 H   0  0  0  0  0  0  0  0  0  0  0  0
    6.0133    3.4117   -0.3202 H   0  0  0  0  0  0  0  0  0  0  0  0
  1  3  1  0  0  0  0
  1  7  1  0  0  0  0
  1  2  2  0  0  0  0
 21 22  1  0  0  0  0
 22 24  1  0  0  0  0
 22 23  2  0  0  0  0
 32 33  1  0  0  0  0
 33 41  1  0  0  0  0
 33 34  2  0  0  0  0
  8  9  1  0  0  0  0
  9 17  1  0  0  0  0
  9 10  2  0  0  0  0
 18 19  1  0  0  0  0
 19 31  1  0  0  0  0
 19 20  2  0  0  0  0
 32 35  1  0  0  0  0
  8 11  1  0  0  0  0
 41 42  1  0  0  0  0
 18 21  1  0  0  0  0
 31 32  1  0  0  0  0
  7  8  1  0  0  0  0
 17 18  1  0  0  0  0
  3  4  1  0  0  0  0
  3  5  1  0  0  0  0
  3  6  1  0  0  0  0
 35 38  1  0  0  0  0
 35 39  1  0  0  0  0
 35 40  1  0  0  0  0
 11 14  1  0  0  0  0
 11 15  1  0  0  0  0
 11 16  1  0  0  0  0
 42 44  1  0  0  0  0
 42 45  1  0  0  0  0
 42 46  1  0  0  0  0
 21 27  1  0  0  0  0
 21 28  1  0  0  0  0
 32 37  1  0  0  0  0
  8 13  1  0  0  0  0
 18 26  1  0  0  0  0
 24 29  1  0  0  0  0
 24 30  1  0  0  0  0
 41 43  1  0  0  0  0
  7 12  1  0  0  0  0
 31 36  1  0  0  0  0
 17 25  1  0  0  0  0
M  END
$$$$

  -OEChem-05262214473D

 46 45  0     1  0  0  0  0  0999 V2000
   -0.0543    1.9736    3.8406 C   0  0  0  0  0  0  0  0  0  0  0  0
    0.6744    1.6099    4.7562 O   0  0  0  0  0  0  0  0  0  0  0  0
   -0.5599    3.3779    3.8160 C   0  0  0  0  0  0  0  0  0  0  0  0
   -1.5202    3.4885    4.3450 H   0  0  0  0  0  0  0  0  0  0  0  0
    0.1282    4.0814    4.3116 H   0  0  0  0  0  0  0  0  0  0  0  0
   -0.7317    3.7994    2.8126 H   0  0  0  0  0  0  0  0  0  0  0  0
   -0.4812    1.1968    2.7762 N   0  0  0  0  0  0  0  0  0  0  0  0
   -0.1106   -0.1834    2.6051 C   0  0  2  0  0  0  0  0  0  0  0  0
   -0.0696   -0.4775    1.1113 C   0  0  0  0  0  0  0  0  0  0  0  0
   -0.6805    0.1900    0.2792 O   0  0  0  0  0  0  0  0  0  0  0  0
   -1.0852   -1.1101    3.3150 C   0  0  0  0  0  0  0  0  0  0  0  0
   -1.0883    1.6241    2.0791 H   0  0  0  0  0  0  0  0  0  0  0  0
    0.8937   -0.2959    3.0277 H   0  0  0  0  0  0  0  0  0  0  0  0
   -2.0970   -1.0114    2.9051 H   0  0  0  0  0  0  0  0  0  0  0  0
   -0.7860   -2.1580    3.2078 H   0  0  0  0  0  0  0  0  0  0  0  0
   -1.1357   -0.8775    4.3842 H   0  0  0  0  0  0  0  0  0  0  0  0
    0.6950   -1.6003    0.8178 N   0  0  0  0  0  0  0  0  0  0  0  0
    0.8777   -2.0908   -0.5246 C   0  0  2  0  0  0  0  0  0  0  0  0
    1.8568   -1.1575   -1.2257 C   0  0  0  0  0  0  0  0  0  0  0  0
    1.5063   -0.1406   -1.8209 O   0  0  0  0  0  0  0  0  0  0  0  0
   -0.4437   -2.1591   -1.2906 C   0  0  0  0  0  0  0  0  0  0  0  0
   -1.3731   -3.2472   -0.7826 C   0  0  0  0  0  0  0  0  0  0  0  0
   -1.0052   -4.3759   -0.4706 O   0  0  0  0  0  0  0  0  0  0  0  0
   -2.6825   -2.8219   -0.7055 N   0  0  0  0  0  0  0  0  0  0  0  0
    1.1810   -2.0803    1.5718 H   0  0  0  0  0  0  0  0  0  0  0  0
    1.3341   -3.0835   -0.4350 H   0  0  0  0  0  0  0  0  0  0  0  0
   -0.9833   -1.2076   -1.2025 H   0  0  0  0  0  0  0  0  0  0  0  0
   -0.2605   -2.3287   -2.3595 H   0  0  0  0  0  0  0  0  0  0  0  0
   -2.9407   -1.8774   -0.9710 H   0  0  0  0  0  0  0  0  0  0  0  0
   -3.4318   -3.4269   -0.3848 H   0  0  0  0  0  0  0  0  0  0  0  0
    3.1741   -1.5645   -1.0675 N   0  0  0  0  0  0  0  0  0  0  0  0
    4.2780   -0.8193   -1.6235 C   0  0  2  0  0  0  0  0  0  0  0  0
    4.2200    0.5956   -1.0631 C   0  0  0  0  0  0  0  0  0  0  0  0
    3.1904    1.0995   -0.6189 O   0  0  0  0  0  0  0  0  0  0  0  0
    4.2259   -0.8045   -3.1433 C   0  0  0  0  0  0  0  0  0  0  0  0
    3.3810   -2.4073   -0.5396 H   0  0  0  0  0  0  0  0  0  0  0  0
    5.1954   -1.3108   -1.2818 H   0  0  0  0  0  0  0  0  0  0  0  0
    3.3136   -0.3160   -3.5044 H   0  0  0  0  0  0  0  0  0  0  0  0
    5.0795   -0.2631   -3.5643 H   0  0  0  0  0  0  0  0  0  0  0  0
    4.2377   -1.8241   -3.5436 H   0  0  0  0  0  0  0  0  0  0  0  0
    5.4431    1.2447   -1.1569 N   0  0  0  0  0  0  0  0  0  0  0  0
    5.6423    2.6017   -0.7045 C   0  0  0  0  0  0  0  0  0  0  0  0
    6.2479    0.7437   -1.5216 H   0  0  0  0  0  0  0  0  0  0  0  0
    5.4787    3.2958   -1.5420 H   0  0  0  0  0  0  0  0  0  0  0  0
    4.9301    2.8272    0.1030 H   0  0  0  0  0  0  0  0  0  0  0  0
    6.6701    2.7159   -0.3293 H   0  0  0  0  0  0  0  0  0  0  0  0
  1  3  1  0  0  0  0
  1  7  1  0  0  0  0
  1  2  2  0  0  0  0
 21 22  1  0  0  0  0
 22 24  1  0  0  0  0
 22 23  2  0  0  0  0
 32 33  1  0  0  0  0
 33 41  1  0  0  0  0
 33 34  2  0  0  0  0
  8  9  1  0  0  0  0
  9 17  1  0  0  0  0
  9 10  2  0  0  0  0
 18 19  1  0  0  0  0
 19 31  1  0  0  0  0
 19 20  2  0  0  0  0
 32 35  1  0  0  0  0
  8 11  1  0  0  0  0
 41 42  1  0  0  0  0
 18 21  1  0  0  0  0
 31 32  1  0  0  0  0
  7  8  1  0  0  0  0
 17 18  1  0  0  0  0
  3  4  1  0  0  0  0
  3  5  1  0  0  0  0
  3  6  1  0  0  0  0
 35 38  1  0  0  0  0
 35 39  1  0  0  0  0
 35 40  1  0  0  0  0
 11 14  1  0  0  0  0
 11 15  1  0  0  0  0
 11 16  1  0  0  0  0
 42 44  1  0  0  0  0
 42 45  1  0  0  0  0
 42 46  1  0  0  0  0
 21 27  1  0  0  0  0
 21 28  1  0  0  0  0
 32 37  1  0  0  0  0
  8 13  1  0  0  0  0
 18 26  1  0  0  0  0
 24 29  1  0  0  0  0
 24 30  1  0  0  0  0
 41 43  1  0  0  0  0
  7 12  1  0  0  0  0
 31 36  1  0  0  0  0
 17 25  1  0  0  0  0
M  END
$$$$

  -OEChem-05262214473D

 46 45  0     1  0  0  0  0  0999 V2000
   -0.0543    1.9736    3.8406 C   0  0  0  0  0  0  0  0  0  0  0  0
    0.6744    1.6099    4.7562 O   0  0  0  0  0  0  0  0  0  0  0  0
   -0.5599    3.3779    3.8160 C   0  0  0  0  0  0  0  0  0  0  0  0
   -1.5202    3.4885    4.3450 H   0  0  0  0  0  0  0  0  0  0  0  0
    0.1282    4.0814    4.3116 H   0  0  0  0  0  0  0  0  0  0  0  0
   -0.7317    3.7994    2.8126 H   0  0  0  0  0  0  0  0  0  0  0  0
   -0.4812    1.1968    2.7762 N   0  0  0  0  0  0  0  0  0  0  0  0
   -0.1106   -0.1834    2.6051 C   0  0  2  0  0  0  0  0  0  0  0  0
   -0.0696   -0.4775    1.1113 C   0  0  0  0  0  0  0  0  0  0  0  0
   -0.6805    0.1900    0.2792 O   0  0  0  0  0  0  0  0  0  0  0  0
   -1.0852   -1.1101    3.3150 C   0  0  0  0  0  0  0  0  0  0  0  0
   -1.0883    1.6241    2.0791 H   0  0  0  0  0  0  0  0  0  0  0  0
    0.8937   -0.2959    3.0277 H   0  0  0  0  0  0  0  0  0  0  0  0
   -2.0970   -1.0114    2.9051 H   0  0  0  0  0  0  0  0  0  0  0  0
   -0.7860   -2.1580    3.2078 H   0  0  0  0  0  0  0  0  0  0  0  0
   -1.1357   -0.8775    4.3842 H   0  0  0  0  0  0  0  0  0  0  0  0
    0.6950   -1.6003    0.8178 N   0  0  0  0  0  0  0  0  0  0  0  0
    0.8777   -2.0908   -0.5246 C   0  0  2  0  0  0  0  0  0  0  0  0
    1.8568   -1.1575   -1.2257 C   0  0  0  0  0  0  0  0  0  0  0  0
    1.5597   -0.0204   -1.5865 O   0  0  0  0  0  0  0  0  0  0  0  0
   -0.4437   -2.1591   -1.2906 C   0  0  0  0  0  0  0  0  0  0  0  0
   -1.3731   -3.2472   -0.7826 C   0  0  0  0  0  0  0  0  0  0  0  0
   -1.0052   -4.3759   -0.4706 O   0  0  0  0  0  0  0  0  0  0  0  0
   -2.6825   -2.8219   -0.7055 N   0  0  0  0  0  0  0  0  0  0  0  0
    1.1810   -2.0803    1.5718 H   0  0  0  0  0  0  0  0  0  0  0  0
    1.3341   -3.0835   -0.4350 H   0  0  0  0  0  0  0  0  0  0  0  0
   -0.9833   -1.2076   -1.2025 H   0  0  0  0  0  0  0  0  0  0  0  0
   -0.2605   -2.3287   -2.3595 H   0  0  0  0  0  0  0  0  0  0  0  0
   -2.9407   -1.8774   -0.9710 H   0  0  0  0  0  0  0  0  0  0  0  0
   -3.4318   -3.4269   -0.3848 H   0  0  0  0  0  0  0  0  0  0  0  0
    3.1173   -1.7229   -1.3577 N   0  0  0  0  0  0  0  0  0  0  0  0
    4.2153   -1.0124   -1.9681 C   0  0  2  0  0  0  0  0  0  0  0  0
    4.4291    0.2800   -1.1912 C   0  0  0  0  0  0  0  0  0  0  0  0
    3.5529    0.8038   -0.5064 O   0  0  0  0  0  0  0  0  0  0  0  0
    3.9406   -0.7250   -3.4360 C   0  0  0  0  0  0  0  0  0  0  0  0
    3.2867   -2.6625   -1.0109 H   0  0  0  0  0  0  0  0  0  0  0  0
    5.1000   -1.6505   -1.8673 H   0  0  0  0  0  0  0  0  0  0  0  0
    3.0576   -0.0869   -3.5570 H   0  0  0  0  0  0  0  0  0  0  0  0
    4.7864   -0.2113   -3.9048 H   0  0  0  0  0  0  0  0  0  0  0  0
    3.7576   -1.6537   -3.9873 H   0  0  0  0  0  0  0  0  0  0  0  0
    5.6999    0.8024   -1.3870 N   0  0  0  0  0  0  0  0  0  0  0  0
    6.1421    2.0299   -0.7676 C   0  0  0  0  0  0  0  0  0  0  0  0
    6.3681    0.2912   -1.9561 H   0  0  0  0  0  0  0  0  0  0  0  0
    5.9494    2.8739   -1.4462 H   0  0  0  0  0  0  0  0  0  0  0  0
    5.5939    2.1838    0.1736 H   0  0  0  0  0  0  0  0  0  0  0  0
    7.2201    1.9670   -0.5579 H   0  0  0  0  0  0  0  0  0  0  0  0
  1  3  1  0  0  0  0
  1  7  1  0  0  0  0
  1  2  2  0  0  0  0
 21 22  1  0  0  0  0
 22 24  1  0  0  0  0
 22 23  2  0  0  0  0
 32 33  1  0  0  0  0
 33 41  1  0  0  0  0
 33 34  2  0  0  0  0
  8  9  1  0  0  0  0
  9 17  1  0  0  0  0
  9 10  2  0  0  0  0
 18 19  1  0  0  0  0
 19 31  1  0  0  0  0
 19 20  2  0  0  0  0
 32 35  1  0  0  0  0
  8 11  1  0  0  0  0
 41 42  1  0  0  0  0
 18 21  1  0  0  0  0
 31 32  1  0  0  0  0
  7  8  1  0  0  0  0
 17 18  1  0  0  0  0
  3  4  1  0  0  0  0
  3  5  1  0  0  0  0
  3  6  1  0  0  0  0
 35 38  1  0  0  0  0
 35 39  1  0  0  0  0
 35 40  1  0  0  0  0
 11 14  1  0  0  0  0
 11 15  1  0  0  0  0
 11 16  1  0  0  0  0
 42 44  1  0  0  0  0
 42 45  1  0  0  0  0
 42 46  1  0  0  0  0
 21 27  1  0  0  0  0
 21 28  1  0  0  0  0
 32 37  1  0  0  0  0
  8 13  1  0  0  0  0
 18 26  1  0  0  0  0
 24 29  1  0  0  0  0
 24 30  1  0  0  0  0
 41 43  1  0  0  0  0
  7 12  1  0  0  0  0
 31 36  1  0  0  0  0
 17 25  1  0  0  0  0
M  END
$$$$

  -OEChem-05262214473D

 46 45  0     1  0  0  0  0  0999 V2000
   -0.0543    1.9736    3.8406 C   0  0  0  0  0  0  0  0  0  0  0  0
    0.6744    1.6099    4.7562 O   0  0  0  0  0  0  0  0  0  0  0  0
   -0.5599    3.3779    3.8160 C   0  0  0  0  0  0  0  0  0  0  0  0
   -1.5202    3.4885    4.3450 H   0  0  0  0  0  0  0  0  0  0  0  0
    0.1282    4.0814    4.3116 H   0  0  0  0  0  0  0  0  0  0  0  0
   -0.7317    3.7994    2.8126 H   0  0  0  0  0  0  0  0  0  0  0  0
   -0.4812    1.1968    2.7762 N   0  0  0  0  0  0  0  0  0  0  0  0
   -0.1106   -0.1834    2.6051 C   0  0  2  0  0  0  0  0  0  0  0  0
   -0.0696   -0.4775    1.1113 C   0  0  0  0  0  0  0  0  0  0  0  0
   -0.6805    0.1900    0.2792 O   0  0  0  0  0  0  0  0  0  0  0  0
   -1.0852   -1.1101    3.3150 C   0  0  0  0  0  0  0  0  0  0  0  0
   -1.0883    1.6241    2.0791 H   0  0  0  0  0  0  0  0  0  0  0  0
    0.8937   -0.2959    3.0277 H   0  0  0  0  0  0  0  0  0  0  0  0
   -2.0970   -1.0114    2.9051 H   0  0  0  0  0  0  0  0  0  0  0  0
   -0.7860   -2.1580    3.2078 H   0  0  0  0  0  0  0  0  0  0  0  0
   -1.1357   -0.8775    4.3842 H   0  0  0  0  0  0  0  0  0  0  0  0
    0.6950   -1.6003    0.8178 N   0  0  0  0  0  0  0  0  0  0  0  0
    0.8777   -2.0908   -0.5246 C   0  0  2  0  0  0  0  0  0  0  0  0
    1.8568   -1.1575   -1.2257 C   0  0  0  0  0  0  0  0  0  0  0  0
    1.6627    0.0502   -1.3485 O   0  0  0  0  0  0  0  0  0  0  0  0
   -0.4437   -2.1591   -1.2906 C   0  0  0  0  0  0  0  0  0  0  0  0
   -1.3731   -3.2472   -0.7826 C   0  0  0  0  0  0  0  0  0  0  0  0
   -1.0052   -4.3759   -0.4706 O   0  0  0  0  0  0  0  0  0  0  0  0
   -2.6825   -2.8219   -0.7055 N   0  0  0  0  0  0  0  0  0  0  0  0
    1.1810   -2.0803    1.5718 H   0  0  0  0  0  0  0  0  0  0  0  0
    1.3341   -3.0835   -0.4350 H   0  0  0  0  0  0  0  0  0  0  0  0
   -0.9833   -1.2076   -1.2025 H   0  0  0  0  0  0  0  0  0  0  0  0
   -0.2605   -2.3287   -2.3595 H   0  0  0  0  0  0  0  0  0  0  0  0
   -2.9407   -1.8774   -0.9710 H   0  0  0  0  0  0  0  0  0  0  0  0
   -3.4318   -3.4269   -0.3848 H   0  0  0  0  0  0  0  0  0  0  0  0
    2.9976   -1.8209   -1.6553 N   0  0  0  0  0  0  0  0  0  0  0  0
    4.0771   -1.1341   -2.3231 C   0  0  2  0  0  0  0  0  0  0  0  0
    4.5733   -0.0286   -1.4006 C   0  0  0  0  0  0  0  0  0  0  0  0
    3.8857    0.4562   -0.5043 O   0  0  0  0  0  0  0  0  0  0  0  0
    3.6281   -0.5656   -3.6602 C   0  0  0  0  0  0  0  0  0  0  0  0
    3.0906   -2.8194   -1.4936 H   0  0  0  0  0  0  0  0  0  0  0  0
    4.8746   -1.8699   -2.4742 H   0  0  0  0  0  0  0  0  0  0  0  0
    2.8293    0.1735   -3.5291 H   0  0  0  0  0  0  0  0  0  0  0  0
    4.4554   -0.0697   -4.1785 H   0  0  0  0  0  0  0  0  0  0  0  0
    3.2438   -1.3581   -4.3114 H   0  0  0  0  0  0  0  0  0  0  0  0
    5.8588    0.3829   -1.7235 N   0  0  0  0  0  0  0  0  0  0  0  0
    6.5468    1.4286   -1.0029 C   0  0  0  0  0  0  0  0  0  0  0  0
    6.3614   -0.0879   -2.4702 H   0  0  0  0  0  0  0  0  0  0  0  0
    6.3690    2.3943   -1.4986 H   0  0  0  0  0  0  0  0  0  0  0  0
    6.1697    1.4715    0.0295 H   0  0  0  0  0  0  0  0  0  0  0  0
    7.6261    1.2162   -0.9905 H   0  0  0  0  0  0  0  0  0  0  0  0
  1  3  1  0  0  0  0
  1  7  1  0  0  0  0
  1  2  2  0  0  0  0
 21 22  1  0  0  0  0
 22 24  1  0  0  0  0
 22 23  2  0  0  0  0
 32 33  1  0  0  0  0
 33 41  1  0  0  0  0
 33 34  2  0  0  0  0
  8  9  1  0  0  0  0
  9 17  1  0  0  0  0
  9 10  2  0  0  0  0
 18 19  1  0  0  0  0
 19 31  1  0  0  0  0
 19 20  2  0  0  0  0
 32 35  1  0  0  0  0
  8 11  1  0  0  0  0
 41 42  1  0  0  0  0
 18 21  1  0  0  0  0
 31 32  1  0  0  0  0
  7  8  1  0  0  0  0
 17 18  1  0  0  0  0
  3  4  1  0  0  0  0
  3  5  1  0  0  0  0
  3  6  1  0  0  0  0
 35 38  1  0  0  0  0
 35 39  1  0  0  0  0
 35 40  1  0  0  0  0
 11 14  1  0  0  0  0
 11 15  1  0  0  0  0
 11 16  1  0  0  0  0
 42 44  1  0  0  0  0
 42 45  1  0  0  0  0
 42 46  1  0  0  0  0
 21 27  1  0  0  0  0
 21 28  1  0  0  0  0
 32 37  1  0  0  0  0
  8 13  1  0  0  0  0
 18 26  1  0  0  0  0
 24 29  1  0  0  0  0
 24 30  1  0  0  0  0
 41 43  1  0  0  0  0
  7 12  1  0  0  0  0
 31 36  1  0  0  0  0
 17 25  1  0  0  0  0
M  END
$$$$

  -OEChem-05262214473D

 46 45  0     1  0  0  0  0  0999 V2000
   -0.0543    1.9736    3.8406 C   0  0  0  0  0  0  0  0  0  0  0  0
    0.6744    1.6099    4.7562 O   0  0  0  0  0  0  0  0  0  0  0  0
   -0.5599    3.3779    3.8160 C   0  0  0  0  0  0  0  0  0  0  0  0
   -1.5202    3.4885    4.3450 H   0  0  0  0  0  0  0  0  0  0  0  0
    0.1282    4.0814    4.3116 H   0  0  0  0  0  0  0  0  0  0  0  0
   -0.7317    3.7994    2.8126 H   0  0  0  0  0  0  0  0  0  0  0  0
   -0.4812    1.1968    2.7762 N   0  0  0  0  0  0  0  0  0  0  0  0
   -0.1106   -0.1834    2.6051 C   0  0  2  0  0  0  0  0  0  0  0  0
   -0.0696   -0.4775    1.1113 C   0  0  0  0  0  0  0  0  0  0  0  0
   -0.6805    0.1900    0.2792 O   0  0  0  0  0  0  0  0  0  0  0  0
   -1.0852   -1.1101    3.3150 C   0  0  0  0  0  0  0  0  0  0  0  0
   -1.0883    1.6241    2.0791 H   0  0  0  0  0  0  0  0  0  0  0  0
    0.8937   -0.2959    3.0277 H   0  0  0  0  0  0  0  0  0  0  0  0
   -2.0970   -1.0114    2.9051 H   0  0  0  0  0  0  0  0  0  0  0  0
   -0.7860   -2.1580    3.2078 H   0  0  0  0  0  0  0  0  0  0  0  0
   -1.1357   -0.8775    4.3842 H   0  0  0  0  0  0  0  0  0  0  0  0
    0.6950   -1.6003    0.8178 N   0  0  0  0  0  0  0  0  0  0  0  0
    0.8777   -2.0908   -0.5246 C   0  0  2  0  0  0  0  0  0  0  0  0
    1.8568   -1.1575   -1.2257 C   0  0  0  0  0  0  0  0  0  0  0  0
    1.8084    0.0666   -1.1231 O   0  0  0  0  0  0  0  0  0  0  0  0
   -0.4437   -2.1591   -1.2906 C   0  0  0  0  0  0  0  0  0  0  0  0
   -1.3731   -3.2472   -0.7826 C   0  0  0  0  0  0  0  0  0  0  0  0
   -1.0052   -4.3759   -0.4706 O   0  0  0  0  0  0  0  0  0  0  0  0
   -2.6825   -2.8219   -0.7055 N   0  0  0  0  0  0  0  0  0  0  0  0
    1.1810   -2.0803    1.5718 H   0  0  0  0  0  0  0  0  0  0  0  0
    1.3341   -3.0835   -0.4350 H   0  0  0  0  0  0  0  0  0  0  0  0
   -0.9833   -1.2076   -1.2025 H   0  0  0  0  0  0  0  0  0  0  0  0
   -0.2605   -2.3287   -2.3595 H   0  0  0  0  0  0  0  0  0  0  0  0
   -2.9407   -1.8774   -0.9710 H   0  0  0  0  0  0  0  0  0  0  0  0
   -3.4318   -3.4269   -0.3848 H   0  0  0  0  0  0  0  0  0  0  0  0
    2.8231   -1.8517   -1.9400 N   0  0  0  0  0  0  0  0  0  0  0  0
    3.8729   -1.1762   -2.6644 C   0  0  2  0  0  0  0  0  0  0  0  0
    4.6426   -0.3089   -1.6770 C   0  0  0  0  0  0  0  0  0  0  0  0
    4.1661    0.0805   -0.6129 O   0  0  0  0  0  0  0  0  0  0  0  0
    3.3096   -0.3371   -3.8007 C   0  0  0  0  0  0  0  0  0  0  0  0
    2.8059   -2.8672   -1.9549 H   0  0  0  0  0  0  0  0  0  0  0  0
    4.5344   -1.9540   -3.0611 H   0  0  0  0  0  0  0  0  0  0  0  0
    2.6443    0.4477   -3.4226 H   0  0  0  0  0  0  0  0  0  0  0  0
    4.1092    0.1520   -4.3669 H   0  0  0  0  0  0  0  0  0  0  0  0
    2.7314   -0.9576   -4.4938 H   0  0  0  0  0  0  0  0  0  0  0  0
    5.9090    0.0148   -2.1435 N   0  0  0  0  0  0  0  0  0  0  0  0
    6.8288    0.8387   -1.3944 C   0  0  0  0  0  0  0  0  0  0  0  0
    6.2283   -0.3678   -3.0287 H   0  0  0  0  0  0  0  0  0  0  0  0
    6.7089    1.8899   -1.6954 H   0  0  0  0  0  0  0  0  0  0  0  0
    6.6182    0.7389   -0.3194 H   0  0  0  0  0  0  0  0  0  0  0  0
    7.8601    0.5145   -1.5976 H   0  0  0  0  0  0  0  0  0  0  0  0
  1  3  1  0  0  0  0
  1  7  1  0  0  0  0
  1  2  2  0  0  0  0
 21 22  1  0  0  0  0
 22 24  1  0  0  0  0
 22 23  2  0  0  0  0
 32 33  1  0  0  0  0
 33 41  1  0  0  0  0
 33 34  2  0  0  0  0
  8  9  1  0  0  0  0
  9 17  1  0  0  0  0
  9 10  2  0  0  0  0
 18 19  1  0  0  0  0
 19 31  1  0  0  0  0
 19 20  2  0  0  0  0
 32 35  1  0  0  0  0
  8 11  1  0  0  0  0
 41 42  1  0  0  0  0
 18 21  1  0  0  0  0
 31 32  1  0  0  0  0
  7  8  1  0  0  0  0
 17 18  1  0  0  0  0
  3  4  1  0  0  0  0
  3  5  1  0  0  0  0
  3  6  1  0  0  0  0
 35 38  1  0  0  0  0
 35 39  1  0  0  0  0
 35 40  1  0  0  0  0
 11 14  1  0  0  0  0
 11 15  1  0  0  0  0
 11 16  1  0  0  0  0
 42 44  1  0  0  0  0
 42 45  1  0  0  0  0
 42 46  1  0  0  0  0
 21 27  1  0  0  0  0
 21 28  1  0  0  0  0
 32 37  1  0  0  0  0
  8 13  1  0  0  0  0
 18 26  1  0  0  0  0
 24 29  1  0  0  0  0
 24 30  1  0  0  0  0
 41 43  1  0  0  0  0
  7 12  1  0  0  0  0
 31 36  1  0  0  0  0
 17 25  1  0  0  0  0
M  END
$$$$

  -OEChem-05262214473D

 46 45  0     1  0  0  0  0  0999 V2000
   -0.0543    1.9736    3.8406 C   0  0  0  0  0  0  0  0  0  0  0  0
    0.6744    1.6099    4.7562 O   0  0  0  0  0  0  0  0  0  0  0  0
   -0.5599    3.3779    3.8160 C   0  0  0  0  0  0  0  0  0  0  0  0
   -1.5202    3.4885    4.3450 H   0  0  0  0  0  0  0  0  0  0  0  0
    0.1282    4.0814    4.3116 H   0  0  0  0  0  0  0  0  0  0  0  0
   -0.7317    3.7994    2.8126 H   0  0  0  0  0  0  0  0  0  0  0  0
   -0.4812    1.1968    2.7762 N   0  0  0  0  0  0  0  0  0  0  0  0
   -0.1106   -0.1834    2.6051 C   0  0  2  0  0  0  0  0  0  0  0  0
   -0.0696   -0.4775    1.1113 C   0  0  0  0  0  0  0  0  0  0  0  0
   -0.6805    0.1900    0.2792 O   0  0  0  0  0  0  0  0  0  0  0  0
   -1.0852   -1.1101    3.3150 C   0  0  0  0  0  0  0  0  0  0  0  0
   -1.0883    1.6241    2.0791 H   0  0  0  0  0  0  0  0  0  0  0  0
    0.8937   -0.2959    3.0277 H   0  0  0  0  0  0  0  0  0  0  0  0
   -2.0970   -1.0114    2.9051 H   0  0  0  0  0  0  0  0  0  0  0  0
   -0.7860   -2.1580    3.2078 H   0  0  0  0  0  0  0  0  0  0  0  0
   -1.1357   -0.8775    4.3842 H   0  0  0  0  0  0  0  0  0  0  0  0
    0.6950   -1.6003    0.8178 N   0  0  0  0  0  0  0  0  0  0  0  0
    0.8777   -2.0908   -0.5246 C   0  0  2  0  0  0  0  0  0  0  0  0
    1.8568   -1.1575   -1.2257 C   0  0  0  0  0  0  0  0  0  0  0  0
    1.9868    0.0277   -0.9259 O   0  0  0  0  0  0  0  0  0  0  0  0
   -0.4437   -2.1591   -1.2906 C   0  0  0  0  0  0  0  0  0  0  0  0
   -1.3731   -3.2472   -0.7826 C   0  0  0  0  0  0  0  0  0  0  0  0
   -1.0052   -4.3759   -0.4706 O   0  0  0  0  0  0  0  0  0  0  0  0
   -2.6825   -2.8219   -0.7055 N   0  0  0  0  0  0  0  0  0  0  0  0
    1.1810   -2.0803    1.5718 H   0  0  0  0  0  0  0  0  0  0  0  0
    1.3341   -3.0835   -0.4350 H   0  0  0  0  0  0  0  0  0  0  0  0
   -0.9833   -1.2076   -1.2025 H   0  0  0  0  0  0  0  0  0  0  0  0
   -0.2605   -2.3287   -2.3595 H   0  0  0  0  0  0  0  0  0  0  0  0
   -2.9407   -1.8774   -0.9710 H   0  0  0  0  0  0  0  0  0  0  0  0
   -3.4318   -3.4269   -0.3848 H   0  0  0  0  0  0  0  0  0  0  0  0
    2.6057   -1.8134   -2.1926 N   0  0  0  0  0  0  0  0  0  0  0  0
    3.6165   -1.1358   -2.9686 C   0  0  2  0  0  0  0  0  0  0  0  0
    4.6323   -0.5420   -2.0016 C   0  0  0  0  0  0  0  0  0  0  0  0
    4.3749   -0.2977   -0.8247 O   0  0  0  0  0  0  0  0  0  0  0  0
    3.0070   -0.0550   -3.8479 C   0  0  0  0  0  0  0  0  0  0  0  0
    2.4521   -2.8028   -2.3634 H   0  0  0  0  0  0  0  0  0  0  0  0
    4.1028   -1.8971   -3.5882 H   0  0  0  0  0  0  0  0  0  0  0  0
    2.5151    0.7168   -3.2448 H   0  0  0  0  0  0  0  0  0  0  0  0
    3.7713    0.4387   -4.4571 H   0  0  0  0  0  0  0  0  0  0  0  0
    2.2552   -0.4792   -4.5222 H   0  0  0  0  0  0  0  0  0  0  0  0
    5.8470   -0.2769   -2.6184 N   0  0  0  0  0  0  0  0  0  0  0  0
    6.9688    0.3004   -1.9154 C   0  0  0  0  0  0  0  0  0  0  0  0
    5.9778   -0.5294   -3.5936 H   0  0  0  0  0  0  0  0  0  0  0  0
    6.9459    1.3948   -2.0234 H   0  0  0  0  0  0  0  0  0  0  0  0
    6.9088    0.0359   -0.8494 H   0  0  0  0  0  0  0  0  0  0  0  0
    7.9064   -0.0901   -2.3379 H   0  0  0  0  0  0  0  0  0  0  0  0
  1  3  1  0  0  0  0
  1  7  1  0  0  0  0
  1  2  2  0  0  0  0
 21 22  1  0  0  0  0
 22 24  1  0  0  0  0
 22 23  2  0  0  0  0
 32 33  1  0  0  0  0
 33 41  1  0  0  0  0
 33 34  2  0  0  0  0
  8  9  1  0  0  0  0
  9 17  1  0  0  0  0
  9 10  2  0  0  0  0
 18 19  1  0  0  0  0
 19 31  1  0  0  0  0
 19 20  2  0  0  0  0
 32 35  1  0  0  0  0
  8 11  1  0  0  0  0
 41 42  1  0  0  0  0
 18 21  1  0  0  0  0
 31 32  1  0  0  0  0
  7  8  1  0  0  0  0
 17 18  1  0  0  0  0
  3  4  1  0  0  0  0
  3  5  1  0  0  0  0
  3  6  1  0  0  0  0
 35 38  1  0  0  0  0
 35 39  1  0  0  0  0
 35 40  1  0  0  0  0
 11 14  1  0  0  0  0
 11 15  1  0  0  0  0
 11 16  1  0  0  0  0
 42 44  1  0  0  0  0
 42 45  1  0  0  0  0
 42 46  1  0  0  0  0
 21 27  1  0  0  0  0
 21 28  1  0  0  0  0
 32 37  1  0  0  0  0
  8 13  1  0  0  0  0
 18 26  1  0  0  0  0
 24 29  1  0  0  0  0
 24 30  1  0  0  0  0
 41 43  1  0  0  0  0
  7 12  1  0  0  0  0
 31 36  1  0  0  0  0
 17 25  1  0  0  0  0
M  END
$$$$

  -OEChem-05262214473D

 46 45  0     1  0  0  0  0  0999 V2000
   -0.0543    1.9736    3.8406 C   0  0  0  0  0  0  0  0  0  0  0  0
    0.6744    1.6099    4.7562 O   0  0  0  0  0  0  0  0  0  0  0  0
   -0.5599    3.3779    3.8160 C   0  0  0  0  0  0  0  0  0  0  0  0
   -1.5202    3.4885    4.3450 H   0  0  0  0  0  0  0  0  0  0  0  0
    0.1282    4.0814    4.3116 H   0  0  0  0  0  0  0  0  0  0  0  0
   -0.7317    3.7994    2.8126 H   0  0  0  0  0  0  0  0  0  0  0  0
   -0.4812    1.1968    2.7762 N   0  0  0  0  0  0  0  0  0  0  0  0
   -0.1106   -0.1834    2.6051 C   0  0  2  0  0  0  0  0  0  0  0  0
   -0.0696   -0.4775    1.1113 C   0  0  0  0  0  0  0  0  0  0  0  0
   -0.6805    0.1900    0.2792 O   0  0  0  0  0  0  0  0  0  0  0  0
   -1.0852   -1.1101    3.3150 C   0  0  0  0  0  0  0  0  0  0  0  0
   -1.0883    1.6241    2.0791 H   0  0  0  0  0  0  0  0  0  0  0  0
    0.8937   -0.2959    3.0277 H   0  0  0  0  0  0  0  0  0  0  0  0
   -2.0970   -1.0114    2.9051 H   0  0  0  0  0  0  0  0  0  0  0  0
   -0.7860   -2.1580    3.2078 H   0  0  0  0  0  0  0  0  0  0  0  0
   -1.1357   -0.8775    4.3842 H   0  0  0  0  0  0  0  0  0  0  0  0
    0.6950   -1.6003    0.8178 N   0  0  0  0  0  0  0  0  0  0  0  0
    0.8777   -2.0908   -0.5246 C   0  0  2  0  0  0  0  0  0  0  0  0
    1.8568   -1.1575   -1.2257 C   0  0  0  0  0  0  0  0  0  0  0  0
    2.1858   -0.0641   -0.7701 O   0  0  0  0  0  0  0  0  0  0  0  0
   -0.4437   -2.1591   -1.2906 C   0  0  0  0  0  0  0  0  0  0  0  0
   -1.3731   -3.2472   -0.7826 C   0  0  0  0  0  0  0  0  0  0  0  0
   -1.0052   -4.3759   -0.4706 O   0  0  0  0  0  0  0  0  0  0  0  0
   -2.6825   -2.8219   -0.7055 N   0  0  0  0  0  0  0  0  0  0  0  0
    1.1810   -2.0803    1.5718 H   0  0  0  0  0  0  0  0  0  0  0  0
    1.3341   -3.0835   -0.4350 H   0  0  0  0  0  0  0  0  0  0  0  0
   -0.9833   -1.2076   -1.2025 H   0  0  0  0  0  0  0  0  0  0  0  0
   -0.2605   -2.3287   -2.3595 H   0  0  0  0  0  0  0  0  0  0  0  0
   -2.9407   -1.8774   -0.9710 H   0  0  0  0  0  0  0  0  0  0  0  0
   -3.4318   -3.4269   -0.3848 H   0  0  0  0  0  0  0  0  0  0  0  0
    2.3602   -1.7085   -2.3957 N   0  0  0  0  0  0  0  0  0  0  0  0
    3.3254   -1.0155   -3.2151 C   0  0  2  0  0  0  0  0  0  0  0  0
    4.5432   -0.7119   -2.3523 C   0  0  0  0  0  0  0  0  0  0  0  0
    4.4980   -0.6527   -1.1253 O   0  0  0  0  0  0  0  0  0  0  0  0
    2.7408    0.2613   -3.7987 C   0  0  0  0  0  0  0  0  0  0  0  0
    2.0532   -2.6306   -2.6910 H   0  0  0  0  0  0  0  0  0  0  0  0
    3.6092   -1.7031   -4.0193 H   0  0  0  0  0  0  0  0  0  0  0  0
    2.4505    0.9625   -3.0078 H   0  0  0  0  0  0  0  0  0  0  0  0
    3.4648    0.7710   -4.4429 H   0  0  0  0  0  0  0  0  0  0  0  0
    1.8476    0.0442   -4.3945 H   0  0  0  0  0  0  0  0  0  0  0  0
    5.6771   -0.4723   -3.1158 N   0  0  0  0  0  0  0  0  0  0  0  0
    6.9573   -0.1496   -2.5304 C   0  0  0  0  0  0  0  0  0  0  0  0
    5.6271   -0.5617   -4.1264 H   0  0  0  0  0  0  0  0  0  0  0  0
    7.0639    0.9430   -2.4600 H   0  0  0  0  0  0  0  0  0  0  0  0
    7.0217   -0.5896   -1.5243 H   0  0  0  0  0  0  0  0  0  0  0  0
    7.7617   -0.5565   -3.1608 H   0  0  0  0  0  0  0  0  0  0  0  0
  1  3  1  0  0  0  0
  1  7  1  0  0  0  0
  1  2  2  0  0  0  0
 21 22  1  0  0  0  0
 22 24  1  0  0  0  0
 22 23  2  0  0  0  0
 32 33  1  0  0  0  0
 33 41  1  0  0  0  0
 33 34  2  0  0  0  0
  8  9  1  0  0  0  0
  9 17  1  0  0  0  0
  9 10  2  0  0  0  0
 18 19  1  0  0  0  0
 19 31  1  0  0  0  0
 19 20  2  0  0  0  0
 32 35  1  0  0  0  0
  8 11  1  0  0  0  0
 41 42  1  0  0  0  0
 18 21  1  0  0  0  0
 31 32  1  0  0  0  0
  7  8  1  0  0  0  0
 17 18  1  0  0  0  0
  3  4  1  0  0  0  0
  3  5  1  0  0  0  0
  3  6  1  0  0  0  0
 35 38  1  0  0  0  0
 35 39  1  0  0  0  0
 35 40  1  0  0  0  0
 11 14  1  0  0  0  0
 11 15  1  0  0  0  0
 11 16  1  0  0  0  0
 42 44  1  0  0  0  0
 42 45  1  0  0  0  0
 42 46  1  0  0  0  0
 21 27  1  0  0  0  0
 21 28  1  0  0  0  0
 32 37  1  0  0  0  0
  8 13  1  0  0  0  0
 18 26  1  0  0  0  0
 24 29  1  0  0  0  0
 24 30  1  0  0  0  0
 41 43  1  0  0  0  0
  7 12  1  0  0  0  0
 31 36  1  0  0  0  0
 17 25  1  0  0  0  0
M  END
$$$$

  -OEChem-05262214473D

 46 45  0     1  0  0  0  0  0999 V2000
   -0.0543    1.9736    3.8406 C   0  0  0  0  0  0  0  0  0  0  0  0
    0.6744    1.6099    4.7562 O   0  0  0  0  0  0  0  0  0  0  0  0
   -0.5599    3.3779    3.8160 C   0  0  0  0  0  0  0  0  0  0  0  0
   -1.5202    3.4885    4.3450 H   0  0  0  0  0  0  0  0  0  0  0  0
    0.1282    4.0814    4.3116 H   0  0  0  0  0  0  0  0  0  0  0  0
   -0.7317    3.7994    2.8126 H   0  0  0  0  0  0  0  0  0  0  0  0
   -0.4812    1.1968    2.7762 N   0  0  0  0  0  0  0  0  0  0  0  0
   -0.1106   -0.1834    2.6051 C   0  0  2  0  0  0  0  0  0  0  0  0
   -0.0696   -0.4775    1.1113 C   0  0  0  0  0  0  0  0  0  0  0  0
   -0.6805    0.1900    0.2792 O   0  0  0  0  0  0  0  0  0  0  0  0
   -1.0852   -1.1101    3.3150 C   0  0  0  0  0  0  0  0  0  0  0  0
   -1.0883    1.6241    2.0791 H   0  0  0  0  0  0  0  0  0  0  0  0
    0.8937   -0.2959    3.0277 H   0  0  0  0  0  0  0  0  0  0  0  0
   -2.0970   -1.0114    2.9051 H   0  0  0  0  0  0  0  0  0  0  0  0
   -0.7860   -2.1580    3.2078 H   0  0  0  0  0  0  0  0  0  0  0  0
   -1.1357   -0.8775    4.3842 H   0  0  0  0  0  0  0  0  0  0  0  0
    0.6950   -1.6003    0.8178 N   0  0  0  0  0  0  0  0  0  0  0  0
    0.8777   -2.0908   -0.5246 C   0  0  2  0  0  0  0  0  0  0  0  0
    2.1122   -1.4078   -1.0995 C   0  0  0  0  0  0  0  0  0  0  0  0
    2.8067   -0.6234   -0.4561 O   0  0  0  0  0  0  0  0  0  0  0  0
   -0.3451   -1.8196   -1.4013 C   0  0  0  0  0  0  0  0  0  0  0  0
   -1.5510   -2.6606   -1.0212 C   0  0  0  0  0  0  0  0  0  0  0  0
   -1.4947   -3.8514   -0.7289 O   0  0  0  0  0  0  0  0  0  0  0  0
   -2.7216   -1.9322   -1.0360 N   0  0  0  0  0  0  0  0  0  0  0  0
    1.1810   -2.0803    1.5718 H   0  0  0  0  0  0  0  0  0  0  0  0
    1.0726   -3.1663   -0.4403 H   0  0  0  0  0  0  0  0  0  0  0  0
   -0.6467   -0.7679   -1.3175 H   0  0  0  0  0  0  0  0  0  0  0  0
   -0.1103   -2.0051   -2.4573 H   0  0  0  0  0  0  0  0  0  0  0  0
   -2.7204   -0.9476   -1.2808 H   0  0  0  0  0  0  0  0  0  0  0  0
   -3.6204   -2.3442   -0.8061 H   0  0  0  0  0  0  0  0  0  0  0  0
    2.3787   -1.8137   -2.3995 N   0  0  0  0  0  0  0  0  0  0  0  0
    3.5151   -1.3186   -3.1388 C   0  0  2  0  0  0  0  0  0  0  0  0
    4.7723   -1.6478   -2.3448 C   0  0  0  0  0  0  0  0  0  0  0  0
    4.7649   -1.8583   -1.1337 O   0  0  0  0  0  0  0  0  0  0  0  0
    3.4049    0.1778   -3.3863 C   0  0  0  0  0  0  0  0  0  0  0  0
    1.7664   -2.4855   -2.8529 H   0  0  0  0  0  0  0  0  0  0  0  0
    3.5323   -1.8588   -4.0916 H   0  0  0  0  0  0  0  0  0  0  0  0
    3.3862    0.7358   -2.4431 H   0  0  0  0  0  0  0  0  0  0  0  0
    4.2535    0.5467   -3.9718 H   0  0  0  0  0  0  0  0  0  0  0  0
    2.4852    0.4160   -3.9316 H   0  0  0  0  0  0  0  0  0  0  0  0
    5.9098   -1.6364   -3.1400 N   0  0  0  0  0  0  0  0  0  0  0  0
    7.2290   -1.9058   -2.6175 C   0  0  0  0  0  0  0  0  0  0  0  0
    5.8200   -1.4707   -4.1381 H   0  0  0  0  0  0  0  0  0  0  0  0
    7.7102   -0.9596   -2.3294 H   0  0  0  0  0  0  0  0  0  0  0  0
    7.1479   -2.5590   -1.7362 H   0  0  0  0  0  0  0  0  0  0  0  0
    7.8340   -2.4046   -3.3891 H   0  0  0  0  0  0  0  0  0  0  0  0
  1  3  1  0  0  0  0
  1  7  1  0  0  0  0
  1  2  2  0  0  0  0
 21 22  1  0  0  0  0
 22 24  1  0  0  0  0
 22 23  2  0  0  0  0
 32 33  1  0  0  0  0
 33 41  1  0  0  0  0
 33 34  2  0  0  0  0
  8  9  1  0  0  0  0
  9 17  1  0  0  0  0
  9 10  2  0  0  0  0
 18 19  1  0  0  0  0
 19 31  1  0  0  0  0
 19 20  2  0  0  0  0
 32 35  1  0  0  0  0
  8 11  1  0  0  0  0
 41 42  1  0  0  0  0
 18 21  1  0  0  0  0
 31 32  1  0  0  0  0
  7  8  1  0  0  0  0
 17 18  1  0  0  0  0
  3  4  1  0  0  0  0
  3  5  1  0  0  0  0
  3  6  1  0  0  0  0
 35 38  1  0  0  0  0
 35 39  1  0  0  0  0
 35 40  1  0  0  0  0
 11 14  1  0  0  0  0
 11 15  1  0  0  0  0
 11 16  1  0  0  0  0
 42 44  1  0  0  0  0
 42 45  1  0  0  0  0
 42 46  1  0  0  0  0
 21 27  1  0  0  0  0
 21 28  1  0  0  0  0
 32 37  1  0  0  0  0
  8 13  1  0  0  0  0
 18 26  1  0  0  0  0
 24 29  1  0  0  0  0
 24 30  1  0  0  0  0
 41 43  1  0  0  0  0
  7 12  1  0  0  0  0
 31 36  1  0  0  0  0
 17 25  1  0  0  0  0
M  END
$$$$

  -OEChem-05262214473D

 46 45  0     1  0  0  0  0  0999 V2000
   -0.0543    1.9736    3.8406 C   0  0  0  0  0  0  0  0  0  0  0  0
    0.6744    1.6099    4.7562 O   0  0  0  0  0  0  0  0  0  0  0  0
   -0.5599    3.3779    3.8160 C   0  0  0  0  0  0  0  0  0  0  0  0
   -1.5202    3.4885    4.3450 H   0  0  0  0  0  0  0  0  0  0  0  0
    0.1282    4.0814    4.3116 H   0  0  0  0  0  0  0  0  0  0  0  0
   -0.7317    3.7994    2.8126 H   0  0  0  0  0  0  0  0  0  0  0  0
   -0.4812    1.1968    2.7762 N   0  0  0  0  0  0  0  0  0  0  0  0
   -0.1106   -0.1834    2.6051 C   0  0  2  0  0  0  0  0  0  0  0  0
   -0.0696   -0.4775    1.1113 C   0  0  0  0  0  0  0  0  0  0  0  0
   -0.6805    0.1900    0.2792 O   0  0  0  0  0  0  0  0  0  0  0  0
   -1.0852   -1.1101    3.3150 C   0  0  0  0  0  0  0  0  0  0  0  0
   -1.0883    1.6241    2.0791 H   0  0  0  0  0  0  0  0  0  0  0  0
    0.8937   -0.2959    3.0277 H   0  0  0  0  0  0  0  0  0  0  0  0
   -2.0970   -1.0114    2.9051 H   0  0  0  0  0  0  0  0  0  0  0  0
   -0.7860   -2.1580    3.2078 H   0  0  0  0  0  0  0  0  0  0  0  0
   -1.1357   -0.8775    4.3842 H   0  0  0  0  0  0  0  0  0  0  0  0
    0.6950   -1.6003    0.8178 N   0  0  0  0  0  0  0  0  0  0  0  0
    0.8777   -2.0908   -0.5246 C   0  0  2  0  0  0  0  0  0  0  0  0
    2.1122   -1.4078   -1.0995 C   0  0  0  0  0  0  0  0  0  0  0  0
    2.9528   -0.8426   -0.4027 O   0  0  0  0  0  0  0  0  0  0  0  0
   -0.3451   -1.8196   -1.4013 C   0  0  0  0  0  0  0  0  0  0  0  0
   -1.5510   -2.6606   -1.0212 C   0  0  0  0  0  0  0  0  0  0  0  0
   -1.4947   -3.8514   -0.7289 O   0  0  0  0  0  0  0  0  0  0  0  0
   -2.7216   -1.9322   -1.0360 N   0  0  0  0  0  0  0  0  0  0  0  0
    1.1810   -2.0803    1.5718 H   0  0  0  0  0  0  0  0  0  0  0  0
    1.0726   -3.1663   -0.4403 H   0  0  0  0  0  0  0  0  0  0  0  0
   -0.6467   -0.7679   -1.3175 H   0  0  0  0  0  0  0  0  0  0  0  0
   -0.1103   -2.0051   -2.4573 H   0  0  0  0  0  0  0  0  0  0  0  0
   -2.7204   -0.9476   -1.2808 H   0  0  0  0  0  0  0  0  0  0  0  0
   -3.6204   -2.3442   -0.8061 H   0  0  0  0  0  0  0  0  0  0  0  0
    2.1936   -1.5452   -2.4780 N   0  0  0  0  0  0  0  0  0  0  0  0
    3.2931   -1.0012   -3.2384 C   0  0  2  0  0  0  0  0  0  0  0  0
    4.5833   -1.5998   -2.6937 C   0  0  0  0  0  0  0  0  0  0  0  0
    4.6807   -2.0649   -1.5600 O   0  0  0  0  0  0  0  0  0  0  0  0
    3.3227    0.5172   -3.1596 C   0  0  0  0  0  0  0  0  0  0  0  0
    1.4667   -2.0488   -2.9778 H   0  0  0  0  0  0  0  0  0  0  0  0
    3.1501   -1.3228   -4.2757 H   0  0  0  0  0  0  0  0  0  0  0  0
    3.4653    0.8584   -2.1277 H   0  0  0  0  0  0  0  0  0  0  0  0
    4.1401    0.9299   -3.7600 H   0  0  0  0  0  0  0  0  0  0  0  0
    2.3824    0.9448   -3.5240 H   0  0  0  0  0  0  0  0  0  0  0  0
    5.6247   -1.5143   -3.6072 N   0  0  0  0  0  0  0  0  0  0  0  0
    6.9540   -2.0015   -3.3218 C   0  0  0  0  0  0  0  0  0  0  0  0
    5.4488   -1.1304   -4.5310 H   0  0  0  0  0  0  0  0  0  0  0  0
    7.5641   -1.1841   -2.9099 H   0  0  0  0  0  0  0  0  0  0  0  0
    6.8950   -2.8199   -2.5892 H   0  0  0  0  0  0  0  0  0  0  0  0
    7.4155   -2.3720   -4.2490 H   0  0  0  0  0  0  0  0  0  0  0  0
  1  3  1  0  0  0  0
  1  7  1  0  0  0  0
  1  2  2  0  0  0  0
 21 22  1  0  0  0  0
 22 24  1  0  0  0  0
 22 23  2  0  0  0  0
 32 33  1  0  0  0  0
 33 41  1  0  0  0  0
 33 34  2  0  0  0  0
  8  9  1  0  0  0  0
  9 17  1  0  0  0  0
  9 10  2  0  0  0  0
 18 19  1  0  0  0  0
 19 31  1  0  0  0  0
 19 20  2  0  0  0  0
 32 35  1  0  0  0  0
  8 11  1  0  0  0  0
 41 42  1  0  0  0  0
 18 21  1  0  0  0  0
 31 32  1  0  0  0  0
  7  8  1  0  0  0  0
 17 18  1  0  0  0  0
  3  4  1  0  0  0  0
  3  5  1  0  0  0  0
  3  6  1  0  0  0  0
 35 38  1  0  0  0  0
 35 39  1  0  0  0  0
 35 40  1  0  0  0  0
 11 14  1  0  0  0  0
 11 15  1  0  0  0  0
 11 16  1  0  0  0  0
 42 44  1  0  0  0  0
 42 45  1  0  0  0  0
 42 46  1  0  0  0  0
 21 27  1  0  0  0  0
 21 28  1  0  0  0  0
 32 37  1  0  0  0  0
  8 13  1  0  0  0  0
 18 26  1  0  0  0  0
 24 29  1  0  0  0  0
 24 30  1  0  0  0  0
 41 43  1  0  0  0  0
  7 12  1  0  0  0  0
 31 36  1  0  0  0  0
 17 25  1  0  0  0  0
M  END
$$$$

  -OEChem-05262214473D

 46 45  0     1  0  0  0  0  0999 V2000
   -0.0543    1.9736    3.8406 C   0  0  0  0  0  0  0  0  0  0  0  0
    0.6744    1.6099    4.7562 O   0  0  0  0  0  0  0  0  0  0  0  0
   -0.5599    3.3779    3.8160 C   0  0  0  0  0  0  0  0  0  0  0  0
   -1.5202    3.4885    4.3450 H   0  0  0  0  0  0  0  0  0  0  0  0
    0.1282    4.0814    4.3116 H   0  0  0  0  0  0  0  0  0  0  0  0
   -0.7317    3.7994    2.8126 H   0  0  0  0  0  0  0  0  0  0  0  0
   -0.4812    1.1968    2.7762 N   0  0  0  0  0  0  0  0  0  0  0  0
   -0.1106   -0.1834    2.6051 C   0  0  2  0  0  0  0  0  0  0  0  0
   -0.0696   -0.4775    1.1113 C   0  0  0  0  0  0  0  0  0  0  0  0
   -0.6805    0.1900    0.2792 O   0  0  0  0  0  0  0  0  0  0  0  0
   -1.0852   -1.1101    3.3150 C   0  0  0  0  0  0  0  0  0  0  0  0
   -1.0883    1.6241    2.0791 H   0  0  0  0  0  0  0  0  0  0  0  0
    0.8937   -0.2959    3.0277 H   0  0  0  0  0  0  0  0  0  0  0  0
   -2.0970   -1.0114    2.9051 H   0  0  0  0  0  0  0  0  0  0  0  0
   -0.7860   -2.1580    3.2078 H   0  0  0  0  0  0  0  0  0  0  0  0
   -1.1357   -0.8775    4.3842 H   0  0  0  0  0  0  0  0  0  0  0  0
    0.6950   -1.6003    0.8178 N   0  0  0  0  0  0  0  0  0  0  0  0
    0.8777   -2.0908   -0.5246 C   0  0  2  0  0  0  0  0  0  0  0  0
    2.1122   -1.4078   -1.0995 C   0  0  0  0  0  0  0  0  0  0  0  0
    3.0788   -1.0798   -0.4141 O   0  0  0  0  0  0  0  0  0  0  0  0
   -0.3451   -1.8196   -1.4013 C   0  0  0  0  0  0  0  0  0  0  0  0
   -1.5510   -2.6606   -1.0212 C   0  0  0  0  0  0  0  0  0  0  0  0
   -1.4947   -3.8514   -0.7289 O   0  0  0  0  0  0  0  0  0  0  0  0
   -2.7216   -1.9322   -1.0360 N   0  0  0  0  0  0  0  0  0  0  0  0
    1.1810   -2.0803    1.5718 H   0  0  0  0  0  0  0  0  0  0  0  0
    1.0726   -3.1663   -0.4403 H   0  0  0  0  0  0  0  0  0  0  0  0
   -0.6467   -0.7679   -1.3175 H   0  0  0  0  0  0  0  0  0  0  0  0
   -0.1103   -2.0051   -2.4573 H   0  0  0  0  0  0  0  0  0  0  0  0
   -2.7204   -0.9476   -1.2808 H   0  0  0  0  0  0  0  0  0  0  0  0
   -3.6204   -2.3442   -0.8061 H   0  0  0  0  0  0  0  0  0  0  0  0
    2.0319   -1.2513   -2.4761 N   0  0  0  0  0  0  0  0  0  0  0  0
    3.0981   -0.6520   -3.2423 C   0  0  2  0  0  0  0  0  0  0  0  0
    4.3649   -1.4617   -2.9987 C   0  0  0  0  0  0  0  0  0  0  0  0
    4.5297   -2.1668   -2.0054 O   0  0  0  0  0  0  0  0  0  0  0  0
    3.3028    0.8055   -2.8598 C   0  0  0  0  0  0  0  0  0  0  0  0
    1.2053   -1.5715   -2.9720 H   0  0  0  0  0  0  0  0  0  0  0  0
    2.8118   -0.7292   -4.2968 H   0  0  0  0  0  0  0  0  0  0  0  0
    3.5902    0.9028   -1.8065 H   0  0  0  0  0  0  0  0  0  0  0  0
    4.0927    1.2666   -3.4619 H   0  0  0  0  0  0  0  0  0  0  0  0
    2.3820    1.3802   -3.0075 H   0  0  0  0  0  0  0  0  0  0  0  0
    5.3070   -1.2706   -3.9998 N   0  0  0  0  0  0  0  0  0  0  0  0
    6.5973   -1.9194   -3.9902 C   0  0  0  0  0  0  0  0  0  0  0  0
    5.0778   -0.6830   -4.7960 H   0  0  0  0  0  0  0  0  0  0  0  0
    7.3337   -1.2650   -3.5008 H   0  0  0  0  0  0  0  0  0  0  0  0
    6.5263   -2.8684   -3.4385 H   0  0  0  0  0  0  0  0  0  0  0  0
    6.9147   -2.1193   -5.0243 H   0  0  0  0  0  0  0  0  0  0  0  0
  1  3  1  0  0  0  0
  1  7  1  0  0  0  0
  1  2  2  0  0  0  0
 21 22  1  0  0  0  0
 22 24  1  0  0  0  0
 22 23  2  0  0  0  0
 32 33  1  0  0  0  0
 33 41  1  0  0  0  0
 33 34  2  0  0  0  0
  8  9  1  0  0  0  0
  9 17  1  0  0  0  0
  9 10  2  0  0  0  0
 18 19  1  0  0  0  0
 19 31  1  0  0  0  0
 19 20  2  0  0  0  0
 32 35  1  0  0  0  0
  8 11  1  0  0  0  0
 41 42  1  0  0  0  0
 18 21  1  0  0  0  0
 31 32  1  0  0  0  0
  7  8  1  0  0  0  0
 17 18  1  0  0  0  0
  3  4  1  0  0  0  0
  3  5  1  0  0  0  0
  3  6  1  0  0  0  0
 35 38  1  0  0  0  0
 35 39  1  0  0  0  0
 35 40  1  0  0  0  0
 11 14  1  0  0  0  0
 11 15  1  0  0  0  0
 11 16  1  0  0  0  0
 42 44  1  0  0  0  0
 42 45  1  0  0  0  0
 42 46  1  0  0  0  0
 21 27  1  0  0  0  0
 21 28  1  0  0  0  0
 32 37  1  0  0  0  0
  8 13  1  0  0  0  0
 18 26  1  0  0  0  0
 24 29  1  0  0  0  0
 24 30  1  0  0  0  0
 41 43  1  0  0  0  0
  7 12  1  0  0  0  0
 31 36  1  0  0  0  0
 17 25  1  0  0  0  0
M  END
$$$$

  -OEChem-05262214473D

 46 45  0     1  0  0  0  0  0999 V2000
   -0.0543    1.9736    3.8406 C   0  0  0  0  0  0  0  0  0  0  0  0
    0.6744    1.6099    4.7562 O   0  0  0  0  0  0  0  0  0  0  0  0
   -0.5599    3.3779    3.8160 C   0  0  0  0  0  0  0  0  0  0  0  0
   -1.5202    3.4885    4.3450 H   0  0  0  0  0  0  0  0  0  0  0  0
    0.1282    4.0814    4.3116 H   0  0  0  0  0  0  0  0  0  0  0  0
   -0.7317    3.7994    2.8126 H   0  0  0  0  0  0  0  0  0  0  0  0
   -0.4812    1.1968    2.7762 N   0  0  0  0  0  0  0  0  0  0  0  0
   -0.1106   -0.1834    2.6051 C   0  0  2  0  0  0  0  0  0  0  0  0
   -0.0696   -0.4775    1.1113 C   0  0  0  0  0  0  0  0  0  0  0  0
   -0.6805    0.1900    0.2792 O   0  0  0  0  0  0  0  0  0  0  0  0
   -1.0852   -1.1101    3.3150 C   0  0  0  0  0  0  0  0  0  0  0  0
   -1.0883    1.6241    2.0791 H   0  0  0  0  0  0  0  0  0  0  0  0
    0.8937   -0.2959    3.0277 H   0  0  0  0  0  0  0  0  0  0  0  0
   -2.0970   -1.0114    2.9051 H   0  0  0  0  0  0  0  0  0  0  0  0
   -0.7860   -2.1580    3.2078 H   0  0  0  0  0  0  0  0  0  0  0  0
   -1.1357   -0.8775    4.3842 H   0  0  0  0  0  0  0  0  0  0  0  0
    0.6950   -1.6003    0.8178 N   0  0  0  0  0  0  0  0  0  0  0  0
    0.8777   -2.0908   -0.5246 C   0  0  2  0  0  0  0  0  0  0  0  0
    2.1122   -1.4078   -1.0995 C   0  0  0  0  0  0  0  0  0  0  0  0
    3.1759   -1.3188   -0.4895 O   0  0  0  0  0  0  0  0  0  0  0  0
   -0.3451   -1.8196   -1.4013 C   0  0  0  0  0  0  0  0  0  0  0  0
   -1.5510   -2.6606   -1.0212 C   0  0  0  0  0  0  0  0  0  0  0  0
   -1.4947   -3.8514   -0.7289 O   0  0  0  0  0  0  0  0  0  0  0  0
   -2.7216   -1.9322   -1.0360 N   0  0  0  0  0  0  0  0  0  0  0  0
    1.1810   -2.0803    1.5718 H   0  0  0  0  0  0  0  0  0  0  0  0
    1.0726   -3.1663   -0.4403 H   0  0  0  0  0  0  0  0  0  0  0  0
   -0.6467   -0.7679   -1.3175 H   0  0  0  0  0  0  0  0  0  0  0  0
   -0.1103   -2.0051   -2.4573 H   0  0  0  0  0  0  0  0  0  0  0  0
   -2.7204   -0.9476   -1.2808 H   0  0  0  0  0  0  0  0  0  0  0  0
   -3.6204   -2.3442   -0.8061 H   0  0  0  0  0  0  0  0  0  0  0  0
    1.9047   -0.9521   -2.3938 N   0  0  0  0  0  0  0  0  0  0  0  0
    2.9434   -0.2949   -3.1502 C   0  0  2  0  0  0  0  0  0  0  0  0
    4.1320   -1.2431   -3.2391 C   0  0  0  0  0  0  0  0  0  0  0  0
    4.3222   -2.1571   -2.4394 O   0  0  0  0  0  0  0  0  0  0  0  0
    3.3465    1.0231   -2.5075 C   0  0  0  0  0  0  0  0  0  0  0  0
    1.0001   -1.0862   -2.8360 H   0  0  0  0  0  0  0  0  0  0  0  0
    2.5406   -0.1183   -4.1535 H   0  0  0  0  0  0  0  0  0  0  0  0
    3.7525    0.8663   -1.5015 H   0  0  0  0  0  0  0  0  0  0  0  0
    4.1143    1.5340   -3.0978 H   0  0  0  0  0  0  0  0  0  0  0  0
    2.4841    1.6924   -2.4172 H   0  0  0  0  0  0  0  0  0  0  0  0
    4.9784   -0.9218   -4.2910 N   0  0  0  0  0  0  0  0  0  0  0  0
    6.1832   -1.6650   -4.5772 C   0  0  0  0  0  0  0  0  0  0  0  0
    4.7324   -0.1591   -4.9152 H   0  0  0  0  0  0  0  0  0  0  0  0
    7.0347   -1.1968   -4.0618 H   0  0  0  0  0  0  0  0  0  0  0  0
    6.0669   -2.7010   -4.2262 H   0  0  0  0  0  0  0  0  0  0  0  0
    6.3657   -1.6637   -5.6620 H   0  0  0  0  0  0  0  0  0  0  0  0
  1  3  1  0  0  0  0
  1  7  1  0  0  0  0
  1  2  2  0  0  0  0
 21 22  1  0  0  0  0
 22 24  1  0  0  0  0
 22 23  2  0  0  0  0
 32 33  1  0  0  0  0
 33 41  1  0  0  0  0
 33 34  2  0  0  0  0
  8  9  1  0  0  0  0
  9 17  1  0  0  0  0
  9 10  2  0  0  0  0
 18 19  1  0  0  0  0
 19 31  1  0  0  0  0
 19 20  2  0  0  0  0
 32 35  1  0  0  0  0
  8 11  1  0  0  0  0
 41 42  1  0  0  0  0
 18 21  1  0  0  0  0
 31 32  1  0  0  0  0
  7  8  1  0  0  0  0
 17 18  1  0  0  0  0
  3  4  1  0  0  0  0
  3  5  1  0  0  0  0
  3  6  1  0  0  0  0
 35 38  1  0  0  0  0
 35 39  1  0  0  0  0
 35 40  1  0  0  0  0
 11 14  1  0  0  0  0
 11 15  1  0  0  0  0
 11 16  1  0  0  0  0
 42 44  1  0  0  0  0
 42 45  1  0  0  0  0
 42 46  1  0  0  0  0
 21 27  1  0  0  0  0
 21 28  1  0  0  0  0
 32 37  1  0  0  0  0
  8 13  1  0  0  0  0
 18 26  1  0  0  0  0
 24 29  1  0  0  0  0
 24 30  1  0  0  0  0
 41 43  1  0  0  0  0
  7 12  1  0  0  0  0
 31 36  1  0  0  0  0
 17 25  1  0  0  0  0
M  END
$$$$

  -OEChem-05262214473D

 46 45  0     1  0  0  0  0  0999 V2000
   -0.0543    1.9736    3.8406 C   0  0  0  0  0  0  0  0  0  0  0  0
    0.6744    1.6099    4.7562 O   0  0  0  0  0  0  0  0  0  0  0  0
   -0.5599    3.3779    3.8160 C   0  0  0  0  0  0  0  0  0  0  0  0
   -1.5202    3.4885    4.3450 H   0  0  0  0  0  0  0  0  0  0  0  0
    0.1282    4.0814    4.3116 H   0  0  0  0  0  0  0  0  0  0  0  0
   -0.7317    3.7994    2.8126 H   0  0  0  0  0  0  0  0  0  0  0  0
   -0.4812    1.1968    2.7762 N   0  0  0  0  0  0  0  0  0  0  0  0
   -0.1106   -0.1834    2.6051 C   0  0  2  0  0  0  0  0  0  0  0  0
   -0.0696   -0.4775    1.1113 C   0  0  0  0  0  0  0  0  0  0  0  0
   -0.6805    0.1900    0.2792 O   0  0  0  0  0  0  0  0  0  0  0  0
   -1.0852   -1.1101    3.3150 C   0  0  0  0  0  0  0  0  0  0  0  0
   -1.0883    1.6241    2.0791 H   0  0  0  0  0  0  0  0  0  0  0  0
    0.8937   -0.2959    3.0277 H   0  0  0  0  0  0  0  0  0  0  0  0
   -2.0970   -1.0114    2.9051 H   0  0  0  0  0  0  0  0  0  0  0  0
   -0.7860   -2.1580    3.2078 H   0  0  0  0  0  0  0  0  0  0  0  0
   -1.1357   -0.8775    4.3842 H   0  0  0  0  0  0  0  0  0  0  0  0
    0.6950   -1.6003    0.8178 N   0  0  0  0  0  0  0  0  0  0  0  0
    0.8777   -2.0908   -0.5246 C   0  0  2  0  0  0  0  0  0  0  0  0
    2.1122   -1.4078   -1.0995 C   0  0  0  0  0  0  0  0  0  0  0  0
    3.2377   -1.5434   -0.6236 O   0  0  0  0  0  0  0  0  0  0  0  0
   -0.3451   -1.8196   -1.4013 C   0  0  0  0  0  0  0  0  0  0  0  0
   -1.5510   -2.6606   -1.0212 C   0  0  0  0  0  0  0  0  0  0  0  0
   -1.4947   -3.8514   -0.7289 O   0  0  0  0  0  0  0  0  0  0  0  0
   -2.7216   -1.9322   -1.0360 N   0  0  0  0  0  0  0  0  0  0  0  0
    1.1810   -2.0803    1.5718 H   0  0  0  0  0  0  0  0  0  0  0  0
    1.0726   -3.1663   -0.4403 H   0  0  0  0  0  0  0  0  0  0  0  0
   -0.6467   -0.7679   -1.3175 H   0  0  0  0  0  0  0  0  0  0  0  0
   -0.1103   -2.0051   -2.4573 H   0  0  0  0  0  0  0  0  0  0  0  0
   -2.7204   -0.9476   -1.2808 H   0  0  0  0  0  0  0  0  0  0  0  0
   -3.6204   -2.3442   -0.8061 H   0  0  0  0  0  0  0  0  0  0  0  0
    1.8205   -0.6679   -2.2368 N   0  0  0  0  0  0  0  0  0  0  0  0
    2.8396    0.0458   -2.9684 C   0  0  2  0  0  0  0  0  0  0  0  0
    3.9005   -0.9587   -3.3984 C   0  0  0  0  0  0  0  0  0  0  0  0
    4.0724   -2.0364   -2.8326 O   0  0  0  0  0  0  0  0  0  0  0  0
    3.4508    1.1551   -2.1266 C   0  0  0  0  0  0  0  0  0  0  0  0
    0.8651   -0.6259   -2.5790 H   0  0  0  0  0  0  0  0  0  0  0  0
    2.3549    0.4682   -3.8554 H   0  0  0  0  0  0  0  0  0  0  0  0
    3.9411    0.7511   -1.2333 H   0  0  0  0  0  0  0  0  0  0  0  0
    4.2035    1.7138   -2.6926 H   0  0  0  0  0  0  0  0  0  0  0  0
    2.6817    1.8603   -1.7934 H   0  0  0  0  0  0  0  0  0  0  0  0
    4.6612   -0.4917   -4.4611 N   0  0  0  0  0  0  0  0  0  0  0  0
    5.7400   -1.2558   -5.0429 C   0  0  0  0  0  0  0  0  0  0  0  0
    4.4362    0.4057   -4.8803 H   0  0  0  0  0  0  0  0  0  0  0  0
    6.6875   -0.9839   -4.5546 H   0  0  0  0  0  0  0  0  0  0  0  0
    5.5481   -2.3293   -4.8987 H   0  0  0  0  0  0  0  0  0  0  0  0
    5.8059   -1.0363   -6.1187 H   0  0  0  0  0  0  0  0  0  0  0  0
  1  3  1  0  0  0  0
  1  7  1  0  0  0  0
  1  2  2  0  0  0  0
 21 22  1  0  0  0  0
 22 24  1  0  0  0  0
 22 23  2  0  0  0  0
 32 33  1  0  0  0  0
 33 41  1  0  0  0  0
 33 34  2  0  0  0  0
  8  9  1  0  0  0  0
  9 17  1  0  0  0  0
  9 10  2  0  0  0  0
 18 19  1  0  0  0  0
 19 31  1  0  0  0  0
 19 20  2  0  0  0  0
 32 35  1  0  0  0  0
  8 11  1  0  0  0  0
 41 42  1  0  0  0  0
 18 21  1  0  0  0  0
 31 32  1  0  0  0  0
  7  8  1  0  0  0  0
 17 18  1  0  0  0  0
  3  4  1  0  0  0  0
  3  5  1  0  0  0  0
  3  6  1  0  0  0  0
 35 38  1  0  0  0  0
 35 39  1  0  0  0  0
 35 40  1  0  0  0  0
 11 14  1  0  0  0  0
 11 15  1  0  0  0  0
 11 16  1  0  0  0  0
 42 44  1  0  0  0  0
 42 45  1  0  0  0  0
 42 46  1  0  0  0  0
 21 27  1  0  0  0  0
 21 28  1  0  0  0  0
 32 37  1  0  0  0  0
  8 13  1  0  0  0  0
 18 26  1  0  0  0  0
 24 29  1  0  0  0  0
 24 30  1  0  0  0  0
 41 43  1  0  0  0  0
  7 12  1  0  0  0  0
 31 36  1  0  0  0  0
 17 25  1  0  0  0  0
M  END
$$$$

  -OEChem-05262214473D

 46 45  0     1  0  0  0  0  0999 V2000
   -0.0543    1.9736    3.8406 C   0  0  0  0  0  0  0  0  0  0  0  0
    0.6744    1.6099    4.7562 O   0  0  0  0  0  0  0  0  0  0  0  0
   -0.5599    3.3779    3.8160 C   0  0  0  0  0  0  0  0  0  0  0  0
   -1.5202    3.4885    4.3450 H   0  0  0  0  0  0  0  0  0  0  0  0
    0.1282    4.0814    4.3116 H   0  0  0  0  0  0  0  0  0  0  0  0
   -0.7317    3.7994    2.8126 H   0  0  0  0  0  0  0  0  0  0  0  0
   -0.4812    1.1968    2.7762 N   0  0  0  0  0  0  0  0  0  0  0  0
   -0.1106   -0.1834    2.6051 C   0  0  2  0  0  0  0  0  0  0  0  0
   -0.0696   -0.4775    1.1113 C   0  0  0  0  0  0  0  0  0  0  0  0
   -0.6805    0.1900    0.2792 O   0  0  0  0  0  0  0  0  0  0  0  0
   -1.0852   -1.1101    3.3150 C   0  0  0  0  0  0  0  0  0  0  0  0
   -1.0883    1.6241    2.0791 H   0  0  0  0  0  0  0  0  0  0  0  0
    0.8937   -0.2959    3.0277 H   0  0  0  0  0  0  0  0  0  0  0  0
   -2.0970   -1.0114    2.9051 H   0  0  0  0  0  0  0  0  0  0  0  0
   -0.7860   -2.1580    3.2078 H   0  0  0  0  0  0  0  0  0  0  0  0
   -1.1357   -0.8775    4.3842 H   0  0  0  0  0  0  0  0  0  0  0  0
    0.6950   -1.6003    0.8178 N   0  0  0  0  0  0  0  0  0  0  0  0
    0.8777   -2.0908   -0.5246 C   0  0  2  0  0  0  0  0  0  0  0  0
    2.1122   -1.4078   -1.0995 C   0  0  0  0  0  0  0  0  0  0  0  0
    3.2598   -1.7382   -0.8075 O   0  0  0  0  0  0  0  0  0  0  0  0
   -0.3451   -1.8196   -1.4013 C   0  0  0  0  0  0  0  0  0  0  0  0
   -1.5510   -2.6606   -1.0212 C   0  0  0  0  0  0  0  0  0  0  0  0
   -1.4947   -3.8514   -0.7289 O   0  0  0  0  0  0  0  0  0  0  0  0
   -2.7216   -1.9322   -1.0360 N   0  0  0  0  0  0  0  0  0  0  0  0
    1.1810   -2.0803    1.5718 H   0  0  0  0  0  0  0  0  0  0  0  0
    1.0726   -3.1663   -0.4403 H   0  0  0  0  0  0  0  0  0  0  0  0
   -0.6467   -0.7679   -1.3175 H   0  0  0  0  0  0  0  0  0  0  0  0
   -0.1103   -2.0051   -2.4573 H   0  0  0  0  0  0  0  0  0  0  0  0
   -2.7204   -0.9476   -1.2808 H   0  0  0  0  0  0  0  0  0  0  0  0
   -3.6204   -2.3442   -0.8061 H   0  0  0  0  0  0  0  0  0  0  0  0
    1.7853   -0.4181   -2.0157 N   0  0  0  0  0  0  0  0  0  0  0  0
    2.7936    0.3469   -2.7093 C   0  0  2  0  0  0  0  0  0  0  0  0
    3.6862   -0.6281   -3.4658 C   0  0  0  0  0  0  0  0  0  0  0  0
    3.7972   -1.8130   -3.1580 O   0  0  0  0  0  0  0  0  0  0  0  0
    3.6087    1.1925   -1.7431 C   0  0  0  0  0  0  0  0  0  0  0  0
    0.8095   -0.2220   -2.2186 H   0  0  0  0  0  0  0  0  0  0  0  0
    2.2674    0.9903   -3.4229 H   0  0  0  0  0  0  0  0  0  0  0  0
    4.1431    0.5652   -1.0203 H   0  0  0  0  0  0  0  0  0  0  0  0
    4.3543    1.7938   -2.2738 H   0  0  0  0  0  0  0  0  0  0  0  0
    2.9614    1.8723   -1.1786 H   0  0  0  0  0  0  0  0  0  0  0  0
    4.3772   -0.0096   -4.4983 N   0  0  0  0  0  0  0  0  0  0  0  0
    5.2978   -0.7195   -5.3554 C   0  0  0  0  0  0  0  0  0  0  0  0
    4.2092    0.9729   -4.6938 H   0  0  0  0  0  0  0  0  0  0  0  0
    6.3156   -0.6411   -4.9458 H   0  0  0  0  0  0  0  0  0  0  0  0
    5.0052   -1.7785   -5.4101 H   0  0  0  0  0  0  0  0  0  0  0  0
    5.2734   -0.2798   -6.3634 H   0  0  0  0  0  0  0  0  0  0  0  0
  1  3  1  0  0  0  0
  1  7  1  0  0  0  0
  1  2  2  0  0  0  0
 21 22  1  0  0  0  0
 22 24  1  0  0  0  0
 22 23  2  0  0  0  0
 32 33  1  0  0  0  0
 33 41  1  0  0  0  0
 33 34  2  0  0  0  0
  8  9  1  0  0  0  0
  9 17  1  0  0  0  0
  9 10  2  0  0  0  0
 18 19  1  0  0  0  0
 19 31  1  0  0  0  0
 19 20  2  0  0  0  0
 32 35  1  0  0  0  0
  8 11  1  0  0  0  0
 41 42  1  0  0  0  0
 18 21  1  0  0  0  0
 31 32  1  0  0  0  0
  7  8  1  0  0  0  0
 17 18  1  0  0  0  0
  3  4  1  0  0  0  0
  3  5  1  0  0  0  0
  3  6  1  0  0  0  0
 35 38  1  0  0  0  0
 35 39  1  0  0  0  0
 35 40  1  0  0  0  0
 11 14  1  0  0  0  0
 11 15  1  0  0  0  0
 11 16  1  0  0  0  0
 42 44  1  0  0  0  0
 42 45  1  0  0  0  0
 42 46  1  0  0  0  0
 21 27  1  0  0  0  0
 21 28  1  0  0  0  0
 32 37  1  0  0  0  0
  8 13  1  0  0  0  0
 18 26  1  0  0  0  0
 24 29  1  0  0  0  0
 24 30  1  0  0  0  0
 41 43  1  0  0  0  0
  7 12  1  0  0  0  0
 31 36  1  0  0  0  0
 17 25  1  0  0  0  0
M  END
$$$$

  -OEChem-05262214473D

 46 45  0     1  0  0  0  0  0999 V2000
   -0.0543    1.9736    3.8406 C   0  0  0  0  0  0  0  0  0  0  0  0
    0.6744    1.6099    4.7562 O   0  0  0  0  0  0  0  0  0  0  0  0
   -0.5599    3.3779    3.8160 C   0  0  0  0  0  0  0  0  0  0  0  0
   -1.5202    3.4885    4.3450 H   0  0  0  0  0  0  0  0  0  0  0  0
    0.1282    4.0814    4.3116 H   0  0  0  0  0  0  0  0  0  0  0  0
   -0.7317    3.7994    2.8126 H   0  0  0  0  0  0  0  0  0  0  0  0
   -0.4812    1.1968    2.7762 N   0  0  0  0  0  0  0  0  0  0  0  0
   -0.1106   -0.1834    2.6051 C   0  0  2  0  0  0  0  0  0  0  0  0
   -0.0696   -0.4775    1.1113 C   0  0  0  0  0  0  0  0  0  0  0  0
   -0.6805    0.1900    0.2792 O   0  0  0  0  0  0  0  0  0  0  0  0
   -1.0852   -1.1101    3.3150 C   0  0  0  0  0  0  0  0  0  0  0  0
   -1.0883    1.6241    2.0791 H   0  0  0  0  0  0  0  0  0  0  0  0
    0.8937   -0.2959    3.0277 H   0  0  0  0  0  0  0  0  0  0  0  0
   -2.0970   -1.0114    2.9051 H   0  0  0  0  0  0  0  0  0  0  0  0
   -0.7860   -2.1580    3.2078 H   0  0  0  0  0  0  0  0  0  0  0  0
   -1.1357   -0.8775    4.3842 H   0  0  0  0  0  0  0  0  0  0  0  0
    0.6950   -1.6003    0.8178 N   0  0  0  0  0  0  0  0  0  0  0  0
    0.8777   -2.0908   -0.5246 C   0  0  2  0  0  0  0  0  0  0  0  0
    2.1122   -1.4078   -1.0995 C   0  0  0  0  0  0  0  0  0  0  0  0
    3.2409   -1.8900   -1.0286 O   0  0  0  0  0  0  0  0  0  0  0  0
   -0.3451   -1.8196   -1.4013 C   0  0  0  0  0  0  0  0  0  0  0  0
   -1.5510   -2.6606   -1.0212 C   0  0  0  0  0  0  0  0  0  0  0  0
   -1.4947   -3.8514   -0.7289 O   0  0  0  0  0  0  0  0  0  0  0  0
   -2.7216   -1.9322   -1.0360 N   0  0  0  0  0  0  0  0  0  0  0  0
    1.1810   -2.0803    1.5718 H   0  0  0  0  0  0  0  0  0  0  0  0
    1.0726   -3.1663   -0.4403 H   0  0  0  0  0  0  0  0  0  0  0  0
   -0.6467   -0.7679   -1.3175 H   0  0  0  0  0  0  0  0  0  0  0  0
   -0.1103   -2.0051   -2.4573 H   0  0  0  0  0  0  0  0  0  0  0  0
   -2.7204   -0.9476   -1.2808 H   0  0  0  0  0  0  0  0  0  0  0  0
   -3.6204   -2.3442   -0.8061 H   0  0  0  0  0  0  0  0  0  0  0  0
    1.8012   -0.2197   -1.7458 N   0  0  0  0  0  0  0  0  0  0  0  0
    2.8087    0.5880   -2.3905 C   0  0  2  0  0  0  0  0  0  0  0  0
    3.5036   -0.2736   -3.4366 C   0  0  0  0  0  0  0  0  0  0  0  0
    3.5155   -1.5021   -3.3936 O   0  0  0  0  0  0  0  0  0  0  0  0
    3.8093    1.1328   -1.3832 C   0  0  0  0  0  0  0  0  0  0  0  0
    0.8370    0.0980   -1.7793 H   0  0  0  0  0  0  0  0  0  0  0  0
    2.2841    1.4124   -2.8855 H   0  0  0  0  0  0  0  0  0  0  0  0
    4.3448    0.3212   -0.8771 H   0  0  0  0  0  0  0  0  0  0  0  0
    4.5563    1.7684   -1.8700 H   0  0  0  0  0  0  0  0  0  0  0  0
    3.3040    1.7276   -0.6146 H   0  0  0  0  0  0  0  0  0  0  0  0
    4.1456    0.4916   -4.4002 N   0  0  0  0  0  0  0  0  0  0  0  0
    4.8867   -0.0928   -5.4934 C   0  0  0  0  0  0  0  0  0  0  0  0
    4.0670    1.5038   -4.3684 H   0  0  0  0  0  0  0  0  0  0  0  0
    5.9446   -0.1916   -5.2085 H   0  0  0  0  0  0  0  0  0  0  0  0
    4.4753   -1.0862   -5.7256 H   0  0  0  0  0  0  0  0  0  0  0  0
    4.8046    0.5542   -6.3792 H   0  0  0  0  0  0  0  0  0  0  0  0
  1  3  1  0  0  0  0
  1  7  1  0  0  0  0
  1  2  2  0  0  0  0
 21 22  1  0  0  0  0
 22 24  1  0  0  0  0
 22 23  2  0  0  0  0
 32 33  1  0  0  0  0
 33 41  1  0  0  0  0
 33 34  2  0  0  0  0
  8  9  1  0  0  0  0
  9 17  1  0  0  0  0
  9 10  2  0  0  0  0
 18 19  1  0  0  0  0
 19 31  1  0  0  0  0
 19 20  2  0  0  0  0
 32 35  1  0  0  0  0
  8 11  1  0  0  0  0
 41 42  1  0  0  0  0
 18 21  1  0  0  0  0
 31 32  1  0  0  0  0
  7  8  1  0  0  0  0
 17 18  1  0  0  0  0
  3  4  1  0  0  0  0
  3  5  1  0  0  0  0
  3  6  1  0  0  0  0
 35 38  1  0  0  0  0
 35 39  1  0  0  0  0
 35 40  1  0  0  0  0
 11 14  1  0  0  0  0
 11 15  1  0  0  0  0
 11 16  1  0  0  0  0
 42 44  1  0  0  0  0
 42 45  1  0  0  0  0
 42 46  1  0  0  0  0
 21 27  1  0  0  0  0
 21 28  1  0  0  0  0
 32 37  1  0  0  0  0
  8 13  1  0  0  0  0
 18 26  1  0  0  0  0
 24 29  1  0  0  0  0
 24 30  1  0  0  0  0
 41 43  1  0  0  0  0
  7 12  1  0  0  0  0
 31 36  1  0  0  0  0
 17 25  1  0  0  0  0
M  END
$$$$

  -OEChem-05262214473D

 46 45  0     1  0  0  0  0  0999 V2000
   -0.0543    1.9736    3.8406 C   0  0  0  0  0  0  0  0  0  0  0  0
    0.6744    1.6099    4.7562 O   0  0  0  0  0  0  0  0  0  0  0  0
   -0.5599    3.3779    3.8160 C   0  0  0  0  0  0  0  0  0  0  0  0
   -1.5202    3.4885    4.3450 H   0  0  0  0  0  0  0  0  0  0  0  0
    0.1282    4.0814    4.3116 H   0  0  0  0  0  0  0  0  0  0  0  0
   -0.7317    3.7994    2.8126 H   0  0  0  0  0  0  0  0  0  0  0  0
   -0.4812    1.1968    2.7762 N   0  0  0  0  0  0  0  0  0  0  0  0
   -0.1106   -0.1834    2.6051 C   0  0  2  0  0  0  0  0  0  0  0  0
   -0.0696   -0.4775    1.1113 C   0  0  0  0  0  0  0  0  0  0  0  0
   -0.6805    0.1900    0.2792 O   0  0  0  0  0  0  0  0  0  0  0  0
   -1.0852   -1.1101    3.3150 C   0  0  0  0  0  0  0  0  0  0  0  0
   -1.0883    1.6241    2.0791 H   0  0  0  0  0  0  0  0  0  0  0  0
    0.8937   -0.2959    3.0277 H   0  0  0  0  0  0  0  0  0  0  0  0
   -2.0970   -1.0114    2.9051 H   0  0  0  0  0  0  0  0  0  0  0  0
   -0.7860   -2.1580    3.2078 H   0  0  0  0  0  0  0  0  0  0  0  0
   -1.1357   -0.8775    4.3842 H   0  0  0  0  0  0  0  0  0  0  0  0
    0.6950   -1.6003    0.8178 N   0  0  0  0  0  0  0  0  0  0  0  0
    0.8777   -2.0908   -0.5246 C   0  0  2  0  0  0  0  0  0  0  0  0
    2.1122   -1.4078   -1.0995 C   0  0  0  0  0  0  0  0  0  0  0  0
    3.1821   -1.9884   -1.2718 O   0  0  0  0  0  0  0  0  0  0  0  0
   -0.3451   -1.8196   -1.4013 C   0  0  0  0  0  0  0  0  0  0  0  0
   -1.5510   -2.6606   -1.0212 C   0  0  0  0  0  0  0  0  0  0  0  0
   -1.4947   -3.8514   -0.7289 O   0  0  0  0  0  0  0  0  0  0  0  0
   -2.7216   -1.9322   -1.0360 N   0  0  0  0  0  0  0  0  0  0  0  0
    1.1810   -2.0803    1.5718 H   0  0  0  0  0  0  0  0  0  0  0  0
    1.0726   -3.1663   -0.4403 H   0  0  0  0  0  0  0  0  0  0  0  0
   -0.6467   -0.7679   -1.3175 H   0  0  0  0  0  0  0  0  0  0  0  0
   -0.1103   -2.0051   -2.4573 H   0  0  0  0  0  0  0  0  0  0  0  0
   -2.7204   -0.9476   -1.2808 H   0  0  0  0  0  0  0  0  0  0  0  0
   -3.6204   -2.3442   -0.8061 H   0  0  0  0  0  0  0  0  0  0  0  0
    1.8673   -0.0862   -1.4452 N   0  0  0  0  0  0  0  0  0  0  0  0
    2.8838    0.7524   -2.0338 C   0  0  2  0  0  0  0  0  0  0  0  0
    3.3653    0.0805   -3.3129 C   0  0  0  0  0  0  0  0  0  0  0  0
    3.2464   -1.1248   -3.5232 O   0  0  0  0  0  0  0  0  0  0  0  0
    4.0390    0.9800   -1.0713 C   0  0  0  0  0  0  0  0  0  0  0  0
    0.9458    0.3123   -1.2911 H   0  0  0  0  0  0  0  0  0  0  0  0
    2.4038    1.7059   -2.2799 H   0  0  0  0  0  0  0  0  0  0  0  0
    4.5324    0.0358   -0.8132 H   0  0  0  0  0  0  0  0  0  0  0  0
    4.7958    1.6396   -1.5087 H   0  0  0  0  0  0  0  0  0  0  0  0
    3.6863    1.4361   -0.1400 H   0  0  0  0  0  0  0  0  0  0  0  0
    3.9822    0.9778   -4.1735 N   0  0  0  0  0  0  0  0  0  0  0  0
    4.5349    0.5816   -5.4477 C   0  0  0  0  0  0  0  0  0  0  0  0
    4.0193    1.9623   -3.9262 H   0  0  0  0  0  0  0  0  0  0  0  0
    5.5996    0.3339   -5.3250 H   0  0  0  0  0  0  0  0  0  0  0  0
    3.9945   -0.2996   -5.8236 H   0  0  0  0  0  0  0  0  0  0  0  0
    4.4314    1.4089   -6.1652 H   0  0  0  0  0  0  0  0  0  0  0  0
  1  3  1  0  0  0  0
  1  7  1  0  0  0  0
  1  2  2  0  0  0  0
 21 22  1  0  0  0  0
 22 24  1  0  0  0  0
 22 23  2  0  0  0  0
 32 33  1  0  0  0  0
 33 41  1  0  0  0  0
 33 34  2  0  0  0  0
  8  9  1  0  0  0  0
  9 17  1  0  0  0  0
  9 10  2  0  0  0  0
 18 19  1  0  0  0  0
 19 31  1  0  0  0  0
 19 20  2  0  0  0  0
 32 35  1  0  0  0  0
  8 11  1  0  0  0  0
 41 42  1  0  0  0  0
 18 21  1  0  0  0  0
 31 32  1  0  0  0  0
  7  8  1  0  0  0  0
 17 18  1  0  0  0  0
  3  4  1  0  0  0  0
  3  5  1  0  0  0  0
  3  6  1  0  0  0  0
 35 38  1  0  0  0  0
 35 39  1  0  0  0  0
 35 40  1  0  0  0  0
 11 14  1  0  0  0  0
 11 15  1  0  0  0  0
 11 16  1  0  0  0  0
 42 44  1  0  0  0  0
 42 45  1  0  0  0  0
 42 46  1  0  0  0  0
 21 27  1  0  0  0  0
 21 28  1  0  0  0  0
 32 37  1  0  0  0  0
  8 13  1  0  0  0  0
 18 26  1  0  0  0  0
 24 29  1  0  0  0  0
 24 30  1  0  0  0  0
 41 43  1  0  0  0  0
  7 12  1  0  0  0  0
 31 36  1  0  0  0  0
 17 25  1  0  0  0  0
M  END
$$$$

  -OEChem-05262214473D

 46 45  0     1  0  0  0  0  0999 V2000
   -0.0543    1.9736    3.8406 C   0  0  0  0  0  0  0  0  0  0  0  0
    0.6744    1.6099    4.7562 O   0  0  0  0  0  0  0  0  0  0  0  0
   -0.5599    3.3779    3.8160 C   0  0  0  0  0  0  0  0  0  0  0  0
   -1.5202    3.4885    4.3450 H   0  0  0  0  0  0  0  0  0  0  0  0
    0.1282    4.0814    4.3116 H   0  0  0  0  0  0  0  0  0  0  0  0
   -0.7317    3.7994    2.8126 H   0  0  0  0  0  0  0  0  0  0  0  0
   -0.4812    1.1968    2.7762 N   0  0  0  0  0  0  0  0  0  0  0  0
   -0.1106   -0.1834    2.6051 C   0  0  2  0  0  0  0  0  0  0  0  0
   -0.0696   -0.4775    1.1113 C   0  0  0  0  0  0  0  0  0  0  0  0
   -0.6805    0.1900    0.2792 O   0  0  0  0  0  0  0  0  0  0  0  0
   -1.0852   -1.1101    3.3150 C   0  0  0  0  0  0  0  0  0  0  0  0
   -1.0883    1.6241    2.0791 H   0  0  0  0  0  0  0  0  0  0  0  0
    0.8937   -0.2959    3.0277 H   0  0  0  0  0  0  0  0  0  0  0  0
   -2.0970   -1.0114    2.9051 H   0  0  0  0  0  0  0  0  0  0  0  0
   -0.7860   -2.1580    3.2078 H   0  0  0  0  0  0  0  0  0  0  0  0
   -1.1357   -0.8775    4.3842 H   0  0  0  0  0  0  0  0  0  0  0  0
    0.6950   -1.6003    0.8178 N   0  0  0  0  0  0  0  0  0  0  0  0
    0.8777   -2.0908   -0.5246 C   0  0  2  0  0  0  0  0  0  0  0  0
    2.1122   -1.4078   -1.0995 C   0  0  0  0  0  0  0  0  0  0  0  0
    3.0875   -2.0267   -1.5204 O   0  0  0  0  0  0  0  0  0  0  0  0
   -0.3451   -1.8196   -1.4013 C   0  0  0  0  0  0  0  0  0  0  0  0
   -1.5510   -2.6606   -1.0212 C   0  0  0  0  0  0  0  0  0  0  0  0
   -1.4947   -3.8514   -0.7289 O   0  0  0  0  0  0  0  0  0  0  0  0
   -2.7216   -1.9322   -1.0360 N   0  0  0  0  0  0  0  0  0  0  0  0
    1.1810   -2.0803    1.5718 H   0  0  0  0  0  0  0  0  0  0  0  0
    1.0726   -3.1663   -0.4403 H   0  0  0  0  0  0  0  0  0  0  0  0
   -0.6467   -0.7679   -1.3175 H   0  0  0  0  0  0  0  0  0  0  0  0
   -0.1103   -2.0051   -2.4573 H   0  0  0  0  0  0  0  0  0  0  0  0
   -2.7204   -0.9476   -1.2808 H   0  0  0  0  0  0  0  0  0  0  0  0
   -3.6204   -2.3442   -0.8061 H   0  0  0  0  0  0  0  0  0  0  0  0
    1.9791   -0.0268   -1.1346 N   0  0  0  0  0  0  0  0  0  0  0  0
    3.0138    0.8292   -1.6635 C   0  0  2  0  0  0  0  0  0  0  0  0
    3.2806    0.4101   -3.1032 C   0  0  0  0  0  0  0  0  0  0  0  0
    3.0083   -0.7069   -3.5381 O   0  0  0  0  0  0  0  0  0  0  0  0
    4.2822    0.7446   -0.8288 C   0  0  0  0  0  0  0  0  0  0  0  0
    1.1285    0.4062   -0.7872 H   0  0  0  0  0  0  0  0  0  0  0  0
    2.6183    1.8506   -1.6472 H   0  0  0  0  0  0  0  0  0  0  0  0
    4.6932   -0.2715   -0.8332 H   0  0  0  0  0  0  0  0  0  0  0  0
    5.0565    1.4159   -1.2145 H   0  0  0  0  0  0  0  0  0  0  0  0
    4.0822    1.0177    0.2130 H   0  0  0  0  0  0  0  0  0  0  0  0
    3.8981    1.4158   -3.8335 N   0  0  0  0  0  0  0  0  0  0  0  0
    4.2662    1.2579   -5.2212 C   0  0  0  0  0  0  0  0  0  0  0  0
    4.0693    2.3170   -3.3974 H   0  0  0  0  0  0  0  0  0  0  0  0
    5.3042    0.8997   -5.2873 H   0  0  0  0  0  0  0  0  0  0  0  0
    3.5954    0.5277   -5.6975 H   0  0  0  0  0  0  0  0  0  0  0  0
    4.1791    2.2261   -5.7360 H   0  0  0  0  0  0  0  0  0  0  0  0
  1  3  1  0  0  0  0
  1  7  1  0  0  0  0
  1  2  2  0  0  0  0
 21 22  1  0  0  0  0
 22 24  1  0  0  0  0
 22 23  2  0  0  0  0
 32 33  1  0  0  0  0
 33 41  1  0  0  0  0
 33 34  2  0  0  0  0
  8  9  1  0  0  0  0
  9 17  1  0  0  0  0
  9 10  2  0  0  0  0
 18 19  1  0  0  0  0
 19 31  1  0  0  0  0
 19 20  2  0  0  0  0
 32 35  1  0  0  0  0
  8 11  1  0  0  0  0
 41 42  1  0  0  0  0
 18 21  1  0  0  0  0
 31 32  1  0  0  0  0
  7  8  1  0  0  0  0
 17 18  1  0  0  0  0
  3  4  1  0  0  0  0
  3  5  1  0  0  0  0
  3  6  1  0  0  0  0
 35 38  1  0  0  0  0
 35 39  1  0  0  0  0
 35 40  1  0  0  0  0
 11 14  1  0  0  0  0
 11 15  1  0  0  0  0
 11 16  1  0  0  0  0
 42 44  1  0  0  0  0
 42 45  1  0  0  0  0
 42 46  1  0  0  0  0
 21 27  1  0  0  0  0
 21 28  1  0  0  0  0
 32 37  1  0  0  0  0
  8 13  1  0  0  0  0
 18 26  1  0  0  0  0
 24 29  1  0  0  0  0
 24 30  1  0  0  0  0
 41 43  1  0  0  0  0
  7 12  1  0  0  0  0
 31 36  1  0  0  0  0
 17 25  1  0  0  0  0
M  END
$$$$

  -OEChem-05262214473D

 46 45  0     1  0  0  0  0  0999 V2000
   -0.0543    1.9736    3.8406 C   0  0  0  0  0  0  0  0  0  0  0  0
    0.6744    1.6099    4.7562 O   0  0  0  0  0  0  0  0  0  0  0  0
   -0.5599    3.3779    3.8160 C   0  0  0  0  0  0  0  0  0  0  0  0
   -1.5202    3.4885    4.3450 H   0  0  0  0  0  0  0  0  0  0  0  0
    0.1282    4.0814    4.3116 H   0  0  0  0  0  0  0  0  0  0  0  0
   -0.7317    3.7994    2.8126 H   0  0  0  0  0  0  0  0  0  0  0  0
   -0.4812    1.1968    2.7762 N   0  0  0  0  0  0  0  0  0  0  0  0
   -0.1106   -0.1834    2.6051 C   0  0  2  0  0  0  0  0  0  0  0  0
   -0.0696   -0.4775    1.1113 C   0  0  0  0  0  0  0  0  0  0  0  0
   -0.6805    0.1900    0.2792 O   0  0  0  0  0  0  0  0  0  0  0  0
   -1.0852   -1.1101    3.3150 C   0  0  0  0  0  0  0  0  0  0  0  0
   -1.0883    1.6241    2.0791 H   0  0  0  0  0  0  0  0  0  0  0  0
    0.8937   -0.2959    3.0277 H   0  0  0  0  0  0  0  0  0  0  0  0
   -2.0970   -1.0114    2.9051 H   0  0  0  0  0  0  0  0  0  0  0  0
   -0.7860   -2.1580    3.2078 H   0  0  0  0  0  0  0  0  0  0  0  0
   -1.1357   -0.8775    4.3842 H   0  0  0  0  0  0  0  0  0  0  0  0
    0.6950   -1.6003    0.8178 N   0  0  0  0  0  0  0  0  0  0  0  0
    0.8777   -2.0908   -0.5246 C   0  0  2  0  0  0  0  0  0  0  0  0
    2.1122   -1.4078   -1.0995 C   0  0  0  0  0  0  0  0  0  0  0  0
    2.9635   -2.0023   -1.7577 O   0  0  0  0  0  0  0  0  0  0  0  0
   -0.3451   -1.8196   -1.4013 C   0  0  0  0  0  0  0  0  0  0  0  0
   -1.5510   -2.6606   -1.0212 C   0  0  0  0  0  0  0  0  0  0  0  0
   -1.4947   -3.8514   -0.7289 O   0  0  0  0  0  0  0  0  0  0  0  0
   -2.7216   -1.9322   -1.0360 N   0  0  0  0  0  0  0  0  0  0  0  0
    1.1810   -2.0803    1.5718 H   0  0  0  0  0  0  0  0  0  0  0  0
    1.0726   -3.1663   -0.4403 H   0  0  0  0  0  0  0  0  0  0  0  0
   -0.6467   -0.7679   -1.3175 H   0  0  0  0  0  0  0  0  0  0  0  0
   -0.1103   -2.0051   -2.4573 H   0  0  0  0  0  0  0  0  0  0  0  0
   -2.7204   -0.9476   -1.2808 H   0  0  0  0  0  0  0  0  0  0  0  0
   -3.6204   -2.3442   -0.8061 H   0  0  0  0  0  0  0  0  0  0  0  0
    2.1289   -0.0455   -0.8351 N   0  0  0  0  0  0  0  0  0  0  0  0
    3.1899    0.8129   -1.3048 C   0  0  2  0  0  0  0  0  0  0  0  0
    3.2554    0.6927   -2.8216 C   0  0  0  0  0  0  0  0  0  0  0  0
    2.8174   -0.2769   -3.4372 O   0  0  0  0  0  0  0  0  0  0  0  0
    4.5223    0.4426   -0.6721 C   0  0  0  0  0  0  0  0  0  0  0  0
    1.3726    0.3734   -0.3019 H   0  0  0  0  0  0  0  0  0  0  0  0
    2.9131    1.8368   -1.0306 H   0  0  0  0  0  0  0  0  0  0  0  0
    4.8161   -0.5800   -0.9356 H   0  0  0  0  0  0  0  0  0  0  0  0
    5.3207    1.1128   -1.0076 H   0  0  0  0  0  0  0  0  0  0  0  0
    4.4646    0.5008    0.4202 H   0  0  0  0  0  0  0  0  0  0  0  0
    3.8992    1.7758   -3.4036 N   0  0  0  0  0  0  0  0  0  0  0  0
    4.0990    1.8898   -4.8294 C   0  0  0  0  0  0  0  0  0  0  0  0
    4.2136    2.5439   -2.8180 H   0  0  0  0  0  0  0  0  0  0  0  0
    5.0784    1.4671   -5.0979 H   0  0  0  0  0  0  0  0  0  0  0  0
    3.3054    1.3394   -5.3560 H   0  0  0  0  0  0  0  0  0  0  0  0
    4.0651    2.9500   -5.1207 H   0  0  0  0  0  0  0  0  0  0  0  0
  1  3  1  0  0  0  0
  1  7  1  0  0  0  0
  1  2  2  0  0  0  0
 21 22  1  0  0  0  0
 22 24  1  0  0  0  0
 22 23  2  0  0  0  0
 32 33  1  0  0  0  0
 33 41  1  0  0  0  0
 33 34  2  0  0  0  0
  8  9  1  0  0  0  0
  9 17  1  0  0  0  0
  9 10  2  0  0  0  0
 18 19  1  0  0  0  0
 19 31  1  0  0  0  0
 19 20  2  0  0  0  0
 32 35  1  0  0  0  0
  8 11  1  0  0  0  0
 41 42  1  0  0  0  0
 18 21  1  0  0  0  0
 31 32  1  0  0  0  0
  7  8  1  0  0  0  0
 17 18  1  0  0  0  0
  3  4  1  0  0  0  0
  3  5  1  0  0  0  0
  3  6  1  0  0  0  0
 35 38  1  0  0  0  0
 35 39  1  0  0  0  0
 35 40  1  0  0  0  0
 11 14  1  0  0  0  0
 11 15  1  0  0  0  0
 11 16  1  0  0  0  0
 42 44  1  0  0  0  0
 42 45  1  0  0  0  0
 42 46  1  0  0  0  0
 21 27  1  0  0  0  0
 21 28  1  0  0  0  0
 32 37  1  0  0  0  0
  8 13  1  0  0  0  0
 18 26  1  0  0  0  0
 24 29  1  0  0  0  0
 24 30  1  0  0  0  0
 41 43  1  0  0  0  0
  7 12  1  0  0  0  0
 31 36  1  0  0  0  0
 17 25  1  0  0  0  0
M  END
$$$$

  -OEChem-05262214473D

 46 45  0     1  0  0  0  0  0999 V2000
   -0.0543    1.9736    3.8406 C   0  0  0  0  0  0  0  0  0  0  0  0
    0.6744    1.6099    4.7562 O   0  0  0  0  0  0  0  0  0  0  0  0
   -0.5599    3.3779    3.8160 C   0  0  0  0  0  0  0  0  0  0  0  0
   -1.5202    3.4885    4.3450 H   0  0  0  0  0  0  0  0  0  0  0  0
    0.1282    4.0814    4.3116 H   0  0  0  0  0  0  0  0  0  0  0  0
   -0.7317    3.7994    2.8126 H   0  0  0  0  0  0  0  0  0  0  0  0
   -0.4812    1.1968    2.7762 N   0  0  0  0  0  0  0  0  0  0  0  0
   -0.1106   -0.1834    2.6051 C   0  0  2  0  0  0  0  0  0  0  0  0
   -0.0696   -0.4775    1.1113 C   0  0  0  0  0  0  0  0  0  0  0  0
   -0.6805    0.1900    0.2792 O   0  0  0  0  0  0  0  0  0  0  0  0
   -1.0852   -1.1101    3.3150 C   0  0  0  0  0  0  0  0  0  0  0  0
   -1.0883    1.6241    2.0791 H   0  0  0  0  0  0  0  0  0  0  0  0
    0.8937   -0.2959    3.0277 H   0  0  0  0  0  0  0  0  0  0  0  0
   -2.0970   -1.0114    2.9051 H   0  0  0  0  0  0  0  0  0  0  0  0
   -0.7860   -2.1580    3.2078 H   0  0  0  0  0  0  0  0  0  0  0  0
   -1.1357   -0.8775    4.3842 H   0  0  0  0  0  0  0  0  0  0  0  0
    0.6950   -1.6003    0.8178 N   0  0  0  0  0  0  0  0  0  0  0  0
    0.8777   -2.0908   -0.5246 C   0  0  2  0  0  0  0  0  0  0  0  0
    2.1122   -1.4078   -1.0995 C   0  0  0  0  0  0  0  0  0  0  0  0
    2.8186   -1.9169   -1.9674 O   0  0  0  0  0  0  0  0  0  0  0  0
   -0.3451   -1.8196   -1.4013 C   0  0  0  0  0  0  0  0  0  0  0  0
   -1.5510   -2.6606   -1.0212 C   0  0  0  0  0  0  0  0  0  0  0  0
   -1.4947   -3.8514   -0.7289 O   0  0  0  0  0  0  0  0  0  0  0  0
   -2.7216   -1.9322   -1.0360 N   0  0  0  0  0  0  0  0  0  0  0  0
    1.1810   -2.0803    1.5718 H   0  0  0  0  0  0  0  0  0  0  0  0
    1.0726   -3.1663   -0.4403 H   0  0  0  0  0  0  0  0  0  0  0  0
   -0.6467   -0.7679   -1.3175 H   0  0  0  0  0  0  0  0  0  0  0  0
   -0.1103   -2.0051   -2.4573 H   0  0  0  0  0  0  0  0  0  0  0  0
   -2.7204   -0.9476   -1.2808 H   0  0  0  0  0  0  0  0  0  0  0  0
   -3.6204   -2.3442   -0.8061 H   0  0  0  0  0  0  0  0  0  0  0  0
    2.3065   -0.1410   -0.5671 N   0  0  0  0  0  0  0  0  0  0  0  0
    3.3999    0.7048   -0.9821 C   0  0  2  0  0  0  0  0  0  0  0  0
    3.2913    0.9092   -2.4874 C   0  0  0  0  0  0  0  0  0  0  0  0
    2.6867    0.1359   -3.2274 O   0  0  0  0  0  0  0  0  0  0  0  0
    4.7428    0.0946   -0.6119 C   0  0  0  0  0  0  0  0  0  0  0  0
    1.6615    0.2161    0.1316 H   0  0  0  0  0  0  0  0  0  0  0  0
    3.2680    1.6653   -0.4721 H   0  0  0  0  0  0  0  0  0  0  0  0
    4.8929   -0.8684   -1.1135 H   0  0  0  0  0  0  0  0  0  0  0  0
    5.5702    0.7507   -0.9019 H   0  0  0  0  0  0  0  0  0  0  0  0
    4.8076   -0.0792    0.4676 H   0  0  0  0  0  0  0  0  0  0  0  0
    3.9852    2.0332   -2.9129 N   0  0  0  0  0  0  0  0  0  0  0  0
    4.0447    2.4344   -4.2991 C   0  0  0  0  0  0  0  0  0  0  0  0
    4.4423    2.6274   -2.2275 H   0  0  0  0  0  0  0  0  0  0  0  0
    4.9378    1.9975   -4.7698 H   0  0  0  0  0  0  0  0  0  0  0  0
    3.1442    2.0801   -4.8221 H   0  0  0  0  0  0  0  0  0  0  0  0
    4.0971    3.5314   -4.3613 H   0  0  0  0  0  0  0  0  0  0  0  0
  1  3  1  0  0  0  0
  1  7  1  0  0  0  0
  1  2  2  0  0  0  0
 21 22  1  0  0  0  0
 22 24  1  0  0  0  0
 22 23  2  0  0  0  0
 32 33  1  0  0  0  0
 33 41  1  0  0  0  0
 33 34  2  0  0  0  0
  8  9  1  0  0  0  0
  9 17  1  0  0  0  0
  9 10  2  0  0  0  0
 18 19  1  0  0  0  0
 19 31  1  0  0  0  0
 19 20  2  0  0  0  0
 32 35  1  0  0  0  0
  8 11  1  0  0  0  0
 41 42  1  0  0  0  0
 18 21  1  0  0  0  0
 31 32  1  0  0  0  0
  7  8  1  0  0  0  0
 17 18  1  0  0  0  0
  3  4  1  0  0  0  0
  3  5  1  0  0  0  0
  3  6  1  0  0  0  0
 35 38  1  0  0  0  0
 35 39  1  0  0  0  0
 35 40  1  0  0  0  0
 11 14  1  0  0  0  0
 11 15  1  0  0  0  0
 11 16  1  0  0  0  0
 42 44  1  0  0  0  0
 42 45  1  0  0  0  0
 42 46  1  0  0  0  0
 21 27  1  0  0  0  0
 21 28  1  0  0  0  0
 32 37  1  0  0  0  0
  8 13  1  0  0  0  0
 18 26  1  0  0  0  0
 24 29  1  0  0  0  0
 24 30  1  0  0  0  0
 41 43  1  0  0  0  0
  7 12  1  0  0  0  0
 31 36  1  0  0  0  0
 17 25  1  0  0  0  0
M  END
$$$$

  -OEChem-05262214473D

 46 45  0     1  0  0  0  0  0999 V2000
   -0.0543    1.9736    3.8406 C   0  0  0  0  0  0  0  0  0  0  0  0
    0.6744    1.6099    4.7562 O   0  0  0  0  0  0  0  0  0  0  0  0
   -0.5599    3.3779    3.8160 C   0  0  0  0  0  0  0  0  0  0  0  0
   -1.5202    3.4885    4.3450 H   0  0  0  0  0  0  0  0  0  0  0  0
    0.1282    4.0814    4.3116 H   0  0  0  0  0  0  0  0  0  0  0  0
   -0.7317    3.7994    2.8126 H   0  0  0  0  0  0  0  0  0  0  0  0
   -0.4812    1.1968    2.7762 N   0  0  0  0  0  0  0  0  0  0  0  0
   -0.1106   -0.1834    2.6051 C   0  0  2  0  0  0  0  0  0  0  0  0
   -0.0696   -0.4775    1.1113 C   0  0  0  0  0  0  0  0  0  0  0  0
   -0.6805    0.1900    0.2792 O   0  0  0  0  0  0  0  0  0  0  0  0
   -1.0852   -1.1101    3.3150 C   0  0  0  0  0  0  0  0  0  0  0  0
   -1.0883    1.6241    2.0791 H   0  0  0  0  0  0  0  0  0  0  0  0
    0.8937   -0.2959    3.0277 H   0  0  0  0  0  0  0  0  0  0  0  0
   -2.0970   -1.0114    2.9051 H   0  0  0  0  0  0  0  0  0  0  0  0
   -0.7860   -2.1580    3.2078 H   0  0  0  0  0  0  0  0  0  0  0  0
   -1.1357   -0.8775    4.3842 H   0  0  0  0  0  0  0  0  0  0  0  0
    0.6950   -1.6003    0.8178 N   0  0  0  0  0  0  0  0  0  0  0  0
    0.8777   -2.0908   -0.5246 C   0  0  2  0  0  0  0  0  0  0  0  0
    2.1122   -1.4078   -1.0995 C   0  0  0  0  0  0  0  0  0  0  0  0
    2.6626   -1.7762   -2.1352 O   0  0  0  0  0  0  0  0  0  0  0  0
   -0.3451   -1.8196   -1.4013 C   0  0  0  0  0  0  0  0  0  0  0  0
   -1.5510   -2.6606   -1.0212 C   0  0  0  0  0  0  0  0  0  0  0  0
   -1.4947   -3.8514   -0.7289 O   0  0  0  0  0  0  0  0  0  0  0  0
   -2.7216   -1.9322   -1.0360 N   0  0  0  0  0  0  0  0  0  0  0  0
    1.1810   -2.0803    1.5718 H   0  0  0  0  0  0  0  0  0  0  0  0
    1.0726   -3.1663   -0.4403 H   0  0  0  0  0  0  0  0  0  0  0  0
   -0.6467   -0.7679   -1.3175 H   0  0  0  0  0  0  0  0  0  0  0  0
   -0.1103   -2.0051   -2.4573 H   0  0  0  0  0  0  0  0  0  0  0  0
   -2.7204   -0.9476   -1.2808 H   0  0  0  0  0  0  0  0  0  0  0  0
   -3.6204   -2.3442   -0.8061 H   0  0  0  0  0  0  0  0  0  0  0  0
    2.4999   -0.3068   -0.3488 N   0  0  0  0  0  0  0  0  0  0  0  0
    3.6297    0.5122   -0.7175 C   0  0  2  0  0  0  0  0  0  0  0  0
    3.3858    1.0446   -2.1233 C   0  0  0  0  0  0  0  0  0  0  0  0
    2.6251    0.5034   -2.9230 O   0  0  0  0  0  0  0  0  0  0  0  0
    4.9289   -0.2757   -0.6524 C   0  0  0  0  0  0  0  0  0  0  0  0
    1.9755   -0.0549    0.4839 H   0  0  0  0  0  0  0  0  0  0  0  0
    3.6589    1.3479   -0.0098 H   0  0  0  0  0  0  0  0  0  0  0  0
    4.9182   -1.1172   -1.3547 H   0  0  0  0  0  0  0  0  0  0  0  0
    5.7881    0.3545   -0.9047 H   0  0  0  0  0  0  0  0  0  0  0  0
    5.0878   -0.6829    0.3519 H   0  0  0  0  0  0  0  0  0  0  0  0
    4.1504    2.1706   -2.3949 N   0  0  0  0  0  0  0  0  0  0  0  0
    4.1069    2.8545   -3.6663 C   0  0  0  0  0  0  0  0  0  0  0  0
    4.7399    2.5619   -1.6662 H   0  0  0  0  0  0  0  0  0  0  0  0
    4.8918    2.4547   -4.3253 H   0  0  0  0  0  0  0  0  0  0  0  0
    3.1228    2.6993   -4.1325 H   0  0  0  0  0  0  0  0  0  0  0  0
    4.2729    3.9305   -3.5096 H   0  0  0  0  0  0  0  0  0  0  0  0
  1  3  1  0  0  0  0
  1  7  1  0  0  0  0
  1  2  2  0  0  0  0
 21 22  1  0  0  0  0
 22 24  1  0  0  0  0
 22 23  2  0  0  0  0
 32 33  1  0  0  0  0
 33 41  1  0  0  0  0
 33 34  2  0  0  0  0
  8  9  1  0  0  0  0
  9 17  1  0  0  0  0
  9 10  2  0  0  0  0
 18 19  1  0  0  0  0
 19 31  1  0  0  0  0
 19 20  2  0  0  0  0
 32 35  1  0  0  0  0
  8 11  1  0  0  0  0
 41 42  1  0  0  0  0
 18 21  1  0  0  0  0
 31 32  1  0  0  0  0
  7  8  1  0  0  0  0
 17 18  1  0  0  0  0
  3  4  1  0  0  0  0
  3  5  1  0  0  0  0
  3  6  1  0  0  0  0
 35 38  1  0  0  0  0
 35 39  1  0  0  0  0
 35 40  1  0  0  0  0
 11 14  1  0  0  0  0
 11 15  1  0  0  0  0
 11 16  1  0  0  0  0
 42 44  1  0  0  0  0
 42 45  1  0  0  0  0
 42 46  1  0  0  0  0
 21 27  1  0  0  0  0
 21 28  1  0  0  0  0
 32 37  1  0  0  0  0
  8 13  1  0  0  0  0
 18 26  1  0  0  0  0
 24 29  1  0  0  0  0
 24 30  1  0  0  0  0
 41 43  1  0  0  0  0
  7 12  1  0  0  0  0
 31 36  1  0  0  0  0
 17 25  1  0  0  0  0
M  END
$$$$

  -OEChem-05262214473D

 46 45  0     1  0  0  0  0  0999 V2000
   -0.0543    1.9736    3.8406 C   0  0  0  0  0  0  0  0  0  0  0  0
    0.6744    1.6099    4.7562 O   0  0  0  0  0  0  0  0  0  0  0  0
   -0.5599    3.3779    3.8160 C   0  0  0  0  0  0  0  0  0  0  0  0
   -1.5202    3.4885    4.3450 H   0  0  0  0  0  0  0  0  0  0  0  0
    0.1282    4.0814    4.3116 H   0  0  0  0  0  0  0  0  0  0  0  0
   -0.7317    3.7994    2.8126 H   0  0  0  0  0  0  0  0  0  0  0  0
   -0.4812    1.1968    2.7762 N   0  0  0  0  0  0  0  0  0  0  0  0
   -0.1106   -0.1834    2.6051 C   0  0  2  0  0  0  0  0  0  0  0  0
   -0.0696   -0.4775    1.1113 C   0  0  0  0  0  0  0  0  0  0  0  0
   -0.6805    0.1900    0.2792 O   0  0  0  0  0  0  0  0  0  0  0  0
   -1.0852   -1.1101    3.3150 C   0  0  0  0  0  0  0  0  0  0  0  0
   -1.0883    1.6241    2.0791 H   0  0  0  0  0  0  0  0  0  0  0  0
    0.8937   -0.2959    3.0277 H   0  0  0  0  0  0  0  0  0  0  0  0
   -2.0970   -1.0114    2.9051 H   0  0  0  0  0  0  0  0  0  0  0  0
   -0.7860   -2.1580    3.2078 H   0  0  0  0  0  0  0  0  0  0  0  0
   -1.1357   -0.8775    4.3842 H   0  0  0  0  0  0  0  0  0  0  0  0
    0.6950   -1.6003    0.8178 N   0  0  0  0  0  0  0  0  0  0  0  0
    0.8777   -2.0908   -0.5246 C   0  0  2  0  0  0  0  0  0  0  0  0
    2.1122   -1.4078   -1.0995 C   0  0  0  0  0  0  0  0  0  0  0  0
    2.5063   -1.5900   -2.2497 O   0  0  0  0  0  0  0  0  0  0  0  0
   -0.3451   -1.8196   -1.4013 C   0  0  0  0  0  0  0  0  0  0  0  0
   -1.5510   -2.6606   -1.0212 C   0  0  0  0  0  0  0  0  0  0  0  0
   -1.4947   -3.8514   -0.7289 O   0  0  0  0  0  0  0  0  0  0  0  0
   -2.7216   -1.9322   -1.0360 N   0  0  0  0  0  0  0  0  0  0  0  0
    1.1810   -2.0803    1.5718 H   0  0  0  0  0  0  0  0  0  0  0  0
    1.0726   -3.1663   -0.4403 H   0  0  0  0  0  0  0  0  0  0  0  0
   -0.6467   -0.7679   -1.3175 H   0  0  0  0  0  0  0  0  0  0  0  0
   -0.1103   -2.0051   -2.4573 H   0  0  0  0  0  0  0  0  0  0  0  0
   -2.7204   -0.9476   -1.2808 H   0  0  0  0  0  0  0  0  0  0  0  0
   -3.6204   -2.3442   -0.8061 H   0  0  0  0  0  0  0  0  0  0  0  0
    2.6958   -0.5316   -0.1952 N   0  0  0  0  0  0  0  0  0  0  0  0
    3.8636    0.2482   -0.5289 C   0  0  2  0  0  0  0  0  0  0  0  0
    3.5327    1.0899   -1.7543 C   0  0  0  0  0  0  0  0  0  0  0  0
    2.6368    0.8006   -2.5447 O   0  0  0  0  0  0  0  0  0  0  0  0
    5.0677   -0.6431   -0.7907 C   0  0  0  0  0  0  0  0  0  0  0  0
    2.2931   -0.4213    0.7308 H   0  0  0  0  0  0  0  0  0  0  0  0
    4.0591    0.9061    0.3248 H   0  0  0  0  0  0  0  0  0  0  0  0
    4.8904   -1.3094   -1.6428 H   0  0  0  0  0  0  0  0  0  0  0  0
    5.9596   -0.0490   -1.0157 H   0  0  0  0  0  0  0  0  0  0  0  0
    5.2860   -1.2692    0.0811 H   0  0  0  0  0  0  0  0  0  0  0  0
    4.3835    2.1785   -1.8849 N   0  0  0  0  0  0  0  0  0  0  0  0
    4.2815    3.1214   -2.9742 C   0  0  0  0  0  0  0  0  0  0  0  0
    5.0862    2.3519   -1.1722 H   0  0  0  0  0  0  0  0  0  0  0  0
    4.9436    2.8077   -3.7947 H   0  0  0  0  0  0  0  0  0  0  0  0
    3.2425    3.1549   -3.3339 H   0  0  0  0  0  0  0  0  0  0  0  0
    4.5805    4.1203   -2.6235 H   0  0  0  0  0  0  0  0  0  0  0  0
  1  3  1  0  0  0  0
  1  7  1  0  0  0  0
  1  2  2  0  0  0  0
 21 22  1  0  0  0  0
 22 24  1  0  0  0  0
 22 23  2  0  0  0  0
 32 33  1  0  0  0  0
 33 41  1  0  0  0  0
 33 34  2  0  0  0  0
  8  9  1  0  0  0  0
  9 17  1  0  0  0  0
  9 10  2  0  0  0  0
 18 19  1  0  0  0  0
 19 31  1  0  0  0  0
 19 20  2  0  0  0  0
 32 35  1  0  0  0  0
  8 11  1  0  0  0  0
 41 42  1  0  0  0  0
 18 21  1  0  0  0  0
 31 32  1  0  0  0  0
  7  8  1  0  0  0  0
 17 18  1  0  0  0  0
  3  4  1  0  0  0  0
  3  5  1  0  0  0  0
  3  6  1  0  0  0  0
 35 38  1  0  0  0  0
 35 39  1  0  0  0  0
 35 40  1  0  0  0  0
 11 14  1  0  0  0  0
 11 15  1  0  0  0  0
 11 16  1  0  0  0  0
 42 44  1  0  0  0  0
 42 45  1  0  0  0  0
 42 46  1  0  0  0  0
 21 27  1  0  0  0  0
 21 28  1  0  0  0  0
 32 37  1  0  0  0  0
  8 13  1  0  0  0  0
 18 26  1  0  0  0  0
 24 29  1  0  0  0  0
 24 30  1  0  0  0  0
 41 43  1  0  0  0  0
  7 12  1  0  0  0  0
 31 36  1  0  0  0  0
 17 25  1  0  0  0  0
M  END
$$$$

  -OEChem-05262214473D

 46 45  0     1  0  0  0  0  0999 V2000
   -0.0543    1.9736    3.8406 C   0  0  0  0  0  0  0  0  0  0  0  0
    0.6744    1.6099    4.7562 O   0  0  0  0  0  0  0  0  0  0  0  0
   -0.5599    3.3779    3.8160 C   0  0  0  0  0  0  0  0  0  0  0  0
   -1.5202    3.4885    4.3450 H   0  0  0  0  0  0  0  0  0  0  0  0
    0.1282    4.0814    4.3116 H   0  0  0  0  0  0  0  0  0  0  0  0
   -0.7317    3.7994    2.8126 H   0  0  0  0  0  0  0  0  0  0  0  0
   -0.4812    1.1968    2.7762 N   0  0  0  0  0  0  0  0  0  0  0  0
   -0.1106   -0.1834    2.6051 C   0  0  2  0  0  0  0  0  0  0  0  0
   -0.0696   -0.4775    1.1113 C   0  0  0  0  0  0  0  0  0  0  0  0
   -0.6805    0.1900    0.2792 O   0  0  0  0  0  0  0  0  0  0  0  0
   -1.0852   -1.1101    3.3150 C   0  0  0  0  0  0  0  0  0  0  0  0
   -1.0883    1.6241    2.0791 H   0  0  0  0  0  0  0  0  0  0  0  0
    0.8937   -0.2959    3.0277 H   0  0  0  0  0  0  0  0  0  0  0  0
   -2.0970   -1.0114    2.9051 H   0  0  0  0  0  0  0  0  0  0  0  0
   -0.7860   -2.1580    3.2078 H   0  0  0  0  0  0  0  0  0  0  0  0
   -1.1357   -0.8775    4.3842 H   0  0  0  0  0  0  0  0  0  0  0  0
    0.6950   -1.6003    0.8178 N   0  0  0  0  0  0  0  0  0  0  0  0
    0.8777   -2.0908   -0.5246 C   0  0  2  0  0  0  0  0  0  0  0  0
    2.1122   -1.4078   -1.0995 C   0  0  0  0  0  0  0  0  0  0  0  0
    2.3601   -1.3707   -2.3031 O   0  0  0  0  0  0  0  0  0  0  0  0
   -0.3451   -1.8196   -1.4013 C   0  0  0  0  0  0  0  0  0  0  0  0
   -1.5510   -2.6606   -1.0212 C   0  0  0  0  0  0  0  0  0  0  0  0
   -1.4947   -3.8514   -0.7289 O   0  0  0  0  0  0  0  0  0  0  0  0
   -2.7216   -1.9322   -1.0360 N   0  0  0  0  0  0  0  0  0  0  0  0
    1.1810   -2.0803    1.5718 H   0  0  0  0  0  0  0  0  0  0  0  0
    1.0726   -3.1663   -0.4403 H   0  0  0  0  0  0  0  0  0  0  0  0
   -0.6467   -0.7679   -1.3175 H   0  0  0  0  0  0  0  0  0  0  0  0
   -0.1103   -2.0051   -2.4573 H   0  0  0  0  0  0  0  0  0  0  0  0
   -2.7204   -0.9476   -1.2808 H   0  0  0  0  0  0  0  0  0  0  0  0
   -3.6204   -2.3442   -0.8061 H   0  0  0  0  0  0  0  0  0  0  0  0
    2.8809   -0.8000   -0.1167 N   0  0  0  0  0  0  0  0  0  0  0  0
    4.0856   -0.0692   -0.4293 C   0  0  2  0  0  0  0  0  0  0  0  0
    3.7217    1.0418   -1.4053 C   0  0  0  0  0  0  0  0  0  0  0  0
    2.7210    1.0072   -2.1184 O   0  0  0  0  0  0  0  0  0  0  0  0
    5.1499   -0.9824   -1.0175 C   0  0  0  0  0  0  0  0  0  0  0  0
    2.5929   -0.8580    0.8557 H   0  0  0  0  0  0  0  0  0  0  0  0
    4.4414    0.3702    0.5090 H   0  0  0  0  0  0  0  0  0  0  0  0
    4.8114   -1.4320   -1.9582 H   0  0  0  0  0  0  0  0  0  0  0  0
    6.0729   -0.4321   -1.2276 H   0  0  0  0  0  0  0  0  0  0  0  0
    5.3888   -1.7980   -0.3265 H   0  0  0  0  0  0  0  0  0  0  0  0
    4.6686    2.0564   -1.4177 N   0  0  0  0  0  0  0  0  0  0  0  0
    4.5565    3.2171   -2.2699 C   0  0  0  0  0  0  0  0  0  0  0  0
    5.4574    2.0116   -0.7793 H   0  0  0  0  0  0  0  0  0  0  0  0
    5.0896    3.0322   -3.2142 H   0  0  0  0  0  0  0  0  0  0  0  0
    3.4954    3.4158   -2.4809 H   0  0  0  0  0  0  0  0  0  0  0  0
    4.9989    4.0877   -1.7636 H   0  0  0  0  0  0  0  0  0  0  0  0
  1  3  1  0  0  0  0
  1  7  1  0  0  0  0
  1  2  2  0  0  0  0
 21 22  1  0  0  0  0
 22 24  1  0  0  0  0
 22 23  2  0  0  0  0
 32 33  1  0  0  0  0
 33 41  1  0  0  0  0
 33 34  2  0  0  0  0
  8  9  1  0  0  0  0
  9 17  1  0  0  0  0
  9 10  2  0  0  0  0
 18 19  1  0  0  0  0
 19 31  1  0  0  0  0
 19 20  2  0  0  0  0
 32 35  1  0  0  0  0
  8 11  1  0  0  0  0
 41 42  1  0  0  0  0
 18 21  1  0  0  0  0
 31 32  1  0  0  0  0
  7  8  1  0  0  0  0
 17 18  1  0  0  0  0
  3  4  1  0  0  0  0
  3  5  1  0  0  0  0
  3  6  1  0  0  0  0
 35 38  1  0  0  0  0
 35 39  1  0  0  0  0
 35 40  1  0  0  0  0
 11 14  1  0  0  0  0
 11 15  1  0  0  0  0
 11 16  1  0  0  0  0
 42 44  1  0  0  0  0
 42 45  1  0  0  0  0
 42 46  1  0  0  0  0
 21 27  1  0  0  0  0
 21 28  1  0  0  0  0
 32 37  1  0  0  0  0
  8 13  1  0  0  0  0
 18 26  1  0  0  0  0
 24 29  1  0  0  0  0
 24 30  1  0  0  0  0
 41 43  1  0  0  0  0
  7 12  1  0  0  0  0
 31 36  1  0  0  0  0
 17 25  1  0  0  0  0
M  END
$$$$

  -OEChem-05262214473D

 46 45  0     1  0  0  0  0  0999 V2000
   -0.0543    1.9736    3.8406 C   0  0  0  0  0  0  0  0  0  0  0  0
    0.6744    1.6099    4.7562 O   0  0  0  0  0  0  0  0  0  0  0  0
   -0.5599    3.3779    3.8160 C   0  0  0  0  0  0  0  0  0  0  0  0
   -1.5202    3.4885    4.3450 H   0  0  0  0  0  0  0  0  0  0  0  0
    0.1282    4.0814    4.3116 H   0  0  0  0  0  0  0  0  0  0  0  0
   -0.7317    3.7994    2.8126 H   0  0  0  0  0  0  0  0  0  0  0  0
   -0.4812    1.1968    2.7762 N   0  0  0  0  0  0  0  0  0  0  0  0
   -0.1106   -0.1834    2.6051 C   0  0  2  0  0  0  0  0  0  0  0  0
   -0.0696   -0.4775    1.1113 C   0  0  0  0  0  0  0  0  0  0  0  0
   -0.6805    0.1900    0.2792 O   0  0  0  0  0  0  0  0  0  0  0  0
   -1.0852   -1.1101    3.3150 C   0  0  0  0  0  0  0  0  0  0  0  0
   -1.0883    1.6241    2.0791 H   0  0  0  0  0  0  0  0  0  0  0  0
    0.8937   -0.2959    3.0277 H   0  0  0  0  0  0  0  0  0  0  0  0
   -2.0970   -1.0114    2.9051 H   0  0  0  0  0  0  0  0  0  0  0  0
   -0.7860   -2.1580    3.2078 H   0  0  0  0  0  0  0  0  0  0  0  0
   -1.1357   -0.8775    4.3842 H   0  0  0  0  0  0  0  0  0  0  0  0
    0.6950   -1.6003    0.8178 N   0  0  0  0  0  0  0  0  0  0  0  0
    0.8777   -2.0908   -0.5246 C   0  0  2  0  0  0  0  0  0  0  0  0
    2.1122   -1.4078   -1.0995 C   0  0  0  0  0  0  0  0  0  0  0  0
    2.2342   -1.1335   -2.2917 O   0  0  0  0  0  0  0  0  0  0  0  0
   -0.3451   -1.8196   -1.4013 C   0  0  0  0  0  0  0  0  0  0  0  0
   -1.5510   -2.6606   -1.0212 C   0  0  0  0  0  0  0  0  0  0  0  0
   -1.4947   -3.8514   -0.7289 O   0  0  0  0  0  0  0  0  0  0  0  0
   -2.7216   -1.9322   -1.0360 N   0  0  0  0  0  0  0  0  0  0  0  0
    1.1810   -2.0803    1.5718 H   0  0  0  0  0  0  0  0  0  0  0  0
    1.0726   -3.1663   -0.4403 H   0  0  0  0  0  0  0  0  0  0  0  0
   -0.6467   -0.7679   -1.3175 H   0  0  0  0  0  0  0  0  0  0  0  0
   -0.1103   -2.0051   -2.4573 H   0  0  0  0  0  0  0  0  0  0  0  0
   -2.7204   -0.9476   -1.2808 H   0  0  0  0  0  0  0  0  0  0  0  0
   -3.6204   -2.3442   -0.8061 H   0  0  0  0  0  0  0  0  0  0  0  0
    3.0426   -1.0939   -0.1187 N   0  0  0  0  0  0  0  0  0  0  0  0
    4.2806   -0.4184   -0.4254 C   0  0  2  0  0  0  0  0  0  0  0  0
    3.9401    0.9038   -1.1003 C   0  0  0  0  0  0  0  0  0  0  0  0
    2.8720    1.1091   -1.6730 O   0  0  0  0  0  0  0  0  0  0  0  0
    5.1698   -1.2707   -1.3173 C   0  0  0  0  0  0  0  0  0  0  0  0
    2.8543   -1.3352    0.8499 H   0  0  0  0  0  0  0  0  0  0  0  0
    4.7797   -0.2235    0.5301 H   0  0  0  0  0  0  0  0  0  0  0  0
    4.6864   -1.4764   -2.2793 H   0  0  0  0  0  0  0  0  0  0  0  0
    6.1204   -0.7689   -1.5257 H   0  0  0  0  0  0  0  0  0  0  0  0
    5.3892   -2.2334   -0.8430 H   0  0  0  0  0  0  0  0  0  0  0  0
    4.9863    1.8127   -1.0251 N   0  0  0  0  0  0  0  0  0  0  0  0
    4.9132    3.1350   -1.6015 C   0  0  0  0  0  0  0  0  0  0  0  0
    5.8283    1.5642   -0.5142 H   0  0  0  0  0  0  0  0  0  0  0  0
    5.3200    3.1131   -2.6233 H   0  0  0  0  0  0  0  0  0  0  0  0
    3.8641    3.4642   -1.6316 H   0  0  0  0  0  0  0  0  0  0  0  0
    5.4997    3.8350   -0.9884 H   0  0  0  0  0  0  0  0  0  0  0  0
  1  3  1  0  0  0  0
  1  7  1  0  0  0  0
  1  2  2  0  0  0  0
 21 22  1  0  0  0  0
 22 24  1  0  0  0  0
 22 23  2  0  0  0  0
 32 33  1  0  0  0  0
 33 41  1  0  0  0  0
 33 34  2  0  0  0  0
  8  9  1  0  0  0  0
  9 17  1  0  0  0  0
  9 10  2  0  0  0  0
 18 19  1  0  0  0  0
 19 31  1  0  0  0  0
 19 20  2  0  0  0  0
 32 35  1  0  0  0  0
  8 11  1  0  0  0  0
 41 42  1  0  0  0  0
 18 21  1  0  0  0  0
 31 32  1  0  0  0  0
  7  8  1  0  0  0  0
 17 18  1  0  0  0  0
  3  4  1  0  0  0  0
  3  5  1  0  0  0  0
  3  6  1  0  0  0  0
 35 38  1  0  0  0  0
 35 39  1  0  0  0  0
 35 40  1  0  0  0  0
 11 14  1  0  0  0  0
 11 15  1  0  0  0  0
 11 16  1  0  0  0  0
 42 44  1  0  0  0  0
 42 45  1  0  0  0  0
 42 46  1  0  0  0  0
 21 27  1  0  0  0  0
 21 28  1  0  0  0  0
 32 37  1  0  0  0  0
  8 13  1  0  0  0  0
 18 26  1  0  0  0  0
 24 29  1  0  0  0  0
 24 30  1  0  0  0  0
 41 43  1  0  0  0  0
  7 12  1  0  0  0  0
 31 36  1  0  0  0  0
 17 25  1  0  0  0  0
M  END
$$$$

  -OEChem-05262214473D

 46 45  0     1  0  0  0  0  0999 V2000
   -0.0543    1.9736    3.8406 C   0  0  0  0  0  0  0  0  0  0  0  0
    0.6744    1.6099    4.7562 O   0  0  0  0  0  0  0  0  0  0  0  0
   -0.5599    3.3779    3.8160 C   0  0  0  0  0  0  0  0  0  0  0  0
   -1.5202    3.4885    4.3450 H   0  0  0  0  0  0  0  0  0  0  0  0
    0.1282    4.0814    4.3116 H   0  0  0  0  0  0  0  0  0  0  0  0
   -0.7317    3.7994    2.8126 H   0  0  0  0  0  0  0  0  0  0  0  0
   -0.4812    1.1968    2.7762 N   0  0  0  0  0  0  0  0  0  0  0  0
   -0.1106   -0.1834    2.6051 C   0  0  2  0  0  0  0  0  0  0  0  0
   -0.0696   -0.4775    1.1113 C   0  0  0  0  0  0  0  0  0  0  0  0
   -0.6805    0.1900    0.2792 O   0  0  0  0  0  0  0  0  0  0  0  0
   -1.0852   -1.1101    3.3150 C   0  0  0  0  0  0  0  0  0  0  0  0
   -1.0883    1.6241    2.0791 H   0  0  0  0  0  0  0  0  0  0  0  0
    0.8937   -0.2959    3.0277 H   0  0  0  0  0  0  0  0  0  0  0  0
   -2.0970   -1.0114    2.9051 H   0  0  0  0  0  0  0  0  0  0  0  0
   -0.7860   -2.1580    3.2078 H   0  0  0  0  0  0  0  0  0  0  0  0
   -1.1357   -0.8775    4.3842 H   0  0  0  0  0  0  0  0  0  0  0  0
    0.6950   -1.6003    0.8178 N   0  0  0  0  0  0  0  0  0  0  0  0
    0.8777   -2.0908   -0.5246 C   0  0  2  0  0  0  0  0  0  0  0  0
    2.1122   -1.4078   -1.0995 C   0  0  0  0  0  0  0  0  0  0  0  0
    2.1370   -0.8945   -2.2163 O   0  0  0  0  0  0  0  0  0  0  0  0
   -0.3451   -1.8196   -1.4013 C   0  0  0  0  0  0  0  0  0  0  0  0
   -1.5510   -2.6606   -1.0212 C   0  0  0  0  0  0  0  0  0  0  0  0
   -1.4947   -3.8514   -0.7289 O   0  0  0  0  0  0  0  0  0  0  0  0
   -2.7216   -1.9322   -1.0360 N   0  0  0  0  0  0  0  0  0  0  0  0
    1.1810   -2.0803    1.5718 H   0  0  0  0  0  0  0  0  0  0  0  0
    1.0726   -3.1663   -0.4403 H   0  0  0  0  0  0  0  0  0  0  0  0
   -0.6467   -0.7679   -1.3175 H   0  0  0  0  0  0  0  0  0  0  0  0
   -0.1103   -2.0051   -2.4573 H   0  0  0  0  0  0  0  0  0  0  0  0
   -2.7204   -0.9476   -1.2808 H   0  0  0  0  0  0  0  0  0  0  0  0
   -3.6204   -2.3442   -0.8061 H   0  0  0  0  0  0  0  0  0  0  0  0
    3.1698   -1.3932   -0.2010 N   0  0  0  0  0  0  0  0  0  0  0  0
    4.4352   -0.7755   -0.5175 C   0  0  2  0  0  0  0  0  0  0  0  0
    4.1730    0.6852   -0.8599 C   0  0  0  0  0  0  0  0  0  0  0  0
    3.0795    1.0994   -1.2390 O   0  0  0  0  0  0  0  0  0  0  0  0
    5.1261   -1.4883   -1.6696 C   0  0  0  0  0  0  0  0  0  0  0  0
    3.0594   -1.8206    0.7139 H   0  0  0  0  0  0  0  0  0  0  0  0
    5.0509   -0.8344    0.3867 H   0  0  0  0  0  0  0  0  0  0  0  0
    4.5241   -1.4399   -2.5844 H   0  0  0  0  0  0  0  0  0  0  0  0
    6.0988   -1.0362   -1.8897 H   0  0  0  0  0  0  0  0  0  0  0  0
    5.2871   -2.5457   -1.4333 H   0  0  0  0  0  0  0  0  0  0  0  0
    5.3149    1.4639   -0.7339 N   0  0  0  0  0  0  0  0  0  0  0  0
    5.3273    2.8806   -1.0145 C   0  0  0  0  0  0  0  0  0  0  0  0
    6.1737    1.0403   -0.3951 H   0  0  0  0  0  0  0  0  0  0  0  0
    5.6190    3.0449   -2.0623 H   0  0  0  0  0  0  0  0  0  0  0  0
    4.3235    3.2969   -0.8439 H   0  0  0  0  0  0  0  0  0  0  0  0
    6.0487    3.3794   -0.3506 H   0  0  0  0  0  0  0  0  0  0  0  0
  1  3  1  0  0  0  0
  1  7  1  0  0  0  0
  1  2  2  0  0  0  0
 21 22  1  0  0  0  0
 22 24  1  0  0  0  0
 22 23  2  0  0  0  0
 32 33  1  0  0  0  0
 33 41  1  0  0  0  0
 33 34  2  0  0  0  0
  8  9  1  0  0  0  0
  9 17  1  0  0  0  0
  9 10  2  0  0  0  0
 18 19  1  0  0  0  0
 19 31  1  0  0  0  0
 19 20  2  0  0  0  0
 32 35  1  0  0  0  0
  8 11  1  0  0  0  0
 41 42  1  0  0  0  0
 18 21  1  0  0  0  0
 31 32  1  0  0  0  0
  7  8  1  0  0  0  0
 17 18  1  0  0  0  0
  3  4  1  0  0  0  0
  3  5  1  0  0  0  0
  3  6  1  0  0  0  0
 35 38  1  0  0  0  0
 35 39  1  0  0  0  0
 35 40  1  0  0  0  0
 11 14  1  0  0  0  0
 11 15  1  0  0  0  0
 11 16  1  0  0  0  0
 42 44  1  0  0  0  0
 42 45  1  0  0  0  0
 42 46  1  0  0  0  0
 21 27  1  0  0  0  0
 21 28  1  0  0  0  0
 32 37  1  0  0  0  0
  8 13  1  0  0  0  0
 18 26  1  0  0  0  0
 24 29  1  0  0  0  0
 24 30  1  0  0  0  0
 41 43  1  0  0  0  0
  7 12  1  0  0  0  0
 31 36  1  0  0  0  0
 17 25  1  0  0  0  0
M  END
$$$$

  -OEChem-05262214473D

 46 45  0     1  0  0  0  0  0999 V2000
   -0.0543    1.9736    3.8406 C   0  0  0  0  0  0  0  0  0  0  0  0
    0.6744    1.6099    4.7562 O   0  0  0  0  0  0  0  0  0  0  0  0
   -0.5599    3.3779    3.8160 C   0  0  0  0  0  0  0  0  0  0  0  0
   -1.5202    3.4885    4.3450 H   0  0  0  0  0  0  0  0  0  0  0  0
    0.1282    4.0814    4.3116 H   0  0  0  0  0  0  0  0  0  0  0  0
   -0.7317    3.7994    2.8126 H   0  0  0  0  0  0  0  0  0  0  0  0
   -0.4812    1.1968    2.7762 N   0  0  0  0  0  0  0  0  0  0  0  0
   -0.1106   -0.1834    2.6051 C   0  0  2  0  0  0  0  0  0  0  0  0
   -0.0696   -0.4775    1.1113 C   0  0  0  0  0  0  0  0  0  0  0  0
   -0.6805    0.1900    0.2792 O   0  0  0  0  0  0  0  0  0  0  0  0
   -1.0852   -1.1101    3.3150 C   0  0  0  0  0  0  0  0  0  0  0  0
   -1.0883    1.6241    2.0791 H   0  0  0  0  0  0  0  0  0  0  0  0
    0.8937   -0.2959    3.0277 H   0  0  0  0  0  0  0  0  0  0  0  0
   -2.0970   -1.0114    2.9051 H   0  0  0  0  0  0  0  0  0  0  0  0
   -0.7860   -2.1580    3.2078 H   0  0  0  0  0  0  0  0  0  0  0  0
   -1.1357   -0.8775    4.3842 H   0  0  0  0  0  0  0  0  0  0  0  0
    0.6950   -1.6003    0.8178 N   0  0  0  0  0  0  0  0  0  0  0  0
    0.8777   -2.0908   -0.5246 C   0  0  2  0  0  0  0  0  0  0  0  0
    2.1122   -1.4078   -1.0995 C   0  0  0  0  0  0  0  0  0  0  0  0
    2.0753   -0.6699   -2.0821 O   0  0  0  0  0  0  0  0  0  0  0  0
   -0.3451   -1.8196   -1.4013 C   0  0  0  0  0  0  0  0  0  0  0  0
   -1.5510   -2.6606   -1.0212 C   0  0  0  0  0  0  0  0  0  0  0  0
   -1.4947   -3.8514   -0.7289 O   0  0  0  0  0  0  0  0  0  0  0  0
   -2.7216   -1.9322   -1.0360 N   0  0  0  0  0  0  0  0  0  0  0  0
    1.1810   -2.0803    1.5718 H   0  0  0  0  0  0  0  0  0  0  0  0
    1.0726   -3.1663   -0.4403 H   0  0  0  0  0  0  0  0  0  0  0  0
   -0.6467   -0.7679   -1.3175 H   0  0  0  0  0  0  0  0  0  0  0  0
   -0.1103   -2.0051   -2.4573 H   0  0  0  0  0  0  0  0  0  0  0  0
   -2.7204   -0.9476   -1.2808 H   0  0  0  0  0  0  0  0  0  0  0  0
   -3.6204   -2.3442   -0.8061 H   0  0  0  0  0  0  0  0  0  0  0  0
    3.2539   -1.6774   -0.3580 N   0  0  0  0  0  0  0  0  0  0  0  0
    4.5391   -1.1162   -0.6993 C   0  0  2  0  0  0  0  0  0  0  0  0
    4.4045    0.4008   -0.7006 C   0  0  0  0  0  0  0  0  0  0  0  0
    3.3293    0.9787   -0.8459 O   0  0  0  0  0  0  0  0  0  0  0  0
    5.0217   -1.6203   -2.0505 C   0  0  0  0  0  0  0  0  0  0  0  0
    3.1944   -2.2809    0.4569 H   0  0  0  0  0  0  0  0  0  0  0  0
    5.2366   -1.4208    0.0886 H   0  0  0  0  0  0  0  0  0  0  0  0
    4.3356   -1.3247   -2.8525 H   0  0  0  0  0  0  0  0  0  0  0  0
    6.0096   -1.2160   -2.2950 H   0  0  0  0  0  0  0  0  0  0  0  0
    5.0895   -2.7135   -2.0571 H   0  0  0  0  0  0  0  0  0  0  0  0
    5.6320    1.0338   -0.5638 N   0  0  0  0  0  0  0  0  0  0  0  0
    5.7706    2.4714   -0.5488 C   0  0  0  0  0  0  0  0  0  0  0  0
    6.4699    0.4755   -0.4299 H   0  0  0  0  0  0  0  0  0  0  0  0
    5.9663    2.8320   -1.5694 H   0  0  0  0  0  0  0  0  0  0  0  0
    4.8423    2.9251   -0.1714 H   0  0  0  0  0  0  0  0  0  0  0  0
    6.6086    2.7520    0.1061 H   0  0  0  0  0  0  0  0  0  0  0  0
  1  3  1  0  0  0  0
  1  7  1  0  0  0  0
  1  2  2  0  0  0  0
 21 22  1  0  0  0  0
 22 24  1  0  0  0  0
 22 23  2  0  0  0  0
 32 33  1  0  0  0  0
 33 41  1  0  0  0  0
 33 34  2  0  0  0  0
  8  9  1  0  0  0  0
  9 17  1  0  0  0  0
  9 10  2  0  0  0  0
 18 19  1  0  0  0  0
 19 31  1  0  0  0  0
 19 20  2  0  0  0  0
 32 35  1  0  0  0  0
  8 11  1  0  0  0  0
 41 42  1  0  0  0  0
 18 21  1  0  0  0  0
 31 32  1  0  0  0  0
  7  8  1  0  0  0  0
 17 18  1  0  0  0  0
  3  4  1  0  0  0  0
  3  5  1  0  0  0  0
  3  6  1  0  0  0  0
 35 38  1  0  0  0  0
 35 39  1  0  0  0  0
 35 40  1  0  0  0  0
 11 14  1  0  0  0  0
 11 15  1  0  0  0  0
 11 16  1  0  0  0  0
 42 44  1  0  0  0  0
 42 45  1  0  0  0  0
 42 46  1  0  0  0  0
 21 27  1  0  0  0  0
 21 28  1  0  0  0  0
 32 37  1  0  0  0  0
  8 13  1  0  0  0  0
 18 26  1  0  0  0  0
 24 29  1  0  0  0  0
 24 30  1  0  0  0  0
 41 43  1  0  0  0  0
  7 12  1  0  0  0  0
 31 36  1  0  0  0  0
 17 25  1  0  0  0  0
M  END
$$$$

  -OEChem-05262214473D

 46 45  0     1  0  0  0  0  0999 V2000
   -0.0543    1.9736    3.8406 C   0  0  0  0  0  0  0  0  0  0  0  0
    0.6744    1.6099    4.7562 O   0  0  0  0  0  0  0  0  0  0  0  0
   -0.5599    3.3779    3.8160 C   0  0  0  0  0  0  0  0  0  0  0  0
   -1.5202    3.4885    4.3450 H   0  0  0  0  0  0  0  0  0  0  0  0
    0.1282    4.0814    4.3116 H   0  0  0  0  0  0  0  0  0  0  0  0
   -0.7317    3.7994    2.8126 H   0  0  0  0  0  0  0  0  0  0  0  0
   -0.4812    1.1968    2.7762 N   0  0  0  0  0  0  0  0  0  0  0  0
   -0.1106   -0.1834    2.6051 C   0  0  2  0  0  0  0  0  0  0  0  0
   -0.0696   -0.4775    1.1113 C   0  0  0  0  0  0  0  0  0  0  0  0
   -0.6805    0.1900    0.2792 O   0  0  0  0  0  0  0  0  0  0  0  0
   -1.0852   -1.1101    3.3150 C   0  0  0  0  0  0  0  0  0  0  0  0
   -1.0883    1.6241    2.0791 H   0  0  0  0  0  0  0  0  0  0  0  0
    0.8937   -0.2959    3.0277 H   0  0  0  0  0  0  0  0  0  0  0  0
   -2.0970   -1.0114    2.9051 H   0  0  0  0  0  0  0  0  0  0  0  0
   -0.7860   -2.1580    3.2078 H   0  0  0  0  0  0  0  0  0  0  0  0
   -1.1357   -0.8775    4.3842 H   0  0  0  0  0  0  0  0  0  0  0  0
    0.6950   -1.6003    0.8178 N   0  0  0  0  0  0  0  0  0  0  0  0
    0.8777   -2.0908   -0.5246 C   0  0  2  0  0  0  0  0  0  0  0  0
    2.1122   -1.4078   -1.0995 C   0  0  0  0  0  0  0  0  0  0  0  0
    2.0531   -0.4751   -1.8982 O   0  0  0  0  0  0  0  0  0  0  0  0
   -0.3451   -1.8196   -1.4013 C   0  0  0  0  0  0  0  0  0  0  0  0
   -1.5510   -2.6606   -1.0212 C   0  0  0  0  0  0  0  0  0  0  0  0
   -1.4947   -3.8514   -0.7289 O   0  0  0  0  0  0  0  0  0  0  0  0
   -2.7216   -1.9322   -1.0360 N   0  0  0  0  0  0  0  0  0  0  0  0
    1.1810   -2.0803    1.5718 H   0  0  0  0  0  0  0  0  0  0  0  0
    1.0726   -3.1663   -0.4403 H   0  0  0  0  0  0  0  0  0  0  0  0
   -0.6467   -0.7679   -1.3175 H   0  0  0  0  0  0  0  0  0  0  0  0
   -0.1103   -2.0051   -2.4573 H   0  0  0  0  0  0  0  0  0  0  0  0
   -2.7204   -0.9476   -1.2808 H   0  0  0  0  0  0  0  0  0  0  0  0
   -3.6204   -2.3442   -0.8061 H   0  0  0  0  0  0  0  0  0  0  0  0
    3.2892   -1.9272   -0.5790 N   0  0  0  0  0  0  0  0  0  0  0  0
    4.5851   -1.4173   -0.9584 C   0  0  2  0  0  0  0  0  0  0  0  0
    4.6188    0.0702   -0.6333 C   0  0  0  0  0  0  0  0  0  0  0  0
    3.6045    0.7553   -0.5204 O   0  0  0  0  0  0  0  0  0  0  0  0
    4.8639   -1.6577   -2.4339 C   0  0  0  0  0  0  0  0  0  0  0  0
    3.2501   -2.6848    0.0965 H   0  0  0  0  0  0  0  0  0  0  0  0
    5.3240   -1.9430   -0.3439 H   0  0  0  0  0  0  0  0  0  0  0  0
    4.1335   -1.1388   -3.0655 H   0  0  0  0  0  0  0  0  0  0  0  0
    5.8588   -1.2960   -2.7138 H   0  0  0  0  0  0  0  0  0  0  0  0
    4.8098   -2.7255   -2.6719 H   0  0  0  0  0  0  0  0  0  0  0  0
    5.9161    0.5517   -0.5266 N   0  0  0  0  0  0  0  0  0  0  0  0
    6.2128    1.9351   -0.2363 C   0  0  0  0  0  0  0  0  0  0  0  0
    6.6969   -0.0917   -0.6164 H   0  0  0  0  0  0  0  0  0  0  0  0
    6.3381    2.4892   -1.1783 H   0  0  0  0  0  0  0  0  0  0  0  0
    5.3852    2.3743    0.3400 H   0  0  0  0  0  0  0  0  0  0  0  0
    7.1410    1.9955    0.3507 H   0  0  0  0  0  0  0  0  0  0  0  0
  1  3  1  0  0  0  0
  1  7  1  0  0  0  0
  1  2  2  0  0  0  0
 21 22  1  0  0  0  0
 22 24  1  0  0  0  0
 22 23  2  0  0  0  0
 32 33  1  0  0  0  0
 33 41  1  0  0  0  0
 33 34  2  0  0  0  0
  8  9  1  0  0  0  0
  9 17  1  0  0  0  0
  9 10  2  0  0  0  0
 18 19  1  0  0  0  0
 19 31  1  0  0  0  0
 19 20  2  0  0  0  0
 32 35  1  0  0  0  0
  8 11  1  0  0  0  0
 41 42  1  0  0  0  0
 18 21  1  0  0  0  0
 31 32  1  0  0  0  0
  7  8  1  0  0  0  0
 17 18  1  0  0  0  0
  3  4  1  0  0  0  0
  3  5  1  0  0  0  0
  3  6  1  0  0  0  0
 35 38  1  0  0  0  0
 35 39  1  0  0  0  0
 35 40  1  0  0  0  0
 11 14  1  0  0  0  0
 11 15  1  0  0  0  0
 11 16  1  0  0  0  0
 42 44  1  0  0  0  0
 42 45  1  0  0  0  0
 42 46  1  0  0  0  0
 21 27  1  0  0  0  0
 21 28  1  0  0  0  0
 32 37  1  0  0  0  0
  8 13  1  0  0  0  0
 18 26  1  0  0  0  0
 24 29  1  0  0  0  0
 24 30  1  0  0  0  0
 41 43  1  0  0  0  0
  7 12  1  0  0  0  0
 31 36  1  0  0  0  0
 17 25  1  0  0  0  0
M  END
$$$$

  -OEChem-05262214473D

 46 45  0     1  0  0  0  0  0999 V2000
   -0.0543    1.9736    3.8406 C   0  0  0  0  0  0  0  0  0  0  0  0
    0.6744    1.6099    4.7562 O   0  0  0  0  0  0  0  0  0  0  0  0
   -0.5599    3.3779    3.8160 C   0  0  0  0  0  0  0  0  0  0  0  0
   -1.5202    3.4885    4.3450 H   0  0  0  0  0  0  0  0  0  0  0  0
    0.1282    4.0814    4.3116 H   0  0  0  0  0  0  0  0  0  0  0  0
   -0.7317    3.7994    2.8126 H   0  0  0  0  0  0  0  0  0  0  0  0
   -0.4812    1.1968    2.7762 N   0  0  0  0  0  0  0  0  0  0  0  0
   -0.1106   -0.1834    2.6051 C   0  0  2  0  0  0  0  0  0  0  0  0
   -0.0696   -0.4775    1.1113 C   0  0  0  0  0  0  0  0  0  0  0  0
   -0.6805    0.1900    0.2792 O   0  0  0  0  0  0  0  0  0  0  0  0
   -1.0852   -1.1101    3.3150 C   0  0  0  0  0  0  0  0  0  0  0  0
   -1.0883    1.6241    2.0791 H   0  0  0  0  0  0  0  0  0  0  0  0
    0.8937   -0.2959    3.0277 H   0  0  0  0  0  0  0  0  0  0  0  0
   -2.0970   -1.0114    2.9051 H   0  0  0  0  0  0  0  0  0  0  0  0
   -0.7860   -2.1580    3.2078 H   0  0  0  0  0  0  0  0  0  0  0  0
   -1.1357   -0.8775    4.3842 H   0  0  0  0  0  0  0  0  0  0  0  0
    0.6950   -1.6003    0.8178 N   0  0  0  0  0  0  0  0  0  0  0  0
    0.8777   -2.0908   -0.5246 C   0  0  2  0  0  0  0  0  0  0  0  0
    2.1122   -1.4078   -1.0995 C   0  0  0  0  0  0  0  0  0  0  0  0
    2.0721   -0.3233   -1.6772 O   0  0  0  0  0  0  0  0  0  0  0  0
   -0.3451   -1.8196   -1.4013 C   0  0  0  0  0  0  0  0  0  0  0  0
   -1.5510   -2.6606   -1.0212 C   0  0  0  0  0  0  0  0  0  0  0  0
   -1.4947   -3.8514   -0.7289 O   0  0  0  0  0  0  0  0  0  0  0  0
   -2.7216   -1.9322   -1.0360 N   0  0  0  0  0  0  0  0  0  0  0  0
    1.1810   -2.0803    1.5718 H   0  0  0  0  0  0  0  0  0  0  0  0
    1.0726   -3.1663   -0.4403 H   0  0  0  0  0  0  0  0  0  0  0  0
   -0.6467   -0.7679   -1.3175 H   0  0  0  0  0  0  0  0  0  0  0  0
   -0.1103   -2.0051   -2.4573 H   0  0  0  0  0  0  0  0  0  0  0  0
   -2.7204   -0.9476   -1.2808 H   0  0  0  0  0  0  0  0  0  0  0  0
   -3.6204   -2.3442   -0.8061 H   0  0  0  0  0  0  0  0  0  0  0  0
    3.2733   -2.1256   -0.8490 N   0  0  0  0  0  0  0  0  0  0  0  0
    4.5700   -1.6584   -1.2772 C   0  0  2  0  0  0  0  0  0  0  0  0
    4.8014   -0.2843   -0.6624 C   0  0  0  0  0  0  0  0  0  0  0  0
    3.8862    0.4444   -0.2849 O   0  0  0  0  0  0  0  0  0  0  0  0
    4.6632   -1.5980   -2.7939 C   0  0  0  0  0  0  0  0  0  0  0  0
    3.2226   -3.0048   -0.3428 H   0  0  0  0  0  0  0  0  0  0  0  0
    5.3074   -2.3651   -0.8812 H   0  0  0  0  0  0  0  0  0  0  0  0
    3.9318   -0.8948   -3.2088 H   0  0  0  0  0  0  0  0  0  0  0  0
    5.6568   -1.2707   -3.1176 H   0  0  0  0  0  0  0  0  0  0  0  0
    4.4672   -2.5808   -3.2358 H   0  0  0  0  0  0  0  0  0  0  0  0
    6.1477    0.0505   -0.6247 N   0  0  0  0  0  0  0  0  0  0  0  0
    6.6238    1.3084   -0.0983 C   0  0  0  0  0  0  0  0  0  0  0  0
    6.8391   -0.6226   -0.9419 H   0  0  0  0  0  0  0  0  0  0  0  0
    6.7091    2.0397   -0.9155 H   0  0  0  0  0  0  0  0  0  0  0  0
    5.9151    1.6821    0.6554 H   0  0  0  0  0  0  0  0  0  0  0  0
    7.6098    1.1615    0.3666 H   0  0  0  0  0  0  0  0  0  0  0  0
  1  3  1  0  0  0  0
  1  7  1  0  0  0  0
  1  2  2  0  0  0  0
 21 22  1  0  0  0  0
 22 24  1  0  0  0  0
 22 23  2  0  0  0  0
 32 33  1  0  0  0  0
 33 41  1  0  0  0  0
 33 34  2  0  0  0  0
  8  9  1  0  0  0  0
  9 17  1  0  0  0  0
  9 10  2  0  0  0  0
 18 19  1  0  0  0  0
 19 31  1  0  0  0  0
 19 20  2  0  0  0  0
 32 35  1  0  0  0  0
  8 11  1  0  0  0  0
 41 42  1  0  0  0  0
 18 21  1  0  0  0  0
 31 32  1  0  0  0  0
  7  8  1  0  0  0  0
 17 18  1  0  0  0  0
  3  4  1  0  0  0  0
  3  5  1  0  0  0  0
  3  6  1  0  0  0  0
 35 38  1  0  0  0  0
 35 39  1  0  0  0  0
 35 40  1  0  0  0  0
 11 14  1  0  0  0  0
 11 15  1  0  0  0  0
 11 16  1  0  0  0  0
 42 44  1  0  0  0  0
 42 45  1  0  0  0  0
 42 46  1  0  0  0  0
 21 27  1  0  0  0  0
 21 28  1  0  0  0  0
 32 37  1  0  0  0  0
  8 13  1  0  0  0  0
 18 26  1  0  0  0  0
 24 29  1  0  0  0  0
 24 30  1  0  0  0  0
 41 43  1  0  0  0  0
  7 12  1  0  0  0  0
 31 36  1  0  0  0  0
 17 25  1  0  0  0  0
M  END
$$$$

  -OEChem-05262214473D

 46 45  0     1  0  0  0  0  0999 V2000
   -0.0543    1.9736    3.8406 C   0  0  0  0  0  0  0  0  0  0  0  0
    0.6744    1.6099    4.7562 O   0  0  0  0  0  0  0  0  0  0  0  0
   -0.5599    3.3779    3.8160 C   0  0  0  0  0  0  0  0  0  0  0  0
   -1.5202    3.4885    4.3450 H   0  0  0  0  0  0  0  0  0  0  0  0
    0.1282    4.0814    4.3116 H   0  0  0  0  0  0  0  0  0  0  0  0
   -0.7317    3.7994    2.8126 H   0  0  0  0  0  0  0  0  0  0  0  0
   -0.4812    1.1968    2.7762 N   0  0  0  0  0  0  0  0  0  0  0  0
   -0.1106   -0.1834    2.6051 C   0  0  2  0  0  0  0  0  0  0  0  0
   -0.0696   -0.4775    1.1113 C   0  0  0  0  0  0  0  0  0  0  0  0
   -0.6805    0.1900    0.2792 O   0  0  0  0  0  0  0  0  0  0  0  0
   -1.0852   -1.1101    3.3150 C   0  0  0  0  0  0  0  0  0  0  0  0
   -1.0883    1.6241    2.0791 H   0  0  0  0  0  0  0  0  0  0  0  0
    0.8937   -0.2959    3.0277 H   0  0  0  0  0  0  0  0  0  0  0  0
   -2.0970   -1.0114    2.9051 H   0  0  0  0  0  0  0  0  0  0  0  0
   -0.7860   -2.1580    3.2078 H   0  0  0  0  0  0  0  0  0  0  0  0
   -1.1357   -0.8775    4.3842 H   0  0  0  0  0  0  0  0  0  0  0  0
    0.6950   -1.6003    0.8178 N   0  0  0  0  0  0  0  0  0  0  0  0
    0.8777   -2.0908   -0.5246 C   0  0  2  0  0  0  0  0  0  0  0  0
    2.1122   -1.4078   -1.0995 C   0  0  0  0  0  0  0  0  0  0  0  0
    2.1308   -0.2249   -1.4340 O   0  0  0  0  0  0  0  0  0  0  0  0
   -0.3451   -1.8196   -1.4013 C   0  0  0  0  0  0  0  0  0  0  0  0
   -1.5510   -2.6606   -1.0212 C   0  0  0  0  0  0  0  0  0  0  0  0
   -1.4947   -3.8514   -0.7289 O   0  0  0  0  0  0  0  0  0  0  0  0
   -2.7216   -1.9322   -1.0360 N   0  0  0  0  0  0  0  0  0  0  0  0
    1.1810   -2.0803    1.5718 H   0  0  0  0  0  0  0  0  0  0  0  0
    1.0726   -3.1663   -0.4403 H   0  0  0  0  0  0  0  0  0  0  0  0
   -0.6467   -0.7679   -1.3175 H   0  0  0  0  0  0  0  0  0  0  0  0
   -0.1103   -2.0051   -2.4573 H   0  0  0  0  0  0  0  0  0  0  0  0
   -2.7204   -0.9476   -1.2808 H   0  0  0  0  0  0  0  0  0  0  0  0
   -3.6204   -2.3442   -0.8061 H   0  0  0  0  0  0  0  0  0  0  0  0
    3.2071   -2.2590   -1.1495 N   0  0  0  0  0  0  0  0  0  0  0  0
    4.4949   -1.8228   -1.6339 C   0  0  2  0  0  0  0  0  0  0  0  0
    4.9397   -0.6384   -0.7861 C   0  0  0  0  0  0  0  0  0  0  0  0
    4.1553    0.0671   -0.1552 O   0  0  0  0  0  0  0  0  0  0  0  0
    4.4335   -1.4452   -3.1057 C   0  0  0  0  0  0  0  0  0  0  0  0
    3.1138   -3.2190   -0.8310 H   0  0  0  0  0  0  0  0  0  0  0  0
    5.1877   -2.6586   -1.4869 H   0  0  0  0  0  0  0  0  0  0  0  0
    3.7442   -0.6094   -3.2726 H   0  0  0  0  0  0  0  0  0  0  0  0
    5.4172   -1.1418   -3.4789 H   0  0  0  0  0  0  0  0  0  0  0  0
    4.0849   -2.2894   -3.7105 H   0  0  0  0  0  0  0  0  0  0  0  0
    6.3111   -0.4356   -0.8514 N   0  0  0  0  0  0  0  0  0  0  0  0
    6.9756    0.6339   -0.1440 C   0  0  0  0  0  0  0  0  0  0  0  0
    6.8868   -1.0811   -1.3841 H   0  0  0  0  0  0  0  0  0  0  0  0
    7.0541    1.5142   -0.7990 H   0  0  0  0  0  0  0  0  0  0  0  0
    6.3959    0.8955    0.7535 H   0  0  0  0  0  0  0  0  0  0  0  0
    7.9831    0.3068    0.1526 H   0  0  0  0  0  0  0  0  0  0  0  0
  1  3  1  0  0  0  0
  1  7  1  0  0  0  0
  1  2  2  0  0  0  0
 21 22  1  0  0  0  0
 22 24  1  0  0  0  0
 22 23  2  0  0  0  0
 32 33  1  0  0  0  0
 33 41  1  0  0  0  0
 33 34  2  0  0  0  0
  8  9  1  0  0  0  0
  9 17  1  0  0  0  0
  9 10  2  0  0  0  0
 18 19  1  0  0  0  0
 19 31  1  0  0  0  0
 19 20  2  0  0  0  0
 32 35  1  0  0  0  0
  8 11  1  0  0  0  0
 41 42  1  0  0  0  0
 18 21  1  0  0  0  0
 31 32  1  0  0  0  0
  7  8  1  0  0  0  0
 17 18  1  0  0  0  0
  3  4  1  0  0  0  0
  3  5  1  0  0  0  0
  3  6  1  0  0  0  0
 35 38  1  0  0  0  0
 35 39  1  0  0  0  0
 35 40  1  0  0  0  0
 11 14  1  0  0  0  0
 11 15  1  0  0  0  0
 11 16  1  0  0  0  0
 42 44  1  0  0  0  0
 42 45  1  0  0  0  0
 42 46  1  0  0  0  0
 21 27  1  0  0  0  0
 21 28  1  0  0  0  0
 32 37  1  0  0  0  0
  8 13  1  0  0  0  0
 18 26  1  0  0  0  0
 24 29  1  0  0  0  0
 24 30  1  0  0  0  0
 41 43  1  0  0  0  0
  7 12  1  0  0  0  0
 31 36  1  0  0  0  0
 17 25  1  0  0  0  0
M  END
$$$$

  -OEChem-05262214473D

 46 45  0     1  0  0  0  0  0999 V2000
   -0.0543    1.9736    3.8406 C   0  0  0  0  0  0  0  0  0  0  0  0
    0.6744    1.6099    4.7562 O   0  0  0  0  0  0  0  0  0  0  0  0
   -0.5599    3.3779    3.8160 C   0  0  0  0  0  0  0  0  0  0  0  0
   -1.5202    3.4885    4.3450 H   0  0  0  0  0  0  0  0  0  0  0  0
    0.1282    4.0814    4.3116 H   0  0  0  0  0  0  0  0  0  0  0  0
   -0.7317    3.7994    2.8126 H   0  0  0  0  0  0  0  0  0  0  0  0
   -0.4812    1.1968    2.7762 N   0  0  0  0  0  0  0  0  0  0  0  0
   -0.1106   -0.1834    2.6051 C   0  0  2  0  0  0  0  0  0  0  0  0
   -0.0696   -0.4775    1.1113 C   0  0  0  0  0  0  0  0  0  0  0  0
   -0.6805    0.1900    0.2792 O   0  0  0  0  0  0  0  0  0  0  0  0
   -1.0852   -1.1101    3.3150 C   0  0  0  0  0  0  0  0  0  0  0  0
   -1.0883    1.6241    2.0791 H   0  0  0  0  0  0  0  0  0  0  0  0
    0.8937   -0.2959    3.0277 H   0  0  0  0  0  0  0  0  0  0  0  0
   -2.0970   -1.0114    2.9051 H   0  0  0  0  0  0  0  0  0  0  0  0
   -0.7860   -2.1580    3.2078 H   0  0  0  0  0  0  0  0  0  0  0  0
   -1.1357   -0.8775    4.3842 H   0  0  0  0  0  0  0  0  0  0  0  0
    0.6950   -1.6003    0.8178 N   0  0  0  0  0  0  0  0  0  0  0  0
    0.8777   -2.0908   -0.5246 C   0  0  2  0  0  0  0  0  0  0  0  0
    2.1122   -1.4078   -1.0995 C   0  0  0  0  0  0  0  0  0  0  0  0
    2.2255   -0.1866   -1.1853 O   0  0  0  0  0  0  0  0  0  0  0  0
   -0.3451   -1.8196   -1.4013 C   0  0  0  0  0  0  0  0  0  0  0  0
   -1.5510   -2.6606   -1.0212 C   0  0  0  0  0  0  0  0  0  0  0  0
   -1.4947   -3.8514   -0.7289 O   0  0  0  0  0  0  0  0  0  0  0  0
   -2.7216   -1.9322   -1.0360 N   0  0  0  0  0  0  0  0  0  0  0  0
    1.1810   -2.0803    1.5718 H   0  0  0  0  0  0  0  0  0  0  0  0
    1.0726   -3.1663   -0.4403 H   0  0  0  0  0  0  0  0  0  0  0  0
   -0.6467   -0.7679   -1.3175 H   0  0  0  0  0  0  0  0  0  0  0  0
   -0.1103   -2.0051   -2.4573 H   0  0  0  0  0  0  0  0  0  0  0  0
   -2.7204   -0.9476   -1.2808 H   0  0  0  0  0  0  0  0  0  0  0  0
   -3.6204   -2.3442   -0.8061 H   0  0  0  0  0  0  0  0  0  0  0  0
    3.0954   -2.3184   -1.4601 N   0  0  0  0  0  0  0  0  0  0  0  0
    4.3649   -1.8996   -2.0042 C   0  0  2  0  0  0  0  0  0  0  0  0
    5.0244   -0.9680   -0.9959 C   0  0  0  0  0  0  0  0  0  0  0  0
    4.3934   -0.3507   -0.1403 O   0  0  0  0  0  0  0  0  0  0  0  0
    4.1903   -1.2098   -3.3483 C   0  0  0  0  0  0  0  0  0  0  0  0
    2.9311   -3.3130   -1.3350 H   0  0  0  0  0  0  0  0  0  0  0  0
    4.9731   -2.8033   -2.1196 H   0  0  0  0  0  0  0  0  0  0  0  0
    3.5834   -0.3021   -3.2526 H   0  0  0  0  0  0  0  0  0  0  0  0
    5.1565   -0.9182   -3.7730 H   0  0  0  0  0  0  0  0  0  0  0  0
    3.6890   -1.8709   -4.0634 H   0  0  0  0  0  0  0  0  0  0  0  0
    6.3951   -0.8736   -1.1913 N   0  0  0  0  0  0  0  0  0  0  0  0
    7.2443   -0.0423   -0.3705 C   0  0  0  0  0  0  0  0  0  0  0  0
    6.8369   -1.4358   -1.9129 H   0  0  0  0  0  0  0  0  0  0  0  0
    7.3496    0.9484   -0.8368 H   0  0  0  0  0  0  0  0  0  0  0  0
    6.7950    0.0681    0.6274 H   0  0  0  0  0  0  0  0  0  0  0  0
    8.2353   -0.5104   -0.2767 H   0  0  0  0  0  0  0  0  0  0  0  0
  1  3  1  0  0  0  0
  1  7  1  0  0  0  0
  1  2  2  0  0  0  0
 21 22  1  0  0  0  0
 22 24  1  0  0  0  0
 22 23  2  0  0  0  0
 32 33  1  0  0  0  0
 33 41  1  0  0  0  0
 33 34  2  0  0  0  0
  8  9  1  0  0  0  0
  9 17  1  0  0  0  0
  9 10  2  0  0  0  0
 18 19  1  0  0  0  0
 19 31  1  0  0  0  0
 19 20  2  0  0  0  0
 32 35  1  0  0  0  0
  8 11  1  0  0  0  0
 41 42  1  0  0  0  0
 18 21  1  0  0  0  0
 31 32  1  0  0  0  0
  7  8  1  0  0  0  0
 17 18  1  0  0  0  0
  3  4  1  0  0  0  0
  3  5  1  0  0  0  0
  3  6  1  0  0  0  0
 35 38  1  0  0  0  0
 35 39  1  0  0  0  0
 35 40  1  0  0  0  0
 11 14  1  0  0  0  0
 11 15  1  0  0  0  0
 11 16  1  0  0  0  0
 42 44  1  0  0  0  0
 42 45  1  0  0  0  0
 42 46  1  0  0  0  0
 21 27  1  0  0  0  0
 21 28  1  0  0  0  0
 32 37  1  0  0  0  0
  8 13  1  0  0  0  0
 18 26  1  0  0  0  0
 24 29  1  0  0  0  0
 24 30  1  0  0  0  0
 41 43  1  0  0  0  0
  7 12  1  0  0  0  0
 31 36  1  0  0  0  0
 17 25  1  0  0  0  0
M  END
$$$$

  -OEChem-05262214473D

 46 45  0     1  0  0  0  0  0999 V2000
   -0.0543    1.9736    3.8406 C   0  0  0  0  0  0  0  0  0  0  0  0
    0.6744    1.6099    4.7562 O   0  0  0  0  0  0  0  0  0  0  0  0
   -0.5599    3.3779    3.8160 C   0  0  0  0  0  0  0  0  0  0  0  0
   -1.5202    3.4885    4.3450 H   0  0  0  0  0  0  0  0  0  0  0  0
    0.1282    4.0814    4.3116 H   0  0  0  0  0  0  0  0  0  0  0  0
   -0.7317    3.7994    2.8126 H   0  0  0  0  0  0  0  0  0  0  0  0
   -0.4812    1.1968    2.7762 N   0  0  0  0  0  0  0  0  0  0  0  0
   -0.1106   -0.1834    2.6051 C   0  0  2  0  0  0  0  0  0  0  0  0
   -0.0696   -0.4775    1.1113 C   0  0  0  0  0  0  0  0  0  0  0  0
   -0.6805    0.1900    0.2792 O   0  0  0  0  0  0  0  0  0  0  0  0
   -1.0852   -1.1101    3.3150 C   0  0  0  0  0  0  0  0  0  0  0  0
   -1.0883    1.6241    2.0791 H   0  0  0  0  0  0  0  0  0  0  0  0
    0.8937   -0.2959    3.0277 H   0  0  0  0  0  0  0  0  0  0  0  0
   -2.0970   -1.0114    2.9051 H   0  0  0  0  0  0  0  0  0  0  0  0
   -0.7860   -2.1580    3.2078 H   0  0  0  0  0  0  0  0  0  0  0  0
   -1.1357   -0.8775    4.3842 H   0  0  0  0  0  0  0  0  0  0  0  0
    0.6950   -1.6003    0.8178 N   0  0  0  0  0  0  0  0  0  0  0  0
    0.8777   -2.0908   -0.5246 C   0  0  2  0  0  0  0  0  0  0  0  0
    2.1122   -1.4078   -1.0995 C   0  0  0  0  0  0  0  0  0  0  0  0
    2.3494   -0.2110   -0.9481 O   0  0  0  0  0  0  0  0  0  0  0  0
   -0.3451   -1.8196   -1.4013 C   0  0  0  0  0  0  0  0  0  0  0  0
   -1.5510   -2.6606   -1.0212 C   0  0  0  0  0  0  0  0  0  0  0  0
   -1.4947   -3.8514   -0.7289 O   0  0  0  0  0  0  0  0  0  0  0  0
   -2.7216   -1.9322   -1.0360 N   0  0  0  0  0  0  0  0  0  0  0  0
    1.1810   -2.0803    1.5718 H   0  0  0  0  0  0  0  0  0  0  0  0
    1.0726   -3.1663   -0.4403 H   0  0  0  0  0  0  0  0  0  0  0  0
   -0.6467   -0.7679   -1.3175 H   0  0  0  0  0  0  0  0  0  0  0  0
   -0.1103   -2.0051   -2.4573 H   0  0  0  0  0  0  0  0  0  0  0  0
   -2.7204   -0.9476   -1.2808 H   0  0  0  0  0  0  0  0  0  0  0  0
   -3.6204   -2.3442   -0.8061 H   0  0  0  0  0  0  0  0  0  0  0  0
    2.9456   -2.2998   -1.7597 N   0  0  0  0  0  0  0  0  0  0  0  0
    4.1888   -1.8833   -2.3629 C   0  0  2  0  0  0  0  0  0  0  0  0
    5.0496   -1.2506   -1.2775 C   0  0  0  0  0  0  0  0  0  0  0  0
    4.5843   -0.7807   -0.2412 O   0  0  0  0  0  0  0  0  0  0  0  0
    3.9503   -0.9078   -3.5050 C   0  0  0  0  0  0  0  0  0  0  0  0
    2.6870   -3.2802   -1.8202 H   0  0  0  0  0  0  0  0  0  0  0  0
    4.6784   -2.7894   -2.7362 H   0  0  0  0  0  0  0  0  0  0  0  0
    3.4605    0.0064   -3.1502 H   0  0  0  0  0  0  0  0  0  0  0  0
    4.8924   -0.6150   -3.9800 H   0  0  0  0  0  0  0  0  0  0  0  0
    3.3066   -1.3541   -4.2707 H   0  0  0  0  0  0  0  0  0  0  0  0
    6.3941   -1.2336   -1.6213 N   0  0  0  0  0  0  0  0  0  0  0  0
    7.4115   -0.6742   -0.7623 C   0  0  0  0  0  0  0  0  0  0  0  0
    6.6926   -1.6627   -2.4923 H   0  0  0  0  0  0  0  0  0  0  0  0
    7.5753    0.3810   -1.0261 H   0  0  0  0  0  0  0  0  0  0  0  0
    7.0850   -0.7435    0.2859 H   0  0  0  0  0  0  0  0  0  0  0  0
    8.3493   -1.2343   -0.8920 H   0  0  0  0  0  0  0  0  0  0  0  0
  1  3  1  0  0  0  0
  1  7  1  0  0  0  0
  1  2  2  0  0  0  0
 21 22  1  0  0  0  0
 22 24  1  0  0  0  0
 22 23  2  0  0  0  0
 32 33  1  0  0  0  0
 33 41  1  0  0  0  0
 33 34  2  0  0  0  0
  8  9  1  0  0  0  0
  9 17  1  0  0  0  0
  9 10  2  0  0  0  0
 18 19  1  0  0  0  0
 19 31  1  0  0  0  0
 19 20  2  0  0  0  0
 32 35  1  0  0  0  0
  8 11  1  0  0  0  0
 41 42  1  0  0  0  0
 18 21  1  0  0  0  0
 31 32  1  0  0  0  0
  7  8  1  0  0  0  0
 17 18  1  0  0  0  0
  3  4  1  0  0  0  0
  3  5  1  0  0  0  0
  3  6  1  0  0  0  0
 35 38  1  0  0  0  0
 35 39  1  0  0  0  0
 35 40  1  0  0  0  0
 11 14  1  0  0  0  0
 11 15  1  0  0  0  0
 11 16  1  0  0  0  0
 42 44  1  0  0  0  0
 42 45  1  0  0  0  0
 42 46  1  0  0  0  0
 21 27  1  0  0  0  0
 21 28  1  0  0  0  0
 32 37  1  0  0  0  0
  8 13  1  0  0  0  0
 18 26  1  0  0  0  0
 24 29  1  0  0  0  0
 24 30  1  0  0  0  0
 41 43  1  0  0  0  0
  7 12  1  0  0  0  0
 31 36  1  0  0  0  0
 17 25  1  0  0  0  0
M  END
$$$$

  -OEChem-05262214473D

 46 45  0     1  0  0  0  0  0999 V2000
   -0.0543    1.9736    3.8406 C   0  0  0  0  0  0  0  0  0  0  0  0
    0.6744    1.6099    4.7562 O   0  0  0  0  0  0  0  0  0  0  0  0
   -0.5599    3.3779    3.8160 C   0  0  0  0  0  0  0  0  0  0  0  0
   -1.5202    3.4885    4.3450 H   0  0  0  0  0  0  0  0  0  0  0  0
    0.1282    4.0814    4.3116 H   0  0  0  0  0  0  0  0  0  0  0  0
   -0.7317    3.7994    2.8126 H   0  0  0  0  0  0  0  0  0  0  0  0
   -0.4812    1.1968    2.7762 N   0  0  0  0  0  0  0  0  0  0  0  0
   -0.1106   -0.1834    2.6051 C   0  0  2  0  0  0  0  0  0  0  0  0
   -0.0696   -0.4775    1.1113 C   0  0  0  0  0  0  0  0  0  0  0  0
   -0.6805    0.1900    0.2792 O   0  0  0  0  0  0  0  0  0  0  0  0
   -1.0852   -1.1101    3.3150 C   0  0  0  0  0  0  0  0  0  0  0  0
   -1.0883    1.6241    2.0791 H   0  0  0  0  0  0  0  0  0  0  0  0
    0.8937   -0.2959    3.0277 H   0  0  0  0  0  0  0  0  0  0  0  0
   -2.0970   -1.0114    2.9051 H   0  0  0  0  0  0  0  0  0  0  0  0
   -0.7860   -2.1580    3.2078 H   0  0  0  0  0  0  0  0  0  0  0  0
   -1.1357   -0.8775    4.3842 H   0  0  0  0  0  0  0  0  0  0  0  0
    0.6950   -1.6003    0.8178 N   0  0  0  0  0  0  0  0  0  0  0  0
    0.8777   -2.0908   -0.5246 C   0  0  2  0  0  0  0  0  0  0  0  0
    2.1122   -1.4078   -1.0995 C   0  0  0  0  0  0  0  0  0  0  0  0
    2.4943   -0.2964   -0.7384 O   0  0  0  0  0  0  0  0  0  0  0  0
   -0.3451   -1.8196   -1.4013 C   0  0  0  0  0  0  0  0  0  0  0  0
   -1.5510   -2.6606   -1.0212 C   0  0  0  0  0  0  0  0  0  0  0  0
   -1.4947   -3.8514   -0.7289 O   0  0  0  0  0  0  0  0  0  0  0  0
   -2.7216   -1.9322   -1.0360 N   0  0  0  0  0  0  0  0  0  0  0  0
    1.1810   -2.0803    1.5718 H   0  0  0  0  0  0  0  0  0  0  0  0
    1.0726   -3.1663   -0.4403 H   0  0  0  0  0  0  0  0  0  0  0  0
   -0.6467   -0.7679   -1.3175 H   0  0  0  0  0  0  0  0  0  0  0  0
   -0.1103   -2.0051   -2.4573 H   0  0  0  0  0  0  0  0  0  0  0  0
   -2.7204   -0.9476   -1.2808 H   0  0  0  0  0  0  0  0  0  0  0  0
   -3.6204   -2.3442   -0.8061 H   0  0  0  0  0  0  0  0  0  0  0  0
    2.7679   -2.2043   -2.0277 N   0  0  0  0  0  0  0  0  0  0  0  0
    3.9788   -1.7752   -2.6856 C   0  0  2  0  0  0  0  0  0  0  0  0
    5.0137   -1.4671   -1.6117 C   0  0  0  0  0  0  0  0  0  0  0  0
    4.7150   -1.1936   -0.4510 O   0  0  0  0  0  0  0  0  0  0  0  0
    3.7297   -0.5598   -3.5651 C   0  0  0  0  0  0  0  0  0  0  0  0
    2.3981   -3.1229   -2.2537 H   0  0  0  0  0  0  0  0  0  0  0  0
    4.3234   -2.6180   -3.2947 H   0  0  0  0  0  0  0  0  0  0  0  0
    3.3837    0.2948   -2.9724 H   0  0  0  0  0  0  0  0  0  0  0  0
    4.6429   -0.2529   -4.0857 H   0  0  0  0  0  0  0  0  0  0  0  0
    2.9636   -0.7740   -4.3181 H   0  0  0  0  0  0  0  0  0  0  0  0
    6.3080   -1.4911   -2.1120 N   0  0  0  0  0  0  0  0  0  0  0  0
    7.4658   -1.2188   -1.2926 C   0  0  0  0  0  0  0  0  0  0  0  0
    6.4638   -1.7462   -3.0828 H   0  0  0  0  0  0  0  0  0  0  0  0
    7.7160   -0.1494   -1.3543 H   0  0  0  0  0  0  0  0  0  0  0  0
    7.2462   -1.4842   -0.2480 H   0  0  0  0  0  0  0  0  0  0  0  0
    8.3173   -1.8157   -1.6513 H   0  0  0  0  0  0  0  0  0  0  0  0
  1  3  1  0  0  0  0
  1  7  1  0  0  0  0
  1  2  2  0  0  0  0
 21 22  1  0  0  0  0
 22 24  1  0  0  0  0
 22 23  2  0  0  0  0
 32 33  1  0  0  0  0
 33 41  1  0  0  0  0
 33 34  2  0  0  0  0
  8  9  1  0  0  0  0
  9 17  1  0  0  0  0
  9 10  2  0  0  0  0
 18 19  1  0  0  0  0
 19 31  1  0  0  0  0
 19 20  2  0  0  0  0
 32 35  1  0  0  0  0
  8 11  1  0  0  0  0
 41 42  1  0  0  0  0
 18 21  1  0  0  0  0
 31 32  1  0  0  0  0
  7  8  1  0  0  0  0
 17 18  1  0  0  0  0
  3  4  1  0  0  0  0
  3  5  1  0  0  0  0
  3  6  1  0  0  0  0
 35 38  1  0  0  0  0
 35 39  1  0  0  0  0
 35 40  1  0  0  0  0
 11 14  1  0  0  0  0
 11 15  1  0  0  0  0
 11 16  1  0  0  0  0
 42 44  1  0  0  0  0
 42 45  1  0  0  0  0
 42 46  1  0  0  0  0
 21 27  1  0  0  0  0
 21 28  1  0  0  0  0
 32 37  1  0  0  0  0
  8 13  1  0  0  0  0
 18 26  1  0  0  0  0
 24 29  1  0  0  0  0
 24 30  1  0  0  0  0
 41 43  1  0  0  0  0
  7 12  1  0  0  0  0
 31 36  1  0  0  0  0
 17 25  1  0  0  0  0
M  END
$$$$

  -OEChem-05262214473D

 46 45  0     1  0  0  0  0  0999 V2000
   -0.0543    1.9736    3.8406 C   0  0  0  0  0  0  0  0  0  0  0  0
    0.6744    1.6099    4.7562 O   0  0  0  0  0  0  0  0  0  0  0  0
   -0.5599    3.3779    3.8160 C   0  0  0  0  0  0  0  0  0  0  0  0
   -1.5202    3.4885    4.3450 H   0  0  0  0  0  0  0  0  0  0  0  0
    0.1282    4.0814    4.3116 H   0  0  0  0  0  0  0  0  0  0  0  0
   -0.7317    3.7994    2.8126 H   0  0  0  0  0  0  0  0  0  0  0  0
   -0.4812    1.1968    2.7762 N   0  0  0  0  0  0  0  0  0  0  0  0
   -0.1106   -0.1834    2.6051 C   0  0  2  0  0  0  0  0  0  0  0  0
   -0.0696   -0.4775    1.1113 C   0  0  0  0  0  0  0  0  0  0  0  0
   -0.6805    0.1900    0.2792 O   0  0  0  0  0  0  0  0  0  0  0  0
   -1.0852   -1.1101    3.3150 C   0  0  0  0  0  0  0  0  0  0  0  0
   -1.0883    1.6241    2.0791 H   0  0  0  0  0  0  0  0  0  0  0  0
    0.8937   -0.2959    3.0277 H   0  0  0  0  0  0  0  0  0  0  0  0
   -2.0970   -1.0114    2.9051 H   0  0  0  0  0  0  0  0  0  0  0  0
   -0.7860   -2.1580    3.2078 H   0  0  0  0  0  0  0  0  0  0  0  0
   -1.1357   -0.8775    4.3842 H   0  0  0  0  0  0  0  0  0  0  0  0
    0.6950   -1.6003    0.8178 N   0  0  0  0  0  0  0  0  0  0  0  0
    0.8777   -2.0908   -0.5246 C   0  0  2  0  0  0  0  0  0  0  0  0
    2.1122   -1.4078   -1.0995 C   0  0  0  0  0  0  0  0  0  0  0  0
    2.6503   -0.4371   -0.5706 O   0  0  0  0  0  0  0  0  0  0  0  0
   -0.3451   -1.8196   -1.4013 C   0  0  0  0  0  0  0  0  0  0  0  0
   -1.5510   -2.6606   -1.0212 C   0  0  0  0  0  0  0  0  0  0  0  0
   -1.4947   -3.8514   -0.7289 O   0  0  0  0  0  0  0  0  0  0  0  0
   -2.7216   -1.9322   -1.0360 N   0  0  0  0  0  0  0  0  0  0  0  0
    1.1810   -2.0803    1.5718 H   0  0  0  0  0  0  0  0  0  0  0  0
    1.0726   -3.1663   -0.4403 H   0  0  0  0  0  0  0  0  0  0  0  0
   -0.6467   -0.7679   -1.3175 H   0  0  0  0  0  0  0  0  0  0  0  0
   -0.1103   -2.0051   -2.4573 H   0  0  0  0  0  0  0  0  0  0  0  0
   -2.7204   -0.9476   -1.2808 H   0  0  0  0  0  0  0  0  0  0  0  0
   -3.6204   -2.3442   -0.8061 H   0  0  0  0  0  0  0  0  0  0  0  0
    2.5746   -2.0385   -2.2459 N   0  0  0  0  0  0  0  0  0  0  0  0
    3.7490   -1.5826   -2.9502 C   0  0  2  0  0  0  0  0  0  0  0  0
    4.9192   -1.6025   -1.9757 C   0  0  0  0  0  0  0  0  0  0  0  0
    4.7766   -1.5611   -0.7554 O   0  0  0  0  0  0  0  0  0  0  0  0
    3.5437   -0.1895   -3.5247 C   0  0  0  0  0  0  0  0  0  0  0  0
    2.0841   -2.8518   -2.6060 H   0  0  0  0  0  0  0  0  0  0  0  0
    3.9325   -2.3005   -3.7570 H   0  0  0  0  0  0  0  0  0  0  0  0
    3.3584    0.5436   -2.7312 H   0  0  0  0  0  0  0  0  0  0  0  0
    4.4250    0.1433   -4.0829 H   0  0  0  0  0  0  0  0  0  0  0  0
    2.6834   -0.1703   -4.2024 H   0  0  0  0  0  0  0  0  0  0  0  0
    6.1428   -1.6285   -2.6300 N   0  0  0  0  0  0  0  0  0  0  0  0
    7.4036   -1.6389   -1.9254 C   0  0  0  0  0  0  0  0  0  0  0  0
    6.1662   -1.6807   -3.6441 H   0  0  0  0  0  0  0  0  0  0  0  0
    7.7620   -0.6066   -1.7988 H   0  0  0  0  0  0  0  0  0  0  0  0
    7.2676   -2.1035   -0.9377 H   0  0  0  0  0  0  0  0  0  0  0  0
    8.1416   -2.2148   -2.5031 H   0  0  0  0  0  0  0  0  0  0  0  0
  1  3  1  0  0  0  0
  1  7  1  0  0  0  0
  1  2  2  0  0  0  0
 21 22  1  0  0  0  0
 22 24  1  0  0  0  0
 22 23  2  0  0  0  0
 32 33  1  0  0  0  0
 33 41  1  0  0  0  0
 33 34  2  0  0  0  0
  8  9  1  0  0  0  0
  9 17  1  0  0  0  0
  9 10  2  0  0  0  0
 18 19  1  0  0  0  0
 19 31  1  0  0  0  0
 19 20  2  0  0  0  0
 32 35  1  0  0  0  0
  8 11  1  0  0  0  0
 41 42  1  0  0  0  0
 18 21  1  0  0  0  0
 31 32  1  0  0  0  0
  7  8  1  0  0  0  0
 17 18  1  0  0  0  0
  3  4  1  0  0  0  0
  3  5  1  0  0  0  0
  3  6  1  0  0  0  0
 35 38  1  0  0  0  0
 35 39  1  0  0  0  0
 35 40  1  0  0  0  0
 11 14  1  0  0  0  0
 11 15  1  0  0  0  0
 11 16  1  0  0  0  0
 42 44  1  0  0  0  0
 42 45  1  0  0  0  0
 42 46  1  0  0  0  0
 21 27  1  0  0  0  0
 21 28  1  0  0  0  0
 32 37  1  0  0  0  0
  8 13  1  0  0  0  0
 18 26  1  0  0  0  0
 24 29  1  0  0  0  0
 24 30  1  0  0  0  0
 41 43  1  0  0  0  0
  7 12  1  0  0  0  0
 31 36  1  0  0  0  0
 17 25  1  0  0  0  0
M  END
$$$$

  -OEChem-05262214473D

 46 45  0     1  0  0  0  0  0999 V2000
   -0.0543    1.9736    3.8406 C   0  0  0  0  0  0  0  0  0  0  0  0
    0.6744    1.6099    4.7562 O   0  0  0  0  0  0  0  0  0  0  0  0
   -0.5599    3.3779    3.8160 C   0  0  0  0  0  0  0  0  0  0  0  0
   -1.5202    3.4885    4.3450 H   0  0  0  0  0  0  0  0  0  0  0  0
    0.1282    4.0814    4.3116 H   0  0  0  0  0  0  0  0  0  0  0  0
   -0.7317    3.7994    2.8126 H   0  0  0  0  0  0  0  0  0  0  0  0
   -0.4812    1.1968    2.7762 N   0  0  0  0  0  0  0  0  0  0  0  0
   -0.1106   -0.1834    2.6051 C   0  0  2  0  0  0  0  0  0  0  0  0
   -0.0696   -0.4775    1.1113 C   0  0  0  0  0  0  0  0  0  0  0  0
   -0.6805    0.1900    0.2792 O   0  0  0  0  0  0  0  0  0  0  0  0
   -1.0852   -1.1101    3.3150 C   0  0  0  0  0  0  0  0  0  0  0  0
   -1.0883    1.6241    2.0791 H   0  0  0  0  0  0  0  0  0  0  0  0
    0.8937   -0.2959    3.0277 H   0  0  0  0  0  0  0  0  0  0  0  0
   -2.0970   -1.0114    2.9051 H   0  0  0  0  0  0  0  0  0  0  0  0
   -0.7860   -2.1580    3.2078 H   0  0  0  0  0  0  0  0  0  0  0  0
   -1.1357   -0.8775    4.3842 H   0  0  0  0  0  0  0  0  0  0  0  0
    0.6950   -1.6003    0.8178 N   0  0  0  0  0  0  0  0  0  0  0  0
    0.8777   -2.0908   -0.5246 C   0  0  2  0  0  0  0  0  0  0  0  0
    2.2875   -1.7152   -0.9633 C   0  0  0  0  0  0  0  0  0  0  0  0
    3.0874   -1.1371   -0.2302 O   0  0  0  0  0  0  0  0  0  0  0  0
   -0.1584   -1.5119   -1.4883 C   0  0  0  0  0  0  0  0  0  0  0  0
   -1.5604   -2.0433   -1.2481 C   0  0  0  0  0  0  0  0  0  0  0  0
   -1.8183   -3.2184   -1.0042 O   0  0  0  0  0  0  0  0  0  0  0  0
   -2.5158   -1.0525   -1.3294 N   0  0  0  0  0  0  0  0  0  0  0  0
    1.1810   -2.0803    1.5718 H   0  0  0  0  0  0  0  0  0  0  0  0
    0.8006   -3.1831   -0.4712 H   0  0  0  0  0  0  0  0  0  0  0  0
   -0.2055   -0.4204   -1.3844 H   0  0  0  0  0  0  0  0  0  0  0  0
    0.1214   -1.7255   -2.5280 H   0  0  0  0  0  0  0  0  0  0  0  0
   -2.2561   -0.0925   -1.5301 H   0  0  0  0  0  0  0  0  0  0  0  0
   -3.5044   -1.2392   -1.1942 H   0  0  0  0  0  0  0  0  0  0  0  0
    2.5675   -2.1449   -2.2528 N   0  0  0  0  0  0  0  0  0  0  0  0
    3.8527   -1.9242   -2.8715 C   0  0  2  0  0  0  0  0  0  0  0  0
    4.9157   -2.5660   -1.9897 C   0  0  0  0  0  0  0  0  0  0  0  0
    4.7464   -2.7950   -0.7939 O   0  0  0  0  0  0  0  0  0  0  0  0
    4.1275   -0.4406   -3.0620 C   0  0  0  0  0  0  0  0  0  0  0  0
    1.8566   -2.6380   -2.7849 H   0  0  0  0  0  0  0  0  0  0  0  0
    3.8276   -2.4313   -3.8422 H   0  0  0  0  0  0  0  0  0  0  0  0
    4.1563    0.0843   -2.1002 H   0  0  0  0  0  0  0  0  0  0  0  0
    5.0901   -0.2759   -3.5574 H   0  0  0  0  0  0  0  0  0  0  0  0
    3.3460    0.0254   -3.6717 H   0  0  0  0  0  0  0  0  0  0  0  0
    6.0910   -2.8133   -2.6852 N   0  0  0  0  0  0  0  0  0  0  0  0
    7.2533   -3.4062   -2.0659 C   0  0  0  0  0  0  0  0  0  0  0  0
    6.1359   -2.6089   -3.6791 H   0  0  0  0  0  0  0  0  0  0  0  0
    7.9185   -2.6115   -1.6973 H   0  0  0  0  0  0  0  0  0  0  0  0
    6.9371   -4.0395   -1.2239 H   0  0  0  0  0  0  0  0  0  0  0  0
    7.7895   -4.0197   -2.8049 H   0  0  0  0  0  0  0  0  0  0  0  0
  1  3  1  0  0  0  0
  1  7  1  0  0  0  0
  1  2  2  0  0  0  0
 21 22  1  0  0  0  0
 22 24  1  0  0  0  0
 22 23  2  0  0  0  0
 32 33  1  0  0  0  0
 33 41  1  0  0  0  0
 33 34  2  0  0  0  0
  8  9  1  0  0  0  0
  9 17  1  0  0  0  0
  9 10  2  0  0  0  0
 18 19  1  0  0  0  0
 19 31  1  0  0  0  0
 19 20  2  0  0  0  0
 32 35  1  0  0  0  0
  8 11  1  0  0  0  0
 41 42  1  0  0  0  0
 18 21  1  0  0  0  0
 31 32  1  0  0  0  0
  7  8  1  0  0  0  0
 17 18  1  0  0  0  0
  3  4  1  0  0  0  0
  3  5  1  0  0  0  0
  3  6  1  0  0  0  0
 35 38  1  0  0  0  0
 35 39  1  0  0  0  0
 35 40  1  0  0  0  0
 11 14  1  0  0  0  0
 11 15  1  0  0  0  0
 11 16  1  0  0  0  0
 42 44  1  0  0  0  0
 42 45  1  0  0  0  0
 42 46  1  0  0  0  0
 21 27  1  0  0  0  0
 21 28  1  0  0  0  0
 32 37  1  0  0  0  0
  8 13  1  0  0  0  0
 18 26  1  0  0  0  0
 24 29  1  0  0  0  0
 24 30  1  0  0  0  0
 41 43  1  0  0  0  0
  7 12  1  0  0  0  0
 31 36  1  0  0  0  0
 17 25  1  0  0  0  0
M  END
$$$$

  -OEChem-05262214473D

 46 45  0     1  0  0  0  0  0999 V2000
   -0.0543    1.9736    3.8406 C   0  0  0  0  0  0  0  0  0  0  0  0
    0.6744    1.6099    4.7562 O   0  0  0  0  0  0  0  0  0  0  0  0
   -0.5599    3.3779    3.8160 C   0  0  0  0  0  0  0  0  0  0  0  0
   -1.5202    3.4885    4.3450 H   0  0  0  0  0  0  0  0  0  0  0  0
    0.1282    4.0814    4.3116 H   0  0  0  0  0  0  0  0  0  0  0  0
   -0.7317    3.7994    2.8126 H   0  0  0  0  0  0  0  0  0  0  0  0
   -0.4812    1.1968    2.7762 N   0  0  0  0  0  0  0  0  0  0  0  0
   -0.1106   -0.1834    2.6051 C   0  0  2  0  0  0  0  0  0  0  0  0
   -0.0696   -0.4775    1.1113 C   0  0  0  0  0  0  0  0  0  0  0  0
   -0.6805    0.1900    0.2792 O   0  0  0  0  0  0  0  0  0  0  0  0
   -1.0852   -1.1101    3.3150 C   0  0  0  0  0  0  0  0  0  0  0  0
   -1.0883    1.6241    2.0791 H   0  0  0  0  0  0  0  0  0  0  0  0
    0.8937   -0.2959    3.0277 H   0  0  0  0  0  0  0  0  0  0  0  0
   -2.0970   -1.0114    2.9051 H   0  0  0  0  0  0  0  0  0  0  0  0
   -0.7860   -2.1580    3.2078 H   0  0  0  0  0  0  0  0  0  0  0  0
   -1.1357   -0.8775    4.3842 H   0  0  0  0  0  0  0  0  0  0  0  0
    0.6950   -1.6003    0.8178 N   0  0  0  0  0  0  0  0  0  0  0  0
    0.8777   -2.0908   -0.5246 C   0  0  2  0  0  0  0  0  0  0  0  0
    2.2875   -1.7152   -0.9633 C   0  0  0  0  0  0  0  0  0  0  0  0
    3.1712   -1.3863   -0.1743 O   0  0  0  0  0  0  0  0  0  0  0  0
   -0.1584   -1.5119   -1.4883 C   0  0  0  0  0  0  0  0  0  0  0  0
   -1.5604   -2.0433   -1.2481 C   0  0  0  0  0  0  0  0  0  0  0  0
   -1.8183   -3.2184   -1.0042 O   0  0  0  0  0  0  0  0  0  0  0  0
   -2.5158   -1.0525   -1.3294 N   0  0  0  0  0  0  0  0  0  0  0  0
    1.1810   -2.0803    1.5718 H   0  0  0  0  0  0  0  0  0  0  0  0
    0.8006   -3.1831   -0.4712 H   0  0  0  0  0  0  0  0  0  0  0  0
   -0.2055   -0.4204   -1.3844 H   0  0  0  0  0  0  0  0  0  0  0  0
    0.1214   -1.7255   -2.5280 H   0  0  0  0  0  0  0  0  0  0  0  0
   -2.2561   -0.0925   -1.5301 H   0  0  0  0  0  0  0  0  0  0  0  0
   -3.5044   -1.2392   -1.1942 H   0  0  0  0  0  0  0  0  0  0  0  0
    2.4602   -1.8379   -2.3348 N   0  0  0  0  0  0  0  0  0  0  0  0
    3.7234   -1.5603   -2.9755 C   0  0  2  0  0  0  0  0  0  0  0  0
    4.7766   -2.4658   -2.3509 C   0  0  0  0  0  0  0  0  0  0  0  0
    4.6548   -2.9655   -1.2344 O   0  0  0  0  0  0  0  0  0  0  0  0
    4.1086   -0.0965   -2.8283 C   0  0  0  0  0  0  0  0  0  0  0  0
    1.6830   -2.1390   -2.9154 H   0  0  0  0  0  0  0  0  0  0  0  0
    3.6036   -1.8147   -4.0343 H   0  0  0  0  0  0  0  0  0  0  0  0
    4.2330    0.1770   -1.7742 H   0  0  0  0  0  0  0  0  0  0  0  0
    5.0528    0.1186   -3.3393 H   0  0  0  0  0  0  0  0  0  0  0  0
    3.3358    0.5543   -3.2516 H   0  0  0  0  0  0  0  0  0  0  0  0
    5.8877   -2.6155   -3.1689 N   0  0  0  0  0  0  0  0  0  0  0  0
    7.0294   -3.4168   -2.7943 C   0  0  0  0  0  0  0  0  0  0  0  0
    5.8948   -2.1801   -4.0866 H   0  0  0  0  0  0  0  0  0  0  0  0
    7.7770   -2.7811   -2.2973 H   0  0  0  0  0  0  0  0  0  0  0  0
    6.7088   -4.2124   -2.1057 H   0  0  0  0  0  0  0  0  0  0  0  0
    7.4721   -3.8677   -3.6947 H   0  0  0  0  0  0  0  0  0  0  0  0
  1  3  1  0  0  0  0
  1  7  1  0  0  0  0
  1  2  2  0  0  0  0
 21 22  1  0  0  0  0
 22 24  1  0  0  0  0
 22 23  2  0  0  0  0
 32 33  1  0  0  0  0
 33 41  1  0  0  0  0
 33 34  2  0  0  0  0
  8  9  1  0  0  0  0
  9 17  1  0  0  0  0
  9 10  2  0  0  0  0
 18 19  1  0  0  0  0
 19 31  1  0  0  0  0
 19 20  2  0  0  0  0
 32 35  1  0  0  0  0
  8 11  1  0  0  0  0
 41 42  1  0  0  0  0
 18 21  1  0  0  0  0
 31 32  1  0  0  0  0
  7  8  1  0  0  0  0
 17 18  1  0  0  0  0
  3  4  1  0  0  0  0
  3  5  1  0  0  0  0
  3  6  1  0  0  0  0
 35 38  1  0  0  0  0
 35 39  1  0  0  0  0
 35 40  1  0  0  0  0
 11 14  1  0  0  0  0
 11 15  1  0  0  0  0
 11 16  1  0  0  0  0
 42 44  1  0  0  0  0
 42 45  1  0  0  0  0
 42 46  1  0  0  0  0
 21 27  1  0  0  0  0
 21 28  1  0  0  0  0
 32 37  1  0  0  0  0
  8 13  1  0  0  0  0
 18 26  1  0  0  0  0
 24 29  1  0  0  0  0
 24 30  1  0  0  0  0
 41 43  1  0  0  0  0
  7 12  1  0  0  0  0
 31 36  1  0  0  0  0
 17 25  1  0  0  0  0
M  END
$$$$

  -OEChem-05262214473D

 46 45  0     1  0  0  0  0  0999 V2000
   -0.0543    1.9736    3.8406 C   0  0  0  0  0  0  0  0  0  0  0  0
    0.6744    1.6099    4.7562 O   0  0  0  0  0  0  0  0  0  0  0  0
   -0.5599    3.3779    3.8160 C   0  0  0  0  0  0  0  0  0  0  0  0
   -1.5202    3.4885    4.3450 H   0  0  0  0  0  0  0  0  0  0  0  0
    0.1282    4.0814    4.3116 H   0  0  0  0  0  0  0  0  0  0  0  0
   -0.7317    3.7994    2.8126 H   0  0  0  0  0  0  0  0  0  0  0  0
   -0.4812    1.1968    2.7762 N   0  0  0  0  0  0  0  0  0  0  0  0
   -0.1106   -0.1834    2.6051 C   0  0  2  0  0  0  0  0  0  0  0  0
   -0.0696   -0.4775    1.1113 C   0  0  0  0  0  0  0  0  0  0  0  0
   -0.6805    0.1900    0.2792 O   0  0  0  0  0  0  0  0  0  0  0  0
   -1.0852   -1.1101    3.3150 C   0  0  0  0  0  0  0  0  0  0  0  0
   -1.0883    1.6241    2.0791 H   0  0  0  0  0  0  0  0  0  0  0  0
    0.8937   -0.2959    3.0277 H   0  0  0  0  0  0  0  0  0  0  0  0
   -2.0970   -1.0114    2.9051 H   0  0  0  0  0  0  0  0  0  0  0  0
   -0.7860   -2.1580    3.2078 H   0  0  0  0  0  0  0  0  0  0  0  0
   -1.1357   -0.8775    4.3842 H   0  0  0  0  0  0  0  0  0  0  0  0
    0.6950   -1.6003    0.8178 N   0  0  0  0  0  0  0  0  0  0  0  0
    0.8777   -2.0908   -0.5246 C   0  0  2  0  0  0  0  0  0  0  0  0
    2.2875   -1.7152   -0.9633 C   0  0  0  0  0  0  0  0  0  0  0  0
    3.2371   -1.6467   -0.1854 O   0  0  0  0  0  0  0  0  0  0  0  0
   -0.1584   -1.5119   -1.4883 C   0  0  0  0  0  0  0  0  0  0  0  0
   -1.5604   -2.0433   -1.2481 C   0  0  0  0  0  0  0  0  0  0  0  0
   -1.8183   -3.2184   -1.0042 O   0  0  0  0  0  0  0  0  0  0  0  0
   -2.5158   -1.0525   -1.3294 N   0  0  0  0  0  0  0  0  0  0  0  0
    1.1810   -2.0803    1.5718 H   0  0  0  0  0  0  0  0  0  0  0  0
    0.8006   -3.1831   -0.4712 H   0  0  0  0  0  0  0  0  0  0  0  0
   -0.2055   -0.4204   -1.3844 H   0  0  0  0  0  0  0  0  0  0  0  0
    0.1214   -1.7255   -2.5280 H   0  0  0  0  0  0  0  0  0  0  0  0
   -2.2561   -0.0925   -1.5301 H   0  0  0  0  0  0  0  0  0  0  0  0
   -3.5044   -1.2392   -1.1942 H   0  0  0  0  0  0  0  0  0  0  0  0
    2.3742   -1.5137   -2.3336 N   0  0  0  0  0  0  0  0  0  0  0  0
    3.6189   -1.1743   -2.9806 C   0  0  2  0  0  0  0  0  0  0  0  0
    4.6267   -2.2723   -2.6669 C   0  0  0  0  0  0  0  0  0  0  0  0
    4.5255   -3.0179   -1.6949 O   0  0  0  0  0  0  0  0  0  0  0  0
    4.1308    0.1813   -2.5190 C   0  0  0  0  0  0  0  0  0  0  0  0
    1.5443   -1.6128   -2.9108 H   0  0  0  0  0  0  0  0  0  0  0  0
    3.4209   -1.1564   -4.0578 H   0  0  0  0  0  0  0  0  0  0  0  0
    4.3349    0.1828   -1.4421 H   0  0  0  0  0  0  0  0  0  0  0  0
    5.0602    0.4501   -3.0319 H   0  0  0  0  0  0  0  0  0  0  0  0
    3.3922    0.9653   -2.7184 H   0  0  0  0  0  0  0  0  0  0  0  0
    5.6753   -2.2934   -3.5759 N   0  0  0  0  0  0  0  0  0  0  0  0
    6.7660   -3.2359   -3.4861 C   0  0  0  0  0  0  0  0  0  0  0  0
    5.6680   -1.6504   -4.3622 H   0  0  0  0  0  0  0  0  0  0  0  0
    7.5894   -2.7907   -2.9084 H   0  0  0  0  0  0  0  0  0  0  0  0
    6.4191   -4.1512   -2.9843 H   0  0  0  0  0  0  0  0  0  0  0  0
    7.1201   -3.4841   -4.4976 H   0  0  0  0  0  0  0  0  0  0  0  0
  1  3  1  0  0  0  0
  1  7  1  0  0  0  0
  1  2  2  0  0  0  0
 21 22  1  0  0  0  0
 22 24  1  0  0  0  0
 22 23  2  0  0  0  0
 32 33  1  0  0  0  0
 33 41  1  0  0  0  0
 33 34  2  0  0  0  0
  8  9  1  0  0  0  0
  9 17  1  0  0  0  0
  9 10  2  0  0  0  0
 18 19  1  0  0  0  0
 19 31  1  0  0  0  0
 19 20  2  0  0  0  0
 32 35  1  0  0  0  0
  8 11  1  0  0  0  0
 41 42  1  0  0  0  0
 18 21  1  0  0  0  0
 31 32  1  0  0  0  0
  7  8  1  0  0  0  0
 17 18  1  0  0  0  0
  3  4  1  0  0  0  0
  3  5  1  0  0  0  0
  3  6  1  0  0  0  0
 35 38  1  0  0  0  0
 35 39  1  0  0  0  0
 35 40  1  0  0  0  0
 11 14  1  0  0  0  0
 11 15  1  0  0  0  0
 11 16  1  0  0  0  0
 42 44  1  0  0  0  0
 42 45  1  0  0  0  0
 42 46  1  0  0  0  0
 21 27  1  0  0  0  0
 21 28  1  0  0  0  0
 32 37  1  0  0  0  0
  8 13  1  0  0  0  0
 18 26  1  0  0  0  0
 24 29  1  0  0  0  0
 24 30  1  0  0  0  0
 41 43  1  0  0  0  0
  7 12  1  0  0  0  0
 31 36  1  0  0  0  0
 17 25  1  0  0  0  0
M  END
$$$$

  -OEChem-05262214473D

 46 45  0     1  0  0  0  0  0999 V2000
   -0.0543    1.9736    3.8406 C   0  0  0  0  0  0  0  0  0  0  0  0
    0.6744    1.6099    4.7562 O   0  0  0  0  0  0  0  0  0  0  0  0
   -0.5599    3.3779    3.8160 C   0  0  0  0  0  0  0  0  0  0  0  0
   -1.5202    3.4885    4.3450 H   0  0  0  0  0  0  0  0  0  0  0  0
    0.1282    4.0814    4.3116 H   0  0  0  0  0  0  0  0  0  0  0  0
   -0.7317    3.7994    2.8126 H   0  0  0  0  0  0  0  0  0  0  0  0
   -0.4812    1.1968    2.7762 N   0  0  0  0  0  0  0  0  0  0  0  0
   -0.1106   -0.1834    2.6051 C   0  0  2  0  0  0  0  0  0  0  0  0
   -0.0696   -0.4775    1.1113 C   0  0  0  0  0  0  0  0  0  0  0  0
   -0.6805    0.1900    0.2792 O   0  0  0  0  0  0  0  0  0  0  0  0
   -1.0852   -1.1101    3.3150 C   0  0  0  0  0  0  0  0  0  0  0  0
   -1.0883    1.6241    2.0791 H   0  0  0  0  0  0  0  0  0  0  0  0
    0.8937   -0.2959    3.0277 H   0  0  0  0  0  0  0  0  0  0  0  0
   -2.0970   -1.0114    2.9051 H   0  0  0  0  0  0  0  0  0  0  0  0
   -0.7860   -2.1580    3.2078 H   0  0  0  0  0  0  0  0  0  0  0  0
   -1.1357   -0.8775    4.3842 H   0  0  0  0  0  0  0  0  0  0  0  0
    0.6950   -1.6003    0.8178 N   0  0  0  0  0  0  0  0  0  0  0  0
    0.8777   -2.0908   -0.5246 C   0  0  2  0  0  0  0  0  0  0  0  0
    2.2875   -1.7152   -0.9633 C   0  0  0  0  0  0  0  0  0  0  0  0
    3.2807   -1.9004   -0.2627 O   0  0  0  0  0  0  0  0  0  0  0  0
   -0.1584   -1.5119   -1.4883 C   0  0  0  0  0  0  0  0  0  0  0  0
   -1.5604   -2.0433   -1.2481 C   0  0  0  0  0  0  0  0  0  0  0  0
   -1.8183   -3.2184   -1.0042 O   0  0  0  0  0  0  0  0  0  0  0  0
   -2.5158   -1.0525   -1.3294 N   0  0  0  0  0  0  0  0  0  0  0  0
    1.1810   -2.0803    1.5718 H   0  0  0  0  0  0  0  0  0  0  0  0
    0.8006   -3.1831   -0.4712 H   0  0  0  0  0  0  0  0  0  0  0  0
   -0.2055   -0.4204   -1.3844 H   0  0  0  0  0  0  0  0  0  0  0  0
    0.1214   -1.7255   -2.5280 H   0  0  0  0  0  0  0  0  0  0  0  0
   -2.2561   -0.0925   -1.5301 H   0  0  0  0  0  0  0  0  0  0  0  0
   -3.5044   -1.2392   -1.1942 H   0  0  0  0  0  0  0  0  0  0  0  0
    2.3154   -1.1944   -2.2493 N   0  0  0  0  0  0  0  0  0  0  0  0
    3.5465   -0.7924   -2.8863 C   0  0  2  0  0  0  0  0  0  0  0  0
    4.4762   -1.9984   -2.9162 C   0  0  0  0  0  0  0  0  0  0  0  0
    4.3673   -2.9486   -2.1440 O   0  0  0  0  0  0  0  0  0  0  0  0
    4.1927    0.3740   -2.1551 C   0  0  0  0  0  0  0  0  0  0  0  0
    1.4498   -1.0953   -2.7715 H   0  0  0  0  0  0  0  0  0  0  0  0
    3.2919   -0.5013   -3.9113 H   0  0  0  0  0  0  0  0  0  0  0  0
    4.4548    0.1012   -1.1263 H   0  0  0  0  0  0  0  0  0  0  0  0
    5.1116    0.6962   -2.6559 H   0  0  0  0  0  0  0  0  0  0  0  0
    3.5114    1.2304   -2.1086 H   0  0  0  0  0  0  0  0  0  0  0  0
    5.4681   -1.8690   -3.8782 N   0  0  0  0  0  0  0  0  0  0  0  0
    6.4808   -2.8758   -4.0943 C   0  0  0  0  0  0  0  0  0  0  0  0
    5.4707   -1.0559   -4.4870 H   0  0  0  0  0  0  0  0  0  0  0  0
    7.3685   -2.6396   -3.4891 H   0  0  0  0  0  0  0  0  0  0  0  0
    6.0878   -3.8601   -3.7998 H   0  0  0  0  0  0  0  0  0  0  0  0
    6.7574   -2.8950   -5.1587 H   0  0  0  0  0  0  0  0  0  0  0  0
  1  3  1  0  0  0  0
  1  7  1  0  0  0  0
  1  2  2  0  0  0  0
 21 22  1  0  0  0  0
 22 24  1  0  0  0  0
 22 23  2  0  0  0  0
 32 33  1  0  0  0  0
 33 41  1  0  0  0  0
 33 34  2  0  0  0  0
  8  9  1  0  0  0  0
  9 17  1  0  0  0  0
  9 10  2  0  0  0  0
 18 19  1  0  0  0  0
 19 31  1  0  0  0  0
 19 20  2  0  0  0  0
 32 35  1  0  0  0  0
  8 11  1  0  0  0  0
 41 42  1  0  0  0  0
 18 21  1  0  0  0  0
 31 32  1  0  0  0  0
  7  8  1  0  0  0  0
 17 18  1  0  0  0  0
  3  4  1  0  0  0  0
  3  5  1  0  0  0  0
  3  6  1  0  0  0  0
 35 38  1  0  0  0  0
 35 39  1  0  0  0  0
 35 40  1  0  0  0  0
 11 14  1  0  0  0  0
 11 15  1  0  0  0  0
 11 16  1  0  0  0  0
 42 44  1  0  0  0  0
 42 45  1  0  0  0  0
 42 46  1  0  0  0  0
 21 27  1  0  0  0  0
 21 28  1  0  0  0  0
 32 37  1  0  0  0  0
  8 13  1  0  0  0  0
 18 26  1  0  0  0  0
 24 29  1  0  0  0  0
 24 30  1  0  0  0  0
 41 43  1  0  0  0  0
  7 12  1  0  0  0  0
 31 36  1  0  0  0  0
 17 25  1  0  0  0  0
M  END
$$$$

  -OEChem-05262214473D

 46 45  0     1  0  0  0  0  0999 V2000
   -0.0543    1.9736    3.8406 C   0  0  0  0  0  0  0  0  0  0  0  0
    0.6744    1.6099    4.7562 O   0  0  0  0  0  0  0  0  0  0  0  0
   -0.5599    3.3779    3.8160 C   0  0  0  0  0  0  0  0  0  0  0  0
   -1.5202    3.4885    4.3450 H   0  0  0  0  0  0  0  0  0  0  0  0
    0.1282    4.0814    4.3116 H   0  0  0  0  0  0  0  0  0  0  0  0
   -0.7317    3.7994    2.8126 H   0  0  0  0  0  0  0  0  0  0  0  0
   -0.4812    1.1968    2.7762 N   0  0  0  0  0  0  0  0  0  0  0  0
   -0.1106   -0.1834    2.6051 C   0  0  2  0  0  0  0  0  0  0  0  0
   -0.0696   -0.4775    1.1113 C   0  0  0  0  0  0  0  0  0  0  0  0
   -0.6805    0.1900    0.2792 O   0  0  0  0  0  0  0  0  0  0  0  0
   -1.0852   -1.1101    3.3150 C   0  0  0  0  0  0  0  0  0  0  0  0
   -1.0883    1.6241    2.0791 H   0  0  0  0  0  0  0  0  0  0  0  0
    0.8937   -0.2959    3.0277 H   0  0  0  0  0  0  0  0  0  0  0  0
   -2.0970   -1.0114    2.9051 H   0  0  0  0  0  0  0  0  0  0  0  0
   -0.7860   -2.1580    3.2078 H   0  0  0  0  0  0  0  0  0  0  0  0
   -1.1357   -0.8775    4.3842 H   0  0  0  0  0  0  0  0  0  0  0  0
    0.6950   -1.6003    0.8178 N   0  0  0  0  0  0  0  0  0  0  0  0
    0.8777   -2.0908   -0.5246 C   0  0  2  0  0  0  0  0  0  0  0  0
    2.2875   -1.7152   -0.9633 C   0  0  0  0  0  0  0  0  0  0  0  0
    3.2989   -2.1303   -0.4009 O   0  0  0  0  0  0  0  0  0  0  0  0
   -0.1584   -1.5119   -1.4883 C   0  0  0  0  0  0  0  0  0  0  0  0
   -1.5604   -2.0433   -1.2481 C   0  0  0  0  0  0  0  0  0  0  0  0
   -1.8183   -3.2184   -1.0042 O   0  0  0  0  0  0  0  0  0  0  0  0
   -2.5158   -1.0525   -1.3294 N   0  0  0  0  0  0  0  0  0  0  0  0
    1.1810   -2.0803    1.5718 H   0  0  0  0  0  0  0  0  0  0  0  0
    0.8006   -3.1831   -0.4712 H   0  0  0  0  0  0  0  0  0  0  0  0
   -0.2055   -0.4204   -1.3844 H   0  0  0  0  0  0  0  0  0  0  0  0
    0.1214   -1.7255   -2.5280 H   0  0  0  0  0  0  0  0  0  0  0  0
   -2.2561   -0.0925   -1.5301 H   0  0  0  0  0  0  0  0  0  0  0  0
   -3.5044   -1.2392   -1.1942 H   0  0  0  0  0  0  0  0  0  0  0  0
    2.2877   -0.9018   -2.0877 N   0  0  0  0  0  0  0  0  0  0  0  0
    3.5111   -0.4408   -2.6992 C   0  0  2  0  0  0  0  0  0  0  0  0
    4.3353   -1.6630   -3.0819 C   0  0  0  0  0  0  0  0  0  0  0  0
    4.1910   -2.7623   -2.5511 O   0  0  0  0  0  0  0  0  0  0  0  0
    4.2901    0.4683   -1.7614 C   0  0  0  0  0  0  0  0  0  0  0  0
    1.4059   -0.6218   -2.5070 H   0  0  0  0  0  0  0  0  0  0  0  0
    3.2256    0.1060   -3.6046 H   0  0  0  0  0  0  0  0  0  0  0  0
    4.5848   -0.0621   -0.8486 H   0  0  0  0  0  0  0  0  0  0  0  0
    5.2036    0.8400   -2.2372 H   0  0  0  0  0  0  0  0  0  0  0  0
    3.6851    1.3315   -1.4636 H   0  0  0  0  0  0  0  0  0  0  0  0
    5.2804   -1.3711   -4.0554 N   0  0  0  0  0  0  0  0  0  0  0  0
    6.1934   -2.3611   -4.5772 C   0  0  0  0  0  0  0  0  0  0  0  0
    5.3166   -0.4370   -4.4526 H   0  0  0  0  0  0  0  0  0  0  0  0
    7.1293   -2.3381   -3.9996 H   0  0  0  0  0  0  0  0  0  0  0  0
    5.7374   -3.3589   -4.4966 H   0  0  0  0  0  0  0  0  0  0  0  0
    6.4089   -2.1406   -5.6331 H   0  0  0  0  0  0  0  0  0  0  0  0
  1  3  1  0  0  0  0
  1  7  1  0  0  0  0
  1  2  2  0  0  0  0
 21 22  1  0  0  0  0
 22 24  1  0  0  0  0
 22 23  2  0  0  0  0
 32 33  1  0  0  0  0
 33 41  1  0  0  0  0
 33 34  2  0  0  0  0
  8  9  1  0  0  0  0
  9 17  1  0  0  0  0
  9 10  2  0  0  0  0
 18 19  1  0  0  0  0
 19 31  1  0  0  0  0
 19 20  2  0  0  0  0
 32 35  1  0  0  0  0
  8 11  1  0  0  0  0
 41 42  1  0  0  0  0
 18 21  1  0  0  0  0
 31 32  1  0  0  0  0
  7  8  1  0  0  0  0
 17 18  1  0  0  0  0
  3  4  1  0  0  0  0
  3  5  1  0  0  0  0
  3  6  1  0  0  0  0
 35 38  1  0  0  0  0
 35 39  1  0  0  0  0
 35 40  1  0  0  0  0
 11 14  1  0  0  0  0
 11 15  1  0  0  0  0
 11 16  1  0  0  0  0
 42 44  1  0  0  0  0
 42 45  1  0  0  0  0
 42 46  1  0  0  0  0
 21 27  1  0  0  0  0
 21 28  1  0  0  0  0
 32 37  1  0  0  0  0
  8 13  1  0  0  0  0
 18 26  1  0  0  0  0
 24 29  1  0  0  0  0
 24 30  1  0  0  0  0
 41 43  1  0  0  0  0
  7 12  1  0  0  0  0
 31 36  1  0  0  0  0
 17 25  1  0  0  0  0
M  END
$$$$

  -OEChem-05262214473D

 46 45  0     1  0  0  0  0  0999 V2000
   -0.0543    1.9736    3.8406 C   0  0  0  0  0  0  0  0  0  0  0  0
    0.6744    1.6099    4.7562 O   0  0  0  0  0  0  0  0  0  0  0  0
   -0.5599    3.3779    3.8160 C   0  0  0  0  0  0  0  0  0  0  0  0
   -1.5202    3.4885    4.3450 H   0  0  0  0  0  0  0  0  0  0  0  0
    0.1282    4.0814    4.3116 H   0  0  0  0  0  0  0  0  0  0  0  0
   -0.7317    3.7994    2.8126 H   0  0  0  0  0  0  0  0  0  0  0  0
   -0.4812    1.1968    2.7762 N   0  0  0  0  0  0  0  0  0  0  0  0
   -0.1106   -0.1834    2.6051 C   0  0  2  0  0  0  0  0  0  0  0  0
   -0.0696   -0.4775    1.1113 C   0  0  0  0  0  0  0  0  0  0  0  0
   -0.6805    0.1900    0.2792 O   0  0  0  0  0  0  0  0  0  0  0  0
   -1.0852   -1.1101    3.3150 C   0  0  0  0  0  0  0  0  0  0  0  0
   -1.0883    1.6241    2.0791 H   0  0  0  0  0  0  0  0  0  0  0  0
    0.8937   -0.2959    3.0277 H   0  0  0  0  0  0  0  0  0  0  0  0
   -2.0970   -1.0114    2.9051 H   0  0  0  0  0  0  0  0  0  0  0  0
   -0.7860   -2.1580    3.2078 H   0  0  0  0  0  0  0  0  0  0  0  0
   -1.1357   -0.8775    4.3842 H   0  0  0  0  0  0  0  0  0  0  0  0
    0.6950   -1.6003    0.8178 N   0  0  0  0  0  0  0  0  0  0  0  0
    0.8777   -2.0908   -0.5246 C   0  0  2  0  0  0  0  0  0  0  0  0
    2.2875   -1.7152   -0.9633 C   0  0  0  0  0  0  0  0  0  0  0  0
    3.2906   -2.3206   -0.5906 O   0  0  0  0  0  0  0  0  0  0  0  0
   -0.1584   -1.5119   -1.4883 C   0  0  0  0  0  0  0  0  0  0  0  0
   -1.5604   -2.0433   -1.2481 C   0  0  0  0  0  0  0  0  0  0  0  0
   -1.8183   -3.2184   -1.0042 O   0  0  0  0  0  0  0  0  0  0  0  0
   -2.5158   -1.0525   -1.3294 N   0  0  0  0  0  0  0  0  0  0  0  0
    1.1810   -2.0803    1.5718 H   0  0  0  0  0  0  0  0  0  0  0  0
    0.8006   -3.1831   -0.4712 H   0  0  0  0  0  0  0  0  0  0  0  0
   -0.2055   -0.4204   -1.3844 H   0  0  0  0  0  0  0  0  0  0  0  0
    0.1214   -1.7255   -2.5280 H   0  0  0  0  0  0  0  0  0  0  0  0
   -2.2561   -0.0925   -1.5301 H   0  0  0  0  0  0  0  0  0  0  0  0
   -3.5044   -1.2392   -1.1942 H   0  0  0  0  0  0  0  0  0  0  0  0
    2.2931   -0.6558   -1.8597 N   0  0  0  0  0  0  0  0  0  0  0  0
    3.5149   -0.1433   -2.4320 C   0  0  2  0  0  0  0  0  0  0  0  0
    4.2136   -1.2888   -3.1525 C   0  0  0  0  0  0  0  0  0  0  0  0
    4.0086   -2.4717   -2.8885 O   0  0  0  0  0  0  0  0  0  0  0  0
    4.4163    0.4578   -1.3648 C   0  0  0  0  0  0  0  0  0  0  0  0
    1.4157   -0.2245   -2.1352 H   0  0  0  0  0  0  0  0  0  0  0  0
    3.2263    0.6241   -3.1586 H   0  0  0  0  0  0  0  0  0  0  0  0
    4.7158   -0.2961   -0.6277 H   0  0  0  0  0  0  0  0  0  0  0  0
    5.3299    0.8718   -1.8041 H   0  0  0  0  0  0  0  0  0  0  0  0
    3.9016    1.2617   -0.8275 H   0  0  0  0  0  0  0  0  0  0  0  0
    5.1248   -0.8339   -4.0954 N   0  0  0  0  0  0  0  0  0  0  0  0
    5.9234   -1.7269   -4.9021 C   0  0  0  0  0  0  0  0  0  0  0  0
    5.2160    0.1641   -4.2613 H   0  0  0  0  0  0  0  0  0  0  0  0
    6.8882   -1.9068   -4.4053 H   0  0  0  0  0  0  0  0  0  0  0  0
    5.3919   -2.6818   -5.0274 H   0  0  0  0  0  0  0  0  0  0  0  0
    6.0981   -1.2724   -5.8885 H   0  0  0  0  0  0  0  0  0  0  0  0
  1  3  1  0  0  0  0
  1  7  1  0  0  0  0
  1  2  2  0  0  0  0
 21 22  1  0  0  0  0
 22 24  1  0  0  0  0
 22 23  2  0  0  0  0
 32 33  1  0  0  0  0
 33 41  1  0  0  0  0
 33 34  2  0  0  0  0
  8  9  1  0  0  0  0
  9 17  1  0  0  0  0
  9 10  2  0  0  0  0
 18 19  1  0  0  0  0
 19 31  1  0  0  0  0
 19 20  2  0  0  0  0
 32 35  1  0  0  0  0
  8 11  1  0  0  0  0
 41 42  1  0  0  0  0
 18 21  1  0  0  0  0
 31 32  1  0  0  0  0
  7  8  1  0  0  0  0
 17 18  1  0  0  0  0
  3  4  1  0  0  0  0
  3  5  1  0  0  0  0
  3  6  1  0  0  0  0
 35 38  1  0  0  0  0
 35 39  1  0  0  0  0
 35 40  1  0  0  0  0
 11 14  1  0  0  0  0
 11 15  1  0  0  0  0
 11 16  1  0  0  0  0
 42 44  1  0  0  0  0
 42 45  1  0  0  0  0
 42 46  1  0  0  0  0
 21 27  1  0  0  0  0
 21 28  1  0  0  0  0
 32 37  1  0  0  0  0
  8 13  1  0  0  0  0
 18 26  1  0  0  0  0
 24 29  1  0  0  0  0
 24 30  1  0  0  0  0
 41 43  1  0  0  0  0
  7 12  1  0  0  0  0
 31 36  1  0  0  0  0
 17 25  1  0  0  0  0
M  END
$$$$

  -OEChem-05262214473D

 46 45  0     1  0  0  0  0  0999 V2000
   -0.0543    1.9736    3.8406 C   0  0  0  0  0  0  0  0  0  0  0  0
    0.6744    1.6099    4.7562 O   0  0  0  0  0  0  0  0  0  0  0  0
   -0.5599    3.3779    3.8160 C   0  0  0  0  0  0  0  0  0  0  0  0
   -1.5202    3.4885    4.3450 H   0  0  0  0  0  0  0  0  0  0  0  0
    0.1282    4.0814    4.3116 H   0  0  0  0  0  0  0  0  0  0  0  0
   -0.7317    3.7994    2.8126 H   0  0  0  0  0  0  0  0  0  0  0  0
   -0.4812    1.1968    2.7762 N   0  0  0  0  0  0  0  0  0  0  0  0
   -0.1106   -0.1834    2.6051 C   0  0  2  0  0  0  0  0  0  0  0  0
   -0.0696   -0.4775    1.1113 C   0  0  0  0  0  0  0  0  0  0  0  0
   -0.6805    0.1900    0.2792 O   0  0  0  0  0  0  0  0  0  0  0  0
   -1.0852   -1.1101    3.3150 C   0  0  0  0  0  0  0  0  0  0  0  0
   -1.0883    1.6241    2.0791 H   0  0  0  0  0  0  0  0  0  0  0  0
    0.8937   -0.2959    3.0277 H   0  0  0  0  0  0  0  0  0  0  0  0
   -2.0970   -1.0114    2.9051 H   0  0  0  0  0  0  0  0  0  0  0  0
   -0.7860   -2.1580    3.2078 H   0  0  0  0  0  0  0  0  0  0  0  0
   -1.1357   -0.8775    4.3842 H   0  0  0  0  0  0  0  0  0  0  0  0
    0.6950   -1.6003    0.8178 N   0  0  0  0  0  0  0  0  0  0  0  0
    0.8777   -2.0908   -0.5246 C   0  0  2  0  0  0  0  0  0  0  0  0
    2.2875   -1.7152   -0.9633 C   0  0  0  0  0  0  0  0  0  0  0  0
    3.2562   -2.4583   -0.8188 O   0  0  0  0  0  0  0  0  0  0  0  0
   -0.1584   -1.5119   -1.4883 C   0  0  0  0  0  0  0  0  0  0  0  0
   -1.5604   -2.0433   -1.2481 C   0  0  0  0  0  0  0  0  0  0  0  0
   -1.8183   -3.2184   -1.0042 O   0  0  0  0  0  0  0  0  0  0  0  0
   -2.5158   -1.0525   -1.3294 N   0  0  0  0  0  0  0  0  0  0  0  0
    1.1810   -2.0803    1.5718 H   0  0  0  0  0  0  0  0  0  0  0  0
    0.8006   -3.1831   -0.4712 H   0  0  0  0  0  0  0  0  0  0  0  0
   -0.2055   -0.4204   -1.3844 H   0  0  0  0  0  0  0  0  0  0  0  0
    0.1214   -1.7255   -2.5280 H   0  0  0  0  0  0  0  0  0  0  0  0
   -2.2561   -0.0925   -1.5301 H   0  0  0  0  0  0  0  0  0  0  0  0
   -3.5044   -1.2392   -1.1942 H   0  0  0  0  0  0  0  0  0  0  0  0
    2.3312   -0.4732   -1.5810 N   0  0  0  0  0  0  0  0  0  0  0  0
    3.5579    0.0798   -2.1029 C   0  0  2  0  0  0  0  0  0  0  0  0
    4.1194   -0.9014   -3.1234 C   0  0  0  0  0  0  0  0  0  0  0  0
    3.8325   -2.0966   -3.1331 O   0  0  0  0  0  0  0  0  0  0  0  0
    4.5627    0.3433   -0.9922 C   0  0  0  0  0  0  0  0  0  0  0  0
    1.4785    0.0695   -1.6816 H   0  0  0  0  0  0  0  0  0  0  0  0
    3.2941    1.0176   -2.6038 H   0  0  0  0  0  0  0  0  0  0  0  0
    4.8391   -0.5848   -0.4787 H   0  0  0  0  0  0  0  0  0  0  0  0
    5.4819    0.7893   -1.3862 H   0  0  0  0  0  0  0  0  0  0  0  0
    4.1461    1.0259   -0.2436 H   0  0  0  0  0  0  0  0  0  0  0  0
    5.0120   -0.2937   -3.9953 N   0  0  0  0  0  0  0  0  0  0  0  0
    5.6890   -1.0163   -5.0468 C   0  0  0  0  0  0  0  0  0  0  0  0
    5.1758    0.7063   -3.9261 H   0  0  0  0  0  0  0  0  0  0  0  0
    6.6615   -1.3750   -4.6785 H   0  0  0  0  0  0  0  0  0  0  0  0
    5.0747   -1.8749   -5.3558 H   0  0  0  0  0  0  0  0  0  0  0  0
    5.8463   -0.3494   -5.9073 H   0  0  0  0  0  0  0  0  0  0  0  0
  1  3  1  0  0  0  0
  1  7  1  0  0  0  0
  1  2  2  0  0  0  0
 21 22  1  0  0  0  0
 22 24  1  0  0  0  0
 22 23  2  0  0  0  0
 32 33  1  0  0  0  0
 33 41  1  0  0  0  0
 33 34  2  0  0  0  0
  8  9  1  0  0  0  0
  9 17  1  0  0  0  0
  9 10  2  0  0  0  0
 18 19  1  0  0  0  0
 19 31  1  0  0  0  0
 19 20  2  0  0  0  0
 32 35  1  0  0  0  0
  8 11  1  0  0  0  0
 41 42  1  0  0  0  0
 18 21  1  0  0  0  0
 31 32  1  0  0  0  0
  7  8  1  0  0  0  0
 17 18  1  0  0  0  0
  3  4  1  0  0  0  0
  3  5  1  0  0  0  0
  3  6  1  0  0  0  0
 35 38  1  0  0  0  0
 35 39  1  0  0  0  0
 35 40  1  0  0  0  0
 11 14  1  0  0  0  0
 11 15  1  0  0  0  0
 11 16  1  0  0  0  0
 42 44  1  0  0  0  0
 42 45  1  0  0  0  0
 42 46  1  0  0  0  0
 21 27  1  0  0  0  0
 21 28  1  0  0  0  0
 32 37  1  0  0  0  0
  8 13  1  0  0  0  0
 18 26  1  0  0  0  0
 24 29  1  0  0  0  0
 24 30  1  0  0  0  0
 41 43  1  0  0  0  0
  7 12  1  0  0  0  0
 31 36  1  0  0  0  0
 17 25  1  0  0  0  0
M  END
$$$$

  -OEChem-05262214473D

 46 45  0     1  0  0  0  0  0999 V2000
   -0.0543    1.9736    3.8406 C   0  0  0  0  0  0  0  0  0  0  0  0
    0.6744    1.6099    4.7562 O   0  0  0  0  0  0  0  0  0  0  0  0
   -0.5599    3.3779    3.8160 C   0  0  0  0  0  0  0  0  0  0  0  0
   -1.5202    3.4885    4.3450 H   0  0  0  0  0  0  0  0  0  0  0  0
    0.1282    4.0814    4.3116 H   0  0  0  0  0  0  0  0  0  0  0  0
   -0.7317    3.7994    2.8126 H   0  0  0  0  0  0  0  0  0  0  0  0
   -0.4812    1.1968    2.7762 N   0  0  0  0  0  0  0  0  0  0  0  0
   -0.1106   -0.1834    2.6051 C   0  0  2  0  0  0  0  0  0  0  0  0
   -0.0696   -0.4775    1.1113 C   0  0  0  0  0  0  0  0  0  0  0  0
   -0.6805    0.1900    0.2792 O   0  0  0  0  0  0  0  0  0  0  0  0
   -1.0852   -1.1101    3.3150 C   0  0  0  0  0  0  0  0  0  0  0  0
   -1.0883    1.6241    2.0791 H   0  0  0  0  0  0  0  0  0  0  0  0
    0.8937   -0.2959    3.0277 H   0  0  0  0  0  0  0  0  0  0  0  0
   -2.0970   -1.0114    2.9051 H   0  0  0  0  0  0  0  0  0  0  0  0
   -0.7860   -2.1580    3.2078 H   0  0  0  0  0  0  0  0  0  0  0  0
   -1.1357   -0.8775    4.3842 H   0  0  0  0  0  0  0  0  0  0  0  0
    0.6950   -1.6003    0.8178 N   0  0  0  0  0  0  0  0  0  0  0  0
    0.8777   -2.0908   -0.5246 C   0  0  2  0  0  0  0  0  0  0  0  0
    2.2875   -1.7152   -0.9633 C   0  0  0  0  0  0  0  0  0  0  0  0
    3.1982   -2.5341   -1.0701 O   0  0  0  0  0  0  0  0  0  0  0  0
   -0.1584   -1.5119   -1.4883 C   0  0  0  0  0  0  0  0  0  0  0  0
   -1.5604   -2.0433   -1.2481 C   0  0  0  0  0  0  0  0  0  0  0  0
   -1.8183   -3.2184   -1.0042 O   0  0  0  0  0  0  0  0  0  0  0  0
   -2.5158   -1.0525   -1.3294 N   0  0  0  0  0  0  0  0  0  0  0  0
    1.1810   -2.0803    1.5718 H   0  0  0  0  0  0  0  0  0  0  0  0
    0.8006   -3.1831   -0.4712 H   0  0  0  0  0  0  0  0  0  0  0  0
   -0.2055   -0.4204   -1.3844 H   0  0  0  0  0  0  0  0  0  0  0  0
    0.1214   -1.7255   -2.5280 H   0  0  0  0  0  0  0  0  0  0  0  0
   -2.2561   -0.0925   -1.5301 H   0  0  0  0  0  0  0  0  0  0  0  0
   -3.5044   -1.2392   -1.1942 H   0  0  0  0  0  0  0  0  0  0  0  0
    2.3994   -0.3665   -1.2704 N   0  0  0  0  0  0  0  0  0  0  0  0
    3.6371    0.2133   -1.7343 C   0  0  2  0  0  0  0  0  0  0  0  0
    4.0592   -0.5271   -2.9965 C   0  0  0  0  0  0  0  0  0  0  0  0
    3.6748   -1.6626   -3.2684 O   0  0  0  0  0  0  0  0  0  0  0  0
    4.7194    0.1326   -0.6691 C   0  0  0  0  0  0  0  0  0  0  0  0
    1.5901    0.2402   -1.1771 H   0  0  0  0  0  0  0  0  0  0  0  0
    3.4243    1.2599   -1.9780 H   0  0  0  0  0  0  0  0  0  0  0  0
    4.9462   -0.9085   -0.4118 H   0  0  0  0  0  0  0  0  0  0  0  0
    5.6492    0.5983   -1.0120 H   0  0  0  0  0  0  0  0  0  0  0  0
    4.4020    0.6400    0.2483 H   0  0  0  0  0  0  0  0  0  0  0  0
    4.9497    0.2124   -3.7621 N   0  0  0  0  0  0  0  0  0  0  0  0
    5.5064   -0.2778   -5.0014 C   0  0  0  0  0  0  0  0  0  0  0  0
    5.1988    1.1528   -3.4699 H   0  0  0  0  0  0  0  0  0  0  0  0
    6.4647   -0.7791   -4.8006 H   0  0  0  0  0  0  0  0  0  0  0  0
    4.8075   -0.9931   -5.4595 H   0  0  0  0  0  0  0  0  0  0  0  0
    5.6707    0.5655   -5.6884 H   0  0  0  0  0  0  0  0  0  0  0  0
  1  3  1  0  0  0  0
  1  7  1  0  0  0  0
  1  2  2  0  0  0  0
 21 22  1  0  0  0  0
 22 24  1  0  0  0  0
 22 23  2  0  0  0  0
 32 33  1  0  0  0  0
 33 41  1  0  0  0  0
 33 34  2  0  0  0  0
  8  9  1  0  0  0  0
  9 17  1  0  0  0  0
  9 10  2  0  0  0  0
 18 19  1  0  0  0  0
 19 31  1  0  0  0  0
 19 20  2  0  0  0  0
 32 35  1  0  0  0  0
  8 11  1  0  0  0  0
 41 42  1  0  0  0  0
 18 21  1  0  0  0  0
 31 32  1  0  0  0  0
  7  8  1  0  0  0  0
 17 18  1  0  0  0  0
  3  4  1  0  0  0  0
  3  5  1  0  0  0  0
  3  6  1  0  0  0  0
 35 38  1  0  0  0  0
 35 39  1  0  0  0  0
 35 40  1  0  0  0  0
 11 14  1  0  0  0  0
 11 15  1  0  0  0  0
 11 16  1  0  0  0  0
 42 44  1  0  0  0  0
 42 45  1  0  0  0  0
 42 46  1  0  0  0  0
 21 27  1  0  0  0  0
 21 28  1  0  0  0  0
 32 37  1  0  0  0  0
  8 13  1  0  0  0  0
 18 26  1  0  0  0  0
 24 29  1  0  0  0  0
 24 30  1  0  0  0  0
 41 43  1  0  0  0  0
  7 12  1  0  0  0  0
 31 36  1  0  0  0  0
 17 25  1  0  0  0  0
M  END
$$$$

  -OEChem-05262214473D

 46 45  0     1  0  0  0  0  0999 V2000
   -0.0543    1.9736    3.8406 C   0  0  0  0  0  0  0  0  0  0  0  0
    0.6744    1.6099    4.7562 O   0  0  0  0  0  0  0  0  0  0  0  0
   -0.5599    3.3779    3.8160 C   0  0  0  0  0  0  0  0  0  0  0  0
   -1.5202    3.4885    4.3450 H   0  0  0  0  0  0  0  0  0  0  0  0
    0.1282    4.0814    4.3116 H   0  0  0  0  0  0  0  0  0  0  0  0
   -0.7317    3.7994    2.8126 H   0  0  0  0  0  0  0  0  0  0  0  0
   -0.4812    1.1968    2.7762 N   0  0  0  0  0  0  0  0  0  0  0  0
   -0.1106   -0.1834    2.6051 C   0  0  2  0  0  0  0  0  0  0  0  0
   -0.0696   -0.4775    1.1113 C   0  0  0  0  0  0  0  0  0  0  0  0
   -0.6805    0.1900    0.2792 O   0  0  0  0  0  0  0  0  0  0  0  0
   -1.0852   -1.1101    3.3150 C   0  0  0  0  0  0  0  0  0  0  0  0
   -1.0883    1.6241    2.0791 H   0  0  0  0  0  0  0  0  0  0  0  0
    0.8937   -0.2959    3.0277 H   0  0  0  0  0  0  0  0  0  0  0  0
   -2.0970   -1.0114    2.9051 H   0  0  0  0  0  0  0  0  0  0  0  0
   -0.7860   -2.1580    3.2078 H   0  0  0  0  0  0  0  0  0  0  0  0
   -1.1357   -0.8775    4.3842 H   0  0  0  0  0  0  0  0  0  0  0  0
    0.6950   -1.6003    0.8178 N   0  0  0  0  0  0  0  0  0  0  0  0
    0.8777   -2.0908   -0.5246 C   0  0  2  0  0  0  0  0  0  0  0  0
    2.2875   -1.7152   -0.9633 C   0  0  0  0  0  0  0  0  0  0  0  0
    3.1205   -2.5429   -1.3273 O   0  0  0  0  0  0  0  0  0  0  0  0
   -0.1584   -1.5119   -1.4883 C   0  0  0  0  0  0  0  0  0  0  0  0
   -1.5604   -2.0433   -1.2481 C   0  0  0  0  0  0  0  0  0  0  0  0
   -1.8183   -3.2184   -1.0042 O   0  0  0  0  0  0  0  0  0  0  0  0
   -2.5158   -1.0525   -1.3294 N   0  0  0  0  0  0  0  0  0  0  0  0
    1.1810   -2.0803    1.5718 H   0  0  0  0  0  0  0  0  0  0  0  0
    0.8006   -3.1831   -0.4712 H   0  0  0  0  0  0  0  0  0  0  0  0
   -0.2055   -0.4204   -1.3844 H   0  0  0  0  0  0  0  0  0  0  0  0
    0.1214   -1.7255   -2.5280 H   0  0  0  0  0  0  0  0  0  0  0  0
   -2.2561   -0.0925   -1.5301 H   0  0  0  0  0  0  0  0  0  0  0  0
   -3.5044   -1.2392   -1.1942 H   0  0  0  0  0  0  0  0  0  0  0  0
    2.4930   -0.3428   -0.9492 N   0  0  0  0  0  0  0  0  0  0  0  0
    3.7470    0.2480   -1.3513 C   0  0  2  0  0  0  0  0  0  0  0  0
    4.0371   -0.1915   -2.7804 C   0  0  0  0  0  0  0  0  0  0  0  0
    3.5462   -1.1992   -3.2850 O   0  0  0  0  0  0  0  0  0  0  0  0
    4.8757   -0.1601   -0.4174 C   0  0  0  0  0  0  0  0  0  0  0  0
    1.7427    0.2759   -0.6560 H   0  0  0  0  0  0  0  0  0  0  0  0
    3.6080    1.3343   -1.3238 H   0  0  0  0  0  0  0  0  0  0  0  0
    5.0297   -1.2452   -0.4316 H   0  0  0  0  0  0  0  0  0  0  0  0
    5.8204    0.3117   -0.7070 H   0  0  0  0  0  0  0  0  0  0  0  0
    4.6518    0.1304    0.6147 H   0  0  0  0  0  0  0  0  0  0  0  0
    4.9422    0.6502   -3.4117 N   0  0  0  0  0  0  0  0  0  0  0  0
    5.3879    0.4383   -4.7690 C   0  0  0  0  0  0  0  0  0  0  0  0
    5.2834    1.4731   -2.9238 H   0  0  0  0  0  0  0  0  0  0  0  0
    6.3113   -0.1595   -4.7632 H   0  0  0  0  0  0  0  0  0  0  0  0
    4.6085   -0.0967   -5.3315 H   0  0  0  0  0  0  0  0  0  0  0  0
    5.5833    1.4098   -5.2466 H   0  0  0  0  0  0  0  0  0  0  0  0
  1  3  1  0  0  0  0
  1  7  1  0  0  0  0
  1  2  2  0  0  0  0
 21 22  1  0  0  0  0
 22 24  1  0  0  0  0
 22 23  2  0  0  0  0
 32 33  1  0  0  0  0
 33 41  1  0  0  0  0
 33 34  2  0  0  0  0
  8  9  1  0  0  0  0
  9 17  1  0  0  0  0
  9 10  2  0  0  0  0
 18 19  1  0  0  0  0
 19 31  1  0  0  0  0
 19 20  2  0  0  0  0
 32 35  1  0  0  0  0
  8 11  1  0  0  0  0
 41 42  1  0  0  0  0
 18 21  1  0  0  0  0
 31 32  1  0  0  0  0
  7  8  1  0  0  0  0
 17 18  1  0  0  0  0
  3  4  1  0  0  0  0
  3  5  1  0  0  0  0
  3  6  1  0  0  0  0
 35 38  1  0  0  0  0
 35 39  1  0  0  0  0
 35 40  1  0  0  0  0
 11 14  1  0  0  0  0
 11 15  1  0  0  0  0
 11 16  1  0  0  0  0
 42 44  1  0  0  0  0
 42 45  1  0  0  0  0
 42 46  1  0  0  0  0
 21 27  1  0  0  0  0
 21 28  1  0  0  0  0
 32 37  1  0  0  0  0
  8 13  1  0  0  0  0
 18 26  1  0  0  0  0
 24 29  1  0  0  0  0
 24 30  1  0  0  0  0
 41 43  1  0  0  0  0
  7 12  1  0  0  0  0
 31 36  1  0  0  0  0
 17 25  1  0  0  0  0
M  END
$$$$

  -OEChem-05262214473D

 46 45  0     1  0  0  0  0  0999 V2000
   -0.0543    1.9736    3.8406 C   0  0  0  0  0  0  0  0  0  0  0  0
    0.6744    1.6099    4.7562 O   0  0  0  0  0  0  0  0  0  0  0  0
   -0.5599    3.3779    3.8160 C   0  0  0  0  0  0  0  0  0  0  0  0
   -1.5202    3.4885    4.3450 H   0  0  0  0  0  0  0  0  0  0  0  0
    0.1282    4.0814    4.3116 H   0  0  0  0  0  0  0  0  0  0  0  0
   -0.7317    3.7994    2.8126 H   0  0  0  0  0  0  0  0  0  0  0  0
   -0.4812    1.1968    2.7762 N   0  0  0  0  0  0  0  0  0  0  0  0
   -0.1106   -0.1834    2.6051 C   0  0  2  0  0  0  0  0  0  0  0  0
   -0.0696   -0.4775    1.1113 C   0  0  0  0  0  0  0  0  0  0  0  0
   -0.6805    0.1900    0.2792 O   0  0  0  0  0  0  0  0  0  0  0  0
   -1.0852   -1.1101    3.3150 C   0  0  0  0  0  0  0  0  0  0  0  0
   -1.0883    1.6241    2.0791 H   0  0  0  0  0  0  0  0  0  0  0  0
    0.8937   -0.2959    3.0277 H   0  0  0  0  0  0  0  0  0  0  0  0
   -2.0970   -1.0114    2.9051 H   0  0  0  0  0  0  0  0  0  0  0  0
   -0.7860   -2.1580    3.2078 H   0  0  0  0  0  0  0  0  0  0  0  0
   -1.1357   -0.8775    4.3842 H   0  0  0  0  0  0  0  0  0  0  0  0
    0.6950   -1.6003    0.8178 N   0  0  0  0  0  0  0  0  0  0  0  0
    0.8777   -2.0908   -0.5246 C   0  0  2  0  0  0  0  0  0  0  0  0
    2.2875   -1.7152   -0.9633 C   0  0  0  0  0  0  0  0  0  0  0  0
    3.0284   -2.4839   -1.5729 O   0  0  0  0  0  0  0  0  0  0  0  0
   -0.1584   -1.5119   -1.4883 C   0  0  0  0  0  0  0  0  0  0  0  0
   -1.5604   -2.0433   -1.2481 C   0  0  0  0  0  0  0  0  0  0  0  0
   -1.8183   -3.2184   -1.0042 O   0  0  0  0  0  0  0  0  0  0  0  0
   -2.5158   -1.0525   -1.3294 N   0  0  0  0  0  0  0  0  0  0  0  0
    1.1810   -2.0803    1.5718 H   0  0  0  0  0  0  0  0  0  0  0  0
    0.8006   -3.1831   -0.4712 H   0  0  0  0  0  0  0  0  0  0  0  0
   -0.2055   -0.4204   -1.3844 H   0  0  0  0  0  0  0  0  0  0  0  0
    0.1214   -1.7255   -2.5280 H   0  0  0  0  0  0  0  0  0  0  0  0
   -2.2561   -0.0925   -1.5301 H   0  0  0  0  0  0  0  0  0  0  0  0
   -3.5044   -1.2392   -1.1942 H   0  0  0  0  0  0  0  0  0  0  0  0
    2.6057   -0.4038   -0.6392 N   0  0  0  0  0  0  0  0  0  0  0  0
    3.8801    0.1817   -0.9801 C   0  0  2  0  0  0  0  0  0  0  0  0
    4.0544    0.0826   -2.4899 C   0  0  0  0  0  0  0  0  0  0  0  0
    3.4554   -0.7381   -3.1818 O   0  0  0  0  0  0  0  0  0  0  0  0
    5.0208   -0.5147   -0.2544 C   0  0  0  0  0  0  0  0  0  0  0  0
    1.9261    0.1742   -0.1538 H   0  0  0  0  0  0  0  0  0  0  0  0
    3.8328    1.2358   -0.6858 H   0  0  0  0  0  0  0  0  0  0  0  0
    5.0841   -1.5719   -0.5366 H   0  0  0  0  0  0  0  0  0  0  0  0
    5.9840   -0.0510   -0.4920 H   0  0  0  0  0  0  0  0  0  0  0  0
    4.8784   -0.4682    0.8306 H   0  0  0  0  0  0  0  0  0  0  0  0
    4.9898    0.9896   -2.9679 N   0  0  0  0  0  0  0  0  0  0  0  0
    5.3417    1.0831   -4.3655 C   0  0  0  0  0  0  0  0  0  0  0  0
    5.4238    1.6454   -2.3250 H   0  0  0  0  0  0  0  0  0  0  0  0
    6.2117    0.4414   -4.5689 H   0  0  0  0  0  0  0  0  0  0  0  0
    4.4913    0.7534   -4.9804 H   0  0  0  0  0  0  0  0  0  0  0  0
    5.5899    2.1260   -4.6121 H   0  0  0  0  0  0  0  0  0  0  0  0
  1  3  1  0  0  0  0
  1  7  1  0  0  0  0
  1  2  2  0  0  0  0
 21 22  1  0  0  0  0
 22 24  1  0  0  0  0
 22 23  2  0  0  0  0
 32 33  1  0  0  0  0
 33 41  1  0  0  0  0
 33 34  2  0  0  0  0
  8  9  1  0  0  0  0
  9 17  1  0  0  0  0
  9 10  2  0  0  0  0
 18 19  1  0  0  0  0
 19 31  1  0  0  0  0
 19 20  2  0  0  0  0
 32 35  1  0  0  0  0
  8 11  1  0  0  0  0
 41 42  1  0  0  0  0
 18 21  1  0  0  0  0
 31 32  1  0  0  0  0
  7  8  1  0  0  0  0
 17 18  1  0  0  0  0
  3  4  1  0  0  0  0
  3  5  1  0  0  0  0
  3  6  1  0  0  0  0
 35 38  1  0  0  0  0
 35 39  1  0  0  0  0
 35 40  1  0  0  0  0
 11 14  1  0  0  0  0
 11 15  1  0  0  0  0
 11 16  1  0  0  0  0
 42 44  1  0  0  0  0
 42 45  1  0  0  0  0
 42 46  1  0  0  0  0
 21 27  1  0  0  0  0
 21 28  1  0  0  0  0
 32 37  1  0  0  0  0
  8 13  1  0  0  0  0
 18 26  1  0  0  0  0
 24 29  1  0  0  0  0
 24 30  1  0  0  0  0
 41 43  1  0  0  0  0
  7 12  1  0  0  0  0
 31 36  1  0  0  0  0
 17 25  1  0  0  0  0
M  END
$$$$

  -OEChem-05262214473D

 46 45  0     1  0  0  0  0  0999 V2000
   -0.0543    1.9736    3.8406 C   0  0  0  0  0  0  0  0  0  0  0  0
    0.6744    1.6099    4.7562 O   0  0  0  0  0  0  0  0  0  0  0  0
   -0.5599    3.3779    3.8160 C   0  0  0  0  0  0  0  0  0  0  0  0
   -1.5202    3.4885    4.3450 H   0  0  0  0  0  0  0  0  0  0  0  0
    0.1282    4.0814    4.3116 H   0  0  0  0  0  0  0  0  0  0  0  0
   -0.7317    3.7994    2.8126 H   0  0  0  0  0  0  0  0  0  0  0  0
   -0.4812    1.1968    2.7762 N   0  0  0  0  0  0  0  0  0  0  0  0
   -0.1106   -0.1834    2.6051 C   0  0  2  0  0  0  0  0  0  0  0  0
   -0.0696   -0.4775    1.1113 C   0  0  0  0  0  0  0  0  0  0  0  0
   -0.6805    0.1900    0.2792 O   0  0  0  0  0  0  0  0  0  0  0  0
   -1.0852   -1.1101    3.3150 C   0  0  0  0  0  0  0  0  0  0  0  0
   -1.0883    1.6241    2.0791 H   0  0  0  0  0  0  0  0  0  0  0  0
    0.8937   -0.2959    3.0277 H   0  0  0  0  0  0  0  0  0  0  0  0
   -2.0970   -1.0114    2.9051 H   0  0  0  0  0  0  0  0  0  0  0  0
   -0.7860   -2.1580    3.2078 H   0  0  0  0  0  0  0  0  0  0  0  0
   -1.1357   -0.8775    4.3842 H   0  0  0  0  0  0  0  0  0  0  0  0
    0.6950   -1.6003    0.8178 N   0  0  0  0  0  0  0  0  0  0  0  0
    0.8777   -2.0908   -0.5246 C   0  0  2  0  0  0  0  0  0  0  0  0
    2.2875   -1.7152   -0.9633 C   0  0  0  0  0  0  0  0  0  0  0  0
    2.9282   -2.3613   -1.7901 O   0  0  0  0  0  0  0  0  0  0  0  0
   -0.1584   -1.5119   -1.4883 C   0  0  0  0  0  0  0  0  0  0  0  0
   -1.5604   -2.0433   -1.2481 C   0  0  0  0  0  0  0  0  0  0  0  0
   -1.8183   -3.2184   -1.0042 O   0  0  0  0  0  0  0  0  0  0  0  0
   -2.5158   -1.0525   -1.3294 N   0  0  0  0  0  0  0  0  0  0  0  0
    1.1810   -2.0803    1.5718 H   0  0  0  0  0  0  0  0  0  0  0  0
    0.8006   -3.1831   -0.4712 H   0  0  0  0  0  0  0  0  0  0  0  0
   -0.2055   -0.4204   -1.3844 H   0  0  0  0  0  0  0  0  0  0  0  0
    0.1214   -1.7255   -2.5280 H   0  0  0  0  0  0  0  0  0  0  0  0
   -2.2561   -0.0925   -1.5301 H   0  0  0  0  0  0  0  0  0  0  0  0
   -3.5044   -1.2392   -1.1942 H   0  0  0  0  0  0  0  0  0  0  0  0
    2.7298   -0.5454   -0.3617 N   0  0  0  0  0  0  0  0  0  0  0  0
    4.0275    0.0187   -0.6460 C   0  0  2  0  0  0  0  0  0  0  0  0
    4.1102    0.2764   -2.1447 C   0  0  0  0  0  0  0  0  0  0  0  0
    3.4087   -0.3106   -2.9660 O   0  0  0  0  0  0  0  0  0  0  0  0
    5.1451   -0.9070   -0.1912 C   0  0  0  0  0  0  0  0  0  0  0  0
    2.1276   -0.0580    0.2952 H   0  0  0  0  0  0  0  0  0  0  0  0
    4.0832    0.9711   -0.1075 H   0  0  0  0  0  0  0  0  0  0  0  0
    5.1055   -1.8664   -0.7198 H   0  0  0  0  0  0  0  0  0  0  0  0
    6.1286   -0.4650   -0.3816 H   0  0  0  0  0  0  0  0  0  0  0  0
    5.0666   -1.1151    0.8814 H   0  0  0  0  0  0  0  0  0  0  0  0
    5.0895    1.2076   -2.4609 N   0  0  0  0  0  0  0  0  0  0  0  0
    5.3708    1.6128   -3.8184 C   0  0  0  0  0  0  0  0  0  0  0  0
    5.6105    1.6580   -1.7143 H   0  0  0  0  0  0  0  0  0  0  0  0
    6.1726    0.9827   -4.2309 H   0  0  0  0  0  0  0  0  0  0  0  0
    4.4638    1.4991   -4.4303 H   0  0  0  0  0  0  0  0  0  0  0  0
    5.6901    2.6654   -3.8280 H   0  0  0  0  0  0  0  0  0  0  0  0
  1  3  1  0  0  0  0
  1  7  1  0  0  0  0
  1  2  2  0  0  0  0
 21 22  1  0  0  0  0
 22 24  1  0  0  0  0
 22 23  2  0  0  0  0
 32 33  1  0  0  0  0
 33 41  1  0  0  0  0
 33 34  2  0  0  0  0
  8  9  1  0  0  0  0
  9 17  1  0  0  0  0
  9 10  2  0  0  0  0
 18 19  1  0  0  0  0
 19 31  1  0  0  0  0
 19 20  2  0  0  0  0
 32 35  1  0  0  0  0
  8 11  1  0  0  0  0
 41 42  1  0  0  0  0
 18 21  1  0  0  0  0
 31 32  1  0  0  0  0
  7  8  1  0  0  0  0
 17 18  1  0  0  0  0
  3  4  1  0  0  0  0
  3  5  1  0  0  0  0
  3  6  1  0  0  0  0
 35 38  1  0  0  0  0
 35 39  1  0  0  0  0
 35 40  1  0  0  0  0
 11 14  1  0  0  0  0
 11 15  1  0  0  0  0
 11 16  1  0  0  0  0
 42 44  1  0  0  0  0
 42 45  1  0  0  0  0
 42 46  1  0  0  0  0
 21 27  1  0  0  0  0
 21 28  1  0  0  0  0
 32 37  1  0  0  0  0
  8 13  1  0  0  0  0
 18 26  1  0  0  0  0
 24 29  1  0  0  0  0
 24 30  1  0  0  0  0
 41 43  1  0  0  0  0
  7 12  1  0  0  0  0
 31 36  1  0  0  0  0
 17 25  1  0  0  0  0
M  END
$$$$

  -OEChem-05262214473D

 46 45  0     1  0  0  0  0  0999 V2000
   -0.0543    1.9736    3.8406 C   0  0  0  0  0  0  0  0  0  0  0  0
    0.6744    1.6099    4.7562 O   0  0  0  0  0  0  0  0  0  0  0  0
   -0.5599    3.3779    3.8160 C   0  0  0  0  0  0  0  0  0  0  0  0
   -1.5202    3.4885    4.3450 H   0  0  0  0  0  0  0  0  0  0  0  0
    0.1282    4.0814    4.3116 H   0  0  0  0  0  0  0  0  0  0  0  0
   -0.7317    3.7994    2.8126 H   0  0  0  0  0  0  0  0  0  0  0  0
   -0.4812    1.1968    2.7762 N   0  0  0  0  0  0  0  0  0  0  0  0
   -0.1106   -0.1834    2.6051 C   0  0  2  0  0  0  0  0  0  0  0  0
   -0.0696   -0.4775    1.1113 C   0  0  0  0  0  0  0  0  0  0  0  0
   -0.6805    0.1900    0.2792 O   0  0  0  0  0  0  0  0  0  0  0  0
   -1.0852   -1.1101    3.3150 C   0  0  0  0  0  0  0  0  0  0  0  0
   -1.0883    1.6241    2.0791 H   0  0  0  0  0  0  0  0  0  0  0  0
    0.8937   -0.2959    3.0277 H   0  0  0  0  0  0  0  0  0  0  0  0
   -2.0970   -1.0114    2.9051 H   0  0  0  0  0  0  0  0  0  0  0  0
   -0.7860   -2.1580    3.2078 H   0  0  0  0  0  0  0  0  0  0  0  0
   -1.1357   -0.8775    4.3842 H   0  0  0  0  0  0  0  0  0  0  0  0
    0.6950   -1.6003    0.8178 N   0  0  0  0  0  0  0  0  0  0  0  0
    0.8777   -2.0908   -0.5246 C   0  0  2  0  0  0  0  0  0  0  0  0
    2.2875   -1.7152   -0.9633 C   0  0  0  0  0  0  0  0  0  0  0  0
    2.8266   -2.1833   -1.9641 O   0  0  0  0  0  0  0  0  0  0  0  0
   -0.1584   -1.5119   -1.4883 C   0  0  0  0  0  0  0  0  0  0  0  0
   -1.5604   -2.0433   -1.2481 C   0  0  0  0  0  0  0  0  0  0  0  0
   -1.8183   -3.2184   -1.0042 O   0  0  0  0  0  0  0  0  0  0  0  0
   -2.5158   -1.0525   -1.3294 N   0  0  0  0  0  0  0  0  0  0  0  0
    1.1810   -2.0803    1.5718 H   0  0  0  0  0  0  0  0  0  0  0  0
    0.8006   -3.1831   -0.4712 H   0  0  0  0  0  0  0  0  0  0  0  0
   -0.2055   -0.4204   -1.3844 H   0  0  0  0  0  0  0  0  0  0  0  0
    0.1214   -1.7255   -2.5280 H   0  0  0  0  0  0  0  0  0  0  0  0
   -2.2561   -0.0925   -1.5301 H   0  0  0  0  0  0  0  0  0  0  0  0
   -3.5044   -1.2392   -1.1942 H   0  0  0  0  0  0  0  0  0  0  0  0
    2.8569   -0.7579   -0.1354 N   0  0  0  0  0  0  0  0  0  0  0  0
    4.1791   -0.2297   -0.3716 C   0  0  2  0  0  0  0  0  0  0  0  0
    4.2005    0.3768   -1.7685 C   0  0  0  0  0  0  0  0  0  0  0  0
    3.4092    0.0541   -2.6521 O   0  0  0  0  0  0  0  0  0  0  0  0
    5.2398   -1.3104   -0.2320 C   0  0  0  0  0  0  0  0  0  0  0  0
    2.3337   -0.4048    0.6604 H   0  0  0  0  0  0  0  0  0  0  0  0
    4.3424    0.5582    0.3718 H   0  0  0  0  0  0  0  0  0  0  0  0
    5.0926   -2.1085   -0.9687 H   0  0  0  0  0  0  0  0  0  0  0  0
    6.2445   -0.9021   -0.3833 H   0  0  0  0  0  0  0  0  0  0  0  0
    5.2033   -1.7660    0.7635 H   0  0  0  0  0  0  0  0  0  0  0  0
    5.2343    1.2894   -1.9254 N   0  0  0  0  0  0  0  0  0  0  0  0
    5.4734    1.9912   -3.1649 C   0  0  0  0  0  0  0  0  0  0  0  0
    5.8307    1.5099   -1.1333 H   0  0  0  0  0  0  0  0  0  0  0  0
    6.1968    1.4276   -3.7723 H   0  0  0  0  0  0  0  0  0  0  0  0
    4.5279    2.0897   -3.7185 H   0  0  0  0  0  0  0  0  0  0  0  0
    5.8772    2.9911   -2.9480 H   0  0  0  0  0  0  0  0  0  0  0  0
  1  3  1  0  0  0  0
  1  7  1  0  0  0  0
  1  2  2  0  0  0  0
 21 22  1  0  0  0  0
 22 24  1  0  0  0  0
 22 23  2  0  0  0  0
 32 33  1  0  0  0  0
 33 41  1  0  0  0  0
 33 34  2  0  0  0  0
  8  9  1  0  0  0  0
  9 17  1  0  0  0  0
  9 10  2  0  0  0  0
 18 19  1  0  0  0  0
 19 31  1  0  0  0  0
 19 20  2  0  0  0  0
 32 35  1  0  0  0  0
  8 11  1  0  0  0  0
 41 42  1  0  0  0  0
 18 21  1  0  0  0  0
 31 32  1  0  0  0  0
  7  8  1  0  0  0  0
 17 18  1  0  0  0  0
  3  4  1  0  0  0  0
  3  5  1  0  0  0  0
  3  6  1  0  0  0  0
 35 38  1  0  0  0  0
 35 39  1  0  0  0  0
 35 40  1  0  0  0  0
 11 14  1  0  0  0  0
 11 15  1  0  0  0  0
 11 16  1  0  0  0  0
 42 44  1  0  0  0  0
 42 45  1  0  0  0  0
 42 46  1  0  0  0  0
 21 27  1  0  0  0  0
 21 28  1  0  0  0  0
 32 37  1  0  0  0  0
  8 13  1  0  0  0  0
 18 26  1  0  0  0  0
 24 29  1  0  0  0  0
 24 30  1  0  0  0  0
 41 43  1  0  0  0  0
  7 12  1  0  0  0  0
 31 36  1  0  0  0  0
 17 25  1  0  0  0  0
M  END
$$$$

  -OEChem-05262214473D

 46 45  0     1  0  0  0  0  0999 V2000
   -0.0543    1.9736    3.8406 C   0  0  0  0  0  0  0  0  0  0  0  0
    0.6744    1.6099    4.7562 O   0  0  0  0  0  0  0  0  0  0  0  0
   -0.5599    3.3779    3.8160 C   0  0  0  0  0  0  0  0  0  0  0  0
   -1.5202    3.4885    4.3450 H   0  0  0  0  0  0  0  0  0  0  0  0
    0.1282    4.0814    4.3116 H   0  0  0  0  0  0  0  0  0  0  0  0
   -0.7317    3.7994    2.8126 H   0  0  0  0  0  0  0  0  0  0  0  0
   -0.4812    1.1968    2.7762 N   0  0  0  0  0  0  0  0  0  0  0  0
   -0.1106   -0.1834    2.6051 C   0  0  2  0  0  0  0  0  0  0  0  0
   -0.0696   -0.4775    1.1113 C   0  0  0  0  0  0  0  0  0  0  0  0
   -0.6805    0.1900    0.2792 O   0  0  0  0  0  0  0  0  0  0  0  0
   -1.0852   -1.1101    3.3150 C   0  0  0  0  0  0  0  0  0  0  0  0
   -1.0883    1.6241    2.0791 H   0  0  0  0  0  0  0  0  0  0  0  0
    0.8937   -0.2959    3.0277 H   0  0  0  0  0  0  0  0  0  0  0  0
   -2.0970   -1.0114    2.9051 H   0  0  0  0  0  0  0  0  0  0  0  0
   -0.7860   -2.1580    3.2078 H   0  0  0  0  0  0  0  0  0  0  0  0
   -1.1357   -0.8775    4.3842 H   0  0  0  0  0  0  0  0  0  0  0  0
    0.6950   -1.6003    0.8178 N   0  0  0  0  0  0  0  0  0  0  0  0
    0.8777   -2.0908   -0.5246 C   0  0  2  0  0  0  0  0  0  0  0  0
    2.2875   -1.7152   -0.9633 C   0  0  0  0  0  0  0  0  0  0  0  0
    2.7307   -1.9622   -2.0831 O   0  0  0  0  0  0  0  0  0  0  0  0
   -0.1584   -1.5119   -1.4883 C   0  0  0  0  0  0  0  0  0  0  0  0
   -1.5604   -2.0433   -1.2481 C   0  0  0  0  0  0  0  0  0  0  0  0
   -1.8183   -3.2184   -1.0042 O   0  0  0  0  0  0  0  0  0  0  0  0
   -2.5158   -1.0525   -1.3294 N   0  0  0  0  0  0  0  0  0  0  0  0
    1.1810   -2.0803    1.5718 H   0  0  0  0  0  0  0  0  0  0  0  0
    0.8006   -3.1831   -0.4712 H   0  0  0  0  0  0  0  0  0  0  0  0
   -0.2055   -0.4204   -1.3844 H   0  0  0  0  0  0  0  0  0  0  0  0
    0.1214   -1.7255   -2.5280 H   0  0  0  0  0  0  0  0  0  0  0  0
   -2.2561   -0.0925   -1.5301 H   0  0  0  0  0  0  0  0  0  0  0  0
   -3.5044   -1.2392   -1.1942 H   0  0  0  0  0  0  0  0  0  0  0  0
    2.9782   -1.0269    0.0242 N   0  0  0  0  0  0  0  0  0  0  0  0
    4.3244   -0.5466   -0.1758 C   0  0  2  0  0  0  0  0  0  0  0  0
    4.3192    0.3770   -1.3867 C   0  0  0  0  0  0  0  0  0  0  0  0
    3.4569    0.3312   -2.2616 O   0  0  0  0  0  0  0  0  0  0  0  0
    5.2987   -1.6973   -0.3740 C   0  0  0  0  0  0  0  0  0  0  0  0
    2.5301   -0.8426    0.9170 H   0  0  0  0  0  0  0  0  0  0  0  0
    4.5925    0.0253    0.7193 H   0  0  0  0  0  0  0  0  0  0  0  0
    5.0462   -2.2819   -1.2662 H   0  0  0  0  0  0  0  0  0  0  0  0
    6.3238   -1.3326   -0.4971 H   0  0  0  0  0  0  0  0  0  0  0  0
    5.2793   -2.3768    0.4849 H   0  0  0  0  0  0  0  0  0  0  0  0
    5.4145    1.2293   -1.3978 N   0  0  0  0  0  0  0  0  0  0  0  0
    5.6423    2.1925   -2.4496 C   0  0  0  0  0  0  0  0  0  0  0  0
    6.0695    1.2113   -0.6216 H   0  0  0  0  0  0  0  0  0  0  0  0
    6.2826    1.7456   -3.2244 H   0  0  0  0  0  0  0  0  0  0  0  0
    4.6793    2.4850   -2.8936 H   0  0  0  0  0  0  0  0  0  0  0  0
    6.1383    3.0810   -2.0318 H   0  0  0  0  0  0  0  0  0  0  0  0
  1  3  1  0  0  0  0
  1  7  1  0  0  0  0
  1  2  2  0  0  0  0
 21 22  1  0  0  0  0
 22 24  1  0  0  0  0
 22 23  2  0  0  0  0
 32 33  1  0  0  0  0
 33 41  1  0  0  0  0
 33 34  2  0  0  0  0
  8  9  1  0  0  0  0
  9 17  1  0  0  0  0
  9 10  2  0  0  0  0
 18 19  1  0  0  0  0
 19 31  1  0  0  0  0
 19 20  2  0  0  0  0
 32 35  1  0  0  0  0
  8 11  1  0  0  0  0
 41 42  1  0  0  0  0
 18 21  1  0  0  0  0
 31 32  1  0  0  0  0
  7  8  1  0  0  0  0
 17 18  1  0  0  0  0
  3  4  1  0  0  0  0
  3  5  1  0  0  0  0
  3  6  1  0  0  0  0
 35 38  1  0  0  0  0
 35 39  1  0  0  0  0
 35 40  1  0  0  0  0
 11 14  1  0  0  0  0
 11 15  1  0  0  0  0
 11 16  1  0  0  0  0
 42 44  1  0  0  0  0
 42 45  1  0  0  0  0
 42 46  1  0  0  0  0
 21 27  1  0  0  0  0
 21 28  1  0  0  0  0
 32 37  1  0  0  0  0
  8 13  1  0  0  0  0
 18 26  1  0  0  0  0
 24 29  1  0  0  0  0
 24 30  1  0  0  0  0
 41 43  1  0  0  0  0
  7 12  1  0  0  0  0
 31 36  1  0  0  0  0
 17 25  1  0  0  0  0
M  END
$$$$

  -OEChem-05262214473D

 46 45  0     1  0  0  0  0  0999 V2000
   -0.0543    1.9736    3.8406 C   0  0  0  0  0  0  0  0  0  0  0  0
    0.6744    1.6099    4.7562 O   0  0  0  0  0  0  0  0  0  0  0  0
   -0.5599    3.3779    3.8160 C   0  0  0  0  0  0  0  0  0  0  0  0
   -1.5202    3.4885    4.3450 H   0  0  0  0  0  0  0  0  0  0  0  0
    0.1282    4.0814    4.3116 H   0  0  0  0  0  0  0  0  0  0  0  0
   -0.7317    3.7994    2.8126 H   0  0  0  0  0  0  0  0  0  0  0  0
   -0.4812    1.1968    2.7762 N   0  0  0  0  0  0  0  0  0  0  0  0
   -0.1106   -0.1834    2.6051 C   0  0  2  0  0  0  0  0  0  0  0  0
   -0.0696   -0.4775    1.1113 C   0  0  0  0  0  0  0  0  0  0  0  0
   -0.6805    0.1900    0.2792 O   0  0  0  0  0  0  0  0  0  0  0  0
   -1.0852   -1.1101    3.3150 C   0  0  0  0  0  0  0  0  0  0  0  0
   -1.0883    1.6241    2.0791 H   0  0  0  0  0  0  0  0  0  0  0  0
    0.8937   -0.2959    3.0277 H   0  0  0  0  0  0  0  0  0  0  0  0
   -2.0970   -1.0114    2.9051 H   0  0  0  0  0  0  0  0  0  0  0  0
   -0.7860   -2.1580    3.2078 H   0  0  0  0  0  0  0  0  0  0  0  0
   -1.1357   -0.8775    4.3842 H   0  0  0  0  0  0  0  0  0  0  0  0
    0.6950   -1.6003    0.8178 N   0  0  0  0  0  0  0  0  0  0  0  0
    0.8777   -2.0908   -0.5246 C   0  0  2  0  0  0  0  0  0  0  0  0
    2.2875   -1.7152   -0.9633 C   0  0  0  0  0  0  0  0  0  0  0  0
    2.6469   -1.7130   -2.1390 O   0  0  0  0  0  0  0  0  0  0  0  0
   -0.1584   -1.5119   -1.4883 C   0  0  0  0  0  0  0  0  0  0  0  0
   -1.5604   -2.0433   -1.2481 C   0  0  0  0  0  0  0  0  0  0  0  0
   -1.8183   -3.2184   -1.0042 O   0  0  0  0  0  0  0  0  0  0  0  0
   -2.5158   -1.0525   -1.3294 N   0  0  0  0  0  0  0  0  0  0  0  0
    1.1810   -2.0803    1.5718 H   0  0  0  0  0  0  0  0  0  0  0  0
    0.8006   -3.1831   -0.4712 H   0  0  0  0  0  0  0  0  0  0  0  0
   -0.2055   -0.4204   -1.3844 H   0  0  0  0  0  0  0  0  0  0  0  0
    0.1214   -1.7255   -2.5280 H   0  0  0  0  0  0  0  0  0  0  0  0
   -2.2561   -0.0925   -1.5301 H   0  0  0  0  0  0  0  0  0  0  0  0
   -3.5044   -1.2392   -1.1942 H   0  0  0  0  0  0  0  0  0  0  0  0
    3.0855   -1.3339    0.1062 N   0  0  0  0  0  0  0  0  0  0  0  0
    4.4537   -0.9105   -0.0718 C   0  0  2  0  0  0  0  0  0  0  0  0
    4.4583    0.2769   -1.0256 C   0  0  0  0  0  0  0  0  0  0  0  0
    3.5485    0.5017   -1.8211 O   0  0  0  0  0  0  0  0  0  0  0  0
    5.3177   -2.0415   -0.6077 C   0  0  0  0  0  0  0  0  0  0  0  0
    2.7037   -1.3416    1.0475 H   0  0  0  0  0  0  0  0  0  0  0  0
    4.8165   -0.5913    0.9114 H   0  0  0  0  0  0  0  0  0  0  0  0
    4.9695   -2.3746   -1.5922 H   0  0  0  0  0  0  0  0  0  0  0  0
    6.3611   -1.7270   -0.7151 H   0  0  0  0  0  0  0  0  0  0  0  0
    5.2895   -2.9056    0.0648 H   0  0  0  0  0  0  0  0  0  0  0  0
    5.6178    1.0314   -0.9140 N   0  0  0  0  0  0  0  0  0  0  0  0
    5.8661    2.2031   -1.7212 C   0  0  0  0  0  0  0  0  0  0  0  0
    6.3105    0.7825   -0.2141 H   0  0  0  0  0  0  0  0  0  0  0  0
    6.4241    1.9152   -2.6244 H   0  0  0  0  0  0  0  0  0  0  0  0
    4.9076    2.6579   -2.0118 H   0  0  0  0  0  0  0  0  0  0  0  0
    6.4557    2.9290   -1.1419 H   0  0  0  0  0  0  0  0  0  0  0  0
  1  3  1  0  0  0  0
  1  7  1  0  0  0  0
  1  2  2  0  0  0  0
 21 22  1  0  0  0  0
 22 24  1  0  0  0  0
 22 23  2  0  0  0  0
 32 33  1  0  0  0  0
 33 41  1  0  0  0  0
 33 34  2  0  0  0  0
  8  9  1  0  0  0  0
  9 17  1  0  0  0  0
  9 10  2  0  0  0  0
 18 19  1  0  0  0  0
 19 31  1  0  0  0  0
 19 20  2  0  0  0  0
 32 35  1  0  0  0  0
  8 11  1  0  0  0  0
 41 42  1  0  0  0  0
 18 21  1  0  0  0  0
 31 32  1  0  0  0  0
  7  8  1  0  0  0  0
 17 18  1  0  0  0  0
  3  4  1  0  0  0  0
  3  5  1  0  0  0  0
  3  6  1  0  0  0  0
 35 38  1  0  0  0  0
 35 39  1  0  0  0  0
 35 40  1  0  0  0  0
 11 14  1  0  0  0  0
 11 15  1  0  0  0  0
 11 16  1  0  0  0  0
 42 44  1  0  0  0  0
 42 45  1  0  0  0  0
 42 46  1  0  0  0  0
 21 27  1  0  0  0  0
 21 28  1  0  0  0  0
 32 37  1  0  0  0  0
  8 13  1  0  0  0  0
 18 26  1  0  0  0  0
 24 29  1  0  0  0  0
 24 30  1  0  0  0  0
 41 43  1  0  0  0  0
  7 12  1  0  0  0  0
 31 36  1  0  0  0  0
 17 25  1  0  0  0  0
M  END
$$$$

  -OEChem-05262214473D

 46 45  0     1  0  0  0  0  0999 V2000
   -0.0543    1.9736    3.8406 C   0  0  0  0  0  0  0  0  0  0  0  0
    0.6744    1.6099    4.7562 O   0  0  0  0  0  0  0  0  0  0  0  0
   -0.5599    3.3779    3.8160 C   0  0  0  0  0  0  0  0  0  0  0  0
   -1.5202    3.4885    4.3450 H   0  0  0  0  0  0  0  0  0  0  0  0
    0.1282    4.0814    4.3116 H   0  0  0  0  0  0  0  0  0  0  0  0
   -0.7317    3.7994    2.8126 H   0  0  0  0  0  0  0  0  0  0  0  0
   -0.4812    1.1968    2.7762 N   0  0  0  0  0  0  0  0  0  0  0  0
   -0.1106   -0.1834    2.6051 C   0  0  2  0  0  0  0  0  0  0  0  0
   -0.0696   -0.4775    1.1113 C   0  0  0  0  0  0  0  0  0  0  0  0
   -0.6805    0.1900    0.2792 O   0  0  0  0  0  0  0  0  0  0  0  0
   -1.0852   -1.1101    3.3150 C   0  0  0  0  0  0  0  0  0  0  0  0
   -1.0883    1.6241    2.0791 H   0  0  0  0  0  0  0  0  0  0  0  0
    0.8937   -0.2959    3.0277 H   0  0  0  0  0  0  0  0  0  0  0  0
   -2.0970   -1.0114    2.9051 H   0  0  0  0  0  0  0  0  0  0  0  0
   -0.7860   -2.1580    3.2078 H   0  0  0  0  0  0  0  0  0  0  0  0
   -1.1357   -0.8775    4.3842 H   0  0  0  0  0  0  0  0  0  0  0  0
    0.6950   -1.6003    0.8178 N   0  0  0  0  0  0  0  0  0  0  0  0
    0.8777   -2.0908   -0.5246 C   0  0  2  0  0  0  0  0  0  0  0  0
    2.2875   -1.7152   -0.9633 C   0  0  0  0  0  0  0  0  0  0  0  0
    2.5810   -1.4526   -2.1279 O   0  0  0  0  0  0  0  0  0  0  0  0
   -0.1584   -1.5119   -1.4883 C   0  0  0  0  0  0  0  0  0  0  0  0
   -1.5604   -2.0433   -1.2481 C   0  0  0  0  0  0  0  0  0  0  0  0
   -1.8183   -3.2184   -1.0042 O   0  0  0  0  0  0  0  0  0  0  0  0
   -2.5158   -1.0525   -1.3294 N   0  0  0  0  0  0  0  0  0  0  0  0
    1.1810   -2.0803    1.5718 H   0  0  0  0  0  0  0  0  0  0  0  0
    0.8006   -3.1831   -0.4712 H   0  0  0  0  0  0  0  0  0  0  0  0
   -0.2055   -0.4204   -1.3844 H   0  0  0  0  0  0  0  0  0  0  0  0
    0.1214   -1.7255   -2.5280 H   0  0  0  0  0  0  0  0  0  0  0  0
   -2.2561   -0.0925   -1.5301 H   0  0  0  0  0  0  0  0  0  0  0  0
   -3.5044   -1.2392   -1.1942 H   0  0  0  0  0  0  0  0  0  0  0  0
    3.1715   -1.6581    0.1051 N   0  0  0  0  0  0  0  0  0  0  0  0
    4.5582   -1.2965   -0.0667 C   0  0  2  0  0  0  0  0  0  0  0  0
    4.6082    0.0833   -0.7095 C   0  0  0  0  0  0  0  0  0  0  0  0
    3.6779    0.5542   -1.3606 O   0  0  0  0  0  0  0  0  0  0  0  0
    5.2955   -2.3193   -0.9170 C   0  0  0  0  0  0  0  0  0  0  0  0
    2.8424   -1.8678    1.0429 H   0  0  0  0  0  0  0  0  0  0  0  0
    4.9992   -1.2496    0.9349 H   0  0  0  0  0  0  0  0  0  0  0  0
    4.8677   -2.3804   -1.9243 H   0  0  0  0  0  0  0  0  0  0  0  0
    6.3537   -2.0586   -1.0226 H   0  0  0  0  0  0  0  0  0  0  0  0
    5.2331   -3.3166   -0.4684 H   0  0  0  0  0  0  0  0  0  0  0  0
    5.8302    0.7093   -0.5071 N   0  0  0  0  0  0  0  0  0  0  0  0
    6.1296    2.0222   -1.0293 C   0  0  0  0  0  0  0  0  0  0  0  0
    6.5374    0.2528    0.0615 H   0  0  0  0  0  0  0  0  0  0  0  0
    6.6117    1.9248   -2.0133 H   0  0  0  0  0  0  0  0  0  0  0  0
    5.1973    2.5967   -1.1332 H   0  0  0  0  0  0  0  0  0  0  0  0
    6.8077    2.5454   -0.3391 H   0  0  0  0  0  0  0  0  0  0  0  0
  1  3  1  0  0  0  0
  1  7  1  0  0  0  0
  1  2  2  0  0  0  0
 21 22  1  0  0  0  0
 22 24  1  0  0  0  0
 22 23  2  0  0  0  0
 32 33  1  0  0  0  0
 33 41  1  0  0  0  0
 33 34  2  0  0  0  0
  8  9  1  0  0  0  0
  9 17  1  0  0  0  0
  9 10  2  0  0  0  0
 18 19  1  0  0  0  0
 19 31  1  0  0  0  0
 19 20  2  0  0  0  0
 32 35  1  0  0  0  0
  8 11  1  0  0  0  0
 41 42  1  0  0  0  0
 18 21  1  0  0  0  0
 31 32  1  0  0  0  0
  7  8  1  0  0  0  0
 17 18  1  0  0  0  0
  3  4  1  0  0  0  0
  3  5  1  0  0  0  0
  3  6  1  0  0  0  0
 35 38  1  0  0  0  0
 35 39  1  0  0  0  0
 35 40  1  0  0  0  0
 11 14  1  0  0  0  0
 11 15  1  0  0  0  0
 11 16  1  0  0  0  0
 42 44  1  0  0  0  0
 42 45  1  0  0  0  0
 42 46  1  0  0  0  0
 21 27  1  0  0  0  0
 21 28  1  0  0  0  0
 32 37  1  0  0  0  0
  8 13  1  0  0  0  0
 18 26  1  0  0  0  0
 24 29  1  0  0  0  0
 24 30  1  0  0  0  0
 41 43  1  0  0  0  0
  7 12  1  0  0  0  0
 31 36  1  0  0  0  0
 17 25  1  0  0  0  0
M  END
$$$$

  -OEChem-05262214473D

 46 45  0     1  0  0  0  0  0999 V2000
   -0.0543    1.9736    3.8406 C   0  0  0  0  0  0  0  0  0  0  0  0
    0.6744    1.6099    4.7562 O   0  0  0  0  0  0  0  0  0  0  0  0
   -0.5599    3.3779    3.8160 C   0  0  0  0  0  0  0  0  0  0  0  0
   -1.5202    3.4885    4.3450 H   0  0  0  0  0  0  0  0  0  0  0  0
    0.1282    4.0814    4.3116 H   0  0  0  0  0  0  0  0  0  0  0  0
   -0.7317    3.7994    2.8126 H   0  0  0  0  0  0  0  0  0  0  0  0
   -0.4812    1.1968    2.7762 N   0  0  0  0  0  0  0  0  0  0  0  0
   -0.1106   -0.1834    2.6051 C   0  0  2  0  0  0  0  0  0  0  0  0
   -0.0696   -0.4775    1.1113 C   0  0  0  0  0  0  0  0  0  0  0  0
   -0.6805    0.1900    0.2792 O   0  0  0  0  0  0  0  0  0  0  0  0
   -1.0852   -1.1101    3.3150 C   0  0  0  0  0  0  0  0  0  0  0  0
   -1.0883    1.6241    2.0791 H   0  0  0  0  0  0  0  0  0  0  0  0
    0.8937   -0.2959    3.0277 H   0  0  0  0  0  0  0  0  0  0  0  0
   -2.0970   -1.0114    2.9051 H   0  0  0  0  0  0  0  0  0  0  0  0
   -0.7860   -2.1580    3.2078 H   0  0  0  0  0  0  0  0  0  0  0  0
   -1.1357   -0.8775    4.3842 H   0  0  0  0  0  0  0  0  0  0  0  0
    0.6950   -1.6003    0.8178 N   0  0  0  0  0  0  0  0  0  0  0  0
    0.8777   -2.0908   -0.5246 C   0  0  2  0  0  0  0  0  0  0  0  0
    2.2875   -1.7152   -0.9633 C   0  0  0  0  0  0  0  0  0  0  0  0
    2.5374   -1.1988   -2.0506 O   0  0  0  0  0  0  0  0  0  0  0  0
   -0.1584   -1.5119   -1.4883 C   0  0  0  0  0  0  0  0  0  0  0  0
   -1.5604   -2.0433   -1.2481 C   0  0  0  0  0  0  0  0  0  0  0  0
   -1.8183   -3.2184   -1.0042 O   0  0  0  0  0  0  0  0  0  0  0  0
   -2.5158   -1.0525   -1.3294 N   0  0  0  0  0  0  0  0  0  0  0  0
    1.1810   -2.0803    1.5718 H   0  0  0  0  0  0  0  0  0  0  0  0
    0.8006   -3.1831   -0.4712 H   0  0  0  0  0  0  0  0  0  0  0  0
   -0.2055   -0.4204   -1.3844 H   0  0  0  0  0  0  0  0  0  0  0  0
    0.1214   -1.7255   -2.5280 H   0  0  0  0  0  0  0  0  0  0  0  0
   -2.2561   -0.0925   -1.5301 H   0  0  0  0  0  0  0  0  0  0  0  0
   -3.5044   -1.2392   -1.1942 H   0  0  0  0  0  0  0  0  0  0  0  0
    3.2303   -1.9774    0.0208 N   0  0  0  0  0  0  0  0  0  0  0  0
    4.6306   -1.6783   -0.1610 C   0  0  2  0  0  0  0  0  0  0  0  0
    4.7587   -0.1905   -0.4602 C   0  0  0  0  0  0  0  0  0  0  0  0
    3.8361    0.4848   -0.9115 O   0  0  0  0  0  0  0  0  0  0  0  0
    5.2336   -2.5119   -1.2809 C   0  0  0  0  0  0  0  0  0  0  0  0
    2.9369   -2.3853    0.9036 H   0  0  0  0  0  0  0  0  0  0  0  0
    5.1281   -1.9047    0.7883 H   0  0  0  0  0  0  0  0  0  0  0  0
    4.7477   -2.2988   -2.2400 H   0  0  0  0  0  0  0  0  0  0  0  0
    6.3023   -2.3046   -1.3985 H   0  0  0  0  0  0  0  0  0  0  0  0
    5.1140   -3.5817   -1.0782 H   0  0  0  0  0  0  0  0  0  0  0  0
    6.0373    0.2849   -0.2047 N   0  0  0  0  0  0  0  0  0  0  0  0
    6.4147    1.6621   -0.4212 C   0  0  0  0  0  0  0  0  0  0  0  0
    6.7346   -0.3417    0.1863 H   0  0  0  0  0  0  0  0  0  0  0  0
    6.8326    1.7737   -1.4326 H   0  0  0  0  0  0  0  0  0  0  0  0
    5.5286    2.3056   -0.3177 H   0  0  0  0  0  0  0  0  0  0  0  0
    7.1704    1.9563    0.3221 H   0  0  0  0  0  0  0  0  0  0  0  0
  1  3  1  0  0  0  0
  1  7  1  0  0  0  0
  1  2  2  0  0  0  0
 21 22  1  0  0  0  0
 22 24  1  0  0  0  0
 22 23  2  0  0  0  0
 32 33  1  0  0  0  0
 33 41  1  0  0  0  0
 33 34  2  0  0  0  0
  8  9  1  0  0  0  0
  9 17  1  0  0  0  0
  9 10  2  0  0  0  0
 18 19  1  0  0  0  0
 19 31  1  0  0  0  0
 19 20  2  0  0  0  0
 32 35  1  0  0  0  0
  8 11  1  0  0  0  0
 41 42  1  0  0  0  0
 18 21  1  0  0  0  0
 31 32  1  0  0  0  0
  7  8  1  0  0  0  0
 17 18  1  0  0  0  0
  3  4  1  0  0  0  0
  3  5  1  0  0  0  0
  3  6  1  0  0  0  0
 35 38  1  0  0  0  0
 35 39  1  0  0  0  0
 35 40  1  0  0  0  0
 11 14  1  0  0  0  0
 11 15  1  0  0  0  0
 11 16  1  0  0  0  0
 42 44  1  0  0  0  0
 42 45  1  0  0  0  0
 42 46  1  0  0  0  0
 21 27  1  0  0  0  0
 21 28  1  0  0  0  0
 32 37  1  0  0  0  0
  8 13  1  0  0  0  0
 18 26  1  0  0  0  0
 24 29  1  0  0  0  0
 24 30  1  0  0  0  0
 41 43  1  0  0  0  0
  7 12  1  0  0  0  0
 31 36  1  0  0  0  0
 17 25  1  0  0  0  0
M  END
$$$$

  -OEChem-05262214473D

 46 45  0     1  0  0  0  0  0999 V2000
   -0.0543    1.9736    3.8406 C   0  0  0  0  0  0  0  0  0  0  0  0
    0.6744    1.6099    4.7562 O   0  0  0  0  0  0  0  0  0  0  0  0
   -0.5599    3.3779    3.8160 C   0  0  0  0  0  0  0  0  0  0  0  0
   -1.5202    3.4885    4.3450 H   0  0  0  0  0  0  0  0  0  0  0  0
    0.1282    4.0814    4.3116 H   0  0  0  0  0  0  0  0  0  0  0  0
   -0.7317    3.7994    2.8126 H   0  0  0  0  0  0  0  0  0  0  0  0
   -0.4812    1.1968    2.7762 N   0  0  0  0  0  0  0  0  0  0  0  0
   -0.1106   -0.1834    2.6051 C   0  0  2  0  0  0  0  0  0  0  0  0
   -0.0696   -0.4775    1.1113 C   0  0  0  0  0  0  0  0  0  0  0  0
   -0.6805    0.1900    0.2792 O   0  0  0  0  0  0  0  0  0  0  0  0
   -1.0852   -1.1101    3.3150 C   0  0  0  0  0  0  0  0  0  0  0  0
   -1.0883    1.6241    2.0791 H   0  0  0  0  0  0  0  0  0  0  0  0
    0.8937   -0.2959    3.0277 H   0  0  0  0  0  0  0  0  0  0  0  0
   -2.0970   -1.0114    2.9051 H   0  0  0  0  0  0  0  0  0  0  0  0
   -0.7860   -2.1580    3.2078 H   0  0  0  0  0  0  0  0  0  0  0  0
   -1.1357   -0.8775    4.3842 H   0  0  0  0  0  0  0  0  0  0  0  0
    0.6950   -1.6003    0.8178 N   0  0  0  0  0  0  0  0  0  0  0  0
    0.8777   -2.0908   -0.5246 C   0  0  2  0  0  0  0  0  0  0  0  0
    2.2875   -1.7152   -0.9633 C   0  0  0  0  0  0  0  0  0  0  0  0
    2.5192   -0.9690   -1.9124 O   0  0  0  0  0  0  0  0  0  0  0  0
   -0.1584   -1.5119   -1.4883 C   0  0  0  0  0  0  0  0  0  0  0  0
   -1.5604   -2.0433   -1.2481 C   0  0  0  0  0  0  0  0  0  0  0  0
   -1.8183   -3.2184   -1.0042 O   0  0  0  0  0  0  0  0  0  0  0  0
   -2.5158   -1.0525   -1.3294 N   0  0  0  0  0  0  0  0  0  0  0  0
    1.1810   -2.0803    1.5718 H   0  0  0  0  0  0  0  0  0  0  0  0
    0.8006   -3.1831   -0.4712 H   0  0  0  0  0  0  0  0  0  0  0  0
   -0.2055   -0.4204   -1.3844 H   0  0  0  0  0  0  0  0  0  0  0  0
    0.1214   -1.7255   -2.5280 H   0  0  0  0  0  0  0  0  0  0  0  0
   -2.2561   -0.0925   -1.5301 H   0  0  0  0  0  0  0  0  0  0  0  0
   -3.5044   -1.2392   -1.1942 H   0  0  0  0  0  0  0  0  0  0  0  0
    3.2580   -2.2700   -0.1408 N   0  0  0  0  0  0  0  0  0  0  0  0
    4.6660   -2.0300   -0.3481 C   0  0  2  0  0  0  0  0  0  0  0  0
    4.8996   -0.5260   -0.2946 C   0  0  0  0  0  0  0  0  0  0  0  0
    4.0124    0.2985   -0.5044 O   0  0  0  0  0  0  0  0  0  0  0  0
    5.1362   -2.6062   -1.6746 C   0  0  0  0  0  0  0  0  0  0  0  0
    2.9808   -2.8588    0.6390 H   0  0  0  0  0  0  0  0  0  0  0  0
    5.1945   -2.5120    0.4816 H   0  0  0  0  0  0  0  0  0  0  0  0
    4.6177   -2.1355   -2.5178 H   0  0  0  0  0  0  0  0  0  0  0  0
    6.2103   -2.4485   -1.8173 H   0  0  0  0  0  0  0  0  0  0  0  0
    4.9402   -3.6828   -1.7232 H   0  0  0  0  0  0  0  0  0  0  0  0
    6.2251   -0.2129   -0.0275 N   0  0  0  0  0  0  0  0  0  0  0  0
    6.7021    1.1474    0.0617 C   0  0  0  0  0  0  0  0  0  0  0  0
    6.8888   -0.9606    0.1519 H   0  0  0  0  0  0  0  0  0  0  0  0
    7.0718    1.4722   -0.9221 H   0  0  0  0  0  0  0  0  0  0  0  0
    5.8790    1.8044    0.3792 H   0  0  0  0  0  0  0  0  0  0  0  0
    7.5190    1.2019    0.7965 H   0  0  0  0  0  0  0  0  0  0  0  0
  1  3  1  0  0  0  0
  1  7  1  0  0  0  0
  1  2  2  0  0  0  0
 21 22  1  0  0  0  0
 22 24  1  0  0  0  0
 22 23  2  0  0  0  0
 32 33  1  0  0  0  0
 33 41  1  0  0  0  0
 33 34  2  0  0  0  0
  8  9  1  0  0  0  0
  9 17  1  0  0  0  0
  9 10  2  0  0  0  0
 18 19  1  0  0  0  0
 19 31  1  0  0  0  0
 19 20  2  0  0  0  0
 32 35  1  0  0  0  0
  8 11  1  0  0  0  0
 41 42  1  0  0  0  0
 18 21  1  0  0  0  0
 31 32  1  0  0  0  0
  7  8  1  0  0  0  0
 17 18  1  0  0  0  0
  3  4  1  0  0  0  0
  3  5  1  0  0  0  0
  3  6  1  0  0  0  0
 35 38  1  0  0  0  0
 35 39  1  0  0  0  0
 35 40  1  0  0  0  0
 11 14  1  0  0  0  0
 11 15  1  0  0  0  0
 11 16  1  0  0  0  0
 42 44  1  0  0  0  0
 42 45  1  0  0  0  0
 42 46  1  0  0  0  0
 21 27  1  0  0  0  0
 21 28  1  0  0  0  0
 32 37  1  0  0  0  0
  8 13  1  0  0  0  0
 18 26  1  0  0  0  0
 24 29  1  0  0  0  0
 24 30  1  0  0  0  0
 41 43  1  0  0  0  0
  7 12  1  0  0  0  0
 31 36  1  0  0  0  0
 17 25  1  0  0  0  0
M  END
$$$$

  -OEChem-05262214473D

 46 45  0     1  0  0  0  0  0999 V2000
   -0.0543    1.9736    3.8406 C   0  0  0  0  0  0  0  0  0  0  0  0
    0.6744    1.6099    4.7562 O   0  0  0  0  0  0  0  0  0  0  0  0
   -0.5599    3.3779    3.8160 C   0  0  0  0  0  0  0  0  0  0  0  0
   -1.5202    3.4885    4.3450 H   0  0  0  0  0  0  0  0  0  0  0  0
    0.1282    4.0814    4.3116 H   0  0  0  0  0  0  0  0  0  0  0  0
   -0.7317    3.7994    2.8126 H   0  0  0  0  0  0  0  0  0  0  0  0
   -0.4812    1.1968    2.7762 N   0  0  0  0  0  0  0  0  0  0  0  0
   -0.1106   -0.1834    2.6051 C   0  0  2  0  0  0  0  0  0  0  0  0
   -0.0696   -0.4775    1.1113 C   0  0  0  0  0  0  0  0  0  0  0  0
   -0.6805    0.1900    0.2792 O   0  0  0  0  0  0  0  0  0  0  0  0
   -1.0852   -1.1101    3.3150 C   0  0  0  0  0  0  0  0  0  0  0  0
   -1.0883    1.6241    2.0791 H   0  0  0  0  0  0  0  0  0  0  0  0
    0.8937   -0.2959    3.0277 H   0  0  0  0  0  0  0  0  0  0  0  0
   -2.0970   -1.0114    2.9051 H   0  0  0  0  0  0  0  0  0  0  0  0
   -0.7860   -2.1580    3.2078 H   0  0  0  0  0  0  0  0  0  0  0  0
   -1.1357   -0.8775    4.3842 H   0  0  0  0  0  0  0  0  0  0  0  0
    0.6950   -1.6003    0.8178 N   0  0  0  0  0  0  0  0  0  0  0  0
    0.8777   -2.0908   -0.5246 C   0  0  2  0  0  0  0  0  0  0  0  0
    2.2875   -1.7152   -0.9633 C   0  0  0  0  0  0  0  0  0  0  0  0
    2.5275   -0.7787   -1.7227 O   0  0  0  0  0  0  0  0  0  0  0  0
   -0.1584   -1.5119   -1.4883 C   0  0  0  0  0  0  0  0  0  0  0  0
   -1.5604   -2.0433   -1.2481 C   0  0  0  0  0  0  0  0  0  0  0  0
   -1.8183   -3.2184   -1.0042 O   0  0  0  0  0  0  0  0  0  0  0  0
   -2.5158   -1.0525   -1.3294 N   0  0  0  0  0  0  0  0  0  0  0  0
    1.1810   -2.0803    1.5718 H   0  0  0  0  0  0  0  0  0  0  0  0
    0.8006   -3.1831   -0.4712 H   0  0  0  0  0  0  0  0  0  0  0  0
   -0.2055   -0.4204   -1.3844 H   0  0  0  0  0  0  0  0  0  0  0  0
    0.1214   -1.7255   -2.5280 H   0  0  0  0  0  0  0  0  0  0  0  0
   -2.2561   -0.0925   -1.5301 H   0  0  0  0  0  0  0  0  0  0  0  0
   -3.5044   -1.2392   -1.1942 H   0  0  0  0  0  0  0  0  0  0  0  0
    3.2526   -2.5160   -0.3688 N   0  0  0  0  0  0  0  0  0  0  0  0
    4.6621   -2.3275   -0.6153 C   0  0  2  0  0  0  0  0  0  0  0  0
    5.0213   -0.9002   -0.2239 C   0  0  0  0  0  0  0  0  0  0  0  0
    4.1948    0.0079   -0.1670 O   0  0  0  0  0  0  0  0  0  0  0  0
    5.0100   -2.5958   -2.0712 C   0  0  0  0  0  0  0  0  0  0  0  0
    2.9710   -3.2561    0.2673 H   0  0  0  0  0  0  0  0  0  0  0  0
    5.1938   -3.0301    0.0357 H   0  0  0  0  0  0  0  0  0  0  0  0
    4.4867   -1.9015   -2.7387 H   0  0  0  0  0  0  0  0  0  0  0  0
    6.0840   -2.4802   -2.2504 H   0  0  0  0  0  0  0  0  0  0  0  0
    4.7237   -3.6131   -2.3593 H   0  0  0  0  0  0  0  0  0  0  0  0
    6.3807   -0.7502    0.0124 N   0  0  0  0  0  0  0  0  0  0  0  0
    6.9722    0.5132    0.3866 C   0  0  0  0  0  0  0  0  0  0  0  0
    6.9894   -1.5617   -0.0395 H   0  0  0  0  0  0  0  0  0  0  0  0
    7.3129    1.0409   -0.5164 H   0  0  0  0  0  0  0  0  0  0  0  0
    6.2245    1.1273    0.9099 H   0  0  0  0  0  0  0  0  0  0  0  0
    7.8297    0.3337    1.0518 H   0  0  0  0  0  0  0  0  0  0  0  0
  1  3  1  0  0  0  0
  1  7  1  0  0  0  0
  1  2  2  0  0  0  0
 21 22  1  0  0  0  0
 22 24  1  0  0  0  0
 22 23  2  0  0  0  0
 32 33  1  0  0  0  0
 33 41  1  0  0  0  0
 33 34  2  0  0  0  0
  8  9  1  0  0  0  0
  9 17  1  0  0  0  0
  9 10  2  0  0  0  0
 18 19  1  0  0  0  0
 19 31  1  0  0  0  0
 19 20  2  0  0  0  0
 32 35  1  0  0  0  0
  8 11  1  0  0  0  0
 41 42  1  0  0  0  0
 18 21  1  0  0  0  0
 31 32  1  0  0  0  0
  7  8  1  0  0  0  0
 17 18  1  0  0  0  0
  3  4  1  0  0  0  0
  3  5  1  0  0  0  0
  3  6  1  0  0  0  0
 35 38  1  0  0  0  0
 35 39  1  0  0  0  0
 35 40  1  0  0  0  0
 11 14  1  0  0  0  0
 11 15  1  0  0  0  0
 11 16  1  0  0  0  0
 42 44  1  0  0  0  0
 42 45  1  0  0  0  0
 42 46  1  0  0  0  0
 21 27  1  0  0  0  0
 21 28  1  0  0  0  0
 32 37  1  0  0  0  0
  8 13  1  0  0  0  0
 18 26  1  0  0  0  0
 24 29  1  0  0  0  0
 24 30  1  0  0  0  0
 41 43  1  0  0  0  0
  7 12  1  0  0  0  0
 31 36  1  0  0  0  0
 17 25  1  0  0  0  0
M  END
$$$$

  -OEChem-05262214473D

 46 45  0     1  0  0  0  0  0999 V2000
   -0.0543    1.9736    3.8406 C   0  0  0  0  0  0  0  0  0  0  0  0
    0.6744    1.6099    4.7562 O   0  0  0  0  0  0  0  0  0  0  0  0
   -0.5599    3.3779    3.8160 C   0  0  0  0  0  0  0  0  0  0  0  0
   -1.5202    3.4885    4.3450 H   0  0  0  0  0  0  0  0  0  0  0  0
    0.1282    4.0814    4.3116 H   0  0  0  0  0  0  0  0  0  0  0  0
   -0.7317    3.7994    2.8126 H   0  0  0  0  0  0  0  0  0  0  0  0
   -0.4812    1.1968    2.7762 N   0  0  0  0  0  0  0  0  0  0  0  0
   -0.1106   -0.1834    2.6051 C   0  0  2  0  0  0  0  0  0  0  0  0
   -0.0696   -0.4775    1.1113 C   0  0  0  0  0  0  0  0  0  0  0  0
   -0.6805    0.1900    0.2792 O   0  0  0  0  0  0  0  0  0  0  0  0
   -1.0852   -1.1101    3.3150 C   0  0  0  0  0  0  0  0  0  0  0  0
   -1.0883    1.6241    2.0791 H   0  0  0  0  0  0  0  0  0  0  0  0
    0.8937   -0.2959    3.0277 H   0  0  0  0  0  0  0  0  0  0  0  0
   -2.0970   -1.0114    2.9051 H   0  0  0  0  0  0  0  0  0  0  0  0
   -0.7860   -2.1580    3.2078 H   0  0  0  0  0  0  0  0  0  0  0  0
   -1.1357   -0.8775    4.3842 H   0  0  0  0  0  0  0  0  0  0  0  0
    0.6950   -1.6003    0.8178 N   0  0  0  0  0  0  0  0  0  0  0  0
    0.8777   -2.0908   -0.5246 C   0  0  2  0  0  0  0  0  0  0  0  0
    2.2875   -1.7152   -0.9633 C   0  0  0  0  0  0  0  0  0  0  0  0
    2.5618   -0.6409   -1.4945 O   0  0  0  0  0  0  0  0  0  0  0  0
   -0.1584   -1.5119   -1.4883 C   0  0  0  0  0  0  0  0  0  0  0  0
   -1.5604   -2.0433   -1.2481 C   0  0  0  0  0  0  0  0  0  0  0  0
   -1.8183   -3.2184   -1.0042 O   0  0  0  0  0  0  0  0  0  0  0  0
   -2.5158   -1.0525   -1.3294 N   0  0  0  0  0  0  0  0  0  0  0  0
    1.1810   -2.0803    1.5718 H   0  0  0  0  0  0  0  0  0  0  0  0
    0.8006   -3.1831   -0.4712 H   0  0  0  0  0  0  0  0  0  0  0  0
   -0.2055   -0.4204   -1.3844 H   0  0  0  0  0  0  0  0  0  0  0  0
    0.1214   -1.7255   -2.5280 H   0  0  0  0  0  0  0  0  0  0  0  0
   -2.2561   -0.0925   -1.5301 H   0  0  0  0  0  0  0  0  0  0  0  0
   -3.5044   -1.2392   -1.1942 H   0  0  0  0  0  0  0  0  0  0  0  0
    3.2145   -2.6986   -0.6476 N   0  0  0  0  0  0  0  0  0  0  0  0
    4.6192   -2.5506   -0.9444 C   0  0  2  0  0  0  0  0  0  0  0  0
    5.1155   -1.2876   -0.2530 C   0  0  0  0  0  0  0  0  0  0  0  0
    4.3708   -0.3672    0.0777 O   0  0  0  0  0  0  0  0  0  0  0  0
    4.8635   -2.4813   -2.4438 C   0  0  0  0  0  0  0  0  0  0  0  0
    2.9082   -3.5501   -0.1863 H   0  0  0  0  0  0  0  0  0  0  0  0
    5.1260   -3.4237   -0.5191 H   0  0  0  0  0  0  0  0  0  0  0  0
    4.3634   -1.6128   -2.8877 H   0  0  0  0  0  0  0  0  0  0  0  0
    5.9320   -2.3978   -2.6682 H   0  0  0  0  0  0  0  0  0  0  0  0
    4.4792   -3.3772   -2.9432 H   0  0  0  0  0  0  0  0  0  0  0  0
    6.4934   -1.2903   -0.0876 N   0  0  0  0  0  0  0  0  0  0  0  0
    7.2065   -0.1974    0.5313 C   0  0  0  0  0  0  0  0  0  0  0  0
    7.0296   -2.1039   -0.3746 H   0  0  0  0  0  0  0  0  0  0  0  0
    7.5396    0.5091   -0.2432 H   0  0  0  0  0  0  0  0  0  0  0  0
    6.5417    0.3204    1.2383 H   0  0  0  0  0  0  0  0  0  0  0  0
    8.0815   -0.5893    1.0706 H   0  0  0  0  0  0  0  0  0  0  0  0
  1  3  1  0  0  0  0
  1  7  1  0  0  0  0
  1  2  2  0  0  0  0
 21 22  1  0  0  0  0
 22 24  1  0  0  0  0
 22 23  2  0  0  0  0
 32 33  1  0  0  0  0
 33 41  1  0  0  0  0
 33 34  2  0  0  0  0
  8  9  1  0  0  0  0
  9 17  1  0  0  0  0
  9 10  2  0  0  0  0
 18 19  1  0  0  0  0
 19 31  1  0  0  0  0
 19 20  2  0  0  0  0
 32 35  1  0  0  0  0
  8 11  1  0  0  0  0
 41 42  1  0  0  0  0
 18 21  1  0  0  0  0
 31 32  1  0  0  0  0
  7  8  1  0  0  0  0
 17 18  1  0  0  0  0
  3  4  1  0  0  0  0
  3  5  1  0  0  0  0
  3  6  1  0  0  0  0
 35 38  1  0  0  0  0
 35 39  1  0  0  0  0
 35 40  1  0  0  0  0
 11 14  1  0  0  0  0
 11 15  1  0  0  0  0
 11 16  1  0  0  0  0
 42 44  1  0  0  0  0
 42 45  1  0  0  0  0
 42 46  1  0  0  0  0
 21 27  1  0  0  0  0
 21 28  1  0  0  0  0
 32 37  1  0  0  0  0
  8 13  1  0  0  0  0
 18 26  1  0  0  0  0
 24 29  1  0  0  0  0
 24 30  1  0  0  0  0
 41 43  1  0  0  0  0
  7 12  1  0  0  0  0
 31 36  1  0  0  0  0
 17 25  1  0  0  0  0
M  END
$$$$

  -OEChem-05262214473D

 46 45  0     1  0  0  0  0  0999 V2000
   -0.0543    1.9736    3.8406 C   0  0  0  0  0  0  0  0  0  0  0  0
    0.6744    1.6099    4.7562 O   0  0  0  0  0  0  0  0  0  0  0  0
   -0.5599    3.3779    3.8160 C   0  0  0  0  0  0  0  0  0  0  0  0
   -1.5202    3.4885    4.3450 H   0  0  0  0  0  0  0  0  0  0  0  0
    0.1282    4.0814    4.3116 H   0  0  0  0  0  0  0  0  0  0  0  0
   -0.7317    3.7994    2.8126 H   0  0  0  0  0  0  0  0  0  0  0  0
   -0.4812    1.1968    2.7762 N   0  0  0  0  0  0  0  0  0  0  0  0
   -0.1106   -0.1834    2.6051 C   0  0  2  0  0  0  0  0  0  0  0  0
   -0.0696   -0.4775    1.1113 C   0  0  0  0  0  0  0  0  0  0  0  0
   -0.6805    0.1900    0.2792 O   0  0  0  0  0  0  0  0  0  0  0  0
   -1.0852   -1.1101    3.3150 C   0  0  0  0  0  0  0  0  0  0  0  0
   -1.0883    1.6241    2.0791 H   0  0  0  0  0  0  0  0  0  0  0  0
    0.8937   -0.2959    3.0277 H   0  0  0  0  0  0  0  0  0  0  0  0
   -2.0970   -1.0114    2.9051 H   0  0  0  0  0  0  0  0  0  0  0  0
   -0.7860   -2.1580    3.2078 H   0  0  0  0  0  0  0  0  0  0  0  0
   -1.1357   -0.8775    4.3842 H   0  0  0  0  0  0  0  0  0  0  0  0
    0.6950   -1.6003    0.8178 N   0  0  0  0  0  0  0  0  0  0  0  0
    0.8777   -2.0908   -0.5246 C   0  0  2  0  0  0  0  0  0  0  0  0
    2.2875   -1.7152   -0.9633 C   0  0  0  0  0  0  0  0  0  0  0  0
    2.6198   -0.5651   -1.2432 O   0  0  0  0  0  0  0  0  0  0  0  0
   -0.1584   -1.5119   -1.4883 C   0  0  0  0  0  0  0  0  0  0  0  0
   -1.5604   -2.0433   -1.2481 C   0  0  0  0  0  0  0  0  0  0  0  0
   -1.8183   -3.2184   -1.0042 O   0  0  0  0  0  0  0  0  0  0  0  0
   -2.5158   -1.0525   -1.3294 N   0  0  0  0  0  0  0  0  0  0  0  0
    1.1810   -2.0803    1.5718 H   0  0  0  0  0  0  0  0  0  0  0  0
    0.8006   -3.1831   -0.4712 H   0  0  0  0  0  0  0  0  0  0  0  0
   -0.2055   -0.4204   -1.3844 H   0  0  0  0  0  0  0  0  0  0  0  0
    0.1214   -1.7255   -2.5280 H   0  0  0  0  0  0  0  0  0  0  0  0
   -2.2561   -0.0925   -1.5301 H   0  0  0  0  0  0  0  0  0  0  0  0
   -3.5044   -1.2392   -1.1942 H   0  0  0  0  0  0  0  0  0  0  0  0
    3.1463   -2.8053   -0.9581 N   0  0  0  0  0  0  0  0  0  0  0  0
    4.5400   -2.6841   -1.3130 C   0  0  2  0  0  0  0  0  0  0  0  0
    5.1757   -1.6619   -0.3800 C   0  0  0  0  0  0  0  0  0  0  0  0
    4.5285   -0.8012    0.2129 O   0  0  0  0  0  0  0  0  0  0  0  0
    4.7069   -2.2705   -2.7669 C   0  0  0  0  0  0  0  0  0  0  0  0
    2.7966   -3.7208   -0.6908 H   0  0  0  0  0  0  0  0  0  0  0  0
    4.9958   -3.6659   -1.1449 H   0  0  0  0  0  0  0  0  0  0  0  0
    4.2563   -1.2891   -2.9546 H   0  0  0  0  0  0  0  0  0  0  0  0
    5.7647   -2.2067   -3.0424 H   0  0  0  0  0  0  0  0  0  0  0  0
    4.2233   -2.9914   -3.4351 H   0  0  0  0  0  0  0  0  0  0  0  0
    6.5557   -1.7965   -0.3208 N   0  0  0  0  0  0  0  0  0  0  0  0
    7.3891   -0.9359    0.4859 C   0  0  0  0  0  0  0  0  0  0  0  0
    7.0066   -2.5504   -0.8308 H   0  0  0  0  0  0  0  0  0  0  0  0
    7.7363   -0.0868   -0.1211 H   0  0  0  0  0  0  0  0  0  0  0  0
    6.8089   -0.5614    1.3421 H   0  0  0  0  0  0  0  0  0  0  0  0
    8.2571   -1.5042    0.8517 H   0  0  0  0  0  0  0  0  0  0  0  0
  1  3  1  0  0  0  0
  1  7  1  0  0  0  0
  1  2  2  0  0  0  0
 21 22  1  0  0  0  0
 22 24  1  0  0  0  0
 22 23  2  0  0  0  0
 32 33  1  0  0  0  0
 33 41  1  0  0  0  0
 33 34  2  0  0  0  0
  8  9  1  0  0  0  0
  9 17  1  0  0  0  0
  9 10  2  0  0  0  0
 18 19  1  0  0  0  0
 19 31  1  0  0  0  0
 19 20  2  0  0  0  0
 32 35  1  0  0  0  0
  8 11  1  0  0  0  0
 41 42  1  0  0  0  0
 18 21  1  0  0  0  0
 31 32  1  0  0  0  0
  7  8  1  0  0  0  0
 17 18  1  0  0  0  0
  3  4  1  0  0  0  0
  3  5  1  0  0  0  0
  3  6  1  0  0  0  0
 35 38  1  0  0  0  0
 35 39  1  0  0  0  0
 35 40  1  0  0  0  0
 11 14  1  0  0  0  0
 11 15  1  0  0  0  0
 11 16  1  0  0  0  0
 42 44  1  0  0  0  0
 42 45  1  0  0  0  0
 42 46  1  0  0  0  0
 21 27  1  0  0  0  0
 21 28  1  0  0  0  0
 32 37  1  0  0  0  0
  8 13  1  0  0  0  0
 18 26  1  0  0  0  0
 24 29  1  0  0  0  0
 24 30  1  0  0  0  0
 41 43  1  0  0  0  0
  7 12  1  0  0  0  0
 31 36  1  0  0  0  0
 17 25  1  0  0  0  0
M  END
$$$$

  -OEChem-05262214473D

 46 45  0     1  0  0  0  0  0999 V2000
   -0.0543    1.9736    3.8406 C   0  0  0  0  0  0  0  0  0  0  0  0
    0.6744    1.6099    4.7562 O   0  0  0  0  0  0  0  0  0  0  0  0
   -0.5599    3.3779    3.8160 C   0  0  0  0  0  0  0  0  0  0  0  0
   -1.5202    3.4885    4.3450 H   0  0  0  0  0  0  0  0  0  0  0  0
    0.1282    4.0814    4.3116 H   0  0  0  0  0  0  0  0  0  0  0  0
   -0.7317    3.7994    2.8126 H   0  0  0  0  0  0  0  0  0  0  0  0
   -0.4812    1.1968    2.7762 N   0  0  0  0  0  0  0  0  0  0  0  0
   -0.1106   -0.1834    2.6051 C   0  0  2  0  0  0  0  0  0  0  0  0
   -0.0696   -0.4775    1.1113 C   0  0  0  0  0  0  0  0  0  0  0  0
   -0.6805    0.1900    0.2792 O   0  0  0  0  0  0  0  0  0  0  0  0
   -1.0852   -1.1101    3.3150 C   0  0  0  0  0  0  0  0  0  0  0  0
   -1.0883    1.6241    2.0791 H   0  0  0  0  0  0  0  0  0  0  0  0
    0.8937   -0.2959    3.0277 H   0  0  0  0  0  0  0  0  0  0  0  0
   -2.0970   -1.0114    2.9051 H   0  0  0  0  0  0  0  0  0  0  0  0
   -0.7860   -2.1580    3.2078 H   0  0  0  0  0  0  0  0  0  0  0  0
   -1.1357   -0.8775    4.3842 H   0  0  0  0  0  0  0  0  0  0  0  0
    0.6950   -1.6003    0.8178 N   0  0  0  0  0  0  0  0  0  0  0  0
    0.8777   -2.0908   -0.5246 C   0  0  2  0  0  0  0  0  0  0  0  0
    2.2875   -1.7152   -0.9633 C   0  0  0  0  0  0  0  0  0  0  0  0
    2.6975   -0.5564   -0.9860 O   0  0  0  0  0  0  0  0  0  0  0  0
   -0.1584   -1.5119   -1.4883 C   0  0  0  0  0  0  0  0  0  0  0  0
   -1.5604   -2.0433   -1.2481 C   0  0  0  0  0  0  0  0  0  0  0  0
   -1.8183   -3.2184   -1.0042 O   0  0  0  0  0  0  0  0  0  0  0  0
   -2.5158   -1.0525   -1.3294 N   0  0  0  0  0  0  0  0  0  0  0  0
    1.1810   -2.0803    1.5718 H   0  0  0  0  0  0  0  0  0  0  0  0
    0.8006   -3.1831   -0.4712 H   0  0  0  0  0  0  0  0  0  0  0  0
   -0.2055   -0.4204   -1.3844 H   0  0  0  0  0  0  0  0  0  0  0  0
    0.1214   -1.7255   -2.5280 H   0  0  0  0  0  0  0  0  0  0  0  0
   -2.2561   -0.0925   -1.5301 H   0  0  0  0  0  0  0  0  0  0  0  0
   -3.5044   -1.2392   -1.1942 H   0  0  0  0  0  0  0  0  0  0  0  0
    3.0527   -2.8290   -1.2793 N   0  0  0  0  0  0  0  0  0  0  0  0
    4.4301   -2.7188   -1.6960 C   0  0  2  0  0  0  0  0  0  0  0  0
    5.1979   -1.9975   -0.5961 C   0  0  0  0  0  0  0  0  0  0  0  0
    4.6572   -1.2646    0.2295 O   0  0  0  0  0  0  0  0  0  0  0  0
    4.5506   -1.9779   -3.0186 C   0  0  0  0  0  0  0  0  0  0  0  0
    2.6440   -3.7565   -1.2119 H   0  0  0  0  0  0  0  0  0  0  0  0
    4.8121   -3.7403   -1.7991 H   0  0  0  0  0  0  0  0  0  0  0  0
    4.1728   -0.9524   -2.9348 H   0  0  0  0  0  0  0  0  0  0  0  0
    5.5934   -1.9201   -3.3474 H   0  0  0  0  0  0  0  0  0  0  0  0
    3.9736   -2.4817   -3.8015 H   0  0  0  0  0  0  0  0  0  0  0  0
    6.5633   -2.2342   -0.6713 N   0  0  0  0  0  0  0  0  0  0  0  0
    7.5076   -1.6520    0.2536 C   0  0  0  0  0  0  0  0  0  0  0  0
    6.9220   -2.8707   -1.3769 H   0  0  0  0  0  0  0  0  0  0  0  0
    7.8898   -0.7064   -0.1585 H   0  0  0  0  0  0  0  0  0  0  0  0
    7.0078   -1.4578    1.2140 H   0  0  0  0  0  0  0  0  0  0  0  0
    8.3445   -2.3484    0.4099 H   0  0  0  0  0  0  0  0  0  0  0  0
  1  3  1  0  0  0  0
  1  7  1  0  0  0  0
  1  2  2  0  0  0  0
 21 22  1  0  0  0  0
 22 24  1  0  0  0  0
 22 23  2  0  0  0  0
 32 33  1  0  0  0  0
 33 41  1  0  0  0  0
 33 34  2  0  0  0  0
  8  9  1  0  0  0  0
  9 17  1  0  0  0  0
  9 10  2  0  0  0  0
 18 19  1  0  0  0  0
 19 31  1  0  0  0  0
 19 20  2  0  0  0  0
 32 35  1  0  0  0  0
  8 11  1  0  0  0  0
 41 42  1  0  0  0  0
 18 21  1  0  0  0  0
 31 32  1  0  0  0  0
  7  8  1  0  0  0  0
 17 18  1  0  0  0  0
  3  4  1  0  0  0  0
  3  5  1  0  0  0  0
  3  6  1  0  0  0  0
 35 38  1  0  0  0  0
 35 39  1  0  0  0  0
 35 40  1  0  0  0  0
 11 14  1  0  0  0  0
 11 15  1  0  0  0  0
 11 16  1  0  0  0  0
 42 44  1  0  0  0  0
 42 45  1  0  0  0  0
 42 46  1  0  0  0  0
 21 27  1  0  0  0  0
 21 28  1  0  0  0  0
 32 37  1  0  0  0  0
  8 13  1  0  0  0  0
 18 26  1  0  0  0  0
 24 29  1  0  0  0  0
 24 30  1  0  0  0  0
 41 43  1  0  0  0  0
  7 12  1  0  0  0  0
 31 36  1  0  0  0  0
 17 25  1  0  0  0  0
M  END
$$$$

  -OEChem-05262214473D

 46 45  0     1  0  0  0  0  0999 V2000
   -0.0543    1.9736    3.8406 C   0  0  0  0  0  0  0  0  0  0  0  0
    0.6744    1.6099    4.7562 O   0  0  0  0  0  0  0  0  0  0  0  0
   -0.5599    3.3779    3.8160 C   0  0  0  0  0  0  0  0  0  0  0  0
   -1.5202    3.4885    4.3450 H   0  0  0  0  0  0  0  0  0  0  0  0
    0.1282    4.0814    4.3116 H   0  0  0  0  0  0  0  0  0  0  0  0
   -0.7317    3.7994    2.8126 H   0  0  0  0  0  0  0  0  0  0  0  0
   -0.4812    1.1968    2.7762 N   0  0  0  0  0  0  0  0  0  0  0  0
   -0.1106   -0.1834    2.6051 C   0  0  2  0  0  0  0  0  0  0  0  0
   -0.0696   -0.4775    1.1113 C   0  0  0  0  0  0  0  0  0  0  0  0
   -0.6805    0.1900    0.2792 O   0  0  0  0  0  0  0  0  0  0  0  0
   -1.0852   -1.1101    3.3150 C   0  0  0  0  0  0  0  0  0  0  0  0
   -1.0883    1.6241    2.0791 H   0  0  0  0  0  0  0  0  0  0  0  0
    0.8937   -0.2959    3.0277 H   0  0  0  0  0  0  0  0  0  0  0  0
   -2.0970   -1.0114    2.9051 H   0  0  0  0  0  0  0  0  0  0  0  0
   -0.7860   -2.1580    3.2078 H   0  0  0  0  0  0  0  0  0  0  0  0
   -1.1357   -0.8775    4.3842 H   0  0  0  0  0  0  0  0  0  0  0  0
    0.6950   -1.6003    0.8178 N   0  0  0  0  0  0  0  0  0  0  0  0
    0.8777   -2.0908   -0.5246 C   0  0  2  0  0  0  0  0  0  0  0  0
    2.2875   -1.7152   -0.9633 C   0  0  0  0  0  0  0  0  0  0  0  0
    2.7896   -0.6154   -0.7404 O   0  0  0  0  0  0  0  0  0  0  0  0
   -0.1584   -1.5119   -1.4883 C   0  0  0  0  0  0  0  0  0  0  0  0
   -1.5604   -2.0433   -1.2481 C   0  0  0  0  0  0  0  0  0  0  0  0
   -1.8183   -3.2184   -1.0042 O   0  0  0  0  0  0  0  0  0  0  0  0
   -2.5158   -1.0525   -1.3294 N   0  0  0  0  0  0  0  0  0  0  0  0
    1.1810   -2.0803    1.5718 H   0  0  0  0  0  0  0  0  0  0  0  0
    0.8006   -3.1831   -0.4712 H   0  0  0  0  0  0  0  0  0  0  0  0
   -0.2055   -0.4204   -1.3844 H   0  0  0  0  0  0  0  0  0  0  0  0
    0.1214   -1.7255   -2.5280 H   0  0  0  0  0  0  0  0  0  0  0  0
   -2.2561   -0.0925   -1.5301 H   0  0  0  0  0  0  0  0  0  0  0  0
   -3.5044   -1.2392   -1.1942 H   0  0  0  0  0  0  0  0  0  0  0  0
    2.9400   -2.7680   -1.5893 N   0  0  0  0  0  0  0  0  0  0  0  0
    4.2970   -2.6524   -2.0672 C   0  0  2  0  0  0  0  0  0  0  0  0
    5.1805   -2.2715   -0.8866 C   0  0  0  0  0  0  0  0  0  0  0  0
    4.7479   -1.7257    0.1264 O   0  0  0  0  0  0  0  0  0  0  0  0
    4.4054   -1.6233   -3.1816 C   0  0  0  0  0  0  0  0  0  0  0  0
    2.4607   -3.6548   -1.7141 H   0  0  0  0  0  0  0  0  0  0  0  0
    4.5873   -3.6418   -2.4371 H   0  0  0  0  0  0  0  0  0  0  0  0
    4.1184   -0.6257   -2.8297 H   0  0  0  0  0  0  0  0  0  0  0  0
    5.4299   -1.5574   -3.5625 H   0  0  0  0  0  0  0  0  0  0  0  0
    3.7469   -1.8831   -4.0174 H   0  0  0  0  0  0  0  0  0  0  0  0
    6.5156   -2.5736   -1.1151 N   0  0  0  0  0  0  0  0  0  0  0  0
    7.5539   -2.2968   -0.1499 C   0  0  0  0  0  0  0  0  0  0  0  0
    6.7815   -3.0430   -1.9757 H   0  0  0  0  0  0  0  0  0  0  0  0
    7.9894   -1.3073   -0.3528 H   0  0  0  0  0  0  0  0  0  0  0  0
    7.1251   -2.3079    0.8630 H   0  0  0  0  0  0  0  0  0  0  0  0
    8.3379   -3.0647   -0.2246 H   0  0  0  0  0  0  0  0  0  0  0  0
  1  3  1  0  0  0  0
  1  7  1  0  0  0  0
  1  2  2  0  0  0  0
 21 22  1  0  0  0  0
 22 24  1  0  0  0  0
 22 23  2  0  0  0  0
 32 33  1  0  0  0  0
 33 41  1  0  0  0  0
 33 34  2  0  0  0  0
  8  9  1  0  0  0  0
  9 17  1  0  0  0  0
  9 10  2  0  0  0  0
 18 19  1  0  0  0  0
 19 31  1  0  0  0  0
 19 20  2  0  0  0  0
 32 35  1  0  0  0  0
  8 11  1  0  0  0  0
 41 42  1  0  0  0  0
 18 21  1  0  0  0  0
 31 32  1  0  0  0  0
  7  8  1  0  0  0  0
 17 18  1  0  0  0  0
  3  4  1  0  0  0  0
  3  5  1  0  0  0  0
  3  6  1  0  0  0  0
 35 38  1  0  0  0  0
 35 39  1  0  0  0  0
 35 40  1  0  0  0  0
 11 14  1  0  0  0  0
 11 15  1  0  0  0  0
 11 16  1  0  0  0  0
 42 44  1  0  0  0  0
 42 45  1  0  0  0  0
 42 46  1  0  0  0  0
 21 27  1  0  0  0  0
 21 28  1  0  0  0  0
 32 37  1  0  0  0  0
  8 13  1  0  0  0  0
 18 26  1  0  0  0  0
 24 29  1  0  0  0  0
 24 30  1  0  0  0  0
 41 43  1  0  0  0  0
  7 12  1  0  0  0  0
 31 36  1  0  0  0  0
 17 25  1  0  0  0  0
M  END
$$$$

  -OEChem-05262214473D

 46 45  0     1  0  0  0  0  0999 V2000
   -0.0543    1.9736    3.8406 C   0  0  0  0  0  0  0  0  0  0  0  0
    0.6744    1.6099    4.7562 O   0  0  0  0  0  0  0  0  0  0  0  0
   -0.5599    3.3779    3.8160 C   0  0  0  0  0  0  0  0  0  0  0  0
   -1.5202    3.4885    4.3450 H   0  0  0  0  0  0  0  0  0  0  0  0
    0.1282    4.0814    4.3116 H   0  0  0  0  0  0  0  0  0  0  0  0
   -0.7317    3.7994    2.8126 H   0  0  0  0  0  0  0  0  0  0  0  0
   -0.4812    1.1968    2.7762 N   0  0  0  0  0  0  0  0  0  0  0  0
   -0.1106   -0.1834    2.6051 C   0  0  2  0  0  0  0  0  0  0  0  0
   -0.0696   -0.4775    1.1113 C   0  0  0  0  0  0  0  0  0  0  0  0
   -0.6805    0.1900    0.2792 O   0  0  0  0  0  0  0  0  0  0  0  0
   -1.0852   -1.1101    3.3150 C   0  0  0  0  0  0  0  0  0  0  0  0
   -1.0883    1.6241    2.0791 H   0  0  0  0  0  0  0  0  0  0  0  0
    0.8937   -0.2959    3.0277 H   0  0  0  0  0  0  0  0  0  0  0  0
   -2.0970   -1.0114    2.9051 H   0  0  0  0  0  0  0  0  0  0  0  0
   -0.7860   -2.1580    3.2078 H   0  0  0  0  0  0  0  0  0  0  0  0
   -1.1357   -0.8775    4.3842 H   0  0  0  0  0  0  0  0  0  0  0  0
    0.6950   -1.6003    0.8178 N   0  0  0  0  0  0  0  0  0  0  0  0
    0.8777   -2.0908   -0.5246 C   0  0  2  0  0  0  0  0  0  0  0  0
    2.2875   -1.7152   -0.9633 C   0  0  0  0  0  0  0  0  0  0  0  0
    2.8899   -0.7380   -0.5232 O   0  0  0  0  0  0  0  0  0  0  0  0
   -0.1584   -1.5119   -1.4883 C   0  0  0  0  0  0  0  0  0  0  0  0
   -1.5604   -2.0433   -1.2481 C   0  0  0  0  0  0  0  0  0  0  0  0
   -1.8183   -3.2184   -1.0042 O   0  0  0  0  0  0  0  0  0  0  0  0
   -2.5158   -1.0525   -1.3294 N   0  0  0  0  0  0  0  0  0  0  0  0
    1.1810   -2.0803    1.5718 H   0  0  0  0  0  0  0  0  0  0  0  0
    0.8006   -3.1831   -0.4712 H   0  0  0  0  0  0  0  0  0  0  0  0
   -0.2055   -0.4204   -1.3844 H   0  0  0  0  0  0  0  0  0  0  0  0
    0.1214   -1.7255   -2.5280 H   0  0  0  0  0  0  0  0  0  0  0  0
   -2.2561   -0.0925   -1.5301 H   0  0  0  0  0  0  0  0  0  0  0  0
   -3.5044   -1.2392   -1.1942 H   0  0  0  0  0  0  0  0  0  0  0  0
    2.8159   -2.6264   -1.8669 N   0  0  0  0  0  0  0  0  0  0  0  0
    4.1496   -2.4895   -2.4013 C   0  0  2  0  0  0  0  0  0  0  0  0
    5.1247   -2.4654   -1.2317 C   0  0  0  0  0  0  0  0  0  0  0  0
    4.7946   -2.1532   -0.0895 O   0  0  0  0  0  0  0  0  0  0  0  0
    4.2812   -1.2310   -3.2448 C   0  0  0  0  0  0  0  0  0  0  0  0
    2.2591   -3.4226   -2.1631 H   0  0  0  0  0  0  0  0  0  0  0  0
    4.3368   -3.3771   -3.0155 H   0  0  0  0  0  0  0  0  0  0  0  0
    4.0970   -0.3312   -2.6466 H   0  0  0  0  0  0  0  0  0  0  0  0
    5.2853   -1.1434   -3.6729 H   0  0  0  0  0  0  0  0  0  0  0  0
    3.5588   -1.2363   -4.0682 H   0  0  0  0  0  0  0  0  0  0  0  0
    6.4160   -2.7917   -1.6220 N   0  0  0  0  0  0  0  0  0  0  0  0
    7.5247   -2.8265   -0.6971 C   0  0  0  0  0  0  0  0  0  0  0  0
    6.5949   -3.0556   -2.5865 H   0  0  0  0  0  0  0  0  0  0  0  0
    8.0285   -1.8486   -0.6908 H   0  0  0  0  0  0  0  0  0  0  0  0
    7.1526   -3.0536    0.3128 H   0  0  0  0  0  0  0  0  0  0  0  0
    8.2377   -3.6041   -1.0086 H   0  0  0  0  0  0  0  0  0  0  0  0
  1  3  1  0  0  0  0
  1  7  1  0  0  0  0
  1  2  2  0  0  0  0
 21 22  1  0  0  0  0
 22 24  1  0  0  0  0
 22 23  2  0  0  0  0
 32 33  1  0  0  0  0
 33 41  1  0  0  0  0
 33 34  2  0  0  0  0
  8  9  1  0  0  0  0
  9 17  1  0  0  0  0
  9 10  2  0  0  0  0
 18 19  1  0  0  0  0
 19 31  1  0  0  0  0
 19 20  2  0  0  0  0
 32 35  1  0  0  0  0
  8 11  1  0  0  0  0
 41 42  1  0  0  0  0
 18 21  1  0  0  0  0
 31 32  1  0  0  0  0
  7  8  1  0  0  0  0
 17 18  1  0  0  0  0
  3  4  1  0  0  0  0
  3  5  1  0  0  0  0
  3  6  1  0  0  0  0
 35 38  1  0  0  0  0
 35 39  1  0  0  0  0
 35 40  1  0  0  0  0
 11 14  1  0  0  0  0
 11 15  1  0  0  0  0
 11 16  1  0  0  0  0
 42 44  1  0  0  0  0
 42 45  1  0  0  0  0
 42 46  1  0  0  0  0
 21 27  1  0  0  0  0
 21 28  1  0  0  0  0
 32 37  1  0  0  0  0
  8 13  1  0  0  0  0
 18 26  1  0  0  0  0
 24 29  1  0  0  0  0
 24 30  1  0  0  0  0
 41 43  1  0  0  0  0
  7 12  1  0  0  0  0
 31 36  1  0  0  0  0
 17 25  1  0  0  0  0
M  END
$$$$

  -OEChem-05262214473D

 46 45  0     1  0  0  0  0  0999 V2000
   -0.0543    1.9736    3.8406 C   0  0  0  0  0  0  0  0  0  0  0  0
    0.6744    1.6099    4.7562 O   0  0  0  0  0  0  0  0  0  0  0  0
   -0.5599    3.3779    3.8160 C   0  0  0  0  0  0  0  0  0  0  0  0
   -1.5202    3.4885    4.3450 H   0  0  0  0  0  0  0  0  0  0  0  0
    0.1282    4.0814    4.3116 H   0  0  0  0  0  0  0  0  0  0  0  0
   -0.7317    3.7994    2.8126 H   0  0  0  0  0  0  0  0  0  0  0  0
   -0.4812    1.1968    2.7762 N   0  0  0  0  0  0  0  0  0  0  0  0
   -0.1106   -0.1834    2.6051 C   0  0  2  0  0  0  0  0  0  0  0  0
   -0.0696   -0.4775    1.1113 C   0  0  0  0  0  0  0  0  0  0  0  0
   -0.6805    0.1900    0.2792 O   0  0  0  0  0  0  0  0  0  0  0  0
   -1.0852   -1.1101    3.3150 C   0  0  0  0  0  0  0  0  0  0  0  0
   -1.0883    1.6241    2.0791 H   0  0  0  0  0  0  0  0  0  0  0  0
    0.8937   -0.2959    3.0277 H   0  0  0  0  0  0  0  0  0  0  0  0
   -2.0970   -1.0114    2.9051 H   0  0  0  0  0  0  0  0  0  0  0  0
   -0.7860   -2.1580    3.2078 H   0  0  0  0  0  0  0  0  0  0  0  0
   -1.1357   -0.8775    4.3842 H   0  0  0  0  0  0  0  0  0  0  0  0
    0.6950   -1.6003    0.8178 N   0  0  0  0  0  0  0  0  0  0  0  0
    0.8777   -2.0908   -0.5246 C   0  0  2  0  0  0  0  0  0  0  0  0
    2.2875   -1.7152   -0.9633 C   0  0  0  0  0  0  0  0  0  0  0  0
    2.9914   -0.9159   -0.3492 O   0  0  0  0  0  0  0  0  0  0  0  0
   -0.1584   -1.5119   -1.4883 C   0  0  0  0  0  0  0  0  0  0  0  0
   -1.5604   -2.0433   -1.2481 C   0  0  0  0  0  0  0  0  0  0  0  0
   -1.8183   -3.2184   -1.0042 O   0  0  0  0  0  0  0  0  0  0  0  0
   -2.5158   -1.0525   -1.3294 N   0  0  0  0  0  0  0  0  0  0  0  0
    1.1810   -2.0803    1.5718 H   0  0  0  0  0  0  0  0  0  0  0  0
    0.8006   -3.1831   -0.4712 H   0  0  0  0  0  0  0  0  0  0  0  0
   -0.2055   -0.4204   -1.3844 H   0  0  0  0  0  0  0  0  0  0  0  0
    0.1214   -1.7255   -2.5280 H   0  0  0  0  0  0  0  0  0  0  0  0
   -2.2561   -0.0925   -1.5301 H   0  0  0  0  0  0  0  0  0  0  0  0
   -3.5044   -1.2392   -1.1942 H   0  0  0  0  0  0  0  0  0  0  0  0
    2.6888   -2.4139   -2.0932 N   0  0  0  0  0  0  0  0  0  0  0  0
    3.9980   -2.2411   -2.6757 C   0  0  2  0  0  0  0  0  0  0  0  0
    5.0344   -2.5658   -1.6080 C   0  0  0  0  0  0  0  0  0  0  0  0
    4.7941   -2.5179   -0.4034 O   0  0  0  0  0  0  0  0  0  0  0  0
    4.1864   -0.8276   -3.2040 C   0  0  0  0  0  0  0  0  0  0  0  0
    2.0530   -3.0758   -2.5284 H   0  0  0  0  0  0  0  0  0  0  0  0
    4.0777   -2.9642   -3.4947 H   0  0  0  0  0  0  0  0  0  0  0  0
    4.1099   -0.0890   -2.3977 H   0  0  0  0  0  0  0  0  0  0  0  0
    5.1694   -0.7063   -3.6711 H   0  0  0  0  0  0  0  0  0  0  0  0
    3.4220   -0.5853   -3.9502 H   0  0  0  0  0  0  0  0  0  0  0  0
    6.2711   -2.8734   -2.1576 N   0  0  0  0  0  0  0  0  0  0  0  0
    7.4222   -3.2049   -1.3506 C   0  0  0  0  0  0  0  0  0  0  0  0
    6.3746   -2.9075   -3.1675 H   0  0  0  0  0  0  0  0  0  0  0  0
    8.0043   -2.2935   -1.1494 H   0  0  0  0  0  0  0  0  0  0  0  0
    7.0884   -3.6442   -0.3990 H   0  0  0  0  0  0  0  0  0  0  0  0
    8.0506   -3.9298   -1.8887 H   0  0  0  0  0  0  0  0  0  0  0  0
  1  3  1  0  0  0  0
  1  7  1  0  0  0  0
  1  2  2  0  0  0  0
 21 22  1  0  0  0  0
 22 24  1  0  0  0  0
 22 23  2  0  0  0  0
 32 33  1  0  0  0  0
 33 41  1  0  0  0  0
 33 34  2  0  0  0  0
  8  9  1  0  0  0  0
  9 17  1  0  0  0  0
  9 10  2  0  0  0  0
 18 19  1  0  0  0  0
 19 31  1  0  0  0  0
 19 20  2  0  0  0  0
 32 35  1  0  0  0  0
  8 11  1  0  0  0  0
 41 42  1  0  0  0  0
 18 21  1  0  0  0  0
 31 32  1  0  0  0  0
  7  8  1  0  0  0  0
 17 18  1  0  0  0  0
  3  4  1  0  0  0  0
  3  5  1  0  0  0  0
  3  6  1  0  0  0  0
 35 38  1  0  0  0  0
 35 39  1  0  0  0  0
 35 40  1  0  0  0  0
 11 14  1  0  0  0  0
 11 15  1  0  0  0  0
 11 16  1  0  0  0  0
 42 44  1  0  0  0  0
 42 45  1  0  0  0  0
 42 46  1  0  0  0  0
 21 27  1  0  0  0  0
 21 28  1  0  0  0  0
 32 37  1  0  0  0  0
  8 13  1  0  0  0  0
 18 26  1  0  0  0  0
 24 29  1  0  0  0  0
 24 30  1  0  0  0  0
 41 43  1  0  0  0  0
  7 12  1  0  0  0  0
 31 36  1  0  0  0  0
 17 25  1  0  0  0  0
M  END
$$$$

  -OEChem-05262214473D

 46 45  0     1  0  0  0  0  0999 V2000
   -0.0543    1.9736    3.8406 C   0  0  0  0  0  0  0  0  0  0  0  0
    0.6744    1.6099    4.7562 O   0  0  0  0  0  0  0  0  0  0  0  0
   -0.5599    3.3779    3.8160 C   0  0  0  0  0  0  0  0  0  0  0  0
   -1.5202    3.4885    4.3450 H   0  0  0  0  0  0  0  0  0  0  0  0
    0.1282    4.0814    4.3116 H   0  0  0  0  0  0  0  0  0  0  0  0
   -0.7317    3.7994    2.8126 H   0  0  0  0  0  0  0  0  0  0  0  0
   -0.4812    1.1968    2.7762 N   0  0  0  0  0  0  0  0  0  0  0  0
   -0.1106   -0.1834    2.6051 C   0  0  2  0  0  0  0  0  0  0  0  0
   -0.0696   -0.4775    1.1113 C   0  0  0  0  0  0  0  0  0  0  0  0
   -0.6805    0.1900    0.2792 O   0  0  0  0  0  0  0  0  0  0  0  0
   -1.0852   -1.1101    3.3150 C   0  0  0  0  0  0  0  0  0  0  0  0
   -1.0883    1.6241    2.0791 H   0  0  0  0  0  0  0  0  0  0  0  0
    0.8937   -0.2959    3.0277 H   0  0  0  0  0  0  0  0  0  0  0  0
   -2.0970   -1.0114    2.9051 H   0  0  0  0  0  0  0  0  0  0  0  0
   -0.7860   -2.1580    3.2078 H   0  0  0  0  0  0  0  0  0  0  0  0
   -1.1357   -0.8775    4.3842 H   0  0  0  0  0  0  0  0  0  0  0  0
    0.6950   -1.6003    0.8178 N   0  0  0  0  0  0  0  0  0  0  0  0
    0.8777   -2.0908   -0.5246 C   0  0  2  0  0  0  0  0  0  0  0  0
    2.3707   -2.0589   -0.8263 C   0  0  0  0  0  0  0  0  0  0  0  0
    3.2148   -1.7084   -0.0041 O   0  0  0  0  0  0  0  0  0  0  0  0
    0.1039   -1.2567   -1.5459 C   0  0  0  0  0  0  0  0  0  0  0  0
   -1.4006   -1.4374   -1.4478 C   0  0  0  0  0  0  0  0  0  0  0  0
   -1.9539   -2.5198   -1.2780 O   0  0  0  0  0  0  0  0  0  0  0  0
   -2.0791   -0.2428   -1.5659 N   0  0  0  0  0  0  0  0  0  0  0  0
    1.1810   -2.0803    1.5718 H   0  0  0  0  0  0  0  0  0  0  0  0
    0.5365   -3.1326   -0.5256 H   0  0  0  0  0  0  0  0  0  0  0  0
    0.3104   -0.1891   -1.3988 H   0  0  0  0  0  0  0  0  0  0  0  0
    0.4190   -1.5089   -2.5666 H   0  0  0  0  0  0  0  0  0  0  0  0
   -1.5794    0.6296   -1.7020 H   0  0  0  0  0  0  0  0  0  0  0  0
   -3.0917   -0.1870   -1.5226 H   0  0  0  0  0  0  0  0  0  0  0  0
    2.6572   -2.5153   -2.1053 N   0  0  0  0  0  0  0  0  0  0  0  0
    4.0091   -2.5993   -2.6035 C   0  0  2  0  0  0  0  0  0  0  0  0
    4.8014   -3.4990   -1.6643 C   0  0  0  0  0  0  0  0  0  0  0  0
    4.4728   -3.7064   -0.4980 O   0  0  0  0  0  0  0  0  0  0  0  0
    4.6479   -1.2230   -2.7053 C   0  0  0  0  0  0  0  0  0  0  0  0
    1.9009   -2.8093   -2.7163 H   0  0  0  0  0  0  0  0  0  0  0  0
    3.9528   -3.0638   -3.5941 H   0  0  0  0  0  0  0  0  0  0  0  0
    4.7129   -0.7420   -1.7225 H   0  0  0  0  0  0  0  0  0  0  0  0
    5.6633   -1.2858   -3.1103 H   0  0  0  0  0  0  0  0  0  0  0  0
    4.0604   -0.5679   -3.3577 H   0  0  0  0  0  0  0  0  0  0  0  0
    5.9421   -4.0088   -2.2686 N   0  0  0  0  0  0  0  0  0  0  0  0
    6.8663   -4.8794   -1.5802 C   0  0  0  0  0  0  0  0  0  0  0  0
    6.1261   -3.7996   -3.2454 H   0  0  0  0  0  0  0  0  0  0  0  0
    7.6657   -4.2782   -1.1226 H   0  0  0  0  0  0  0  0  0  0  0  0
    6.3313   -5.4354   -0.7961 H   0  0  0  0  0  0  0  0  0  0  0  0
    7.3056   -5.5883   -2.2975 H   0  0  0  0  0  0  0  0  0  0  0  0
  1  3  1  0  0  0  0
  1  7  1  0  0  0  0
  1  2  2  0  0  0  0
 21 22  1  0  0  0  0
 22 24  1  0  0  0  0
 22 23  2  0  0  0  0
 32 33  1  0  0  0  0
 33 41  1  0  0  0  0
 33 34  2  0  0  0  0
  8  9  1  0  0  0  0
  9 17  1  0  0  0  0
  9 10  2  0  0  0  0
 18 19  1  0  0  0  0
 19 31  1  0  0  0  0
 19 20  2  0  0  0  0
 32 35  1  0  0  0  0
  8 11  1  0  0  0  0
 41 42  1  0  0  0  0
 18 21  1  0  0  0  0
 31 32  1  0  0  0  0
  7  8  1  0  0  0  0
 17 18  1  0  0  0  0
  3  4  1  0  0  0  0
  3  5  1  0  0  0  0
  3  6  1  0  0  0  0
 35 38  1  0  0  0  0
 35 39  1  0  0  0  0
 35 40  1  0  0  0  0
 11 14  1  0  0  0  0
 11 15  1  0  0  0  0
 11 16  1  0  0  0  0
 42 44  1  0  0  0  0
 42 45  1  0  0  0  0
 42 46  1  0  0  0  0
 21 27  1  0  0  0  0
 21 28  1  0  0  0  0
 32 37  1  0  0  0  0
  8 13  1  0  0  0  0
 18 26  1  0  0  0  0
 24 29  1  0  0  0  0
 24 30  1  0  0  0  0
 41 43  1  0  0  0  0
  7 12  1  0  0  0  0
 31 36  1  0  0  0  0
 17 25  1  0  0  0  0
M  END
$$$$

  -OEChem-05262214473D

 46 45  0     1  0  0  0  0  0999 V2000
   -0.0543    1.9736    3.8406 C   0  0  0  0  0  0  0  0  0  0  0  0
    0.6744    1.6099    4.7562 O   0  0  0  0  0  0  0  0  0  0  0  0
   -0.5599    3.3779    3.8160 C   0  0  0  0  0  0  0  0  0  0  0  0
   -1.5202    3.4885    4.3450 H   0  0  0  0  0  0  0  0  0  0  0  0
    0.1282    4.0814    4.3116 H   0  0  0  0  0  0  0  0  0  0  0  0
   -0.7317    3.7994    2.8126 H   0  0  0  0  0  0  0  0  0  0  0  0
   -0.4812    1.1968    2.7762 N   0  0  0  0  0  0  0  0  0  0  0  0
   -0.1106   -0.1834    2.6051 C   0  0  2  0  0  0  0  0  0  0  0  0
   -0.0696   -0.4775    1.1113 C   0  0  0  0  0  0  0  0  0  0  0  0
   -0.6805    0.1900    0.2792 O   0  0  0  0  0  0  0  0  0  0  0  0
   -1.0852   -1.1101    3.3150 C   0  0  0  0  0  0  0  0  0  0  0  0
   -1.0883    1.6241    2.0791 H   0  0  0  0  0  0  0  0  0  0  0  0
    0.8937   -0.2959    3.0277 H   0  0  0  0  0  0  0  0  0  0  0  0
   -2.0970   -1.0114    2.9051 H   0  0  0  0  0  0  0  0  0  0  0  0
   -0.7860   -2.1580    3.2078 H   0  0  0  0  0  0  0  0  0  0  0  0
   -1.1357   -0.8775    4.3842 H   0  0  0  0  0  0  0  0  0  0  0  0
    0.6950   -1.6003    0.8178 N   0  0  0  0  0  0  0  0  0  0  0  0
    0.8777   -2.0908   -0.5246 C   0  0  2  0  0  0  0  0  0  0  0  0
    2.3707   -2.0589   -0.8263 C   0  0  0  0  0  0  0  0  0  0  0  0
    3.2308   -1.9716    0.0477 O   0  0  0  0  0  0  0  0  0  0  0  0
    0.1039   -1.2567   -1.5459 C   0  0  0  0  0  0  0  0  0  0  0  0
   -1.4006   -1.4374   -1.4478 C   0  0  0  0  0  0  0  0  0  0  0  0
   -1.9539   -2.5198   -1.2780 O   0  0  0  0  0  0  0  0  0  0  0  0
   -2.0791   -0.2428   -1.5659 N   0  0  0  0  0  0  0  0  0  0  0  0
    1.1810   -2.0803    1.5718 H   0  0  0  0  0  0  0  0  0  0  0  0
    0.5365   -3.1326   -0.5256 H   0  0  0  0  0  0  0  0  0  0  0  0
    0.3104   -0.1891   -1.3988 H   0  0  0  0  0  0  0  0  0  0  0  0
    0.4190   -1.5089   -2.5666 H   0  0  0  0  0  0  0  0  0  0  0  0
   -1.5794    0.6296   -1.7020 H   0  0  0  0  0  0  0  0  0  0  0  0
   -3.0917   -0.1870   -1.5226 H   0  0  0  0  0  0  0  0  0  0  0  0
    2.6346   -2.1897   -2.1825 N   0  0  0  0  0  0  0  0  0  0  0  0
    3.9809   -2.2127   -2.7021 C   0  0  2  0  0  0  0  0  0  0  0  0
    4.7243   -3.3603   -2.0312 C   0  0  0  0  0  0  0  0  0  0  0  0
    4.3840   -3.8399   -0.9517 O   0  0  0  0  0  0  0  0  0  0  0  0
    4.6905   -0.8898   -2.4593 C   0  0  0  0  0  0  0  0  0  0  0  0
    1.8648   -2.2803   -2.8390 H   0  0  0  0  0  0  0  0  0  0  0  0
    3.9018   -2.4072   -3.7772 H   0  0  0  0  0  0  0  0  0  0  0  0
    4.7792   -0.6778   -1.3875 H   0  0  0  0  0  0  0  0  0  0  0  0
    5.7017   -0.8990   -2.8792 H   0  0  0  0  0  0  0  0  0  0  0  0
    4.1386   -0.0618   -2.9172 H   0  0  0  0  0  0  0  0  0  0  0  0
    5.8377   -3.7570   -2.7586 N   0  0  0  0  0  0  0  0  0  0  0  0
    6.7145   -4.8194   -2.3246 C   0  0  0  0  0  0  0  0  0  0  0  0
    6.0335   -3.3163   -3.6526 H   0  0  0  0  0  0  0  0  0  0  0  0
    7.5436   -4.3951   -1.7392 H   0  0  0  0  0  0  0  0  0  0  0  0
    6.1505   -5.5283   -1.7007 H   0  0  0  0  0  0  0  0  0  0  0  0
    7.1173   -5.3443   -3.2034 H   0  0  0  0  0  0  0  0  0  0  0  0
  1  3  1  0  0  0  0
  1  7  1  0  0  0  0
  1  2  2  0  0  0  0
 21 22  1  0  0  0  0
 22 24  1  0  0  0  0
 22 23  2  0  0  0  0
 32 33  1  0  0  0  0
 33 41  1  0  0  0  0
 33 34  2  0  0  0  0
  8  9  1  0  0  0  0
  9 17  1  0  0  0  0
  9 10  2  0  0  0  0
 18 19  1  0  0  0  0
 19 31  1  0  0  0  0
 19 20  2  0  0  0  0
 32 35  1  0  0  0  0
  8 11  1  0  0  0  0
 41 42  1  0  0  0  0
 18 21  1  0  0  0  0
 31 32  1  0  0  0  0
  7  8  1  0  0  0  0
 17 18  1  0  0  0  0
  3  4  1  0  0  0  0
  3  5  1  0  0  0  0
  3  6  1  0  0  0  0
 35 38  1  0  0  0  0
 35 39  1  0  0  0  0
 35 40  1  0  0  0  0
 11 14  1  0  0  0  0
 11 15  1  0  0  0  0
 11 16  1  0  0  0  0
 42 44  1  0  0  0  0
 42 45  1  0  0  0  0
 42 46  1  0  0  0  0
 21 27  1  0  0  0  0
 21 28  1  0  0  0  0
 32 37  1  0  0  0  0
  8 13  1  0  0  0  0
 18 26  1  0  0  0  0
 24 29  1  0  0  0  0
 24 30  1  0  0  0  0
 41 43  1  0  0  0  0
  7 12  1  0  0  0  0
 31 36  1  0  0  0  0
 17 25  1  0  0  0  0
M  END
$$$$

  -OEChem-05262214473D

 46 45  0     1  0  0  0  0  0999 V2000
   -0.0543    1.9736    3.8406 C   0  0  0  0  0  0  0  0  0  0  0  0
    0.6744    1.6099    4.7562 O   0  0  0  0  0  0  0  0  0  0  0  0
   -0.5599    3.3779    3.8160 C   0  0  0  0  0  0  0  0  0  0  0  0
   -1.5202    3.4885    4.3450 H   0  0  0  0  0  0  0  0  0  0  0  0
    0.1282    4.0814    4.3116 H   0  0  0  0  0  0  0  0  0  0  0  0
   -0.7317    3.7994    2.8126 H   0  0  0  0  0  0  0  0  0  0  0  0
   -0.4812    1.1968    2.7762 N   0  0  0  0  0  0  0  0  0  0  0  0
   -0.1106   -0.1834    2.6051 C   0  0  2  0  0  0  0  0  0  0  0  0
   -0.0696   -0.4775    1.1113 C   0  0  0  0  0  0  0  0  0  0  0  0
   -0.6805    0.1900    0.2792 O   0  0  0  0  0  0  0  0  0  0  0  0
   -1.0852   -1.1101    3.3150 C   0  0  0  0  0  0  0  0  0  0  0  0
   -1.0883    1.6241    2.0791 H   0  0  0  0  0  0  0  0  0  0  0  0
    0.8937   -0.2959    3.0277 H   0  0  0  0  0  0  0  0  0  0  0  0
   -2.0970   -1.0114    2.9051 H   0  0  0  0  0  0  0  0  0  0  0  0
   -0.7860   -2.1580    3.2078 H   0  0  0  0  0  0  0  0  0  0  0  0
   -1.1357   -0.8775    4.3842 H   0  0  0  0  0  0  0  0  0  0  0  0
    0.6950   -1.6003    0.8178 N   0  0  0  0  0  0  0  0  0  0  0  0
    0.8777   -2.0908   -0.5246 C   0  0  2  0  0  0  0  0  0  0  0  0
    2.3707   -2.0589   -0.8263 C   0  0  0  0  0  0  0  0  0  0  0  0
    3.2332   -2.2399    0.0309 O   0  0  0  0  0  0  0  0  0  0  0  0
    0.1039   -1.2567   -1.5459 C   0  0  0  0  0  0  0  0  0  0  0  0
   -1.4006   -1.4374   -1.4478 C   0  0  0  0  0  0  0  0  0  0  0  0
   -1.9539   -2.5198   -1.2780 O   0  0  0  0  0  0  0  0  0  0  0  0
   -2.0791   -0.2428   -1.5659 N   0  0  0  0  0  0  0  0  0  0  0  0
    1.1810   -2.0803    1.5718 H   0  0  0  0  0  0  0  0  0  0  0  0
    0.5365   -3.1326   -0.5256 H   0  0  0  0  0  0  0  0  0  0  0  0
    0.3104   -0.1891   -1.3988 H   0  0  0  0  0  0  0  0  0  0  0  0
    0.4190   -1.5089   -2.5666 H   0  0  0  0  0  0  0  0  0  0  0  0
   -1.5794    0.6296   -1.7020 H   0  0  0  0  0  0  0  0  0  0  0  0
   -3.0917   -0.1870   -1.5226 H   0  0  0  0  0  0  0  0  0  0  0  0
    2.6291   -1.8544   -2.1744 N   0  0  0  0  0  0  0  0  0  0  0  0
    3.9730   -1.8129   -2.6990 C   0  0  2  0  0  0  0  0  0  0  0  0
    4.6549   -3.1292   -2.3499 C   0  0  0  0  0  0  0  0  0  0  0  0
    4.2888   -3.8492   -1.4233 O   0  0  0  0  0  0  0  0  0  0  0  0
    4.7500   -0.6325   -2.1374 C   0  0  0  0  0  0  0  0  0  0  0  0
    1.8564   -1.7364   -2.8231 H   0  0  0  0  0  0  0  0  0  0  0  0
    3.8851   -1.7239   -3.7873 H   0  0  0  0  0  0  0  0  0  0  0  0
    4.8484   -0.7042   -1.0480 H   0  0  0  0  0  0  0  0  0  0  0  0
    5.7600   -0.5860   -2.5580 H   0  0  0  0  0  0  0  0  0  0  0  0
    4.2425    0.3114   -2.3638 H   0  0  0  0  0  0  0  0  0  0  0  0
    5.7471   -3.3841   -3.1675 N   0  0  0  0  0  0  0  0  0  0  0  0
    6.5670   -4.5648   -3.0276 C   0  0  0  0  0  0  0  0  0  0  0  0
    5.9665   -2.7414   -3.9229 H   0  0  0  0  0  0  0  0  0  0  0  0
    7.4163   -4.3455   -2.3638 H   0  0  0  0  0  0  0  0  0  0  0  0
    5.9661   -5.3794   -2.5970 H   0  0  0  0  0  0  0  0  0  0  0  0
    6.9430   -4.8691   -4.0155 H   0  0  0  0  0  0  0  0  0  0  0  0
  1  3  1  0  0  0  0
  1  7  1  0  0  0  0
  1  2  2  0  0  0  0
 21 22  1  0  0  0  0
 22 24  1  0  0  0  0
 22 23  2  0  0  0  0
 32 33  1  0  0  0  0
 33 41  1  0  0  0  0
 33 34  2  0  0  0  0
  8  9  1  0  0  0  0
  9 17  1  0  0  0  0
  9 10  2  0  0  0  0
 18 19  1  0  0  0  0
 19 31  1  0  0  0  0
 19 20  2  0  0  0  0
 32 35  1  0  0  0  0
  8 11  1  0  0  0  0
 41 42  1  0  0  0  0
 18 21  1  0  0  0  0
 31 32  1  0  0  0  0
  7  8  1  0  0  0  0
 17 18  1  0  0  0  0
  3  4  1  0  0  0  0
  3  5  1  0  0  0  0
  3  6  1  0  0  0  0
 35 38  1  0  0  0  0
 35 39  1  0  0  0  0
 35 40  1  0  0  0  0
 11 14  1  0  0  0  0
 11 15  1  0  0  0  0
 11 16  1  0  0  0  0
 42 44  1  0  0  0  0
 42 45  1  0  0  0  0
 42 46  1  0  0  0  0
 21 27  1  0  0  0  0
 21 28  1  0  0  0  0
 32 37  1  0  0  0  0
  8 13  1  0  0  0  0
 18 26  1  0  0  0  0
 24 29  1  0  0  0  0
 24 30  1  0  0  0  0
 41 43  1  0  0  0  0
  7 12  1  0  0  0  0
 31 36  1  0  0  0  0
 17 25  1  0  0  0  0
M  END
$$$$

  -OEChem-05262214473D

 46 45  0     1  0  0  0  0  0999 V2000
   -0.0543    1.9736    3.8406 C   0  0  0  0  0  0  0  0  0  0  0  0
    0.6744    1.6099    4.7562 O   0  0  0  0  0  0  0  0  0  0  0  0
   -0.5599    3.3779    3.8160 C   0  0  0  0  0  0  0  0  0  0  0  0
   -1.5202    3.4885    4.3450 H   0  0  0  0  0  0  0  0  0  0  0  0
    0.1282    4.0814    4.3116 H   0  0  0  0  0  0  0  0  0  0  0  0
   -0.7317    3.7994    2.8126 H   0  0  0  0  0  0  0  0  0  0  0  0
   -0.4812    1.1968    2.7762 N   0  0  0  0  0  0  0  0  0  0  0  0
   -0.1106   -0.1834    2.6051 C   0  0  2  0  0  0  0  0  0  0  0  0
   -0.0696   -0.4775    1.1113 C   0  0  0  0  0  0  0  0  0  0  0  0
   -0.6805    0.1900    0.2792 O   0  0  0  0  0  0  0  0  0  0  0  0
   -1.0852   -1.1101    3.3150 C   0  0  0  0  0  0  0  0  0  0  0  0
   -1.0883    1.6241    2.0791 H   0  0  0  0  0  0  0  0  0  0  0  0
    0.8937   -0.2959    3.0277 H   0  0  0  0  0  0  0  0  0  0  0  0
   -2.0970   -1.0114    2.9051 H   0  0  0  0  0  0  0  0  0  0  0  0
   -0.7860   -2.1580    3.2078 H   0  0  0  0  0  0  0  0  0  0  0  0
   -1.1357   -0.8775    4.3842 H   0  0  0  0  0  0  0  0  0  0  0  0
    0.6950   -1.6003    0.8178 N   0  0  0  0  0  0  0  0  0  0  0  0
    0.8777   -2.0908   -0.5246 C   0  0  2  0  0  0  0  0  0  0  0  0
    2.3707   -2.0589   -0.8263 C   0  0  0  0  0  0  0  0  0  0  0  0
    3.2216   -2.4949   -0.0535 O   0  0  0  0  0  0  0  0  0  0  0  0
    0.1039   -1.2567   -1.5459 C   0  0  0  0  0  0  0  0  0  0  0  0
   -1.4006   -1.4374   -1.4478 C   0  0  0  0  0  0  0  0  0  0  0  0
   -1.9539   -2.5198   -1.2780 O   0  0  0  0  0  0  0  0  0  0  0  0
   -2.0791   -0.2428   -1.5659 N   0  0  0  0  0  0  0  0  0  0  0  0
    1.1810   -2.0803    1.5718 H   0  0  0  0  0  0  0  0  0  0  0  0
    0.5365   -3.1326   -0.5256 H   0  0  0  0  0  0  0  0  0  0  0  0
    0.3104   -0.1891   -1.3988 H   0  0  0  0  0  0  0  0  0  0  0  0
    0.4190   -1.5089   -2.5666 H   0  0  0  0  0  0  0  0  0  0  0  0
   -1.5794    0.6296   -1.7020 H   0  0  0  0  0  0  0  0  0  0  0  0
   -3.0917   -0.1870   -1.5226 H   0  0  0  0  0  0  0  0  0  0  0  0
    2.6409   -1.5323   -2.0816 N   0  0  0  0  0  0  0  0  0  0  0  0
    3.9859   -1.4271   -2.5946 C   0  0  2  0  0  0  0  0  0  0  0  0
    4.5981   -2.8216   -2.5988 C   0  0  0  0  0  0  0  0  0  0  0  0
    4.1939   -3.7337   -1.8807 O   0  0  0  0  0  0  0  0  0  0  0  0
    4.8225   -0.4687   -1.7615 C   0  0  0  0  0  0  0  0  0  0  0  0
    1.8762   -1.2147   -2.6698 H   0  0  0  0  0  0  0  0  0  0  0  0
    3.9040   -1.0604   -3.6237 H   0  0  0  0  0  0  0  0  0  0  0  0
    4.9157   -0.8194   -0.7272 H   0  0  0  0  0  0  0  0  0  0  0  0
    5.8340   -0.3680   -2.1687 H   0  0  0  0  0  0  0  0  0  0  0  0
    4.3650    0.5262   -1.7351 H   0  0  0  0  0  0  0  0  0  0  0  0
    5.6764   -2.9155   -3.4674 N   0  0  0  0  0  0  0  0  0  0  0  0
    6.4338   -4.1330   -3.6412 C   0  0  0  0  0  0  0  0  0  0  0  0
    5.9299   -2.1142   -4.0378 H   0  0  0  0  0  0  0  0  0  0  0  0
    7.2925   -4.1325   -2.9538 H   0  0  0  0  0  0  0  0  0  0  0  0
    5.7909   -4.9987   -3.4241 H   0  0  0  0  0  0  0  0  0  0  0  0
    6.7946   -4.1953   -4.6785 H   0  0  0  0  0  0  0  0  0  0  0  0
  1  3  1  0  0  0  0
  1  7  1  0  0  0  0
  1  2  2  0  0  0  0
 21 22  1  0  0  0  0
 22 24  1  0  0  0  0
 22 23  2  0  0  0  0
 32 33  1  0  0  0  0
 33 41  1  0  0  0  0
 33 34  2  0  0  0  0
  8  9  1  0  0  0  0
  9 17  1  0  0  0  0
  9 10  2  0  0  0  0
 18 19  1  0  0  0  0
 19 31  1  0  0  0  0
 19 20  2  0  0  0  0
 32 35  1  0  0  0  0
  8 11  1  0  0  0  0
 41 42  1  0  0  0  0
 18 21  1  0  0  0  0
 31 32  1  0  0  0  0
  7  8  1  0  0  0  0
 17 18  1  0  0  0  0
  3  4  1  0  0  0  0
  3  5  1  0  0  0  0
  3  6  1  0  0  0  0
 35 38  1  0  0  0  0
 35 39  1  0  0  0  0
 35 40  1  0  0  0  0
 11 14  1  0  0  0  0
 11 15  1  0  0  0  0
 11 16  1  0  0  0  0
 42 44  1  0  0  0  0
 42 45  1  0  0  0  0
 42 46  1  0  0  0  0
 21 27  1  0  0  0  0
 21 28  1  0  0  0  0
 32 37  1  0  0  0  0
  8 13  1  0  0  0  0
 18 26  1  0  0  0  0
 24 29  1  0  0  0  0
 24 30  1  0  0  0  0
 41 43  1  0  0  0  0
  7 12  1  0  0  0  0
 31 36  1  0  0  0  0
 17 25  1  0  0  0  0
M  END
$$$$

  -OEChem-05262214473D

 46 45  0     1  0  0  0  0  0999 V2000
   -0.0543    1.9736    3.8406 C   0  0  0  0  0  0  0  0  0  0  0  0
    0.6744    1.6099    4.7562 O   0  0  0  0  0  0  0  0  0  0  0  0
   -0.5599    3.3779    3.8160 C   0  0  0  0  0  0  0  0  0  0  0  0
   -1.5202    3.4885    4.3450 H   0  0  0  0  0  0  0  0  0  0  0  0
    0.1282    4.0814    4.3116 H   0  0  0  0  0  0  0  0  0  0  0  0
   -0.7317    3.7994    2.8126 H   0  0  0  0  0  0  0  0  0  0  0  0
   -0.4812    1.1968    2.7762 N   0  0  0  0  0  0  0  0  0  0  0  0
   -0.1106   -0.1834    2.6051 C   0  0  2  0  0  0  0  0  0  0  0  0
   -0.0696   -0.4775    1.1113 C   0  0  0  0  0  0  0  0  0  0  0  0
   -0.6805    0.1900    0.2792 O   0  0  0  0  0  0  0  0  0  0  0  0
   -1.0852   -1.1101    3.3150 C   0  0  0  0  0  0  0  0  0  0  0  0
   -1.0883    1.6241    2.0791 H   0  0  0  0  0  0  0  0  0  0  0  0
    0.8937   -0.2959    3.0277 H   0  0  0  0  0  0  0  0  0  0  0  0
   -2.0970   -1.0114    2.9051 H   0  0  0  0  0  0  0  0  0  0  0  0
   -0.7860   -2.1580    3.2078 H   0  0  0  0  0  0  0  0  0  0  0  0
   -1.1357   -0.8775    4.3842 H   0  0  0  0  0  0  0  0  0  0  0  0
    0.6950   -1.6003    0.8178 N   0  0  0  0  0  0  0  0  0  0  0  0
    0.8777   -2.0908   -0.5246 C   0  0  2  0  0  0  0  0  0  0  0  0
    2.3707   -2.0589   -0.8263 C   0  0  0  0  0  0  0  0  0  0  0  0
    3.1969   -2.7192   -0.1995 O   0  0  0  0  0  0  0  0  0  0  0  0
    0.1039   -1.2567   -1.5459 C   0  0  0  0  0  0  0  0  0  0  0  0
   -1.4006   -1.4374   -1.4478 C   0  0  0  0  0  0  0  0  0  0  0  0
   -1.9539   -2.5198   -1.2780 O   0  0  0  0  0  0  0  0  0  0  0  0
   -2.0791   -0.2428   -1.5659 N   0  0  0  0  0  0  0  0  0  0  0  0
    1.1810   -2.0803    1.5718 H   0  0  0  0  0  0  0  0  0  0  0  0
    0.5365   -3.1326   -0.5256 H   0  0  0  0  0  0  0  0  0  0  0  0
    0.3104   -0.1891   -1.3988 H   0  0  0  0  0  0  0  0  0  0  0  0
    0.4190   -1.5089   -2.5666 H   0  0  0  0  0  0  0  0  0  0  0  0
   -1.5794    0.6296   -1.7020 H   0  0  0  0  0  0  0  0  0  0  0  0
   -3.0917   -0.1870   -1.5226 H   0  0  0  0  0  0  0  0  0  0  0  0
    2.6694   -1.2454   -1.9102 N   0  0  0  0  0  0  0  0  0  0  0  0
    4.0186   -1.0815   -2.3960 C   0  0  2  0  0  0  0  0  0  0  0  0
    4.5575   -2.4584   -2.7609 C   0  0  0  0  0  0  0  0  0  0  0  0
    4.1057   -3.5013   -2.2927 O   0  0  0  0  0  0  0  0  0  0  0  0
    4.9030   -0.4095   -1.3573 C   0  0  0  0  0  0  0  0  0  0  0  0
    1.9229   -0.7506   -2.3895 H   0  0  0  0  0  0  0  0  0  0  0  0
    3.9572   -0.4621   -3.2974 H   0  0  0  0  0  0  0  0  0  0  0  0
    4.9765   -1.0155   -0.4469 H   0  0  0  0  0  0  0  0  0  0  0  0
    5.9188   -0.2601   -1.7378 H   0  0  0  0  0  0  0  0  0  0  0  0
    4.4977    0.5679   -1.0740 H   0  0  0  0  0  0  0  0  0  0  0  0
    5.6306   -2.3833   -3.6379 N   0  0  0  0  0  0  0  0  0  0  0  0
    6.3239   -3.5535   -4.1237 C   0  0  0  0  0  0  0  0  0  0  0  0
    5.9261   -1.4773   -3.9895 H   0  0  0  0  0  0  0  0  0  0  0  0
    7.1806   -3.7709   -3.4690 H   0  0  0  0  0  0  0  0  0  0  0  0
    5.6366   -4.4123   -4.1254 H   0  0  0  0  0  0  0  0  0  0  0  0
    6.6822   -3.3686   -5.1472 H   0  0  0  0  0  0  0  0  0  0  0  0
  1  3  1  0  0  0  0
  1  7  1  0  0  0  0
  1  2  2  0  0  0  0
 21 22  1  0  0  0  0
 22 24  1  0  0  0  0
 22 23  2  0  0  0  0
 32 33  1  0  0  0  0
 33 41  1  0  0  0  0
 33 34  2  0  0  0  0
  8  9  1  0  0  0  0
  9 17  1  0  0  0  0
  9 10  2  0  0  0  0
 18 19  1  0  0  0  0
 19 31  1  0  0  0  0
 19 20  2  0  0  0  0
 32 35  1  0  0  0  0
  8 11  1  0  0  0  0
 41 42  1  0  0  0  0
 18 21  1  0  0  0  0
 31 32  1  0  0  0  0
  7  8  1  0  0  0  0
 17 18  1  0  0  0  0
  3  4  1  0  0  0  0
  3  5  1  0  0  0  0
  3  6  1  0  0  0  0
 35 38  1  0  0  0  0
 35 39  1  0  0  0  0
 35 40  1  0  0  0  0
 11 14  1  0  0  0  0
 11 15  1  0  0  0  0
 11 16  1  0  0  0  0
 42 44  1  0  0  0  0
 42 45  1  0  0  0  0
 42 46  1  0  0  0  0
 21 27  1  0  0  0  0
 21 28  1  0  0  0  0
 32 37  1  0  0  0  0
  8 13  1  0  0  0  0
 18 26  1  0  0  0  0
 24 29  1  0  0  0  0
 24 30  1  0  0  0  0
 41 43  1  0  0  0  0
  7 12  1  0  0  0  0
 31 36  1  0  0  0  0
 17 25  1  0  0  0  0
M  END
$$$$

  -OEChem-05262214473D

 46 45  0     1  0  0  0  0  0999 V2000
   -0.0543    1.9736    3.8406 C   0  0  0  0  0  0  0  0  0  0  0  0
    0.6744    1.6099    4.7562 O   0  0  0  0  0  0  0  0  0  0  0  0
   -0.5599    3.3779    3.8160 C   0  0  0  0  0  0  0  0  0  0  0  0
   -1.5202    3.4885    4.3450 H   0  0  0  0  0  0  0  0  0  0  0  0
    0.1282    4.0814    4.3116 H   0  0  0  0  0  0  0  0  0  0  0  0
   -0.7317    3.7994    2.8126 H   0  0  0  0  0  0  0  0  0  0  0  0
   -0.4812    1.1968    2.7762 N   0  0  0  0  0  0  0  0  0  0  0  0
   -0.1106   -0.1834    2.6051 C   0  0  2  0  0  0  0  0  0  0  0  0
   -0.0696   -0.4775    1.1113 C   0  0  0  0  0  0  0  0  0  0  0  0
   -0.6805    0.1900    0.2792 O   0  0  0  0  0  0  0  0  0  0  0  0
   -1.0852   -1.1101    3.3150 C   0  0  0  0  0  0  0  0  0  0  0  0
   -1.0883    1.6241    2.0791 H   0  0  0  0  0  0  0  0  0  0  0  0
    0.8937   -0.2959    3.0277 H   0  0  0  0  0  0  0  0  0  0  0  0
   -2.0970   -1.0114    2.9051 H   0  0  0  0  0  0  0  0  0  0  0  0
   -0.7860   -2.1580    3.2078 H   0  0  0  0  0  0  0  0  0  0  0  0
   -1.1357   -0.8775    4.3842 H   0  0  0  0  0  0  0  0  0  0  0  0
    0.6950   -1.6003    0.8178 N   0  0  0  0  0  0  0  0  0  0  0  0
    0.8777   -2.0908   -0.5246 C   0  0  2  0  0  0  0  0  0  0  0  0
    2.3707   -2.0589   -0.8263 C   0  0  0  0  0  0  0  0  0  0  0  0
    3.1607   -2.8976   -0.3974 O   0  0  0  0  0  0  0  0  0  0  0  0
    0.1039   -1.2567   -1.5459 C   0  0  0  0  0  0  0  0  0  0  0  0
   -1.4006   -1.4374   -1.4478 C   0  0  0  0  0  0  0  0  0  0  0  0
   -1.9539   -2.5198   -1.2780 O   0  0  0  0  0  0  0  0  0  0  0  0
   -2.0791   -0.2428   -1.5659 N   0  0  0  0  0  0  0  0  0  0  0  0
    1.1810   -2.0803    1.5718 H   0  0  0  0  0  0  0  0  0  0  0  0
    0.5365   -3.1326   -0.5256 H   0  0  0  0  0  0  0  0  0  0  0  0
    0.3104   -0.1891   -1.3988 H   0  0  0  0  0  0  0  0  0  0  0  0
    0.4190   -1.5089   -2.5666 H   0  0  0  0  0  0  0  0  0  0  0  0
   -1.5794    0.6296   -1.7020 H   0  0  0  0  0  0  0  0  0  0  0  0
   -3.0917   -0.1870   -1.5226 H   0  0  0  0  0  0  0  0  0  0  0  0
    2.7126   -1.0131   -1.6721 N   0  0  0  0  0  0  0  0  0  0  0  0
    4.0690   -0.7998   -2.1167 C   0  0  2  0  0  0  0  0  0  0  0  0
    4.5361   -2.0644   -2.8252 C   0  0  0  0  0  0  0  0  0  0  0  0
    4.0301   -3.1678   -2.6312 O   0  0  0  0  0  0  0  0  0  0  0  0
    4.9859   -0.4590   -0.9522 C   0  0  0  0  0  0  0  0  0  0  0  0
    1.9934   -0.3758   -2.0013 H   0  0  0  0  0  0  0  0  0  0  0  0
    4.0409    0.0304   -2.8308 H   0  0  0  0  0  0  0  0  0  0  0  0
    5.0268   -1.2791   -0.2261 H   0  0  0  0  0  0  0  0  0  0  0  0
    6.0085   -0.2694   -1.2947 H   0  0  0  0  0  0  0  0  0  0  0  0
    4.6316    0.4338   -0.4256 H   0  0  0  0  0  0  0  0  0  0  0  0
    5.6127   -1.8236   -3.6673 N   0  0  0  0  0  0  0  0  0  0  0  0
    6.2448   -2.8656   -4.4422 C   0  0  0  0  0  0  0  0  0  0  0  0
    5.9553   -0.8741   -3.7813 H   0  0  0  0  0  0  0  0  0  0  0  0
    7.0883   -3.2851   -3.8744 H   0  0  0  0  0  0  0  0  0  0  0  0
    5.5138   -3.6601   -4.6533 H   0  0  0  0  0  0  0  0  0  0  0  0
    6.6135   -2.4455   -5.3896 H   0  0  0  0  0  0  0  0  0  0  0  0
  1  3  1  0  0  0  0
  1  7  1  0  0  0  0
  1  2  2  0  0  0  0
 21 22  1  0  0  0  0
 22 24  1  0  0  0  0
 22 23  2  0  0  0  0
 32 33  1  0  0  0  0
 33 41  1  0  0  0  0
 33 34  2  0  0  0  0
  8  9  1  0  0  0  0
  9 17  1  0  0  0  0
  9 10  2  0  0  0  0
 18 19  1  0  0  0  0
 19 31  1  0  0  0  0
 19 20  2  0  0  0  0
 32 35  1  0  0  0  0
  8 11  1  0  0  0  0
 41 42  1  0  0  0  0
 18 21  1  0  0  0  0
 31 32  1  0  0  0  0
  7  8  1  0  0  0  0
 17 18  1  0  0  0  0
  3  4  1  0  0  0  0
  3  5  1  0  0  0  0
  3  6  1  0  0  0  0
 35 38  1  0  0  0  0
 35 39  1  0  0  0  0
 35 40  1  0  0  0  0
 11 14  1  0  0  0  0
 11 15  1  0  0  0  0
 11 16  1  0  0  0  0
 42 44  1  0  0  0  0
 42 45  1  0  0  0  0
 42 46  1  0  0  0  0
 21 27  1  0  0  0  0
 21 28  1  0  0  0  0
 32 37  1  0  0  0  0
  8 13  1  0  0  0  0
 18 26  1  0  0  0  0
 24 29  1  0  0  0  0
 24 30  1  0  0  0  0
 41 43  1  0  0  0  0
  7 12  1  0  0  0  0
 31 36  1  0  0  0  0
 17 25  1  0  0  0  0
M  END
$$$$

  -OEChem-05262214473D

 46 45  0     1  0  0  0  0  0999 V2000
   -0.0543    1.9736    3.8406 C   0  0  0  0  0  0  0  0  0  0  0  0
    0.6744    1.6099    4.7562 O   0  0  0  0  0  0  0  0  0  0  0  0
   -0.5599    3.3779    3.8160 C   0  0  0  0  0  0  0  0  0  0  0  0
   -1.5202    3.4885    4.3450 H   0  0  0  0  0  0  0  0  0  0  0  0
    0.1282    4.0814    4.3116 H   0  0  0  0  0  0  0  0  0  0  0  0
   -0.7317    3.7994    2.8126 H   0  0  0  0  0  0  0  0  0  0  0  0
   -0.4812    1.1968    2.7762 N   0  0  0  0  0  0  0  0  0  0  0  0
   -0.1106   -0.1834    2.6051 C   0  0  2  0  0  0  0  0  0  0  0  0
   -0.0696   -0.4775    1.1113 C   0  0  0  0  0  0  0  0  0  0  0  0
   -0.6805    0.1900    0.2792 O   0  0  0  0  0  0  0  0  0  0  0  0
   -1.0852   -1.1101    3.3150 C   0  0  0  0  0  0  0  0  0  0  0  0
   -1.0883    1.6241    2.0791 H   0  0  0  0  0  0  0  0  0  0  0  0
    0.8937   -0.2959    3.0277 H   0  0  0  0  0  0  0  0  0  0  0  0
   -2.0970   -1.0114    2.9051 H   0  0  0  0  0  0  0  0  0  0  0  0
   -0.7860   -2.1580    3.2078 H   0  0  0  0  0  0  0  0  0  0  0  0
   -1.1357   -0.8775    4.3842 H   0  0  0  0  0  0  0  0  0  0  0  0
    0.6950   -1.6003    0.8178 N   0  0  0  0  0  0  0  0  0  0  0  0
    0.8777   -2.0908   -0.5246 C   0  0  2  0  0  0  0  0  0  0  0  0
    2.3707   -2.0589   -0.8263 C   0  0  0  0  0  0  0  0  0  0  0  0
    3.1155   -3.0178   -0.6335 O   0  0  0  0  0  0  0  0  0  0  0  0
    0.1039   -1.2567   -1.5459 C   0  0  0  0  0  0  0  0  0  0  0  0
   -1.4006   -1.4374   -1.4478 C   0  0  0  0  0  0  0  0  0  0  0  0
   -1.9539   -2.5198   -1.2780 O   0  0  0  0  0  0  0  0  0  0  0  0
   -2.0791   -0.2428   -1.5659 N   0  0  0  0  0  0  0  0  0  0  0  0
    1.1810   -2.0803    1.5718 H   0  0  0  0  0  0  0  0  0  0  0  0
    0.5365   -3.1326   -0.5256 H   0  0  0  0  0  0  0  0  0  0  0  0
    0.3104   -0.1891   -1.3988 H   0  0  0  0  0  0  0  0  0  0  0  0
    0.4190   -1.5089   -2.5666 H   0  0  0  0  0  0  0  0  0  0  0  0
   -1.5794    0.6296   -1.7020 H   0  0  0  0  0  0  0  0  0  0  0  0
   -3.0917   -0.1870   -1.5226 H   0  0  0  0  0  0  0  0  0  0  0  0
    2.7675   -0.8514   -1.3834 N   0  0  0  0  0  0  0  0  0  0  0  0
    4.1337   -0.6011   -1.7757 C   0  0  2  0  0  0  0  0  0  0  0  0
    4.5353   -1.6665   -2.7872 C   0  0  0  0  0  0  0  0  0  0  0  0
    3.9724   -2.7559   -2.8732 O   0  0  0  0  0  0  0  0  0  0  0  0
    5.0656   -0.6137   -0.5740 C   0  0  0  0  0  0  0  0  0  0  0  0
    2.0828   -0.1159   -1.5317 H   0  0  0  0  0  0  0  0  0  0  0  0
    4.1496    0.3835   -2.2557 H   0  0  0  0  0  0  0  0  0  0  0  0
    5.0630   -1.5923   -0.0801 H   0  0  0  0  0  0  0  0  0  0  0  0
    6.0972   -0.3955   -0.8695 H   0  0  0  0  0  0  0  0  0  0  0  0
    4.7576    0.1329    0.1659 H   0  0  0  0  0  0  0  0  0  0  0  0
    5.6239   -1.2745   -3.5536 N   0  0  0  0  0  0  0  0  0  0  0  0
    6.2019   -2.1164   -4.5750 C   0  0  0  0  0  0  0  0  0  0  0  0
    6.0155   -0.3458   -3.4273 H   0  0  0  0  0  0  0  0  0  0  0  0
    7.0219   -2.7084   -4.1422 H   0  0  0  0  0  0  0  0  0  0  0  0
    5.4309   -2.7933   -4.9717 H   0  0  0  0  0  0  0  0  0  0  0  0
    6.5931   -1.4888   -5.3893 H   0  0  0  0  0  0  0  0  0  0  0  0
  1  3  1  0  0  0  0
  1  7  1  0  0  0  0
  1  2  2  0  0  0  0
 21 22  1  0  0  0  0
 22 24  1  0  0  0  0
 22 23  2  0  0  0  0
 32 33  1  0  0  0  0
 33 41  1  0  0  0  0
 33 34  2  0  0  0  0
  8  9  1  0  0  0  0
  9 17  1  0  0  0  0
  9 10  2  0  0  0  0
 18 19  1  0  0  0  0
 19 31  1  0  0  0  0
 19 20  2  0  0  0  0
 32 35  1  0  0  0  0
  8 11  1  0  0  0  0
 41 42  1  0  0  0  0
 18 21  1  0  0  0  0
 31 32  1  0  0  0  0
  7  8  1  0  0  0  0
 17 18  1  0  0  0  0
  3  4  1  0  0  0  0
  3  5  1  0  0  0  0
  3  6  1  0  0  0  0
 35 38  1  0  0  0  0
 35 39  1  0  0  0  0
 35 40  1  0  0  0  0
 11 14  1  0  0  0  0
 11 15  1  0  0  0  0
 11 16  1  0  0  0  0
 42 44  1  0  0  0  0
 42 45  1  0  0  0  0
 42 46  1  0  0  0  0
 21 27  1  0  0  0  0
 21 28  1  0  0  0  0
 32 37  1  0  0  0  0
  8 13  1  0  0  0  0
 18 26  1  0  0  0  0
 24 29  1  0  0  0  0
 24 30  1  0  0  0  0
 41 43  1  0  0  0  0
  7 12  1  0  0  0  0
 31 36  1  0  0  0  0
 17 25  1  0  0  0  0
M  END
$$$$

  -OEChem-05262214473D

 46 45  0     1  0  0  0  0  0999 V2000
   -0.0543    1.9736    3.8406 C   0  0  0  0  0  0  0  0  0  0  0  0
    0.6744    1.6099    4.7562 O   0  0  0  0  0  0  0  0  0  0  0  0
   -0.5599    3.3779    3.8160 C   0  0  0  0  0  0  0  0  0  0  0  0
   -1.5202    3.4885    4.3450 H   0  0  0  0  0  0  0  0  0  0  0  0
    0.1282    4.0814    4.3116 H   0  0  0  0  0  0  0  0  0  0  0  0
   -0.7317    3.7994    2.8126 H   0  0  0  0  0  0  0  0  0  0  0  0
   -0.4812    1.1968    2.7762 N   0  0  0  0  0  0  0  0  0  0  0  0
   -0.1106   -0.1834    2.6051 C   0  0  2  0  0  0  0  0  0  0  0  0
   -0.0696   -0.4775    1.1113 C   0  0  0  0  0  0  0  0  0  0  0  0
   -0.6805    0.1900    0.2792 O   0  0  0  0  0  0  0  0  0  0  0  0
   -1.0852   -1.1101    3.3150 C   0  0  0  0  0  0  0  0  0  0  0  0
   -1.0883    1.6241    2.0791 H   0  0  0  0  0  0  0  0  0  0  0  0
    0.8937   -0.2959    3.0277 H   0  0  0  0  0  0  0  0  0  0  0  0
   -2.0970   -1.0114    2.9051 H   0  0  0  0  0  0  0  0  0  0  0  0
   -0.7860   -2.1580    3.2078 H   0  0  0  0  0  0  0  0  0  0  0  0
   -1.1357   -0.8775    4.3842 H   0  0  0  0  0  0  0  0  0  0  0  0
    0.6950   -1.6003    0.8178 N   0  0  0  0  0  0  0  0  0  0  0  0
    0.8777   -2.0908   -0.5246 C   0  0  2  0  0  0  0  0  0  0  0  0
    2.3707   -2.0589   -0.8263 C   0  0  0  0  0  0  0  0  0  0  0  0
    3.0645   -3.0718   -0.8919 O   0  0  0  0  0  0  0  0  0  0  0  0
    0.1039   -1.2567   -1.5459 C   0  0  0  0  0  0  0  0  0  0  0  0
   -1.4006   -1.4374   -1.4478 C   0  0  0  0  0  0  0  0  0  0  0  0
   -1.9539   -2.5198   -1.2780 O   0  0  0  0  0  0  0  0  0  0  0  0
   -2.0791   -0.2428   -1.5659 N   0  0  0  0  0  0  0  0  0  0  0  0
    1.1810   -2.0803    1.5718 H   0  0  0  0  0  0  0  0  0  0  0  0
    0.5365   -3.1326   -0.5256 H   0  0  0  0  0  0  0  0  0  0  0  0
    0.3104   -0.1891   -1.3988 H   0  0  0  0  0  0  0  0  0  0  0  0
    0.4190   -1.5089   -2.5666 H   0  0  0  0  0  0  0  0  0  0  0  0
   -1.5794    0.6296   -1.7020 H   0  0  0  0  0  0  0  0  0  0  0  0
   -3.0917   -0.1870   -1.5226 H   0  0  0  0  0  0  0  0  0  0  0  0
    2.8304   -0.7712   -1.0639 N   0  0  0  0  0  0  0  0  0  0  0  0
    4.2082   -0.4989   -1.3963 C   0  0  2  0  0  0  0  0  0  0  0  0
    4.5551   -1.2917   -2.6496 C   0  0  0  0  0  0  0  0  0  0  0  0
    3.9365   -2.2937   -3.0021 O   0  0  0  0  0  0  0  0  0  0  0  0
    5.1368   -0.8633   -0.2484 C   0  0  0  0  0  0  0  0  0  0  0  0
    2.1850    0.0115   -1.0126 H   0  0  0  0  0  0  0  0  0  0  0  0
    4.2759    0.5731   -1.6112 H   0  0  0  0  0  0  0  0  0  0  0  0
    5.0827   -1.9337   -0.0186 H   0  0  0  0  0  0  0  0  0  0  0  0
    6.1786   -0.6296   -0.4913 H   0  0  0  0  0  0  0  0  0  0  0  0
    4.8671   -0.3143    0.6603 H   0  0  0  0  0  0  0  0  0  0  0  0
    5.6635   -0.7736   -3.3047 N   0  0  0  0  0  0  0  0  0  0  0  0
    6.1983   -1.3569   -4.5129 C   0  0  0  0  0  0  0  0  0  0  0  0
    6.1027    0.0716   -2.9518 H   0  0  0  0  0  0  0  0  0  0  0  0
    6.9858   -2.0800   -4.2543 H   0  0  0  0  0  0  0  0  0  0  0  0
    5.3936   -1.8710   -5.0590 H   0  0  0  0  0  0  0  0  0  0  0  0
    6.6225   -0.5638   -5.1462 H   0  0  0  0  0  0  0  0  0  0  0  0
  1  3  1  0  0  0  0
  1  7  1  0  0  0  0
  1  2  2  0  0  0  0
 21 22  1  0  0  0  0
 22 24  1  0  0  0  0
 22 23  2  0  0  0  0
 32 33  1  0  0  0  0
 33 41  1  0  0  0  0
 33 34  2  0  0  0  0
  8  9  1  0  0  0  0
  9 17  1  0  0  0  0
  9 10  2  0  0  0  0
 18 19  1  0  0  0  0
 19 31  1  0  0  0  0
 19 20  2  0  0  0  0
 32 35  1  0  0  0  0
  8 11  1  0  0  0  0
 41 42  1  0  0  0  0
 18 21  1  0  0  0  0
 31 32  1  0  0  0  0
  7  8  1  0  0  0  0
 17 18  1  0  0  0  0
  3  4  1  0  0  0  0
  3  5  1  0  0  0  0
  3  6  1  0  0  0  0
 35 38  1  0  0  0  0
 35 39  1  0  0  0  0
 35 40  1  0  0  0  0
 11 14  1  0  0  0  0
 11 15  1  0  0  0  0
 11 16  1  0  0  0  0
 42 44  1  0  0  0  0
 42 45  1  0  0  0  0
 42 46  1  0  0  0  0
 21 27  1  0  0  0  0
 21 28  1  0  0  0  0
 32 37  1  0  0  0  0
  8 13  1  0  0  0  0
 18 26  1  0  0  0  0
 24 29  1  0  0  0  0
 24 30  1  0  0  0  0
 41 43  1  0  0  0  0
  7 12  1  0  0  0  0
 31 36  1  0  0  0  0
 17 25  1  0  0  0  0
M  END
$$$$

  -OEChem-05262214473D

 46 45  0     1  0  0  0  0  0999 V2000
   -0.0543    1.9736    3.8406 C   0  0  0  0  0  0  0  0  0  0  0  0
    0.6744    1.6099    4.7562 O   0  0  0  0  0  0  0  0  0  0  0  0
   -0.5599    3.3779    3.8160 C   0  0  0  0  0  0  0  0  0  0  0  0
   -1.5202    3.4885    4.3450 H   0  0  0  0  0  0  0  0  0  0  0  0
    0.1282    4.0814    4.3116 H   0  0  0  0  0  0  0  0  0  0  0  0
   -0.7317    3.7994    2.8126 H   0  0  0  0  0  0  0  0  0  0  0  0
   -0.4812    1.1968    2.7762 N   0  0  0  0  0  0  0  0  0  0  0  0
   -0.1106   -0.1834    2.6051 C   0  0  2  0  0  0  0  0  0  0  0  0
   -0.0696   -0.4775    1.1113 C   0  0  0  0  0  0  0  0  0  0  0  0
   -0.6805    0.1900    0.2792 O   0  0  0  0  0  0  0  0  0  0  0  0
   -1.0852   -1.1101    3.3150 C   0  0  0  0  0  0  0  0  0  0  0  0
   -1.0883    1.6241    2.0791 H   0  0  0  0  0  0  0  0  0  0  0  0
    0.8937   -0.2959    3.0277 H   0  0  0  0  0  0  0  0  0  0  0  0
   -2.0970   -1.0114    2.9051 H   0  0  0  0  0  0  0  0  0  0  0  0
   -0.7860   -2.1580    3.2078 H   0  0  0  0  0  0  0  0  0  0  0  0
   -1.1357   -0.8775    4.3842 H   0  0  0  0  0  0  0  0  0  0  0  0
    0.6950   -1.6003    0.8178 N   0  0  0  0  0  0  0  0  0  0  0  0
    0.8777   -2.0908   -0.5246 C   0  0  2  0  0  0  0  0  0  0  0  0
    2.3707   -2.0589   -0.8263 C   0  0  0  0  0  0  0  0  0  0  0  0
    3.0110   -3.0557   -1.1548 O   0  0  0  0  0  0  0  0  0  0  0  0
    0.1039   -1.2567   -1.5459 C   0  0  0  0  0  0  0  0  0  0  0  0
   -1.4006   -1.4374   -1.4478 C   0  0  0  0  0  0  0  0  0  0  0  0
   -1.9539   -2.5198   -1.2780 O   0  0  0  0  0  0  0  0  0  0  0  0
   -2.0791   -0.2428   -1.5659 N   0  0  0  0  0  0  0  0  0  0  0  0
    1.1810   -2.0803    1.5718 H   0  0  0  0  0  0  0  0  0  0  0  0
    0.5365   -3.1326   -0.5256 H   0  0  0  0  0  0  0  0  0  0  0  0
    0.3104   -0.1891   -1.3988 H   0  0  0  0  0  0  0  0  0  0  0  0
    0.4190   -1.5089   -2.5666 H   0  0  0  0  0  0  0  0  0  0  0  0
   -1.5794    0.6296   -1.7020 H   0  0  0  0  0  0  0  0  0  0  0  0
   -3.0917   -0.1870   -1.5226 H   0  0  0  0  0  0  0  0  0  0  0  0
    2.8969   -0.7780   -0.7352 N   0  0  0  0  0  0  0  0  0  0  0  0
    4.2875   -0.5003   -1.0043 C   0  0  2  0  0  0  0  0  0  0  0  0
    4.5942   -0.9656   -2.4217 C   0  0  0  0  0  0  0  0  0  0  0  0
    3.9248   -1.8128   -3.0093 O   0  0  0  0  0  0  0  0  0  0  0  0
    5.1945   -1.1905    0.0025 C   0  0  0  0  0  0  0  0  0  0  0  0
    2.2930   -0.0024   -0.4794 H   0  0  0  0  0  0  0  0  0  0  0  0
    4.4110    0.5863   -0.9412 H   0  0  0  0  0  0  0  0  0  0  0  0
    5.0846   -2.2800   -0.0459 H   0  0  0  0  0  0  0  0  0  0  0  0
    6.2473   -0.9558   -0.1858 H   0  0  0  0  0  0  0  0  0  0  0  0
    4.9526   -0.8772    1.0239 H   0  0  0  0  0  0  0  0  0  0  0  0
    5.7288   -0.3550   -2.9374 N   0  0  0  0  0  0  0  0  0  0  0  0
    6.2340   -0.6388   -4.2603 C   0  0  0  0  0  0  0  0  0  0  0  0
    6.2109    0.3497   -2.3871 H   0  0  0  0  0  0  0  0  0  0  0  0
    6.9826   -1.4427   -4.2029 H   0  0  0  0  0  0  0  0  0  0  0  0
    5.4043   -0.9561   -4.9092 H   0  0  0  0  0  0  0  0  0  0  0  0
    6.6996    0.2666   -4.6769 H   0  0  0  0  0  0  0  0  0  0  0  0
  1  3  1  0  0  0  0
  1  7  1  0  0  0  0
  1  2  2  0  0  0  0
 21 22  1  0  0  0  0
 22 24  1  0  0  0  0
 22 23  2  0  0  0  0
 32 33  1  0  0  0  0
 33 41  1  0  0  0  0
 33 34  2  0  0  0  0
  8  9  1  0  0  0  0
  9 17  1  0  0  0  0
  9 10  2  0  0  0  0
 18 19  1  0  0  0  0
 19 31  1  0  0  0  0
 19 20  2  0  0  0  0
 32 35  1  0  0  0  0
  8 11  1  0  0  0  0
 41 42  1  0  0  0  0
 18 21  1  0  0  0  0
 31 32  1  0  0  0  0
  7  8  1  0  0  0  0
 17 18  1  0  0  0  0
  3  4  1  0  0  0  0
  3  5  1  0  0  0  0
  3  6  1  0  0  0  0
 35 38  1  0  0  0  0
 35 39  1  0  0  0  0
 35 40  1  0  0  0  0
 11 14  1  0  0  0  0
 11 15  1  0  0  0  0
 11 16  1  0  0  0  0
 42 44  1  0  0  0  0
 42 45  1  0  0  0  0
 42 46  1  0  0  0  0
 21 27  1  0  0  0  0
 21 28  1  0  0  0  0
 32 37  1  0  0  0  0
  8 13  1  0  0  0  0
 18 26  1  0  0  0  0
 24 29  1  0  0  0  0
 24 30  1  0  0  0  0
 41 43  1  0  0  0  0
  7 12  1  0  0  0  0
 31 36  1  0  0  0  0
 17 25  1  0  0  0  0
M  END
$$$$

  -OEChem-05262214473D

 46 45  0     1  0  0  0  0  0999 V2000
   -0.0543    1.9736    3.8406 C   0  0  0  0  0  0  0  0  0  0  0  0
    0.6744    1.6099    4.7562 O   0  0  0  0  0  0  0  0  0  0  0  0
   -0.5599    3.3779    3.8160 C   0  0  0  0  0  0  0  0  0  0  0  0
   -1.5202    3.4885    4.3450 H   0  0  0  0  0  0  0  0  0  0  0  0
    0.1282    4.0814    4.3116 H   0  0  0  0  0  0  0  0  0  0  0  0
   -0.7317    3.7994    2.8126 H   0  0  0  0  0  0  0  0  0  0  0  0
   -0.4812    1.1968    2.7762 N   0  0  0  0  0  0  0  0  0  0  0  0
   -0.1106   -0.1834    2.6051 C   0  0  2  0  0  0  0  0  0  0  0  0
   -0.0696   -0.4775    1.1113 C   0  0  0  0  0  0  0  0  0  0  0  0
   -0.6805    0.1900    0.2792 O   0  0  0  0  0  0  0  0  0  0  0  0
   -1.0852   -1.1101    3.3150 C   0  0  0  0  0  0  0  0  0  0  0  0
   -1.0883    1.6241    2.0791 H   0  0  0  0  0  0  0  0  0  0  0  0
    0.8937   -0.2959    3.0277 H   0  0  0  0  0  0  0  0  0  0  0  0
   -2.0970   -1.0114    2.9051 H   0  0  0  0  0  0  0  0  0  0  0  0
   -0.7860   -2.1580    3.2078 H   0  0  0  0  0  0  0  0  0  0  0  0
   -1.1357   -0.8775    4.3842 H   0  0  0  0  0  0  0  0  0  0  0  0
    0.6950   -1.6003    0.8178 N   0  0  0  0  0  0  0  0  0  0  0  0
    0.8777   -2.0908   -0.5246 C   0  0  2  0  0  0  0  0  0  0  0  0
    2.3707   -2.0589   -0.8263 C   0  0  0  0  0  0  0  0  0  0  0  0
    2.9587   -2.9708   -1.4044 O   0  0  0  0  0  0  0  0  0  0  0  0
    0.1039   -1.2567   -1.5459 C   0  0  0  0  0  0  0  0  0  0  0  0
   -1.4006   -1.4374   -1.4478 C   0  0  0  0  0  0  0  0  0  0  0  0
   -1.9539   -2.5198   -1.2780 O   0  0  0  0  0  0  0  0  0  0  0  0
   -2.0791   -0.2428   -1.5659 N   0  0  0  0  0  0  0  0  0  0  0  0
    1.1810   -2.0803    1.5718 H   0  0  0  0  0  0  0  0  0  0  0  0
    0.5365   -3.1326   -0.5256 H   0  0  0  0  0  0  0  0  0  0  0  0
    0.3104   -0.1891   -1.3988 H   0  0  0  0  0  0  0  0  0  0  0  0
    0.4190   -1.5089   -2.5666 H   0  0  0  0  0  0  0  0  0  0  0  0
   -1.5794    0.6296   -1.7020 H   0  0  0  0  0  0  0  0  0  0  0  0
   -3.0917   -0.1870   -1.5226 H   0  0  0  0  0  0  0  0  0  0  0  0
    2.9627   -0.8714   -0.4198 N   0  0  0  0  0  0  0  0  0  0  0  0
    4.3661   -0.6052   -0.6265 C   0  0  2  0  0  0  0  0  0  0  0  0
    4.6499   -0.7104   -2.1191 C   0  0  0  0  0  0  0  0  0  0  0  0
    3.9381   -1.3457   -2.8941 O   0  0  0  0  0  0  0  0  0  0  0  0
    5.2348   -1.5732    0.1615 C   0  0  0  0  0  0  0  0  0  0  0  0
    2.3996   -0.1565    0.0315 H   0  0  0  0  0  0  0  0  0  0  0  0
    4.5458    0.4222   -0.2915 H   0  0  0  0  0  0  0  0  0  0  0  0
    5.0685   -2.6078   -0.1602 H   0  0  0  0  0  0  0  0  0  0  0  0
    6.2986   -1.3520    0.0262 H   0  0  0  0  0  0  0  0  0  0  0  0
    5.0083   -1.5175    1.2318 H   0  0  0  0  0  0  0  0  0  0  0  0
    5.8154   -0.0471   -2.4767 N   0  0  0  0  0  0  0  0  0  0  0  0
    6.3066   -0.0110   -3.8344 C   0  0  0  0  0  0  0  0  0  0  0  0
    6.3327    0.4696   -1.7716 H   0  0  0  0  0  0  0  0  0  0  0  0
    7.0124   -0.8400   -3.9917 H   0  0  0  0  0  0  0  0  0  0  0  0
    5.4624   -0.1110   -4.5325 H   0  0  0  0  0  0  0  0  0  0  0  0
    6.8192    0.9457   -4.0135 H   0  0  0  0  0  0  0  0  0  0  0  0
  1  3  1  0  0  0  0
  1  7  1  0  0  0  0
  1  2  2  0  0  0  0
 21 22  1  0  0  0  0
 22 24  1  0  0  0  0
 22 23  2  0  0  0  0
 32 33  1  0  0  0  0
 33 41  1  0  0  0  0
 33 34  2  0  0  0  0
  8  9  1  0  0  0  0
  9 17  1  0  0  0  0
  9 10  2  0  0  0  0
 18 19  1  0  0  0  0
 19 31  1  0  0  0  0
 19 20  2  0  0  0  0
 32 35  1  0  0  0  0
  8 11  1  0  0  0  0
 41 42  1  0  0  0  0
 18 21  1  0  0  0  0
 31 32  1  0  0  0  0
  7  8  1  0  0  0  0
 17 18  1  0  0  0  0
  3  4  1  0  0  0  0
  3  5  1  0  0  0  0
  3  6  1  0  0  0  0
 35 38  1  0  0  0  0
 35 39  1  0  0  0  0
 35 40  1  0  0  0  0
 11 14  1  0  0  0  0
 11 15  1  0  0  0  0
 11 16  1  0  0  0  0
 42 44  1  0  0  0  0
 42 45  1  0  0  0  0
 42 46  1  0  0  0  0
 21 27  1  0  0  0  0
 21 28  1  0  0  0  0
 32 37  1  0  0  0  0
  8 13  1  0  0  0  0
 18 26  1  0  0  0  0
 24 29  1  0  0  0  0
 24 30  1  0  0  0  0
 41 43  1  0  0  0  0
  7 12  1  0  0  0  0
 31 36  1  0  0  0  0
 17 25  1  0  0  0  0
M  END
$$$$

  -OEChem-05262214473D

 46 45  0     1  0  0  0  0  0999 V2000
   -0.0543    1.9736    3.8406 C   0  0  0  0  0  0  0  0  0  0  0  0
    0.6744    1.6099    4.7562 O   0  0  0  0  0  0  0  0  0  0  0  0
   -0.5599    3.3779    3.8160 C   0  0  0  0  0  0  0  0  0  0  0  0
   -1.5202    3.4885    4.3450 H   0  0  0  0  0  0  0  0  0  0  0  0
    0.1282    4.0814    4.3116 H   0  0  0  0  0  0  0  0  0  0  0  0
   -0.7317    3.7994    2.8126 H   0  0  0  0  0  0  0  0  0  0  0  0
   -0.4812    1.1968    2.7762 N   0  0  0  0  0  0  0  0  0  0  0  0
   -0.1106   -0.1834    2.6051 C   0  0  2  0  0  0  0  0  0  0  0  0
   -0.0696   -0.4775    1.1113 C   0  0  0  0  0  0  0  0  0  0  0  0
   -0.6805    0.1900    0.2792 O   0  0  0  0  0  0  0  0  0  0  0  0
   -1.0852   -1.1101    3.3150 C   0  0  0  0  0  0  0  0  0  0  0  0
   -1.0883    1.6241    2.0791 H   0  0  0  0  0  0  0  0  0  0  0  0
    0.8937   -0.2959    3.0277 H   0  0  0  0  0  0  0  0  0  0  0  0
   -2.0970   -1.0114    2.9051 H   0  0  0  0  0  0  0  0  0  0  0  0
   -0.7860   -2.1580    3.2078 H   0  0  0  0  0  0  0  0  0  0  0  0
   -1.1357   -0.8775    4.3842 H   0  0  0  0  0  0  0  0  0  0  0  0
    0.6950   -1.6003    0.8178 N   0  0  0  0  0  0  0  0  0  0  0  0
    0.8777   -2.0908   -0.5246 C   0  0  2  0  0  0  0  0  0  0  0  0
    2.3707   -2.0589   -0.8263 C   0  0  0  0  0  0  0  0  0  0  0  0
    2.9112   -2.8227   -1.6237 O   0  0  0  0  0  0  0  0  0  0  0  0
    0.1039   -1.2567   -1.5459 C   0  0  0  0  0  0  0  0  0  0  0  0
   -1.4006   -1.4374   -1.4478 C   0  0  0  0  0  0  0  0  0  0  0  0
   -1.9539   -2.5198   -1.2780 O   0  0  0  0  0  0  0  0  0  0  0  0
   -2.0791   -0.2428   -1.5659 N   0  0  0  0  0  0  0  0  0  0  0  0
    1.1810   -2.0803    1.5718 H   0  0  0  0  0  0  0  0  0  0  0  0
    0.5365   -3.1326   -0.5256 H   0  0  0  0  0  0  0  0  0  0  0  0
    0.3104   -0.1891   -1.3988 H   0  0  0  0  0  0  0  0  0  0  0  0
    0.4190   -1.5089   -2.5666 H   0  0  0  0  0  0  0  0  0  0  0  0
   -1.5794    0.6296   -1.7020 H   0  0  0  0  0  0  0  0  0  0  0  0
   -3.0917   -0.1870   -1.5226 H   0  0  0  0  0  0  0  0  0  0  0  0
    3.0231   -1.0449   -0.1392 N   0  0  0  0  0  0  0  0  0  0  0  0
    4.4387   -0.8063   -0.2885 C   0  0  2  0  0  0  0  0  0  0  0  0
    4.7184   -0.5435   -1.7623 C   0  0  0  0  0  0  0  0  0  0  0  0
    3.9755   -0.9245   -2.6645 O   0  0  0  0  0  0  0  0  0  0  0  0
    5.2550   -1.9853    0.2178 C   0  0  0  0  0  0  0  0  0  0  0  0
    2.4974   -0.4405    0.4853 H   0  0  0  0  0  0  0  0  0  0  0  0
    4.6712    0.0920    0.2938 H   0  0  0  0  0  0  0  0  0  0  0  0
    5.0355   -2.8946   -0.3536 H   0  0  0  0  0  0  0  0  0  0  0  0
    6.3290   -1.7910    0.1303 H   0  0  0  0  0  0  0  0  0  0  0  0
    5.0304   -2.1916    1.2699 H   0  0  0  0  0  0  0  0  0  0  0  0
    5.9172    0.1291   -1.9542 N   0  0  0  0  0  0  0  0  0  0  0  0
    6.4113    0.4836   -3.2642 C   0  0  0  0  0  0  0  0  0  0  0  0
    6.4599    0.4230   -1.1474 H   0  0  0  0  0  0  0  0  0  0  0  0
    7.0732   -0.3129   -3.6349 H   0  0  0  0  0  0  0  0  0  0  0  0
    5.5639    0.6069   -3.9545 H   0  0  0  0  0  0  0  0  0  0  0  0
    6.9731    1.4272   -3.2010 H   0  0  0  0  0  0  0  0  0  0  0  0
  1  3  1  0  0  0  0
  1  7  1  0  0  0  0
  1  2  2  0  0  0  0
 21 22  1  0  0  0  0
 22 24  1  0  0  0  0
 22 23  2  0  0  0  0
 32 33  1  0  0  0  0
 33 41  1  0  0  0  0
 33 34  2  0  0  0  0
  8  9  1  0  0  0  0
  9 17  1  0  0  0  0
  9 10  2  0  0  0  0
 18 19  1  0  0  0  0
 19 31  1  0  0  0  0
 19 20  2  0  0  0  0
 32 35  1  0  0  0  0
  8 11  1  0  0  0  0
 41 42  1  0  0  0  0
 18 21  1  0  0  0  0
 31 32  1  0  0  0  0
  7  8  1  0  0  0  0
 17 18  1  0  0  0  0
  3  4  1  0  0  0  0
  3  5  1  0  0  0  0
  3  6  1  0  0  0  0
 35 38  1  0  0  0  0
 35 39  1  0  0  0  0
 35 40  1  0  0  0  0
 11 14  1  0  0  0  0
 11 15  1  0  0  0  0
 11 16  1  0  0  0  0
 42 44  1  0  0  0  0
 42 45  1  0  0  0  0
 42 46  1  0  0  0  0
 21 27  1  0  0  0  0
 21 28  1  0  0  0  0
 32 37  1  0  0  0  0
  8 13  1  0  0  0  0
 18 26  1  0  0  0  0
 24 29  1  0  0  0  0
 24 30  1  0  0  0  0
 41 43  1  0  0  0  0
  7 12  1  0  0  0  0
 31 36  1  0  0  0  0
 17 25  1  0  0  0  0
M  END
$$$$

  -OEChem-05262214473D

 46 45  0     1  0  0  0  0  0999 V2000
   -0.0543    1.9736    3.8406 C   0  0  0  0  0  0  0  0  0  0  0  0
    0.6744    1.6099    4.7562 O   0  0  0  0  0  0  0  0  0  0  0  0
   -0.5599    3.3779    3.8160 C   0  0  0  0  0  0  0  0  0  0  0  0
   -1.5202    3.4885    4.3450 H   0  0  0  0  0  0  0  0  0  0  0  0
    0.1282    4.0814    4.3116 H   0  0  0  0  0  0  0  0  0  0  0  0
   -0.7317    3.7994    2.8126 H   0  0  0  0  0  0  0  0  0  0  0  0
   -0.4812    1.1968    2.7762 N   0  0  0  0  0  0  0  0  0  0  0  0
   -0.1106   -0.1834    2.6051 C   0  0  2  0  0  0  0  0  0  0  0  0
   -0.0696   -0.4775    1.1113 C   0  0  0  0  0  0  0  0  0  0  0  0
   -0.6805    0.1900    0.2792 O   0  0  0  0  0  0  0  0  0  0  0  0
   -1.0852   -1.1101    3.3150 C   0  0  0  0  0  0  0  0  0  0  0  0
   -1.0883    1.6241    2.0791 H   0  0  0  0  0  0  0  0  0  0  0  0
    0.8937   -0.2959    3.0277 H   0  0  0  0  0  0  0  0  0  0  0  0
   -2.0970   -1.0114    2.9051 H   0  0  0  0  0  0  0  0  0  0  0  0
   -0.7860   -2.1580    3.2078 H   0  0  0  0  0  0  0  0  0  0  0  0
   -1.1357   -0.8775    4.3842 H   0  0  0  0  0  0  0  0  0  0  0  0
    0.6950   -1.6003    0.8178 N   0  0  0  0  0  0  0  0  0  0  0  0
    0.8777   -2.0908   -0.5246 C   0  0  2  0  0  0  0  0  0  0  0  0
    2.3707   -2.0589   -0.8263 C   0  0  0  0  0  0  0  0  0  0  0  0
    2.8717   -2.6217   -1.7978 O   0  0  0  0  0  0  0  0  0  0  0  0
    0.1039   -1.2567   -1.5459 C   0  0  0  0  0  0  0  0  0  0  0  0
   -1.4006   -1.4374   -1.4478 C   0  0  0  0  0  0  0  0  0  0  0  0
   -1.9539   -2.5198   -1.2780 O   0  0  0  0  0  0  0  0  0  0  0  0
   -2.0791   -0.2428   -1.5659 N   0  0  0  0  0  0  0  0  0  0  0  0
    1.1810   -2.0803    1.5718 H   0  0  0  0  0  0  0  0  0  0  0  0
    0.5365   -3.1326   -0.5256 H   0  0  0  0  0  0  0  0  0  0  0  0
    0.3104   -0.1891   -1.3988 H   0  0  0  0  0  0  0  0  0  0  0  0
    0.4190   -1.5089   -2.5666 H   0  0  0  0  0  0  0  0  0  0  0  0
   -1.5794    0.6296   -1.7020 H   0  0  0  0  0  0  0  0  0  0  0  0
   -3.0917   -0.1870   -1.5226 H   0  0  0  0  0  0  0  0  0  0  0  0
    3.0741   -1.2868    0.0875 N   0  0  0  0  0  0  0  0  0  0  0  0
    4.5003   -1.0900   -0.0135 C   0  0  2  0  0  0  0  0  0  0  0  0
    4.7951   -0.4763   -1.3758 C   0  0  0  0  0  0  0  0  0  0  0  0
    4.0344   -0.5778   -2.3361 O   0  0  0  0  0  0  0  0  0  0  0  0
    5.2537   -2.3986    0.1676 C   0  0  0  0  0  0  0  0  0  0  0  0
    2.5797   -0.8349    0.8511 H   0  0  0  0  0  0  0  0  0  0  0  0
    4.7785   -0.3819    0.7747 H   0  0  0  0  0  0  0  0  0  0  0  0
    4.9880   -3.1208   -0.6130 H   0  0  0  0  0  0  0  0  0  0  0  0
    6.3365   -2.2431    0.1192 H   0  0  0  0  0  0  0  0  0  0  0  0
    5.0174   -2.8536    1.1356 H   0  0  0  0  0  0  0  0  0  0  0  0
    6.0275    0.1614   -1.4053 N   0  0  0  0  0  0  0  0  0  0  0  0
    6.5409    0.8114   -2.5885 C   0  0  0  0  0  0  0  0  0  0  0  0
    6.5837    0.2132   -0.5569 H   0  0  0  0  0  0  0  0  0  0  0  0
    7.1609    0.1026   -3.1570 H   0  0  0  0  0  0  0  0  0  0  0  0
    5.7018    1.1485   -3.2148 H   0  0  0  0  0  0  0  0  0  0  0  0
    7.1508    1.6784   -2.2950 H   0  0  0  0  0  0  0  0  0  0  0  0
  1  3  1  0  0  0  0
  1  7  1  0  0  0  0
  1  2  2  0  0  0  0
 21 22  1  0  0  0  0
 22 24  1  0  0  0  0
 22 23  2  0  0  0  0
 32 33  1  0  0  0  0
 33 41  1  0  0  0  0
 33 34  2  0  0  0  0
  8  9  1  0  0  0  0
  9 17  1  0  0  0  0
  9 10  2  0  0  0  0
 18 19  1  0  0  0  0
 19 31  1  0  0  0  0
 19 20  2  0  0  0  0
 32 35  1  0  0  0  0
  8 11  1  0  0  0  0
 41 42  1  0  0  0  0
 18 21  1  0  0  0  0
 31 32  1  0  0  0  0
  7  8  1  0  0  0  0
 17 18  1  0  0  0  0
  3  4  1  0  0  0  0
  3  5  1  0  0  0  0
  3  6  1  0  0  0  0
 35 38  1  0  0  0  0
 35 39  1  0  0  0  0
 35 40  1  0  0  0  0
 11 14  1  0  0  0  0
 11 15  1  0  0  0  0
 11 16  1  0  0  0  0
 42 44  1  0  0  0  0
 42 45  1  0  0  0  0
 42 46  1  0  0  0  0
 21 27  1  0  0  0  0
 21 28  1  0  0  0  0
 32 37  1  0  0  0  0
  8 13  1  0  0  0  0
 18 26  1  0  0  0  0
 24 29  1  0  0  0  0
 24 30  1  0  0  0  0
 41 43  1  0  0  0  0
  7 12  1  0  0  0  0
 31 36  1  0  0  0  0
 17 25  1  0  0  0  0
M  END
$$$$

  -OEChem-05262214473D

 46 45  0     1  0  0  0  0  0999 V2000
   -0.0543    1.9736    3.8406 C   0  0  0  0  0  0  0  0  0  0  0  0
    0.6744    1.6099    4.7562 O   0  0  0  0  0  0  0  0  0  0  0  0
   -0.5599    3.3779    3.8160 C   0  0  0  0  0  0  0  0  0  0  0  0
   -1.5202    3.4885    4.3450 H   0  0  0  0  0  0  0  0  0  0  0  0
    0.1282    4.0814    4.3116 H   0  0  0  0  0  0  0  0  0  0  0  0
   -0.7317    3.7994    2.8126 H   0  0  0  0  0  0  0  0  0  0  0  0
   -0.4812    1.1968    2.7762 N   0  0  0  0  0  0  0  0  0  0  0  0
   -0.1106   -0.1834    2.6051 C   0  0  2  0  0  0  0  0  0  0  0  0
   -0.0696   -0.4775    1.1113 C   0  0  0  0  0  0  0  0  0  0  0  0
   -0.6805    0.1900    0.2792 O   0  0  0  0  0  0  0  0  0  0  0  0
   -1.0852   -1.1101    3.3150 C   0  0  0  0  0  0  0  0  0  0  0  0
   -1.0883    1.6241    2.0791 H   0  0  0  0  0  0  0  0  0  0  0  0
    0.8937   -0.2959    3.0277 H   0  0  0  0  0  0  0  0  0  0  0  0
   -2.0970   -1.0114    2.9051 H   0  0  0  0  0  0  0  0  0  0  0  0
   -0.7860   -2.1580    3.2078 H   0  0  0  0  0  0  0  0  0  0  0  0
   -1.1357   -0.8775    4.3842 H   0  0  0  0  0  0  0  0  0  0  0  0
    0.6950   -1.6003    0.8178 N   0  0  0  0  0  0  0  0  0  0  0  0
    0.8777   -2.0908   -0.5246 C   0  0  2  0  0  0  0  0  0  0  0  0
    2.3707   -2.0589   -0.8263 C   0  0  0  0  0  0  0  0  0  0  0  0
    2.8430   -2.3813   -1.9147 O   0  0  0  0  0  0  0  0  0  0  0  0
    0.1039   -1.2567   -1.5459 C   0  0  0  0  0  0  0  0  0  0  0  0
   -1.4006   -1.4374   -1.4478 C   0  0  0  0  0  0  0  0  0  0  0  0
   -1.9539   -2.5198   -1.2780 O   0  0  0  0  0  0  0  0  0  0  0  0
   -2.0791   -0.2428   -1.5659 N   0  0  0  0  0  0  0  0  0  0  0  0
    1.1810   -2.0803    1.5718 H   0  0  0  0  0  0  0  0  0  0  0  0
    0.5365   -3.1326   -0.5256 H   0  0  0  0  0  0  0  0  0  0  0  0
    0.3104   -0.1891   -1.3988 H   0  0  0  0  0  0  0  0  0  0  0  0
    0.4190   -1.5089   -2.5666 H   0  0  0  0  0  0  0  0  0  0  0  0
   -1.5794    0.6296   -1.7020 H   0  0  0  0  0  0  0  0  0  0  0  0
   -3.0917   -0.1870   -1.5226 H   0  0  0  0  0  0  0  0  0  0  0  0
    3.1122   -1.5806    0.2448 N   0  0  0  0  0  0  0  0  0  0  0  0
    4.5468   -1.4370    0.1799 C   0  0  2  0  0  0  0  0  0  0  0  0
    4.8747   -0.5133   -0.9858 C   0  0  0  0  0  0  0  0  0  0  0  0
    4.1110   -0.3293   -1.9312 O   0  0  0  0  0  0  0  0  0  0  0  0
    5.2309   -2.7851    0.0143 C   0  0  0  0  0  0  0  0  0  0  0  0
    2.6410   -1.3128    1.1040 H   0  0  0  0  0  0  0  0  0  0  0  0
    4.8605   -0.9670    1.1184 H   0  0  0  0  0  0  0  0  0  0  0  0
    4.9290   -3.2711   -0.9206 H   0  0  0  0  0  0  0  0  0  0  0  0
    6.3204   -2.6773   -0.0062 H   0  0  0  0  0  0  0  0  0  0  0  0
    4.9702   -3.4582    0.8381 H   0  0  0  0  0  0  0  0  0  0  0  0
    6.1386    0.0478   -0.8675 N   0  0  0  0  0  0  0  0  0  0  0  0
    6.6865    0.9499   -1.8534 C   0  0  0  0  0  0  0  0  0  0  0  0
    6.6958   -0.1456   -0.0405 H   0  0  0  0  0  0  0  0  0  0  0  0
    7.2696    0.3782   -2.5904 H   0  0  0  0  0  0  0  0  0  0  0  0
    5.8668    1.4769   -2.3636 H   0  0  0  0  0  0  0  0  0  0  0  0
    7.3403    1.6821   -1.3570 H   0  0  0  0  0  0  0  0  0  0  0  0
  1  3  1  0  0  0  0
  1  7  1  0  0  0  0
  1  2  2  0  0  0  0
 21 22  1  0  0  0  0
 22 24  1  0  0  0  0
 22 23  2  0  0  0  0
 32 33  1  0  0  0  0
 33 41  1  0  0  0  0
 33 34  2  0  0  0  0
  8  9  1  0  0  0  0
  9 17  1  0  0  0  0
  9 10  2  0  0  0  0
 18 19  1  0  0  0  0
 19 31  1  0  0  0  0
 19 20  2  0  0  0  0
 32 35  1  0  0  0  0
  8 11  1  0  0  0  0
 41 42  1  0  0  0  0
 18 21  1  0  0  0  0
 31 32  1  0  0  0  0
  7  8  1  0  0  0  0
 17 18  1  0  0  0  0
  3  4  1  0  0  0  0
  3  5  1  0  0  0  0
  3  6  1  0  0  0  0
 35 38  1  0  0  0  0
 35 39  1  0  0  0  0
 35 40  1  0  0  0  0
 11 14  1  0  0  0  0
 11 15  1  0  0  0  0
 11 16  1  0  0  0  0
 42 44  1  0  0  0  0
 42 45  1  0  0  0  0
 42 46  1  0  0  0  0
 21 27  1  0  0  0  0
 21 28  1  0  0  0  0
 32 37  1  0  0  0  0
  8 13  1  0  0  0  0
 18 26  1  0  0  0  0
 24 29  1  0  0  0  0
 24 30  1  0  0  0  0
 41 43  1  0  0  0  0
  7 12  1  0  0  0  0
 31 36  1  0  0  0  0
 17 25  1  0  0  0  0
M  END
$$$$

  -OEChem-05262214473D

 46 45  0     1  0  0  0  0  0999 V2000
   -0.0543    1.9736    3.8406 C   0  0  0  0  0  0  0  0  0  0  0  0
    0.6744    1.6099    4.7562 O   0  0  0  0  0  0  0  0  0  0  0  0
   -0.5599    3.3779    3.8160 C   0  0  0  0  0  0  0  0  0  0  0  0
   -1.5202    3.4885    4.3450 H   0  0  0  0  0  0  0  0  0  0  0  0
    0.1282    4.0814    4.3116 H   0  0  0  0  0  0  0  0  0  0  0  0
   -0.7317    3.7994    2.8126 H   0  0  0  0  0  0  0  0  0  0  0  0
   -0.4812    1.1968    2.7762 N   0  0  0  0  0  0  0  0  0  0  0  0
   -0.1106   -0.1834    2.6051 C   0  0  2  0  0  0  0  0  0  0  0  0
   -0.0696   -0.4775    1.1113 C   0  0  0  0  0  0  0  0  0  0  0  0
   -0.6805    0.1900    0.2792 O   0  0  0  0  0  0  0  0  0  0  0  0
   -1.0852   -1.1101    3.3150 C   0  0  0  0  0  0  0  0  0  0  0  0
   -1.0883    1.6241    2.0791 H   0  0  0  0  0  0  0  0  0  0  0  0
    0.8937   -0.2959    3.0277 H   0  0  0  0  0  0  0  0  0  0  0  0
   -2.0970   -1.0114    2.9051 H   0  0  0  0  0  0  0  0  0  0  0  0
   -0.7860   -2.1580    3.2078 H   0  0  0  0  0  0  0  0  0  0  0  0
   -1.1357   -0.8775    4.3842 H   0  0  0  0  0  0  0  0  0  0  0  0
    0.6950   -1.6003    0.8178 N   0  0  0  0  0  0  0  0  0  0  0  0
    0.8777   -2.0908   -0.5246 C   0  0  2  0  0  0  0  0  0  0  0  0
    2.3707   -2.0589   -0.8263 C   0  0  0  0  0  0  0  0  0  0  0  0
    2.8269   -2.1180   -1.9664 O   0  0  0  0  0  0  0  0  0  0  0  0
    0.1039   -1.2567   -1.5459 C   0  0  0  0  0  0  0  0  0  0  0  0
   -1.4006   -1.4374   -1.4478 C   0  0  0  0  0  0  0  0  0  0  0  0
   -1.9539   -2.5198   -1.2780 O   0  0  0  0  0  0  0  0  0  0  0  0
   -2.0791   -0.2428   -1.5659 N   0  0  0  0  0  0  0  0  0  0  0  0
    1.1810   -2.0803    1.5718 H   0  0  0  0  0  0  0  0  0  0  0  0
    0.5365   -3.1326   -0.5256 H   0  0  0  0  0  0  0  0  0  0  0  0
    0.3104   -0.1891   -1.3988 H   0  0  0  0  0  0  0  0  0  0  0  0
    0.4190   -1.5089   -2.5666 H   0  0  0  0  0  0  0  0  0  0  0  0
   -1.5794    0.6296   -1.7020 H   0  0  0  0  0  0  0  0  0  0  0  0
   -3.0917   -0.1870   -1.5226 H   0  0  0  0  0  0  0  0  0  0  0  0
    3.1347   -1.9062    0.3221 N   0  0  0  0  0  0  0  0  0  0  0  0
    4.5750   -1.8236    0.2784 C   0  0  2  0  0  0  0  0  0  0  0  0
    4.9519   -0.6521   -0.6189 C   0  0  0  0  0  0  0  0  0  0  0  0
    4.1998   -0.1958   -1.4775 O   0  0  0  0  0  0  0  0  0  0  0  0
    5.1883   -3.1183   -0.2317 C   0  0  0  0  0  0  0  0  0  0  0  0
    2.6771   -1.8418    1.2266 H   0  0  0  0  0  0  0  0  0  0  0  0
    4.9115   -1.6236    1.3016 H   0  0  0  0  0  0  0  0  0  0  0  0
    4.8626   -3.3353   -1.2556 H   0  0  0  0  0  0  0  0  0  0  0  0
    6.2820   -3.0641   -0.2373 H   0  0  0  0  0  0  0  0  0  0  0  0
    4.8920   -3.9644    0.3976 H   0  0  0  0  0  0  0  0  0  0  0  0
    6.2430   -0.2040   -0.3774 N   0  0  0  0  0  0  0  0  0  0  0  0
    6.8382    0.8899   -1.1090 C   0  0  0  0  0  0  0  0  0  0  0  0
    6.7884   -0.6289    0.3667 H   0  0  0  0  0  0  0  0  0  0  0  0
    7.3917    0.4952   -1.9738 H   0  0  0  0  0  0  0  0  0  0  0  0
    6.0476    1.5699   -1.4591 H   0  0  0  0  0  0  0  0  0  0  0  0
    7.5286    1.4381   -0.4511 H   0  0  0  0  0  0  0  0  0  0  0  0
  1  3  1  0  0  0  0
  1  7  1  0  0  0  0
  1  2  2  0  0  0  0
 21 22  1  0  0  0  0
 22 24  1  0  0  0  0
 22 23  2  0  0  0  0
 32 33  1  0  0  0  0
 33 41  1  0  0  0  0
 33 34  2  0  0  0  0
  8  9  1  0  0  0  0
  9 17  1  0  0  0  0
  9 10  2  0  0  0  0
 18 19  1  0  0  0  0
 19 31  1  0  0  0  0
 19 20  2  0  0  0  0
 32 35  1  0  0  0  0
  8 11  1  0  0  0  0
 41 42  1  0  0  0  0
 18 21  1  0  0  0  0
 31 32  1  0  0  0  0
  7  8  1  0  0  0  0
 17 18  1  0  0  0  0
  3  4  1  0  0  0  0
  3  5  1  0  0  0  0
  3  6  1  0  0  0  0
 35 38  1  0  0  0  0
 35 39  1  0  0  0  0
 35 40  1  0  0  0  0
 11 14  1  0  0  0  0
 11 15  1  0  0  0  0
 11 16  1  0  0  0  0
 42 44  1  0  0  0  0
 42 45  1  0  0  0  0
 42 46  1  0  0  0  0
 21 27  1  0  0  0  0
 21 28  1  0  0  0  0
 32 37  1  0  0  0  0
  8 13  1  0  0  0  0
 18 26  1  0  0  0  0
 24 29  1  0  0  0  0
 24 30  1  0  0  0  0
 41 43  1  0  0  0  0
  7 12  1  0  0  0  0
 31 36  1  0  0  0  0
 17 25  1  0  0  0  0
M  END
$$$$

  -OEChem-05262214473D

 46 45  0     1  0  0  0  0  0999 V2000
   -0.0543    1.9736    3.8406 C   0  0  0  0  0  0  0  0  0  0  0  0
    0.6744    1.6099    4.7562 O   0  0  0  0  0  0  0  0  0  0  0  0
   -0.5599    3.3779    3.8160 C   0  0  0  0  0  0  0  0  0  0  0  0
   -1.5202    3.4885    4.3450 H   0  0  0  0  0  0  0  0  0  0  0  0
    0.1282    4.0814    4.3116 H   0  0  0  0  0  0  0  0  0  0  0  0
   -0.7317    3.7994    2.8126 H   0  0  0  0  0  0  0  0  0  0  0  0
   -0.4812    1.1968    2.7762 N   0  0  0  0  0  0  0  0  0  0  0  0
   -0.1106   -0.1834    2.6051 C   0  0  2  0  0  0  0  0  0  0  0  0
   -0.0696   -0.4775    1.1113 C   0  0  0  0  0  0  0  0  0  0  0  0
   -0.6805    0.1900    0.2792 O   0  0  0  0  0  0  0  0  0  0  0  0
   -1.0852   -1.1101    3.3150 C   0  0  0  0  0  0  0  0  0  0  0  0
   -1.0883    1.6241    2.0791 H   0  0  0  0  0  0  0  0  0  0  0  0
    0.8937   -0.2959    3.0277 H   0  0  0  0  0  0  0  0  0  0  0  0
   -2.0970   -1.0114    2.9051 H   0  0  0  0  0  0  0  0  0  0  0  0
   -0.7860   -2.1580    3.2078 H   0  0  0  0  0  0  0  0  0  0  0  0
   -1.1357   -0.8775    4.3842 H   0  0  0  0  0  0  0  0  0  0  0  0
    0.6950   -1.6003    0.8178 N   0  0  0  0  0  0  0  0  0  0  0  0
    0.8777   -2.0908   -0.5246 C   0  0  2  0  0  0  0  0  0  0  0  0
    2.3707   -2.0589   -0.8263 C   0  0  0  0  0  0  0  0  0  0  0  0
    2.8246   -1.8498   -1.9496 O   0  0  0  0  0  0  0  0  0  0  0  0
    0.1039   -1.2567   -1.5459 C   0  0  0  0  0  0  0  0  0  0  0  0
   -1.4006   -1.4374   -1.4478 C   0  0  0  0  0  0  0  0  0  0  0  0
   -1.9539   -2.5198   -1.2780 O   0  0  0  0  0  0  0  0  0  0  0  0
   -2.0791   -0.2428   -1.5659 N   0  0  0  0  0  0  0  0  0  0  0  0
    1.1810   -2.0803    1.5718 H   0  0  0  0  0  0  0  0  0  0  0  0
    0.5365   -3.1326   -0.5256 H   0  0  0  0  0  0  0  0  0  0  0  0
    0.3104   -0.1891   -1.3988 H   0  0  0  0  0  0  0  0  0  0  0  0
    0.4190   -1.5089   -2.5666 H   0  0  0  0  0  0  0  0  0  0  0  0
   -1.5794    0.6296   -1.7020 H   0  0  0  0  0  0  0  0  0  0  0  0
   -3.0917   -0.1870   -1.5226 H   0  0  0  0  0  0  0  0  0  0  0  0
    3.1403   -2.2415    0.3140 N   0  0  0  0  0  0  0  0  0  0  0  0
    4.5829   -2.2234    0.2754 C   0  0  2  0  0  0  0  0  0  0  0  0
    5.0212   -0.8832   -0.3002 C   0  0  0  0  0  0  0  0  0  0  0  0
    4.2949   -0.1865   -1.0060 O   0  0  0  0  0  0  0  0  0  0  0  0
    5.1288   -3.3756   -0.5537 C   0  0  0  0  0  0  0  0  0  0  0  0
    2.6856   -2.3856    1.2108 H   0  0  0  0  0  0  0  0  0  0  0  0
    4.9281   -2.3069    1.3116 H   0  0  0  0  0  0  0  0  0  0  0  0
    4.7935   -3.3088   -1.5951 H   0  0  0  0  0  0  0  0  0  0  0  0
    6.2237   -3.3771   -0.5584 H   0  0  0  0  0  0  0  0  0  0  0  0
    4.7881   -4.3376   -0.1558 H   0  0  0  0  0  0  0  0  0  0  0  0
    6.3336   -0.5769    0.0315 N   0  0  0  0  0  0  0  0  0  0  0  0
    6.9858    0.6353   -0.4060 C   0  0  0  0  0  0  0  0  0  0  0  0
    6.8553   -1.2037    0.6370 H   0  0  0  0  0  0  0  0  0  0  0  0
    7.5190    0.4455   -1.3492 H   0  0  0  0  0  0  0  0  0  0  0  0
    6.2320    1.4209   -0.5627 H   0  0  0  0  0  0  0  0  0  0  0  0
    7.7029    0.9630    0.3610 H   0  0  0  0  0  0  0  0  0  0  0  0
  1  3  1  0  0  0  0
  1  7  1  0  0  0  0
  1  2  2  0  0  0  0
 21 22  1  0  0  0  0
 22 24  1  0  0  0  0
 22 23  2  0  0  0  0
 32 33  1  0  0  0  0
 33 41  1  0  0  0  0
 33 34  2  0  0  0  0
  8  9  1  0  0  0  0
  9 17  1  0  0  0  0
  9 10  2  0  0  0  0
 18 19  1  0  0  0  0
 19 31  1  0  0  0  0
 19 20  2  0  0  0  0
 32 35  1  0  0  0  0
  8 11  1  0  0  0  0
 41 42  1  0  0  0  0
 18 21  1  0  0  0  0
 31 32  1  0  0  0  0
  7  8  1  0  0  0  0
 17 18  1  0  0  0  0
  3  4  1  0  0  0  0
  3  5  1  0  0  0  0
  3  6  1  0  0  0  0
 35 38  1  0  0  0  0
 35 39  1  0  0  0  0
 35 40  1  0  0  0  0
 11 14  1  0  0  0  0
 11 15  1  0  0  0  0
 11 16  1  0  0  0  0
 42 44  1  0  0  0  0
 42 45  1  0  0  0  0
 42 46  1  0  0  0  0
 21 27  1  0  0  0  0
 21 28  1  0  0  0  0
 32 37  1  0  0  0  0
  8 13  1  0  0  0  0
 18 26  1  0  0  0  0
 24 29  1  0  0  0  0
 24 30  1  0  0  0  0
 41 43  1  0  0  0  0
  7 12  1  0  0  0  0
 31 36  1  0  0  0  0
 17 25  1  0  0  0  0
M  END
$$$$

  -OEChem-05262214473D

 46 45  0     1  0  0  0  0  0999 V2000
   -0.0543    1.9736    3.8406 C   0  0  0  0  0  0  0  0  0  0  0  0
    0.6744    1.6099    4.7562 O   0  0  0  0  0  0  0  0  0  0  0  0
   -0.5599    3.3779    3.8160 C   0  0  0  0  0  0  0  0  0  0  0  0
   -1.5202    3.4885    4.3450 H   0  0  0  0  0  0  0  0  0  0  0  0
    0.1282    4.0814    4.3116 H   0  0  0  0  0  0  0  0  0  0  0  0
   -0.7317    3.7994    2.8126 H   0  0  0  0  0  0  0  0  0  0  0  0
   -0.4812    1.1968    2.7762 N   0  0  0  0  0  0  0  0  0  0  0  0
   -0.1106   -0.1834    2.6051 C   0  0  2  0  0  0  0  0  0  0  0  0
   -0.0696   -0.4775    1.1113 C   0  0  0  0  0  0  0  0  0  0  0  0
   -0.6805    0.1900    0.2792 O   0  0  0  0  0  0  0  0  0  0  0  0
   -1.0852   -1.1101    3.3150 C   0  0  0  0  0  0  0  0  0  0  0  0
   -1.0883    1.6241    2.0791 H   0  0  0  0  0  0  0  0  0  0  0  0
    0.8937   -0.2959    3.0277 H   0  0  0  0  0  0  0  0  0  0  0  0
   -2.0970   -1.0114    2.9051 H   0  0  0  0  0  0  0  0  0  0  0  0
   -0.7860   -2.1580    3.2078 H   0  0  0  0  0  0  0  0  0  0  0  0
   -1.1357   -0.8775    4.3842 H   0  0  0  0  0  0  0  0  0  0  0  0
    0.6950   -1.6003    0.8178 N   0  0  0  0  0  0  0  0  0  0  0  0
    0.8777   -2.0908   -0.5246 C   0  0  2  0  0  0  0  0  0  0  0  0
    2.3707   -2.0589   -0.8263 C   0  0  0  0  0  0  0  0  0  0  0  0
    2.8361   -1.5948   -1.8653 O   0  0  0  0  0  0  0  0  0  0  0  0
    0.1039   -1.2567   -1.5459 C   0  0  0  0  0  0  0  0  0  0  0  0
   -1.4006   -1.4374   -1.4478 C   0  0  0  0  0  0  0  0  0  0  0  0
   -1.9539   -2.5198   -1.2780 O   0  0  0  0  0  0  0  0  0  0  0  0
   -2.0791   -0.2428   -1.5659 N   0  0  0  0  0  0  0  0  0  0  0  0
    1.1810   -2.0803    1.5718 H   0  0  0  0  0  0  0  0  0  0  0  0
    0.5365   -3.1326   -0.5256 H   0  0  0  0  0  0  0  0  0  0  0  0
    0.3104   -0.1891   -1.3988 H   0  0  0  0  0  0  0  0  0  0  0  0
    0.4190   -1.5089   -2.5666 H   0  0  0  0  0  0  0  0  0  0  0  0
   -1.5794    0.6296   -1.7020 H   0  0  0  0  0  0  0  0  0  0  0  0
   -3.0917   -0.1870   -1.5226 H   0  0  0  0  0  0  0  0  0  0  0  0
    3.1284   -2.5636    0.2211 N   0  0  0  0  0  0  0  0  0  0  0  0
    4.5701   -2.6092    0.1710 C   0  0  2  0  0  0  0  0  0  0  0  0
    5.0781   -1.1908   -0.0512 C   0  0  0  0  0  0  0  0  0  0  0  0
    4.3898   -0.3020   -0.5486 O   0  0  0  0  0  0  0  0  0  0  0  0
    5.0563   -3.5394   -0.9295 C   0  0  0  0  0  0  0  0  0  0  0  0
    2.6657   -2.9074    1.0575 H   0  0  0  0  0  0  0  0  0  0  0  0
    4.9092   -2.9704    1.1480 H   0  0  0  0  0  0  0  0  0  0  0  0
    4.7262   -3.1937   -1.9159 H   0  0  0  0  0  0  0  0  0  0  0  0
    6.1497   -3.5950   -0.9477 H   0  0  0  0  0  0  0  0  0  0  0  0
    4.6656   -4.5524   -0.7845 H   0  0  0  0  0  0  0  0  0  0  0  0
    6.4043   -1.0454    0.3314 N   0  0  0  0  0  0  0  0  0  0  0  0
    7.1190    0.2035    0.2077 C   0  0  0  0  0  0  0  0  0  0  0  0
    6.8919   -1.8310    0.7519 H   0  0  0  0  0  0  0  0  0  0  0  0
    7.6428    0.2326   -0.7592 H   0  0  0  0  0  0  0  0  0  0  0  0
    6.4073    1.0403    0.2643 H   0  0  0  0  0  0  0  0  0  0  0  0
    7.8513    0.2891    1.0240 H   0  0  0  0  0  0  0  0  0  0  0  0
  1  3  1  0  0  0  0
  1  7  1  0  0  0  0
  1  2  2  0  0  0  0
 21 22  1  0  0  0  0
 22 24  1  0  0  0  0
 22 23  2  0  0  0  0
 32 33  1  0  0  0  0
 33 41  1  0  0  0  0
 33 34  2  0  0  0  0
  8  9  1  0  0  0  0
  9 17  1  0  0  0  0
  9 10  2  0  0  0  0
 18 19  1  0  0  0  0
 19 31  1  0  0  0  0
 19 20  2  0  0  0  0
 32 35  1  0  0  0  0
  8 11  1  0  0  0  0
 41 42  1  0  0  0  0
 18 21  1  0  0  0  0
 31 32  1  0  0  0  0
  7  8  1  0  0  0  0
 17 18  1  0  0  0  0
  3  4  1  0  0  0  0
  3  5  1  0  0  0  0
  3  6  1  0  0  0  0
 35 38  1  0  0  0  0
 35 39  1  0  0  0  0
 35 40  1  0  0  0  0
 11 14  1  0  0  0  0
 11 15  1  0  0  0  0
 11 16  1  0  0  0  0
 42 44  1  0  0  0  0
 42 45  1  0  0  0  0
 42 46  1  0  0  0  0
 21 27  1  0  0  0  0
 21 28  1  0  0  0  0
 32 37  1  0  0  0  0
  8 13  1  0  0  0  0
 18 26  1  0  0  0  0
 24 29  1  0  0  0  0
 24 30  1  0  0  0  0
 41 43  1  0  0  0  0
  7 12  1  0  0  0  0
 31 36  1  0  0  0  0
 17 25  1  0  0  0  0
M  END
$$$$

  -OEChem-05262214473D

 46 45  0     1  0  0  0  0  0999 V2000
   -0.0543    1.9736    3.8406 C   0  0  0  0  0  0  0  0  0  0  0  0
    0.6744    1.6099    4.7562 O   0  0  0  0  0  0  0  0  0  0  0  0
   -0.5599    3.3779    3.8160 C   0  0  0  0  0  0  0  0  0  0  0  0
   -1.5202    3.4885    4.3450 H   0  0  0  0  0  0  0  0  0  0  0  0
    0.1282    4.0814    4.3116 H   0  0  0  0  0  0  0  0  0  0  0  0
   -0.7317    3.7994    2.8126 H   0  0  0  0  0  0  0  0  0  0  0  0
   -0.4812    1.1968    2.7762 N   0  0  0  0  0  0  0  0  0  0  0  0
   -0.1106   -0.1834    2.6051 C   0  0  2  0  0  0  0  0  0  0  0  0
   -0.0696   -0.4775    1.1113 C   0  0  0  0  0  0  0  0  0  0  0  0
   -0.6805    0.1900    0.2792 O   0  0  0  0  0  0  0  0  0  0  0  0
   -1.0852   -1.1101    3.3150 C   0  0  0  0  0  0  0  0  0  0  0  0
   -1.0883    1.6241    2.0791 H   0  0  0  0  0  0  0  0  0  0  0  0
    0.8937   -0.2959    3.0277 H   0  0  0  0  0  0  0  0  0  0  0  0
   -2.0970   -1.0114    2.9051 H   0  0  0  0  0  0  0  0  0  0  0  0
   -0.7860   -2.1580    3.2078 H   0  0  0  0  0  0  0  0  0  0  0  0
   -1.1357   -0.8775    4.3842 H   0  0  0  0  0  0  0  0  0  0  0  0
    0.6950   -1.6003    0.8178 N   0  0  0  0  0  0  0  0  0  0  0  0
    0.8777   -2.0908   -0.5246 C   0  0  2  0  0  0  0  0  0  0  0  0
    2.3707   -2.0589   -0.8263 C   0  0  0  0  0  0  0  0  0  0  0  0
    2.8609   -1.3705   -1.7192 O   0  0  0  0  0  0  0  0  0  0  0  0
    0.1039   -1.2567   -1.5459 C   0  0  0  0  0  0  0  0  0  0  0  0
   -1.4006   -1.4374   -1.4478 C   0  0  0  0  0  0  0  0  0  0  0  0
   -1.9539   -2.5198   -1.2780 O   0  0  0  0  0  0  0  0  0  0  0  0
   -2.0791   -0.2428   -1.5659 N   0  0  0  0  0  0  0  0  0  0  0  0
    1.1810   -2.0803    1.5718 H   0  0  0  0  0  0  0  0  0  0  0  0
    0.5365   -3.1326   -0.5256 H   0  0  0  0  0  0  0  0  0  0  0  0
    0.3104   -0.1891   -1.3988 H   0  0  0  0  0  0  0  0  0  0  0  0
    0.4190   -1.5089   -2.5666 H   0  0  0  0  0  0  0  0  0  0  0  0
   -1.5794    0.6296   -1.7020 H   0  0  0  0  0  0  0  0  0  0  0  0
   -3.0917   -0.1870   -1.5226 H   0  0  0  0  0  0  0  0  0  0  0  0
    3.0999   -2.8505    0.0498 N   0  0  0  0  0  0  0  0  0  0  0  0
    4.5373   -2.9548   -0.0276 C   0  0  2  0  0  0  0  0  0  0  0  0
    5.1186   -1.5539    0.1109 C   0  0  0  0  0  0  0  0  0  0  0  0
    4.4781   -0.5344   -0.1366 O   0  0  0  0  0  0  0  0  0  0  0  0
    4.9758   -3.5986   -1.3338 C   0  0  0  0  0  0  0  0  0  0  0  0
    2.6190   -3.3715    0.7772 H   0  0  0  0  0  0  0  0  0  0  0  0
    4.8561   -3.5687    0.8218 H   0  0  0  0  0  0  0  0  0  0  0  0
    4.6653   -2.9976   -2.1963 H   0  0  0  0  0  0  0  0  0  0  0  0
    6.0649   -3.7030   -1.3786 H   0  0  0  0  0  0  0  0  0  0  0  0
    4.5329   -4.5941   -1.4456 H   0  0  0  0  0  0  0  0  0  0  0  0
    6.4501   -1.5777    0.5018 N   0  0  0  0  0  0  0  0  0  0  0  0
    7.2289   -0.3761    0.6902 C   0  0  0  0  0  0  0  0  0  0  0  0
    6.8958   -2.4679    0.7036 H   0  0  0  0  0  0  0  0  0  0  0  0
    7.7547   -0.1291   -0.2440 H   0  0  0  0  0  0  0  0  0  0  0  0
    6.5616    0.4538    0.9656 H   0  0  0  0  0  0  0  0  0  0  0  0
    7.9637   -0.5375    1.4927 H   0  0  0  0  0  0  0  0  0  0  0  0
  1  3  1  0  0  0  0
  1  7  1  0  0  0  0
  1  2  2  0  0  0  0
 21 22  1  0  0  0  0
 22 24  1  0  0  0  0
 22 23  2  0  0  0  0
 32 33  1  0  0  0  0
 33 41  1  0  0  0  0
 33 34  2  0  0  0  0
  8  9  1  0  0  0  0
  9 17  1  0  0  0  0
  9 10  2  0  0  0  0
 18 19  1  0  0  0  0
 19 31  1  0  0  0  0
 19 20  2  0  0  0  0
 32 35  1  0  0  0  0
  8 11  1  0  0  0  0
 41 42  1  0  0  0  0
 18 21  1  0  0  0  0
 31 32  1  0  0  0  0
  7  8  1  0  0  0  0
 17 18  1  0  0  0  0
  3  4  1  0  0  0  0
  3  5  1  0  0  0  0
  3  6  1  0  0  0  0
 35 38  1  0  0  0  0
 35 39  1  0  0  0  0
 35 40  1  0  0  0  0
 11 14  1  0  0  0  0
 11 15  1  0  0  0  0
 11 16  1  0  0  0  0
 42 44  1  0  0  0  0
 42 45  1  0  0  0  0
 42 46  1  0  0  0  0
 21 27  1  0  0  0  0
 21 28  1  0  0  0  0
 32 37  1  0  0  0  0
  8 13  1  0  0  0  0
 18 26  1  0  0  0  0
 24 29  1  0  0  0  0
 24 30  1  0  0  0  0
 41 43  1  0  0  0  0
  7 12  1  0  0  0  0
 31 36  1  0  0  0  0
 17 25  1  0  0  0  0
M  END
$$$$

  -OEChem-05262214473D

 46 45  0     1  0  0  0  0  0999 V2000
   -0.0543    1.9736    3.8406 C   0  0  0  0  0  0  0  0  0  0  0  0
    0.6744    1.6099    4.7562 O   0  0  0  0  0  0  0  0  0  0  0  0
   -0.5599    3.3779    3.8160 C   0  0  0  0  0  0  0  0  0  0  0  0
   -1.5202    3.4885    4.3450 H   0  0  0  0  0  0  0  0  0  0  0  0
    0.1282    4.0814    4.3116 H   0  0  0  0  0  0  0  0  0  0  0  0
   -0.7317    3.7994    2.8126 H   0  0  0  0  0  0  0  0  0  0  0  0
   -0.4812    1.1968    2.7762 N   0  0  0  0  0  0  0  0  0  0  0  0
   -0.1106   -0.1834    2.6051 C   0  0  2  0  0  0  0  0  0  0  0  0
   -0.0696   -0.4775    1.1113 C   0  0  0  0  0  0  0  0  0  0  0  0
   -0.6805    0.1900    0.2792 O   0  0  0  0  0  0  0  0  0  0  0  0
   -1.0852   -1.1101    3.3150 C   0  0  0  0  0  0  0  0  0  0  0  0
   -1.0883    1.6241    2.0791 H   0  0  0  0  0  0  0  0  0  0  0  0
    0.8937   -0.2959    3.0277 H   0  0  0  0  0  0  0  0  0  0  0  0
   -2.0970   -1.0114    2.9051 H   0  0  0  0  0  0  0  0  0  0  0  0
   -0.7860   -2.1580    3.2078 H   0  0  0  0  0  0  0  0  0  0  0  0
   -1.1357   -0.8775    4.3842 H   0  0  0  0  0  0  0  0  0  0  0  0
    0.6950   -1.6003    0.8178 N   0  0  0  0  0  0  0  0  0  0  0  0
    0.8777   -2.0908   -0.5246 C   0  0  2  0  0  0  0  0  0  0  0  0
    2.3707   -2.0589   -0.8263 C   0  0  0  0  0  0  0  0  0  0  0  0
    2.8971   -1.1921   -1.5214 O   0  0  0  0  0  0  0  0  0  0  0  0
    0.1039   -1.2567   -1.5459 C   0  0  0  0  0  0  0  0  0  0  0  0
   -1.4006   -1.4374   -1.4478 C   0  0  0  0  0  0  0  0  0  0  0  0
   -1.9539   -2.5198   -1.2780 O   0  0  0  0  0  0  0  0  0  0  0  0
   -2.0791   -0.2428   -1.5659 N   0  0  0  0  0  0  0  0  0  0  0  0
    1.1810   -2.0803    1.5718 H   0  0  0  0  0  0  0  0  0  0  0  0
    0.5365   -3.1326   -0.5256 H   0  0  0  0  0  0  0  0  0  0  0  0
    0.3104   -0.1891   -1.3988 H   0  0  0  0  0  0  0  0  0  0  0  0
    0.4190   -1.5089   -2.5666 H   0  0  0  0  0  0  0  0  0  0  0  0
   -1.5794    0.6296   -1.7020 H   0  0  0  0  0  0  0  0  0  0  0  0
   -3.0917   -0.1870   -1.5226 H   0  0  0  0  0  0  0  0  0  0  0  0
    3.0567   -3.0828   -0.1883 N   0  0  0  0  0  0  0  0  0  0  0  0
    4.4869   -3.2365   -0.3070 C   0  0  2  0  0  0  0  0  0  0  0  0
    5.1400   -1.9479    0.1751 C   0  0  0  0  0  0  0  0  0  0  0  0
    4.5536   -0.8679    0.2019 O   0  0  0  0  0  0  0  0  0  0  0  0
    4.8929   -3.5491   -1.7388 C   0  0  0  0  0  0  0  0  0  0  0  0
    2.5485   -3.7463    0.3890 H   0  0  0  0  0  0  0  0  0  0  0  0
    4.7723   -4.0612    0.3552 H   0  0  0  0  0  0  0  0  0  0  0  0
    4.6151   -2.7340   -2.4170 H   0  0  0  0  0  0  0  0  0  0  0  0
    5.9752   -3.6936   -1.8218 H   0  0  0  0  0  0  0  0  0  0  0  0
    4.3990   -4.4599   -2.0940 H   0  0  0  0  0  0  0  0  0  0  0  0
    6.4680   -2.1374    0.5312 N   0  0  0  0  0  0  0  0  0  0  0  0
    7.3080   -1.0639    1.0086 C   0  0  0  0  0  0  0  0  0  0  0  0
    6.8666   -3.0710    0.4954 H   0  0  0  0  0  0  0  0  0  0  0  0
    7.8470   -0.6149    0.1614 H   0  0  0  0  0  0  0  0  0  0  0  0
    6.6843   -0.2984    1.4935 H   0  0  0  0  0  0  0  0  0  0  0  0
    8.0324   -1.4607    1.7351 H   0  0  0  0  0  0  0  0  0  0  0  0
  1  3  1  0  0  0  0
  1  7  1  0  0  0  0
  1  2  2  0  0  0  0
 21 22  1  0  0  0  0
 22 24  1  0  0  0  0
 22 23  2  0  0  0  0
 32 33  1  0  0  0  0
 33 41  1  0  0  0  0
 33 34  2  0  0  0  0
  8  9  1  0  0  0  0
  9 17  1  0  0  0  0
  9 10  2  0  0  0  0
 18 19  1  0  0  0  0
 19 31  1  0  0  0  0
 19 20  2  0  0  0  0
 32 35  1  0  0  0  0
  8 11  1  0  0  0  0
 41 42  1  0  0  0  0
 18 21  1  0  0  0  0
 31 32  1  0  0  0  0
  7  8  1  0  0  0  0
 17 18  1  0  0  0  0
  3  4  1  0  0  0  0
  3  5  1  0  0  0  0
  3  6  1  0  0  0  0
 35 38  1  0  0  0  0
 35 39  1  0  0  0  0
 35 40  1  0  0  0  0
 11 14  1  0  0  0  0
 11 15  1  0  0  0  0
 11 16  1  0  0  0  0
 42 44  1  0  0  0  0
 42 45  1  0  0  0  0
 42 46  1  0  0  0  0
 21 27  1  0  0  0  0
 21 28  1  0  0  0  0
 32 37  1  0  0  0  0
  8 13  1  0  0  0  0
 18 26  1  0  0  0  0
 24 29  1  0  0  0  0
 24 30  1  0  0  0  0
 41 43  1  0  0  0  0
  7 12  1  0  0  0  0
 31 36  1  0  0  0  0
 17 25  1  0  0  0  0
M  END
$$$$

  -OEChem-05262214473D

 46 45  0     1  0  0  0  0  0999 V2000
   -0.0543    1.9736    3.8406 C   0  0  0  0  0  0  0  0  0  0  0  0
    0.6744    1.6099    4.7562 O   0  0  0  0  0  0  0  0  0  0  0  0
   -0.5599    3.3779    3.8160 C   0  0  0  0  0  0  0  0  0  0  0  0
   -1.5202    3.4885    4.3450 H   0  0  0  0  0  0  0  0  0  0  0  0
    0.1282    4.0814    4.3116 H   0  0  0  0  0  0  0  0  0  0  0  0
   -0.7317    3.7994    2.8126 H   0  0  0  0  0  0  0  0  0  0  0  0
   -0.4812    1.1968    2.7762 N   0  0  0  0  0  0  0  0  0  0  0  0
   -0.1106   -0.1834    2.6051 C   0  0  2  0  0  0  0  0  0  0  0  0
   -0.0696   -0.4775    1.1113 C   0  0  0  0  0  0  0  0  0  0  0  0
   -0.6805    0.1900    0.2792 O   0  0  0  0  0  0  0  0  0  0  0  0
   -1.0852   -1.1101    3.3150 C   0  0  0  0  0  0  0  0  0  0  0  0
   -1.0883    1.6241    2.0791 H   0  0  0  0  0  0  0  0  0  0  0  0
    0.8937   -0.2959    3.0277 H   0  0  0  0  0  0  0  0  0  0  0  0
   -2.0970   -1.0114    2.9051 H   0  0  0  0  0  0  0  0  0  0  0  0
   -0.7860   -2.1580    3.2078 H   0  0  0  0  0  0  0  0  0  0  0  0
   -1.1357   -0.8775    4.3842 H   0  0  0  0  0  0  0  0  0  0  0  0
    0.6950   -1.6003    0.8178 N   0  0  0  0  0  0  0  0  0  0  0  0
    0.8777   -2.0908   -0.5246 C   0  0  2  0  0  0  0  0  0  0  0  0
    2.3707   -2.0589   -0.8263 C   0  0  0  0  0  0  0  0  0  0  0  0
    2.9422   -1.0719   -1.2852 O   0  0  0  0  0  0  0  0  0  0  0  0
    0.1039   -1.2567   -1.5459 C   0  0  0  0  0  0  0  0  0  0  0  0
   -1.4006   -1.4374   -1.4478 C   0  0  0  0  0  0  0  0  0  0  0  0
   -1.9539   -2.5198   -1.2780 O   0  0  0  0  0  0  0  0  0  0  0  0
   -2.0791   -0.2428   -1.5659 N   0  0  0  0  0  0  0  0  0  0  0  0
    1.1810   -2.0803    1.5718 H   0  0  0  0  0  0  0  0  0  0  0  0
    0.5365   -3.1326   -0.5256 H   0  0  0  0  0  0  0  0  0  0  0  0
    0.3104   -0.1891   -1.3988 H   0  0  0  0  0  0  0  0  0  0  0  0
    0.4190   -1.5089   -2.5666 H   0  0  0  0  0  0  0  0  0  0  0  0
   -1.5794    0.6296   -1.7020 H   0  0  0  0  0  0  0  0  0  0  0  0
   -3.0917   -0.1870   -1.5226 H   0  0  0  0  0  0  0  0  0  0  0  0
    3.0018   -3.2445   -0.4770 N   0  0  0  0  0  0  0  0  0  0  0  0
    4.4222   -3.4352   -0.6479 C   0  0  2  0  0  0  0  0  0  0  0  0
    5.1409   -2.3459    0.1372 C   0  0  0  0  0  0  0  0  0  0  0  0
    4.6113   -1.2798    0.4439 O   0  0  0  0  0  0  0  0  0  0  0  0
    4.8132   -3.3943   -2.1170 C   0  0  0  0  0  0  0  0  0  0  0  0
    2.4592   -4.0062   -0.0807 H   0  0  0  0  0  0  0  0  0  0  0  0
    4.6636   -4.4143   -0.2200 H   0  0  0  0  0  0  0  0  0  0  0  0
    4.5789   -2.4208   -2.5631 H   0  0  0  0  0  0  0  0  0  0  0  0
    5.8865   -3.5676   -2.2469 H   0  0  0  0  0  0  0  0  0  0  0  0
    4.2730   -4.1590   -2.6855 H   0  0  0  0  0  0  0  0  0  0  0  0
    6.4567   -2.6865    0.4176 N   0  0  0  0  0  0  0  0  0  0  0  0
    7.3508   -1.8131    1.1414 C   0  0  0  0  0  0  0  0  0  0  0  0
    6.8063   -3.5993    0.1415 H   0  0  0  0  0  0  0  0  0  0  0  0
    7.9134   -1.1916    0.4292 H   0  0  0  0  0  0  0  0  0  0  0  0
    6.7672   -1.1652    1.8119 H   0  0  0  0  0  0  0  0  0  0  0  0
    8.0528   -2.4173    1.7347 H   0  0  0  0  0  0  0  0  0  0  0  0
  1  3  1  0  0  0  0
  1  7  1  0  0  0  0
  1  2  2  0  0  0  0
 21 22  1  0  0  0  0
 22 24  1  0  0  0  0
 22 23  2  0  0  0  0
 32 33  1  0  0  0  0
 33 41  1  0  0  0  0
 33 34  2  0  0  0  0
  8  9  1  0  0  0  0
  9 17  1  0  0  0  0
  9 10  2  0  0  0  0
 18 19  1  0  0  0  0
 19 31  1  0  0  0  0
 19 20  2  0  0  0  0
 32 35  1  0  0  0  0
  8 11  1  0  0  0  0
 41 42  1  0  0  0  0
 18 21  1  0  0  0  0
 31 32  1  0  0  0  0
  7  8  1  0  0  0  0
 17 18  1  0  0  0  0
  3  4  1  0  0  0  0
  3  5  1  0  0  0  0
  3  6  1  0  0  0  0
 35 38  1  0  0  0  0
 35 39  1  0  0  0  0
 35 40  1  0  0  0  0
 11 14  1  0  0  0  0
 11 15  1  0  0  0  0
 11 16  1  0  0  0  0
 42 44  1  0  0  0  0
 42 45  1  0  0  0  0
 42 46  1  0  0  0  0
 21 27  1  0  0  0  0
 21 28  1  0  0  0  0
 32 37  1  0  0  0  0
  8 13  1  0  0  0  0
 18 26  1  0  0  0  0
 24 29  1  0  0  0  0
 24 30  1  0  0  0  0
 41 43  1  0  0  0  0
  7 12  1  0  0  0  0
 31 36  1  0  0  0  0
 17 25  1  0  0  0  0
M  END
$$$$

  -OEChem-05262214473D

 46 45  0     1  0  0  0  0  0999 V2000
   -0.0543    1.9736    3.8406 C   0  0  0  0  0  0  0  0  0  0  0  0
    0.6744    1.6099    4.7562 O   0  0  0  0  0  0  0  0  0  0  0  0
   -0.5599    3.3779    3.8160 C   0  0  0  0  0  0  0  0  0  0  0  0
   -1.5202    3.4885    4.3450 H   0  0  0  0  0  0  0  0  0  0  0  0
    0.1282    4.0814    4.3116 H   0  0  0  0  0  0  0  0  0  0  0  0
   -0.7317    3.7994    2.8126 H   0  0  0  0  0  0  0  0  0  0  0  0
   -0.4812    1.1968    2.7762 N   0  0  0  0  0  0  0  0  0  0  0  0
   -0.1106   -0.1834    2.6051 C   0  0  2  0  0  0  0  0  0  0  0  0
   -0.0696   -0.4775    1.1113 C   0  0  0  0  0  0  0  0  0  0  0  0
   -0.6805    0.1900    0.2792 O   0  0  0  0  0  0  0  0  0  0  0  0
   -1.0852   -1.1101    3.3150 C   0  0  0  0  0  0  0  0  0  0  0  0
   -1.0883    1.6241    2.0791 H   0  0  0  0  0  0  0  0  0  0  0  0
    0.8937   -0.2959    3.0277 H   0  0  0  0  0  0  0  0  0  0  0  0
   -2.0970   -1.0114    2.9051 H   0  0  0  0  0  0  0  0  0  0  0  0
   -0.7860   -2.1580    3.2078 H   0  0  0  0  0  0  0  0  0  0  0  0
   -1.1357   -0.8775    4.3842 H   0  0  0  0  0  0  0  0  0  0  0  0
    0.6950   -1.6003    0.8178 N   0  0  0  0  0  0  0  0  0  0  0  0
    0.8777   -2.0908   -0.5246 C   0  0  2  0  0  0  0  0  0  0  0  0
    2.3707   -2.0589   -0.8263 C   0  0  0  0  0  0  0  0  0  0  0  0
    2.9933   -1.0179   -1.0269 O   0  0  0  0  0  0  0  0  0  0  0  0
    0.1039   -1.2567   -1.5459 C   0  0  0  0  0  0  0  0  0  0  0  0
   -1.4006   -1.4374   -1.4478 C   0  0  0  0  0  0  0  0  0  0  0  0
   -1.9539   -2.5198   -1.2780 O   0  0  0  0  0  0  0  0  0  0  0  0
   -2.0791   -0.2428   -1.5659 N   0  0  0  0  0  0  0  0  0  0  0  0
    1.1810   -2.0803    1.5718 H   0  0  0  0  0  0  0  0  0  0  0  0
    0.5365   -3.1326   -0.5256 H   0  0  0  0  0  0  0  0  0  0  0  0
    0.3104   -0.1891   -1.3988 H   0  0  0  0  0  0  0  0  0  0  0  0
    0.4190   -1.5089   -2.5666 H   0  0  0  0  0  0  0  0  0  0  0  0
   -1.5794    0.6296   -1.7020 H   0  0  0  0  0  0  0  0  0  0  0  0
   -3.0917   -0.1870   -1.5226 H   0  0  0  0  0  0  0  0  0  0  0  0
    2.9390   -3.3247   -0.7966 N   0  0  0  0  0  0  0  0  0  0  0  0
    4.3477   -3.5374   -1.0274 C   0  0  2  0  0  0  0  0  0  0  0  0
    5.1211   -2.7207   -0.0005 C   0  0  0  0  0  0  0  0  0  0  0  0
    4.6473   -1.7420    0.5728 O   0  0  0  0  0  0  0  0  0  0  0  0
    4.7420   -3.1448   -2.4427 C   0  0  0  0  0  0  0  0  0  0  0  0
    2.3570   -4.1336   -0.5998 H   0  0  0  0  0  0  0  0  0  0  0  0
    4.5374   -4.6039   -0.8645 H   0  0  0  0  0  0  0  0  0  0  0  0
    4.5591   -2.0794   -2.6245 H   0  0  0  0  0  0  0  0  0  0  0  0
    5.8051   -3.3335   -2.6252 H   0  0  0  0  0  0  0  0  0  0  0  0
    4.1635   -3.7119   -3.1799 H   0  0  0  0  0  0  0  0  0  0  0  0
    6.4171   -3.1874    0.1686 N   0  0  0  0  0  0  0  0  0  0  0  0
    7.3545   -2.5726    1.0793 C   0  0  0  0  0  0  0  0  0  0  0  0
    6.7192   -4.0167   -0.3341 H   0  0  0  0  0  0  0  0  0  0  0  0
    7.9495   -1.8200    0.5413 H   0  0  0  0  0  0  0  0  0  0  0  0
    6.8046   -2.0874    1.8992 H   0  0  0  0  0  0  0  0  0  0  0  0
    8.0235   -3.3424    1.4917 H   0  0  0  0  0  0  0  0  0  0  0  0
  1  3  1  0  0  0  0
  1  7  1  0  0  0  0
  1  2  2  0  0  0  0
 21 22  1  0  0  0  0
 22 24  1  0  0  0  0
 22 23  2  0  0  0  0
 32 33  1  0  0  0  0
 33 41  1  0  0  0  0
 33 34  2  0  0  0  0
  8  9  1  0  0  0  0
  9 17  1  0  0  0  0
  9 10  2  0  0  0  0
 18 19  1  0  0  0  0
 19 31  1  0  0  0  0
 19 20  2  0  0  0  0
 32 35  1  0  0  0  0
  8 11  1  0  0  0  0
 41 42  1  0  0  0  0
 18 21  1  0  0  0  0
 31 32  1  0  0  0  0
  7  8  1  0  0  0  0
 17 18  1  0  0  0  0
  3  4  1  0  0  0  0
  3  5  1  0  0  0  0
  3  6  1  0  0  0  0
 35 38  1  0  0  0  0
 35 39  1  0  0  0  0
 35 40  1  0  0  0  0
 11 14  1  0  0  0  0
 11 15  1  0  0  0  0
 11 16  1  0  0  0  0
 42 44  1  0  0  0  0
 42 45  1  0  0  0  0
 42 46  1  0  0  0  0
 21 27  1  0  0  0  0
 21 28  1  0  0  0  0
 32 37  1  0  0  0  0
  8 13  1  0  0  0  0
 18 26  1  0  0  0  0
 24 29  1  0  0  0  0
 24 30  1  0  0  0  0
 41 43  1  0  0  0  0
  7 12  1  0  0  0  0
 31 36  1  0  0  0  0
 17 25  1  0  0  0  0
M  END
$$$$

  -OEChem-05262214473D

 46 45  0     1  0  0  0  0  0999 V2000
   -0.0543    1.9736    3.8406 C   0  0  0  0  0  0  0  0  0  0  0  0
    0.6744    1.6099    4.7562 O   0  0  0  0  0  0  0  0  0  0  0  0
   -0.5599    3.3779    3.8160 C   0  0  0  0  0  0  0  0  0  0  0  0
   -1.5202    3.4885    4.3450 H   0  0  0  0  0  0  0  0  0  0  0  0
    0.1282    4.0814    4.3116 H   0  0  0  0  0  0  0  0  0  0  0  0
   -0.7317    3.7994    2.8126 H   0  0  0  0  0  0  0  0  0  0  0  0
   -0.4812    1.1968    2.7762 N   0  0  0  0  0  0  0  0  0  0  0  0
   -0.1106   -0.1834    2.6051 C   0  0  2  0  0  0  0  0  0  0  0  0
   -0.0696   -0.4775    1.1113 C   0  0  0  0  0  0  0  0  0  0  0  0
   -0.6805    0.1900    0.2792 O   0  0  0  0  0  0  0  0  0  0  0  0
   -1.0852   -1.1101    3.3150 C   0  0  0  0  0  0  0  0  0  0  0  0
   -1.0883    1.6241    2.0791 H   0  0  0  0  0  0  0  0  0  0  0  0
    0.8937   -0.2959    3.0277 H   0  0  0  0  0  0  0  0  0  0  0  0
   -2.0970   -1.0114    2.9051 H   0  0  0  0  0  0  0  0  0  0  0  0
   -0.7860   -2.1580    3.2078 H   0  0  0  0  0  0  0  0  0  0  0  0
   -1.1357   -0.8775    4.3842 H   0  0  0  0  0  0  0  0  0  0  0  0
    0.6950   -1.6003    0.8178 N   0  0  0  0  0  0  0  0  0  0  0  0
    0.8777   -2.0908   -0.5246 C   0  0  2  0  0  0  0  0  0  0  0  0
    2.3707   -2.0589   -0.8263 C   0  0  0  0  0  0  0  0  0  0  0  0
    3.0468   -1.0340   -0.7639 O   0  0  0  0  0  0  0  0  0  0  0  0
    0.1039   -1.2567   -1.5459 C   0  0  0  0  0  0  0  0  0  0  0  0
   -1.4006   -1.4374   -1.4478 C   0  0  0  0  0  0  0  0  0  0  0  0
   -1.9539   -2.5198   -1.2780 O   0  0  0  0  0  0  0  0  0  0  0  0
   -2.0791   -0.2428   -1.5659 N   0  0  0  0  0  0  0  0  0  0  0  0
    1.1810   -2.0803    1.5718 H   0  0  0  0  0  0  0  0  0  0  0  0
    0.5365   -3.1326   -0.5256 H   0  0  0  0  0  0  0  0  0  0  0  0
    0.3104   -0.1891   -1.3988 H   0  0  0  0  0  0  0  0  0  0  0  0
    0.4190   -1.5089   -2.5666 H   0  0  0  0  0  0  0  0  0  0  0  0
   -1.5794    0.6296   -1.7020 H   0  0  0  0  0  0  0  0  0  0  0  0
   -3.0917   -0.1870   -1.5226 H   0  0  0  0  0  0  0  0  0  0  0  0
    2.8724   -3.3178   -1.1252 N   0  0  0  0  0  0  0  0  0  0  0  0
    4.2685   -3.5360   -1.4193 C   0  0  2  0  0  0  0  0  0  0  0  0
    5.0820   -3.0468   -0.2284 C   0  0  0  0  0  0  0  0  0  0  0  0
    4.6590   -2.2230    0.5800 O   0  0  0  0  0  0  0  0  0  0  0  0
    4.6843   -2.8175   -2.6935 C   0  0  0  0  0  0  0  0  0  0  0  0
    2.2489   -4.1197   -1.1330 H   0  0  0  0  0  0  0  0  0  0  0  0
    4.4023   -4.6171   -1.5345 H   0  0  0  0  0  0  0  0  0  0  0  0
    4.5573   -1.7330   -2.5972 H   0  0  0  0  0  0  0  0  0  0  0  0
    5.7364   -3.0072   -2.9307 H   0  0  0  0  0  0  0  0  0  0  0  0
    4.0780   -3.1490   -3.5435 H   0  0  0  0  0  0  0  0  0  0  0  0
    6.3518   -3.6060   -0.1987 N   0  0  0  0  0  0  0  0  0  0  0  0
    7.3188   -3.2908    0.8268 C   0  0  0  0  0  0  0  0  0  0  0  0
    6.6110   -4.2949   -0.8988 H   0  0  0  0  0  0  0  0  0  0  0  0
    7.9527   -2.4573    0.4899 H   0  0  0  0  0  0  0  0  0  0  0  0
    6.7938   -3.0023    1.7494 H   0  0  0  0  0  0  0  0  0  0  0  0
    7.9464   -4.1728    1.0224 H   0  0  0  0  0  0  0  0  0  0  0  0
  1  3  1  0  0  0  0
  1  7  1  0  0  0  0
  1  2  2  0  0  0  0
 21 22  1  0  0  0  0
 22 24  1  0  0  0  0
 22 23  2  0  0  0  0
 32 33  1  0  0  0  0
 33 41  1  0  0  0  0
 33 34  2  0  0  0  0
  8  9  1  0  0  0  0
  9 17  1  0  0  0  0
  9 10  2  0  0  0  0
 18 19  1  0  0  0  0
 19 31  1  0  0  0  0
 19 20  2  0  0  0  0
 32 35  1  0  0  0  0
  8 11  1  0  0  0  0
 41 42  1  0  0  0  0
 18 21  1  0  0  0  0
 31 32  1  0  0  0  0
  7  8  1  0  0  0  0
 17 18  1  0  0  0  0
  3  4  1  0  0  0  0
  3  5  1  0  0  0  0
  3  6  1  0  0  0  0
 35 38  1  0  0  0  0
 35 39  1  0  0  0  0
 35 40  1  0  0  0  0
 11 14  1  0  0  0  0
 11 15  1  0  0  0  0
 11 16  1  0  0  0  0
 42 44  1  0  0  0  0
 42 45  1  0  0  0  0
 42 46  1  0  0  0  0
 21 27  1  0  0  0  0
 21 28  1  0  0  0  0
 32 37  1  0  0  0  0
  8 13  1  0  0  0  0
 18 26  1  0  0  0  0
 24 29  1  0  0  0  0
 24 30  1  0  0  0  0
 41 43  1  0  0  0  0
  7 12  1  0  0  0  0
 31 36  1  0  0  0  0
 17 25  1  0  0  0  0
M  END
$$$$

  -OEChem-05262214473D

 46 45  0     1  0  0  0  0  0999 V2000
   -0.0543    1.9736    3.8406 C   0  0  0  0  0  0  0  0  0  0  0  0
    0.6744    1.6099    4.7562 O   0  0  0  0  0  0  0  0  0  0  0  0
   -0.5599    3.3779    3.8160 C   0  0  0  0  0  0  0  0  0  0  0  0
   -1.5202    3.4885    4.3450 H   0  0  0  0  0  0  0  0  0  0  0  0
    0.1282    4.0814    4.3116 H   0  0  0  0  0  0  0  0  0  0  0  0
   -0.7317    3.7994    2.8126 H   0  0  0  0  0  0  0  0  0  0  0  0
   -0.4812    1.1968    2.7762 N   0  0  0  0  0  0  0  0  0  0  0  0
   -0.1106   -0.1834    2.6051 C   0  0  2  0  0  0  0  0  0  0  0  0
   -0.0696   -0.4775    1.1113 C   0  0  0  0  0  0  0  0  0  0  0  0
   -0.6805    0.1900    0.2792 O   0  0  0  0  0  0  0  0  0  0  0  0
   -1.0852   -1.1101    3.3150 C   0  0  0  0  0  0  0  0  0  0  0  0
   -1.0883    1.6241    2.0791 H   0  0  0  0  0  0  0  0  0  0  0  0
    0.8937   -0.2959    3.0277 H   0  0  0  0  0  0  0  0  0  0  0  0
   -2.0970   -1.0114    2.9051 H   0  0  0  0  0  0  0  0  0  0  0  0
   -0.7860   -2.1580    3.2078 H   0  0  0  0  0  0  0  0  0  0  0  0
   -1.1357   -0.8775    4.3842 H   0  0  0  0  0  0  0  0  0  0  0  0
    0.6950   -1.6003    0.8178 N   0  0  0  0  0  0  0  0  0  0  0  0
    0.8777   -2.0908   -0.5246 C   0  0  2  0  0  0  0  0  0  0  0  0
    2.3707   -2.0589   -0.8263 C   0  0  0  0  0  0  0  0  0  0  0  0
    3.0990   -1.1189   -0.5143 O   0  0  0  0  0  0  0  0  0  0  0  0
    0.1039   -1.2567   -1.5459 C   0  0  0  0  0  0  0  0  0  0  0  0
   -1.4006   -1.4374   -1.4478 C   0  0  0  0  0  0  0  0  0  0  0  0
   -1.9539   -2.5198   -1.2780 O   0  0  0  0  0  0  0  0  0  0  0  0
   -2.0791   -0.2428   -1.5659 N   0  0  0  0  0  0  0  0  0  0  0  0
    1.1810   -2.0803    1.5718 H   0  0  0  0  0  0  0  0  0  0  0  0
    0.5365   -3.1326   -0.5256 H   0  0  0  0  0  0  0  0  0  0  0  0
    0.3104   -0.1891   -1.3988 H   0  0  0  0  0  0  0  0  0  0  0  0
    0.4190   -1.5089   -2.5666 H   0  0  0  0  0  0  0  0  0  0  0  0
   -1.5794    0.6296   -1.7020 H   0  0  0  0  0  0  0  0  0  0  0  0
   -3.0917   -0.1870   -1.5226 H   0  0  0  0  0  0  0  0  0  0  0  0
    2.8066   -3.2245   -1.4406 N   0  0  0  0  0  0  0  0  0  0  0  0
    4.1899   -3.4311   -1.7972 C   0  0  2  0  0  0  0  0  0  0  0  0
    5.0263   -3.3020   -0.5310 C   0  0  0  0  0  0  0  0  0  0  0  0
    4.6457   -2.6900    0.4648 O   0  0  0  0  0  0  0  0  0  0  0  0
    4.6440   -2.4348   -2.8526 C   0  0  0  0  0  0  0  0  0  0  0  0
    2.1424   -3.9655   -1.6439 H   0  0  0  0  0  0  0  0  0  0  0  0
    4.2674   -4.4530   -2.1842 H   0  0  0  0  0  0  0  0  0  0  0  0
    4.5733   -1.4053   -2.4829 H   0  0  0  0  0  0  0  0  0  0  0  0
    5.6851   -2.6111   -3.1427 H   0  0  0  0  0  0  0  0  0  0  0  0
    4.0223   -2.5086   -3.7514 H   0  0  0  0  0  0  0  0  0  0  0  0
    6.2653   -3.9139   -0.6593 N   0  0  0  0  0  0  0  0  0  0  0  0
    7.2461   -3.9185    0.4008 C   0  0  0  0  0  0  0  0  0  0  0  0
    6.4891   -4.4147   -1.5142 H   0  0  0  0  0  0  0  0  0  0  0  0
    7.9229   -3.0600    0.2787 H   0  0  0  0  0  0  0  0  0  0  0  0
    6.7357   -3.8475    1.3727 H   0  0  0  0  0  0  0  0  0  0  0  0
    7.8268   -4.8518    0.3589 H   0  0  0  0  0  0  0  0  0  0  0  0
  1  3  1  0  0  0  0
  1  7  1  0  0  0  0
  1  2  2  0  0  0  0
 21 22  1  0  0  0  0
 22 24  1  0  0  0  0
 22 23  2  0  0  0  0
 32 33  1  0  0  0  0
 33 41  1  0  0  0  0
 33 34  2  0  0  0  0
  8  9  1  0  0  0  0
  9 17  1  0  0  0  0
  9 10  2  0  0  0  0
 18 19  1  0  0  0  0
 19 31  1  0  0  0  0
 19 20  2  0  0  0  0
 32 35  1  0  0  0  0
  8 11  1  0  0  0  0
 41 42  1  0  0  0  0
 18 21  1  0  0  0  0
 31 32  1  0  0  0  0
  7  8  1  0  0  0  0
 17 18  1  0  0  0  0
  3  4  1  0  0  0  0
  3  5  1  0  0  0  0
  3  6  1  0  0  0  0
 35 38  1  0  0  0  0
 35 39  1  0  0  0  0
 35 40  1  0  0  0  0
 11 14  1  0  0  0  0
 11 15  1  0  0  0  0
 11 16  1  0  0  0  0
 42 44  1  0  0  0  0
 42 45  1  0  0  0  0
 42 46  1  0  0  0  0
 21 27  1  0  0  0  0
 21 28  1  0  0  0  0
 32 37  1  0  0  0  0
  8 13  1  0  0  0  0
 18 26  1  0  0  0  0
 24 29  1  0  0  0  0
 24 30  1  0  0  0  0
 41 43  1  0  0  0  0
  7 12  1  0  0  0  0
 31 36  1  0  0  0  0
 17 25  1  0  0  0  0
M  END
$$$$

  -OEChem-05262214473D

 46 45  0     1  0  0  0  0  0999 V2000
   -0.0543    1.9736    3.8406 C   0  0  0  0  0  0  0  0  0  0  0  0
    0.6744    1.6099    4.7562 O   0  0  0  0  0  0  0  0  0  0  0  0
   -0.5599    3.3779    3.8160 C   0  0  0  0  0  0  0  0  0  0  0  0
   -1.5202    3.4885    4.3450 H   0  0  0  0  0  0  0  0  0  0  0  0
    0.1282    4.0814    4.3116 H   0  0  0  0  0  0  0  0  0  0  0  0
   -0.7317    3.7994    2.8126 H   0  0  0  0  0  0  0  0  0  0  0  0
   -0.4812    1.1968    2.7762 N   0  0  0  0  0  0  0  0  0  0  0  0
   -0.1106   -0.1834    2.6051 C   0  0  2  0  0  0  0  0  0  0  0  0
   -0.0696   -0.4775    1.1113 C   0  0  0  0  0  0  0  0  0  0  0  0
   -0.6805    0.1900    0.2792 O   0  0  0  0  0  0  0  0  0  0  0  0
   -1.0852   -1.1101    3.3150 C   0  0  0  0  0  0  0  0  0  0  0  0
   -1.0883    1.6241    2.0791 H   0  0  0  0  0  0  0  0  0  0  0  0
    0.8937   -0.2959    3.0277 H   0  0  0  0  0  0  0  0  0  0  0  0
   -2.0970   -1.0114    2.9051 H   0  0  0  0  0  0  0  0  0  0  0  0
   -0.7860   -2.1580    3.2078 H   0  0  0  0  0  0  0  0  0  0  0  0
   -1.1357   -0.8775    4.3842 H   0  0  0  0  0  0  0  0  0  0  0  0
    0.6950   -1.6003    0.8178 N   0  0  0  0  0  0  0  0  0  0  0  0
    0.8777   -2.0908   -0.5246 C   0  0  2  0  0  0  0  0  0  0  0  0
    2.3707   -2.0589   -0.8263 C   0  0  0  0  0  0  0  0  0  0  0  0
    3.1465   -1.2669   -0.2950 O   0  0  0  0  0  0  0  0  0  0  0  0
    0.1039   -1.2567   -1.5459 C   0  0  0  0  0  0  0  0  0  0  0  0
   -1.4006   -1.4374   -1.4478 C   0  0  0  0  0  0  0  0  0  0  0  0
   -1.9539   -2.5198   -1.2780 O   0  0  0  0  0  0  0  0  0  0  0  0
   -2.0791   -0.2428   -1.5659 N   0  0  0  0  0  0  0  0  0  0  0  0
    1.1810   -2.0803    1.5718 H   0  0  0  0  0  0  0  0  0  0  0  0
    0.5365   -3.1326   -0.5256 H   0  0  0  0  0  0  0  0  0  0  0  0
    0.3104   -0.1891   -1.3988 H   0  0  0  0  0  0  0  0  0  0  0  0
    0.4190   -1.5089   -2.5666 H   0  0  0  0  0  0  0  0  0  0  0  0
   -1.5794    0.6296   -1.7020 H   0  0  0  0  0  0  0  0  0  0  0  0
   -3.0917   -0.1870   -1.5226 H   0  0  0  0  0  0  0  0  0  0  0  0
    2.7462   -3.0509   -1.7212 N   0  0  0  0  0  0  0  0  0  0  0  0
    4.1173   -3.2300   -2.1351 C   0  0  2  0  0  0  0  0  0  0  0  0
    4.9577   -3.4689   -0.8877 C   0  0  0  0  0  0  0  0  0  0  0  0
    4.6083   -3.1112    0.2352 O   0  0  0  0  0  0  0  0  0  0  0  0
    4.6238   -2.0227   -2.9089 C   0  0  0  0  0  0  0  0  0  0  0  0
    2.0446   -3.6816   -2.0977 H   0  0  0  0  0  0  0  0  0  0  0  0
    4.1421   -4.1228   -2.7695 H   0  0  0  0  0  0  0  0  0  0  0  0
    4.6063   -1.1185   -2.2895 H   0  0  0  0  0  0  0  0  0  0  0  0
    5.6546   -2.1720   -3.2467 H   0  0  0  0  0  0  0  0  0  0  0  0
    4.0002   -1.8345   -3.7895 H   0  0  0  0  0  0  0  0  0  0  0  0
    6.1635   -4.0900   -1.1819 N   0  0  0  0  0  0  0  0  0  0  0  0
    7.1415   -4.4131   -0.1694 C   0  0  0  0  0  0  0  0  0  0  0  0
    6.3620   -4.3681   -2.1385 H   0  0  0  0  0  0  0  0  0  0  0  0
    7.8621   -3.5871   -0.0781 H   0  0  0  0  0  0  0  0  0  0  0  0
    6.6343   -4.5653    0.7948 H   0  0  0  0  0  0  0  0  0  0  0  0
    7.6729   -5.3334   -0.4535 H   0  0  0  0  0  0  0  0  0  0  0  0
  1  3  1  0  0  0  0
  1  7  1  0  0  0  0
  1  2  2  0  0  0  0
 21 22  1  0  0  0  0
 22 24  1  0  0  0  0
 22 23  2  0  0  0  0
 32 33  1  0  0  0  0
 33 41  1  0  0  0  0
 33 34  2  0  0  0  0
  8  9  1  0  0  0  0
  9 17  1  0  0  0  0
  9 10  2  0  0  0  0
 18 19  1  0  0  0  0
 19 31  1  0  0  0  0
 19 20  2  0  0  0  0
 32 35  1  0  0  0  0
  8 11  1  0  0  0  0
 41 42  1  0  0  0  0
 18 21  1  0  0  0  0
 31 32  1  0  0  0  0
  7  8  1  0  0  0  0
 17 18  1  0  0  0  0
  3  4  1  0  0  0  0
  3  5  1  0  0  0  0
  3  6  1  0  0  0  0
 35 38  1  0  0  0  0
 35 39  1  0  0  0  0
 35 40  1  0  0  0  0
 11 14  1  0  0  0  0
 11 15  1  0  0  0  0
 11 16  1  0  0  0  0
 42 44  1  0  0  0  0
 42 45  1  0  0  0  0
 42 46  1  0  0  0  0
 21 27  1  0  0  0  0
 21 28  1  0  0  0  0
 32 37  1  0  0  0  0
  8 13  1  0  0  0  0
 18 26  1  0  0  0  0
 24 29  1  0  0  0  0
 24 30  1  0  0  0  0
 41 43  1  0  0  0  0
  7 12  1  0  0  0  0
 31 36  1  0  0  0  0
 17 25  1  0  0  0  0
M  END
$$$$

  -OEChem-05262214473D

 46 45  0     1  0  0  0  0  0999 V2000
   -0.0543    1.9736    3.8406 C   0  0  0  0  0  0  0  0  0  0  0  0
    0.6744    1.6099    4.7562 O   0  0  0  0  0  0  0  0  0  0  0  0
   -0.5599    3.3779    3.8160 C   0  0  0  0  0  0  0  0  0  0  0  0
   -1.5202    3.4885    4.3450 H   0  0  0  0  0  0  0  0  0  0  0  0
    0.1282    4.0814    4.3116 H   0  0  0  0  0  0  0  0  0  0  0  0
   -0.7317    3.7994    2.8126 H   0  0  0  0  0  0  0  0  0  0  0  0
   -0.4812    1.1968    2.7762 N   0  0  0  0  0  0  0  0  0  0  0  0
   -0.1106   -0.1834    2.6051 C   0  0  2  0  0  0  0  0  0  0  0  0
   -0.0696   -0.4775    1.1113 C   0  0  0  0  0  0  0  0  0  0  0  0
   -0.6805    0.1900    0.2792 O   0  0  0  0  0  0  0  0  0  0  0  0
   -1.0852   -1.1101    3.3150 C   0  0  0  0  0  0  0  0  0  0  0  0
   -1.0883    1.6241    2.0791 H   0  0  0  0  0  0  0  0  0  0  0  0
    0.8937   -0.2959    3.0277 H   0  0  0  0  0  0  0  0  0  0  0  0
   -2.0970   -1.0114    2.9051 H   0  0  0  0  0  0  0  0  0  0  0  0
   -0.7860   -2.1580    3.2078 H   0  0  0  0  0  0  0  0  0  0  0  0
   -1.1357   -0.8775    4.3842 H   0  0  0  0  0  0  0  0  0  0  0  0
    0.6950   -1.6003    0.8178 N   0  0  0  0  0  0  0  0  0  0  0  0
    0.8777   -2.0908   -0.5246 C   0  0  2  0  0  0  0  0  0  0  0  0
    2.3707   -2.0589   -0.8263 C   0  0  0  0  0  0  0  0  0  0  0  0
    3.1860   -1.4680   -0.1210 O   0  0  0  0  0  0  0  0  0  0  0  0
    0.1039   -1.2567   -1.5459 C   0  0  0  0  0  0  0  0  0  0  0  0
   -1.4006   -1.4374   -1.4478 C   0  0  0  0  0  0  0  0  0  0  0  0
   -1.9539   -2.5198   -1.2780 O   0  0  0  0  0  0  0  0  0  0  0  0
   -2.0791   -0.2428   -1.5659 N   0  0  0  0  0  0  0  0  0  0  0  0
    1.1810   -2.0803    1.5718 H   0  0  0  0  0  0  0  0  0  0  0  0
    0.5365   -3.1326   -0.5256 H   0  0  0  0  0  0  0  0  0  0  0  0
    0.3104   -0.1891   -1.3988 H   0  0  0  0  0  0  0  0  0  0  0  0
    0.4190   -1.5089   -2.5666 H   0  0  0  0  0  0  0  0  0  0  0  0
   -1.5794    0.6296   -1.7020 H   0  0  0  0  0  0  0  0  0  0  0  0
   -3.0917   -0.1870   -1.5226 H   0  0  0  0  0  0  0  0  0  0  0  0
    2.6952   -2.8090   -1.9479 N   0  0  0  0  0  0  0  0  0  0  0  0
    4.0556   -2.9463   -2.4102 C   0  0  2  0  0  0  0  0  0  0  0  0
    4.8810   -3.5361   -1.2743 C   0  0  0  0  0  0  0  0  0  0  0  0
    4.5493   -3.4579   -0.0932 O   0  0  0  0  0  0  0  0  0  0  0  0
    4.6251   -1.6094   -2.8586 C   0  0  0  0  0  0  0  0  0  0  0  0
    1.9622   -3.2872   -2.4635 H   0  0  0  0  0  0  0  0  0  0  0  0
    4.0348   -3.6489   -3.2503 H   0  0  0  0  0  0  0  0  0  0  0  0
    4.6539   -0.8923   -2.0302 H   0  0  0  0  0  0  0  0  0  0  0  0
    5.6472   -1.7200   -3.2357 H   0  0  0  0  0  0  0  0  0  0  0  0
    4.0132   -1.1726   -3.6552 H   0  0  0  0  0  0  0  0  0  0  0  0
    6.0532   -4.1224   -1.7308 N   0  0  0  0  0  0  0  0  0  0  0  0
    7.0119   -4.7409   -0.8451 C   0  0  0  0  0  0  0  0  0  0  0  0
    6.2381   -4.1583   -2.7289 H   0  0  0  0  0  0  0  0  0  0  0  0
    7.7744   -4.0026   -0.5561 H   0  0  0  0  0  0  0  0  0  0  0  0
    6.4963   -5.1070    0.0550 H   0  0  0  0  0  0  0  0  0  0  0  0
    7.4951   -5.5846   -1.3596 H   0  0  0  0  0  0  0  0  0  0  0  0
  1  3  1  0  0  0  0
  1  7  1  0  0  0  0
  1  2  2  0  0  0  0
 21 22  1  0  0  0  0
 22 24  1  0  0  0  0
 22 23  2  0  0  0  0
 32 33  1  0  0  0  0
 33 41  1  0  0  0  0
 33 34  2  0  0  0  0
  8  9  1  0  0  0  0
  9 17  1  0  0  0  0
  9 10  2  0  0  0  0
 18 19  1  0  0  0  0
 19 31  1  0  0  0  0
 19 20  2  0  0  0  0
 32 35  1  0  0  0  0
  8 11  1  0  0  0  0
 41 42  1  0  0  0  0
 18 21  1  0  0  0  0
 31 32  1  0  0  0  0
  7  8  1  0  0  0  0
 17 18  1  0  0  0  0
  3  4  1  0  0  0  0
  3  5  1  0  0  0  0
  3  6  1  0  0  0  0
 35 38  1  0  0  0  0
 35 39  1  0  0  0  0
 35 40  1  0  0  0  0
 11 14  1  0  0  0  0
 11 15  1  0  0  0  0
 11 16  1  0  0  0  0
 42 44  1  0  0  0  0
 42 45  1  0  0  0  0
 42 46  1  0  0  0  0
 21 27  1  0  0  0  0
 21 28  1  0  0  0  0
 32 37  1  0  0  0  0
  8 13  1  0  0  0  0
 18 26  1  0  0  0  0
 24 29  1  0  0  0  0
 24 30  1  0  0  0  0
 41 43  1  0  0  0  0
  7 12  1  0  0  0  0
 31 36  1  0  0  0  0
 17 25  1  0  0  0  0
M  END
$$$$

  -OEChem-05262214473D

 46 45  0     1  0  0  0  0  0999 V2000
   -0.0543    1.9736    3.8406 C   0  0  0  0  0  0  0  0  0  0  0  0
    0.6744    1.6099    4.7562 O   0  0  0  0  0  0  0  0  0  0  0  0
   -0.5599    3.3779    3.8160 C   0  0  0  0  0  0  0  0  0  0  0  0
   -1.5202    3.4885    4.3450 H   0  0  0  0  0  0  0  0  0  0  0  0
    0.1282    4.0814    4.3116 H   0  0  0  0  0  0  0  0  0  0  0  0
   -0.7317    3.7994    2.8126 H   0  0  0  0  0  0  0  0  0  0  0  0
   -0.4812    1.1968    2.7762 N   0  0  0  0  0  0  0  0  0  0  0  0
   -0.1106   -0.1834    2.6051 C   0  0  2  0  0  0  0  0  0  0  0  0
   -0.0696   -0.4775    1.1113 C   0  0  0  0  0  0  0  0  0  0  0  0
   -0.6805    0.1900    0.2792 O   0  0  0  0  0  0  0  0  0  0  0  0
   -1.0852   -1.1101    3.3150 C   0  0  0  0  0  0  0  0  0  0  0  0
   -1.0883    1.6241    2.0791 H   0  0  0  0  0  0  0  0  0  0  0  0
    0.8937   -0.2959    3.0277 H   0  0  0  0  0  0  0  0  0  0  0  0
   -2.0970   -1.0114    2.9051 H   0  0  0  0  0  0  0  0  0  0  0  0
   -0.7860   -2.1580    3.2078 H   0  0  0  0  0  0  0  0  0  0  0  0
   -1.1357   -0.8775    4.3842 H   0  0  0  0  0  0  0  0  0  0  0  0
    0.6950   -1.6003    0.8178 N   0  0  0  0  0  0  0  0  0  0  0  0
    0.8777   -2.0908   -0.5246 C   0  0  2  0  0  0  0  0  0  0  0  0
    2.3561   -2.4154   -0.6980 C   0  0  0  0  0  0  0  0  0  0  0  0
    3.1801   -2.2983    0.2068 O   0  0  0  0  0  0  0  0  0  0  0  0
    0.4239   -1.0717   -1.5700 C   0  0  0  0  0  0  0  0  0  0  0  0
   -1.0826   -0.8840   -1.6067 C   0  0  0  0  0  0  0  0  0  0  0  0
   -1.8924   -1.8033   -1.5314 O   0  0  0  0  0  0  0  0  0  0  0  0
   -1.4411    0.4417   -1.7293 N   0  0  0  0  0  0  0  0  0  0  0  0
    1.1810   -2.0803    1.5718 H   0  0  0  0  0  0  0  0  0  0  0  0
    0.2983   -3.0184   -0.5997 H   0  0  0  0  0  0  0  0  0  0  0  0
    0.8657   -0.0895   -1.3596 H   0  0  0  0  0  0  0  0  0  0  0  0
    0.7620   -1.3702   -2.5706 H   0  0  0  0  0  0  0  0  0  0  0  0
   -0.7366    1.1697   -1.7847 H   0  0  0  0  0  0  0  0  0  0  0  0
   -2.4103    0.7406   -1.7688 H   0  0  0  0  0  0  0  0  0  0  0  0
    2.6414   -2.8994   -1.9670 N   0  0  0  0  0  0  0  0  0  0  0  0
    3.9738   -3.2980   -2.3530 C   0  0  2  0  0  0  0  0  0  0  0  0
    4.4374   -4.3835   -1.3906 C   0  0  0  0  0  0  0  0  0  0  0  0
    3.9626   -4.5305   -0.2663 O   0  0  0  0  0  0  0  0  0  0  0  0
    4.9304   -2.1158   -2.3406 C   0  0  0  0  0  0  0  0  0  0  0  0
    1.8964   -2.9876   -2.6517 H   0  0  0  0  0  0  0  0  0  0  0  0
    3.8994   -3.7130   -3.3641 H   0  0  0  0  0  0  0  0  0  0  0  0
    5.0179   -1.6867   -1.3357 H   0  0  0  0  0  0  0  0  0  0  0  0
    5.9340   -2.4141   -2.6611 H   0  0  0  0  0  0  0  0  0  0  0  0
    4.5797   -1.3236   -3.0109 H   0  0  0  0  0  0  0  0  0  0  0  0
    5.4733   -5.1413   -1.9185 N   0  0  0  0  0  0  0  0  0  0  0  0
    6.0944   -6.2251   -1.1935 C   0  0  0  0  0  0  0  0  0  0  0  0
    5.7913   -4.9615   -2.8663 H   0  0  0  0  0  0  0  0  0  0  0  0
    6.9690   -5.8460   -0.6445 H   0  0  0  0  0  0  0  0  0  0  0  0
    5.3719   -6.6518   -0.4822 H   0  0  0  0  0  0  0  0  0  0  0  0
    6.4152   -7.0034   -1.9015 H   0  0  0  0  0  0  0  0  0  0  0  0
  1  3  1  0  0  0  0
  1  7  1  0  0  0  0
  1  2  2  0  0  0  0
 21 22  1  0  0  0  0
 22 24  1  0  0  0  0
 22 23  2  0  0  0  0
 32 33  1  0  0  0  0
 33 41  1  0  0  0  0
 33 34  2  0  0  0  0
  8  9  1  0  0  0  0
  9 17  1  0  0  0  0
  9 10  2  0  0  0  0
 18 19  1  0  0  0  0
 19 31  1  0  0  0  0
 19 20  2  0  0  0  0
 32 35  1  0  0  0  0
  8 11  1  0  0  0  0
 41 42  1  0  0  0  0
 18 21  1  0  0  0  0
 31 32  1  0  0  0  0
  7  8  1  0  0  0  0
 17 18  1  0  0  0  0
  3  4  1  0  0  0  0
  3  5  1  0  0  0  0
  3  6  1  0  0  0  0
 35 38  1  0  0  0  0
 35 39  1  0  0  0  0
 35 40  1  0  0  0  0
 11 14  1  0  0  0  0
 11 15  1  0  0  0  0
 11 16  1  0  0  0  0
 42 44  1  0  0  0  0
 42 45  1  0  0  0  0
 42 46  1  0  0  0  0
 21 27  1  0  0  0  0
 21 28  1  0  0  0  0
 32 37  1  0  0  0  0
  8 13  1  0  0  0  0
 18 26  1  0  0  0  0
 24 29  1  0  0  0  0
 24 30  1  0  0  0  0
 41 43  1  0  0  0  0
  7 12  1  0  0  0  0
 31 36  1  0  0  0  0
 17 25  1  0  0  0  0
M  END
$$$$

  -OEChem-05262214473D

 46 45  0     1  0  0  0  0  0999 V2000
   -0.0543    1.9736    3.8406 C   0  0  0  0  0  0  0  0  0  0  0  0
    0.6744    1.6099    4.7562 O   0  0  0  0  0  0  0  0  0  0  0  0
   -0.5599    3.3779    3.8160 C   0  0  0  0  0  0  0  0  0  0  0  0
   -1.5202    3.4885    4.3450 H   0  0  0  0  0  0  0  0  0  0  0  0
    0.1282    4.0814    4.3116 H   0  0  0  0  0  0  0  0  0  0  0  0
   -0.7317    3.7994    2.8126 H   0  0  0  0  0  0  0  0  0  0  0  0
   -0.4812    1.1968    2.7762 N   0  0  0  0  0  0  0  0  0  0  0  0
   -0.1106   -0.1834    2.6051 C   0  0  2  0  0  0  0  0  0  0  0  0
   -0.0696   -0.4775    1.1113 C   0  0  0  0  0  0  0  0  0  0  0  0
   -0.6805    0.1900    0.2792 O   0  0  0  0  0  0  0  0  0  0  0  0
   -1.0852   -1.1101    3.3150 C   0  0  0  0  0  0  0  0  0  0  0  0
   -1.0883    1.6241    2.0791 H   0  0  0  0  0  0  0  0  0  0  0  0
    0.8937   -0.2959    3.0277 H   0  0  0  0  0  0  0  0  0  0  0  0
   -2.0970   -1.0114    2.9051 H   0  0  0  0  0  0  0  0  0  0  0  0
   -0.7860   -2.1580    3.2078 H   0  0  0  0  0  0  0  0  0  0  0  0
   -1.1357   -0.8775    4.3842 H   0  0  0  0  0  0  0  0  0  0  0  0
    0.6950   -1.6003    0.8178 N   0  0  0  0  0  0  0  0  0  0  0  0
    0.8777   -2.0908   -0.5246 C   0  0  2  0  0  0  0  0  0  0  0  0
    2.3561   -2.4154   -0.6980 C   0  0  0  0  0  0  0  0  0  0  0  0
    3.1278   -2.5587    0.2482 O   0  0  0  0  0  0  0  0  0  0  0  0
    0.4239   -1.0717   -1.5700 C   0  0  0  0  0  0  0  0  0  0  0  0
   -1.0826   -0.8840   -1.6067 C   0  0  0  0  0  0  0  0  0  0  0  0
   -1.8924   -1.8033   -1.5314 O   0  0  0  0  0  0  0  0  0  0  0  0
   -1.4411    0.4417   -1.7293 N   0  0  0  0  0  0  0  0  0  0  0  0
    1.1810   -2.0803    1.5718 H   0  0  0  0  0  0  0  0  0  0  0  0
    0.2983   -3.0184   -0.5997 H   0  0  0  0  0  0  0  0  0  0  0  0
    0.8657   -0.0895   -1.3596 H   0  0  0  0  0  0  0  0  0  0  0  0
    0.7620   -1.3702   -2.5706 H   0  0  0  0  0  0  0  0  0  0  0  0
   -0.7366    1.1697   -1.7847 H   0  0  0  0  0  0  0  0  0  0  0  0
   -2.4103    0.7406   -1.7688 H   0  0  0  0  0  0  0  0  0  0  0  0
    2.7048   -2.5764   -2.0316 N   0  0  0  0  0  0  0  0  0  0  0  0
    4.0483   -2.9140   -2.4366 C   0  0  2  0  0  0  0  0  0  0  0  0
    4.4299   -4.2221   -1.7563 C   0  0  0  0  0  0  0  0  0  0  0  0
    3.8866   -4.6285   -0.7312 O   0  0  0  0  0  0  0  0  0  0  0  0
    5.0288   -1.8084   -2.0775 C   0  0  0  0  0  0  0  0  0  0  0  0
    1.9995   -2.4632   -2.7538 H   0  0  0  0  0  0  0  0  0  0  0  0
    4.0243   -3.0597   -3.5221 H   0  0  0  0  0  0  0  0  0  0  0  0
    5.0666   -1.6480   -0.9939 H   0  0  0  0  0  0  0  0  0  0  0  0
    6.0426   -2.0534   -2.4109 H   0  0  0  0  0  0  0  0  0  0  0  0
    4.7361   -0.8614   -2.5437 H   0  0  0  0  0  0  0  0  0  0  0  0
    5.4779   -4.8610   -2.4041 N   0  0  0  0  0  0  0  0  0  0  0  0
    6.0308   -6.1136   -1.9447 C   0  0  0  0  0  0  0  0  0  0  0  0
    5.8551   -4.4614   -3.2584 H   0  0  0  0  0  0  0  0  0  0  0  0
    6.8798   -5.9162   -1.2737 H   0  0  0  0  0  0  0  0  0  0  0  0
    5.2582   -6.6781   -1.4019 H   0  0  0  0  0  0  0  0  0  0  0  0
    6.3752   -6.7011   -2.8085 H   0  0  0  0  0  0  0  0  0  0  0  0
  1  3  1  0  0  0  0
  1  7  1  0  0  0  0
  1  2  2  0  0  0  0
 21 22  1  0  0  0  0
 22 24  1  0  0  0  0
 22 23  2  0  0  0  0
 32 33  1  0  0  0  0
 33 41  1  0  0  0  0
 33 34  2  0  0  0  0
  8  9  1  0  0  0  0
  9 17  1  0  0  0  0
  9 10  2  0  0  0  0
 18 19  1  0  0  0  0
 19 31  1  0  0  0  0
 19 20  2  0  0  0  0
 32 35  1  0  0  0  0
  8 11  1  0  0  0  0
 41 42  1  0  0  0  0
 18 21  1  0  0  0  0
 31 32  1  0  0  0  0
  7  8  1  0  0  0  0
 17 18  1  0  0  0  0
  3  4  1  0  0  0  0
  3  5  1  0  0  0  0
  3  6  1  0  0  0  0
 35 38  1  0  0  0  0
 35 39  1  0  0  0  0
 35 40  1  0  0  0  0
 11 14  1  0  0  0  0
 11 15  1  0  0  0  0
 11 16  1  0  0  0  0
 42 44  1  0  0  0  0
 42 45  1  0  0  0  0
 42 46  1  0  0  0  0
 21 27  1  0  0  0  0
 21 28  1  0  0  0  0
 32 37  1  0  0  0  0
  8 13  1  0  0  0  0
 18 26  1  0  0  0  0
 24 29  1  0  0  0  0
 24 30  1  0  0  0  0
 41 43  1  0  0  0  0
  7 12  1  0  0  0  0
 31 36  1  0  0  0  0
 17 25  1  0  0  0  0
M  END
$$$$

  -OEChem-05262214473D

 46 45  0     1  0  0  0  0  0999 V2000
   -0.0543    1.9736    3.8406 C   0  0  0  0  0  0  0  0  0  0  0  0
    0.6744    1.6099    4.7562 O   0  0  0  0  0  0  0  0  0  0  0  0
   -0.5599    3.3779    3.8160 C   0  0  0  0  0  0  0  0  0  0  0  0
   -1.5202    3.4885    4.3450 H   0  0  0  0  0  0  0  0  0  0  0  0
    0.1282    4.0814    4.3116 H   0  0  0  0  0  0  0  0  0  0  0  0
   -0.7317    3.7994    2.8126 H   0  0  0  0  0  0  0  0  0  0  0  0
   -0.4812    1.1968    2.7762 N   0  0  0  0  0  0  0  0  0  0  0  0
   -0.1106   -0.1834    2.6051 C   0  0  2  0  0  0  0  0  0  0  0  0
   -0.0696   -0.4775    1.1113 C   0  0  0  0  0  0  0  0  0  0  0  0
   -0.6805    0.1900    0.2792 O   0  0  0  0  0  0  0  0  0  0  0  0
   -1.0852   -1.1101    3.3150 C   0  0  0  0  0  0  0  0  0  0  0  0
   -1.0883    1.6241    2.0791 H   0  0  0  0  0  0  0  0  0  0  0  0
    0.8937   -0.2959    3.0277 H   0  0  0  0  0  0  0  0  0  0  0  0
   -2.0970   -1.0114    2.9051 H   0  0  0  0  0  0  0  0  0  0  0  0
   -0.7860   -2.1580    3.2078 H   0  0  0  0  0  0  0  0  0  0  0  0
   -1.1357   -0.8775    4.3842 H   0  0  0  0  0  0  0  0  0  0  0  0
    0.6950   -1.6003    0.8178 N   0  0  0  0  0  0  0  0  0  0  0  0
    0.8777   -2.0908   -0.5246 C   0  0  2  0  0  0  0  0  0  0  0  0
    2.3561   -2.4154   -0.6980 C   0  0  0  0  0  0  0  0  0  0  0  0
    3.0673   -2.8191    0.2200 O   0  0  0  0  0  0  0  0  0  0  0  0
    0.4239   -1.0717   -1.5700 C   0  0  0  0  0  0  0  0  0  0  0  0
   -1.0826   -0.8840   -1.6067 C   0  0  0  0  0  0  0  0  0  0  0  0
   -1.8924   -1.8033   -1.5314 O   0  0  0  0  0  0  0  0  0  0  0  0
   -1.4411    0.4417   -1.7293 N   0  0  0  0  0  0  0  0  0  0  0  0
    1.1810   -2.0803    1.5718 H   0  0  0  0  0  0  0  0  0  0  0  0
    0.2983   -3.0184   -0.5997 H   0  0  0  0  0  0  0  0  0  0  0  0
    0.8657   -0.0895   -1.3596 H   0  0  0  0  0  0  0  0  0  0  0  0
    0.7620   -1.3702   -2.5706 H   0  0  0  0  0  0  0  0  0  0  0  0
   -0.7366    1.1697   -1.7847 H   0  0  0  0  0  0  0  0  0  0  0  0
   -2.4103    0.7406   -1.7688 H   0  0  0  0  0  0  0  0  0  0  0  0
    2.7790   -2.2501   -2.0094 N   0  0  0  0  0  0  0  0  0  0  0  0
    4.1362   -2.5244   -2.4168 C   0  0  2  0  0  0  0  0  0  0  0  0
    4.4476   -3.9741   -2.0693 C   0  0  0  0  0  0  0  0  0  0  0  0
    3.8359   -4.6041   -1.2091 O   0  0  0  0  0  0  0  0  0  0  0  0
    5.1183   -1.5804   -1.7408 C   0  0  0  0  0  0  0  0  0  0  0  0
    2.1203   -1.9340   -2.7150 H   0  0  0  0  0  0  0  0  0  0  0  0
    4.1729   -2.3927   -3.5037 H   0  0  0  0  0  0  0  0  0  0  0  0
    5.0958   -1.6978   -0.6513 H   0  0  0  0  0  0  0  0  0  0  0  0
    6.1443   -1.7710   -2.0726 H   0  0  0  0  0  0  0  0  0  0  0  0
    4.8749   -0.5368   -1.9677 H   0  0  0  0  0  0  0  0  0  0  0  0
    5.5174   -4.4683   -2.8025 N   0  0  0  0  0  0  0  0  0  0  0  0
    6.0140   -5.8155   -2.6458 C   0  0  0  0  0  0  0  0  0  0  0  0
    5.9531   -3.8816   -3.5080 H   0  0  0  0  0  0  0  0  0  0  0  0
    6.8262   -5.8234   -1.9040 H   0  0  0  0  0  0  0  0  0  0  0  0
    5.1984   -6.4692   -2.3032 H   0  0  0  0  0  0  0  0  0  0  0  0
    6.3955   -6.1801   -3.6109 H   0  0  0  0  0  0  0  0  0  0  0  0
  1  3  1  0  0  0  0
  1  7  1  0  0  0  0
  1  2  2  0  0  0  0
 21 22  1  0  0  0  0
 22 24  1  0  0  0  0
 22 23  2  0  0  0  0
 32 33  1  0  0  0  0
 33 41  1  0  0  0  0
 33 34  2  0  0  0  0
  8  9  1  0  0  0  0
  9 17  1  0  0  0  0
  9 10  2  0  0  0  0
 18 19  1  0  0  0  0
 19 31  1  0  0  0  0
 19 20  2  0  0  0  0
 32 35  1  0  0  0  0
  8 11  1  0  0  0  0
 41 42  1  0  0  0  0
 18 21  1  0  0  0  0
 31 32  1  0  0  0  0
  7  8  1  0  0  0  0
 17 18  1  0  0  0  0
  3  4  1  0  0  0  0
  3  5  1  0  0  0  0
  3  6  1  0  0  0  0
 35 38  1  0  0  0  0
 35 39  1  0  0  0  0
 35 40  1  0  0  0  0
 11 14  1  0  0  0  0
 11 15  1  0  0  0  0
 11 16  1  0  0  0  0
 42 44  1  0  0  0  0
 42 45  1  0  0  0  0
 42 46  1  0  0  0  0
 21 27  1  0  0  0  0
 21 28  1  0  0  0  0
 32 37  1  0  0  0  0
  8 13  1  0  0  0  0
 18 26  1  0  0  0  0
 24 29  1  0  0  0  0
 24 30  1  0  0  0  0
 41 43  1  0  0  0  0
  7 12  1  0  0  0  0
 31 36  1  0  0  0  0
 17 25  1  0  0  0  0
M  END
$$$$

  -OEChem-05262214473D

 46 45  0     1  0  0  0  0  0999 V2000
   -0.0543    1.9736    3.8406 C   0  0  0  0  0  0  0  0  0  0  0  0
    0.6744    1.6099    4.7562 O   0  0  0  0  0  0  0  0  0  0  0  0
   -0.5599    3.3779    3.8160 C   0  0  0  0  0  0  0  0  0  0  0  0
   -1.5202    3.4885    4.3450 H   0  0  0  0  0  0  0  0  0  0  0  0
    0.1282    4.0814    4.3116 H   0  0  0  0  0  0  0  0  0  0  0  0
   -0.7317    3.7994    2.8126 H   0  0  0  0  0  0  0  0  0  0  0  0
   -0.4812    1.1968    2.7762 N   0  0  0  0  0  0  0  0  0  0  0  0
   -0.1106   -0.1834    2.6051 C   0  0  2  0  0  0  0  0  0  0  0  0
   -0.0696   -0.4775    1.1113 C   0  0  0  0  0  0  0  0  0  0  0  0
   -0.6805    0.1900    0.2792 O   0  0  0  0  0  0  0  0  0  0  0  0
   -1.0852   -1.1101    3.3150 C   0  0  0  0  0  0  0  0  0  0  0  0
   -1.0883    1.6241    2.0791 H   0  0  0  0  0  0  0  0  0  0  0  0
    0.8937   -0.2959    3.0277 H   0  0  0  0  0  0  0  0  0  0  0  0
   -2.0970   -1.0114    2.9051 H   0  0  0  0  0  0  0  0  0  0  0  0
   -0.7860   -2.1580    3.2078 H   0  0  0  0  0  0  0  0  0  0  0  0
   -1.1357   -0.8775    4.3842 H   0  0  0  0  0  0  0  0  0  0  0  0
    0.6950   -1.6003    0.8178 N   0  0  0  0  0  0  0  0  0  0  0  0
    0.8777   -2.0908   -0.5246 C   0  0  2  0  0  0  0  0  0  0  0  0
    2.3561   -2.4154   -0.6980 C   0  0  0  0  0  0  0  0  0  0  0  0
    3.0027   -3.0617    0.1239 O   0  0  0  0  0  0  0  0  0  0  0  0
    0.4239   -1.0717   -1.5700 C   0  0  0  0  0  0  0  0  0  0  0  0
   -1.0826   -0.8840   -1.6067 C   0  0  0  0  0  0  0  0  0  0  0  0
   -1.8924   -1.8033   -1.5314 O   0  0  0  0  0  0  0  0  0  0  0  0
   -1.4411    0.4417   -1.7293 N   0  0  0  0  0  0  0  0  0  0  0  0
    1.1810   -2.0803    1.5718 H   0  0  0  0  0  0  0  0  0  0  0  0
    0.2983   -3.0184   -0.5997 H   0  0  0  0  0  0  0  0  0  0  0  0
    0.8657   -0.0895   -1.3596 H   0  0  0  0  0  0  0  0  0  0  0  0
    0.7620   -1.3702   -2.5706 H   0  0  0  0  0  0  0  0  0  0  0  0
   -0.7366    1.1697   -1.7847 H   0  0  0  0  0  0  0  0  0  0  0  0
   -2.4103    0.7406   -1.7688 H   0  0  0  0  0  0  0  0  0  0  0  0
    2.8592   -1.9426   -1.9019 N   0  0  0  0  0  0  0  0  0  0  0  0
    4.2315   -2.1556   -2.2950 C   0  0  2  0  0  0  0  0  0  0  0  0
    4.4893   -3.6565   -2.3085 C   0  0  0  0  0  0  0  0  0  0  0  0
    3.8140   -4.4590   -1.6674 O   0  0  0  0  0  0  0  0  0  0  0  0
    5.1930   -1.4474   -1.3534 C   0  0  0  0  0  0  0  0  0  0  0  0
    2.2504   -1.4361   -2.5380 H   0  0  0  0  0  0  0  0  0  0  0  0
    4.3351   -1.7575   -3.3103 H   0  0  0  0  0  0  0  0  0  0  0  0
    5.1037   -1.8329   -0.3312 H   0  0  0  0  0  0  0  0  0  0  0  0
    6.2322   -1.5862   -1.6694 H   0  0  0  0  0  0  0  0  0  0  0  0
    4.9868   -0.3720   -1.3222 H   0  0  0  0  0  0  0  0  0  0  0  0
    5.5891   -3.9901   -3.0866 N   0  0  0  0  0  0  0  0  0  0  0  0
    6.0452   -5.3508   -3.2490 C   0  0  0  0  0  0  0  0  0  0  0  0
    6.0787   -3.2619   -3.5981 H   0  0  0  0  0  0  0  0  0  0  0  0
    6.8120   -5.5739   -2.4925 H   0  0  0  0  0  0  0  0  0  0  0  0
    5.1964   -6.0393   -3.1247 H   0  0  0  0  0  0  0  0  0  0  0  0
    6.4746   -5.4760   -4.2540 H   0  0  0  0  0  0  0  0  0  0  0  0
  1  3  1  0  0  0  0
  1  7  1  0  0  0  0
  1  2  2  0  0  0  0
 21 22  1  0  0  0  0
 22 24  1  0  0  0  0
 22 23  2  0  0  0  0
 32 33  1  0  0  0  0
 33 41  1  0  0  0  0
 33 34  2  0  0  0  0
  8  9  1  0  0  0  0
  9 17  1  0  0  0  0
  9 10  2  0  0  0  0
 18 19  1  0  0  0  0
 19 31  1  0  0  0  0
 19 20  2  0  0  0  0
 32 35  1  0  0  0  0
  8 11  1  0  0  0  0
 41 42  1  0  0  0  0
 18 21  1  0  0  0  0
 31 32  1  0  0  0  0
  7  8  1  0  0  0  0
 17 18  1  0  0  0  0
  3  4  1  0  0  0  0
  3  5  1  0  0  0  0
  3  6  1  0  0  0  0
 35 38  1  0  0  0  0
 35 39  1  0  0  0  0
 35 40  1  0  0  0  0
 11 14  1  0  0  0  0
 11 15  1  0  0  0  0
 11 16  1  0  0  0  0
 42 44  1  0  0  0  0
 42 45  1  0  0  0  0
 42 46  1  0  0  0  0
 21 27  1  0  0  0  0
 21 28  1  0  0  0  0
 32 37  1  0  0  0  0
  8 13  1  0  0  0  0
 18 26  1  0  0  0  0
 24 29  1  0  0  0  0
 24 30  1  0  0  0  0
 41 43  1  0  0  0  0
  7 12  1  0  0  0  0
 31 36  1  0  0  0  0
 17 25  1  0  0  0  0
M  END
$$$$

  -OEChem-05262214473D

 46 45  0     1  0  0  0  0  0999 V2000
   -0.0543    1.9736    3.8406 C   0  0  0  0  0  0  0  0  0  0  0  0
    0.6744    1.6099    4.7562 O   0  0  0  0  0  0  0  0  0  0  0  0
   -0.5599    3.3779    3.8160 C   0  0  0  0  0  0  0  0  0  0  0  0
   -1.5202    3.4885    4.3450 H   0  0  0  0  0  0  0  0  0  0  0  0
    0.1282    4.0814    4.3116 H   0  0  0  0  0  0  0  0  0  0  0  0
   -0.7317    3.7994    2.8126 H   0  0  0  0  0  0  0  0  0  0  0  0
   -0.4812    1.1968    2.7762 N   0  0  0  0  0  0  0  0  0  0  0  0
   -0.1106   -0.1834    2.6051 C   0  0  2  0  0  0  0  0  0  0  0  0
   -0.0696   -0.4775    1.1113 C   0  0  0  0  0  0  0  0  0  0  0  0
   -0.6805    0.1900    0.2792 O   0  0  0  0  0  0  0  0  0  0  0  0
   -1.0852   -1.1101    3.3150 C   0  0  0  0  0  0  0  0  0  0  0  0
   -1.0883    1.6241    2.0791 H   0  0  0  0  0  0  0  0  0  0  0  0
    0.8937   -0.2959    3.0277 H   0  0  0  0  0  0  0  0  0  0  0  0
   -2.0970   -1.0114    2.9051 H   0  0  0  0  0  0  0  0  0  0  0  0
   -0.7860   -2.1580    3.2078 H   0  0  0  0  0  0  0  0  0  0  0  0
   -1.1357   -0.8775    4.3842 H   0  0  0  0  0  0  0  0  0  0  0  0
    0.6950   -1.6003    0.8178 N   0  0  0  0  0  0  0  0  0  0  0  0
    0.8777   -2.0908   -0.5246 C   0  0  2  0  0  0  0  0  0  0  0  0
    2.3561   -2.4154   -0.6980 C   0  0  0  0  0  0  0  0  0  0  0  0
    2.9385   -3.2701   -0.0334 O   0  0  0  0  0  0  0  0  0  0  0  0
    0.4239   -1.0717   -1.5700 C   0  0  0  0  0  0  0  0  0  0  0  0
   -1.0826   -0.8840   -1.6067 C   0  0  0  0  0  0  0  0  0  0  0  0
   -1.8924   -1.8033   -1.5314 O   0  0  0  0  0  0  0  0  0  0  0  0
   -1.4411    0.4417   -1.7293 N   0  0  0  0  0  0  0  0  0  0  0  0
    1.1810   -2.0803    1.5718 H   0  0  0  0  0  0  0  0  0  0  0  0
    0.2983   -3.0184   -0.5997 H   0  0  0  0  0  0  0  0  0  0  0  0
    0.8657   -0.0895   -1.3596 H   0  0  0  0  0  0  0  0  0  0  0  0
    0.7620   -1.3702   -2.5706 H   0  0  0  0  0  0  0  0  0  0  0  0
   -0.7366    1.1697   -1.7847 H   0  0  0  0  0  0  0  0  0  0  0  0
   -2.4103    0.7406   -1.7688 H   0  0  0  0  0  0  0  0  0  0  0  0
    2.9397   -1.6750   -1.7164 N   0  0  0  0  0  0  0  0  0  0  0  0
    4.3276   -1.8328   -2.0794 C   0  0  2  0  0  0  0  0  0  0  0  0
    4.5521   -3.2909   -2.4575 C   0  0  0  0  0  0  0  0  0  0  0  0
    3.8223   -4.2031   -2.0748 O   0  0  0  0  0  0  0  0  0  0  0  0
    5.2477   -1.4184   -0.9417 C   0  0  0  0  0  0  0  0  0  0  0  0
    2.3810   -1.0035   -2.2348 H   0  0  0  0  0  0  0  0  0  0  0  0
    4.4998   -1.1972   -2.9549 H   0  0  0  0  0  0  0  0  0  0  0  0
    5.0897   -2.0440   -0.0556 H   0  0  0  0  0  0  0  0  0  0  0  0
    6.3003   -1.5115   -1.2286 H   0  0  0  0  0  0  0  0  0  0  0  0
    5.0642   -0.3783   -0.6512 H   0  0  0  0  0  0  0  0  0  0  0  0
    5.6880   -3.4590   -3.2369 N   0  0  0  0  0  0  0  0  0  0  0  0
    6.1224   -4.7515   -3.7133 C   0  0  0  0  0  0  0  0  0  0  0  0
    6.2231   -2.6443   -3.5226 H   0  0  0  0  0  0  0  0  0  0  0  0
    6.8380   -5.1846   -2.9990 H   0  0  0  0  0  0  0  0  0  0  0  0
    5.2524   -5.4177   -3.8103 H   0  0  0  0  0  0  0  0  0  0  0  0
    6.6073   -4.6366   -4.6940 H   0  0  0  0  0  0  0  0  0  0  0  0
  1  3  1  0  0  0  0
  1  7  1  0  0  0  0
  1  2  2  0  0  0  0
 21 22  1  0  0  0  0
 22 24  1  0  0  0  0
 22 23  2  0  0  0  0
 32 33  1  0  0  0  0
 33 41  1  0  0  0  0
 33 34  2  0  0  0  0
  8  9  1  0  0  0  0
  9 17  1  0  0  0  0
  9 10  2  0  0  0  0
 18 19  1  0  0  0  0
 19 31  1  0  0  0  0
 19 20  2  0  0  0  0
 32 35  1  0  0  0  0
  8 11  1  0  0  0  0
 41 42  1  0  0  0  0
 18 21  1  0  0  0  0
 31 32  1  0  0  0  0
  7  8  1  0  0  0  0
 17 18  1  0  0  0  0
  3  4  1  0  0  0  0
  3  5  1  0  0  0  0
  3  6  1  0  0  0  0
 35 38  1  0  0  0  0
 35 39  1  0  0  0  0
 35 40  1  0  0  0  0
 11 14  1  0  0  0  0
 11 15  1  0  0  0  0
 11 16  1  0  0  0  0
 42 44  1  0  0  0  0
 42 45  1  0  0  0  0
 42 46  1  0  0  0  0
 21 27  1  0  0  0  0
 21 28  1  0  0  0  0
 32 37  1  0  0  0  0
  8 13  1  0  0  0  0
 18 26  1  0  0  0  0
 24 29  1  0  0  0  0
 24 30  1  0  0  0  0
 41 43  1  0  0  0  0
  7 12  1  0  0  0  0
 31 36  1  0  0  0  0
 17 25  1  0  0  0  0
M  END
$$$$

  -OEChem-05262214473D

 46 45  0     1  0  0  0  0  0999 V2000
   -0.0543    1.9736    3.8406 C   0  0  0  0  0  0  0  0  0  0  0  0
    0.6744    1.6099    4.7562 O   0  0  0  0  0  0  0  0  0  0  0  0
   -0.5599    3.3779    3.8160 C   0  0  0  0  0  0  0  0  0  0  0  0
   -1.5202    3.4885    4.3450 H   0  0  0  0  0  0  0  0  0  0  0  0
    0.1282    4.0814    4.3116 H   0  0  0  0  0  0  0  0  0  0  0  0
   -0.7317    3.7994    2.8126 H   0  0  0  0  0  0  0  0  0  0  0  0
   -0.4812    1.1968    2.7762 N   0  0  0  0  0  0  0  0  0  0  0  0
   -0.1106   -0.1834    2.6051 C   0  0  2  0  0  0  0  0  0  0  0  0
   -0.0696   -0.4775    1.1113 C   0  0  0  0  0  0  0  0  0  0  0  0
   -0.6805    0.1900    0.2792 O   0  0  0  0  0  0  0  0  0  0  0  0
   -1.0852   -1.1101    3.3150 C   0  0  0  0  0  0  0  0  0  0  0  0
   -1.0883    1.6241    2.0791 H   0  0  0  0  0  0  0  0  0  0  0  0
    0.8937   -0.2959    3.0277 H   0  0  0  0  0  0  0  0  0  0  0  0
   -2.0970   -1.0114    2.9051 H   0  0  0  0  0  0  0  0  0  0  0  0
   -0.7860   -2.1580    3.2078 H   0  0  0  0  0  0  0  0  0  0  0  0
   -1.1357   -0.8775    4.3842 H   0  0  0  0  0  0  0  0  0  0  0  0
    0.6950   -1.6003    0.8178 N   0  0  0  0  0  0  0  0  0  0  0  0
    0.8777   -2.0908   -0.5246 C   0  0  2  0  0  0  0  0  0  0  0  0
    2.3561   -2.4154   -0.6980 C   0  0  0  0  0  0  0  0  0  0  0  0
    2.8791   -3.4299   -0.2411 O   0  0  0  0  0  0  0  0  0  0  0  0
    0.4239   -1.0717   -1.5700 C   0  0  0  0  0  0  0  0  0  0  0  0
   -1.0826   -0.8840   -1.6067 C   0  0  0  0  0  0  0  0  0  0  0  0
   -1.8924   -1.8033   -1.5314 O   0  0  0  0  0  0  0  0  0  0  0  0
   -1.4411    0.4417   -1.7293 N   0  0  0  0  0  0  0  0  0  0  0  0
    1.1810   -2.0803    1.5718 H   0  0  0  0  0  0  0  0  0  0  0  0
    0.2983   -3.0184   -0.5997 H   0  0  0  0  0  0  0  0  0  0  0  0
    0.8657   -0.0895   -1.3596 H   0  0  0  0  0  0  0  0  0  0  0  0
    0.7620   -1.3702   -2.5706 H   0  0  0  0  0  0  0  0  0  0  0  0
   -0.7366    1.1697   -1.7847 H   0  0  0  0  0  0  0  0  0  0  0  0
   -2.4103    0.7406   -1.7688 H   0  0  0  0  0  0  0  0  0  0  0  0
    3.0151   -1.4655   -1.4656 N   0  0  0  0  0  0  0  0  0  0  0  0
    4.4182   -1.5779   -1.7848 C   0  0  2  0  0  0  0  0  0  0  0  0
    4.6318   -2.9022   -2.5060 C   0  0  0  0  0  0  0  0  0  0  0  0
    3.8605   -3.8538   -2.4036 O   0  0  0  0  0  0  0  0  0  0  0  0
    5.2786   -1.4954   -0.5336 C   0  0  0  0  0  0  0  0  0  0  0  0
    2.5031   -0.6657   -1.8260 H   0  0  0  0  0  0  0  0  0  0  0  0
    4.6558   -0.7502   -2.4619 H   0  0  0  0  0  0  0  0  0  0  0  0
    5.0547   -2.3167    0.1569 H   0  0  0  0  0  0  0  0  0  0  0  0
    6.3440   -1.5521   -0.7803 H   0  0  0  0  0  0  0  0  0  0  0  0
    5.1017   -0.5552   -0.0003 H   0  0  0  0  0  0  0  0  0  0  0  0
    5.8076   -2.9112   -3.2433 N   0  0  0  0  0  0  0  0  0  0  0  0
    6.2401   -4.0582   -4.0070 C   0  0  0  0  0  0  0  0  0  0  0  0
    6.3767   -2.0710   -3.2865 H   0  0  0  0  0  0  0  0  0  0  0  0
    6.9026   -4.6822   -3.3891 H   0  0  0  0  0  0  0  0  0  0  0  0
    5.3627   -4.6467   -4.3133 H   0  0  0  0  0  0  0  0  0  0  0  0
    6.7845   -3.7193   -4.9008 H   0  0  0  0  0  0  0  0  0  0  0  0
  1  3  1  0  0  0  0
  1  7  1  0  0  0  0
  1  2  2  0  0  0  0
 21 22  1  0  0  0  0
 22 24  1  0  0  0  0
 22 23  2  0  0  0  0
 32 33  1  0  0  0  0
 33 41  1  0  0  0  0
 33 34  2  0  0  0  0
  8  9  1  0  0  0  0
  9 17  1  0  0  0  0
  9 10  2  0  0  0  0
 18 19  1  0  0  0  0
 19 31  1  0  0  0  0
 19 20  2  0  0  0  0
 32 35  1  0  0  0  0
  8 11  1  0  0  0  0
 41 42  1  0  0  0  0
 18 21  1  0  0  0  0
 31 32  1  0  0  0  0
  7  8  1  0  0  0  0
 17 18  1  0  0  0  0
  3  4  1  0  0  0  0
  3  5  1  0  0  0  0
  3  6  1  0  0  0  0
 35 38  1  0  0  0  0
 35 39  1  0  0  0  0
 35 40  1  0  0  0  0
 11 14  1  0  0  0  0
 11 15  1  0  0  0  0
 11 16  1  0  0  0  0
 42 44  1  0  0  0  0
 42 45  1  0  0  0  0
 42 46  1  0  0  0  0
 21 27  1  0  0  0  0
 21 28  1  0  0  0  0
 32 37  1  0  0  0  0
  8 13  1  0  0  0  0
 18 26  1  0  0  0  0
 24 29  1  0  0  0  0
 24 30  1  0  0  0  0
 41 43  1  0  0  0  0
  7 12  1  0  0  0  0
 31 36  1  0  0  0  0
 17 25  1  0  0  0  0
M  END
$$$$

  -OEChem-05262214473D

 46 45  0     1  0  0  0  0  0999 V2000
   -0.0543    1.9736    3.8406 C   0  0  0  0  0  0  0  0  0  0  0  0
    0.6744    1.6099    4.7562 O   0  0  0  0  0  0  0  0  0  0  0  0
   -0.5599    3.3779    3.8160 C   0  0  0  0  0  0  0  0  0  0  0  0
   -1.5202    3.4885    4.3450 H   0  0  0  0  0  0  0  0  0  0  0  0
    0.1282    4.0814    4.3116 H   0  0  0  0  0  0  0  0  0  0  0  0
   -0.7317    3.7994    2.8126 H   0  0  0  0  0  0  0  0  0  0  0  0
   -0.4812    1.1968    2.7762 N   0  0  0  0  0  0  0  0  0  0  0  0
   -0.1106   -0.1834    2.6051 C   0  0  2  0  0  0  0  0  0  0  0  0
   -0.0696   -0.4775    1.1113 C   0  0  0  0  0  0  0  0  0  0  0  0
   -0.6805    0.1900    0.2792 O   0  0  0  0  0  0  0  0  0  0  0  0
   -1.0852   -1.1101    3.3150 C   0  0  0  0  0  0  0  0  0  0  0  0
   -1.0883    1.6241    2.0791 H   0  0  0  0  0  0  0  0  0  0  0  0
    0.8937   -0.2959    3.0277 H   0  0  0  0  0  0  0  0  0  0  0  0
   -2.0970   -1.0114    2.9051 H   0  0  0  0  0  0  0  0  0  0  0  0
   -0.7860   -2.1580    3.2078 H   0  0  0  0  0  0  0  0  0  0  0  0
   -1.1357   -0.8775    4.3842 H   0  0  0  0  0  0  0  0  0  0  0  0
    0.6950   -1.6003    0.8178 N   0  0  0  0  0  0  0  0  0  0  0  0
    0.8777   -2.0908   -0.5246 C   0  0  2  0  0  0  0  0  0  0  0  0
    2.3561   -2.4154   -0.6980 C   0  0  0  0  0  0  0  0  0  0  0  0
    2.8284   -3.5304   -0.4853 O   0  0  0  0  0  0  0  0  0  0  0  0
    0.4239   -1.0717   -1.5700 C   0  0  0  0  0  0  0  0  0  0  0  0
   -1.0826   -0.8840   -1.6067 C   0  0  0  0  0  0  0  0  0  0  0  0
   -1.8924   -1.8033   -1.5314 O   0  0  0  0  0  0  0  0  0  0  0  0
   -1.4411    0.4417   -1.7293 N   0  0  0  0  0  0  0  0  0  0  0  0
    1.1810   -2.0803    1.5718 H   0  0  0  0  0  0  0  0  0  0  0  0
    0.2983   -3.0184   -0.5997 H   0  0  0  0  0  0  0  0  0  0  0  0
    0.8657   -0.0895   -1.3596 H   0  0  0  0  0  0  0  0  0  0  0  0
    0.7620   -1.3702   -2.5706 H   0  0  0  0  0  0  0  0  0  0  0  0
   -0.7366    1.1697   -1.7847 H   0  0  0  0  0  0  0  0  0  0  0  0
   -2.4103    0.7406   -1.7688 H   0  0  0  0  0  0  0  0  0  0  0  0
    3.0803   -1.3283   -1.1666 N   0  0  0  0  0  0  0  0  0  0  0  0
    4.4969   -1.4084   -1.4313 C   0  0  2  0  0  0  0  0  0  0  0  0
    4.7229   -2.5168   -2.4509 C   0  0  0  0  0  0  0  0  0  0  0  0
    3.9257   -3.4350   -2.6314 O   0  0  0  0  0  0  0  0  0  0  0  0
    5.2838   -1.6732   -0.1572 C   0  0  0  0  0  0  0  0  0  0  0  0
    2.6085   -0.4456   -1.3396 H   0  0  0  0  0  0  0  0  0  0  0  0
    4.7925   -0.4467   -1.8648 H   0  0  0  0  0  0  0  0  0  0  0  0
    5.0012   -2.6324    0.2917 H   0  0  0  0  0  0  0  0  0  0  0  0
    6.3603   -1.7052   -0.3551 H   0  0  0  0  0  0  0  0  0  0  0  0
    5.0968   -0.8906    0.5861 H   0  0  0  0  0  0  0  0  0  0  0  0
    5.9396   -2.3839   -3.1053 N   0  0  0  0  0  0  0  0  0  0  0  0
    6.3905   -3.3182   -4.1101 C   0  0  0  0  0  0  0  0  0  0  0  0
    6.5289   -1.5810   -2.9061 H   0  0  0  0  0  0  0  0  0  0  0  0
    7.0012   -4.1008   -3.6362 H   0  0  0  0  0  0  0  0  0  0  0  0
    5.5197   -3.7789   -4.5994 H   0  0  0  0  0  0  0  0  0  0  0  0
    6.9940   -2.7865   -4.8605 H   0  0  0  0  0  0  0  0  0  0  0  0
  1  3  1  0  0  0  0
  1  7  1  0  0  0  0
  1  2  2  0  0  0  0
 21 22  1  0  0  0  0
 22 24  1  0  0  0  0
 22 23  2  0  0  0  0
 32 33  1  0  0  0  0
 33 41  1  0  0  0  0
 33 34  2  0  0  0  0
  8  9  1  0  0  0  0
  9 17  1  0  0  0  0
  9 10  2  0  0  0  0
 18 19  1  0  0  0  0
 19 31  1  0  0  0  0
 19 20  2  0  0  0  0
 32 35  1  0  0  0  0
  8 11  1  0  0  0  0
 41 42  1  0  0  0  0
 18 21  1  0  0  0  0
 31 32  1  0  0  0  0
  7  8  1  0  0  0  0
 17 18  1  0  0  0  0
  3  4  1  0  0  0  0
  3  5  1  0  0  0  0
  3  6  1  0  0  0  0
 35 38  1  0  0  0  0
 35 39  1  0  0  0  0
 35 40  1  0  0  0  0
 11 14  1  0  0  0  0
 11 15  1  0  0  0  0
 11 16  1  0  0  0  0
 42 44  1  0  0  0  0
 42 45  1  0  0  0  0
 42 46  1  0  0  0  0
 21 27  1  0  0  0  0
 21 28  1  0  0  0  0
 32 37  1  0  0  0  0
  8 13  1  0  0  0  0
 18 26  1  0  0  0  0
 24 29  1  0  0  0  0
 24 30  1  0  0  0  0
 41 43  1  0  0  0  0
  7 12  1  0  0  0  0
 31 36  1  0  0  0  0
 17 25  1  0  0  0  0
M  END
$$$$

  -OEChem-05262214473D

 46 45  0     1  0  0  0  0  0999 V2000
   -0.0543    1.9736    3.8406 C   0  0  0  0  0  0  0  0  0  0  0  0
    0.6744    1.6099    4.7562 O   0  0  0  0  0  0  0  0  0  0  0  0
   -0.5599    3.3779    3.8160 C   0  0  0  0  0  0  0  0  0  0  0  0
   -1.5202    3.4885    4.3450 H   0  0  0  0  0  0  0  0  0  0  0  0
    0.1282    4.0814    4.3116 H   0  0  0  0  0  0  0  0  0  0  0  0
   -0.7317    3.7994    2.8126 H   0  0  0  0  0  0  0  0  0  0  0  0
   -0.4812    1.1968    2.7762 N   0  0  0  0  0  0  0  0  0  0  0  0
   -0.1106   -0.1834    2.6051 C   0  0  2  0  0  0  0  0  0  0  0  0
   -0.0696   -0.4775    1.1113 C   0  0  0  0  0  0  0  0  0  0  0  0
   -0.6805    0.1900    0.2792 O   0  0  0  0  0  0  0  0  0  0  0  0
   -1.0852   -1.1101    3.3150 C   0  0  0  0  0  0  0  0  0  0  0  0
   -1.0883    1.6241    2.0791 H   0  0  0  0  0  0  0  0  0  0  0  0
    0.8937   -0.2959    3.0277 H   0  0  0  0  0  0  0  0  0  0  0  0
   -2.0970   -1.0114    2.9051 H   0  0  0  0  0  0  0  0  0  0  0  0
   -0.7860   -2.1580    3.2078 H   0  0  0  0  0  0  0  0  0  0  0  0
   -1.1357   -0.8775    4.3842 H   0  0  0  0  0  0  0  0  0  0  0  0
    0.6950   -1.6003    0.8178 N   0  0  0  0  0  0  0  0  0  0  0  0
    0.8777   -2.0908   -0.5246 C   0  0  2  0  0  0  0  0  0  0  0  0
    2.3561   -2.4154   -0.6980 C   0  0  0  0  0  0  0  0  0  0  0  0
    2.7899   -3.5647   -0.7491 O   0  0  0  0  0  0  0  0  0  0  0  0
    0.4239   -1.0717   -1.5700 C   0  0  0  0  0  0  0  0  0  0  0  0
   -1.0826   -0.8840   -1.6067 C   0  0  0  0  0  0  0  0  0  0  0  0
   -1.8924   -1.8033   -1.5314 O   0  0  0  0  0  0  0  0  0  0  0  0
   -1.4411    0.4417   -1.7293 N   0  0  0  0  0  0  0  0  0  0  0  0
    1.1810   -2.0803    1.5718 H   0  0  0  0  0  0  0  0  0  0  0  0
    0.2983   -3.0184   -0.5997 H   0  0  0  0  0  0  0  0  0  0  0  0
    0.8657   -0.0895   -1.3596 H   0  0  0  0  0  0  0  0  0  0  0  0
    0.7620   -1.3702   -2.5706 H   0  0  0  0  0  0  0  0  0  0  0  0
   -0.7366    1.1697   -1.7847 H   0  0  0  0  0  0  0  0  0  0  0  0
   -2.4103    0.7406   -1.7688 H   0  0  0  0  0  0  0  0  0  0  0  0
    3.1309   -1.2728   -0.8397 N   0  0  0  0  0  0  0  0  0  0  0  0
    4.5584   -1.3357   -1.0429 C   0  0  2  0  0  0  0  0  0  0  0  0
    4.8191   -2.1612   -2.2959 C   0  0  0  0  0  0  0  0  0  0  0  0
    4.0136   -2.9752   -2.7426 O   0  0  0  0  0  0  0  0  0  0  0  0
    5.2627   -1.9396    0.1621 C   0  0  0  0  0  0  0  0  0  0  0  0
    2.6900   -0.3583   -0.8087 H   0  0  0  0  0  0  0  0  0  0  0  0
    4.9005   -0.3077   -1.2043 H   0  0  0  0  0  0  0  0  0  0  0  0
    4.9328   -2.9697    0.3396 H   0  0  0  0  0  0  0  0  0  0  0  0
    6.3480   -1.9604    0.0181 H   0  0  0  0  0  0  0  0  0  0  0  0
    5.0499   -1.3617    1.0680 H   0  0  0  0  0  0  0  0  0  0  0  0
    6.0749   -1.9132   -2.8322 N   0  0  0  0  0  0  0  0  0  0  0  0
    6.5633   -2.5820   -4.0155 C   0  0  0  0  0  0  0  0  0  0  0  0
    6.6694   -1.2078   -2.4072 H   0  0  0  0  0  0  0  0  0  0  0  0
    7.1273   -3.4801   -3.7233 H   0  0  0  0  0  0  0  0  0  0  0  0
    5.7127   -2.8735   -4.6492 H   0  0  0  0  0  0  0  0  0  0  0  0
    7.2217   -1.9018   -4.5757 H   0  0  0  0  0  0  0  0  0  0  0  0
  1  3  1  0  0  0  0
  1  7  1  0  0  0  0
  1  2  2  0  0  0  0
 21 22  1  0  0  0  0
 22 24  1  0  0  0  0
 22 23  2  0  0  0  0
 32 33  1  0  0  0  0
 33 41  1  0  0  0  0
 33 34  2  0  0  0  0
  8  9  1  0  0  0  0
  9 17  1  0  0  0  0
  9 10  2  0  0  0  0
 18 19  1  0  0  0  0
 19 31  1  0  0  0  0
 19 20  2  0  0  0  0
 32 35  1  0  0  0  0
  8 11  1  0  0  0  0
 41 42  1  0  0  0  0
 18 21  1  0  0  0  0
 31 32  1  0  0  0  0
  7  8  1  0  0  0  0
 17 18  1  0  0  0  0
  3  4  1  0  0  0  0
  3  5  1  0  0  0  0
  3  6  1  0  0  0  0
 35 38  1  0  0  0  0
 35 39  1  0  0  0  0
 35 40  1  0  0  0  0
 11 14  1  0  0  0  0
 11 15  1  0  0  0  0
 11 16  1  0  0  0  0
 42 44  1  0  0  0  0
 42 45  1  0  0  0  0
 42 46  1  0  0  0  0
 21 27  1  0  0  0  0
 21 28  1  0  0  0  0
 32 37  1  0  0  0  0
  8 13  1  0  0  0  0
 18 26  1  0  0  0  0
 24 29  1  0  0  0  0
 24 30  1  0  0  0  0
 41 43  1  0  0  0  0
  7 12  1  0  0  0  0
 31 36  1  0  0  0  0
 17 25  1  0  0  0  0
M  END
$$$$

  -OEChem-05262214473D

 46 45  0     1  0  0  0  0  0999 V2000
   -0.0543    1.9736    3.8406 C   0  0  0  0  0  0  0  0  0  0  0  0
    0.6744    1.6099    4.7562 O   0  0  0  0  0  0  0  0  0  0  0  0
   -0.5599    3.3779    3.8160 C   0  0  0  0  0  0  0  0  0  0  0  0
   -1.5202    3.4885    4.3450 H   0  0  0  0  0  0  0  0  0  0  0  0
    0.1282    4.0814    4.3116 H   0  0  0  0  0  0  0  0  0  0  0  0
   -0.7317    3.7994    2.8126 H   0  0  0  0  0  0  0  0  0  0  0  0
   -0.4812    1.1968    2.7762 N   0  0  0  0  0  0  0  0  0  0  0  0
   -0.1106   -0.1834    2.6051 C   0  0  2  0  0  0  0  0  0  0  0  0
   -0.0696   -0.4775    1.1113 C   0  0  0  0  0  0  0  0  0  0  0  0
   -0.6805    0.1900    0.2792 O   0  0  0  0  0  0  0  0  0  0  0  0
   -1.0852   -1.1101    3.3150 C   0  0  0  0  0  0  0  0  0  0  0  0
   -1.0883    1.6241    2.0791 H   0  0  0  0  0  0  0  0  0  0  0  0
    0.8937   -0.2959    3.0277 H   0  0  0  0  0  0  0  0  0  0  0  0
   -2.0970   -1.0114    2.9051 H   0  0  0  0  0  0  0  0  0  0  0  0
   -0.7860   -2.1580    3.2078 H   0  0  0  0  0  0  0  0  0  0  0  0
   -1.1357   -0.8775    4.3842 H   0  0  0  0  0  0  0  0  0  0  0  0
    0.6950   -1.6003    0.8178 N   0  0  0  0  0  0  0  0  0  0  0  0
    0.8777   -2.0908   -0.5246 C   0  0  2  0  0  0  0  0  0  0  0  0
    2.3561   -2.4154   -0.6980 C   0  0  0  0  0  0  0  0  0  0  0  0
    2.7663   -3.5303   -1.0147 O   0  0  0  0  0  0  0  0  0  0  0  0
    0.4239   -1.0717   -1.5700 C   0  0  0  0  0  0  0  0  0  0  0  0
   -1.0826   -0.8840   -1.6067 C   0  0  0  0  0  0  0  0  0  0  0  0
   -1.8924   -1.8033   -1.5314 O   0  0  0  0  0  0  0  0  0  0  0  0
   -1.4411    0.4417   -1.7293 N   0  0  0  0  0  0  0  0  0  0  0  0
    1.1810   -2.0803    1.5718 H   0  0  0  0  0  0  0  0  0  0  0  0
    0.2983   -3.0184   -0.5997 H   0  0  0  0  0  0  0  0  0  0  0  0
    0.8657   -0.0895   -1.3596 H   0  0  0  0  0  0  0  0  0  0  0  0
    0.7620   -1.3702   -2.5706 H   0  0  0  0  0  0  0  0  0  0  0  0
   -0.7366    1.1697   -1.7847 H   0  0  0  0  0  0  0  0  0  0  0  0
   -2.4103    0.7406   -1.7688 H   0  0  0  0  0  0  0  0  0  0  0  0
    3.1633   -1.3028   -0.5072 N   0  0  0  0  0  0  0  0  0  0  0  0
    4.5985   -1.3649   -0.6460 C   0  0  2  0  0  0  0  0  0  0  0  0
    4.9141   -1.8594   -2.0515 C   0  0  0  0  0  0  0  0  0  0  0  0
    4.1182   -2.5057   -2.7297 O   0  0  0  0  0  0  0  0  0  0  0  0
    5.2169   -2.2765    0.4024 C   0  0  0  0  0  0  0  0  0  0  0  0
    2.7419   -0.4096   -0.2695 H   0  0  0  0  0  0  0  0  0  0  0  0
    4.9725   -0.3424   -0.5254 H   0  0  0  0  0  0  0  0  0  0  0  0
    4.8541   -3.3055    0.2974 H   0  0  0  0  0  0  0  0  0  0  0  0
    6.3081   -2.3002    0.3138 H   0  0  0  0  0  0  0  0  0  0  0  0
    4.9642   -1.9364    1.4125 H   0  0  0  0  0  0  0  0  0  0  0  0
    6.2045   -1.5311   -2.4428 N   0  0  0  0  0  0  0  0  0  0  0  0
    6.7466   -1.8998   -3.7298 C   0  0  0  0  0  0  0  0  0  0  0  0
    6.7886   -0.9767   -1.8237 H   0  0  0  0  0  0  0  0  0  0  0  0
    7.2722   -2.8624   -3.6447 H   0  0  0  0  0  0  0  0  0  0  0  0
    5.9285   -1.9920   -4.4593 H   0  0  0  0  0  0  0  0  0  0  0  0
    7.4520   -1.1255   -4.0658 H   0  0  0  0  0  0  0  0  0  0  0  0
  1  3  1  0  0  0  0
  1  7  1  0  0  0  0
  1  2  2  0  0  0  0
 21 22  1  0  0  0  0
 22 24  1  0  0  0  0
 22 23  2  0  0  0  0
 32 33  1  0  0  0  0
 33 41  1  0  0  0  0
 33 34  2  0  0  0  0
  8  9  1  0  0  0  0
  9 17  1  0  0  0  0
  9 10  2  0  0  0  0
 18 19  1  0  0  0  0
 19 31  1  0  0  0  0
 19 20  2  0  0  0  0
 32 35  1  0  0  0  0
  8 11  1  0  0  0  0
 41 42  1  0  0  0  0
 18 21  1  0  0  0  0
 31 32  1  0  0  0  0
  7  8  1  0  0  0  0
 17 18  1  0  0  0  0
  3  4  1  0  0  0  0
  3  5  1  0  0  0  0
  3  6  1  0  0  0  0
 35 38  1  0  0  0  0
 35 39  1  0  0  0  0
 35 40  1  0  0  0  0
 11 14  1  0  0  0  0
 11 15  1  0  0  0  0
 11 16  1  0  0  0  0
 42 44  1  0  0  0  0
 42 45  1  0  0  0  0
 42 46  1  0  0  0  0
 21 27  1  0  0  0  0
 21 28  1  0  0  0  0
 32 37  1  0  0  0  0
  8 13  1  0  0  0  0
 18 26  1  0  0  0  0
 24 29  1  0  0  0  0
 24 30  1  0  0  0  0
 41 43  1  0  0  0  0
  7 12  1  0  0  0  0
 31 36  1  0  0  0  0
 17 25  1  0  0  0  0
M  END
$$$$

  -OEChem-05262214473D

 46 45  0     1  0  0  0  0  0999 V2000
   -0.0543    1.9736    3.8406 C   0  0  0  0  0  0  0  0  0  0  0  0
    0.6744    1.6099    4.7562 O   0  0  0  0  0  0  0  0  0  0  0  0
   -0.5599    3.3779    3.8160 C   0  0  0  0  0  0  0  0  0  0  0  0
   -1.5202    3.4885    4.3450 H   0  0  0  0  0  0  0  0  0  0  0  0
    0.1282    4.0814    4.3116 H   0  0  0  0  0  0  0  0  0  0  0  0
   -0.7317    3.7994    2.8126 H   0  0  0  0  0  0  0  0  0  0  0  0
   -0.4812    1.1968    2.7762 N   0  0  0  0  0  0  0  0  0  0  0  0
   -0.1106   -0.1834    2.6051 C   0  0  2  0  0  0  0  0  0  0  0  0
   -0.0696   -0.4775    1.1113 C   0  0  0  0  0  0  0  0  0  0  0  0
   -0.6805    0.1900    0.2792 O   0  0  0  0  0  0  0  0  0  0  0  0
   -1.0852   -1.1101    3.3150 C   0  0  0  0  0  0  0  0  0  0  0  0
   -1.0883    1.6241    2.0791 H   0  0  0  0  0  0  0  0  0  0  0  0
    0.8937   -0.2959    3.0277 H   0  0  0  0  0  0  0  0  0  0  0  0
   -2.0970   -1.0114    2.9051 H   0  0  0  0  0  0  0  0  0  0  0  0
   -0.7860   -2.1580    3.2078 H   0  0  0  0  0  0  0  0  0  0  0  0
   -1.1357   -0.8775    4.3842 H   0  0  0  0  0  0  0  0  0  0  0  0
    0.6950   -1.6003    0.8178 N   0  0  0  0  0  0  0  0  0  0  0  0
    0.8777   -2.0908   -0.5246 C   0  0  2  0  0  0  0  0  0  0  0  0
    2.3561   -2.4154   -0.6980 C   0  0  0  0  0  0  0  0  0  0  0  0
    2.7591   -3.4298   -1.2639 O   0  0  0  0  0  0  0  0  0  0  0  0
    0.4239   -1.0717   -1.5700 C   0  0  0  0  0  0  0  0  0  0  0  0
   -1.0826   -0.8840   -1.6067 C   0  0  0  0  0  0  0  0  0  0  0  0
   -1.8924   -1.8033   -1.5314 O   0  0  0  0  0  0  0  0  0  0  0  0
   -1.4411    0.4417   -1.7293 N   0  0  0  0  0  0  0  0  0  0  0  0
    1.1810   -2.0803    1.5718 H   0  0  0  0  0  0  0  0  0  0  0  0
    0.2983   -3.0184   -0.5997 H   0  0  0  0  0  0  0  0  0  0  0  0
    0.8657   -0.0895   -1.3596 H   0  0  0  0  0  0  0  0  0  0  0  0
    0.7620   -1.3702   -2.5706 H   0  0  0  0  0  0  0  0  0  0  0  0
   -0.7366    1.1697   -1.7847 H   0  0  0  0  0  0  0  0  0  0  0  0
   -2.4103    0.7406   -1.7688 H   0  0  0  0  0  0  0  0  0  0  0  0
    3.1754   -1.4162   -0.1918 N   0  0  0  0  0  0  0  0  0  0  0  0
    4.6146   -1.4940   -0.2678 C   0  0  2  0  0  0  0  0  0  0  0  0
    5.0012   -1.6320   -1.7345 C   0  0  0  0  0  0  0  0  0  0  0  0
    4.2324   -2.0585   -2.5936 O   0  0  0  0  0  0  0  0  0  0  0  0
    5.1495   -2.6610    0.5474 C   0  0  0  0  0  0  0  0  0  0  0  0
    2.7609   -0.5963    0.2414 H   0  0  0  0  0  0  0  0  0  0  0  0
    5.0036   -0.5486    0.1256 H   0  0  0  0  0  0  0  0  0  0  0  0
    4.7705   -3.6170    0.1681 H   0  0  0  0  0  0  0  0  0  0  0  0
    6.2432   -2.7015    0.5119 H   0  0  0  0  0  0  0  0  0  0  0  0
    4.8454   -2.5756    1.5963 H   0  0  0  0  0  0  0  0  0  0  0  0
    6.3195   -1.2636   -1.9635 N   0  0  0  0  0  0  0  0  0  0  0  0
    6.9281   -1.3179   -3.2723 C   0  0  0  0  0  0  0  0  0  0  0  0
    6.8784   -0.9035   -1.1956 H   0  0  0  0  0  0  0  0  0  0  0  0
    7.4260   -2.2897   -3.4056 H   0  0  0  0  0  0  0  0  0  0  0  0
    6.1525   -1.1947   -4.0425 H   0  0  0  0  0  0  0  0  0  0  0  0
    7.6692   -0.5105   -3.3657 H   0  0  0  0  0  0  0  0  0  0  0  0
  1  3  1  0  0  0  0
  1  7  1  0  0  0  0
  1  2  2  0  0  0  0
 21 22  1  0  0  0  0
 22 24  1  0  0  0  0
 22 23  2  0  0  0  0
 32 33  1  0  0  0  0
 33 41  1  0  0  0  0
 33 34  2  0  0  0  0
  8  9  1  0  0  0  0
  9 17  1  0  0  0  0
  9 10  2  0  0  0  0
 18 19  1  0  0  0  0
 19 31  1  0  0  0  0
 19 20  2  0  0  0  0
 32 35  1  0  0  0  0
  8 11  1  0  0  0  0
 41 42  1  0  0  0  0
 18 21  1  0  0  0  0
 31 32  1  0  0  0  0
  7  8  1  0  0  0  0
 17 18  1  0  0  0  0
  3  4  1  0  0  0  0
  3  5  1  0  0  0  0
  3  6  1  0  0  0  0
 35 38  1  0  0  0  0
 35 39  1  0  0  0  0
 35 40  1  0  0  0  0
 11 14  1  0  0  0  0
 11 15  1  0  0  0  0
 11 16  1  0  0  0  0
 42 44  1  0  0  0  0
 42 45  1  0  0  0  0
 42 46  1  0  0  0  0
 21 27  1  0  0  0  0
 21 28  1  0  0  0  0
 32 37  1  0  0  0  0
  8 13  1  0  0  0  0
 18 26  1  0  0  0  0
 24 29  1  0  0  0  0
 24 30  1  0  0  0  0
 41 43  1  0  0  0  0
  7 12  1  0  0  0  0
 31 36  1  0  0  0  0
 17 25  1  0  0  0  0
M  END
$$$$

  -OEChem-05262214473D

 46 45  0     1  0  0  0  0  0999 V2000
   -0.0543    1.9736    3.8406 C   0  0  0  0  0  0  0  0  0  0  0  0
    0.6744    1.6099    4.7562 O   0  0  0  0  0  0  0  0  0  0  0  0
   -0.5599    3.3779    3.8160 C   0  0  0  0  0  0  0  0  0  0  0  0
   -1.5202    3.4885    4.3450 H   0  0  0  0  0  0  0  0  0  0  0  0
    0.1282    4.0814    4.3116 H   0  0  0  0  0  0  0  0  0  0  0  0
   -0.7317    3.7994    2.8126 H   0  0  0  0  0  0  0  0  0  0  0  0
   -0.4812    1.1968    2.7762 N   0  0  0  0  0  0  0  0  0  0  0  0
   -0.1106   -0.1834    2.6051 C   0  0  2  0  0  0  0  0  0  0  0  0
   -0.0696   -0.4775    1.1113 C   0  0  0  0  0  0  0  0  0  0  0  0
   -0.6805    0.1900    0.2792 O   0  0  0  0  0  0  0  0  0  0  0  0
   -1.0852   -1.1101    3.3150 C   0  0  0  0  0  0  0  0  0  0  0  0
   -1.0883    1.6241    2.0791 H   0  0  0  0  0  0  0  0  0  0  0  0
    0.8937   -0.2959    3.0277 H   0  0  0  0  0  0  0  0  0  0  0  0
   -2.0970   -1.0114    2.9051 H   0  0  0  0  0  0  0  0  0  0  0  0
   -0.7860   -2.1580    3.2078 H   0  0  0  0  0  0  0  0  0  0  0  0
   -1.1357   -0.8775    4.3842 H   0  0  0  0  0  0  0  0  0  0  0  0
    0.6950   -1.6003    0.8178 N   0  0  0  0  0  0  0  0  0  0  0  0
    0.8777   -2.0908   -0.5246 C   0  0  2  0  0  0  0  0  0  0  0  0
    2.3561   -2.4154   -0.6980 C   0  0  0  0  0  0  0  0  0  0  0  0
    2.7689   -3.2699   -1.4797 O   0  0  0  0  0  0  0  0  0  0  0  0
    0.4239   -1.0717   -1.5700 C   0  0  0  0  0  0  0  0  0  0  0  0
   -1.0826   -0.8840   -1.6067 C   0  0  0  0  0  0  0  0  0  0  0  0
   -1.8924   -1.8033   -1.5314 O   0  0  0  0  0  0  0  0  0  0  0  0
   -1.4411    0.4417   -1.7293 N   0  0  0  0  0  0  0  0  0  0  0  0
    1.1810   -2.0803    1.5718 H   0  0  0  0  0  0  0  0  0  0  0  0
    0.2983   -3.0184   -0.5997 H   0  0  0  0  0  0  0  0  0  0  0  0
    0.8657   -0.0895   -1.3596 H   0  0  0  0  0  0  0  0  0  0  0  0
    0.7620   -1.3702   -2.5706 H   0  0  0  0  0  0  0  0  0  0  0  0
   -0.7366    1.1697   -1.7847 H   0  0  0  0  0  0  0  0  0  0  0  0
   -2.4103    0.7406   -1.7688 H   0  0  0  0  0  0  0  0  0  0  0  0
    3.1663   -1.6054    0.0851 N   0  0  0  0  0  0  0  0  0  0  0  0
    4.6054   -1.7141    0.0659 C   0  0  2  0  0  0  0  0  0  0  0  0
    5.0746   -1.4946   -1.3663 C   0  0  0  0  0  0  0  0  0  0  0  0
    4.3483   -1.6641   -2.3435 O   0  0  0  0  0  0  0  0  0  0  0  0
    5.0651   -3.0668    0.5872 C   0  0  0  0  0  0  0  0  0  0  0  0
    2.7455   -0.9054    0.6890 H   0  0  0  0  0  0  0  0  0  0  0  0
    4.9917   -0.9121    0.7043 H   0  0  0  0  0  0  0  0  0  0  0  0
    4.6878   -3.8828   -0.0398 H   0  0  0  0  0  0  0  0  0  0  0  0
    6.1578   -3.1370    0.5988 H   0  0  0  0  0  0  0  0  0  0  0  0
    4.7017   -3.2356    1.6067 H   0  0  0  0  0  0  0  0  0  0  0  0
    6.4120   -1.1290   -1.4271 N   0  0  0  0  0  0  0  0  0  0  0  0
    7.0952   -0.8762   -2.6742 C   0  0  0  0  0  0  0  0  0  0  0  0
    6.9326   -0.9933   -0.5655 H   0  0  0  0  0  0  0  0  0  0  0  0
    7.5782   -1.8011   -3.0223 H   0  0  0  0  0  0  0  0  0  0  0  0
    6.3693   -0.5358   -3.4274 H   0  0  0  0  0  0  0  0  0  0  0  0
    7.8585   -0.0986   -2.5229 H   0  0  0  0  0  0  0  0  0  0  0  0
  1  3  1  0  0  0  0
  1  7  1  0  0  0  0
  1  2  2  0  0  0  0
 21 22  1  0  0  0  0
 22 24  1  0  0  0  0
 22 23  2  0  0  0  0
 32 33  1  0  0  0  0
 33 41  1  0  0  0  0
 33 34  2  0  0  0  0
  8  9  1  0  0  0  0
  9 17  1  0  0  0  0
  9 10  2  0  0  0  0
 18 19  1  0  0  0  0
 19 31  1  0  0  0  0
 19 20  2  0  0  0  0
 32 35  1  0  0  0  0
  8 11  1  0  0  0  0
 41 42  1  0  0  0  0
 18 21  1  0  0  0  0
 31 32  1  0  0  0  0
  7  8  1  0  0  0  0
 17 18  1  0  0  0  0
  3  4  1  0  0  0  0
  3  5  1  0  0  0  0
  3  6  1  0  0  0  0
 35 38  1  0  0  0  0
 35 39  1  0  0  0  0
 35 40  1  0  0  0  0
 11 14  1  0  0  0  0
 11 15  1  0  0  0  0
 11 16  1  0  0  0  0
 42 44  1  0  0  0  0
 42 45  1  0  0  0  0
 42 46  1  0  0  0  0
 21 27  1  0  0  0  0
 21 28  1  0  0  0  0
 32 37  1  0  0  0  0
  8 13  1  0  0  0  0
 18 26  1  0  0  0  0
 24 29  1  0  0  0  0
 24 30  1  0  0  0  0
 41 43  1  0  0  0  0
  7 12  1  0  0  0  0
 31 36  1  0  0  0  0
 17 25  1  0  0  0  0
M  END
$$$$

  -OEChem-05262214473D

 46 45  0     1  0  0  0  0  0999 V2000
   -0.0543    1.9736    3.8406 C   0  0  0  0  0  0  0  0  0  0  0  0
    0.6744    1.6099    4.7562 O   0  0  0  0  0  0  0  0  0  0  0  0
   -0.5599    3.3779    3.8160 C   0  0  0  0  0  0  0  0  0  0  0  0
   -1.5202    3.4885    4.3450 H   0  0  0  0  0  0  0  0  0  0  0  0
    0.1282    4.0814    4.3116 H   0  0  0  0  0  0  0  0  0  0  0  0
   -0.7317    3.7994    2.8126 H   0  0  0  0  0  0  0  0  0  0  0  0
   -0.4812    1.1968    2.7762 N   0  0  0  0  0  0  0  0  0  0  0  0
   -0.1106   -0.1834    2.6051 C   0  0  2  0  0  0  0  0  0  0  0  0
   -0.0696   -0.4775    1.1113 C   0  0  0  0  0  0  0  0  0  0  0  0
   -0.6805    0.1900    0.2792 O   0  0  0  0  0  0  0  0  0  0  0  0
   -1.0852   -1.1101    3.3150 C   0  0  0  0  0  0  0  0  0  0  0  0
   -1.0883    1.6241    2.0791 H   0  0  0  0  0  0  0  0  0  0  0  0
    0.8937   -0.2959    3.0277 H   0  0  0  0  0  0  0  0  0  0  0  0
   -2.0970   -1.0114    2.9051 H   0  0  0  0  0  0  0  0  0  0  0  0
   -0.7860   -2.1580    3.2078 H   0  0  0  0  0  0  0  0  0  0  0  0
   -1.1357   -0.8775    4.3842 H   0  0  0  0  0  0  0  0  0  0  0  0
    0.6950   -1.6003    0.8178 N   0  0  0  0  0  0  0  0  0  0  0  0
    0.8777   -2.0908   -0.5246 C   0  0  2  0  0  0  0  0  0  0  0  0
    2.3561   -2.4154   -0.6980 C   0  0  0  0  0  0  0  0  0  0  0  0
    2.7950   -3.0615   -1.6475 O   0  0  0  0  0  0  0  0  0  0  0  0
    0.4239   -1.0717   -1.5700 C   0  0  0  0  0  0  0  0  0  0  0  0
   -1.0826   -0.8840   -1.6067 C   0  0  0  0  0  0  0  0  0  0  0  0
   -1.8924   -1.8033   -1.5314 O   0  0  0  0  0  0  0  0  0  0  0  0
   -1.4411    0.4417   -1.7293 N   0  0  0  0  0  0  0  0  0  0  0  0
    1.1810   -2.0803    1.5718 H   0  0  0  0  0  0  0  0  0  0  0  0
    0.2983   -3.0184   -0.5997 H   0  0  0  0  0  0  0  0  0  0  0  0
    0.8657   -0.0895   -1.3596 H   0  0  0  0  0  0  0  0  0  0  0  0
    0.7620   -1.3702   -2.5706 H   0  0  0  0  0  0  0  0  0  0  0  0
   -0.7366    1.1697   -1.7847 H   0  0  0  0  0  0  0  0  0  0  0  0
   -2.4103    0.7406   -1.7688 H   0  0  0  0  0  0  0  0  0  0  0  0
    3.1367   -1.8574    0.3045 N   0  0  0  0  0  0  0  0  0  0  0  0
    4.5716   -2.0103    0.3325 C   0  0  2  0  0  0  0  0  0  0  0  0
    5.1292   -1.4566   -0.9721 C   0  0  0  0  0  0  0  0  0  0  0  0
    4.4581   -1.3494   -1.9965 O   0  0  0  0  0  0  0  0  0  0  0  0
    4.9694   -3.4662    0.5191 C   0  0  0  0  0  0  0  0  0  0  0  0
    2.6969   -1.3159    1.0428 H   0  0  0  0  0  0  0  0  0  0  0  0
    4.9375   -1.4083    1.1714 H   0  0  0  0  0  0  0  0  0  0  0  0
    4.6114   -4.0850   -0.3118 H   0  0  0  0  0  0  0  0  0  0  0  0
    6.0576   -3.5770    0.5687 H   0  0  0  0  0  0  0  0  0  0  0  0
    4.5428   -3.8714    1.4430 H   0  0  0  0  0  0  0  0  0  0  0  0
    6.4757   -1.1364   -0.8700 N   0  0  0  0  0  0  0  0  0  0  0  0
    7.2367   -0.6046   -1.9764 C   0  0  0  0  0  0  0  0  0  0  0  0
    6.9476   -1.2398    0.0236 H   0  0  0  0  0  0  0  0  0  0  0  0
    7.7185   -1.4299   -2.5210 H   0  0  0  0  0  0  0  0  0  0  0  0
    6.5643   -0.0603   -2.6557 H   0  0  0  0  0  0  0  0  0  0  0  0
    8.0070    0.0819   -1.5950 H   0  0  0  0  0  0  0  0  0  0  0  0
  1  3  1  0  0  0  0
  1  7  1  0  0  0  0
  1  2  2  0  0  0  0
 21 22  1  0  0  0  0
 22 24  1  0  0  0  0
 22 23  2  0  0  0  0
 32 33  1  0  0  0  0
 33 41  1  0  0  0  0
 33 34  2  0  0  0  0
  8  9  1  0  0  0  0
  9 17  1  0  0  0  0
  9 10  2  0  0  0  0
 18 19  1  0  0  0  0
 19 31  1  0  0  0  0
 19 20  2  0  0  0  0
 32 35  1  0  0  0  0
  8 11  1  0  0  0  0
 41 42  1  0  0  0  0
 18 21  1  0  0  0  0
 31 32  1  0  0  0  0
  7  8  1  0  0  0  0
 17 18  1  0  0  0  0
  3  4  1  0  0  0  0
  3  5  1  0  0  0  0
  3  6  1  0  0  0  0
 35 38  1  0  0  0  0
 35 39  1  0  0  0  0
 35 40  1  0  0  0  0
 11 14  1  0  0  0  0
 11 15  1  0  0  0  0
 11 16  1  0  0  0  0
 42 44  1  0  0  0  0
 42 45  1  0  0  0  0
 42 46  1  0  0  0  0
 21 27  1  0  0  0  0
 21 28  1  0  0  0  0
 32 37  1  0  0  0  0
  8 13  1  0  0  0  0
 18 26  1  0  0  0  0
 24 29  1  0  0  0  0
 24 30  1  0  0  0  0
 41 43  1  0  0  0  0
  7 12  1  0  0  0  0
 31 36  1  0  0  0  0
 17 25  1  0  0  0  0
M  END
$$$$

  -OEChem-05262214473D

 46 45  0     1  0  0  0  0  0999 V2000
   -0.0543    1.9736    3.8406 C   0  0  0  0  0  0  0  0  0  0  0  0
    0.6744    1.6099    4.7562 O   0  0  0  0  0  0  0  0  0  0  0  0
   -0.5599    3.3779    3.8160 C   0  0  0  0  0  0  0  0  0  0  0  0
   -1.5202    3.4885    4.3450 H   0  0  0  0  0  0  0  0  0  0  0  0
    0.1282    4.0814    4.3116 H   0  0  0  0  0  0  0  0  0  0  0  0
   -0.7317    3.7994    2.8126 H   0  0  0  0  0  0  0  0  0  0  0  0
   -0.4812    1.1968    2.7762 N   0  0  0  0  0  0  0  0  0  0  0  0
   -0.1106   -0.1834    2.6051 C   0  0  2  0  0  0  0  0  0  0  0  0
   -0.0696   -0.4775    1.1113 C   0  0  0  0  0  0  0  0  0  0  0  0
   -0.6805    0.1900    0.2792 O   0  0  0  0  0  0  0  0  0  0  0  0
   -1.0852   -1.1101    3.3150 C   0  0  0  0  0  0  0  0  0  0  0  0
   -1.0883    1.6241    2.0791 H   0  0  0  0  0  0  0  0  0  0  0  0
    0.8937   -0.2959    3.0277 H   0  0  0  0  0  0  0  0  0  0  0  0
   -2.0970   -1.0114    2.9051 H   0  0  0  0  0  0  0  0  0  0  0  0
   -0.7860   -2.1580    3.2078 H   0  0  0  0  0  0  0  0  0  0  0  0
   -1.1357   -0.8775    4.3842 H   0  0  0  0  0  0  0  0  0  0  0  0
    0.6950   -1.6003    0.8178 N   0  0  0  0  0  0  0  0  0  0  0  0
    0.8777   -2.0908   -0.5246 C   0  0  2  0  0  0  0  0  0  0  0  0
    2.3561   -2.4154   -0.6980 C   0  0  0  0  0  0  0  0  0  0  0  0
    2.8355   -2.8188   -1.7558 O   0  0  0  0  0  0  0  0  0  0  0  0
    0.4239   -1.0717   -1.5700 C   0  0  0  0  0  0  0  0  0  0  0  0
   -1.0826   -0.8840   -1.6067 C   0  0  0  0  0  0  0  0  0  0  0  0
   -1.8924   -1.8033   -1.5314 O   0  0  0  0  0  0  0  0  0  0  0  0
   -1.4411    0.4417   -1.7293 N   0  0  0  0  0  0  0  0  0  0  0  0
    1.1810   -2.0803    1.5718 H   0  0  0  0  0  0  0  0  0  0  0  0
    0.2983   -3.0184   -0.5997 H   0  0  0  0  0  0  0  0  0  0  0  0
    0.8657   -0.0895   -1.3596 H   0  0  0  0  0  0  0  0  0  0  0  0
    0.7620   -1.3702   -2.5706 H   0  0  0  0  0  0  0  0  0  0  0  0
   -0.7366    1.1697   -1.7847 H   0  0  0  0  0  0  0  0  0  0  0  0
   -2.4103    0.7406   -1.7688 H   0  0  0  0  0  0  0  0  0  0  0  0
    3.0886   -2.1550    0.4515 N   0  0  0  0  0  0  0  0  0  0  0  0
    4.5156   -2.3623    0.5138 C   0  0  2  0  0  0  0  0  0  0  0  0
    5.1613   -1.5204   -0.5788 C   0  0  0  0  0  0  0  0  0  0  0  0
    4.5544   -1.1358   -1.5762 O   0  0  0  0  0  0  0  0  0  0  0  0
    4.8689   -3.8321    0.3477 C   0  0  0  0  0  0  0  0  0  0  0  0
    2.6183   -1.7999    1.2789 H   0  0  0  0  0  0  0  0  0  0  0  0
    4.8449   -2.0033    1.4950 H   0  0  0  0  0  0  0  0  0  0  0  0
    4.5468   -4.2097   -0.6296 H   0  0  0  0  0  0  0  0  0  0  0  0
    5.9496   -3.9915    0.4237 H   0  0  0  0  0  0  0  0  0  0  0  0
    4.3797   -4.4399    1.1165 H   0  0  0  0  0  0  0  0  0  0  0  0
    6.5064   -1.2854   -0.3302 N   0  0  0  0  0  0  0  0  0  0  0  0
    7.3429   -0.5217   -1.2263 C   0  0  0  0  0  0  0  0  0  0  0  0
    6.9223   -1.6263    0.5314 H   0  0  0  0  0  0  0  0  0  0  0  0
    7.8374   -1.2014   -1.9359 H   0  0  0  0  0  0  0  0  0  0  0  0
    6.7241    0.1995   -1.7802 H   0  0  0  0  0  0  0  0  0  0  0  0
    8.1046    0.0189   -0.6452 H   0  0  0  0  0  0  0  0  0  0  0  0
  1  3  1  0  0  0  0
  1  7  1  0  0  0  0
  1  2  2  0  0  0  0
 21 22  1  0  0  0  0
 22 24  1  0  0  0  0
 22 23  2  0  0  0  0
 32 33  1  0  0  0  0
 33 41  1  0  0  0  0
 33 34  2  0  0  0  0
  8  9  1  0  0  0  0
  9 17  1  0  0  0  0
  9 10  2  0  0  0  0
 18 19  1  0  0  0  0
 19 31  1  0  0  0  0
 19 20  2  0  0  0  0
 32 35  1  0  0  0  0
  8 11  1  0  0  0  0
 41 42  1  0  0  0  0
 18 21  1  0  0  0  0
 31 32  1  0  0  0  0
  7  8  1  0  0  0  0
 17 18  1  0  0  0  0
  3  4  1  0  0  0  0
  3  5  1  0  0  0  0
  3  6  1  0  0  0  0
 35 38  1  0  0  0  0
 35 39  1  0  0  0  0
 35 40  1  0  0  0  0
 11 14  1  0  0  0  0
 11 15  1  0  0  0  0
 11 16  1  0  0  0  0
 42 44  1  0  0  0  0
 42 45  1  0  0  0  0
 42 46  1  0  0  0  0
 21 27  1  0  0  0  0
 21 28  1  0  0  0  0
 32 37  1  0  0  0  0
  8 13  1  0  0  0  0
 18 26  1  0  0  0  0
 24 29  1  0  0  0  0
 24 30  1  0  0  0  0
 41 43  1  0  0  0  0
  7 12  1  0  0  0  0
 31 36  1  0  0  0  0
 17 25  1  0  0  0  0
M  END
$$$$

  -OEChem-05262214473D

 46 45  0     1  0  0  0  0  0999 V2000
   -0.0543    1.9736    3.8406 C   0  0  0  0  0  0  0  0  0  0  0  0
    0.6744    1.6099    4.7562 O   0  0  0  0  0  0  0  0  0  0  0  0
   -0.5599    3.3779    3.8160 C   0  0  0  0  0  0  0  0  0  0  0  0
   -1.5202    3.4885    4.3450 H   0  0  0  0  0  0  0  0  0  0  0  0
    0.1282    4.0814    4.3116 H   0  0  0  0  0  0  0  0  0  0  0  0
   -0.7317    3.7994    2.8126 H   0  0  0  0  0  0  0  0  0  0  0  0
   -0.4812    1.1968    2.7762 N   0  0  0  0  0  0  0  0  0  0  0  0
   -0.1106   -0.1834    2.6051 C   0  0  2  0  0  0  0  0  0  0  0  0
   -0.0696   -0.4775    1.1113 C   0  0  0  0  0  0  0  0  0  0  0  0
   -0.6805    0.1900    0.2792 O   0  0  0  0  0  0  0  0  0  0  0  0
   -1.0852   -1.1101    3.3150 C   0  0  0  0  0  0  0  0  0  0  0  0
   -1.0883    1.6241    2.0791 H   0  0  0  0  0  0  0  0  0  0  0  0
    0.8937   -0.2959    3.0277 H   0  0  0  0  0  0  0  0  0  0  0  0
   -2.0970   -1.0114    2.9051 H   0  0  0  0  0  0  0  0  0  0  0  0
   -0.7860   -2.1580    3.2078 H   0  0  0  0  0  0  0  0  0  0  0  0
   -1.1357   -0.8775    4.3842 H   0  0  0  0  0  0  0  0  0  0  0  0
    0.6950   -1.6003    0.8178 N   0  0  0  0  0  0  0  0  0  0  0  0
    0.8777   -2.0908   -0.5246 C   0  0  2  0  0  0  0  0  0  0  0  0
    2.3561   -2.4154   -0.6980 C   0  0  0  0  0  0  0  0  0  0  0  0
    2.8879   -2.5584   -1.7972 O   0  0  0  0  0  0  0  0  0  0  0  0
    0.4239   -1.0717   -1.5700 C   0  0  0  0  0  0  0  0  0  0  0  0
   -1.0826   -0.8840   -1.6067 C   0  0  0  0  0  0  0  0  0  0  0  0
   -1.8924   -1.8033   -1.5314 O   0  0  0  0  0  0  0  0  0  0  0  0
   -1.4411    0.4417   -1.7293 N   0  0  0  0  0  0  0  0  0  0  0  0
    1.1810   -2.0803    1.5718 H   0  0  0  0  0  0  0  0  0  0  0  0
    0.2983   -3.0184   -0.5997 H   0  0  0  0  0  0  0  0  0  0  0  0
    0.8657   -0.0895   -1.3596 H   0  0  0  0  0  0  0  0  0  0  0  0
    0.7620   -1.3702   -2.5706 H   0  0  0  0  0  0  0  0  0  0  0  0
   -0.7366    1.1697   -1.7847 H   0  0  0  0  0  0  0  0  0  0  0  0
   -2.4103    0.7406   -1.7688 H   0  0  0  0  0  0  0  0  0  0  0  0
    3.0253   -2.4780    0.5161 N   0  0  0  0  0  0  0  0  0  0  0  0
    4.4411   -2.7463    0.5974 C   0  0  2  0  0  0  0  0  0  0  0  0
    5.1688   -1.6818   -0.2131 C   0  0  0  0  0  0  0  0  0  0  0  0
    4.6304   -1.0379   -1.1112 O   0  0  0  0  0  0  0  0  0  0  0  0
    4.7706   -4.1396    0.0846 C   0  0  0  0  0  0  0  0  0  0  0  0
    2.5151   -2.3244    1.3810 H   0  0  0  0  0  0  0  0  0  0  0  0
    4.7200   -2.6565    1.6529 H   0  0  0  0  0  0  0  0  0  0  0  0
    4.4982   -4.2485   -0.9715 H   0  0  0  0  0  0  0  0  0  0  0  0
    5.8410   -4.3522    0.1734 H   0  0  0  0  0  0  0  0  0  0  0  0
    4.2234   -4.9021    0.6493 H   0  0  0  0  0  0  0  0  0  0  0  0
    6.5018   -1.5657    0.1554 N   0  0  0  0  0  0  0  0  0  0  0  0
    7.4066   -0.6331   -0.4751 C   0  0  0  0  0  0  0  0  0  0  0  0
    6.8585   -2.1265    0.9236 H   0  0  0  0  0  0  0  0  0  0  0  0
    7.9266   -1.1312   -1.3067 H   0  0  0  0  0  0  0  0  0  0  0  0
    6.8378    0.2259   -0.8604 H   0  0  0  0  0  0  0  0  0  0  0  0
    8.1446   -0.2834    0.2618 H   0  0  0  0  0  0  0  0  0  0  0  0
  1  3  1  0  0  0  0
  1  7  1  0  0  0  0
  1  2  2  0  0  0  0
 21 22  1  0  0  0  0
 22 24  1  0  0  0  0
 22 23  2  0  0  0  0
 32 33  1  0  0  0  0
 33 41  1  0  0  0  0
 33 34  2  0  0  0  0
  8  9  1  0  0  0  0
  9 17  1  0  0  0  0
  9 10  2  0  0  0  0
 18 19  1  0  0  0  0
 19 31  1  0  0  0  0
 19 20  2  0  0  0  0
 32 35  1  0  0  0  0
  8 11  1  0  0  0  0
 41 42  1  0  0  0  0
 18 21  1  0  0  0  0
 31 32  1  0  0  0  0
  7  8  1  0  0  0  0
 17 18  1  0  0  0  0
  3  4  1  0  0  0  0
  3  5  1  0  0  0  0
  3  6  1  0  0  0  0
 35 38  1  0  0  0  0
 35 39  1  0  0  0  0
 35 40  1  0  0  0  0
 11 14  1  0  0  0  0
 11 15  1  0  0  0  0
 11 16  1  0  0  0  0
 42 44  1  0  0  0  0
 42 45  1  0  0  0  0
 42 46  1  0  0  0  0
 21 27  1  0  0  0  0
 21 28  1  0  0  0  0
 32 37  1  0  0  0  0
  8 13  1  0  0  0  0
 18 26  1  0  0  0  0
 24 29  1  0  0  0  0
 24 30  1  0  0  0  0
 41 43  1  0  0  0  0
  7 12  1  0  0  0  0
 31 36  1  0  0  0  0
 17 25  1  0  0  0  0
M  END
$$$$

  -OEChem-05262214473D

 46 45  0     1  0  0  0  0  0999 V2000
   -0.0543    1.9736    3.8406 C   0  0  0  0  0  0  0  0  0  0  0  0
    0.6744    1.6099    4.7562 O   0  0  0  0  0  0  0  0  0  0  0  0
   -0.5599    3.3779    3.8160 C   0  0  0  0  0  0  0  0  0  0  0  0
   -1.5202    3.4885    4.3450 H   0  0  0  0  0  0  0  0  0  0  0  0
    0.1282    4.0814    4.3116 H   0  0  0  0  0  0  0  0  0  0  0  0
   -0.7317    3.7994    2.8126 H   0  0  0  0  0  0  0  0  0  0  0  0
   -0.4812    1.1968    2.7762 N   0  0  0  0  0  0  0  0  0  0  0  0
   -0.1106   -0.1834    2.6051 C   0  0  2  0  0  0  0  0  0  0  0  0
   -0.0696   -0.4775    1.1113 C   0  0  0  0  0  0  0  0  0  0  0  0
   -0.6805    0.1900    0.2792 O   0  0  0  0  0  0  0  0  0  0  0  0
   -1.0852   -1.1101    3.3150 C   0  0  0  0  0  0  0  0  0  0  0  0
   -1.0883    1.6241    2.0791 H   0  0  0  0  0  0  0  0  0  0  0  0
    0.8937   -0.2959    3.0277 H   0  0  0  0  0  0  0  0  0  0  0  0
   -2.0970   -1.0114    2.9051 H   0  0  0  0  0  0  0  0  0  0  0  0
   -0.7860   -2.1580    3.2078 H   0  0  0  0  0  0  0  0  0  0  0  0
   -1.1357   -0.8775    4.3842 H   0  0  0  0  0  0  0  0  0  0  0  0
    0.6950   -1.6003    0.8178 N   0  0  0  0  0  0  0  0  0  0  0  0
    0.8777   -2.0908   -0.5246 C   0  0  2  0  0  0  0  0  0  0  0  0
    2.3561   -2.4154   -0.6980 C   0  0  0  0  0  0  0  0  0  0  0  0
    2.9484   -2.2980   -1.7690 O   0  0  0  0  0  0  0  0  0  0  0  0
    0.4239   -1.0717   -1.5700 C   0  0  0  0  0  0  0  0  0  0  0  0
   -1.0826   -0.8840   -1.6067 C   0  0  0  0  0  0  0  0  0  0  0  0
   -1.8924   -1.8033   -1.5314 O   0  0  0  0  0  0  0  0  0  0  0  0
   -1.4411    0.4417   -1.7293 N   0  0  0  0  0  0  0  0  0  0  0  0
    1.1810   -2.0803    1.5718 H   0  0  0  0  0  0  0  0  0  0  0  0
    0.2983   -3.0184   -0.5997 H   0  0  0  0  0  0  0  0  0  0  0  0
    0.8657   -0.0895   -1.3596 H   0  0  0  0  0  0  0  0  0  0  0  0
    0.7620   -1.3702   -2.5706 H   0  0  0  0  0  0  0  0  0  0  0  0
   -0.7366    1.1697   -1.7847 H   0  0  0  0  0  0  0  0  0  0  0  0
   -2.4103    0.7406   -1.7688 H   0  0  0  0  0  0  0  0  0  0  0  0
    2.9510   -2.8043    0.4939 N   0  0  0  0  0  0  0  0  0  0  0  0
    4.3532   -3.1359    0.5776 C   0  0  2  0  0  0  0  0  0  0  0  0
    5.1511   -1.9297    0.1000 C   0  0  0  0  0  0  0  0  0  0  0  0
    4.6811   -1.0623   -0.6333 O   0  0  0  0  0  0  0  0  0  0  0  0
    4.6810   -4.3676   -0.2521 C   0  0  0  0  0  0  0  0  0  0  0  0
    2.3944   -2.8536    1.3422 H   0  0  0  0  0  0  0  0  0  0  0  0
    4.5713   -3.3235    1.6346 H   0  0  0  0  0  0  0  0  0  0  0  0
    4.4689   -4.1986   -1.3141 H   0  0  0  0  0  0  0  0  0  0  0  0
    5.7393   -4.6346   -0.1648 H   0  0  0  0  0  0  0  0  0  0  0  0
    4.0846   -5.2267    0.0734 H   0  0  0  0  0  0  0  0  0  0  0  0
    6.4623   -1.9584    0.5538 N   0  0  0  0  0  0  0  0  0  0  0  0
    7.4234   -0.9313    0.2260 C   0  0  0  0  0  0  0  0  0  0  0  0
    6.7605   -2.7062    1.1732 H   0  0  0  0  0  0  0  0  0  0  0  0
    7.9802   -1.2240   -0.6764 H   0  0  0  0  0  0  0  0  0  0  0  0
    6.8976    0.0170    0.0409 H   0  0  0  0  0  0  0  0  0  0  0  0
    8.1244   -0.8044    1.0642 H   0  0  0  0  0  0  0  0  0  0  0  0
  1  3  1  0  0  0  0
  1  7  1  0  0  0  0
  1  2  2  0  0  0  0
 21 22  1  0  0  0  0
 22 24  1  0  0  0  0
 22 23  2  0  0  0  0
 32 33  1  0  0  0  0
 33 41  1  0  0  0  0
 33 34  2  0  0  0  0
  8  9  1  0  0  0  0
  9 17  1  0  0  0  0
  9 10  2  0  0  0  0
 18 19  1  0  0  0  0
 19 31  1  0  0  0  0
 19 20  2  0  0  0  0
 32 35  1  0  0  0  0
  8 11  1  0  0  0  0
 41 42  1  0  0  0  0
 18 21  1  0  0  0  0
 31 32  1  0  0  0  0
  7  8  1  0  0  0  0
 17 18  1  0  0  0  0
  3  4  1  0  0  0  0
  3  5  1  0  0  0  0
  3  6  1  0  0  0  0
 35 38  1  0  0  0  0
 35 39  1  0  0  0  0
 35 40  1  0  0  0  0
 11 14  1  0  0  0  0
 11 15  1  0  0  0  0
 11 16  1  0  0  0  0
 42 44  1  0  0  0  0
 42 45  1  0  0  0  0
 42 46  1  0  0  0  0
 21 27  1  0  0  0  0
 21 28  1  0  0  0  0
 32 37  1  0  0  0  0
  8 13  1  0  0  0  0
 18 26  1  0  0  0  0
 24 29  1  0  0  0  0
 24 30  1  0  0  0  0
 41 43  1  0  0  0  0
  7 12  1  0  0  0  0
 31 36  1  0  0  0  0
 17 25  1  0  0  0  0
M  END
$$$$

  -OEChem-05262214473D

 46 45  0     1  0  0  0  0  0999 V2000
   -0.0543    1.9736    3.8406 C   0  0  0  0  0  0  0  0  0  0  0  0
    0.6744    1.6099    4.7562 O   0  0  0  0  0  0  0  0  0  0  0  0
   -0.5599    3.3779    3.8160 C   0  0  0  0  0  0  0  0  0  0  0  0
   -1.5202    3.4885    4.3450 H   0  0  0  0  0  0  0  0  0  0  0  0
    0.1282    4.0814    4.3116 H   0  0  0  0  0  0  0  0  0  0  0  0
   -0.7317    3.7994    2.8126 H   0  0  0  0  0  0  0  0  0  0  0  0
   -0.4812    1.1968    2.7762 N   0  0  0  0  0  0  0  0  0  0  0  0
   -0.1106   -0.1834    2.6051 C   0  0  2  0  0  0  0  0  0  0  0  0
   -0.0696   -0.4775    1.1113 C   0  0  0  0  0  0  0  0  0  0  0  0
   -0.6805    0.1900    0.2792 O   0  0  0  0  0  0  0  0  0  0  0  0
   -1.0852   -1.1101    3.3150 C   0  0  0  0  0  0  0  0  0  0  0  0
   -1.0883    1.6241    2.0791 H   0  0  0  0  0  0  0  0  0  0  0  0
    0.8937   -0.2959    3.0277 H   0  0  0  0  0  0  0  0  0  0  0  0
   -2.0970   -1.0114    2.9051 H   0  0  0  0  0  0  0  0  0  0  0  0
   -0.7860   -2.1580    3.2078 H   0  0  0  0  0  0  0  0  0  0  0  0
   -1.1357   -0.8775    4.3842 H   0  0  0  0  0  0  0  0  0  0  0  0
    0.6950   -1.6003    0.8178 N   0  0  0  0  0  0  0  0  0  0  0  0
    0.8777   -2.0908   -0.5246 C   0  0  2  0  0  0  0  0  0  0  0  0
    2.3561   -2.4154   -0.6980 C   0  0  0  0  0  0  0  0  0  0  0  0
    3.0129   -2.0554   -1.6729 O   0  0  0  0  0  0  0  0  0  0  0  0
    0.4239   -1.0717   -1.5700 C   0  0  0  0  0  0  0  0  0  0  0  0
   -1.0826   -0.8840   -1.6067 C   0  0  0  0  0  0  0  0  0  0  0  0
   -1.8924   -1.8033   -1.5314 O   0  0  0  0  0  0  0  0  0  0  0  0
   -1.4411    0.4417   -1.7293 N   0  0  0  0  0  0  0  0  0  0  0  0
    1.1810   -2.0803    1.5718 H   0  0  0  0  0  0  0  0  0  0  0  0
    0.2983   -3.0184   -0.5997 H   0  0  0  0  0  0  0  0  0  0  0  0
    0.8657   -0.0895   -1.3596 H   0  0  0  0  0  0  0  0  0  0  0  0
    0.7620   -1.3702   -2.5706 H   0  0  0  0  0  0  0  0  0  0  0  0
   -0.7366    1.1697   -1.7847 H   0  0  0  0  0  0  0  0  0  0  0  0
   -2.4103    0.7406   -1.7688 H   0  0  0  0  0  0  0  0  0  0  0  0
    2.8709   -3.1118    0.3864 N   0  0  0  0  0  0  0  0  0  0  0  0
    4.2580   -3.5047    0.4558 C   0  0  2  0  0  0  0  0  0  0  0  0
    5.1094   -2.2474    0.3391 C   0  0  0  0  0  0  0  0  0  0  0  0
    4.7030   -1.2074   -0.1751 O   0  0  0  0  0  0  0  0  0  0  0  0
    4.6063   -4.5006   -0.6395 C   0  0  0  0  0  0  0  0  0  0  0  0
    2.2643   -3.3514    1.1651 H   0  0  0  0  0  0  0  0  0  0  0  0
    4.4092   -3.9588    1.4412 H   0  0  0  0  0  0  0  0  0  0  0  0
    4.4610   -4.0635   -1.6341 H   0  0  0  0  0  0  0  0  0  0  0  0
    5.6515   -4.8194   -0.5681 H   0  0  0  0  0  0  0  0  0  0  0  0
    3.9726   -5.3915   -0.5722 H   0  0  0  0  0  0  0  0  0  0  0  0
    6.3906   -2.4365    0.8379 N   0  0  0  0  0  0  0  0  0  0  0  0
    7.3921   -1.3959    0.8293 C   0  0  0  0  0  0  0  0  0  0  0  0
    6.6349   -3.3260    1.2633 H   0  0  0  0  0  0  0  0  0  0  0  0
    7.9944   -1.4735   -0.0879 H   0  0  0  0  0  0  0  0  0  0  0  0
    6.8996   -0.4129    0.8623 H   0  0  0  0  0  0  0  0  0  0  0  0
    8.0452   -1.5085    1.7073 H   0  0  0  0  0  0  0  0  0  0  0  0
  1  3  1  0  0  0  0
  1  7  1  0  0  0  0
  1  2  2  0  0  0  0
 21 22  1  0  0  0  0
 22 24  1  0  0  0  0
 22 23  2  0  0  0  0
 32 33  1  0  0  0  0
 33 41  1  0  0  0  0
 33 34  2  0  0  0  0
  8  9  1  0  0  0  0
  9 17  1  0  0  0  0
  9 10  2  0  0  0  0
 18 19  1  0  0  0  0
 19 31  1  0  0  0  0
 19 20  2  0  0  0  0
 32 35  1  0  0  0  0
  8 11  1  0  0  0  0
 41 42  1  0  0  0  0
 18 21  1  0  0  0  0
 31 32  1  0  0  0  0
  7  8  1  0  0  0  0
 17 18  1  0  0  0  0
  3  4  1  0  0  0  0
  3  5  1  0  0  0  0
  3  6  1  0  0  0  0
 35 38  1  0  0  0  0
 35 39  1  0  0  0  0
 35 40  1  0  0  0  0
 11 14  1  0  0  0  0
 11 15  1  0  0  0  0
 11 16  1  0  0  0  0
 42 44  1  0  0  0  0
 42 45  1  0  0  0  0
 42 46  1  0  0  0  0
 21 27  1  0  0  0  0
 21 28  1  0  0  0  0
 32 37  1  0  0  0  0
  8 13  1  0  0  0  0
 18 26  1  0  0  0  0
 24 29  1  0  0  0  0
 24 30  1  0  0  0  0
 41 43  1  0  0  0  0
  7 12  1  0  0  0  0
 31 36  1  0  0  0  0
 17 25  1  0  0  0  0
M  END
$$$$

  -OEChem-05262214473D

 46 45  0     1  0  0  0  0  0999 V2000
   -0.0543    1.9736    3.8406 C   0  0  0  0  0  0  0  0  0  0  0  0
    0.6744    1.6099    4.7562 O   0  0  0  0  0  0  0  0  0  0  0  0
   -0.5599    3.3779    3.8160 C   0  0  0  0  0  0  0  0  0  0  0  0
   -1.5202    3.4885    4.3450 H   0  0  0  0  0  0  0  0  0  0  0  0
    0.1282    4.0814    4.3116 H   0  0  0  0  0  0  0  0  0  0  0  0
   -0.7317    3.7994    2.8126 H   0  0  0  0  0  0  0  0  0  0  0  0
   -0.4812    1.1968    2.7762 N   0  0  0  0  0  0  0  0  0  0  0  0
   -0.1106   -0.1834    2.6051 C   0  0  2  0  0  0  0  0  0  0  0  0
   -0.0696   -0.4775    1.1113 C   0  0  0  0  0  0  0  0  0  0  0  0
   -0.6805    0.1900    0.2792 O   0  0  0  0  0  0  0  0  0  0  0  0
   -1.0852   -1.1101    3.3150 C   0  0  0  0  0  0  0  0  0  0  0  0
   -1.0883    1.6241    2.0791 H   0  0  0  0  0  0  0  0  0  0  0  0
    0.8937   -0.2959    3.0277 H   0  0  0  0  0  0  0  0  0  0  0  0
   -2.0970   -1.0114    2.9051 H   0  0  0  0  0  0  0  0  0  0  0  0
   -0.7860   -2.1580    3.2078 H   0  0  0  0  0  0  0  0  0  0  0  0
   -1.1357   -0.8775    4.3842 H   0  0  0  0  0  0  0  0  0  0  0  0
    0.6950   -1.6003    0.8178 N   0  0  0  0  0  0  0  0  0  0  0  0
    0.8777   -2.0908   -0.5246 C   0  0  2  0  0  0  0  0  0  0  0  0
    2.3561   -2.4154   -0.6980 C   0  0  0  0  0  0  0  0  0  0  0  0
    3.0771   -1.8470   -1.5156 O   0  0  0  0  0  0  0  0  0  0  0  0
    0.4239   -1.0717   -1.5700 C   0  0  0  0  0  0  0  0  0  0  0  0
   -1.0826   -0.8840   -1.6067 C   0  0  0  0  0  0  0  0  0  0  0  0
   -1.8924   -1.8033   -1.5314 O   0  0  0  0  0  0  0  0  0  0  0  0
   -1.4411    0.4417   -1.7293 N   0  0  0  0  0  0  0  0  0  0  0  0
    1.1810   -2.0803    1.5718 H   0  0  0  0  0  0  0  0  0  0  0  0
    0.2983   -3.0184   -0.5997 H   0  0  0  0  0  0  0  0  0  0  0  0
    0.8657   -0.0895   -1.3596 H   0  0  0  0  0  0  0  0  0  0  0  0
    0.7620   -1.3702   -2.5706 H   0  0  0  0  0  0  0  0  0  0  0  0
   -0.7366    1.1697   -1.7847 H   0  0  0  0  0  0  0  0  0  0  0  0
   -2.4103    0.7406   -1.7688 H   0  0  0  0  0  0  0  0  0  0  0  0
    2.7904   -3.3794    0.2010 N   0  0  0  0  0  0  0  0  0  0  0  0
    4.1618   -3.8276    0.2402 C   0  0  2  0  0  0  0  0  0  0  0  0
    5.0466   -2.6130    0.4881 C   0  0  0  0  0  0  0  0  0  0  0  0
    4.6946   -1.4633    0.2323 O   0  0  0  0  0  0  0  0  0  0  0  0
    4.5517   -4.5296   -1.0512 C   0  0  0  0  0  0  0  0  0  0  0  0
    2.1337   -3.7840    0.8619 H   0  0  0  0  0  0  0  0  0  0  0  0
    4.2444   -4.5190    1.0858 H   0  0  0  0  0  0  0  0  0  0  0  0
    4.4750   -3.8524   -1.9098 H   0  0  0  0  0  0  0  0  0  0  0  0
    5.5833   -4.8941   -1.0089 H   0  0  0  0  0  0  0  0  0  0  0  0
    3.8953   -5.3852   -1.2432 H   0  0  0  0  0  0  0  0  0  0  0  0
    6.2917   -2.9677    0.9882 N   0  0  0  0  0  0  0  0  0  0  0  0
    7.3150   -1.9953    1.2936 C   0  0  0  0  0  0  0  0  0  0  0  0
    6.4905   -3.9436    1.1878 H   0  0  0  0  0  0  0  0  0  0  0  0
    7.9684   -1.8628    0.4187 H   0  0  0  0  0  0  0  0  0  0  0  0
    6.8435   -1.0345    1.5479 H   0  0  0  0  0  0  0  0  0  0  0  0
    7.9125   -2.3478    2.1472 H   0  0  0  0  0  0  0  0  0  0  0  0
  1  3  1  0  0  0  0
  1  7  1  0  0  0  0
  1  2  2  0  0  0  0
 21 22  1  0  0  0  0
 22 24  1  0  0  0  0
 22 23  2  0  0  0  0
 32 33  1  0  0  0  0
 33 41  1  0  0  0  0
 33 34  2  0  0  0  0
  8  9  1  0  0  0  0
  9 17  1  0  0  0  0
  9 10  2  0  0  0  0
 18 19  1  0  0  0  0
 19 31  1  0  0  0  0
 19 20  2  0  0  0  0
 32 35  1  0  0  0  0
  8 11  1  0  0  0  0
 41 42  1  0  0  0  0
 18 21  1  0  0  0  0
 31 32  1  0  0  0  0
  7  8  1  0  0  0  0
 17 18  1  0  0  0  0
  3  4  1  0  0  0  0
  3  5  1  0  0  0  0
  3  6  1  0  0  0  0
 35 38  1  0  0  0  0
 35 39  1  0  0  0  0
 35 40  1  0  0  0  0
 11 14  1  0  0  0  0
 11 15  1  0  0  0  0
 11 16  1  0  0  0  0
 42 44  1  0  0  0  0
 42 45  1  0  0  0  0
 42 46  1  0  0  0  0
 21 27  1  0  0  0  0
 21 28  1  0  0  0  0
 32 37  1  0  0  0  0
  8 13  1  0  0  0  0
 18 26  1  0  0  0  0
 24 29  1  0  0  0  0
 24 30  1  0  0  0  0
 41 43  1  0  0  0  0
  7 12  1  0  0  0  0
 31 36  1  0  0  0  0
 17 25  1  0  0  0  0
M  END
$$$$

  -OEChem-05262214473D

 46 45  0     1  0  0  0  0  0999 V2000
   -0.0543    1.9736    3.8406 C   0  0  0  0  0  0  0  0  0  0  0  0
    0.6744    1.6099    4.7562 O   0  0  0  0  0  0  0  0  0  0  0  0
   -0.5599    3.3779    3.8160 C   0  0  0  0  0  0  0  0  0  0  0  0
   -1.5202    3.4885    4.3450 H   0  0  0  0  0  0  0  0  0  0  0  0
    0.1282    4.0814    4.3116 H   0  0  0  0  0  0  0  0  0  0  0  0
   -0.7317    3.7994    2.8126 H   0  0  0  0  0  0  0  0  0  0  0  0
   -0.4812    1.1968    2.7762 N   0  0  0  0  0  0  0  0  0  0  0  0
   -0.1106   -0.1834    2.6051 C   0  0  2  0  0  0  0  0  0  0  0  0
   -0.0696   -0.4775    1.1113 C   0  0  0  0  0  0  0  0  0  0  0  0
   -0.6805    0.1900    0.2792 O   0  0  0  0  0  0  0  0  0  0  0  0
   -1.0852   -1.1101    3.3150 C   0  0  0  0  0  0  0  0  0  0  0  0
   -1.0883    1.6241    2.0791 H   0  0  0  0  0  0  0  0  0  0  0  0
    0.8937   -0.2959    3.0277 H   0  0  0  0  0  0  0  0  0  0  0  0
   -2.0970   -1.0114    2.9051 H   0  0  0  0  0  0  0  0  0  0  0  0
   -0.7860   -2.1580    3.2078 H   0  0  0  0  0  0  0  0  0  0  0  0
   -1.1357   -0.8775    4.3842 H   0  0  0  0  0  0  0  0  0  0  0  0
    0.6950   -1.6003    0.8178 N   0  0  0  0  0  0  0  0  0  0  0  0
    0.8777   -2.0908   -0.5246 C   0  0  2  0  0  0  0  0  0  0  0  0
    2.3561   -2.4154   -0.6980 C   0  0  0  0  0  0  0  0  0  0  0  0
    3.1366   -1.6872   -1.3079 O   0  0  0  0  0  0  0  0  0  0  0  0
    0.4239   -1.0717   -1.5700 C   0  0  0  0  0  0  0  0  0  0  0  0
   -1.0826   -0.8840   -1.6067 C   0  0  0  0  0  0  0  0  0  0  0  0
   -1.8924   -1.8033   -1.5314 O   0  0  0  0  0  0  0  0  0  0  0  0
   -1.4411    0.4417   -1.7293 N   0  0  0  0  0  0  0  0  0  0  0  0
    1.1810   -2.0803    1.5718 H   0  0  0  0  0  0  0  0  0  0  0  0
    0.2983   -3.0184   -0.5997 H   0  0  0  0  0  0  0  0  0  0  0  0
    0.8657   -0.0895   -1.3596 H   0  0  0  0  0  0  0  0  0  0  0  0
    0.7620   -1.3702   -2.5706 H   0  0  0  0  0  0  0  0  0  0  0  0
   -0.7366    1.1697   -1.7847 H   0  0  0  0  0  0  0  0  0  0  0  0
   -2.4103    0.7406   -1.7688 H   0  0  0  0  0  0  0  0  0  0  0  0
    2.7150   -3.5889   -0.0499 N   0  0  0  0  0  0  0  0  0  0  0  0
    4.0713   -4.0824   -0.0544 C   0  0  2  0  0  0  0  0  0  0  0  0
    4.9669   -3.0017    0.5367 C   0  0  0  0  0  0  0  0  0  0  0  0
    4.6565   -1.8125    0.5611 O   0  0  0  0  0  0  0  0  0  0  0  0
    4.5207   -4.4525   -1.4593 C   0  0  0  0  0  0  0  0  0  0  0  0
    2.0116   -4.1219    0.4532 H   0  0  0  0  0  0  0  0  0  0  0  0
    4.0884   -4.9661    0.5928 H   0  0  0  0  0  0  0  0  0  0  0  0
    4.5100   -3.5797   -2.1222 H   0  0  0  0  0  0  0  0  0  0  0  0
    5.5397   -4.8535   -1.4572 H   0  0  0  0  0  0  0  0  0  0  0  0
    3.8578   -5.2083   -1.8941 H   0  0  0  0  0  0  0  0  0  0  0  0
    6.1721   -3.5155    0.9946 N   0  0  0  0  0  0  0  0  0  0  0  0
    7.1972   -2.6886    1.5873 C   0  0  0  0  0  0  0  0  0  0  0  0
    6.3369   -4.5169    0.9517 H   0  0  0  0  0  0  0  0  0  0  0  0
    7.9038   -2.3652    0.8088 H   0  0  0  0  0  0  0  0  0  0  0  0
    6.7333   -1.8055    2.0509 H   0  0  0  0  0  0  0  0  0  0  0  0
    7.7354   -3.2651    2.3541 H   0  0  0  0  0  0  0  0  0  0  0  0
  1  3  1  0  0  0  0
  1  7  1  0  0  0  0
  1  2  2  0  0  0  0
 21 22  1  0  0  0  0
 22 24  1  0  0  0  0
 22 23  2  0  0  0  0
 32 33  1  0  0  0  0
 33 41  1  0  0  0  0
 33 34  2  0  0  0  0
  8  9  1  0  0  0  0
  9 17  1  0  0  0  0
  9 10  2  0  0  0  0
 18 19  1  0  0  0  0
 19 31  1  0  0  0  0
 19 20  2  0  0  0  0
 32 35  1  0  0  0  0
  8 11  1  0  0  0  0
 41 42  1  0  0  0  0
 18 21  1  0  0  0  0
 31 32  1  0  0  0  0
  7  8  1  0  0  0  0
 17 18  1  0  0  0  0
  3  4  1  0  0  0  0
  3  5  1  0  0  0  0
  3  6  1  0  0  0  0
 35 38  1  0  0  0  0
 35 39  1  0  0  0  0
 35 40  1  0  0  0  0
 11 14  1  0  0  0  0
 11 15  1  0  0  0  0
 11 16  1  0  0  0  0
 42 44  1  0  0  0  0
 42 45  1  0  0  0  0
 42 46  1  0  0  0  0
 21 27  1  0  0  0  0
 21 28  1  0  0  0  0
 32 37  1  0  0  0  0
  8 13  1  0  0  0  0
 18 26  1  0  0  0  0
 24 29  1  0  0  0  0
 24 30  1  0  0  0  0
 41 43  1  0  0  0  0
  7 12  1  0  0  0  0
 31 36  1  0  0  0  0
 17 25  1  0  0  0  0
M  END
$$$$

  -OEChem-05262214473D

 46 45  0     1  0  0  0  0  0999 V2000
   -0.0543    1.9736    3.8406 C   0  0  0  0  0  0  0  0  0  0  0  0
    0.6744    1.6099    4.7562 O   0  0  0  0  0  0  0  0  0  0  0  0
   -0.5599    3.3779    3.8160 C   0  0  0  0  0  0  0  0  0  0  0  0
   -1.5202    3.4885    4.3450 H   0  0  0  0  0  0  0  0  0  0  0  0
    0.1282    4.0814    4.3116 H   0  0  0  0  0  0  0  0  0  0  0  0
   -0.7317    3.7994    2.8126 H   0  0  0  0  0  0  0  0  0  0  0  0
   -0.4812    1.1968    2.7762 N   0  0  0  0  0  0  0  0  0  0  0  0
   -0.1106   -0.1834    2.6051 C   0  0  2  0  0  0  0  0  0  0  0  0
   -0.0696   -0.4775    1.1113 C   0  0  0  0  0  0  0  0  0  0  0  0
   -0.6805    0.1900    0.2792 O   0  0  0  0  0  0  0  0  0  0  0  0
   -1.0852   -1.1101    3.3150 C   0  0  0  0  0  0  0  0  0  0  0  0
   -1.0883    1.6241    2.0791 H   0  0  0  0  0  0  0  0  0  0  0  0
    0.8937   -0.2959    3.0277 H   0  0  0  0  0  0  0  0  0  0  0  0
   -2.0970   -1.0114    2.9051 H   0  0  0  0  0  0  0  0  0  0  0  0
   -0.7860   -2.1580    3.2078 H   0  0  0  0  0  0  0  0  0  0  0  0
   -1.1357   -0.8775    4.3842 H   0  0  0  0  0  0  0  0  0  0  0  0
    0.6950   -1.6003    0.8178 N   0  0  0  0  0  0  0  0  0  0  0  0
    0.8777   -2.0908   -0.5246 C   0  0  2  0  0  0  0  0  0  0  0  0
    2.3561   -2.4154   -0.6980 C   0  0  0  0  0  0  0  0  0  0  0  0
    3.1873   -1.5867   -1.0637 O   0  0  0  0  0  0  0  0  0  0  0  0
    0.4239   -1.0717   -1.5700 C   0  0  0  0  0  0  0  0  0  0  0  0
   -1.0826   -0.8840   -1.6067 C   0  0  0  0  0  0  0  0  0  0  0  0
   -1.8924   -1.8033   -1.5314 O   0  0  0  0  0  0  0  0  0  0  0  0
   -1.4411    0.4417   -1.7293 N   0  0  0  0  0  0  0  0  0  0  0  0
    1.1810   -2.0803    1.5718 H   0  0  0  0  0  0  0  0  0  0  0  0
    0.2983   -3.0184   -0.5997 H   0  0  0  0  0  0  0  0  0  0  0  0
    0.8657   -0.0895   -1.3596 H   0  0  0  0  0  0  0  0  0  0  0  0
    0.7620   -1.3702   -2.5706 H   0  0  0  0  0  0  0  0  0  0  0  0
   -0.7366    1.1697   -1.7847 H   0  0  0  0  0  0  0  0  0  0  0  0
   -2.4103    0.7406   -1.7688 H   0  0  0  0  0  0  0  0  0  0  0  0
    2.6497   -3.7261   -0.3489 N   0  0  0  0  0  0  0  0  0  0  0  0
    3.9925   -4.2519   -0.4079 C   0  0  2  0  0  0  0  0  0  0  0  0
    4.8758   -3.3870    0.4816 C   0  0  0  0  0  0  0  0  0  0  0  0
    4.5913   -2.2313    0.7889 O   0  0  0  0  0  0  0  0  0  0  0  0
    4.5156   -4.2748   -1.8357 C   0  0  0  0  0  0  0  0  0  0  0  0
    1.9062   -4.3420   -0.0332 H   0  0  0  0  0  0  0  0  0  0  0  0
    3.9518   -5.2695   -0.0043 H   0  0  0  0  0  0  0  0  0  0  0  0
    4.5635   -3.2640   -2.2570 H   0  0  0  0  0  0  0  0  0  0  0  0
    5.5234   -4.7004   -1.8824 H   0  0  0  0  0  0  0  0  0  0  0  0
    3.8626   -4.8729   -2.4805 H   0  0  0  0  0  0  0  0  0  0  0  0
    6.0401   -4.0428    0.8566 N   0  0  0  0  0  0  0  0  0  0  0  0
    7.0468   -3.4285    1.6904 C   0  0  0  0  0  0  0  0  0  0  0  0
    6.1847   -5.0068    0.5713 H   0  0  0  0  0  0  0  0  0  0  0  0
    7.8052   -2.9466    1.0558 H   0  0  0  0  0  0  0  0  0  0  0  0
    6.5763   -2.6733    2.3371 H   0  0  0  0  0  0  0  0  0  0  0  0
    7.5258   -4.1979    2.3137 H   0  0  0  0  0  0  0  0  0  0  0  0
  1  3  1  0  0  0  0
  1  7  1  0  0  0  0
  1  2  2  0  0  0  0
 21 22  1  0  0  0  0
 22 24  1  0  0  0  0
 22 23  2  0  0  0  0
 32 33  1  0  0  0  0
 33 41  1  0  0  0  0
 33 34  2  0  0  0  0
  8  9  1  0  0  0  0
  9 17  1  0  0  0  0
  9 10  2  0  0  0  0
 18 19  1  0  0  0  0
 19 31  1  0  0  0  0
 19 20  2  0  0  0  0
 32 35  1  0  0  0  0
  8 11  1  0  0  0  0
 41 42  1  0  0  0  0
 18 21  1  0  0  0  0
 31 32  1  0  0  0  0
  7  8  1  0  0  0  0
 17 18  1  0  0  0  0
  3  4  1  0  0  0  0
  3  5  1  0  0  0  0
  3  6  1  0  0  0  0
 35 38  1  0  0  0  0
 35 39  1  0  0  0  0
 35 40  1  0  0  0  0
 11 14  1  0  0  0  0
 11 15  1  0  0  0  0
 11 16  1  0  0  0  0
 42 44  1  0  0  0  0
 42 45  1  0  0  0  0
 42 46  1  0  0  0  0
 21 27  1  0  0  0  0
 21 28  1  0  0  0  0
 32 37  1  0  0  0  0
  8 13  1  0  0  0  0
 18 26  1  0  0  0  0
 24 29  1  0  0  0  0
 24 30  1  0  0  0  0
 41 43  1  0  0  0  0
  7 12  1  0  0  0  0
 31 36  1  0  0  0  0
 17 25  1  0  0  0  0
M  END
$$$$

  -OEChem-05262214473D

 46 45  0     1  0  0  0  0  0999 V2000
   -0.0543    1.9736    3.8406 C   0  0  0  0  0  0  0  0  0  0  0  0
    0.6744    1.6099    4.7562 O   0  0  0  0  0  0  0  0  0  0  0  0
   -0.5599    3.3779    3.8160 C   0  0  0  0  0  0  0  0  0  0  0  0
   -1.5202    3.4885    4.3450 H   0  0  0  0  0  0  0  0  0  0  0  0
    0.1282    4.0814    4.3116 H   0  0  0  0  0  0  0  0  0  0  0  0
   -0.7317    3.7994    2.8126 H   0  0  0  0  0  0  0  0  0  0  0  0
   -0.4812    1.1968    2.7762 N   0  0  0  0  0  0  0  0  0  0  0  0
   -0.1106   -0.1834    2.6051 C   0  0  2  0  0  0  0  0  0  0  0  0
   -0.0696   -0.4775    1.1113 C   0  0  0  0  0  0  0  0  0  0  0  0
   -0.6805    0.1900    0.2792 O   0  0  0  0  0  0  0  0  0  0  0  0
   -1.0852   -1.1101    3.3150 C   0  0  0  0  0  0  0  0  0  0  0  0
   -1.0883    1.6241    2.0791 H   0  0  0  0  0  0  0  0  0  0  0  0
    0.8937   -0.2959    3.0277 H   0  0  0  0  0  0  0  0  0  0  0  0
   -2.0970   -1.0114    2.9051 H   0  0  0  0  0  0  0  0  0  0  0  0
   -0.7860   -2.1580    3.2078 H   0  0  0  0  0  0  0  0  0  0  0  0
   -1.1357   -0.8775    4.3842 H   0  0  0  0  0  0  0  0  0  0  0  0
    0.6950   -1.6003    0.8178 N   0  0  0  0  0  0  0  0  0  0  0  0
    0.8777   -2.0908   -0.5246 C   0  0  2  0  0  0  0  0  0  0  0  0
    2.3561   -2.4154   -0.6980 C   0  0  0  0  0  0  0  0  0  0  0  0
    3.2258   -1.5525   -0.7999 O   0  0  0  0  0  0  0  0  0  0  0  0
    0.4239   -1.0717   -1.5700 C   0  0  0  0  0  0  0  0  0  0  0  0
   -1.0826   -0.8840   -1.6067 C   0  0  0  0  0  0  0  0  0  0  0  0
   -1.8924   -1.8033   -1.5314 O   0  0  0  0  0  0  0  0  0  0  0  0
   -1.4411    0.4417   -1.7293 N   0  0  0  0  0  0  0  0  0  0  0  0
    1.1810   -2.0803    1.5718 H   0  0  0  0  0  0  0  0  0  0  0  0
    0.2983   -3.0184   -0.5997 H   0  0  0  0  0  0  0  0  0  0  0  0
    0.8657   -0.0895   -1.3596 H   0  0  0  0  0  0  0  0  0  0  0  0
    0.7620   -1.3702   -2.5706 H   0  0  0  0  0  0  0  0  0  0  0  0
   -0.7366    1.1697   -1.7847 H   0  0  0  0  0  0  0  0  0  0  0  0
   -2.4103    0.7406   -1.7688 H   0  0  0  0  0  0  0  0  0  0  0  0
    2.5992   -3.7816   -0.6758 N   0  0  0  0  0  0  0  0  0  0  0  0
    3.9310   -4.3246   -0.7964 C   0  0  2  0  0  0  0  0  0  0  0  0
    4.7795   -3.7427    0.3266 C   0  0  0  0  0  0  0  0  0  0  0  0
    4.5034   -2.6911    0.9001 O   0  0  0  0  0  0  0  0  0  0  0  0
    4.5366   -4.0083   -2.1550 C   0  0  0  0  0  0  0  0  0  0  0  0
    1.8247   -4.4293   -0.5642 H   0  0  0  0  0  0  0  0  0  0  0  0
    3.8437   -5.4086   -0.6648 H   0  0  0  0  0  0  0  0  0  0  0  0
    4.6319   -2.9267   -2.3050 H   0  0  0  0  0  0  0  0  0  0  0  0
    5.5356   -4.4452   -2.2555 H   0  0  0  0  0  0  0  0  0  0  0  0
    3.9095   -4.4018   -2.9623 H   0  0  0  0  0  0  0  0  0  0  0  0
    5.9047   -4.5135    0.5835 N   0  0  0  0  0  0  0  0  0  0  0  0
    6.8741   -4.1647    1.5958 C   0  0  0  0  0  0  0  0  0  0  0  0
    6.0442   -5.3801    0.0723 H   0  0  0  0  0  0  0  0  0  0  0  0
    7.6791   -3.5673    1.1430 H   0  0  0  0  0  0  0  0  0  0  0  0
    6.3833   -3.5788    2.3869 H   0  0  0  0  0  0  0  0  0  0  0  0
    7.2981   -5.0826    2.0289 H   0  0  0  0  0  0  0  0  0  0  0  0
  1  3  1  0  0  0  0
  1  7  1  0  0  0  0
  1  2  2  0  0  0  0
 21 22  1  0  0  0  0
 22 24  1  0  0  0  0
 22 23  2  0  0  0  0
 32 33  1  0  0  0  0
 33 41  1  0  0  0  0
 33 34  2  0  0  0  0
  8  9  1  0  0  0  0
  9 17  1  0  0  0  0
  9 10  2  0  0  0  0
 18 19  1  0  0  0  0
 19 31  1  0  0  0  0
 19 20  2  0  0  0  0
 32 35  1  0  0  0  0
  8 11  1  0  0  0  0
 41 42  1  0  0  0  0
 18 21  1  0  0  0  0
 31 32  1  0  0  0  0
  7  8  1  0  0  0  0
 17 18  1  0  0  0  0
  3  4  1  0  0  0  0
  3  5  1  0  0  0  0
  3  6  1  0  0  0  0
 35 38  1  0  0  0  0
 35 39  1  0  0  0  0
 35 40  1  0  0  0  0
 11 14  1  0  0  0  0
 11 15  1  0  0  0  0
 11 16  1  0  0  0  0
 42 44  1  0  0  0  0
 42 45  1  0  0  0  0
 42 46  1  0  0  0  0
 21 27  1  0  0  0  0
 21 28  1  0  0  0  0
 32 37  1  0  0  0  0
  8 13  1  0  0  0  0
 18 26  1  0  0  0  0
 24 29  1  0  0  0  0
 24 30  1  0  0  0  0
 41 43  1  0  0  0  0
  7 12  1  0  0  0  0
 31 36  1  0  0  0  0
 17 25  1  0  0  0  0
M  END
$$$$

  -OEChem-05262214473D

 46 45  0     1  0  0  0  0  0999 V2000
   -0.0543    1.9736    3.8406 C   0  0  0  0  0  0  0  0  0  0  0  0
    0.6744    1.6099    4.7562 O   0  0  0  0  0  0  0  0  0  0  0  0
   -0.5599    3.3779    3.8160 C   0  0  0  0  0  0  0  0  0  0  0  0
   -1.5202    3.4885    4.3450 H   0  0  0  0  0  0  0  0  0  0  0  0
    0.1282    4.0814    4.3116 H   0  0  0  0  0  0  0  0  0  0  0  0
   -0.7317    3.7994    2.8126 H   0  0  0  0  0  0  0  0  0  0  0  0
   -0.4812    1.1968    2.7762 N   0  0  0  0  0  0  0  0  0  0  0  0
   -0.1106   -0.1834    2.6051 C   0  0  2  0  0  0  0  0  0  0  0  0
   -0.0696   -0.4775    1.1113 C   0  0  0  0  0  0  0  0  0  0  0  0
   -0.6805    0.1900    0.2792 O   0  0  0  0  0  0  0  0  0  0  0  0
   -1.0852   -1.1101    3.3150 C   0  0  0  0  0  0  0  0  0  0  0  0
   -1.0883    1.6241    2.0791 H   0  0  0  0  0  0  0  0  0  0  0  0
    0.8937   -0.2959    3.0277 H   0  0  0  0  0  0  0  0  0  0  0  0
   -2.0970   -1.0114    2.9051 H   0  0  0  0  0  0  0  0  0  0  0  0
   -0.7860   -2.1580    3.2078 H   0  0  0  0  0  0  0  0  0  0  0  0
   -1.1357   -0.8775    4.3842 H   0  0  0  0  0  0  0  0  0  0  0  0
    0.6950   -1.6003    0.8178 N   0  0  0  0  0  0  0  0  0  0  0  0
    0.8777   -2.0908   -0.5246 C   0  0  2  0  0  0  0  0  0  0  0  0
    2.3561   -2.4154   -0.6980 C   0  0  0  0  0  0  0  0  0  0  0  0
    3.2494   -1.5868   -0.5343 O   0  0  0  0  0  0  0  0  0  0  0  0
    0.4239   -1.0717   -1.5700 C   0  0  0  0  0  0  0  0  0  0  0  0
   -1.0826   -0.8840   -1.6067 C   0  0  0  0  0  0  0  0  0  0  0  0
   -1.8924   -1.8033   -1.5314 O   0  0  0  0  0  0  0  0  0  0  0  0
   -1.4411    0.4417   -1.7293 N   0  0  0  0  0  0  0  0  0  0  0  0
    1.1810   -2.0803    1.5718 H   0  0  0  0  0  0  0  0  0  0  0  0
    0.2983   -3.0184   -0.5997 H   0  0  0  0  0  0  0  0  0  0  0  0
    0.8657   -0.0895   -1.3596 H   0  0  0  0  0  0  0  0  0  0  0  0
    0.7620   -1.3702   -2.5706 H   0  0  0  0  0  0  0  0  0  0  0  0
   -0.7366    1.1697   -1.7847 H   0  0  0  0  0  0  0  0  0  0  0  0
   -2.4103    0.7406   -1.7688 H   0  0  0  0  0  0  0  0  0  0  0  0
    2.5668   -3.7516   -1.0083 N   0  0  0  0  0  0  0  0  0  0  0  0
    3.8909   -4.2954   -1.1932 C   0  0  2  0  0  0  0  0  0  0  0  0
    4.6846   -4.0445    0.0822 C   0  0  0  0  0  0  0  0  0  0  0  0
    4.3988   -3.1606    0.8872 O   0  0  0  0  0  0  0  0  0  0  0  0
    4.5824   -3.6714   -2.3954 C   0  0  0  0  0  0  0  0  0  0  0  0
    1.7727   -4.3779   -1.1034 H   0  0  0  0  0  0  0  0  0  0  0  0
    3.7717   -5.3739   -1.3437 H   0  0  0  0  0  0  0  0  0  0  0  0
    4.7106   -2.5909   -2.2628 H   0  0  0  0  0  0  0  0  0  0  0  0
    5.5756   -4.1054   -2.5512 H   0  0  0  0  0  0  0  0  0  0  0  0
    3.9953   -3.8271   -3.3069 H   0  0  0  0  0  0  0  0  0  0  0  0
    5.7751   -4.8956    0.1941 N   0  0  0  0  0  0  0  0  0  0  0  0
    6.6908   -4.8470    1.3100 C   0  0  0  0  0  0  0  0  0  0  0  0
    5.9250   -5.6111   -0.5111 H   0  0  0  0  0  0  0  0  0  0  0  0
    7.5342   -4.1850    1.0643 H   0  0  0  0  0  0  0  0  0  0  0  0
    6.1675   -4.4602    2.1969 H   0  0  0  0  0  0  0  0  0  0  0  0
    7.0679   -5.8590    1.5191 H   0  0  0  0  0  0  0  0  0  0  0  0
  1  3  1  0  0  0  0
  1  7  1  0  0  0  0
  1  2  2  0  0  0  0
 21 22  1  0  0  0  0
 22 24  1  0  0  0  0
 22 23  2  0  0  0  0
 32 33  1  0  0  0  0
 33 41  1  0  0  0  0
 33 34  2  0  0  0  0
  8  9  1  0  0  0  0
  9 17  1  0  0  0  0
  9 10  2  0  0  0  0
 18 19  1  0  0  0  0
 19 31  1  0  0  0  0
 19 20  2  0  0  0  0
 32 35  1  0  0  0  0
  8 11  1  0  0  0  0
 41 42  1  0  0  0  0
 18 21  1  0  0  0  0
 31 32  1  0  0  0  0
  7  8  1  0  0  0  0
 17 18  1  0  0  0  0
  3  4  1  0  0  0  0
  3  5  1  0  0  0  0
  3  6  1  0  0  0  0
 35 38  1  0  0  0  0
 35 39  1  0  0  0  0
 35 40  1  0  0  0  0
 11 14  1  0  0  0  0
 11 15  1  0  0  0  0
 11 16  1  0  0  0  0
 42 44  1  0  0  0  0
 42 45  1  0  0  0  0
 42 46  1  0  0  0  0
 21 27  1  0  0  0  0
 21 28  1  0  0  0  0
 32 37  1  0  0  0  0
  8 13  1  0  0  0  0
 18 26  1  0  0  0  0
 24 29  1  0  0  0  0
 24 30  1  0  0  0  0
 41 43  1  0  0  0  0
  7 12  1  0  0  0  0
 31 36  1  0  0  0  0
 17 25  1  0  0  0  0
M  END
$$$$

  -OEChem-05262214473D

 46 45  0     1  0  0  0  0  0999 V2000
   -0.0543    1.9736    3.8406 C   0  0  0  0  0  0  0  0  0  0  0  0
    0.6744    1.6099    4.7562 O   0  0  0  0  0  0  0  0  0  0  0  0
   -0.5599    3.3779    3.8160 C   0  0  0  0  0  0  0  0  0  0  0  0
   -1.5202    3.4885    4.3450 H   0  0  0  0  0  0  0  0  0  0  0  0
    0.1282    4.0814    4.3116 H   0  0  0  0  0  0  0  0  0  0  0  0
   -0.7317    3.7994    2.8126 H   0  0  0  0  0  0  0  0  0  0  0  0
   -0.4812    1.1968    2.7762 N   0  0  0  0  0  0  0  0  0  0  0  0
   -0.1106   -0.1834    2.6051 C   0  0  2  0  0  0  0  0  0  0  0  0
   -0.0696   -0.4775    1.1113 C   0  0  0  0  0  0  0  0  0  0  0  0
   -0.6805    0.1900    0.2792 O   0  0  0  0  0  0  0  0  0  0  0  0
   -1.0852   -1.1101    3.3150 C   0  0  0  0  0  0  0  0  0  0  0  0
   -1.0883    1.6241    2.0791 H   0  0  0  0  0  0  0  0  0  0  0  0
    0.8937   -0.2959    3.0277 H   0  0  0  0  0  0  0  0  0  0  0  0
   -2.0970   -1.0114    2.9051 H   0  0  0  0  0  0  0  0  0  0  0  0
   -0.7860   -2.1580    3.2078 H   0  0  0  0  0  0  0  0  0  0  0  0
   -1.1357   -0.8775    4.3842 H   0  0  0  0  0  0  0  0  0  0  0  0
    0.6950   -1.6003    0.8178 N   0  0  0  0  0  0  0  0  0  0  0  0
    0.8777   -2.0908   -0.5246 C   0  0  2  0  0  0  0  0  0  0  0  0
    2.3561   -2.4154   -0.6980 C   0  0  0  0  0  0  0  0  0  0  0  0
    3.2565   -1.6873   -0.2851 O   0  0  0  0  0  0  0  0  0  0  0  0
    0.4239   -1.0717   -1.5700 C   0  0  0  0  0  0  0  0  0  0  0  0
   -1.0826   -0.8840   -1.6067 C   0  0  0  0  0  0  0  0  0  0  0  0
   -1.8924   -1.8033   -1.5314 O   0  0  0  0  0  0  0  0  0  0  0  0
   -1.4411    0.4417   -1.7293 N   0  0  0  0  0  0  0  0  0  0  0  0
    1.1810   -2.0803    1.5718 H   0  0  0  0  0  0  0  0  0  0  0  0
    0.2983   -3.0184   -0.5997 H   0  0  0  0  0  0  0  0  0  0  0  0
    0.8657   -0.0895   -1.3596 H   0  0  0  0  0  0  0  0  0  0  0  0
    0.7620   -1.3702   -2.5706 H   0  0  0  0  0  0  0  0  0  0  0  0
   -0.7366    1.1697   -1.7847 H   0  0  0  0  0  0  0  0  0  0  0  0
   -2.4103    0.7406   -1.7688 H   0  0  0  0  0  0  0  0  0  0  0  0
    2.5547   -3.6382   -1.3237 N   0  0  0  0  0  0  0  0  0  0  0  0
    3.8749   -4.1663   -1.5714 C   0  0  2  0  0  0  0  0  0  0  0  0
    4.5975   -4.2718   -0.2349 C   0  0  0  0  0  0  0  0  0  0  0  0
    4.2846   -3.6078    0.7511 O   0  0  0  0  0  0  0  0  0  0  0  0
    4.6498   -3.2870   -2.5404 C   0  0  0  0  0  0  0  0  0  0  0  0
    1.7538   -4.1913   -1.6142 H   0  0  0  0  0  0  0  0  0  0  0  0
    3.7406   -5.1677   -1.9947 H   0  0  0  0  0  0  0  0  0  0  0  0
    4.7942   -2.2795   -2.1334 H   0  0  0  0  0  0  0  0  0  0  0  0
    5.6404   -3.7041   -2.7493 H   0  0  0  0  0  0  0  0  0  0  0  0
    4.1141   -3.1880   -3.4906 H   0  0  0  0  0  0  0  0  0  0  0  0
    5.6602   -5.1631   -0.2852 N   0  0  0  0  0  0  0  0  0  0  0  0
    6.5093   -5.4288    0.8525 C   0  0  0  0  0  0  0  0  0  0  0  0
    5.8352   -5.6843   -1.1393 H   0  0  0  0  0  0  0  0  0  0  0  0
    7.3804   -4.7577    0.8252 H   0  0  0  0  0  0  0  0  0  0  0  0
    5.9435   -5.2575    1.7801 H   0  0  0  0  0  0  0  0  0  0  0  0
    6.8507   -6.4740    0.8189 H   0  0  0  0  0  0  0  0  0  0  0  0
  1  3  1  0  0  0  0
  1  7  1  0  0  0  0
  1  2  2  0  0  0  0
 21 22  1  0  0  0  0
 22 24  1  0  0  0  0
 22 23  2  0  0  0  0
 32 33  1  0  0  0  0
 33 41  1  0  0  0  0
 33 34  2  0  0  0  0
  8  9  1  0  0  0  0
  9 17  1  0  0  0  0
  9 10  2  0  0  0  0
 18 19  1  0  0  0  0
 19 31  1  0  0  0  0
 19 20  2  0  0  0  0
 32 35  1  0  0  0  0
  8 11  1  0  0  0  0
 41 42  1  0  0  0  0
 18 21  1  0  0  0  0
 31 32  1  0  0  0  0
  7  8  1  0  0  0  0
 17 18  1  0  0  0  0
  3  4  1  0  0  0  0
  3  5  1  0  0  0  0
  3  6  1  0  0  0  0
 35 38  1  0  0  0  0
 35 39  1  0  0  0  0
 35 40  1  0  0  0  0
 11 14  1  0  0  0  0
 11 15  1  0  0  0  0
 11 16  1  0  0  0  0
 42 44  1  0  0  0  0
 42 45  1  0  0  0  0
 42 46  1  0  0  0  0
 21 27  1  0  0  0  0
 21 28  1  0  0  0  0
 32 37  1  0  0  0  0
  8 13  1  0  0  0  0
 18 26  1  0  0  0  0
 24 29  1  0  0  0  0
 24 30  1  0  0  0  0
 41 43  1  0  0  0  0
  7 12  1  0  0  0  0
 31 36  1  0  0  0  0
 17 25  1  0  0  0  0
M  END
$$$$

  -OEChem-05262214473D

 46 45  0     1  0  0  0  0  0999 V2000
   -0.0543    1.9736    3.8406 C   0  0  0  0  0  0  0  0  0  0  0  0
    0.6744    1.6099    4.7562 O   0  0  0  0  0  0  0  0  0  0  0  0
   -0.5599    3.3779    3.8160 C   0  0  0  0  0  0  0  0  0  0  0  0
   -1.5202    3.4885    4.3450 H   0  0  0  0  0  0  0  0  0  0  0  0
    0.1282    4.0814    4.3116 H   0  0  0  0  0  0  0  0  0  0  0  0
   -0.7317    3.7994    2.8126 H   0  0  0  0  0  0  0  0  0  0  0  0
   -0.4812    1.1968    2.7762 N   0  0  0  0  0  0  0  0  0  0  0  0
   -0.1106   -0.1834    2.6051 C   0  0  2  0  0  0  0  0  0  0  0  0
   -0.0696   -0.4775    1.1113 C   0  0  0  0  0  0  0  0  0  0  0  0
   -0.6805    0.1900    0.2792 O   0  0  0  0  0  0  0  0  0  0  0  0
   -1.0852   -1.1101    3.3150 C   0  0  0  0  0  0  0  0  0  0  0  0
   -1.0883    1.6241    2.0791 H   0  0  0  0  0  0  0  0  0  0  0  0
    0.8937   -0.2959    3.0277 H   0  0  0  0  0  0  0  0  0  0  0  0
   -2.0970   -1.0114    2.9051 H   0  0  0  0  0  0  0  0  0  0  0  0
   -0.7860   -2.1580    3.2078 H   0  0  0  0  0  0  0  0  0  0  0  0
   -1.1357   -0.8775    4.3842 H   0  0  0  0  0  0  0  0  0  0  0  0
    0.6950   -1.6003    0.8178 N   0  0  0  0  0  0  0  0  0  0  0  0
    0.8777   -2.0908   -0.5246 C   0  0  2  0  0  0  0  0  0  0  0  0
    2.3561   -2.4154   -0.6980 C   0  0  0  0  0  0  0  0  0  0  0  0
    3.2468   -1.8473   -0.0693 O   0  0  0  0  0  0  0  0  0  0  0  0
    0.4239   -1.0717   -1.5700 C   0  0  0  0  0  0  0  0  0  0  0  0
   -1.0826   -0.8840   -1.6067 C   0  0  0  0  0  0  0  0  0  0  0  0
   -1.8924   -1.8033   -1.5314 O   0  0  0  0  0  0  0  0  0  0  0  0
   -1.4411    0.4417   -1.7293 N   0  0  0  0  0  0  0  0  0  0  0  0
    1.1810   -2.0803    1.5718 H   0  0  0  0  0  0  0  0  0  0  0  0
    0.2983   -3.0184   -0.5997 H   0  0  0  0  0  0  0  0  0  0  0  0
    0.8657   -0.0895   -1.3596 H   0  0  0  0  0  0  0  0  0  0  0  0
    0.7620   -1.3702   -2.5706 H   0  0  0  0  0  0  0  0  0  0  0  0
   -0.7366    1.1697   -1.7847 H   0  0  0  0  0  0  0  0  0  0  0  0
   -2.4103    0.7406   -1.7688 H   0  0  0  0  0  0  0  0  0  0  0  0
    2.5637   -3.4490   -1.6006 N   0  0  0  0  0  0  0  0  0  0  0  0
    3.8840   -3.9462   -1.9051 C   0  0  2  0  0  0  0  0  0  0  0  0
    4.5241   -4.4092   -0.6031 C   0  0  0  0  0  0  0  0  0  0  0  0
    4.1687   -4.0022    0.5010 O   0  0  0  0  0  0  0  0  0  0  0  0
    4.7342   -2.8812   -2.5801 C   0  0  0  0  0  0  0  0  0  0  0  0
    1.7692   -3.8822   -2.0618 H   0  0  0  0  0  0  0  0  0  0  0  0
    3.7525   -4.8041   -2.5735 H   0  0  0  0  0  0  0  0  0  0  0  0
    4.8770   -2.0136   -1.9256 H   0  0  0  0  0  0  0  0  0  0  0  0
    5.7259   -3.2686   -2.8363 H   0  0  0  0  0  0  0  0  0  0  0  0
    4.2578   -2.5280   -3.5010 H   0  0  0  0  0  0  0  0  0  0  0  0
    5.5677   -5.2977   -0.8216 N   0  0  0  0  0  0  0  0  0  0  0  0
    6.3422   -5.8706    0.2545 C   0  0  0  0  0  0  0  0  0  0  0  0
    5.7810   -5.5946   -1.7693 H   0  0  0  0  0  0  0  0  0  0  0  0
    7.2282   -5.2463    0.4420 H   0  0  0  0  0  0  0  0  0  0  0  0
    5.7267   -5.9164    1.1650 H   0  0  0  0  0  0  0  0  0  0  0  0
    6.6614   -6.8858   -0.0238 H   0  0  0  0  0  0  0  0  0  0  0  0
  1  3  1  0  0  0  0
  1  7  1  0  0  0  0
  1  2  2  0  0  0  0
 21 22  1  0  0  0  0
 22 24  1  0  0  0  0
 22 23  2  0  0  0  0
 32 33  1  0  0  0  0
 33 41  1  0  0  0  0
 33 34  2  0  0  0  0
  8  9  1  0  0  0  0
  9 17  1  0  0  0  0
  9 10  2  0  0  0  0
 18 19  1  0  0  0  0
 19 31  1  0  0  0  0
 19 20  2  0  0  0  0
 32 35  1  0  0  0  0
  8 11  1  0  0  0  0
 41 42  1  0  0  0  0
 18 21  1  0  0  0  0
 31 32  1  0  0  0  0
  7  8  1  0  0  0  0
 17 18  1  0  0  0  0
  3  4  1  0  0  0  0
  3  5  1  0  0  0  0
  3  6  1  0  0  0  0
 35 38  1  0  0  0  0
 35 39  1  0  0  0  0
 35 40  1  0  0  0  0
 11 14  1  0  0  0  0
 11 15  1  0  0  0  0
 11 16  1  0  0  0  0
 42 44  1  0  0  0  0
 42 45  1  0  0  0  0
 42 46  1  0  0  0  0
 21 27  1  0  0  0  0
 21 28  1  0  0  0  0
 32 37  1  0  0  0  0
  8 13  1  0  0  0  0
 18 26  1  0  0  0  0
 24 29  1  0  0  0  0
 24 30  1  0  0  0  0
 41 43  1  0  0  0  0
  7 12  1  0  0  0  0
 31 36  1  0  0  0  0
 17 25  1  0  0  0  0
M  END
$$$$

  -OEChem-05262214473D

 46 45  0     1  0  0  0  0  0999 V2000
   -0.0543    1.9736    3.8406 C   0  0  0  0  0  0  0  0  0  0  0  0
    0.6744    1.6099    4.7562 O   0  0  0  0  0  0  0  0  0  0  0  0
   -0.5599    3.3779    3.8160 C   0  0  0  0  0  0  0  0  0  0  0  0
   -1.5202    3.4885    4.3450 H   0  0  0  0  0  0  0  0  0  0  0  0
    0.1282    4.0814    4.3116 H   0  0  0  0  0  0  0  0  0  0  0  0
   -0.7317    3.7994    2.8126 H   0  0  0  0  0  0  0  0  0  0  0  0
   -0.4812    1.1968    2.7762 N   0  0  0  0  0  0  0  0  0  0  0  0
   -0.1106   -0.1834    2.6051 C   0  0  2  0  0  0  0  0  0  0  0  0
   -0.0696   -0.4775    1.1113 C   0  0  0  0  0  0  0  0  0  0  0  0
   -0.6805    0.1900    0.2792 O   0  0  0  0  0  0  0  0  0  0  0  0
   -1.0852   -1.1101    3.3150 C   0  0  0  0  0  0  0  0  0  0  0  0
   -1.0883    1.6241    2.0791 H   0  0  0  0  0  0  0  0  0  0  0  0
    0.8937   -0.2959    3.0277 H   0  0  0  0  0  0  0  0  0  0  0  0
   -2.0970   -1.0114    2.9051 H   0  0  0  0  0  0  0  0  0  0  0  0
   -0.7860   -2.1580    3.2078 H   0  0  0  0  0  0  0  0  0  0  0  0
   -1.1357   -0.8775    4.3842 H   0  0  0  0  0  0  0  0  0  0  0  0
    0.6950   -1.6003    0.8178 N   0  0  0  0  0  0  0  0  0  0  0  0
    0.8777   -2.0908   -0.5246 C   0  0  2  0  0  0  0  0  0  0  0  0
    2.3561   -2.4154   -0.6980 C   0  0  0  0  0  0  0  0  0  0  0  0
    3.2207   -2.0557    0.0985 O   0  0  0  0  0  0  0  0  0  0  0  0
    0.4239   -1.0717   -1.5700 C   0  0  0  0  0  0  0  0  0  0  0  0
   -1.0826   -0.8840   -1.6067 C   0  0  0  0  0  0  0  0  0  0  0  0
   -1.8924   -1.8033   -1.5314 O   0  0  0  0  0  0  0  0  0  0  0  0
   -1.4411    0.4417   -1.7293 N   0  0  0  0  0  0  0  0  0  0  0  0
    1.1810   -2.0803    1.5718 H   0  0  0  0  0  0  0  0  0  0  0  0
    0.2983   -3.0184   -0.5997 H   0  0  0  0  0  0  0  0  0  0  0  0
    0.8657   -0.0895   -1.3596 H   0  0  0  0  0  0  0  0  0  0  0  0
    0.7620   -1.3702   -2.5706 H   0  0  0  0  0  0  0  0  0  0  0  0
   -0.7366    1.1697   -1.7847 H   0  0  0  0  0  0  0  0  0  0  0  0
   -2.4103    0.7406   -1.7688 H   0  0  0  0  0  0  0  0  0  0  0  0
    2.5933   -3.1970   -1.8200 N   0  0  0  0  0  0  0  0  0  0  0  0
    3.9178   -3.6500   -2.1717 C   0  0  2  0  0  0  0  0  0  0  0  0
    4.4695   -4.4473   -0.9973 C   0  0  0  0  0  0  0  0  0  0  0  0
    4.0588   -4.3169    0.1540 O   0  0  0  0  0  0  0  0  0  0  0  0
    4.8299   -2.4817   -2.5120 C   0  0  0  0  0  0  0  0  0  0  0  0
    1.8178   -3.4716   -2.4157 H   0  0  0  0  0  0  0  0  0  0  0  0
    3.8067   -4.3079   -3.0405 H   0  0  0  0  0  0  0  0  0  0  0  0
    4.9533   -1.8114   -1.6535 H   0  0  0  0  0  0  0  0  0  0  0  0
    5.8260   -2.8286   -2.8062 H   0  0  0  0  0  0  0  0  0  0  0  0
    4.4166   -1.8921   -3.3374 H   0  0  0  0  0  0  0  0  0  0  0  0
    5.5039   -5.2903   -1.3787 N   0  0  0  0  0  0  0  0  0  0  0  0
    6.2006   -6.1422   -0.4434 C   0  0  0  0  0  0  0  0  0  0  0  0
    5.7660   -5.3480   -2.3584 H   0  0  0  0  0  0  0  0  0  0  0  0
    7.0879   -5.6175   -0.0593 H   0  0  0  0  0  0  0  0  0  0  0  0
    5.5317   -6.3920    0.3934 H   0  0  0  0  0  0  0  0  0  0  0  0
    6.5128   -7.0664   -0.9517 H   0  0  0  0  0  0  0  0  0  0  0  0
  1  3  1  0  0  0  0
  1  7  1  0  0  0  0
  1  2  2  0  0  0  0
 21 22  1  0  0  0  0
 22 24  1  0  0  0  0
 22 23  2  0  0  0  0
 32 33  1  0  0  0  0
 33 41  1  0  0  0  0
 33 34  2  0  0  0  0
  8  9  1  0  0  0  0
  9 17  1  0  0  0  0
  9 10  2  0  0  0  0
 18 19  1  0  0  0  0
 19 31  1  0  0  0  0
 19 20  2  0  0  0  0
 32 35  1  0  0  0  0
  8 11  1  0  0  0  0
 41 42  1  0  0  0  0
 18 21  1  0  0  0  0
 31 32  1  0  0  0  0
  7  8  1  0  0  0  0
 17 18  1  0  0  0  0
  3  4  1  0  0  0  0
  3  5  1  0  0  0  0
  3  6  1  0  0  0  0
 35 38  1  0  0  0  0
 35 39  1  0  0  0  0
 35 40  1  0  0  0  0
 11 14  1  0  0  0  0
 11 15  1  0  0  0  0
 11 16  1  0  0  0  0
 42 44  1  0  0  0  0
 42 45  1  0  0  0  0
 42 46  1  0  0  0  0
 21 27  1  0  0  0  0
 21 28  1  0  0  0  0
 32 37  1  0  0  0  0
  8 13  1  0  0  0  0
 18 26  1  0  0  0  0
 24 29  1  0  0  0  0
 24 30  1  0  0  0  0
 41 43  1  0  0  0  0
  7 12  1  0  0  0  0
 31 36  1  0  0  0  0
 17 25  1  0  0  0  0
M  END
$$$$

  -OEChem-05262214473D

 46 45  0     1  0  0  0  0  0999 V2000
   -0.0543    1.9736    3.8406 C   0  0  0  0  0  0  0  0  0  0  0  0
    0.6744    1.6099    4.7562 O   0  0  0  0  0  0  0  0  0  0  0  0
   -0.5599    3.3779    3.8160 C   0  0  0  0  0  0  0  0  0  0  0  0
   -1.5202    3.4885    4.3450 H   0  0  0  0  0  0  0  0  0  0  0  0
    0.1282    4.0814    4.3116 H   0  0  0  0  0  0  0  0  0  0  0  0
   -0.7317    3.7994    2.8126 H   0  0  0  0  0  0  0  0  0  0  0  0
   -0.4812    1.1968    2.7762 N   0  0  0  0  0  0  0  0  0  0  0  0
   -0.1106   -0.1834    2.6051 C   0  0  2  0  0  0  0  0  0  0  0  0
   -0.0696   -0.4775    1.1113 C   0  0  0  0  0  0  0  0  0  0  0  0
   -0.6805    0.1900    0.2792 O   0  0  0  0  0  0  0  0  0  0  0  0
   -1.0852   -1.1101    3.3150 C   0  0  0  0  0  0  0  0  0  0  0  0
   -1.0883    1.6241    2.0791 H   0  0  0  0  0  0  0  0  0  0  0  0
    0.8937   -0.2959    3.0277 H   0  0  0  0  0  0  0  0  0  0  0  0
   -2.0970   -1.0114    2.9051 H   0  0  0  0  0  0  0  0  0  0  0  0
   -0.7860   -2.1580    3.2078 H   0  0  0  0  0  0  0  0  0  0  0  0
   -1.1357   -0.8775    4.3842 H   0  0  0  0  0  0  0  0  0  0  0  0
    0.6950   -1.6003    0.8178 N   0  0  0  0  0  0  0  0  0  0  0  0
    0.8777   -2.0908   -0.5246 C   0  0  2  0  0  0  0  0  0  0  0  0
    2.2447   -2.7605   -0.5871 C   0  0  0  0  0  0  0  0  0  0  0  0
    2.9858   -2.8667    0.3881 O   0  0  0  0  0  0  0  0  0  0  0  0
    0.7797   -0.9693   -1.5590 C   0  0  0  0  0  0  0  0  0  0  0  0
   -0.6279   -0.4210   -1.7141 C   0  0  0  0  0  0  0  0  0  0  0  0
   -1.6378   -1.1178   -1.7473 O   0  0  0  0  0  0  0  0  0  0  0  0
   -0.6454    0.9545   -1.8084 N   0  0  0  0  0  0  0  0  0  0  0  0
    1.1810   -2.0803    1.5718 H   0  0  0  0  0  0  0  0  0  0  0  0
    0.1023   -2.8483   -0.6886 H   0  0  0  0  0  0  0  0  0  0  0  0
    1.4227   -0.1285   -1.2695 H   0  0  0  0  0  0  0  0  0  0  0  0
    1.1271   -1.3189   -2.5397 H   0  0  0  0  0  0  0  0  0  0  0  0
    0.2151    1.4908   -1.7725 H   0  0  0  0  0  0  0  0  0  0  0  0
   -1.5069    1.4804   -1.9162 H   0  0  0  0  0  0  0  0  0  0  0  0
    2.5214   -3.2712   -1.8475 N   0  0  0  0  0  0  0  0  0  0  0  0
    3.7492   -3.9725   -2.1371 C   0  0  2  0  0  0  0  0  0  0  0  0
    3.8484   -5.1590   -1.1873 C   0  0  0  0  0  0  0  0  0  0  0  0
    3.2507   -5.2111   -0.1144 O   0  0  0  0  0  0  0  0  0  0  0  0
    4.9559   -3.0583   -1.9927 C   0  0  0  0  0  0  0  0  0  0  0  0
    1.8433   -3.1610   -2.5956 H   0  0  0  0  0  0  0  0  0  0  0  0
    3.6709   -4.3347   -3.1679 H   0  0  0  0  0  0  0  0  0  0  0  0
    5.0507   -2.6855   -0.9663 H   0  0  0  0  0  0  0  0  0  0  0  0
    5.8839   -3.5841   -2.2404 H   0  0  0  0  0  0  0  0  0  0  0  0
    4.8686   -2.1902   -2.6549 H   0  0  0  0  0  0  0  0  0  0  0  0
    4.7166   -6.1337   -1.6588 N   0  0  0  0  0  0  0  0  0  0  0  0
    4.9903   -7.3514   -0.9321 C   0  0  0  0  0  0  0  0  0  0  0  0
    5.1544   -6.0156   -2.5677 H   0  0  0  0  0  0  0  0  0  0  0  0
    5.8759   -7.2080   -0.2955 H   0  0  0  0  0  0  0  0  0  0  0  0
    4.1243   -7.6056   -0.3034 H   0  0  0  0  0  0  0  0  0  0  0  0
    5.1791   -8.1685   -1.6439 H   0  0  0  0  0  0  0  0  0  0  0  0
  1  3  1  0  0  0  0
  1  7  1  0  0  0  0
  1  2  2  0  0  0  0
 21 22  1  0  0  0  0
 22 24  1  0  0  0  0
 22 23  2  0  0  0  0
 32 33  1  0  0  0  0
 33 41  1  0  0  0  0
 33 34  2  0  0  0  0
  8  9  1  0  0  0  0
  9 17  1  0  0  0  0
  9 10  2  0  0  0  0
 18 19  1  0  0  0  0
 19 31  1  0  0  0  0
 19 20  2  0  0  0  0
 32 35  1  0  0  0  0
  8 11  1  0  0  0  0
 41 42  1  0  0  0  0
 18 21  1  0  0  0  0
 31 32  1  0  0  0  0
  7  8  1  0  0  0  0
 17 18  1  0  0  0  0
  3  4  1  0  0  0  0
  3  5  1  0  0  0  0
  3  6  1  0  0  0  0
 35 38  1  0  0  0  0
 35 39  1  0  0  0  0
 35 40  1  0  0  0  0
 11 14  1  0  0  0  0
 11 15  1  0  0  0  0
 11 16  1  0  0  0  0
 42 44  1  0  0  0  0
 42 45  1  0  0  0  0
 42 46  1  0  0  0  0
 21 27  1  0  0  0  0
 21 28  1  0  0  0  0
 32 37  1  0  0  0  0
  8 13  1  0  0  0  0
 18 26  1  0  0  0  0
 24 29  1  0  0  0  0
 24 30  1  0  0  0  0
 41 43  1  0  0  0  0
  7 12  1  0  0  0  0
 31 36  1  0  0  0  0
 17 25  1  0  0  0  0
M  END
$$$$

  -OEChem-05262214473D

 46 45  0     1  0  0  0  0  0999 V2000
   -0.0543    1.9736    3.8406 C   0  0  0  0  0  0  0  0  0  0  0  0
    0.6744    1.6099    4.7562 O   0  0  0  0  0  0  0  0  0  0  0  0
   -0.5599    3.3779    3.8160 C   0  0  0  0  0  0  0  0  0  0  0  0
   -1.5202    3.4885    4.3450 H   0  0  0  0  0  0  0  0  0  0  0  0
    0.1282    4.0814    4.3116 H   0  0  0  0  0  0  0  0  0  0  0  0
   -0.7317    3.7994    2.8126 H   0  0  0  0  0  0  0  0  0  0  0  0
   -0.4812    1.1968    2.7762 N   0  0  0  0  0  0  0  0  0  0  0  0
   -0.1106   -0.1834    2.6051 C   0  0  2  0  0  0  0  0  0  0  0  0
   -0.0696   -0.4775    1.1113 C   0  0  0  0  0  0  0  0  0  0  0  0
   -0.6805    0.1900    0.2792 O   0  0  0  0  0  0  0  0  0  0  0  0
   -1.0852   -1.1101    3.3150 C   0  0  0  0  0  0  0  0  0  0  0  0
   -1.0883    1.6241    2.0791 H   0  0  0  0  0  0  0  0  0  0  0  0
    0.8937   -0.2959    3.0277 H   0  0  0  0  0  0  0  0  0  0  0  0
   -2.0970   -1.0114    2.9051 H   0  0  0  0  0  0  0  0  0  0  0  0
   -0.7860   -2.1580    3.2078 H   0  0  0  0  0  0  0  0  0  0  0  0
   -1.1357   -0.8775    4.3842 H   0  0  0  0  0  0  0  0  0  0  0  0
    0.6950   -1.6003    0.8178 N   0  0  0  0  0  0  0  0  0  0  0  0
    0.8777   -2.0908   -0.5246 C   0  0  2  0  0  0  0  0  0  0  0  0
    2.2447   -2.7605   -0.5871 C   0  0  0  0  0  0  0  0  0  0  0  0
    2.8690   -3.1075    0.4136 O   0  0  0  0  0  0  0  0  0  0  0  0
    0.7797   -0.9693   -1.5590 C   0  0  0  0  0  0  0  0  0  0  0  0
   -0.6279   -0.4210   -1.7141 C   0  0  0  0  0  0  0  0  0  0  0  0
   -1.6378   -1.1178   -1.7473 O   0  0  0  0  0  0  0  0  0  0  0  0
   -0.6454    0.9545   -1.8084 N   0  0  0  0  0  0  0  0  0  0  0  0
    1.1810   -2.0803    1.5718 H   0  0  0  0  0  0  0  0  0  0  0  0
    0.1023   -2.8483   -0.6886 H   0  0  0  0  0  0  0  0  0  0  0  0
    1.4227   -0.1285   -1.2695 H   0  0  0  0  0  0  0  0  0  0  0  0
    1.1271   -1.3189   -2.5397 H   0  0  0  0  0  0  0  0  0  0  0  0
    0.2151    1.4908   -1.7725 H   0  0  0  0  0  0  0  0  0  0  0  0
   -1.5069    1.4804   -1.9162 H   0  0  0  0  0  0  0  0  0  0  0  0
    2.6660   -2.9719   -1.8924 N   0  0  0  0  0  0  0  0  0  0  0  0
    3.9209   -3.6164   -2.1973 C   0  0  2  0  0  0  0  0  0  0  0  0
    3.9135   -4.9926   -1.5449 C   0  0  0  0  0  0  0  0  0  0  0  0
    3.1965   -5.2775   -0.5879 O   0  0  0  0  0  0  0  0  0  0  0  0
    5.1004   -2.7898   -1.7091 C   0  0  0  0  0  0  0  0  0  0  0  0
    2.0781   -2.6751   -2.6657 H   0  0  0  0  0  0  0  0  0  0  0  0
    3.9628   -3.7280   -3.2862 H   0  0  0  0  0  0  0  0  0  0  0  0
    5.0755   -2.6672   -0.6202 H   0  0  0  0  0  0  0  0  0  0  0  0
    6.0522   -3.2661   -1.9664 H   0  0  0  0  0  0  0  0  0  0  0  0
    5.0874   -1.7900   -2.1565 H   0  0  0  0  0  0  0  0  0  0  0  0
    4.8330   -5.8522   -2.1296 N   0  0  0  0  0  0  0  0  0  0  0  0
    5.0247   -7.2114   -1.6804 C   0  0  0  0  0  0  0  0  0  0  0  0
    5.3720   -5.5374   -2.9309 H   0  0  0  0  0  0  0  0  0  0  0  0
    5.8308   -7.2406   -0.9324 H   0  0  0  0  0  0  0  0  0  0  0  0
    4.0928   -7.5834   -1.2297 H   0  0  0  0  0  0  0  0  0  0  0  0
    5.2964   -7.8457   -2.5370 H   0  0  0  0  0  0  0  0  0  0  0  0
  1  3  1  0  0  0  0
  1  7  1  0  0  0  0
  1  2  2  0  0  0  0
 21 22  1  0  0  0  0
 22 24  1  0  0  0  0
 22 23  2  0  0  0  0
 32 33  1  0  0  0  0
 33 41  1  0  0  0  0
 33 34  2  0  0  0  0
  8  9  1  0  0  0  0
  9 17  1  0  0  0  0
  9 10  2  0  0  0  0
 18 19  1  0  0  0  0
 19 31  1  0  0  0  0
 19 20  2  0  0  0  0
 32 35  1  0  0  0  0
  8 11  1  0  0  0  0
 41 42  1  0  0  0  0
 18 21  1  0  0  0  0
 31 32  1  0  0  0  0
  7  8  1  0  0  0  0
 17 18  1  0  0  0  0
  3  4  1  0  0  0  0
  3  5  1  0  0  0  0
  3  6  1  0  0  0  0
 35 38  1  0  0  0  0
 35 39  1  0  0  0  0
 35 40  1  0  0  0  0
 11 14  1  0  0  0  0
 11 15  1  0  0  0  0
 11 16  1  0  0  0  0
 42 44  1  0  0  0  0
 42 45  1  0  0  0  0
 42 46  1  0  0  0  0
 21 27  1  0  0  0  0
 21 28  1  0  0  0  0
 32 37  1  0  0  0  0
  8 13  1  0  0  0  0
 18 26  1  0  0  0  0
 24 29  1  0  0  0  0
 24 30  1  0  0  0  0
 41 43  1  0  0  0  0
  7 12  1  0  0  0  0
 31 36  1  0  0  0  0
 17 25  1  0  0  0  0
M  END
$$$$

  -OEChem-05262214473D

 46 45  0     1  0  0  0  0  0999 V2000
   -0.0543    1.9736    3.8406 C   0  0  0  0  0  0  0  0  0  0  0  0
    0.6744    1.6099    4.7562 O   0  0  0  0  0  0  0  0  0  0  0  0
   -0.5599    3.3779    3.8160 C   0  0  0  0  0  0  0  0  0  0  0  0
   -1.5202    3.4885    4.3450 H   0  0  0  0  0  0  0  0  0  0  0  0
    0.1282    4.0814    4.3116 H   0  0  0  0  0  0  0  0  0  0  0  0
   -0.7317    3.7994    2.8126 H   0  0  0  0  0  0  0  0  0  0  0  0
   -0.4812    1.1968    2.7762 N   0  0  0  0  0  0  0  0  0  0  0  0
   -0.1106   -0.1834    2.6051 C   0  0  2  0  0  0  0  0  0  0  0  0
   -0.0696   -0.4775    1.1113 C   0  0  0  0  0  0  0  0  0  0  0  0
   -0.6805    0.1900    0.2792 O   0  0  0  0  0  0  0  0  0  0  0  0
   -1.0852   -1.1101    3.3150 C   0  0  0  0  0  0  0  0  0  0  0  0
   -1.0883    1.6241    2.0791 H   0  0  0  0  0  0  0  0  0  0  0  0
    0.8937   -0.2959    3.0277 H   0  0  0  0  0  0  0  0  0  0  0  0
   -2.0970   -1.0114    2.9051 H   0  0  0  0  0  0  0  0  0  0  0  0
   -0.7860   -2.1580    3.2078 H   0  0  0  0  0  0  0  0  0  0  0  0
   -1.1357   -0.8775    4.3842 H   0  0  0  0  0  0  0  0  0  0  0  0
    0.6950   -1.6003    0.8178 N   0  0  0  0  0  0  0  0  0  0  0  0
    0.8777   -2.0908   -0.5246 C   0  0  2  0  0  0  0  0  0  0  0  0
    2.2447   -2.7605   -0.5871 C   0  0  0  0  0  0  0  0  0  0  0  0
    2.7507   -3.3448    0.3690 O   0  0  0  0  0  0  0  0  0  0  0  0
    0.7797   -0.9693   -1.5590 C   0  0  0  0  0  0  0  0  0  0  0  0
   -0.6279   -0.4210   -1.7141 C   0  0  0  0  0  0  0  0  0  0  0  0
   -1.6378   -1.1178   -1.7473 O   0  0  0  0  0  0  0  0  0  0  0  0
   -0.6454    0.9545   -1.8084 N   0  0  0  0  0  0  0  0  0  0  0  0
    1.1810   -2.0803    1.5718 H   0  0  0  0  0  0  0  0  0  0  0  0
    0.1023   -2.8483   -0.6886 H   0  0  0  0  0  0  0  0  0  0  0  0
    1.4227   -0.1285   -1.2695 H   0  0  0  0  0  0  0  0  0  0  0  0
    1.1271   -1.3189   -2.5397 H   0  0  0  0  0  0  0  0  0  0  0  0
    0.2151    1.4908   -1.7725 H   0  0  0  0  0  0  0  0  0  0  0  0
   -1.5069    1.4804   -1.9162 H   0  0  0  0  0  0  0  0  0  0  0  0
    2.8139   -2.6739   -1.8498 N   0  0  0  0  0  0  0  0  0  0  0  0
    4.0974   -3.2602   -2.1532 C   0  0  2  0  0  0  0  0  0  0  0  0
    4.0189   -4.7495   -1.8443 C   0  0  0  0  0  0  0  0  0  0  0  0
    3.1974   -5.2310   -1.0669 O   0  0  0  0  0  0  0  0  0  0  0  0
    5.2106   -2.5978   -1.3565 C   0  0  0  0  0  0  0  0  0  0  0  0
    2.3181   -2.1920   -2.5939 H   0  0  0  0  0  0  0  0  0  0  0  0
    4.2645   -3.1175   -3.2264 H   0  0  0  0  0  0  0  0  0  0  0  0
    5.0602   -2.7302   -0.2788 H   0  0  0  0  0  0  0  0  0  0  0  0
    6.1870   -3.0243   -1.6088 H   0  0  0  0  0  0  0  0  0  0  0  0
    5.2463   -1.5216   -1.5573 H   0  0  0  0  0  0  0  0  0  0  0  0
    5.0019   -5.4722   -2.5058 N   0  0  0  0  0  0  0  0  0  0  0  0
    5.1446   -6.9027   -2.3668 C   0  0  0  0  0  0  0  0  0  0  0  0
    5.6287   -4.9934   -3.1459 H   0  0  0  0  0  0  0  0  0  0  0  0
    5.8593   -7.1237   -1.5604 H   0  0  0  0  0  0  0  0  0  0  0  0
    4.1681   -7.3464   -2.1229 H   0  0  0  0  0  0  0  0  0  0  0  0
    5.5148   -7.3277   -3.3114 H   0  0  0  0  0  0  0  0  0  0  0  0
  1  3  1  0  0  0  0
  1  7  1  0  0  0  0
  1  2  2  0  0  0  0
 21 22  1  0  0  0  0
 22 24  1  0  0  0  0
 22 23  2  0  0  0  0
 32 33  1  0  0  0  0
 33 41  1  0  0  0  0
 33 34  2  0  0  0  0
  8  9  1  0  0  0  0
  9 17  1  0  0  0  0
  9 10  2  0  0  0  0
 18 19  1  0  0  0  0
 19 31  1  0  0  0  0
 19 20  2  0  0  0  0
 32 35  1  0  0  0  0
  8 11  1  0  0  0  0
 41 42  1  0  0  0  0
 18 21  1  0  0  0  0
 31 32  1  0  0  0  0
  7  8  1  0  0  0  0
 17 18  1  0  0  0  0
  3  4  1  0  0  0  0
  3  5  1  0  0  0  0
  3  6  1  0  0  0  0
 35 38  1  0  0  0  0
 35 39  1  0  0  0  0
 35 40  1  0  0  0  0
 11 14  1  0  0  0  0
 11 15  1  0  0  0  0
 11 16  1  0  0  0  0
 42 44  1  0  0  0  0
 42 45  1  0  0  0  0
 42 46  1  0  0  0  0
 21 27  1  0  0  0  0
 21 28  1  0  0  0  0
 32 37  1  0  0  0  0
  8 13  1  0  0  0  0
 18 26  1  0  0  0  0
 24 29  1  0  0  0  0
 24 30  1  0  0  0  0
 41 43  1  0  0  0  0
  7 12  1  0  0  0  0
 31 36  1  0  0  0  0
 17 25  1  0  0  0  0
M  END
$$$$

  -OEChem-05262214473D

 46 45  0     1  0  0  0  0  0999 V2000
   -0.0543    1.9736    3.8406 C   0  0  0  0  0  0  0  0  0  0  0  0
    0.6744    1.6099    4.7562 O   0  0  0  0  0  0  0  0  0  0  0  0
   -0.5599    3.3779    3.8160 C   0  0  0  0  0  0  0  0  0  0  0  0
   -1.5202    3.4885    4.3450 H   0  0  0  0  0  0  0  0  0  0  0  0
    0.1282    4.0814    4.3116 H   0  0  0  0  0  0  0  0  0  0  0  0
   -0.7317    3.7994    2.8126 H   0  0  0  0  0  0  0  0  0  0  0  0
   -0.4812    1.1968    2.7762 N   0  0  0  0  0  0  0  0  0  0  0  0
   -0.1106   -0.1834    2.6051 C   0  0  2  0  0  0  0  0  0  0  0  0
   -0.0696   -0.4775    1.1113 C   0  0  0  0  0  0  0  0  0  0  0  0
   -0.6805    0.1900    0.2792 O   0  0  0  0  0  0  0  0  0  0  0  0
   -1.0852   -1.1101    3.3150 C   0  0  0  0  0  0  0  0  0  0  0  0
   -1.0883    1.6241    2.0791 H   0  0  0  0  0  0  0  0  0  0  0  0
    0.8937   -0.2959    3.0277 H   0  0  0  0  0  0  0  0  0  0  0  0
   -2.0970   -1.0114    2.9051 H   0  0  0  0  0  0  0  0  0  0  0  0
   -0.7860   -2.1580    3.2078 H   0  0  0  0  0  0  0  0  0  0  0  0
   -1.1357   -0.8775    4.3842 H   0  0  0  0  0  0  0  0  0  0  0  0
    0.6950   -1.6003    0.8178 N   0  0  0  0  0  0  0  0  0  0  0  0
    0.8777   -2.0908   -0.5246 C   0  0  2  0  0  0  0  0  0  0  0  0
    2.2447   -2.7605   -0.5871 C   0  0  0  0  0  0  0  0  0  0  0  0
    2.6390   -3.5623    0.2574 O   0  0  0  0  0  0  0  0  0  0  0  0
    0.7797   -0.9693   -1.5590 C   0  0  0  0  0  0  0  0  0  0  0  0
   -0.6279   -0.4210   -1.7141 C   0  0  0  0  0  0  0  0  0  0  0  0
   -1.6378   -1.1178   -1.7473 O   0  0  0  0  0  0  0  0  0  0  0  0
   -0.6454    0.9545   -1.8084 N   0  0  0  0  0  0  0  0  0  0  0  0
    1.1810   -2.0803    1.5718 H   0  0  0  0  0  0  0  0  0  0  0  0
    0.1023   -2.8483   -0.6886 H   0  0  0  0  0  0  0  0  0  0  0  0
    1.4227   -0.1285   -1.2695 H   0  0  0  0  0  0  0  0  0  0  0  0
    1.1271   -1.3189   -2.5397 H   0  0  0  0  0  0  0  0  0  0  0  0
    0.2151    1.4908   -1.7725 H   0  0  0  0  0  0  0  0  0  0  0  0
   -1.5069    1.4804   -1.9162 H   0  0  0  0  0  0  0  0  0  0  0  0
    2.9551   -2.3975   -1.7226 N   0  0  0  0  0  0  0  0  0  0  0  0
    4.2666   -2.9283   -2.0078 C   0  0  2  0  0  0  0  0  0  0  0  0
    4.1574   -4.4463   -2.0650 C   0  0  0  0  0  0  0  0  0  0  0  0
    3.2533   -5.0748   -1.5186 O   0  0  0  0  0  0  0  0  0  0  0  0
    5.2789   -2.4954   -0.9587 C   0  0  0  0  0  0  0  0  0  0  0  0
    2.5468   -1.7446   -2.3850 H   0  0  0  0  0  0  0  0  0  0  0  0
    4.5557   -2.5450   -2.9925 H   0  0  0  0  0  0  0  0  0  0  0  0
    5.0060   -2.8702    0.0345 H   0  0  0  0  0  0  0  0  0  0  0  0
    6.2791   -2.8752   -1.1919 H   0  0  0  0  0  0  0  0  0  0  0  0
    5.3345   -1.4032   -0.8981 H   0  0  0  0  0  0  0  0  0  0  0  0
    5.2120   -5.0196   -2.7617 N   0  0  0  0  0  0  0  0  0  0  0  0
    5.3417   -6.4464   -2.9444 C   0  0  0  0  0  0  0  0  0  0  0  0
    5.9068   -4.4208   -3.1980 H   0  0  0  0  0  0  0  0  0  0  0  0
    5.9596   -6.8653   -2.1365 H   0  0  0  0  0  0  0  0  0  0  0  0
    4.3449   -6.9109   -2.9220 H   0  0  0  0  0  0  0  0  0  0  0  0
    5.8193   -6.6498   -3.9142 H   0  0  0  0  0  0  0  0  0  0  0  0
  1  3  1  0  0  0  0
  1  7  1  0  0  0  0
  1  2  2  0  0  0  0
 21 22  1  0  0  0  0
 22 24  1  0  0  0  0
 22 23  2  0  0  0  0
 32 33  1  0  0  0  0
 33 41  1  0  0  0  0
 33 34  2  0  0  0  0
  8  9  1  0  0  0  0
  9 17  1  0  0  0  0
  9 10  2  0  0  0  0
 18 19  1  0  0  0  0
 19 31  1  0  0  0  0
 19 20  2  0  0  0  0
 32 35  1  0  0  0  0
  8 11  1  0  0  0  0
 41 42  1  0  0  0  0
 18 21  1  0  0  0  0
 31 32  1  0  0  0  0
  7  8  1  0  0  0  0
 17 18  1  0  0  0  0
  3  4  1  0  0  0  0
  3  5  1  0  0  0  0
  3  6  1  0  0  0  0
 35 38  1  0  0  0  0
 35 39  1  0  0  0  0
 35 40  1  0  0  0  0
 11 14  1  0  0  0  0
 11 15  1  0  0  0  0
 11 16  1  0  0  0  0
 42 44  1  0  0  0  0
 42 45  1  0  0  0  0
 42 46  1  0  0  0  0
 21 27  1  0  0  0  0
 21 28  1  0  0  0  0
 32 37  1  0  0  0  0
  8 13  1  0  0  0  0
 18 26  1  0  0  0  0
 24 29  1  0  0  0  0
 24 30  1  0  0  0  0
 41 43  1  0  0  0  0
  7 12  1  0  0  0  0
 31 36  1  0  0  0  0
 17 25  1  0  0  0  0
M  END
$$$$

  -OEChem-05262214473D

 46 45  0     1  0  0  0  0  0999 V2000
   -0.0543    1.9736    3.8406 C   0  0  0  0  0  0  0  0  0  0  0  0
    0.6744    1.6099    4.7562 O   0  0  0  0  0  0  0  0  0  0  0  0
   -0.5599    3.3779    3.8160 C   0  0  0  0  0  0  0  0  0  0  0  0
   -1.5202    3.4885    4.3450 H   0  0  0  0  0  0  0  0  0  0  0  0
    0.1282    4.0814    4.3116 H   0  0  0  0  0  0  0  0  0  0  0  0
   -0.7317    3.7994    2.8126 H   0  0  0  0  0  0  0  0  0  0  0  0
   -0.4812    1.1968    2.7762 N   0  0  0  0  0  0  0  0  0  0  0  0
   -0.1106   -0.1834    2.6051 C   0  0  2  0  0  0  0  0  0  0  0  0
   -0.0696   -0.4775    1.1113 C   0  0  0  0  0  0  0  0  0  0  0  0
   -0.6805    0.1900    0.2792 O   0  0  0  0  0  0  0  0  0  0  0  0
   -1.0852   -1.1101    3.3150 C   0  0  0  0  0  0  0  0  0  0  0  0
   -1.0883    1.6241    2.0791 H   0  0  0  0  0  0  0  0  0  0  0  0
    0.8937   -0.2959    3.0277 H   0  0  0  0  0  0  0  0  0  0  0  0
   -2.0970   -1.0114    2.9051 H   0  0  0  0  0  0  0  0  0  0  0  0
   -0.7860   -2.1580    3.2078 H   0  0  0  0  0  0  0  0  0  0  0  0
   -1.1357   -0.8775    4.3842 H   0  0  0  0  0  0  0  0  0  0  0  0
    0.6950   -1.6003    0.8178 N   0  0  0  0  0  0  0  0  0  0  0  0
    0.8777   -2.0908   -0.5246 C   0  0  2  0  0  0  0  0  0  0  0  0
    2.2447   -2.7605   -0.5871 C   0  0  0  0  0  0  0  0  0  0  0  0
    2.5416   -3.7454    0.0863 O   0  0  0  0  0  0  0  0  0  0  0  0
    0.7797   -0.9693   -1.5590 C   0  0  0  0  0  0  0  0  0  0  0  0
   -0.6279   -0.4210   -1.7141 C   0  0  0  0  0  0  0  0  0  0  0  0
   -1.6378   -1.1178   -1.7473 O   0  0  0  0  0  0  0  0  0  0  0  0
   -0.6454    0.9545   -1.8084 N   0  0  0  0  0  0  0  0  0  0  0  0
    1.1810   -2.0803    1.5718 H   0  0  0  0  0  0  0  0  0  0  0  0
    0.1023   -2.8483   -0.6886 H   0  0  0  0  0  0  0  0  0  0  0  0
    1.4227   -0.1285   -1.2695 H   0  0  0  0  0  0  0  0  0  0  0  0
    1.1271   -1.3189   -2.5397 H   0  0  0  0  0  0  0  0  0  0  0  0
    0.2151    1.4908   -1.7725 H   0  0  0  0  0  0  0  0  0  0  0  0
   -1.5069    1.4804   -1.9162 H   0  0  0  0  0  0  0  0  0  0  0  0
    3.0800   -2.1616   -1.5195 N   0  0  0  0  0  0  0  0  0  0  0  0
    4.4171   -2.6433   -1.7711 C   0  0  2  0  0  0  0  0  0  0  0  0
    4.3194   -4.1037   -2.1921 C   0  0  0  0  0  0  0  0  0  0  0  0
    3.3602   -4.8197   -1.9123 O   0  0  0  0  0  0  0  0  0  0  0  0
    5.3008   -2.4896   -0.5430 C   0  0  0  0  0  0  0  0  0  0  0  0
    2.7487   -1.3634   -2.0532 H   0  0  0  0  0  0  0  0  0  0  0  0
    4.8164   -2.0494   -2.6004 H   0  0  0  0  0  0  0  0  0  0  0  0
    4.9165   -3.0776    0.2985 H   0  0  0  0  0  0  0  0  0  0  0  0
    6.3222   -2.8291   -0.7441 H   0  0  0  0  0  0  0  0  0  0  0  0
    5.3459   -1.4428   -0.2238 H   0  0  0  0  0  0  0  0  0  0  0  0
    5.4488   -4.5252   -2.8799 N   0  0  0  0  0  0  0  0  0  0  0  0
    5.6027   -5.8736   -3.3740 C   0  0  0  0  0  0  0  0  0  0  0  0
    6.1875   -3.8585   -3.0837 H   0  0  0  0  0  0  0  0  0  0  0  0
    6.1247   -6.4830   -2.6216 H   0  0  0  0  0  0  0  0  0  0  0  0
    4.6112   -6.3065   -3.5727 H   0  0  0  0  0  0  0  0  0  0  0  0
    6.1893   -5.8583   -4.3044 H   0  0  0  0  0  0  0  0  0  0  0  0
  1  3  1  0  0  0  0
  1  7  1  0  0  0  0
  1  2  2  0  0  0  0
 21 22  1  0  0  0  0
 22 24  1  0  0  0  0
 22 23  2  0  0  0  0
 32 33  1  0  0  0  0
 33 41  1  0  0  0  0
 33 34  2  0  0  0  0
  8  9  1  0  0  0  0
  9 17  1  0  0  0  0
  9 10  2  0  0  0  0
 18 19  1  0  0  0  0
 19 31  1  0  0  0  0
 19 20  2  0  0  0  0
 32 35  1  0  0  0  0
  8 11  1  0  0  0  0
 41 42  1  0  0  0  0
 18 21  1  0  0  0  0
 31 32  1  0  0  0  0
  7  8  1  0  0  0  0
 17 18  1  0  0  0  0
  3  4  1  0  0  0  0
  3  5  1  0  0  0  0
  3  6  1  0  0  0  0
 35 38  1  0  0  0  0
 35 39  1  0  0  0  0
 35 40  1  0  0  0  0
 11 14  1  0  0  0  0
 11 15  1  0  0  0  0
 11 16  1  0  0  0  0
 42 44  1  0  0  0  0
 42 45  1  0  0  0  0
 42 46  1  0  0  0  0
 21 27  1  0  0  0  0
 21 28  1  0  0  0  0
 32 37  1  0  0  0  0
  8 13  1  0  0  0  0
 18 26  1  0  0  0  0
 24 29  1  0  0  0  0
 24 30  1  0  0  0  0
 41 43  1  0  0  0  0
  7 12  1  0  0  0  0
 31 36  1  0  0  0  0
 17 25  1  0  0  0  0
M  END
$$$$

  -OEChem-05262214473D

 46 45  0     1  0  0  0  0  0999 V2000
   -0.0543    1.9736    3.8406 C   0  0  0  0  0  0  0  0  0  0  0  0
    0.6744    1.6099    4.7562 O   0  0  0  0  0  0  0  0  0  0  0  0
   -0.5599    3.3779    3.8160 C   0  0  0  0  0  0  0  0  0  0  0  0
   -1.5202    3.4885    4.3450 H   0  0  0  0  0  0  0  0  0  0  0  0
    0.1282    4.0814    4.3116 H   0  0  0  0  0  0  0  0  0  0  0  0
   -0.7317    3.7994    2.8126 H   0  0  0  0  0  0  0  0  0  0  0  0
   -0.4812    1.1968    2.7762 N   0  0  0  0  0  0  0  0  0  0  0  0
   -0.1106   -0.1834    2.6051 C   0  0  2  0  0  0  0  0  0  0  0  0
   -0.0696   -0.4775    1.1113 C   0  0  0  0  0  0  0  0  0  0  0  0
   -0.6805    0.1900    0.2792 O   0  0  0  0  0  0  0  0  0  0  0  0
   -1.0852   -1.1101    3.3150 C   0  0  0  0  0  0  0  0  0  0  0  0
   -1.0883    1.6241    2.0791 H   0  0  0  0  0  0  0  0  0  0  0  0
    0.8937   -0.2959    3.0277 H   0  0  0  0  0  0  0  0  0  0  0  0
   -2.0970   -1.0114    2.9051 H   0  0  0  0  0  0  0  0  0  0  0  0
   -0.7860   -2.1580    3.2078 H   0  0  0  0  0  0  0  0  0  0  0  0
   -1.1357   -0.8775    4.3842 H   0  0  0  0  0  0  0  0  0  0  0  0
    0.6950   -1.6003    0.8178 N   0  0  0  0  0  0  0  0  0  0  0  0
    0.8777   -2.0908   -0.5246 C   0  0  2  0  0  0  0  0  0  0  0  0
    2.2447   -2.7605   -0.5871 C   0  0  0  0  0  0  0  0  0  0  0  0
    2.4649   -3.8814   -0.1325 O   0  0  0  0  0  0  0  0  0  0  0  0
    0.7797   -0.9693   -1.5590 C   0  0  0  0  0  0  0  0  0  0  0  0
   -0.6279   -0.4210   -1.7141 C   0  0  0  0  0  0  0  0  0  0  0  0
   -1.6378   -1.1178   -1.7473 O   0  0  0  0  0  0  0  0  0  0  0  0
   -0.6454    0.9545   -1.8084 N   0  0  0  0  0  0  0  0  0  0  0  0
    1.1810   -2.0803    1.5718 H   0  0  0  0  0  0  0  0  0  0  0  0
    0.1023   -2.8483   -0.6886 H   0  0  0  0  0  0  0  0  0  0  0  0
    1.4227   -0.1285   -1.2695 H   0  0  0  0  0  0  0  0  0  0  0  0
    1.1271   -1.3189   -2.5397 H   0  0  0  0  0  0  0  0  0  0  0  0
    0.2151    1.4908   -1.7725 H   0  0  0  0  0  0  0  0  0  0  0  0
   -1.5069    1.4804   -1.9162 H   0  0  0  0  0  0  0  0  0  0  0  0
    3.1800   -1.9822   -1.2544 N   0  0  0  0  0  0  0  0  0  0  0  0
    4.5385   -2.4246   -1.4591 C   0  0  2  0  0  0  0  0  0  0  0  0
    4.4940   -3.7449   -2.2168 C   0  0  0  0  0  0  0  0  0  0  0  0
    3.5111   -4.4830   -2.2212 O   0  0  0  0  0  0  0  0  0  0  0  0
    5.2746   -2.5808   -0.1375 C   0  0  0  0  0  0  0  0  0  0  0  0
    2.9101   -1.0743   -1.6213 H   0  0  0  0  0  0  0  0  0  0  0  0
    5.0289   -1.6645   -2.0770 H   0  0  0  0  0  0  0  0  0  0  0  0
    4.7978   -3.3383    0.4952 H   0  0  0  0  0  0  0  0  0  0  0  0
    6.3134   -2.8889   -0.2960 H   0  0  0  0  0  0  0  0  0  0  0  0
    5.2798   -1.6377    0.4196 H   0  0  0  0  0  0  0  0  0  0  0  0
    5.6962   -4.0227   -2.8523 N   0  0  0  0  0  0  0  0  0  0  0  0
    5.9097   -5.2233   -3.6262 C   0  0  0  0  0  0  0  0  0  0  0  0
    6.4516   -3.3449   -2.8108 H   0  0  0  0  0  0  0  0  0  0  0  0
    6.3435   -6.0028   -2.9826 H   0  0  0  0  0  0  0  0  0  0  0  0
    4.9489   -5.5745   -4.0305 H   0  0  0  0  0  0  0  0  0  0  0  0
    6.5994   -5.0070   -4.4554 H   0  0  0  0  0  0  0  0  0  0  0  0
  1  3  1  0  0  0  0
  1  7  1  0  0  0  0
  1  2  2  0  0  0  0
 21 22  1  0  0  0  0
 22 24  1  0  0  0  0
 22 23  2  0  0  0  0
 32 33  1  0  0  0  0
 33 41  1  0  0  0  0
 33 34  2  0  0  0  0
  8  9  1  0  0  0  0
  9 17  1  0  0  0  0
  9 10  2  0  0  0  0
 18 19  1  0  0  0  0
 19 31  1  0  0  0  0
 19 20  2  0  0  0  0
 32 35  1  0  0  0  0
  8 11  1  0  0  0  0
 41 42  1  0  0  0  0
 18 21  1  0  0  0  0
 31 32  1  0  0  0  0
  7  8  1  0  0  0  0
 17 18  1  0  0  0  0
  3  4  1  0  0  0  0
  3  5  1  0  0  0  0
  3  6  1  0  0  0  0
 35 38  1  0  0  0  0
 35 39  1  0  0  0  0
 35 40  1  0  0  0  0
 11 14  1  0  0  0  0
 11 15  1  0  0  0  0
 11 16  1  0  0  0  0
 42 44  1  0  0  0  0
 42 45  1  0  0  0  0
 42 46  1  0  0  0  0
 21 27  1  0  0  0  0
 21 28  1  0  0  0  0
 32 37  1  0  0  0  0
  8 13  1  0  0  0  0
 18 26  1  0  0  0  0
 24 29  1  0  0  0  0
 24 30  1  0  0  0  0
 41 43  1  0  0  0  0
  7 12  1  0  0  0  0
 31 36  1  0  0  0  0
 17 25  1  0  0  0  0
M  END
$$$$

  -OEChem-05262214473D

 46 45  0     1  0  0  0  0  0999 V2000
   -0.0543    1.9736    3.8406 C   0  0  0  0  0  0  0  0  0  0  0  0
    0.6744    1.6099    4.7562 O   0  0  0  0  0  0  0  0  0  0  0  0
   -0.5599    3.3779    3.8160 C   0  0  0  0  0  0  0  0  0  0  0  0
   -1.5202    3.4885    4.3450 H   0  0  0  0  0  0  0  0  0  0  0  0
    0.1282    4.0814    4.3116 H   0  0  0  0  0  0  0  0  0  0  0  0
   -0.7317    3.7994    2.8126 H   0  0  0  0  0  0  0  0  0  0  0  0
   -0.4812    1.1968    2.7762 N   0  0  0  0  0  0  0  0  0  0  0  0
   -0.1106   -0.1834    2.6051 C   0  0  2  0  0  0  0  0  0  0  0  0
   -0.0696   -0.4775    1.1113 C   0  0  0  0  0  0  0  0  0  0  0  0
   -0.6805    0.1900    0.2792 O   0  0  0  0  0  0  0  0  0  0  0  0
   -1.0852   -1.1101    3.3150 C   0  0  0  0  0  0  0  0  0  0  0  0
   -1.0883    1.6241    2.0791 H   0  0  0  0  0  0  0  0  0  0  0  0
    0.8937   -0.2959    3.0277 H   0  0  0  0  0  0  0  0  0  0  0  0
   -2.0970   -1.0114    2.9051 H   0  0  0  0  0  0  0  0  0  0  0  0
   -0.7860   -2.1580    3.2078 H   0  0  0  0  0  0  0  0  0  0  0  0
   -1.1357   -0.8775    4.3842 H   0  0  0  0  0  0  0  0  0  0  0  0
    0.6950   -1.6003    0.8178 N   0  0  0  0  0  0  0  0  0  0  0  0
    0.8777   -2.0908   -0.5246 C   0  0  2  0  0  0  0  0  0  0  0  0
    2.2447   -2.7605   -0.5871 C   0  0  0  0  0  0  0  0  0  0  0  0
    2.4143   -3.9612   -0.3842 O   0  0  0  0  0  0  0  0  0  0  0  0
    0.7797   -0.9693   -1.5590 C   0  0  0  0  0  0  0  0  0  0  0  0
   -0.6279   -0.4210   -1.7141 C   0  0  0  0  0  0  0  0  0  0  0  0
   -1.6378   -1.1178   -1.7473 O   0  0  0  0  0  0  0  0  0  0  0  0
   -0.6454    0.9545   -1.8084 N   0  0  0  0  0  0  0  0  0  0  0  0
    1.1810   -2.0803    1.5718 H   0  0  0  0  0  0  0  0  0  0  0  0
    0.1023   -2.8483   -0.6886 H   0  0  0  0  0  0  0  0  0  0  0  0
    1.4227   -0.1285   -1.2695 H   0  0  0  0  0  0  0  0  0  0  0  0
    1.1271   -1.3189   -2.5397 H   0  0  0  0  0  0  0  0  0  0  0  0
    0.2151    1.4908   -1.7725 H   0  0  0  0  0  0  0  0  0  0  0  0
   -1.5069    1.4804   -1.9162 H   0  0  0  0  0  0  0  0  0  0  0  0
    3.2484   -1.8715   -0.9452 N   0  0  0  0  0  0  0  0  0  0  0  0
    4.6226   -2.2870   -1.0931 C   0  0  2  0  0  0  0  0  0  0  0  0
    4.6693   -3.3945   -2.1375 C   0  0  0  0  0  0  0  0  0  0  0  0
    3.6955   -4.0876   -2.4242 O   0  0  0  0  0  0  0  0  0  0  0  0
    5.2023   -2.7628    0.2299 C   0  0  0  0  0  0  0  0  0  0  0  0
    3.0199   -0.8971   -1.1187 H   0  0  0  0  0  0  0  0  0  0  0  0
    5.1787   -1.4165   -1.4578 H   0  0  0  0  0  0  0  0  0  0  0  0
    4.6579   -3.6345    0.6111 H   0  0  0  0  0  0  0  0  0  0  0  0
    6.2532   -3.0507    0.1220 H   0  0  0  0  0  0  0  0  0  0  0  0
    5.1407   -1.9748    0.9883 H   0  0  0  0  0  0  0  0  0  0  0  0
    5.9374   -3.5464   -2.6808 N   0  0  0  0  0  0  0  0  0  0  0  0
    6.2419   -4.5398   -3.6839 C   0  0  0  0  0  0  0  0  0  0  0  0
    6.6811   -2.9150   -2.3979 H   0  0  0  0  0  0  0  0  0  0  0  0
    6.6009   -5.4574   -3.1949 H   0  0  0  0  0  0  0  0  0  0  0  0
    5.3350   -4.7646   -4.2643 H   0  0  0  0  0  0  0  0  0  0  0  0
    7.0218   -4.1540   -4.3570 H   0  0  0  0  0  0  0  0  0  0  0  0
  1  3  1  0  0  0  0
  1  7  1  0  0  0  0
  1  2  2  0  0  0  0
 21 22  1  0  0  0  0
 22 24  1  0  0  0  0
 22 23  2  0  0  0  0
 32 33  1  0  0  0  0
 33 41  1  0  0  0  0
 33 34  2  0  0  0  0
  8  9  1  0  0  0  0
  9 17  1  0  0  0  0
  9 10  2  0  0  0  0
 18 19  1  0  0  0  0
 19 31  1  0  0  0  0
 19 20  2  0  0  0  0
 32 35  1  0  0  0  0
  8 11  1  0  0  0  0
 41 42  1  0  0  0  0
 18 21  1  0  0  0  0
 31 32  1  0  0  0  0
  7  8  1  0  0  0  0
 17 18  1  0  0  0  0
  3  4  1  0  0  0  0
  3  5  1  0  0  0  0
  3  6  1  0  0  0  0
 35 38  1  0  0  0  0
 35 39  1  0  0  0  0
 35 40  1  0  0  0  0
 11 14  1  0  0  0  0
 11 15  1  0  0  0  0
 11 16  1  0  0  0  0
 42 44  1  0  0  0  0
 42 45  1  0  0  0  0
 42 46  1  0  0  0  0
 21 27  1  0  0  0  0
 21 28  1  0  0  0  0
 32 37  1  0  0  0  0
  8 13  1  0  0  0  0
 18 26  1  0  0  0  0
 24 29  1  0  0  0  0
 24 30  1  0  0  0  0
 41 43  1  0  0  0  0
  7 12  1  0  0  0  0
 31 36  1  0  0  0  0
 17 25  1  0  0  0  0
M  END
$$$$

  -OEChem-05262214473D

 46 45  0     1  0  0  0  0  0999 V2000
   -0.0543    1.9736    3.8406 C   0  0  0  0  0  0  0  0  0  0  0  0
    0.6744    1.6099    4.7562 O   0  0  0  0  0  0  0  0  0  0  0  0
   -0.5599    3.3779    3.8160 C   0  0  0  0  0  0  0  0  0  0  0  0
   -1.5202    3.4885    4.3450 H   0  0  0  0  0  0  0  0  0  0  0  0
    0.1282    4.0814    4.3116 H   0  0  0  0  0  0  0  0  0  0  0  0
   -0.7317    3.7994    2.8126 H   0  0  0  0  0  0  0  0  0  0  0  0
   -0.4812    1.1968    2.7762 N   0  0  0  0  0  0  0  0  0  0  0  0
   -0.1106   -0.1834    2.6051 C   0  0  2  0  0  0  0  0  0  0  0  0
   -0.0696   -0.4775    1.1113 C   0  0  0  0  0  0  0  0  0  0  0  0
   -0.6805    0.1900    0.2792 O   0  0  0  0  0  0  0  0  0  0  0  0
   -1.0852   -1.1101    3.3150 C   0  0  0  0  0  0  0  0  0  0  0  0
   -1.0883    1.6241    2.0791 H   0  0  0  0  0  0  0  0  0  0  0  0
    0.8937   -0.2959    3.0277 H   0  0  0  0  0  0  0  0  0  0  0  0
   -2.0970   -1.0114    2.9051 H   0  0  0  0  0  0  0  0  0  0  0  0
   -0.7860   -2.1580    3.2078 H   0  0  0  0  0  0  0  0  0  0  0  0
   -1.1357   -0.8775    4.3842 H   0  0  0  0  0  0  0  0  0  0  0  0
    0.6950   -1.6003    0.8178 N   0  0  0  0  0  0  0  0  0  0  0  0
    0.8777   -2.0908   -0.5246 C   0  0  2  0  0  0  0  0  0  0  0  0
    2.2447   -2.7605   -0.5871 C   0  0  0  0  0  0  0  0  0  0  0  0
    2.3932   -3.9792   -0.6516 O   0  0  0  0  0  0  0  0  0  0  0  0
    0.7797   -0.9693   -1.5590 C   0  0  0  0  0  0  0  0  0  0  0  0
   -0.6279   -0.4210   -1.7141 C   0  0  0  0  0  0  0  0  0  0  0  0
   -1.6378   -1.1178   -1.7473 O   0  0  0  0  0  0  0  0  0  0  0  0
   -0.6454    0.9545   -1.8084 N   0  0  0  0  0  0  0  0  0  0  0  0
    1.1810   -2.0803    1.5718 H   0  0  0  0  0  0  0  0  0  0  0  0
    0.1023   -2.8483   -0.6886 H   0  0  0  0  0  0  0  0  0  0  0  0
    1.4227   -0.1285   -1.2695 H   0  0  0  0  0  0  0  0  0  0  0  0
    1.1271   -1.3189   -2.5397 H   0  0  0  0  0  0  0  0  0  0  0  0
    0.2151    1.4908   -1.7725 H   0  0  0  0  0  0  0  0  0  0  0  0
   -1.5069    1.4804   -1.9162 H   0  0  0  0  0  0  0  0  0  0  0  0
    3.2804   -1.8372   -0.6131 N   0  0  0  0  0  0  0  0  0  0  0  0
    4.6637   -2.2400   -0.6981 C   0  0  2  0  0  0  0  0  0  0  0  0
    4.8334   -3.0763   -1.9596 C   0  0  0  0  0  0  0  0  0  0  0  0
    3.9009   -3.6606   -2.5075 O   0  0  0  0  0  0  0  0  0  0  0  0
    5.0887   -3.0231    0.5344 C   0  0  0  0  0  0  0  0  0  0  0  0
    3.0706   -0.8439   -0.5795 H   0  0  0  0  0  0  0  0  0  0  0  0
    5.2556   -1.3224   -0.7852 H   0  0  0  0  0  0  0  0  0  0  0  0
    4.5066   -3.9460    0.6384 H   0  0  0  0  0  0  0  0  0  0  0  0
    6.1459   -3.3034    0.4814 H   0  0  0  0  0  0  0  0  0  0  0  0
    4.9380   -2.4309    1.4435 H   0  0  0  0  0  0  0  0  0  0  0  0
    6.1559   -3.1287   -2.3770 N   0  0  0  0  0  0  0  0  0  0  0  0
    6.5766   -3.8698   -3.5431 C   0  0  0  0  0  0  0  0  0  0  0  0
    6.8604   -2.5981   -1.8731 H   0  0  0  0  0  0  0  0  0  0  0  0
    6.8796   -4.8841   -3.2440 H   0  0  0  0  0  0  0  0  0  0  0  0
    5.7431   -3.9321   -4.2582 H   0  0  0  0  0  0  0  0  0  0  0  0
    7.4276   -3.3575   -4.0157 H   0  0  0  0  0  0  0  0  0  0  0  0
  1  3  1  0  0  0  0
  1  7  1  0  0  0  0
  1  2  2  0  0  0  0
 21 22  1  0  0  0  0
 22 24  1  0  0  0  0
 22 23  2  0  0  0  0
 32 33  1  0  0  0  0
 33 41  1  0  0  0  0
 33 34  2  0  0  0  0
  8  9  1  0  0  0  0
  9 17  1  0  0  0  0
  9 10  2  0  0  0  0
 18 19  1  0  0  0  0
 19 31  1  0  0  0  0
 19 20  2  0  0  0  0
 32 35  1  0  0  0  0
  8 11  1  0  0  0  0
 41 42  1  0  0  0  0
 18 21  1  0  0  0  0
 31 32  1  0  0  0  0
  7  8  1  0  0  0  0
 17 18  1  0  0  0  0
  3  4  1  0  0  0  0
  3  5  1  0  0  0  0
  3  6  1  0  0  0  0
 35 38  1  0  0  0  0
 35 39  1  0  0  0  0
 35 40  1  0  0  0  0
 11 14  1  0  0  0  0
 11 15  1  0  0  0  0
 11 16  1  0  0  0  0
 42 44  1  0  0  0  0
 42 45  1  0  0  0  0
 42 46  1  0  0  0  0
 21 27  1  0  0  0  0
 21 28  1  0  0  0  0
 32 37  1  0  0  0  0
  8 13  1  0  0  0  0
 18 26  1  0  0  0  0
 24 29  1  0  0  0  0
 24 30  1  0  0  0  0
 41 43  1  0  0  0  0
  7 12  1  0  0  0  0
 31 36  1  0  0  0  0
 17 25  1  0  0  0  0
M  END
$$$$

  -OEChem-05262214473D

 46 45  0     1  0  0  0  0  0999 V2000
   -0.0543    1.9736    3.8406 C   0  0  0  0  0  0  0  0  0  0  0  0
    0.6744    1.6099    4.7562 O   0  0  0  0  0  0  0  0  0  0  0  0
   -0.5599    3.3779    3.8160 C   0  0  0  0  0  0  0  0  0  0  0  0
   -1.5202    3.4885    4.3450 H   0  0  0  0  0  0  0  0  0  0  0  0
    0.1282    4.0814    4.3116 H   0  0  0  0  0  0  0  0  0  0  0  0
   -0.7317    3.7994    2.8126 H   0  0  0  0  0  0  0  0  0  0  0  0
   -0.4812    1.1968    2.7762 N   0  0  0  0  0  0  0  0  0  0  0  0
   -0.1106   -0.1834    2.6051 C   0  0  2  0  0  0  0  0  0  0  0  0
   -0.0696   -0.4775    1.1113 C   0  0  0  0  0  0  0  0  0  0  0  0
   -0.6805    0.1900    0.2792 O   0  0  0  0  0  0  0  0  0  0  0  0
   -1.0852   -1.1101    3.3150 C   0  0  0  0  0  0  0  0  0  0  0  0
   -1.0883    1.6241    2.0791 H   0  0  0  0  0  0  0  0  0  0  0  0
    0.8937   -0.2959    3.0277 H   0  0  0  0  0  0  0  0  0  0  0  0
   -2.0970   -1.0114    2.9051 H   0  0  0  0  0  0  0  0  0  0  0  0
   -0.7860   -2.1580    3.2078 H   0  0  0  0  0  0  0  0  0  0  0  0
   -1.1357   -0.8775    4.3842 H   0  0  0  0  0  0  0  0  0  0  0  0
    0.6950   -1.6003    0.8178 N   0  0  0  0  0  0  0  0  0  0  0  0
    0.8777   -2.0908   -0.5246 C   0  0  2  0  0  0  0  0  0  0  0  0
    2.2447   -2.7605   -0.5871 C   0  0  0  0  0  0  0  0  0  0  0  0
    2.4031   -3.9344   -0.9164 O   0  0  0  0  0  0  0  0  0  0  0  0
    0.7797   -0.9693   -1.5590 C   0  0  0  0  0  0  0  0  0  0  0  0
   -0.6279   -0.4210   -1.7141 C   0  0  0  0  0  0  0  0  0  0  0  0
   -1.6378   -1.1178   -1.7473 O   0  0  0  0  0  0  0  0  0  0  0  0
   -0.6454    0.9545   -1.8084 N   0  0  0  0  0  0  0  0  0  0  0  0
    1.1810   -2.0803    1.5718 H   0  0  0  0  0  0  0  0  0  0  0  0
    0.1023   -2.8483   -0.6886 H   0  0  0  0  0  0  0  0  0  0  0  0
    1.4227   -0.1285   -1.2695 H   0  0  0  0  0  0  0  0  0  0  0  0
    1.1271   -1.3189   -2.5397 H   0  0  0  0  0  0  0  0  0  0  0  0
    0.2151    1.4908   -1.7725 H   0  0  0  0  0  0  0  0  0  0  0  0
   -1.5069    1.4804   -1.9162 H   0  0  0  0  0  0  0  0  0  0  0  0
    3.2739   -1.8814   -0.2807 N   0  0  0  0  0  0  0  0  0  0  0  0
    4.6589   -2.2868   -0.3009 C   0  0  2  0  0  0  0  0  0  0  0  0
    4.9749   -2.8120   -1.6951 C   0  0  0  0  0  0  0  0  0  0  0  0
    4.1133   -3.2309   -2.4654 O   0  0  0  0  0  0  0  0  0  0  0  0
    4.9415   -3.3441    0.7551 C   0  0  0  0  0  0  0  0  0  0  0  0
    3.0588   -0.9182   -0.0405 H   0  0  0  0  0  0  0  0  0  0  0  0
    5.2543   -1.3885   -0.1048 H   0  0  0  0  0  0  0  0  0  0  0  0
    4.3539   -4.2517    0.5752 H   0  0  0  0  0  0  0  0  0  0  0  0
    5.9986   -3.6298    0.7576 H   0  0  0  0  0  0  0  0  0  0  0  0
    4.6857   -2.9751    1.7542 H   0  0  0  0  0  0  0  0  0  0  0  0
    6.3369   -2.7981   -1.9618 N   0  0  0  0  0  0  0  0  0  0  0  0
    6.8910   -3.2589   -3.2135 C   0  0  0  0  0  0  0  0  0  0  0  0
    6.9772   -2.4157   -1.2722 H   0  0  0  0  0  0  0  0  0  0  0  0
    7.1604   -4.3218   -3.1266 H   0  0  0  0  0  0  0  0  0  0  0  0
    6.1454   -3.1338   -4.0125 H   0  0  0  0  0  0  0  0  0  0  0  0
    7.7892   -2.6716   -3.4549 H   0  0  0  0  0  0  0  0  0  0  0  0
  1  3  1  0  0  0  0
  1  7  1  0  0  0  0
  1  2  2  0  0  0  0
 21 22  1  0  0  0  0
 22 24  1  0  0  0  0
 22 23  2  0  0  0  0
 32 33  1  0  0  0  0
 33 41  1  0  0  0  0
 33 34  2  0  0  0  0
  8  9  1  0  0  0  0
  9 17  1  0  0  0  0
  9 10  2  0  0  0  0
 18 19  1  0  0  0  0
 19 31  1  0  0  0  0
 19 20  2  0  0  0  0
 32 35  1  0  0  0  0
  8 11  1  0  0  0  0
 41 42  1  0  0  0  0
 18 21  1  0  0  0  0
 31 32  1  0  0  0  0
  7  8  1  0  0  0  0
 17 18  1  0  0  0  0
  3  4  1  0  0  0  0
  3  5  1  0  0  0  0
  3  6  1  0  0  0  0
 35 38  1  0  0  0  0
 35 39  1  0  0  0  0
 35 40  1  0  0  0  0
 11 14  1  0  0  0  0
 11 15  1  0  0  0  0
 11 16  1  0  0  0  0
 42 44  1  0  0  0  0
 42 45  1  0  0  0  0
 42 46  1  0  0  0  0
 21 27  1  0  0  0  0
 21 28  1  0  0  0  0
 32 37  1  0  0  0  0
  8 13  1  0  0  0  0
 18 26  1  0  0  0  0
 24 29  1  0  0  0  0
 24 30  1  0  0  0  0
 41 43  1  0  0  0  0
  7 12  1  0  0  0  0
 31 36  1  0  0  0  0
 17 25  1  0  0  0  0
M  END
$$$$

  -OEChem-05262214473D

 46 45  0     1  0  0  0  0  0999 V2000
   -0.0543    1.9736    3.8406 C   0  0  0  0  0  0  0  0  0  0  0  0
    0.6744    1.6099    4.7562 O   0  0  0  0  0  0  0  0  0  0  0  0
   -0.5599    3.3779    3.8160 C   0  0  0  0  0  0  0  0  0  0  0  0
   -1.5202    3.4885    4.3450 H   0  0  0  0  0  0  0  0  0  0  0  0
    0.1282    4.0814    4.3116 H   0  0  0  0  0  0  0  0  0  0  0  0
   -0.7317    3.7994    2.8126 H   0  0  0  0  0  0  0  0  0  0  0  0
   -0.4812    1.1968    2.7762 N   0  0  0  0  0  0  0  0  0  0  0  0
   -0.1106   -0.1834    2.6051 C   0  0  2  0  0  0  0  0  0  0  0  0
   -0.0696   -0.4775    1.1113 C   0  0  0  0  0  0  0  0  0  0  0  0
   -0.6805    0.1900    0.2792 O   0  0  0  0  0  0  0  0  0  0  0  0
   -1.0852   -1.1101    3.3150 C   0  0  0  0  0  0  0  0  0  0  0  0
   -1.0883    1.6241    2.0791 H   0  0  0  0  0  0  0  0  0  0  0  0
    0.8937   -0.2959    3.0277 H   0  0  0  0  0  0  0  0  0  0  0  0
   -2.0970   -1.0114    2.9051 H   0  0  0  0  0  0  0  0  0  0  0  0
   -0.7860   -2.1580    3.2078 H   0  0  0  0  0  0  0  0  0  0  0  0
   -1.1357   -0.8775    4.3842 H   0  0  0  0  0  0  0  0  0  0  0  0
    0.6950   -1.6003    0.8178 N   0  0  0  0  0  0  0  0  0  0  0  0
    0.8777   -2.0908   -0.5246 C   0  0  2  0  0  0  0  0  0  0  0  0
    2.2447   -2.7605   -0.5871 C   0  0  0  0  0  0  0  0  0  0  0  0
    2.4432   -3.8296   -1.1607 O   0  0  0  0  0  0  0  0  0  0  0  0
    0.7797   -0.9693   -1.5590 C   0  0  0  0  0  0  0  0  0  0  0  0
   -0.6279   -0.4210   -1.7141 C   0  0  0  0  0  0  0  0  0  0  0  0
   -1.6378   -1.1178   -1.7473 O   0  0  0  0  0  0  0  0  0  0  0  0
   -0.6454    0.9545   -1.8084 N   0  0  0  0  0  0  0  0  0  0  0  0
    1.1810   -2.0803    1.5718 H   0  0  0  0  0  0  0  0  0  0  0  0
    0.1023   -2.8483   -0.6886 H   0  0  0  0  0  0  0  0  0  0  0  0
    1.4227   -0.1285   -1.2695 H   0  0  0  0  0  0  0  0  0  0  0  0
    1.1271   -1.3189   -2.5397 H   0  0  0  0  0  0  0  0  0  0  0  0
    0.2151    1.4908   -1.7725 H   0  0  0  0  0  0  0  0  0  0  0  0
   -1.5069    1.4804   -1.9162 H   0  0  0  0  0  0  0  0  0  0  0  0
    3.2293   -2.0013    0.0294 N   0  0  0  0  0  0  0  0  0  0  0  0
    4.6087   -2.4242    0.0713 C   0  0  2  0  0  0  0  0  0  0  0  0
    5.0844   -2.6196   -1.3622 C   0  0  0  0  0  0  0  0  0  0  0  0
    4.3183   -2.8279   -2.3007 O   0  0  0  0  0  0  0  0  0  0  0  0
    4.7709   -3.7038    0.8770 C   0  0  0  0  0  0  0  0  0  0  0  0
    2.9854   -1.1150    0.4615 H   0  0  0  0  0  0  0  0  0  0  0  0
    5.1750   -1.6103    0.5369 H   0  0  0  0  0  0  0  0  0  0  0  0
    4.2104   -4.5306    0.4257 H   0  0  0  0  0  0  0  0  0  0  0  0
    5.8214   -4.0076    0.9318 H   0  0  0  0  0  0  0  0  0  0  0  0
    4.4007   -3.5702    1.8992 H   0  0  0  0  0  0  0  0  0  0  0  0
    6.4679   -2.5771   -1.4634 N   0  0  0  0  0  0  0  0  0  0  0  0
    7.1636   -2.7486   -2.7174 C   0  0  0  0  0  0  0  0  0  0  0  0
    7.0236   -2.3804   -0.6361 H   0  0  0  0  0  0  0  0  0  0  0  0
    7.4242   -3.8090   -2.8506 H   0  0  0  0  0  0  0  0  0  0  0  0
    6.5146   -2.4240   -3.5440 H   0  0  0  0  0  0  0  0  0  0  0  0
    8.0820   -2.1432   -2.7128 H   0  0  0  0  0  0  0  0  0  0  0  0
  1  3  1  0  0  0  0
  1  7  1  0  0  0  0
  1  2  2  0  0  0  0
 21 22  1  0  0  0  0
 22 24  1  0  0  0  0
 22 23  2  0  0  0  0
 32 33  1  0  0  0  0
 33 41  1  0  0  0  0
 33 34  2  0  0  0  0
  8  9  1  0  0  0  0
  9 17  1  0  0  0  0
  9 10  2  0  0  0  0
 18 19  1  0  0  0  0
 19 31  1  0  0  0  0
 19 20  2  0  0  0  0
 32 35  1  0  0  0  0
  8 11  1  0  0  0  0
 41 42  1  0  0  0  0
 18 21  1  0  0  0  0
 31 32  1  0  0  0  0
  7  8  1  0  0  0  0
 17 18  1  0  0  0  0
  3  4  1  0  0  0  0
  3  5  1  0  0  0  0
  3  6  1  0  0  0  0
 35 38  1  0  0  0  0
 35 39  1  0  0  0  0
 35 40  1  0  0  0  0
 11 14  1  0  0  0  0
 11 15  1  0  0  0  0
 11 16  1  0  0  0  0
 42 44  1  0  0  0  0
 42 45  1  0  0  0  0
 42 46  1  0  0  0  0
 21 27  1  0  0  0  0
 21 28  1  0  0  0  0
 32 37  1  0  0  0  0
  8 13  1  0  0  0  0
 18 26  1  0  0  0  0
 24 29  1  0  0  0  0
 24 30  1  0  0  0  0
 41 43  1  0  0  0  0
  7 12  1  0  0  0  0
 31 36  1  0  0  0  0
 17 25  1  0  0  0  0
M  END
$$$$

  -OEChem-05262214473D

 46 45  0     1  0  0  0  0  0999 V2000
   -0.0543    1.9736    3.8406 C   0  0  0  0  0  0  0  0  0  0  0  0
    0.6744    1.6099    4.7562 O   0  0  0  0  0  0  0  0  0  0  0  0
   -0.5599    3.3779    3.8160 C   0  0  0  0  0  0  0  0  0  0  0  0
   -1.5202    3.4885    4.3450 H   0  0  0  0  0  0  0  0  0  0  0  0
    0.1282    4.0814    4.3116 H   0  0  0  0  0  0  0  0  0  0  0  0
   -0.7317    3.7994    2.8126 H   0  0  0  0  0  0  0  0  0  0  0  0
   -0.4812    1.1968    2.7762 N   0  0  0  0  0  0  0  0  0  0  0  0
   -0.1106   -0.1834    2.6051 C   0  0  2  0  0  0  0  0  0  0  0  0
   -0.0696   -0.4775    1.1113 C   0  0  0  0  0  0  0  0  0  0  0  0
   -0.6805    0.1900    0.2792 O   0  0  0  0  0  0  0  0  0  0  0  0
   -1.0852   -1.1101    3.3150 C   0  0  0  0  0  0  0  0  0  0  0  0
   -1.0883    1.6241    2.0791 H   0  0  0  0  0  0  0  0  0  0  0  0
    0.8937   -0.2959    3.0277 H   0  0  0  0  0  0  0  0  0  0  0  0
   -2.0970   -1.0114    2.9051 H   0  0  0  0  0  0  0  0  0  0  0  0
   -0.7860   -2.1580    3.2078 H   0  0  0  0  0  0  0  0  0  0  0  0
   -1.1357   -0.8775    4.3842 H   0  0  0  0  0  0  0  0  0  0  0  0
    0.6950   -1.6003    0.8178 N   0  0  0  0  0  0  0  0  0  0  0  0
    0.8777   -2.0908   -0.5246 C   0  0  2  0  0  0  0  0  0  0  0  0
    2.2447   -2.7605   -0.5871 C   0  0  0  0  0  0  0  0  0  0  0  0
    2.5109   -3.6721   -1.3678 O   0  0  0  0  0  0  0  0  0  0  0  0
    0.7797   -0.9693   -1.5590 C   0  0  0  0  0  0  0  0  0  0  0  0
   -0.6279   -0.4210   -1.7141 C   0  0  0  0  0  0  0  0  0  0  0  0
   -1.6378   -1.1178   -1.7473 O   0  0  0  0  0  0  0  0  0  0  0  0
   -0.6454    0.9545   -1.8084 N   0  0  0  0  0  0  0  0  0  0  0  0
    1.1810   -2.0803    1.5718 H   0  0  0  0  0  0  0  0  0  0  0  0
    0.1023   -2.8483   -0.6886 H   0  0  0  0  0  0  0  0  0  0  0  0
    1.4227   -0.1285   -1.2695 H   0  0  0  0  0  0  0  0  0  0  0  0
    1.1271   -1.3189   -2.5397 H   0  0  0  0  0  0  0  0  0  0  0  0
    0.2151    1.4908   -1.7725 H   0  0  0  0  0  0  0  0  0  0  0  0
   -1.5069    1.4804   -1.9162 H   0  0  0  0  0  0  0  0  0  0  0  0
    3.1498   -2.1887    0.2960 N   0  0  0  0  0  0  0  0  0  0  0  0
    4.5163   -2.6428    0.3932 C   0  0  2  0  0  0  0  0  0  0  0  0
    5.1543   -2.5123   -0.9835 C   0  0  0  0  0  0  0  0  0  0  0  0
    4.5018   -2.4790   -2.0248 O   0  0  0  0  0  0  0  0  0  0  0  0
    4.5884   -4.0777    0.8918 C   0  0  0  0  0  0  0  0  0  0  0  0
    2.8552   -1.4209    0.8923 H   0  0  0  0  0  0  0  0  0  0  0  0
    5.0230   -1.9728    1.0962 H   0  0  0  0  0  0  0  0  0  0  0  0
    4.0859   -4.7639    0.2003 H   0  0  0  0  0  0  0  0  0  0  0  0
    5.6265   -4.4112    0.9922 H   0  0  0  0  0  0  0  0  0  0  0  0
    4.1027   -4.1757    1.8687 H   0  0  0  0  0  0  0  0  0  0  0  0
    6.5401   -2.4808   -0.9157 N   0  0  0  0  0  0  0  0  0  0  0  0
    7.3760   -2.3739   -2.0887 C   0  0  0  0  0  0  0  0  0  0  0  0
    6.9964   -2.4944   -0.0082 H   0  0  0  0  0  0  0  0  0  0  0  0
    7.6532   -3.3805   -2.4350 H   0  0  0  0  0  0  0  0  0  0  0  0
    6.8254   -1.8511   -2.8846 H   0  0  0  0  0  0  0  0  0  0  0  0
    8.2860   -1.8083   -1.8400 H   0  0  0  0  0  0  0  0  0  0  0  0
  1  3  1  0  0  0  0
  1  7  1  0  0  0  0
  1  2  2  0  0  0  0
 21 22  1  0  0  0  0
 22 24  1  0  0  0  0
 22 23  2  0  0  0  0
 32 33  1  0  0  0  0
 33 41  1  0  0  0  0
 33 34  2  0  0  0  0
  8  9  1  0  0  0  0
  9 17  1  0  0  0  0
  9 10  2  0  0  0  0
 18 19  1  0  0  0  0
 19 31  1  0  0  0  0
 19 20  2  0  0  0  0
 32 35  1  0  0  0  0
  8 11  1  0  0  0  0
 41 42  1  0  0  0  0
 18 21  1  0  0  0  0
 31 32  1  0  0  0  0
  7  8  1  0  0  0  0
 17 18  1  0  0  0  0
  3  4  1  0  0  0  0
  3  5  1  0  0  0  0
  3  6  1  0  0  0  0
 35 38  1  0  0  0  0
 35 39  1  0  0  0  0
 35 40  1  0  0  0  0
 11 14  1  0  0  0  0
 11 15  1  0  0  0  0
 11 16  1  0  0  0  0
 42 44  1  0  0  0  0
 42 45  1  0  0  0  0
 42 46  1  0  0  0  0
 21 27  1  0  0  0  0
 21 28  1  0  0  0  0
 32 37  1  0  0  0  0
  8 13  1  0  0  0  0
 18 26  1  0  0  0  0
 24 29  1  0  0  0  0
 24 30  1  0  0  0  0
 41 43  1  0  0  0  0
  7 12  1  0  0  0  0
 31 36  1  0  0  0  0
 17 25  1  0  0  0  0
M  END
$$$$

  -OEChem-05262214473D

 46 45  0     1  0  0  0  0  0999 V2000
   -0.0543    1.9736    3.8406 C   0  0  0  0  0  0  0  0  0  0  0  0
    0.6744    1.6099    4.7562 O   0  0  0  0  0  0  0  0  0  0  0  0
   -0.5599    3.3779    3.8160 C   0  0  0  0  0  0  0  0  0  0  0  0
   -1.5202    3.4885    4.3450 H   0  0  0  0  0  0  0  0  0  0  0  0
    0.1282    4.0814    4.3116 H   0  0  0  0  0  0  0  0  0  0  0  0
   -0.7317    3.7994    2.8126 H   0  0  0  0  0  0  0  0  0  0  0  0
   -0.4812    1.1968    2.7762 N   0  0  0  0  0  0  0  0  0  0  0  0
   -0.1106   -0.1834    2.6051 C   0  0  2  0  0  0  0  0  0  0  0  0
   -0.0696   -0.4775    1.1113 C   0  0  0  0  0  0  0  0  0  0  0  0
   -0.6805    0.1900    0.2792 O   0  0  0  0  0  0  0  0  0  0  0  0
   -1.0852   -1.1101    3.3150 C   0  0  0  0  0  0  0  0  0  0  0  0
   -1.0883    1.6241    2.0791 H   0  0  0  0  0  0  0  0  0  0  0  0
    0.8937   -0.2959    3.0277 H   0  0  0  0  0  0  0  0  0  0  0  0
   -2.0970   -1.0114    2.9051 H   0  0  0  0  0  0  0  0  0  0  0  0
   -0.7860   -2.1580    3.2078 H   0  0  0  0  0  0  0  0  0  0  0  0
   -1.1357   -0.8775    4.3842 H   0  0  0  0  0  0  0  0  0  0  0  0
    0.6950   -1.6003    0.8178 N   0  0  0  0  0  0  0  0  0  0  0  0
    0.8777   -2.0908   -0.5246 C   0  0  2  0  0  0  0  0  0  0  0  0
    2.2447   -2.7605   -0.5871 C   0  0  0  0  0  0  0  0  0  0  0  0
    2.6015   -3.4727   -1.5236 O   0  0  0  0  0  0  0  0  0  0  0  0
    0.7797   -0.9693   -1.5590 C   0  0  0  0  0  0  0  0  0  0  0  0
   -0.6279   -0.4210   -1.7141 C   0  0  0  0  0  0  0  0  0  0  0  0
   -1.6378   -1.1178   -1.7473 O   0  0  0  0  0  0  0  0  0  0  0  0
   -0.6454    0.9545   -1.8084 N   0  0  0  0  0  0  0  0  0  0  0  0
    1.1810   -2.0803    1.5718 H   0  0  0  0  0  0  0  0  0  0  0  0
    0.1023   -2.8483   -0.6886 H   0  0  0  0  0  0  0  0  0  0  0  0
    1.4227   -0.1285   -1.2695 H   0  0  0  0  0  0  0  0  0  0  0  0
    1.1271   -1.3189   -2.5397 H   0  0  0  0  0  0  0  0  0  0  0  0
    0.2151    1.4908   -1.7725 H   0  0  0  0  0  0  0  0  0  0  0  0
   -1.5069    1.4804   -1.9162 H   0  0  0  0  0  0  0  0  0  0  0  0
    3.0406   -2.4307    0.5009 N   0  0  0  0  0  0  0  0  0  0  0  0
    4.3881   -2.9278    0.6428 C   0  0  2  0  0  0  0  0  0  0  0  0
    5.1799   -2.4973   -0.5849 C   0  0  0  0  0  0  0  0  0  0  0  0
    4.6514   -2.2080   -1.6564 O   0  0  0  0  0  0  0  0  0  0  0  0
    4.4064   -4.4404    0.7985 C   0  0  0  0  0  0  0  0  0  0  0  0
    2.6772   -1.8151    1.2226 H   0  0  0  0  0  0  0  0  0  0  0  0
    4.8087   -2.4511    1.5350 H   0  0  0  0  0  0  0  0  0  0  0  0
    3.9887   -4.9355   -0.0858 H   0  0  0  0  0  0  0  0  0  0  0  0
    5.4270   -4.8130    0.9346 H   0  0  0  0  0  0  0  0  0  0  0  0
    3.8119   -4.7503    1.6647 H   0  0  0  0  0  0  0  0  0  0  0  0
    6.5486   -2.5157   -0.3560 N   0  0  0  0  0  0  0  0  0  0  0  0
    7.5135   -2.1602   -1.3702 C   0  0  0  0  0  0  0  0  0  0  0  0
    6.8975   -2.7501    0.5687 H   0  0  0  0  0  0  0  0  0  0  0  0
    7.8315   -3.0655   -1.9079 H   0  0  0  0  0  0  0  0  0  0  0  0
    7.0567   -1.4542   -2.0793 H   0  0  0  0  0  0  0  0  0  0  0  0
    8.3873   -1.6896   -0.8959 H   0  0  0  0  0  0  0  0  0  0  0  0
  1  3  1  0  0  0  0
  1  7  1  0  0  0  0
  1  2  2  0  0  0  0
 21 22  1  0  0  0  0
 22 24  1  0  0  0  0
 22 23  2  0  0  0  0
 32 33  1  0  0  0  0
 33 41  1  0  0  0  0
 33 34  2  0  0  0  0
  8  9  1  0  0  0  0
  9 17  1  0  0  0  0
  9 10  2  0  0  0  0
 18 19  1  0  0  0  0
 19 31  1  0  0  0  0
 19 20  2  0  0  0  0
 32 35  1  0  0  0  0
  8 11  1  0  0  0  0
 41 42  1  0  0  0  0
 18 21  1  0  0  0  0
 31 32  1  0  0  0  0
  7  8  1  0  0  0  0
 17 18  1  0  0  0  0
  3  4  1  0  0  0  0
  3  5  1  0  0  0  0
  3  6  1  0  0  0  0
 35 38  1  0  0  0  0
 35 39  1  0  0  0  0
 35 40  1  0  0  0  0
 11 14  1  0  0  0  0
 11 15  1  0  0  0  0
 11 16  1  0  0  0  0
 42 44  1  0  0  0  0
 42 45  1  0  0  0  0
 42 46  1  0  0  0  0
 21 27  1  0  0  0  0
 21 28  1  0  0  0  0
 32 37  1  0  0  0  0
  8 13  1  0  0  0  0
 18 26  1  0  0  0  0
 24 29  1  0  0  0  0
 24 30  1  0  0  0  0
 41 43  1  0  0  0  0
  7 12  1  0  0  0  0
 31 36  1  0  0  0  0
 17 25  1  0  0  0  0
M  END
$$$$

  -OEChem-05262214473D

 46 45  0     1  0  0  0  0  0999 V2000
   -0.0543    1.9736    3.8406 C   0  0  0  0  0  0  0  0  0  0  0  0
    0.6744    1.6099    4.7562 O   0  0  0  0  0  0  0  0  0  0  0  0
   -0.5599    3.3779    3.8160 C   0  0  0  0  0  0  0  0  0  0  0  0
   -1.5202    3.4885    4.3450 H   0  0  0  0  0  0  0  0  0  0  0  0
    0.1282    4.0814    4.3116 H   0  0  0  0  0  0  0  0  0  0  0  0
   -0.7317    3.7994    2.8126 H   0  0  0  0  0  0  0  0  0  0  0  0
   -0.4812    1.1968    2.7762 N   0  0  0  0  0  0  0  0  0  0  0  0
   -0.1106   -0.1834    2.6051 C   0  0  2  0  0  0  0  0  0  0  0  0
   -0.0696   -0.4775    1.1113 C   0  0  0  0  0  0  0  0  0  0  0  0
   -0.6805    0.1900    0.2792 O   0  0  0  0  0  0  0  0  0  0  0  0
   -1.0852   -1.1101    3.3150 C   0  0  0  0  0  0  0  0  0  0  0  0
   -1.0883    1.6241    2.0791 H   0  0  0  0  0  0  0  0  0  0  0  0
    0.8937   -0.2959    3.0277 H   0  0  0  0  0  0  0  0  0  0  0  0
   -2.0970   -1.0114    2.9051 H   0  0  0  0  0  0  0  0  0  0  0  0
   -0.7860   -2.1580    3.2078 H   0  0  0  0  0  0  0  0  0  0  0  0
   -1.1357   -0.8775    4.3842 H   0  0  0  0  0  0  0  0  0  0  0  0
    0.6950   -1.6003    0.8178 N   0  0  0  0  0  0  0  0  0  0  0  0
    0.8777   -2.0908   -0.5246 C   0  0  2  0  0  0  0  0  0  0  0  0
    2.2447   -2.7605   -0.5871 C   0  0  0  0  0  0  0  0  0  0  0  0
    2.7089   -3.2448   -1.6174 O   0  0  0  0  0  0  0  0  0  0  0  0
    0.7797   -0.9693   -1.5590 C   0  0  0  0  0  0  0  0  0  0  0  0
   -0.6279   -0.4210   -1.7141 C   0  0  0  0  0  0  0  0  0  0  0  0
   -1.6378   -1.1178   -1.7473 O   0  0  0  0  0  0  0  0  0  0  0  0
   -0.6454    0.9545   -1.8084 N   0  0  0  0  0  0  0  0  0  0  0  0
    1.1810   -2.0803    1.5718 H   0  0  0  0  0  0  0  0  0  0  0  0
    0.1023   -2.8483   -0.6886 H   0  0  0  0  0  0  0  0  0  0  0  0
    1.4227   -0.1285   -1.2695 H   0  0  0  0  0  0  0  0  0  0  0  0
    1.1271   -1.3189   -2.5397 H   0  0  0  0  0  0  0  0  0  0  0  0
    0.2151    1.4908   -1.7725 H   0  0  0  0  0  0  0  0  0  0  0  0
   -1.5069    1.4804   -1.9162 H   0  0  0  0  0  0  0  0  0  0  0  0
    2.9092   -2.7109    0.6303 N   0  0  0  0  0  0  0  0  0  0  0  0
    4.2329   -3.2596    0.8032 C   0  0  2  0  0  0  0  0  0  0  0  0
    5.1594   -2.5756   -0.1934 C   0  0  0  0  0  0  0  0  0  0  0  0
    4.7569   -2.0334   -1.2206 O   0  0  0  0  0  0  0  0  0  0  0  0
    4.2374   -4.7672    0.6034 C   0  0  0  0  0  0  0  0  0  0  0  0
    2.4635   -2.2706    1.4298 H   0  0  0  0  0  0  0  0  0  0  0  0
    4.5467   -3.0128    1.8233 H   0  0  0  0  0  0  0  0  0  0  0  0
    3.9256   -5.0337   -0.4130 H   0  0  0  0  0  0  0  0  0  0  0  0
    5.2367   -5.1856    0.7630 H   0  0  0  0  0  0  0  0  0  0  0  0
    3.5481   -5.2548    1.3012 H   0  0  0  0  0  0  0  0  0  0  0  0
    6.4928   -2.6795    0.1774 N   0  0  0  0  0  0  0  0  0  0  0  0
    7.5669   -2.1220   -0.6110 C   0  0  0  0  0  0  0  0  0  0  0  0
    6.7336   -3.1300    1.0553 H   0  0  0  0  0  0  0  0  0  0  0  0
    7.9472   -2.8856   -1.3054 H   0  0  0  0  0  0  0  0  0  0  0  0
    7.1927   -1.2602   -1.1830 H   0  0  0  0  0  0  0  0  0  0  0  0
    8.3790   -1.7953    0.0551 H   0  0  0  0  0  0  0  0  0  0  0  0
  1  3  1  0  0  0  0
  1  7  1  0  0  0  0
  1  2  2  0  0  0  0
 21 22  1  0  0  0  0
 22 24  1  0  0  0  0
 22 23  2  0  0  0  0
 32 33  1  0  0  0  0
 33 41  1  0  0  0  0
 33 34  2  0  0  0  0
  8  9  1  0  0  0  0
  9 17  1  0  0  0  0
  9 10  2  0  0  0  0
 18 19  1  0  0  0  0
 19 31  1  0  0  0  0
 19 20  2  0  0  0  0
 32 35  1  0  0  0  0
  8 11  1  0  0  0  0
 41 42  1  0  0  0  0
 18 21  1  0  0  0  0
 31 32  1  0  0  0  0
  7  8  1  0  0  0  0
 17 18  1  0  0  0  0
  3  4  1  0  0  0  0
  3  5  1  0  0  0  0
  3  6  1  0  0  0  0
 35 38  1  0  0  0  0
 35 39  1  0  0  0  0
 35 40  1  0  0  0  0
 11 14  1  0  0  0  0
 11 15  1  0  0  0  0
 11 16  1  0  0  0  0
 42 44  1  0  0  0  0
 42 45  1  0  0  0  0
 42 46  1  0  0  0  0
 21 27  1  0  0  0  0
 21 28  1  0  0  0  0
 32 37  1  0  0  0  0
  8 13  1  0  0  0  0
 18 26  1  0  0  0  0
 24 29  1  0  0  0  0
 24 30  1  0  0  0  0
 41 43  1  0  0  0  0
  7 12  1  0  0  0  0
 31 36  1  0  0  0  0
 17 25  1  0  0  0  0
M  END
$$$$

  -OEChem-05262214473D

 46 45  0     1  0  0  0  0  0999 V2000
   -0.0543    1.9736    3.8406 C   0  0  0  0  0  0  0  0  0  0  0  0
    0.6744    1.6099    4.7562 O   0  0  0  0  0  0  0  0  0  0  0  0
   -0.5599    3.3779    3.8160 C   0  0  0  0  0  0  0  0  0  0  0  0
   -1.5202    3.4885    4.3450 H   0  0  0  0  0  0  0  0  0  0  0  0
    0.1282    4.0814    4.3116 H   0  0  0  0  0  0  0  0  0  0  0  0
   -0.7317    3.7994    2.8126 H   0  0  0  0  0  0  0  0  0  0  0  0
   -0.4812    1.1968    2.7762 N   0  0  0  0  0  0  0  0  0  0  0  0
   -0.1106   -0.1834    2.6051 C   0  0  2  0  0  0  0  0  0  0  0  0
   -0.0696   -0.4775    1.1113 C   0  0  0  0  0  0  0  0  0  0  0  0
   -0.6805    0.1900    0.2792 O   0  0  0  0  0  0  0  0  0  0  0  0
   -1.0852   -1.1101    3.3150 C   0  0  0  0  0  0  0  0  0  0  0  0
   -1.0883    1.6241    2.0791 H   0  0  0  0  0  0  0  0  0  0  0  0
    0.8937   -0.2959    3.0277 H   0  0  0  0  0  0  0  0  0  0  0  0
   -2.0970   -1.0114    2.9051 H   0  0  0  0  0  0  0  0  0  0  0  0
   -0.7860   -2.1580    3.2078 H   0  0  0  0  0  0  0  0  0  0  0  0
   -1.1357   -0.8775    4.3842 H   0  0  0  0  0  0  0  0  0  0  0  0
    0.6950   -1.6003    0.8178 N   0  0  0  0  0  0  0  0  0  0  0  0
    0.8777   -2.0908   -0.5246 C   0  0  2  0  0  0  0  0  0  0  0  0
    2.2447   -2.7605   -0.5871 C   0  0  0  0  0  0  0  0  0  0  0  0
    2.8257   -3.0040   -1.6428 O   0  0  0  0  0  0  0  0  0  0  0  0
    0.7797   -0.9693   -1.5590 C   0  0  0  0  0  0  0  0  0  0  0  0
   -0.6279   -0.4210   -1.7141 C   0  0  0  0  0  0  0  0  0  0  0  0
   -1.6378   -1.1178   -1.7473 O   0  0  0  0  0  0  0  0  0  0  0  0
   -0.6454    0.9545   -1.8084 N   0  0  0  0  0  0  0  0  0  0  0  0
    1.1810   -2.0803    1.5718 H   0  0  0  0  0  0  0  0  0  0  0  0
    0.1023   -2.8483   -0.6886 H   0  0  0  0  0  0  0  0  0  0  0  0
    1.4227   -0.1285   -1.2695 H   0  0  0  0  0  0  0  0  0  0  0  0
    1.1271   -1.3189   -2.5397 H   0  0  0  0  0  0  0  0  0  0  0  0
    0.2151    1.4908   -1.7725 H   0  0  0  0  0  0  0  0  0  0  0  0
   -1.5069    1.4804   -1.9162 H   0  0  0  0  0  0  0  0  0  0  0  0
    2.7646   -3.0102    0.6752 N   0  0  0  0  0  0  0  0  0  0  0  0
    4.0612   -3.6157    0.8634 C   0  0  2  0  0  0  0  0  0  0  0  0
    5.0942   -2.7420    0.1642 C   0  0  0  0  0  0  0  0  0  0  0  0
    4.8110   -1.9671   -0.7471 O   0  0  0  0  0  0  0  0  0  0  0  0
    4.0929   -5.0357    0.3199 C   0  0  0  0  0  0  0  0  0  0  0  0
    2.2287   -2.7565    1.4999 H   0  0  0  0  0  0  0  0  0  0  0  0
    4.2549   -3.6195    1.9416 H   0  0  0  0  0  0  0  0  0  0  0  0
    3.9008   -5.0520   -0.7591 H   0  0  0  0  0  0  0  0  0  0  0  0
    5.0683   -5.5036    0.4891 H   0  0  0  0  0  0  0  0  0  0  0  0
    3.3293   -5.6550    0.8028 H   0  0  0  0  0  0  0  0  0  0  0  0
    6.3764   -2.9610    0.6482 N   0  0  0  0  0  0  0  0  0  0  0  0
    7.5325   -2.2621    0.1373 C   0  0  0  0  0  0  0  0  0  0  0  0
    6.5160   -3.6083    1.4185 H   0  0  0  0  0  0  0  0  0  0  0  0
    7.9923   -2.8530   -0.6685 H   0  0  0  0  0  0  0  0  0  0  0  0
    7.2241   -1.2825   -0.2566 H   0  0  0  0  0  0  0  0  0  0  0  0
    8.2617   -2.1181    0.9482 H   0  0  0  0  0  0  0  0  0  0  0  0
  1  3  1  0  0  0  0
  1  7  1  0  0  0  0
  1  2  2  0  0  0  0
 21 22  1  0  0  0  0
 22 24  1  0  0  0  0
 22 23  2  0  0  0  0
 32 33  1  0  0  0  0
 33 41  1  0  0  0  0
 33 34  2  0  0  0  0
  8  9  1  0  0  0  0
  9 17  1  0  0  0  0
  9 10  2  0  0  0  0
 18 19  1  0  0  0  0
 19 31  1  0  0  0  0
 19 20  2  0  0  0  0
 32 35  1  0  0  0  0
  8 11  1  0  0  0  0
 41 42  1  0  0  0  0
 18 21  1  0  0  0  0
 31 32  1  0  0  0  0
  7  8  1  0  0  0  0
 17 18  1  0  0  0  0
  3  4  1  0  0  0  0
  3  5  1  0  0  0  0
  3  6  1  0  0  0  0
 35 38  1  0  0  0  0
 35 39  1  0  0  0  0
 35 40  1  0  0  0  0
 11 14  1  0  0  0  0
 11 15  1  0  0  0  0
 11 16  1  0  0  0  0
 42 44  1  0  0  0  0
 42 45  1  0  0  0  0
 42 46  1  0  0  0  0
 21 27  1  0  0  0  0
 21 28  1  0  0  0  0
 32 37  1  0  0  0  0
  8 13  1  0  0  0  0
 18 26  1  0  0  0  0
 24 29  1  0  0  0  0
 24 30  1  0  0  0  0
 41 43  1  0  0  0  0
  7 12  1  0  0  0  0
 31 36  1  0  0  0  0
 17 25  1  0  0  0  0
M  END
$$$$

  -OEChem-05262214473D

 46 45  0     1  0  0  0  0  0999 V2000
   -0.0543    1.9736    3.8406 C   0  0  0  0  0  0  0  0  0  0  0  0
    0.6744    1.6099    4.7562 O   0  0  0  0  0  0  0  0  0  0  0  0
   -0.5599    3.3779    3.8160 C   0  0  0  0  0  0  0  0  0  0  0  0
   -1.5202    3.4885    4.3450 H   0  0  0  0  0  0  0  0  0  0  0  0
    0.1282    4.0814    4.3116 H   0  0  0  0  0  0  0  0  0  0  0  0
   -0.7317    3.7994    2.8126 H   0  0  0  0  0  0  0  0  0  0  0  0
   -0.4812    1.1968    2.7762 N   0  0  0  0  0  0  0  0  0  0  0  0
   -0.1106   -0.1834    2.6051 C   0  0  2  0  0  0  0  0  0  0  0  0
   -0.0696   -0.4775    1.1113 C   0  0  0  0  0  0  0  0  0  0  0  0
   -0.6805    0.1900    0.2792 O   0  0  0  0  0  0  0  0  0  0  0  0
   -1.0852   -1.1101    3.3150 C   0  0  0  0  0  0  0  0  0  0  0  0
   -1.0883    1.6241    2.0791 H   0  0  0  0  0  0  0  0  0  0  0  0
    0.8937   -0.2959    3.0277 H   0  0  0  0  0  0  0  0  0  0  0  0
   -2.0970   -1.0114    2.9051 H   0  0  0  0  0  0  0  0  0  0  0  0
   -0.7860   -2.1580    3.2078 H   0  0  0  0  0  0  0  0  0  0  0  0
   -1.1357   -0.8775    4.3842 H   0  0  0  0  0  0  0  0  0  0  0  0
    0.6950   -1.6003    0.8178 N   0  0  0  0  0  0  0  0  0  0  0  0
    0.8777   -2.0908   -0.5246 C   0  0  2  0  0  0  0  0  0  0  0  0
    2.2447   -2.7605   -0.5871 C   0  0  0  0  0  0  0  0  0  0  0  0
    2.9439   -2.7667   -1.5983 O   0  0  0  0  0  0  0  0  0  0  0  0
    0.7797   -0.9693   -1.5590 C   0  0  0  0  0  0  0  0  0  0  0  0
   -0.6279   -0.4210   -1.7141 C   0  0  0  0  0  0  0  0  0  0  0  0
   -1.6378   -1.1178   -1.7473 O   0  0  0  0  0  0  0  0  0  0  0  0
   -0.6454    0.9545   -1.8084 N   0  0  0  0  0  0  0  0  0  0  0  0
    1.1810   -2.0803    1.5718 H   0  0  0  0  0  0  0  0  0  0  0  0
    0.1023   -2.8483   -0.6886 H   0  0  0  0  0  0  0  0  0  0  0  0
    1.4227   -0.1285   -1.2695 H   0  0  0  0  0  0  0  0  0  0  0  0
    1.1271   -1.3189   -2.5397 H   0  0  0  0  0  0  0  0  0  0  0  0
    0.2151    1.4908   -1.7725 H   0  0  0  0  0  0  0  0  0  0  0  0
   -1.5069    1.4804   -1.9162 H   0  0  0  0  0  0  0  0  0  0  0  0
    2.6167   -3.3082    0.6326 N   0  0  0  0  0  0  0  0  0  0  0  0
    3.8847   -3.9719    0.8193 C   0  0  2  0  0  0  0  0  0  0  0  0
    4.9888   -2.9851    0.4636 C   0  0  0  0  0  0  0  0  0  0  0  0
    4.8101   -2.0136   -0.2681 O   0  0  0  0  0  0  0  0  0  0  0  0
    3.9827   -5.2277   -0.0328 C   0  0  0  0  0  0  0  0  0  0  0  0
    1.9887   -3.2396    1.4280 H   0  0  0  0  0  0  0  0  0  0  0  0
    3.9531   -4.2300    1.8817 H   0  0  0  0  0  0  0  0  0  0  0  0
    3.9161   -4.9890   -1.1005 H   0  0  0  0  0  0  0  0  0  0  0  0
    4.9336   -5.7453    0.1315 H   0  0  0  0  0  0  0  0  0  0  0  0
    3.1704   -5.9234    0.2036 H   0  0  0  0  0  0  0  0  0  0  0  0
    6.2074   -3.3410    1.0244 N   0  0  0  0  0  0  0  0  0  0  0  0
    7.4127   -2.5708    0.8237 C   0  0  0  0  0  0  0  0  0  0  0  0
    6.2593   -4.1522    1.6334 H   0  0  0  0  0  0  0  0  0  0  0  0
    7.9638   -2.9699   -0.0406 H   0  0  0  0  0  0  0  0  0  0  0  0
    7.1489   -1.5194    0.6365 H   0  0  0  0  0  0  0  0  0  0  0  0
    8.0433   -2.6361    1.7226 H   0  0  0  0  0  0  0  0  0  0  0  0
  1  3  1  0  0  0  0
  1  7  1  0  0  0  0
  1  2  2  0  0  0  0
 21 22  1  0  0  0  0
 22 24  1  0  0  0  0
 22 23  2  0  0  0  0
 32 33  1  0  0  0  0
 33 41  1  0  0  0  0
 33 34  2  0  0  0  0
  8  9  1  0  0  0  0
  9 17  1  0  0  0  0
  9 10  2  0  0  0  0
 18 19  1  0  0  0  0
 19 31  1  0  0  0  0
 19 20  2  0  0  0  0
 32 35  1  0  0  0  0
  8 11  1  0  0  0  0
 41 42  1  0  0  0  0
 18 21  1  0  0  0  0
 31 32  1  0  0  0  0
  7  8  1  0  0  0  0
 17 18  1  0  0  0  0
  3  4  1  0  0  0  0
  3  5  1  0  0  0  0
  3  6  1  0  0  0  0
 35 38  1  0  0  0  0
 35 39  1  0  0  0  0
 35 40  1  0  0  0  0
 11 14  1  0  0  0  0
 11 15  1  0  0  0  0
 11 16  1  0  0  0  0
 42 44  1  0  0  0  0
 42 45  1  0  0  0  0
 42 46  1  0  0  0  0
 21 27  1  0  0  0  0
 21 28  1  0  0  0  0
 32 37  1  0  0  0  0
  8 13  1  0  0  0  0
 18 26  1  0  0  0  0
 24 29  1  0  0  0  0
 24 30  1  0  0  0  0
 41 43  1  0  0  0  0
  7 12  1  0  0  0  0
 31 36  1  0  0  0  0
 17 25  1  0  0  0  0
M  END
$$$$

  -OEChem-05262214473D

 46 45  0     1  0  0  0  0  0999 V2000
   -0.0543    1.9736    3.8406 C   0  0  0  0  0  0  0  0  0  0  0  0
    0.6744    1.6099    4.7562 O   0  0  0  0  0  0  0  0  0  0  0  0
   -0.5599    3.3779    3.8160 C   0  0  0  0  0  0  0  0  0  0  0  0
   -1.5202    3.4885    4.3450 H   0  0  0  0  0  0  0  0  0  0  0  0
    0.1282    4.0814    4.3116 H   0  0  0  0  0  0  0  0  0  0  0  0
   -0.7317    3.7994    2.8126 H   0  0  0  0  0  0  0  0  0  0  0  0
   -0.4812    1.1968    2.7762 N   0  0  0  0  0  0  0  0  0  0  0  0
   -0.1106   -0.1834    2.6051 C   0  0  2  0  0  0  0  0  0  0  0  0
   -0.0696   -0.4775    1.1113 C   0  0  0  0  0  0  0  0  0  0  0  0
   -0.6805    0.1900    0.2792 O   0  0  0  0  0  0  0  0  0  0  0  0
   -1.0852   -1.1101    3.3150 C   0  0  0  0  0  0  0  0  0  0  0  0
   -1.0883    1.6241    2.0791 H   0  0  0  0  0  0  0  0  0  0  0  0
    0.8937   -0.2959    3.0277 H   0  0  0  0  0  0  0  0  0  0  0  0
   -2.0970   -1.0114    2.9051 H   0  0  0  0  0  0  0  0  0  0  0  0
   -0.7860   -2.1580    3.2078 H   0  0  0  0  0  0  0  0  0  0  0  0
   -1.1357   -0.8775    4.3842 H   0  0  0  0  0  0  0  0  0  0  0  0
    0.6950   -1.6003    0.8178 N   0  0  0  0  0  0  0  0  0  0  0  0
    0.8777   -2.0908   -0.5246 C   0  0  2  0  0  0  0  0  0  0  0  0
    2.2447   -2.7605   -0.5871 C   0  0  0  0  0  0  0  0  0  0  0  0
    3.0556   -2.5492   -1.4866 O   0  0  0  0  0  0  0  0  0  0  0  0
    0.7797   -0.9693   -1.5590 C   0  0  0  0  0  0  0  0  0  0  0  0
   -0.6279   -0.4210   -1.7141 C   0  0  0  0  0  0  0  0  0  0  0  0
   -1.6378   -1.1178   -1.7473 O   0  0  0  0  0  0  0  0  0  0  0  0
   -0.6454    0.9545   -1.8084 N   0  0  0  0  0  0  0  0  0  0  0  0
    1.1810   -2.0803    1.5718 H   0  0  0  0  0  0  0  0  0  0  0  0
    0.1023   -2.8483   -0.6886 H   0  0  0  0  0  0  0  0  0  0  0  0
    1.4227   -0.1285   -1.2695 H   0  0  0  0  0  0  0  0  0  0  0  0
    1.1271   -1.3189   -2.5397 H   0  0  0  0  0  0  0  0  0  0  0  0
    0.2151    1.4908   -1.7725 H   0  0  0  0  0  0  0  0  0  0  0  0
   -1.5069    1.4804   -1.9162 H   0  0  0  0  0  0  0  0  0  0  0  0
    2.4755   -3.5846    0.5054 N   0  0  0  0  0  0  0  0  0  0  0  0
    3.7154   -4.3038    0.6740 C   0  0  2  0  0  0  0  0  0  0  0  0
    4.8504   -3.2883    0.6843 C   0  0  0  0  0  0  0  0  0  0  0  0
    4.7543   -2.1697    0.1836 O   0  0  0  0  0  0  0  0  0  0  0  0
    3.9144   -5.3301   -0.4305 C   0  0  0  0  0  0  0  0  0  0  0  0
    1.7600   -3.6870    1.2191 H   0  0  0  0  0  0  0  0  0  0  0  0
    3.6619   -4.8025    1.6478 H   0  0  0  0  0  0  0  0  0  0  0  0
    3.9703   -4.8490   -1.4139 H   0  0  0  0  0  0  0  0  0  0  0  0
    4.8415   -5.8944   -0.2854 H   0  0  0  0  0  0  0  0  0  0  0  0
    3.0822   -6.0419   -0.4556 H   0  0  0  0  0  0  0  0  0  0  0  0
    5.9974   -3.7936    1.2803 N   0  0  0  0  0  0  0  0  0  0  0  0
    7.2155   -3.0271    1.4014 C   0  0  0  0  0  0  0  0  0  0  0  0
    5.9812   -4.7249    1.6855 H   0  0  0  0  0  0  0  0  0  0  0  0
    7.8635   -3.2283    0.5356 H   0  0  0  0  0  0  0  0  0  0  0  0
    6.9720   -1.9549    1.4357 H   0  0  0  0  0  0  0  0  0  0  0  0
    7.7388   -3.3140    2.3254 H   0  0  0  0  0  0  0  0  0  0  0  0
  1  3  1  0  0  0  0
  1  7  1  0  0  0  0
  1  2  2  0  0  0  0
 21 22  1  0  0  0  0
 22 24  1  0  0  0  0
 22 23  2  0  0  0  0
 32 33  1  0  0  0  0
 33 41  1  0  0  0  0
 33 34  2  0  0  0  0
  8  9  1  0  0  0  0
  9 17  1  0  0  0  0
  9 10  2  0  0  0  0
 18 19  1  0  0  0  0
 19 31  1  0  0  0  0
 19 20  2  0  0  0  0
 32 35  1  0  0  0  0
  8 11  1  0  0  0  0
 41 42  1  0  0  0  0
 18 21  1  0  0  0  0
 31 32  1  0  0  0  0
  7  8  1  0  0  0  0
 17 18  1  0  0  0  0
  3  4  1  0  0  0  0
  3  5  1  0  0  0  0
  3  6  1  0  0  0  0
 35 38  1  0  0  0  0
 35 39  1  0  0  0  0
 35 40  1  0  0  0  0
 11 14  1  0  0  0  0
 11 15  1  0  0  0  0
 11 16  1  0  0  0  0
 42 44  1  0  0  0  0
 42 45  1  0  0  0  0
 42 46  1  0  0  0  0
 21 27  1  0  0  0  0
 21 28  1  0  0  0  0
 32 37  1  0  0  0  0
  8 13  1  0  0  0  0
 18 26  1  0  0  0  0
 24 29  1  0  0  0  0
 24 30  1  0  0  0  0
 41 43  1  0  0  0  0
  7 12  1  0  0  0  0
 31 36  1  0  0  0  0
 17 25  1  0  0  0  0
M  END
$$$$

  -OEChem-05262214473D

 46 45  0     1  0  0  0  0  0999 V2000
   -0.0543    1.9736    3.8406 C   0  0  0  0  0  0  0  0  0  0  0  0
    0.6744    1.6099    4.7562 O   0  0  0  0  0  0  0  0  0  0  0  0
   -0.5599    3.3779    3.8160 C   0  0  0  0  0  0  0  0  0  0  0  0
   -1.5202    3.4885    4.3450 H   0  0  0  0  0  0  0  0  0  0  0  0
    0.1282    4.0814    4.3116 H   0  0  0  0  0  0  0  0  0  0  0  0
   -0.7317    3.7994    2.8126 H   0  0  0  0  0  0  0  0  0  0  0  0
   -0.4812    1.1968    2.7762 N   0  0  0  0  0  0  0  0  0  0  0  0
   -0.1106   -0.1834    2.6051 C   0  0  2  0  0  0  0  0  0  0  0  0
   -0.0696   -0.4775    1.1113 C   0  0  0  0  0  0  0  0  0  0  0  0
   -0.6805    0.1900    0.2792 O   0  0  0  0  0  0  0  0  0  0  0  0
   -1.0852   -1.1101    3.3150 C   0  0  0  0  0  0  0  0  0  0  0  0
   -1.0883    1.6241    2.0791 H   0  0  0  0  0  0  0  0  0  0  0  0
    0.8937   -0.2959    3.0277 H   0  0  0  0  0  0  0  0  0  0  0  0
   -2.0970   -1.0114    2.9051 H   0  0  0  0  0  0  0  0  0  0  0  0
   -0.7860   -2.1580    3.2078 H   0  0  0  0  0  0  0  0  0  0  0  0
   -1.1357   -0.8775    4.3842 H   0  0  0  0  0  0  0  0  0  0  0  0
    0.6950   -1.6003    0.8178 N   0  0  0  0  0  0  0  0  0  0  0  0
    0.8777   -2.0908   -0.5246 C   0  0  2  0  0  0  0  0  0  0  0  0
    2.2447   -2.7605   -0.5871 C   0  0  0  0  0  0  0  0  0  0  0  0
    3.1531   -2.3662   -1.3156 O   0  0  0  0  0  0  0  0  0  0  0  0
    0.7797   -0.9693   -1.5590 C   0  0  0  0  0  0  0  0  0  0  0  0
   -0.6279   -0.4210   -1.7141 C   0  0  0  0  0  0  0  0  0  0  0  0
   -1.6378   -1.1178   -1.7473 O   0  0  0  0  0  0  0  0  0  0  0  0
   -0.6454    0.9545   -1.8084 N   0  0  0  0  0  0  0  0  0  0  0  0
    1.1810   -2.0803    1.5718 H   0  0  0  0  0  0  0  0  0  0  0  0
    0.1023   -2.8483   -0.6886 H   0  0  0  0  0  0  0  0  0  0  0  0
    1.4227   -0.1285   -1.2695 H   0  0  0  0  0  0  0  0  0  0  0  0
    1.1271   -1.3189   -2.5397 H   0  0  0  0  0  0  0  0  0  0  0  0
    0.2151    1.4908   -1.7725 H   0  0  0  0  0  0  0  0  0  0  0  0
   -1.5069    1.4804   -1.9162 H   0  0  0  0  0  0  0  0  0  0  0  0
    2.3506   -3.8206    0.3023 N   0  0  0  0  0  0  0  0  0  0  0  0
    3.5650   -4.5888    0.4372 C   0  0  2  0  0  0  0  0  0  0  0  0
    4.6883   -3.6309    0.8113 C   0  0  0  0  0  0  0  0  0  0  0  0
    4.6473   -2.4249    0.5773 O   0  0  0  0  0  0  0  0  0  0  0  0
    3.8925   -5.3358   -0.8463 C   0  0  0  0  0  0  0  0  0  0  0  0
    1.5581   -4.0682    0.8874 H   0  0  0  0  0  0  0  0  0  0  0  0
    3.4012   -5.2981    1.2558 H   0  0  0  0  0  0  0  0  0  0  0  0
    4.0599   -4.6416   -1.6779 H   0  0  0  0  0  0  0  0  0  0  0  0
    4.7984   -5.9406   -0.7332 H   0  0  0  0  0  0  0  0  0  0  0  0
    3.0708   -6.0023   -1.1299 H   0  0  0  0  0  0  0  0  0  0  0  0
    5.7606   -4.2880    1.3985 N   0  0  0  0  0  0  0  0  0  0  0  0
    6.9545   -3.5999    1.8310 C   0  0  0  0  0  0  0  0  0  0  0  0
    5.7005   -5.2871    1.5713 H   0  0  0  0  0  0  0  0  0  0  0  0
    7.6984   -3.6106    1.0207 H   0  0  0  0  0  0  0  0  0  0  0  0
    6.7057   -2.5593    2.0864 H   0  0  0  0  0  0  0  0  0  0  0  0
    7.3689   -4.1056    2.7156 H   0  0  0  0  0  0  0  0  0  0  0  0
  1  3  1  0  0  0  0
  1  7  1  0  0  0  0
  1  2  2  0  0  0  0
 21 22  1  0  0  0  0
 22 24  1  0  0  0  0
 22 23  2  0  0  0  0
 32 33  1  0  0  0  0
 33 41  1  0  0  0  0
 33 34  2  0  0  0  0
  8  9  1  0  0  0  0
  9 17  1  0  0  0  0
  9 10  2  0  0  0  0
 18 19  1  0  0  0  0
 19 31  1  0  0  0  0
 19 20  2  0  0  0  0
 32 35  1  0  0  0  0
  8 11  1  0  0  0  0
 41 42  1  0  0  0  0
 18 21  1  0  0  0  0
 31 32  1  0  0  0  0
  7  8  1  0  0  0  0
 17 18  1  0  0  0  0
  3  4  1  0  0  0  0
  3  5  1  0  0  0  0
  3  6  1  0  0  0  0
 35 38  1  0  0  0  0
 35 39  1  0  0  0  0
 35 40  1  0  0  0  0
 11 14  1  0  0  0  0
 11 15  1  0  0  0  0
 11 16  1  0  0  0  0
 42 44  1  0  0  0  0
 42 45  1  0  0  0  0
 42 46  1  0  0  0  0
 21 27  1  0  0  0  0
 21 28  1  0  0  0  0
 32 37  1  0  0  0  0
  8 13  1  0  0  0  0
 18 26  1  0  0  0  0
 24 29  1  0  0  0  0
 24 30  1  0  0  0  0
 41 43  1  0  0  0  0
  7 12  1  0  0  0  0
 31 36  1  0  0  0  0
 17 25  1  0  0  0  0
M  END
$$$$

  -OEChem-05262214473D

 46 45  0     1  0  0  0  0  0999 V2000
   -0.0543    1.9736    3.8406 C   0  0  0  0  0  0  0  0  0  0  0  0
    0.6744    1.6099    4.7562 O   0  0  0  0  0  0  0  0  0  0  0  0
   -0.5599    3.3779    3.8160 C   0  0  0  0  0  0  0  0  0  0  0  0
   -1.5202    3.4885    4.3450 H   0  0  0  0  0  0  0  0  0  0  0  0
    0.1282    4.0814    4.3116 H   0  0  0  0  0  0  0  0  0  0  0  0
   -0.7317    3.7994    2.8126 H   0  0  0  0  0  0  0  0  0  0  0  0
   -0.4812    1.1968    2.7762 N   0  0  0  0  0  0  0  0  0  0  0  0
   -0.1106   -0.1834    2.6051 C   0  0  2  0  0  0  0  0  0  0  0  0
   -0.0696   -0.4775    1.1113 C   0  0  0  0  0  0  0  0  0  0  0  0
   -0.6805    0.1900    0.2792 O   0  0  0  0  0  0  0  0  0  0  0  0
   -1.0852   -1.1101    3.3150 C   0  0  0  0  0  0  0  0  0  0  0  0
   -1.0883    1.6241    2.0791 H   0  0  0  0  0  0  0  0  0  0  0  0
    0.8937   -0.2959    3.0277 H   0  0  0  0  0  0  0  0  0  0  0  0
   -2.0970   -1.0114    2.9051 H   0  0  0  0  0  0  0  0  0  0  0  0
   -0.7860   -2.1580    3.2078 H   0  0  0  0  0  0  0  0  0  0  0  0
   -1.1357   -0.8775    4.3842 H   0  0  0  0  0  0  0  0  0  0  0  0
    0.6950   -1.6003    0.8178 N   0  0  0  0  0  0  0  0  0  0  0  0
    0.8777   -2.0908   -0.5246 C   0  0  2  0  0  0  0  0  0  0  0  0
    2.2447   -2.7605   -0.5871 C   0  0  0  0  0  0  0  0  0  0  0  0
    3.2298   -2.2301   -1.0968 O   0  0  0  0  0  0  0  0  0  0  0  0
    0.7797   -0.9693   -1.5590 C   0  0  0  0  0  0  0  0  0  0  0  0
   -0.6279   -0.4210   -1.7141 C   0  0  0  0  0  0  0  0  0  0  0  0
   -1.6378   -1.1178   -1.7473 O   0  0  0  0  0  0  0  0  0  0  0  0
   -0.6454    0.9545   -1.8084 N   0  0  0  0  0  0  0  0  0  0  0  0
    1.1810   -2.0803    1.5718 H   0  0  0  0  0  0  0  0  0  0  0  0
    0.1023   -2.8483   -0.6886 H   0  0  0  0  0  0  0  0  0  0  0  0
    1.4227   -0.1285   -1.2695 H   0  0  0  0  0  0  0  0  0  0  0  0
    1.1271   -1.3189   -2.5397 H   0  0  0  0  0  0  0  0  0  0  0  0
    0.2151    1.4908   -1.7725 H   0  0  0  0  0  0  0  0  0  0  0  0
   -1.5069    1.4804   -1.9162 H   0  0  0  0  0  0  0  0  0  0  0  0
    2.2506   -4.0000    0.0372 N   0  0  0  0  0  0  0  0  0  0  0  0
    3.4435   -4.8075    0.1252 C   0  0  2  0  0  0  0  0  0  0  0  0
    4.5137   -3.9897    0.8361 C   0  0  0  0  0  0  0  0  0  0  0  0
    4.4965   -2.7616    0.8862 O   0  0  0  0  0  0  0  0  0  0  0  0
    3.9187   -5.2447   -1.2517 C   0  0  0  0  0  0  0  0  0  0  0  0
    1.3967   -4.3573    0.4555 H   0  0  0  0  0  0  0  0  0  0  0  0
    3.1887   -5.6830    0.7324 H   0  0  0  0  0  0  0  0  0  0  0  0
    4.1786   -4.3809   -1.8745 H   0  0  0  0  0  0  0  0  0  0  0  0
    4.8072   -5.8808   -1.1814 H   0  0  0  0  0  0  0  0  0  0  0  0
    3.1369   -5.8073   -1.7733 H   0  0  0  0  0  0  0  0  0  0  0  0
    5.5132   -4.7905    1.3709 N   0  0  0  0  0  0  0  0  0  0  0  0
    6.6475   -4.2502    2.0832 C   0  0  0  0  0  0  0  0  0  0  0  0
    5.4364   -5.8007    1.2984 H   0  0  0  0  0  0  0  0  0  0  0  0
    7.4797   -4.0908    1.3817 H   0  0  0  0  0  0  0  0  0  0  0  0
    6.3680   -3.2914    2.5442 H   0  0  0  0  0  0  0  0  0  0  0  0
    6.9588   -4.9568    2.8666 H   0  0  0  0  0  0  0  0  0  0  0  0
  1  3  1  0  0  0  0
  1  7  1  0  0  0  0
  1  2  2  0  0  0  0
 21 22  1  0  0  0  0
 22 24  1  0  0  0  0
 22 23  2  0  0  0  0
 32 33  1  0  0  0  0
 33 41  1  0  0  0  0
 33 34  2  0  0  0  0
  8  9  1  0  0  0  0
  9 17  1  0  0  0  0
  9 10  2  0  0  0  0
 18 19  1  0  0  0  0
 19 31  1  0  0  0  0
 19 20  2  0  0  0  0
 32 35  1  0  0  0  0
  8 11  1  0  0  0  0
 41 42  1  0  0  0  0
 18 21  1  0  0  0  0
 31 32  1  0  0  0  0
  7  8  1  0  0  0  0
 17 18  1  0  0  0  0
  3  4  1  0  0  0  0
  3  5  1  0  0  0  0
  3  6  1  0  0  0  0
 35 38  1  0  0  0  0
 35 39  1  0  0  0  0
 35 40  1  0  0  0  0
 11 14  1  0  0  0  0
 11 15  1  0  0  0  0
 11 16  1  0  0  0  0
 42 44  1  0  0  0  0
 42 45  1  0  0  0  0
 42 46  1  0  0  0  0
 21 27  1  0  0  0  0
 21 28  1  0  0  0  0
 32 37  1  0  0  0  0
  8 13  1  0  0  0  0
 18 26  1  0  0  0  0
 24 29  1  0  0  0  0
 24 30  1  0  0  0  0
 41 43  1  0  0  0  0
  7 12  1  0  0  0  0
 31 36  1  0  0  0  0
 17 25  1  0  0  0  0
M  END
$$$$

  -OEChem-05262214473D

 46 45  0     1  0  0  0  0  0999 V2000
   -0.0543    1.9736    3.8406 C   0  0  0  0  0  0  0  0  0  0  0  0
    0.6744    1.6099    4.7562 O   0  0  0  0  0  0  0  0  0  0  0  0
   -0.5599    3.3779    3.8160 C   0  0  0  0  0  0  0  0  0  0  0  0
   -1.5202    3.4885    4.3450 H   0  0  0  0  0  0  0  0  0  0  0  0
    0.1282    4.0814    4.3116 H   0  0  0  0  0  0  0  0  0  0  0  0
   -0.7317    3.7994    2.8126 H   0  0  0  0  0  0  0  0  0  0  0  0
   -0.4812    1.1968    2.7762 N   0  0  0  0  0  0  0  0  0  0  0  0
   -0.1106   -0.1834    2.6051 C   0  0  2  0  0  0  0  0  0  0  0  0
   -0.0696   -0.4775    1.1113 C   0  0  0  0  0  0  0  0  0  0  0  0
   -0.6805    0.1900    0.2792 O   0  0  0  0  0  0  0  0  0  0  0  0
   -1.0852   -1.1101    3.3150 C   0  0  0  0  0  0  0  0  0  0  0  0
   -1.0883    1.6241    2.0791 H   0  0  0  0  0  0  0  0  0  0  0  0
    0.8937   -0.2959    3.0277 H   0  0  0  0  0  0  0  0  0  0  0  0
   -2.0970   -1.0114    2.9051 H   0  0  0  0  0  0  0  0  0  0  0  0
   -0.7860   -2.1580    3.2078 H   0  0  0  0  0  0  0  0  0  0  0  0
   -1.1357   -0.8775    4.3842 H   0  0  0  0  0  0  0  0  0  0  0  0
    0.6950   -1.6003    0.8178 N   0  0  0  0  0  0  0  0  0  0  0  0
    0.8777   -2.0908   -0.5246 C   0  0  2  0  0  0  0  0  0  0  0  0
    2.2447   -2.7605   -0.5871 C   0  0  0  0  0  0  0  0  0  0  0  0
    3.2804   -2.1504   -0.8451 O   0  0  0  0  0  0  0  0  0  0  0  0
    0.7797   -0.9693   -1.5590 C   0  0  0  0  0  0  0  0  0  0  0  0
   -0.6279   -0.4210   -1.7141 C   0  0  0  0  0  0  0  0  0  0  0  0
   -1.6378   -1.1178   -1.7473 O   0  0  0  0  0  0  0  0  0  0  0  0
   -0.6454    0.9545   -1.8084 N   0  0  0  0  0  0  0  0  0  0  0  0
    1.1810   -2.0803    1.5718 H   0  0  0  0  0  0  0  0  0  0  0  0
    0.1023   -2.8483   -0.6886 H   0  0  0  0  0  0  0  0  0  0  0  0
    1.4227   -0.1285   -1.2695 H   0  0  0  0  0  0  0  0  0  0  0  0
    1.1271   -1.3189   -2.5397 H   0  0  0  0  0  0  0  0  0  0  0  0
    0.2151    1.4908   -1.7725 H   0  0  0  0  0  0  0  0  0  0  0  0
   -1.5069    1.4804   -1.9162 H   0  0  0  0  0  0  0  0  0  0  0  0
    2.1822   -4.1106   -0.2720 N   0  0  0  0  0  0  0  0  0  0  0  0
    3.3594   -4.9451   -0.2408 C   0  0  2  0  0  0  0  0  0  0  0  0
    4.3384   -4.3401    0.7567 C   0  0  0  0  0  0  0  0  0  0  0  0
    4.3121   -3.1569    1.0892 O   0  0  0  0  0  0  0  0  0  0  0  0
    3.9910   -5.0627   -1.6192 C   0  0  0  0  0  0  0  0  0  0  0  0
    1.2869   -4.5345   -0.0472 H   0  0  0  0  0  0  0  0  0  0  0  0
    3.0389   -5.9310    0.1132 H   0  0  0  0  0  0  0  0  0  0  0  0
    4.3184   -4.0847   -1.9904 H   0  0  0  0  0  0  0  0  0  0  0  0
    4.8673   -5.7190   -1.5994 H   0  0  0  0  0  0  0  0  0  0  0  0
    3.2760   -5.4702   -2.3420 H   0  0  0  0  0  0  0  0  0  0  0  0
    5.2720   -5.2668    1.1993 N   0  0  0  0  0  0  0  0  0  0  0  0
    6.3153   -4.9336    2.1409 C   0  0  0  0  0  0  0  0  0  0  0  0
    5.2069   -6.2306    0.8855 H   0  0  0  0  0  0  0  0  0  0  0  0
    7.2222   -4.6362    1.5940 H   0  0  0  0  0  0  0  0  0  0  0  0
    5.9820   -4.1012    2.7780 H   0  0  0  0  0  0  0  0  0  0  0  0
    6.5364   -5.8098    2.7682 H   0  0  0  0  0  0  0  0  0  0  0  0
  1  3  1  0  0  0  0
  1  7  1  0  0  0  0
  1  2  2  0  0  0  0
 21 22  1  0  0  0  0
 22 24  1  0  0  0  0
 22 23  2  0  0  0  0
 32 33  1  0  0  0  0
 33 41  1  0  0  0  0
 33 34  2  0  0  0  0
  8  9  1  0  0  0  0
  9 17  1  0  0  0  0
  9 10  2  0  0  0  0
 18 19  1  0  0  0  0
 19 31  1  0  0  0  0
 19 20  2  0  0  0  0
 32 35  1  0  0  0  0
  8 11  1  0  0  0  0
 41 42  1  0  0  0  0
 18 21  1  0  0  0  0
 31 32  1  0  0  0  0
  7  8  1  0  0  0  0
 17 18  1  0  0  0  0
  3  4  1  0  0  0  0
  3  5  1  0  0  0  0
  3  6  1  0  0  0  0
 35 38  1  0  0  0  0
 35 39  1  0  0  0  0
 35 40  1  0  0  0  0
 11 14  1  0  0  0  0
 11 15  1  0  0  0  0
 11 16  1  0  0  0  0
 42 44  1  0  0  0  0
 42 45  1  0  0  0  0
 42 46  1  0  0  0  0
 21 27  1  0  0  0  0
 21 28  1  0  0  0  0
 32 37  1  0  0  0  0
  8 13  1  0  0  0  0
 18 26  1  0  0  0  0
 24 29  1  0  0  0  0
 24 30  1  0  0  0  0
 41 43  1  0  0  0  0
  7 12  1  0  0  0  0
 31 36  1  0  0  0  0
 17 25  1  0  0  0  0
M  END
$$$$

  -OEChem-05262214473D

 46 45  0     1  0  0  0  0  0999 V2000
   -0.0543    1.9736    3.8406 C   0  0  0  0  0  0  0  0  0  0  0  0
    0.6744    1.6099    4.7562 O   0  0  0  0  0  0  0  0  0  0  0  0
   -0.5599    3.3779    3.8160 C   0  0  0  0  0  0  0  0  0  0  0  0
   -1.5202    3.4885    4.3450 H   0  0  0  0  0  0  0  0  0  0  0  0
    0.1282    4.0814    4.3116 H   0  0  0  0  0  0  0  0  0  0  0  0
   -0.7317    3.7994    2.8126 H   0  0  0  0  0  0  0  0  0  0  0  0
   -0.4812    1.1968    2.7762 N   0  0  0  0  0  0  0  0  0  0  0  0
   -0.1106   -0.1834    2.6051 C   0  0  2  0  0  0  0  0  0  0  0  0
   -0.0696   -0.4775    1.1113 C   0  0  0  0  0  0  0  0  0  0  0  0
   -0.6805    0.1900    0.2792 O   0  0  0  0  0  0  0  0  0  0  0  0
   -1.0852   -1.1101    3.3150 C   0  0  0  0  0  0  0  0  0  0  0  0
   -1.0883    1.6241    2.0791 H   0  0  0  0  0  0  0  0  0  0  0  0
    0.8937   -0.2959    3.0277 H   0  0  0  0  0  0  0  0  0  0  0  0
   -2.0970   -1.0114    2.9051 H   0  0  0  0  0  0  0  0  0  0  0  0
   -0.7860   -2.1580    3.2078 H   0  0  0  0  0  0  0  0  0  0  0  0
   -1.1357   -0.8775    4.3842 H   0  0  0  0  0  0  0  0  0  0  0  0
    0.6950   -1.6003    0.8178 N   0  0  0  0  0  0  0  0  0  0  0  0
    0.8777   -2.0908   -0.5246 C   0  0  2  0  0  0  0  0  0  0  0  0
    2.2447   -2.7605   -0.5871 C   0  0  0  0  0  0  0  0  0  0  0  0
    3.3014   -2.1323   -0.5777 O   0  0  0  0  0  0  0  0  0  0  0  0
    0.7797   -0.9693   -1.5590 C   0  0  0  0  0  0  0  0  0  0  0  0
   -0.6279   -0.4210   -1.7141 C   0  0  0  0  0  0  0  0  0  0  0  0
   -1.6378   -1.1178   -1.7473 O   0  0  0  0  0  0  0  0  0  0  0  0
   -0.6454    0.9545   -1.8084 N   0  0  0  0  0  0  0  0  0  0  0  0
    1.1810   -2.0803    1.5718 H   0  0  0  0  0  0  0  0  0  0  0  0
    0.1023   -2.8483   -0.6886 H   0  0  0  0  0  0  0  0  0  0  0  0
    1.4227   -0.1285   -1.2695 H   0  0  0  0  0  0  0  0  0  0  0  0
    1.1271   -1.3189   -2.5397 H   0  0  0  0  0  0  0  0  0  0  0  0
    0.2151    1.4908   -1.7725 H   0  0  0  0  0  0  0  0  0  0  0  0
   -1.5069    1.4804   -1.9162 H   0  0  0  0  0  0  0  0  0  0  0  0
    2.1502   -4.1450   -0.6041 N   0  0  0  0  0  0  0  0  0  0  0  0
    3.3184   -4.9921   -0.6358 C   0  0  2  0  0  0  0  0  0  0  0  0
    4.1744   -4.6583    0.5788 C   0  0  0  0  0  0  0  0  0  0  0  0
    4.1066   -3.5840    1.1725 O   0  0  0  0  0  0  0  0  0  0  0  0
    4.1046   -4.8024   -1.9236 C   0  0  0  0  0  0  0  0  0  0  0  0
    1.2362   -4.5877   -0.5863 H   0  0  0  0  0  0  0  0  0  0  0  0
    2.9621   -6.0251   -0.5595 H   0  0  0  0  0  0  0  0  0  0  0  0
    4.4698   -3.7732   -2.0177 H   0  0  0  0  0  0  0  0  0  0  0  0
    4.9747   -5.4663   -1.9587 H   0  0  0  0  0  0  0  0  0  0  0  0
    3.4787   -5.0141   -2.7972 H   0  0  0  0  0  0  0  0  0  0  0  0
    5.0535   -5.6845    0.8956 N   0  0  0  0  0  0  0  0  0  0  0  0
    5.9806   -5.6037    2.0001 C   0  0  0  0  0  0  0  0  0  0  0  0
    5.0276   -6.5475    0.3607 H   0  0  0  0  0  0  0  0  0  0  0  0
    6.9435   -5.2096    1.6431 H   0  0  0  0  0  0  0  0  0  0  0  0
    5.5738   -4.9337    2.7719 H   0  0  0  0  0  0  0  0  0  0  0  0
    6.1306   -6.6063    2.4269 H   0  0  0  0  0  0  0  0  0  0  0  0
  1  3  1  0  0  0  0
  1  7  1  0  0  0  0
  1  2  2  0  0  0  0
 21 22  1  0  0  0  0
 22 24  1  0  0  0  0
 22 23  2  0  0  0  0
 32 33  1  0  0  0  0
 33 41  1  0  0  0  0
 33 34  2  0  0  0  0
  8  9  1  0  0  0  0
  9 17  1  0  0  0  0
  9 10  2  0  0  0  0
 18 19  1  0  0  0  0
 19 31  1  0  0  0  0
 19 20  2  0  0  0  0
 32 35  1  0  0  0  0
  8 11  1  0  0  0  0
 41 42  1  0  0  0  0
 18 21  1  0  0  0  0
 31 32  1  0  0  0  0
  7  8  1  0  0  0  0
 17 18  1  0  0  0  0
  3  4  1  0  0  0  0
  3  5  1  0  0  0  0
  3  6  1  0  0  0  0
 35 38  1  0  0  0  0
 35 39  1  0  0  0  0
 35 40  1  0  0  0  0
 11 14  1  0  0  0  0
 11 15  1  0  0  0  0
 11 16  1  0  0  0  0
 42 44  1  0  0  0  0
 42 45  1  0  0  0  0
 42 46  1  0  0  0  0
 21 27  1  0  0  0  0
 21 28  1  0  0  0  0
 32 37  1  0  0  0  0
  8 13  1  0  0  0  0
 18 26  1  0  0  0  0
 24 29  1  0  0  0  0
 24 30  1  0  0  0  0
 41 43  1  0  0  0  0
  7 12  1  0  0  0  0
 31 36  1  0  0  0  0
 17 25  1  0  0  0  0
M  END
$$$$

  -OEChem-05262214473D

 46 45  0     1  0  0  0  0  0999 V2000
   -0.0543    1.9736    3.8406 C   0  0  0  0  0  0  0  0  0  0  0  0
    0.6744    1.6099    4.7562 O   0  0  0  0  0  0  0  0  0  0  0  0
   -0.5599    3.3779    3.8160 C   0  0  0  0  0  0  0  0  0  0  0  0
   -1.5202    3.4885    4.3450 H   0  0  0  0  0  0  0  0  0  0  0  0
    0.1282    4.0814    4.3116 H   0  0  0  0  0  0  0  0  0  0  0  0
   -0.7317    3.7994    2.8126 H   0  0  0  0  0  0  0  0  0  0  0  0
   -0.4812    1.1968    2.7762 N   0  0  0  0  0  0  0  0  0  0  0  0
   -0.1106   -0.1834    2.6051 C   0  0  2  0  0  0  0  0  0  0  0  0
   -0.0696   -0.4775    1.1113 C   0  0  0  0  0  0  0  0  0  0  0  0
   -0.6805    0.1900    0.2792 O   0  0  0  0  0  0  0  0  0  0  0  0
   -1.0852   -1.1101    3.3150 C   0  0  0  0  0  0  0  0  0  0  0  0
   -1.0883    1.6241    2.0791 H   0  0  0  0  0  0  0  0  0  0  0  0
    0.8937   -0.2959    3.0277 H   0  0  0  0  0  0  0  0  0  0  0  0
   -2.0970   -1.0114    2.9051 H   0  0  0  0  0  0  0  0  0  0  0  0
   -0.7860   -2.1580    3.2078 H   0  0  0  0  0  0  0  0  0  0  0  0
   -1.1357   -0.8775    4.3842 H   0  0  0  0  0  0  0  0  0  0  0  0
    0.6950   -1.6003    0.8178 N   0  0  0  0  0  0  0  0  0  0  0  0
    0.8777   -2.0908   -0.5246 C   0  0  2  0  0  0  0  0  0  0  0  0
    2.2447   -2.7605   -0.5871 C   0  0  0  0  0  0  0  0  0  0  0  0
    3.2916   -2.1771   -0.3128 O   0  0  0  0  0  0  0  0  0  0  0  0
    0.7797   -0.9693   -1.5590 C   0  0  0  0  0  0  0  0  0  0  0  0
   -0.6279   -0.4210   -1.7141 C   0  0  0  0  0  0  0  0  0  0  0  0
   -1.6378   -1.1178   -1.7473 O   0  0  0  0  0  0  0  0  0  0  0  0
   -0.6454    0.9545   -1.8084 N   0  0  0  0  0  0  0  0  0  0  0  0
    1.1810   -2.0803    1.5718 H   0  0  0  0  0  0  0  0  0  0  0  0
    0.1023   -2.8483   -0.6886 H   0  0  0  0  0  0  0  0  0  0  0  0
    1.4227   -0.1285   -1.2695 H   0  0  0  0  0  0  0  0  0  0  0  0
    1.1271   -1.3189   -2.5397 H   0  0  0  0  0  0  0  0  0  0  0  0
    0.2151    1.4908   -1.7725 H   0  0  0  0  0  0  0  0  0  0  0  0
   -1.5069    1.4804   -1.9162 H   0  0  0  0  0  0  0  0  0  0  0  0
    2.1567   -4.1007   -0.9365 N   0  0  0  0  0  0  0  0  0  0  0  0
    3.3231   -4.9453   -1.0329 C   0  0  2  0  0  0  0  0  0  0  0  0
    4.0328   -4.9226    0.3144 C   0  0  0  0  0  0  0  0  0  0  0  0
    3.8942   -4.0137    1.1303 O   0  0  0  0  0  0  0  0  0  0  0  0
    4.2518   -4.4814   -2.1443 C   0  0  0  0  0  0  0  0  0  0  0  0
    1.2480   -4.5134   -1.1253 H   0  0  0  0  0  0  0  0  0  0  0  0
    2.9633   -5.9590   -1.2398 H   0  0  0  0  0  0  0  0  0  0  0  0
    4.6224   -3.4675   -1.9545 H   0  0  0  0  0  0  0  0  0  0  0  0
    5.1220   -5.1399   -2.2349 H   0  0  0  0  0  0  0  0  0  0  0  0
    3.7310   -4.4699   -3.1079 H   0  0  0  0  0  0  0  0  0  0  0  0
    4.8725   -6.0151    0.4804 N   0  0  0  0  0  0  0  0  0  0  0  0
    5.6663   -6.2146    1.6704 C   0  0  0  0  0  0  0  0  0  0  0  0
    4.9108   -6.7299   -0.2402 H   0  0  0  0  0  0  0  0  0  0  0  0
    6.6627   -5.7718    1.5256 H   0  0  0  0  0  0  0  0  0  0  0  0
    5.1715   -5.7320    2.5262 H   0  0  0  0  0  0  0  0  0  0  0  0
    5.7689   -7.2922    1.8661 H   0  0  0  0  0  0  0  0  0  0  0  0
  1  3  1  0  0  0  0
  1  7  1  0  0  0  0
  1  2  2  0  0  0  0
 21 22  1  0  0  0  0
 22 24  1  0  0  0  0
 22 23  2  0  0  0  0
 32 33  1  0  0  0  0
 33 41  1  0  0  0  0
 33 34  2  0  0  0  0
  8  9  1  0  0  0  0
  9 17  1  0  0  0  0
  9 10  2  0  0  0  0
 18 19  1  0  0  0  0
 19 31  1  0  0  0  0
 19 20  2  0  0  0  0
 32 35  1  0  0  0  0
  8 11  1  0  0  0  0
 41 42  1  0  0  0  0
 18 21  1  0  0  0  0
 31 32  1  0  0  0  0
  7  8  1  0  0  0  0
 17 18  1  0  0  0  0
  3  4  1  0  0  0  0
  3  5  1  0  0  0  0
  3  6  1  0  0  0  0
 35 38  1  0  0  0  0
 35 39  1  0  0  0  0
 35 40  1  0  0  0  0
 11 14  1  0  0  0  0
 11 15  1  0  0  0  0
 11 16  1  0  0  0  0
 42 44  1  0  0  0  0
 42 45  1  0  0  0  0
 42 46  1  0  0  0  0
 21 27  1  0  0  0  0
 21 28  1  0  0  0  0
 32 37  1  0  0  0  0
  8 13  1  0  0  0  0
 18 26  1  0  0  0  0
 24 29  1  0  0  0  0
 24 30  1  0  0  0  0
 41 43  1  0  0  0  0
  7 12  1  0  0  0  0
 31 36  1  0  0  0  0
 17 25  1  0  0  0  0
M  END
$$$$

  -OEChem-05262214473D

 46 45  0     1  0  0  0  0  0999 V2000
   -0.0543    1.9736    3.8406 C   0  0  0  0  0  0  0  0  0  0  0  0
    0.6744    1.6099    4.7562 O   0  0  0  0  0  0  0  0  0  0  0  0
   -0.5599    3.3779    3.8160 C   0  0  0  0  0  0  0  0  0  0  0  0
   -1.5202    3.4885    4.3450 H   0  0  0  0  0  0  0  0  0  0  0  0
    0.1282    4.0814    4.3116 H   0  0  0  0  0  0  0  0  0  0  0  0
   -0.7317    3.7994    2.8126 H   0  0  0  0  0  0  0  0  0  0  0  0
   -0.4812    1.1968    2.7762 N   0  0  0  0  0  0  0  0  0  0  0  0
   -0.1106   -0.1834    2.6051 C   0  0  2  0  0  0  0  0  0  0  0  0
   -0.0696   -0.4775    1.1113 C   0  0  0  0  0  0  0  0  0  0  0  0
   -0.6805    0.1900    0.2792 O   0  0  0  0  0  0  0  0  0  0  0  0
   -1.0852   -1.1101    3.3150 C   0  0  0  0  0  0  0  0  0  0  0  0
   -1.0883    1.6241    2.0791 H   0  0  0  0  0  0  0  0  0  0  0  0
    0.8937   -0.2959    3.0277 H   0  0  0  0  0  0  0  0  0  0  0  0
   -2.0970   -1.0114    2.9051 H   0  0  0  0  0  0  0  0  0  0  0  0
   -0.7860   -2.1580    3.2078 H   0  0  0  0  0  0  0  0  0  0  0  0
   -1.1357   -0.8775    4.3842 H   0  0  0  0  0  0  0  0  0  0  0  0
    0.6950   -1.6003    0.8178 N   0  0  0  0  0  0  0  0  0  0  0  0
    0.8777   -2.0908   -0.5246 C   0  0  2  0  0  0  0  0  0  0  0  0
    2.2447   -2.7605   -0.5871 C   0  0  0  0  0  0  0  0  0  0  0  0
    3.2514   -2.2819   -0.0685 O   0  0  0  0  0  0  0  0  0  0  0  0
    0.7797   -0.9693   -1.5590 C   0  0  0  0  0  0  0  0  0  0  0  0
   -0.6279   -0.4210   -1.7141 C   0  0  0  0  0  0  0  0  0  0  0  0
   -1.6378   -1.1178   -1.7473 O   0  0  0  0  0  0  0  0  0  0  0  0
   -0.6454    0.9545   -1.8084 N   0  0  0  0  0  0  0  0  0  0  0  0
    1.1810   -2.0803    1.5718 H   0  0  0  0  0  0  0  0  0  0  0  0
    0.1023   -2.8483   -0.6886 H   0  0  0  0  0  0  0  0  0  0  0  0
    1.4227   -0.1285   -1.2695 H   0  0  0  0  0  0  0  0  0  0  0  0
    1.1271   -1.3189   -2.5397 H   0  0  0  0  0  0  0  0  0  0  0  0
    0.2151    1.4908   -1.7725 H   0  0  0  0  0  0  0  0  0  0  0  0
   -1.5069    1.4804   -1.9162 H   0  0  0  0  0  0  0  0  0  0  0  0
    2.2013   -3.9808   -1.2466 N   0  0  0  0  0  0  0  0  0  0  0  0
    3.3734   -4.8079   -1.4051 C   0  0  2  0  0  0  0  0  0  0  0  0
    3.9234   -5.1150   -0.0185 C   0  0  0  0  0  0  0  0  0  0  0  0
    3.6892   -4.4167    0.9657 O   0  0  0  0  0  0  0  0  0  0  0  0
    4.4224   -4.1217   -2.2662 C   0  0  0  0  0  0  0  0  0  0  0  0
    1.3214   -4.3166   -1.6273 H   0  0  0  0  0  0  0  0  0  0  0  0
    3.0427   -5.7372   -1.8815 H   0  0  0  0  0  0  0  0  0  0  0  0
    4.7659   -3.1886   -1.8051 H   0  0  0  0  0  0  0  0  0  0  0  0
    5.2991   -4.7620   -2.4092 H   0  0  0  0  0  0  0  0  0  0  0  0
    4.0159   -3.8748   -3.2530 H   0  0  0  0  0  0  0  0  0  0  0  0
    4.7415   -6.2361   -0.0181 N   0  0  0  0  0  0  0  0  0  0  0  0
    5.3936   -6.7248    1.1743 C   0  0  0  0  0  0  0  0  0  0  0  0
    4.8644   -6.7653   -0.8763 H   0  0  0  0  0  0  0  0  0  0  0  0
    6.3989   -6.2847    1.2497 H   0  0  0  0  0  0  0  0  0  0  0  0
    4.8024   -6.4418    2.0577 H   0  0  0  0  0  0  0  0  0  0  0  0
    5.4761   -7.8206    1.1240 H   0  0  0  0  0  0  0  0  0  0  0  0
  1  3  1  0  0  0  0
  1  7  1  0  0  0  0
  1  2  2  0  0  0  0
 21 22  1  0  0  0  0
 22 24  1  0  0  0  0
 22 23  2  0  0  0  0
 32 33  1  0  0  0  0
 33 41  1  0  0  0  0
 33 34  2  0  0  0  0
  8  9  1  0  0  0  0
  9 17  1  0  0  0  0
  9 10  2  0  0  0  0
 18 19  1  0  0  0  0
 19 31  1  0  0  0  0
 19 20  2  0  0  0  0
 32 35  1  0  0  0  0
  8 11  1  0  0  0  0
 41 42  1  0  0  0  0
 18 21  1  0  0  0  0
 31 32  1  0  0  0  0
  7  8  1  0  0  0  0
 17 18  1  0  0  0  0
  3  4  1  0  0  0  0
  3  5  1  0  0  0  0
  3  6  1  0  0  0  0
 35 38  1  0  0  0  0
 35 39  1  0  0  0  0
 35 40  1  0  0  0  0
 11 14  1  0  0  0  0
 11 15  1  0  0  0  0
 11 16  1  0  0  0  0
 42 44  1  0  0  0  0
 42 45  1  0  0  0  0
 42 46  1  0  0  0  0
 21 27  1  0  0  0  0
 21 28  1  0  0  0  0
 32 37  1  0  0  0  0
  8 13  1  0  0  0  0
 18 26  1  0  0  0  0
 24 29  1  0  0  0  0
 24 30  1  0  0  0  0
 41 43  1  0  0  0  0
  7 12  1  0  0  0  0
 31 36  1  0  0  0  0
 17 25  1  0  0  0  0
M  END
$$$$

  -OEChem-05262214473D

 46 45  0     1  0  0  0  0  0999 V2000
   -0.0543    1.9736    3.8406 C   0  0  0  0  0  0  0  0  0  0  0  0
    0.6744    1.6099    4.7562 O   0  0  0  0  0  0  0  0  0  0  0  0
   -0.5599    3.3779    3.8160 C   0  0  0  0  0  0  0  0  0  0  0  0
   -1.5202    3.4885    4.3450 H   0  0  0  0  0  0  0  0  0  0  0  0
    0.1282    4.0814    4.3116 H   0  0  0  0  0  0  0  0  0  0  0  0
   -0.7317    3.7994    2.8126 H   0  0  0  0  0  0  0  0  0  0  0  0
   -0.4812    1.1968    2.7762 N   0  0  0  0  0  0  0  0  0  0  0  0
   -0.1106   -0.1834    2.6051 C   0  0  2  0  0  0  0  0  0  0  0  0
   -0.0696   -0.4775    1.1113 C   0  0  0  0  0  0  0  0  0  0  0  0
   -0.6805    0.1900    0.2792 O   0  0  0  0  0  0  0  0  0  0  0  0
   -1.0852   -1.1101    3.3150 C   0  0  0  0  0  0  0  0  0  0  0  0
   -1.0883    1.6241    2.0791 H   0  0  0  0  0  0  0  0  0  0  0  0
    0.8937   -0.2959    3.0277 H   0  0  0  0  0  0  0  0  0  0  0  0
   -2.0970   -1.0114    2.9051 H   0  0  0  0  0  0  0  0  0  0  0  0
   -0.7860   -2.1580    3.2078 H   0  0  0  0  0  0  0  0  0  0  0  0
   -1.1357   -0.8775    4.3842 H   0  0  0  0  0  0  0  0  0  0  0  0
    0.6950   -1.6003    0.8178 N   0  0  0  0  0  0  0  0  0  0  0  0
    0.8777   -2.0908   -0.5246 C   0  0  2  0  0  0  0  0  0  0  0  0
    2.2447   -2.7605   -0.5871 C   0  0  0  0  0  0  0  0  0  0  0  0
    3.1837   -2.4394    0.1385 O   0  0  0  0  0  0  0  0  0  0  0  0
    0.7797   -0.9693   -1.5590 C   0  0  0  0  0  0  0  0  0  0  0  0
   -0.6279   -0.4210   -1.7141 C   0  0  0  0  0  0  0  0  0  0  0  0
   -1.6378   -1.1178   -1.7473 O   0  0  0  0  0  0  0  0  0  0  0  0
   -0.6454    0.9545   -1.8084 N   0  0  0  0  0  0  0  0  0  0  0  0
    1.1810   -2.0803    1.5718 H   0  0  0  0  0  0  0  0  0  0  0  0
    0.1023   -2.8483   -0.6886 H   0  0  0  0  0  0  0  0  0  0  0  0
    1.4227   -0.1285   -1.2695 H   0  0  0  0  0  0  0  0  0  0  0  0
    1.1271   -1.3189   -2.5397 H   0  0  0  0  0  0  0  0  0  0  0  0
    0.2151    1.4908   -1.7725 H   0  0  0  0  0  0  0  0  0  0  0  0
   -1.5069    1.4804   -1.9162 H   0  0  0  0  0  0  0  0  0  0  0  0
    2.2809   -3.7935   -1.5132 N   0  0  0  0  0  0  0  0  0  0  0  0
    3.4658   -4.5893   -1.7270 C   0  0  2  0  0  0  0  0  0  0  0  0
    3.8535   -5.2223   -0.3972 C   0  0  0  0  0  0  0  0  0  0  0  0
    3.5057   -4.7656    0.6898 O   0  0  0  0  0  0  0  0  0  0  0  0
    4.6049   -3.7478   -2.2810 C   0  0  0  0  0  0  0  0  0  0  0  0
    1.4516   -4.0107   -2.0581 H   0  0  0  0  0  0  0  0  0  0  0  0
    3.1946   -5.3748   -2.4408 H   0  0  0  0  0  0  0  0  0  0  0  0
    4.8905   -2.9553   -1.5796 H   0  0  0  0  0  0  0  0  0  0  0  0
    5.4941   -4.3584   -2.4695 H   0  0  0  0  0  0  0  0  0  0  0  0
    4.3140   -3.2693   -3.2224 H   0  0  0  0  0  0  0  0  0  0  0  0
    4.6692   -6.3324   -0.5658 N   0  0  0  0  0  0  0  0  0  0  0  0
    5.1813   -7.0996    0.5456 C   0  0  0  0  0  0  0  0  0  0  0  0
    4.8916   -6.6512   -1.5042 H   0  0  0  0  0  0  0  0  0  0  0  0
    6.1700   -6.7131    0.8341 H   0  0  0  0  0  0  0  0  0  0  0  0
    4.4915   -7.0147    1.3983 H   0  0  0  0  0  0  0  0  0  0  0  0
    5.2721   -8.1555    0.2512 H   0  0  0  0  0  0  0  0  0  0  0  0
  1  3  1  0  0  0  0
  1  7  1  0  0  0  0
  1  2  2  0  0  0  0
 21 22  1  0  0  0  0
 22 24  1  0  0  0  0
 22 23  2  0  0  0  0
 32 33  1  0  0  0  0
 33 41  1  0  0  0  0
 33 34  2  0  0  0  0
  8  9  1  0  0  0  0
  9 17  1  0  0  0  0
  9 10  2  0  0  0  0
 18 19  1  0  0  0  0
 19 31  1  0  0  0  0
 19 20  2  0  0  0  0
 32 35  1  0  0  0  0
  8 11  1  0  0  0  0
 41 42  1  0  0  0  0
 18 21  1  0  0  0  0
 31 32  1  0  0  0  0
  7  8  1  0  0  0  0
 17 18  1  0  0  0  0
  3  4  1  0  0  0  0
  3  5  1  0  0  0  0
  3  6  1  0  0  0  0
 35 38  1  0  0  0  0
 35 39  1  0  0  0  0
 35 40  1  0  0  0  0
 11 14  1  0  0  0  0
 11 15  1  0  0  0  0
 11 16  1  0  0  0  0
 42 44  1  0  0  0  0
 42 45  1  0  0  0  0
 42 46  1  0  0  0  0
 21 27  1  0  0  0  0
 21 28  1  0  0  0  0
 32 37  1  0  0  0  0
  8 13  1  0  0  0  0
 18 26  1  0  0  0  0
 24 29  1  0  0  0  0
 24 30  1  0  0  0  0
 41 43  1  0  0  0  0
  7 12  1  0  0  0  0
 31 36  1  0  0  0  0
 17 25  1  0  0  0  0
M  END
$$$$

  -OEChem-05262214473D

 46 45  0     1  0  0  0  0  0999 V2000
   -0.0543    1.9736    3.8406 C   0  0  0  0  0  0  0  0  0  0  0  0
    0.6744    1.6099    4.7562 O   0  0  0  0  0  0  0  0  0  0  0  0
   -0.5599    3.3779    3.8160 C   0  0  0  0  0  0  0  0  0  0  0  0
   -1.5202    3.4885    4.3450 H   0  0  0  0  0  0  0  0  0  0  0  0
    0.1282    4.0814    4.3116 H   0  0  0  0  0  0  0  0  0  0  0  0
   -0.7317    3.7994    2.8126 H   0  0  0  0  0  0  0  0  0  0  0  0
   -0.4812    1.1968    2.7762 N   0  0  0  0  0  0  0  0  0  0  0  0
   -0.1106   -0.1834    2.6051 C   0  0  2  0  0  0  0  0  0  0  0  0
   -0.0696   -0.4775    1.1113 C   0  0  0  0  0  0  0  0  0  0  0  0
   -0.6805    0.1900    0.2792 O   0  0  0  0  0  0  0  0  0  0  0  0
   -1.0852   -1.1101    3.3150 C   0  0  0  0  0  0  0  0  0  0  0  0
   -1.0883    1.6241    2.0791 H   0  0  0  0  0  0  0  0  0  0  0  0
    0.8937   -0.2959    3.0277 H   0  0  0  0  0  0  0  0  0  0  0  0
   -2.0970   -1.0114    2.9051 H   0  0  0  0  0  0  0  0  0  0  0  0
   -0.7860   -2.1580    3.2078 H   0  0  0  0  0  0  0  0  0  0  0  0
   -1.1357   -0.8775    4.3842 H   0  0  0  0  0  0  0  0  0  0  0  0
    0.6950   -1.6003    0.8178 N   0  0  0  0  0  0  0  0  0  0  0  0
    0.8777   -2.0908   -0.5246 C   0  0  2  0  0  0  0  0  0  0  0  0
    2.2447   -2.7605   -0.5871 C   0  0  0  0  0  0  0  0  0  0  0  0
    3.0931   -2.6388    0.2943 O   0  0  0  0  0  0  0  0  0  0  0  0
    0.7797   -0.9693   -1.5590 C   0  0  0  0  0  0  0  0  0  0  0  0
   -0.6279   -0.4210   -1.7141 C   0  0  0  0  0  0  0  0  0  0  0  0
   -1.6378   -1.1178   -1.7473 O   0  0  0  0  0  0  0  0  0  0  0  0
   -0.6454    0.9545   -1.8084 N   0  0  0  0  0  0  0  0  0  0  0  0
    1.1810   -2.0803    1.5718 H   0  0  0  0  0  0  0  0  0  0  0  0
    0.1023   -2.8483   -0.6886 H   0  0  0  0  0  0  0  0  0  0  0  0
    1.4227   -0.1285   -1.2695 H   0  0  0  0  0  0  0  0  0  0  0  0
    1.1271   -1.3189   -2.5397 H   0  0  0  0  0  0  0  0  0  0  0  0
    0.2151    1.4908   -1.7725 H   0  0  0  0  0  0  0  0  0  0  0  0
   -1.5069    1.4804   -1.9162 H   0  0  0  0  0  0  0  0  0  0  0  0
    2.3900   -3.5514   -1.7181 N   0  0  0  0  0  0  0  0  0  0  0  0
    3.5940   -4.3043   -1.9767 C   0  0  2  0  0  0  0  0  0  0  0  0
    3.8279   -5.2373   -0.7959 C   0  0  0  0  0  0  0  0  0  0  0  0
    3.3561   -5.0366    0.3214 O   0  0  0  0  0  0  0  0  0  0  0  0
    4.7869   -3.3851   -2.1877 C   0  0  0  0  0  0  0  0  0  0  0  0
    1.6296   -3.6165   -2.3884 H   0  0  0  0  0  0  0  0  0  0  0  0
    3.4089   -4.8964   -2.8796 H   0  0  0  0  0  0  0  0  0  0  0  0
    4.9876   -2.7837   -1.2935 H   0  0  0  0  0  0  0  0  0  0  0  0
    5.6935   -3.9567   -2.4120 H   0  0  0  0  0  0  0  0  0  0  0  0
    4.6048   -2.6947   -3.0184 H   0  0  0  0  0  0  0  0  0  0  0  0
    4.6608   -6.2975   -1.1254 N   0  0  0  0  0  0  0  0  0  0  0  0
    5.0437   -7.3133   -0.1728 C   0  0  0  0  0  0  0  0  0  0  0  0
    4.9905   -6.3955   -2.0811 H   0  0  0  0  0  0  0  0  0  0  0  0
    5.9916   -7.0281    0.3070 H   0  0  0  0  0  0  0  0  0  0  0  0
    4.2603   -7.4117    0.5930 H   0  0  0  0  0  0  0  0  0  0  0  0
    5.1708   -8.2742   -0.6929 H   0  0  0  0  0  0  0  0  0  0  0  0
  1  3  1  0  0  0  0
  1  7  1  0  0  0  0
  1  2  2  0  0  0  0
 21 22  1  0  0  0  0
 22 24  1  0  0  0  0
 22 23  2  0  0  0  0
 32 33  1  0  0  0  0
 33 41  1  0  0  0  0
 33 34  2  0  0  0  0
  8  9  1  0  0  0  0
  9 17  1  0  0  0  0
  9 10  2  0  0  0  0
 18 19  1  0  0  0  0
 19 31  1  0  0  0  0
 19 20  2  0  0  0  0
 32 35  1  0  0  0  0
  8 11  1  0  0  0  0
 41 42  1  0  0  0  0
 18 21  1  0  0  0  0
 31 32  1  0  0  0  0
  7  8  1  0  0  0  0
 17 18  1  0  0  0  0
  3  4  1  0  0  0  0
  3  5  1  0  0  0  0
  3  6  1  0  0  0  0
 35 38  1  0  0  0  0
 35 39  1  0  0  0  0
 35 40  1  0  0  0  0
 11 14  1  0  0  0  0
 11 15  1  0  0  0  0
 11 16  1  0  0  0  0
 42 44  1  0  0  0  0
 42 45  1  0  0  0  0
 42 46  1  0  0  0  0
 21 27  1  0  0  0  0
 21 28  1  0  0  0  0
 32 37  1  0  0  0  0
  8 13  1  0  0  0  0
 18 26  1  0  0  0  0
 24 29  1  0  0  0  0
 24 30  1  0  0  0  0
 41 43  1  0  0  0  0
  7 12  1  0  0  0  0
 31 36  1  0  0  0  0
 17 25  1  0  0  0  0
M  END
$$$$

  -OEChem-05262214473D

 46 45  0     1  0  0  0  0  0999 V2000
   -0.0543    1.9736    3.8406 C   0  0  0  0  0  0  0  0  0  0  0  0
    0.6744    1.6099    4.7562 O   0  0  0  0  0  0  0  0  0  0  0  0
   -0.5599    3.3779    3.8160 C   0  0  0  0  0  0  0  0  0  0  0  0
   -1.5202    3.4885    4.3450 H   0  0  0  0  0  0  0  0  0  0  0  0
    0.1282    4.0814    4.3116 H   0  0  0  0  0  0  0  0  0  0  0  0
   -0.7317    3.7994    2.8126 H   0  0  0  0  0  0  0  0  0  0  0  0
   -0.4812    1.1968    2.7762 N   0  0  0  0  0  0  0  0  0  0  0  0
   -0.1106   -0.1834    2.6051 C   0  0  2  0  0  0  0  0  0  0  0  0
   -0.0696   -0.4775    1.1113 C   0  0  0  0  0  0  0  0  0  0  0  0
   -0.6805    0.1900    0.2792 O   0  0  0  0  0  0  0  0  0  0  0  0
   -1.0852   -1.1101    3.3150 C   0  0  0  0  0  0  0  0  0  0  0  0
   -1.0883    1.6241    2.0791 H   0  0  0  0  0  0  0  0  0  0  0  0
    0.8937   -0.2959    3.0277 H   0  0  0  0  0  0  0  0  0  0  0  0
   -2.0970   -1.0114    2.9051 H   0  0  0  0  0  0  0  0  0  0  0  0
   -0.7860   -2.1580    3.2078 H   0  0  0  0  0  0  0  0  0  0  0  0
   -1.1357   -0.8775    4.3842 H   0  0  0  0  0  0  0  0  0  0  0  0
    0.6950   -1.6003    0.8178 N   0  0  0  0  0  0  0  0  0  0  0  0
    0.8777   -2.0908   -0.5246 C   0  0  2  0  0  0  0  0  0  0  0  0
    2.0441   -3.0706   -0.5010 C   0  0  0  0  0  0  0  0  0  0  0  0
    2.6450   -3.3749    0.5274 O   0  0  0  0  0  0  0  0  0  0  0  0
    1.1471   -0.9566   -1.5136 C   0  0  0  0  0  0  0  0  0  0  0  0
   -0.0676   -0.0799   -1.7625 C   0  0  0  0  0  0  0  0  0  0  0  0
   -1.2076   -0.5100   -1.9109 O   0  0  0  0  0  0  0  0  0  0  0  0
    0.2538    1.2605   -1.7979 N   0  0  0  0  0  0  0  0  0  0  0  0
    1.1810   -2.0803    1.5718 H   0  0  0  0  0  0  0  0  0  0  0  0
   -0.0381   -2.6338   -0.7861 H   0  0  0  0  0  0  0  0  0  0  0  0
    1.9434   -0.3035   -1.1348 H   0  0  0  0  0  0  0  0  0  0  0  0
    1.4894   -1.3583   -2.4760 H   0  0  0  0  0  0  0  0  0  0  0  0
    1.2107    1.5711   -1.6664 H   0  0  0  0  0  0  0  0  0  0  0  0
   -0.4428    1.9819   -1.9547 H   0  0  0  0  0  0  0  0  0  0  0  0
    2.3053   -3.6053   -1.7548 N   0  0  0  0  0  0  0  0  0  0  0  0
    3.3505   -4.5770   -1.9704 C   0  0  2  0  0  0  0  0  0  0  0  0
    3.0745   -5.7727   -1.0684 C   0  0  0  0  0  0  0  0  0  0  0  0
    2.3855   -5.7019   -0.0528 O   0  0  0  0  0  0  0  0  0  0  0  0
    4.7226   -3.9863   -1.6853 C   0  0  0  0  0  0  0  0  0  0  0  0
    1.7453   -3.3174   -2.5518 H   0  0  0  0  0  0  0  0  0  0  0  0
    3.2831   -4.8866   -3.0190 H   0  0  0  0  0  0  0  0  0  0  0  0
    4.8090   -3.6702   -0.6393 H   0  0  0  0  0  0  0  0  0  0  0  0
    5.5163   -4.7159   -1.8768 H   0  0  0  0  0  0  0  0  0  0  0  0
    4.9073   -3.1085   -2.3140 H   0  0  0  0  0  0  0  0  0  0  0  0
    3.7235   -6.9183   -1.5072 N   0  0  0  0  0  0  0  0  0  0  0  0
    3.6292   -8.1818   -0.8138 C   0  0  0  0  0  0  0  0  0  0  0  0
    4.2586   -6.8900   -2.3701 H   0  0  0  0  0  0  0  0  0  0  0  0
    4.4608   -8.2715   -0.0994 H   0  0  0  0  0  0  0  0  0  0  0  0
    2.6733   -8.2320   -0.2719 H   0  0  0  0  0  0  0  0  0  0  0  0
    3.6814   -9.0044   -1.5422 H   0  0  0  0  0  0  0  0  0  0  0  0
  1  3  1  0  0  0  0
  1  7  1  0  0  0  0
  1  2  2  0  0  0  0
 21 22  1  0  0  0  0
 22 24  1  0  0  0  0
 22 23  2  0  0  0  0
 32 33  1  0  0  0  0
 33 41  1  0  0  0  0
 33 34  2  0  0  0  0
  8  9  1  0  0  0  0
  9 17  1  0  0  0  0
  9 10  2  0  0  0  0
 18 19  1  0  0  0  0
 19 31  1  0  0  0  0
 19 20  2  0  0  0  0
 32 35  1  0  0  0  0
  8 11  1  0  0  0  0
 41 42  1  0  0  0  0
 18 21  1  0  0  0  0
 31 32  1  0  0  0  0
  7  8  1  0  0  0  0
 17 18  1  0  0  0  0
  3  4  1  0  0  0  0
  3  5  1  0  0  0  0
  3  6  1  0  0  0  0
 35 38  1  0  0  0  0
 35 39  1  0  0  0  0
 35 40  1  0  0  0  0
 11 14  1  0  0  0  0
 11 15  1  0  0  0  0
 11 16  1  0  0  0  0
 42 44  1  0  0  0  0
 42 45  1  0  0  0  0
 42 46  1  0  0  0  0
 21 27  1  0  0  0  0
 21 28  1  0  0  0  0
 32 37  1  0  0  0  0
  8 13  1  0  0  0  0
 18 26  1  0  0  0  0
 24 29  1  0  0  0  0
 24 30  1  0  0  0  0
 41 43  1  0  0  0  0
  7 12  1  0  0  0  0
 31 36  1  0  0  0  0
 17 25  1  0  0  0  0
M  END
$$$$

  -OEChem-05262214473D

 46 45  0     1  0  0  0  0  0999 V2000
   -0.0543    1.9736    3.8406 C   0  0  0  0  0  0  0  0  0  0  0  0
    0.6744    1.6099    4.7562 O   0  0  0  0  0  0  0  0  0  0  0  0
   -0.5599    3.3779    3.8160 C   0  0  0  0  0  0  0  0  0  0  0  0
   -1.5202    3.4885    4.3450 H   0  0  0  0  0  0  0  0  0  0  0  0
    0.1282    4.0814    4.3116 H   0  0  0  0  0  0  0  0  0  0  0  0
   -0.7317    3.7994    2.8126 H   0  0  0  0  0  0  0  0  0  0  0  0
   -0.4812    1.1968    2.7762 N   0  0  0  0  0  0  0  0  0  0  0  0
   -0.1106   -0.1834    2.6051 C   0  0  2  0  0  0  0  0  0  0  0  0
   -0.0696   -0.4775    1.1113 C   0  0  0  0  0  0  0  0  0  0  0  0
   -0.6805    0.1900    0.2792 O   0  0  0  0  0  0  0  0  0  0  0  0
   -1.0852   -1.1101    3.3150 C   0  0  0  0  0  0  0  0  0  0  0  0
   -1.0883    1.6241    2.0791 H   0  0  0  0  0  0  0  0  0  0  0  0
    0.8937   -0.2959    3.0277 H   0  0  0  0  0  0  0  0  0  0  0  0
   -2.0970   -1.0114    2.9051 H   0  0  0  0  0  0  0  0  0  0  0  0
   -0.7860   -2.1580    3.2078 H   0  0  0  0  0  0  0  0  0  0  0  0
   -1.1357   -0.8775    4.3842 H   0  0  0  0  0  0  0  0  0  0  0  0
    0.6950   -1.6003    0.8178 N   0  0  0  0  0  0  0  0  0  0  0  0
    0.8777   -2.0908   -0.5246 C   0  0  2  0  0  0  0  0  0  0  0  0
    2.0441   -3.0706   -0.5010 C   0  0  0  0  0  0  0  0  0  0  0  0
    2.4721   -3.5806    0.5325 O   0  0  0  0  0  0  0  0  0  0  0  0
    1.1471   -0.9566   -1.5136 C   0  0  0  0  0  0  0  0  0  0  0  0
   -0.0676   -0.0799   -1.7625 C   0  0  0  0  0  0  0  0  0  0  0  0
   -1.2076   -0.5100   -1.9109 O   0  0  0  0  0  0  0  0  0  0  0  0
    0.2538    1.2605   -1.7979 N   0  0  0  0  0  0  0  0  0  0  0  0
    1.1810   -2.0803    1.5718 H   0  0  0  0  0  0  0  0  0  0  0  0
   -0.0381   -2.6338   -0.7861 H   0  0  0  0  0  0  0  0  0  0  0  0
    1.9434   -0.3035   -1.1348 H   0  0  0  0  0  0  0  0  0  0  0  0
    1.4894   -1.3583   -2.4760 H   0  0  0  0  0  0  0  0  0  0  0  0
    1.2107    1.5711   -1.6664 H   0  0  0  0  0  0  0  0  0  0  0  0
   -0.4428    1.9819   -1.9547 H   0  0  0  0  0  0  0  0  0  0  0  0
    2.5209   -3.3491   -1.7743 N   0  0  0  0  0  0  0  0  0  0  0  0
    3.6074   -4.2719   -2.0004 C   0  0  2  0  0  0  0  0  0  0  0  0
    3.2103   -5.6192   -1.4116 C   0  0  0  0  0  0  0  0  0  0  0  0
    2.3609   -5.7426   -0.5317 O   0  0  0  0  0  0  0  0  0  0  0  0
    4.9004   -3.7671   -1.3792 C   0  0  0  0  0  0  0  0  0  0  0  0
    2.0951   -2.9016   -2.5806 H   0  0  0  0  0  0  0  0  0  0  0  0
    3.7214   -4.3664   -3.0858 H   0  0  0  0  0  0  0  0  0  0  0  0
    4.8054   -3.6662   -0.2919 H   0  0  0  0  0  0  0  0  0  0  0  0
    5.7299   -4.4543   -1.5760 H   0  0  0  0  0  0  0  0  0  0  0  0
    5.1687   -2.7845   -1.7820 H   0  0  0  0  0  0  0  0  0  0  0  0
    3.9468   -6.6632   -1.9538 N   0  0  0  0  0  0  0  0  0  0  0  0
    3.7650   -8.0378   -1.5498 C   0  0  0  0  0  0  0  0  0  0  0  0
    4.6171   -6.4709   -2.6925 H   0  0  0  0  0  0  0  0  0  0  0  0
    4.4681   -8.2782   -0.7387 H   0  0  0  0  0  0  0  0  0  0  0  0
    2.7336   -8.1824   -1.1957 H   0  0  0  0  0  0  0  0  0  0  0  0
    3.9545   -8.7001   -2.4074 H   0  0  0  0  0  0  0  0  0  0  0  0
  1  3  1  0  0  0  0
  1  7  1  0  0  0  0
  1  2  2  0  0  0  0
 21 22  1  0  0  0  0
 22 24  1  0  0  0  0
 22 23  2  0  0  0  0
 32 33  1  0  0  0  0
 33 41  1  0  0  0  0
 33 34  2  0  0  0  0
  8  9  1  0  0  0  0
  9 17  1  0  0  0  0
  9 10  2  0  0  0  0
 18 19  1  0  0  0  0
 19 31  1  0  0  0  0
 19 20  2  0  0  0  0
 32 35  1  0  0  0  0
  8 11  1  0  0  0  0
 41 42  1  0  0  0  0
 18 21  1  0  0  0  0
 31 32  1  0  0  0  0
  7  8  1  0  0  0  0
 17 18  1  0  0  0  0
  3  4  1  0  0  0  0
  3  5  1  0  0  0  0
  3  6  1  0  0  0  0
 35 38  1  0  0  0  0
 35 39  1  0  0  0  0
 35 40  1  0  0  0  0
 11 14  1  0  0  0  0
 11 15  1  0  0  0  0
 11 16  1  0  0  0  0
 42 44  1  0  0  0  0
 42 45  1  0  0  0  0
 42 46  1  0  0  0  0
 21 27  1  0  0  0  0
 21 28  1  0  0  0  0
 32 37  1  0  0  0  0
  8 13  1  0  0  0  0
 18 26  1  0  0  0  0
 24 29  1  0  0  0  0
 24 30  1  0  0  0  0
 41 43  1  0  0  0  0
  7 12  1  0  0  0  0
 31 36  1  0  0  0  0
 17 25  1  0  0  0  0
M  END
$$$$

  -OEChem-05262214473D

 46 45  0     1  0  0  0  0  0999 V2000
   -0.0543    1.9736    3.8406 C   0  0  0  0  0  0  0  0  0  0  0  0
    0.6744    1.6099    4.7562 O   0  0  0  0  0  0  0  0  0  0  0  0
   -0.5599    3.3779    3.8160 C   0  0  0  0  0  0  0  0  0  0  0  0
   -1.5202    3.4885    4.3450 H   0  0  0  0  0  0  0  0  0  0  0  0
    0.1282    4.0814    4.3116 H   0  0  0  0  0  0  0  0  0  0  0  0
   -0.7317    3.7994    2.8126 H   0  0  0  0  0  0  0  0  0  0  0  0
   -0.4812    1.1968    2.7762 N   0  0  0  0  0  0  0  0  0  0  0  0
   -0.1106   -0.1834    2.6051 C   0  0  2  0  0  0  0  0  0  0  0  0
   -0.0696   -0.4775    1.1113 C   0  0  0  0  0  0  0  0  0  0  0  0
   -0.6805    0.1900    0.2792 O   0  0  0  0  0  0  0  0  0  0  0  0
   -1.0852   -1.1101    3.3150 C   0  0  0  0  0  0  0  0  0  0  0  0
   -1.0883    1.6241    2.0791 H   0  0  0  0  0  0  0  0  0  0  0  0
    0.8937   -0.2959    3.0277 H   0  0  0  0  0  0  0  0  0  0  0  0
   -2.0970   -1.0114    2.9051 H   0  0  0  0  0  0  0  0  0  0  0  0
   -0.7860   -2.1580    3.2078 H   0  0  0  0  0  0  0  0  0  0  0  0
   -1.1357   -0.8775    4.3842 H   0  0  0  0  0  0  0  0  0  0  0  0
    0.6950   -1.6003    0.8178 N   0  0  0  0  0  0  0  0  0  0  0  0
    0.8777   -2.0908   -0.5246 C   0  0  2  0  0  0  0  0  0  0  0  0
    2.0441   -3.0706   -0.5010 C   0  0  0  0  0  0  0  0  0  0  0  0
    2.3051   -3.7811    0.4678 O   0  0  0  0  0  0  0  0  0  0  0  0
    1.1471   -0.9566   -1.5136 C   0  0  0  0  0  0  0  0  0  0  0  0
   -0.0676   -0.0799   -1.7625 C   0  0  0  0  0  0  0  0  0  0  0  0
   -1.2076   -0.5100   -1.9109 O   0  0  0  0  0  0  0  0  0  0  0  0
    0.2538    1.2605   -1.7979 N   0  0  0  0  0  0  0  0  0  0  0  0
    1.1810   -2.0803    1.5718 H   0  0  0  0  0  0  0  0  0  0  0  0
   -0.0381   -2.6338   -0.7861 H   0  0  0  0  0  0  0  0  0  0  0  0
    1.9434   -0.3035   -1.1348 H   0  0  0  0  0  0  0  0  0  0  0  0
    1.4894   -1.3583   -2.4760 H   0  0  0  0  0  0  0  0  0  0  0  0
    1.2107    1.5711   -1.6664 H   0  0  0  0  0  0  0  0  0  0  0  0
   -0.4428    1.9819   -1.9547 H   0  0  0  0  0  0  0  0  0  0  0  0
    2.7314   -3.0969   -1.7064 N   0  0  0  0  0  0  0  0  0  0  0  0
    3.8592   -3.9703   -1.9261 C   0  0  2  0  0  0  0  0  0  0  0  0
    3.3980   -5.4025   -1.6902 C   0  0  0  0  0  0  0  0  0  0  0  0
    2.4170   -5.6872   -1.0063 O   0  0  0  0  0  0  0  0  0  0  0  0
    5.0204   -3.6154   -1.0105 C   0  0  0  0  0  0  0  0  0  0  0  0
    2.4362   -2.4929   -2.4678 H   0  0  0  0  0  0  0  0  0  0  0  0
    4.1539   -3.8488   -2.9742 H   0  0  0  0  0  0  0  0  0  0  0  0
    4.7441   -3.7311    0.0439 H   0  0  0  0  0  0  0  0  0  0  0  0
    5.8852   -4.2604   -1.1982 H   0  0  0  0  0  0  0  0  0  0  0  0
    5.3314   -2.5759   -1.1604 H   0  0  0  0  0  0  0  0  0  0  0  0
    4.2358   -6.3273   -2.2976 N   0  0  0  0  0  0  0  0  0  0  0  0
    4.0180   -7.7524   -2.2095 C   0  0  0  0  0  0  0  0  0  0  0  0
    5.0153   -6.0009   -2.8611 H   0  0  0  0  0  0  0  0  0  0  0  0
    4.5815   -8.1579   -1.3563 H   0  0  0  0  0  0  0  0  0  0  0  0
    2.9454   -7.9512   -2.0682 H   0  0  0  0  0  0  0  0  0  0  0  0
    4.3610   -8.2336   -3.1373 H   0  0  0  0  0  0  0  0  0  0  0  0
  1  3  1  0  0  0  0
  1  7  1  0  0  0  0
  1  2  2  0  0  0  0
 21 22  1  0  0  0  0
 22 24  1  0  0  0  0
 22 23  2  0  0  0  0
 32 33  1  0  0  0  0
 33 41  1  0  0  0  0
 33 34  2  0  0  0  0
  8  9  1  0  0  0  0
  9 17  1  0  0  0  0
  9 10  2  0  0  0  0
 18 19  1  0  0  0  0
 19 31  1  0  0  0  0
 19 20  2  0  0  0  0
 32 35  1  0  0  0  0
  8 11  1  0  0  0  0
 41 42  1  0  0  0  0
 18 21  1  0  0  0  0
 31 32  1  0  0  0  0
  7  8  1  0  0  0  0
 17 18  1  0  0  0  0
  3  4  1  0  0  0  0
  3  5  1  0  0  0  0
  3  6  1  0  0  0  0
 35 38  1  0  0  0  0
 35 39  1  0  0  0  0
 35 40  1  0  0  0  0
 11 14  1  0  0  0  0
 11 15  1  0  0  0  0
 11 16  1  0  0  0  0
 42 44  1  0  0  0  0
 42 45  1  0  0  0  0
 42 46  1  0  0  0  0
 21 27  1  0  0  0  0
 21 28  1  0  0  0  0
 32 37  1  0  0  0  0
  8 13  1  0  0  0  0
 18 26  1  0  0  0  0
 24 29  1  0  0  0  0
 24 30  1  0  0  0  0
 41 43  1  0  0  0  0
  7 12  1  0  0  0  0
 31 36  1  0  0  0  0
 17 25  1  0  0  0  0
M  END
$$$$

  -OEChem-05262214473D

 46 45  0     1  0  0  0  0  0999 V2000
   -0.0543    1.9736    3.8406 C   0  0  0  0  0  0  0  0  0  0  0  0
    0.6744    1.6099    4.7562 O   0  0  0  0  0  0  0  0  0  0  0  0
   -0.5599    3.3779    3.8160 C   0  0  0  0  0  0  0  0  0  0  0  0
   -1.5202    3.4885    4.3450 H   0  0  0  0  0  0  0  0  0  0  0  0
    0.1282    4.0814    4.3116 H   0  0  0  0  0  0  0  0  0  0  0  0
   -0.7317    3.7994    2.8126 H   0  0  0  0  0  0  0  0  0  0  0  0
   -0.4812    1.1968    2.7762 N   0  0  0  0  0  0  0  0  0  0  0  0
   -0.1106   -0.1834    2.6051 C   0  0  2  0  0  0  0  0  0  0  0  0
   -0.0696   -0.4775    1.1113 C   0  0  0  0  0  0  0  0  0  0  0  0
   -0.6805    0.1900    0.2792 O   0  0  0  0  0  0  0  0  0  0  0  0
   -1.0852   -1.1101    3.3150 C   0  0  0  0  0  0  0  0  0  0  0  0
   -1.0883    1.6241    2.0791 H   0  0  0  0  0  0  0  0  0  0  0  0
    0.8937   -0.2959    3.0277 H   0  0  0  0  0  0  0  0  0  0  0  0
   -2.0970   -1.0114    2.9051 H   0  0  0  0  0  0  0  0  0  0  0  0
   -0.7860   -2.1580    3.2078 H   0  0  0  0  0  0  0  0  0  0  0  0
   -1.1357   -0.8775    4.3842 H   0  0  0  0  0  0  0  0  0  0  0  0
    0.6950   -1.6003    0.8178 N   0  0  0  0  0  0  0  0  0  0  0  0
    0.8777   -2.0908   -0.5246 C   0  0  2  0  0  0  0  0  0  0  0  0
    2.0441   -3.0706   -0.5010 C   0  0  0  0  0  0  0  0  0  0  0  0
    2.1553   -3.9625    0.3378 O   0  0  0  0  0  0  0  0  0  0  0  0
    1.1471   -0.9566   -1.5136 C   0  0  0  0  0  0  0  0  0  0  0  0
   -0.0676   -0.0799   -1.7625 C   0  0  0  0  0  0  0  0  0  0  0  0
   -1.2076   -0.5100   -1.9109 O   0  0  0  0  0  0  0  0  0  0  0  0
    0.2538    1.2605   -1.7979 N   0  0  0  0  0  0  0  0  0  0  0  0
    1.1810   -2.0803    1.5718 H   0  0  0  0  0  0  0  0  0  0  0  0
   -0.0381   -2.6338   -0.7861 H   0  0  0  0  0  0  0  0  0  0  0  0
    1.9434   -0.3035   -1.1348 H   0  0  0  0  0  0  0  0  0  0  0  0
    1.4894   -1.3583   -2.4760 H   0  0  0  0  0  0  0  0  0  0  0  0
    1.2107    1.5711   -1.6664 H   0  0  0  0  0  0  0  0  0  0  0  0
   -0.4428    1.9819   -1.9547 H   0  0  0  0  0  0  0  0  0  0  0  0
    2.9224   -2.8659   -1.5559 N   0  0  0  0  0  0  0  0  0  0  0  0
    4.0890   -3.6927   -1.7527 C   0  0  2  0  0  0  0  0  0  0  0  0
    3.6248   -5.1371   -1.8851 C   0  0  0  0  0  0  0  0  0  0  0  0
    2.5500   -5.5394   -1.4445 O   0  0  0  0  0  0  0  0  0  0  0  0
    5.0744   -3.5414   -0.6043 C   0  0  0  0  0  0  0  0  0  0  0  0
    2.7452   -2.1190   -2.2211 H   0  0  0  0  0  0  0  0  0  0  0  0
    4.5509   -3.3694   -2.6919 H   0  0  0  0  0  0  0  0  0  0  0  0
    4.6293   -3.8606    0.3452 H   0  0  0  0  0  0  0  0  0  0  0  0
    5.9715   -4.1473   -0.7689 H   0  0  0  0  0  0  0  0  0  0  0  0
    5.3843   -2.4969   -0.4916 H   0  0  0  0  0  0  0  0  0  0  0  0
    4.5709   -5.9336   -2.5149 N   0  0  0  0  0  0  0  0  0  0  0  0
    4.3712   -7.3449   -2.7481 C   0  0  0  0  0  0  0  0  0  0  0  0
    5.4262   -5.5119   -2.8647 H   0  0  0  0  0  0  0  0  0  0  0  0
    4.7934   -7.9189   -1.9101 H   0  0  0  0  0  0  0  0  0  0  0  0
    3.2943   -7.5541   -2.8299 H   0  0  0  0  0  0  0  0  0  0  0  0
    4.8734   -7.6368   -3.6822 H   0  0  0  0  0  0  0  0  0  0  0  0
  1  3  1  0  0  0  0
  1  7  1  0  0  0  0
  1  2  2  0  0  0  0
 21 22  1  0  0  0  0
 22 24  1  0  0  0  0
 22 23  2  0  0  0  0
 32 33  1  0  0  0  0
 33 41  1  0  0  0  0
 33 34  2  0  0  0  0
  8  9  1  0  0  0  0
  9 17  1  0  0  0  0
  9 10  2  0  0  0  0
 18 19  1  0  0  0  0
 19 31  1  0  0  0  0
 19 20  2  0  0  0  0
 32 35  1  0  0  0  0
  8 11  1  0  0  0  0
 41 42  1  0  0  0  0
 18 21  1  0  0  0  0
 31 32  1  0  0  0  0
  7  8  1  0  0  0  0
 17 18  1  0  0  0  0
  3  4  1  0  0  0  0
  3  5  1  0  0  0  0
  3  6  1  0  0  0  0
 35 38  1  0  0  0  0
 35 39  1  0  0  0  0
 35 40  1  0  0  0  0
 11 14  1  0  0  0  0
 11 15  1  0  0  0  0
 11 16  1  0  0  0  0
 42 44  1  0  0  0  0
 42 45  1  0  0  0  0
 42 46  1  0  0  0  0
 21 27  1  0  0  0  0
 21 28  1  0  0  0  0
 32 37  1  0  0  0  0
  8 13  1  0  0  0  0
 18 26  1  0  0  0  0
 24 29  1  0  0  0  0
 24 30  1  0  0  0  0
 41 43  1  0  0  0  0
  7 12  1  0  0  0  0
 31 36  1  0  0  0  0
 17 25  1  0  0  0  0
M  END
$$$$

  -OEChem-05262214473D

 46 45  0     1  0  0  0  0  0999 V2000
   -0.0543    1.9736    3.8406 C   0  0  0  0  0  0  0  0  0  0  0  0
    0.6744    1.6099    4.7562 O   0  0  0  0  0  0  0  0  0  0  0  0
   -0.5599    3.3779    3.8160 C   0  0  0  0  0  0  0  0  0  0  0  0
   -1.5202    3.4885    4.3450 H   0  0  0  0  0  0  0  0  0  0  0  0
    0.1282    4.0814    4.3116 H   0  0  0  0  0  0  0  0  0  0  0  0
   -0.7317    3.7994    2.8126 H   0  0  0  0  0  0  0  0  0  0  0  0
   -0.4812    1.1968    2.7762 N   0  0  0  0  0  0  0  0  0  0  0  0
   -0.1106   -0.1834    2.6051 C   0  0  2  0  0  0  0  0  0  0  0  0
   -0.0696   -0.4775    1.1113 C   0  0  0  0  0  0  0  0  0  0  0  0
   -0.6805    0.1900    0.2792 O   0  0  0  0  0  0  0  0  0  0  0  0
   -1.0852   -1.1101    3.3150 C   0  0  0  0  0  0  0  0  0  0  0  0
   -1.0883    1.6241    2.0791 H   0  0  0  0  0  0  0  0  0  0  0  0
    0.8937   -0.2959    3.0277 H   0  0  0  0  0  0  0  0  0  0  0  0
   -2.0970   -1.0114    2.9051 H   0  0  0  0  0  0  0  0  0  0  0  0
   -0.7860   -2.1580    3.2078 H   0  0  0  0  0  0  0  0  0  0  0  0
   -1.1357   -0.8775    4.3842 H   0  0  0  0  0  0  0  0  0  0  0  0
    0.6950   -1.6003    0.8178 N   0  0  0  0  0  0  0  0  0  0  0  0
    0.8777   -2.0908   -0.5246 C   0  0  2  0  0  0  0  0  0  0  0  0
    2.0441   -3.0706   -0.5010 C   0  0  0  0  0  0  0  0  0  0  0  0
    2.0329   -4.1126    0.1513 O   0  0  0  0  0  0  0  0  0  0  0  0
    1.1471   -0.9566   -1.5136 C   0  0  0  0  0  0  0  0  0  0  0  0
   -0.0676   -0.0799   -1.7625 C   0  0  0  0  0  0  0  0  0  0  0  0
   -1.2076   -0.5100   -1.9109 O   0  0  0  0  0  0  0  0  0  0  0  0
    0.2538    1.2605   -1.7979 N   0  0  0  0  0  0  0  0  0  0  0  0
    1.1810   -2.0803    1.5718 H   0  0  0  0  0  0  0  0  0  0  0  0
   -0.0381   -2.6338   -0.7861 H   0  0  0  0  0  0  0  0  0  0  0  0
    1.9434   -0.3035   -1.1348 H   0  0  0  0  0  0  0  0  0  0  0  0
    1.4894   -1.3583   -2.4760 H   0  0  0  0  0  0  0  0  0  0  0  0
    1.2107    1.5711   -1.6664 H   0  0  0  0  0  0  0  0  0  0  0  0
   -0.4428    1.9819   -1.9547 H   0  0  0  0  0  0  0  0  0  0  0  0
    3.0809   -2.6719   -1.3329 N   0  0  0  0  0  0  0  0  0  0  0  0
    4.2809   -3.4579   -1.4919 C   0  0  2  0  0  0  0  0  0  0  0  0
    3.8753   -4.8413   -1.9830 C   0  0  0  0  0  0  0  0  0  0  0  0
    2.7509   -5.3093   -1.8163 O   0  0  0  0  0  0  0  0  0  0  0  0
    5.0586   -3.5503   -0.1883 C   0  0  0  0  0  0  0  0  0  0  0  0
    3.0012   -1.8056   -1.8573 H   0  0  0  0  0  0  0  0  0  0  0  0
    4.8856   -2.9606   -2.2580 H   0  0  0  0  0  0  0  0  0  0  0  0
    4.4687   -4.0458    0.5915 H   0  0  0  0  0  0  0  0  0  0  0  0
    5.9830   -4.1229   -0.3175 H   0  0  0  0  0  0  0  0  0  0  0  0
    5.3237   -2.5529    0.1789 H   0  0  0  0  0  0  0  0  0  0  0  0
    4.9291   -5.5090   -2.5911 N   0  0  0  0  0  0  0  0  0  0  0  0
    4.8003   -6.8432   -3.1288 C   0  0  0  0  0  0  0  0  0  0  0  0
    5.8217   -5.0371   -2.7028 H   0  0  0  0  0  0  0  0  0  0  0  0
    5.0894   -7.5775   -2.3625 H   0  0  0  0  0  0  0  0  0  0  0  0
    3.7565   -7.0182   -3.4289 H   0  0  0  0  0  0  0  0  0  0  0  0
    5.4566   -6.9502   -4.0051 H   0  0  0  0  0  0  0  0  0  0  0  0
  1  3  1  0  0  0  0
  1  7  1  0  0  0  0
  1  2  2  0  0  0  0
 21 22  1  0  0  0  0
 22 24  1  0  0  0  0
 22 23  2  0  0  0  0
 32 33  1  0  0  0  0
 33 41  1  0  0  0  0
 33 34  2  0  0  0  0
  8  9  1  0  0  0  0
  9 17  1  0  0  0  0
  9 10  2  0  0  0  0
 18 19  1  0  0  0  0
 19 31  1  0  0  0  0
 19 20  2  0  0  0  0
 32 35  1  0  0  0  0
  8 11  1  0  0  0  0
 41 42  1  0  0  0  0
 18 21  1  0  0  0  0
 31 32  1  0  0  0  0
  7  8  1  0  0  0  0
 17 18  1  0  0  0  0
  3  4  1  0  0  0  0
  3  5  1  0  0  0  0
  3  6  1  0  0  0  0
 35 38  1  0  0  0  0
 35 39  1  0  0  0  0
 35 40  1  0  0  0  0
 11 14  1  0  0  0  0
 11 15  1  0  0  0  0
 11 16  1  0  0  0  0
 42 44  1  0  0  0  0
 42 45  1  0  0  0  0
 42 46  1  0  0  0  0
 21 27  1  0  0  0  0
 21 28  1  0  0  0  0
 32 37  1  0  0  0  0
  8 13  1  0  0  0  0
 18 26  1  0  0  0  0
 24 29  1  0  0  0  0
 24 30  1  0  0  0  0
 41 43  1  0  0  0  0
  7 12  1  0  0  0  0
 31 36  1  0  0  0  0
 17 25  1  0  0  0  0
M  END
$$$$

  -OEChem-05262214473D

 46 45  0     1  0  0  0  0  0999 V2000
   -0.0543    1.9736    3.8406 C   0  0  0  0  0  0  0  0  0  0  0  0
    0.6744    1.6099    4.7562 O   0  0  0  0  0  0  0  0  0  0  0  0
   -0.5599    3.3779    3.8160 C   0  0  0  0  0  0  0  0  0  0  0  0
   -1.5202    3.4885    4.3450 H   0  0  0  0  0  0  0  0  0  0  0  0
    0.1282    4.0814    4.3116 H   0  0  0  0  0  0  0  0  0  0  0  0
   -0.7317    3.7994    2.8126 H   0  0  0  0  0  0  0  0  0  0  0  0
   -0.4812    1.1968    2.7762 N   0  0  0  0  0  0  0  0  0  0  0  0
   -0.1106   -0.1834    2.6051 C   0  0  2  0  0  0  0  0  0  0  0  0
   -0.0696   -0.4775    1.1113 C   0  0  0  0  0  0  0  0  0  0  0  0
   -0.6805    0.1900    0.2792 O   0  0  0  0  0  0  0  0  0  0  0  0
   -1.0852   -1.1101    3.3150 C   0  0  0  0  0  0  0  0  0  0  0  0
   -1.0883    1.6241    2.0791 H   0  0  0  0  0  0  0  0  0  0  0  0
    0.8937   -0.2959    3.0277 H   0  0  0  0  0  0  0  0  0  0  0  0
   -2.0970   -1.0114    2.9051 H   0  0  0  0  0  0  0  0  0  0  0  0
   -0.7860   -2.1580    3.2078 H   0  0  0  0  0  0  0  0  0  0  0  0
   -1.1357   -0.8775    4.3842 H   0  0  0  0  0  0  0  0  0  0  0  0
    0.6950   -1.6003    0.8178 N   0  0  0  0  0  0  0  0  0  0  0  0
    0.8777   -2.0908   -0.5246 C   0  0  2  0  0  0  0  0  0  0  0  0
    2.0441   -3.0706   -0.5010 C   0  0  0  0  0  0  0  0  0  0  0  0
    1.9464   -4.2211   -0.0789 O   0  0  0  0  0  0  0  0  0  0  0  0
    1.1471   -0.9566   -1.5136 C   0  0  0  0  0  0  0  0  0  0  0  0
   -0.0676   -0.0799   -1.7625 C   0  0  0  0  0  0  0  0  0  0  0  0
   -1.2076   -0.5100   -1.9109 O   0  0  0  0  0  0  0  0  0  0  0  0
    0.2538    1.2605   -1.7979 N   0  0  0  0  0  0  0  0  0  0  0  0
    1.1810   -2.0803    1.5718 H   0  0  0  0  0  0  0  0  0  0  0  0
   -0.0381   -2.6338   -0.7861 H   0  0  0  0  0  0  0  0  0  0  0  0
    1.9434   -0.3035   -1.1348 H   0  0  0  0  0  0  0  0  0  0  0  0
    1.4894   -1.3583   -2.4760 H   0  0  0  0  0  0  0  0  0  0  0  0
    1.2107    1.5711   -1.6664 H   0  0  0  0  0  0  0  0  0  0  0  0
   -0.4428    1.9819   -1.9547 H   0  0  0  0  0  0  0  0  0  0  0  0
    3.1961   -2.5280   -1.0527 N   0  0  0  0  0  0  0  0  0  0  0  0
    4.4219   -3.2821   -1.1615 C   0  0  2  0  0  0  0  0  0  0  0  0
    4.1323   -4.5352   -1.9772 C   0  0  0  0  0  0  0  0  0  0  0  0
    3.0058   -5.0125   -2.0964 O   0  0  0  0  0  0  0  0  0  0  0  0
    4.9741   -3.6413    0.2091 C   0  0  0  0  0  0  0  0  0  0  0  0
    3.1866   -1.5739   -1.4011 H   0  0  0  0  0  0  0  0  0  0  0  0
    5.1350   -2.6503   -1.7023 H   0  0  0  0  0  0  0  0  0  0  0  0
    4.2734   -4.2741    0.7659 H   0  0  0  0  0  0  0  0  0  0  0  0
    5.9188   -4.1886    0.1253 H   0  0  0  0  0  0  0  0  0  0  0  0
    5.1538   -2.7401    0.8053 H   0  0  0  0  0  0  0  0  0  0  0  0
    5.2861   -5.0823   -2.5208 N   0  0  0  0  0  0  0  0  0  0  0  0
    5.2761   -6.2815   -3.3257 C   0  0  0  0  0  0  0  0  0  0  0  0
    6.1748   -4.6091   -2.3865 H   0  0  0  0  0  0  0  0  0  0  0  0
    5.4491   -7.1569   -2.6825 H   0  0  0  0  0  0  0  0  0  0  0  0
    4.3006   -6.3801   -3.8243 H   0  0  0  0  0  0  0  0  0  0  0  0
    6.0709   -6.2208   -4.0838 H   0  0  0  0  0  0  0  0  0  0  0  0
  1  3  1  0  0  0  0
  1  7  1  0  0  0  0
  1  2  2  0  0  0  0
 21 22  1  0  0  0  0
 22 24  1  0  0  0  0
 22 23  2  0  0  0  0
 32 33  1  0  0  0  0
 33 41  1  0  0  0  0
 33 34  2  0  0  0  0
  8  9  1  0  0  0  0
  9 17  1  0  0  0  0
  9 10  2  0  0  0  0
 18 19  1  0  0  0  0
 19 31  1  0  0  0  0
 19 20  2  0  0  0  0
 32 35  1  0  0  0  0
  8 11  1  0  0  0  0
 41 42  1  0  0  0  0
 18 21  1  0  0  0  0
 31 32  1  0  0  0  0
  7  8  1  0  0  0  0
 17 18  1  0  0  0  0
  3  4  1  0  0  0  0
  3  5  1  0  0  0  0
  3  6  1  0  0  0  0
 35 38  1  0  0  0  0
 35 39  1  0  0  0  0
 35 40  1  0  0  0  0
 11 14  1  0  0  0  0
 11 15  1  0  0  0  0
 11 16  1  0  0  0  0
 42 44  1  0  0  0  0
 42 45  1  0  0  0  0
 42 46  1  0  0  0  0
 21 27  1  0  0  0  0
 21 28  1  0  0  0  0
 32 37  1  0  0  0  0
  8 13  1  0  0  0  0
 18 26  1  0  0  0  0
 24 29  1  0  0  0  0
 24 30  1  0  0  0  0
 41 43  1  0  0  0  0
  7 12  1  0  0  0  0
 31 36  1  0  0  0  0
 17 25  1  0  0  0  0
M  END
$$$$

  -OEChem-05262214473D

 46 45  0     1  0  0  0  0  0999 V2000
   -0.0543    1.9736    3.8406 C   0  0  0  0  0  0  0  0  0  0  0  0
    0.6744    1.6099    4.7562 O   0  0  0  0  0  0  0  0  0  0  0  0
   -0.5599    3.3779    3.8160 C   0  0  0  0  0  0  0  0  0  0  0  0
   -1.5202    3.4885    4.3450 H   0  0  0  0  0  0  0  0  0  0  0  0
    0.1282    4.0814    4.3116 H   0  0  0  0  0  0  0  0  0  0  0  0
   -0.7317    3.7994    2.8126 H   0  0  0  0  0  0  0  0  0  0  0  0
   -0.4812    1.1968    2.7762 N   0  0  0  0  0  0  0  0  0  0  0  0
   -0.1106   -0.1834    2.6051 C   0  0  2  0  0  0  0  0  0  0  0  0
   -0.0696   -0.4775    1.1113 C   0  0  0  0  0  0  0  0  0  0  0  0
   -0.6805    0.1900    0.2792 O   0  0  0  0  0  0  0  0  0  0  0  0
   -1.0852   -1.1101    3.3150 C   0  0  0  0  0  0  0  0  0  0  0  0
   -1.0883    1.6241    2.0791 H   0  0  0  0  0  0  0  0  0  0  0  0
    0.8937   -0.2959    3.0277 H   0  0  0  0  0  0  0  0  0  0  0  0
   -2.0970   -1.0114    2.9051 H   0  0  0  0  0  0  0  0  0  0  0  0
   -0.7860   -2.1580    3.2078 H   0  0  0  0  0  0  0  0  0  0  0  0
   -1.1357   -0.8775    4.3842 H   0  0  0  0  0  0  0  0  0  0  0  0
    0.6950   -1.6003    0.8178 N   0  0  0  0  0  0  0  0  0  0  0  0
    0.8777   -2.0908   -0.5246 C   0  0  2  0  0  0  0  0  0  0  0  0
    2.0441   -3.0706   -0.5010 C   0  0  0  0  0  0  0  0  0  0  0  0
    1.9016   -4.2807   -0.3372 O   0  0  0  0  0  0  0  0  0  0  0  0
    1.1471   -0.9566   -1.5136 C   0  0  0  0  0  0  0  0  0  0  0  0
   -0.0676   -0.0799   -1.7625 C   0  0  0  0  0  0  0  0  0  0  0  0
   -1.2076   -0.5100   -1.9109 O   0  0  0  0  0  0  0  0  0  0  0  0
    0.2538    1.2605   -1.7979 N   0  0  0  0  0  0  0  0  0  0  0  0
    1.1810   -2.0803    1.5718 H   0  0  0  0  0  0  0  0  0  0  0  0
   -0.0381   -2.6338   -0.7861 H   0  0  0  0  0  0  0  0  0  0  0  0
    1.9434   -0.3035   -1.1348 H   0  0  0  0  0  0  0  0  0  0  0  0
    1.4894   -1.3583   -2.4760 H   0  0  0  0  0  0  0  0  0  0  0  0
    1.2107    1.5711   -1.6664 H   0  0  0  0  0  0  0  0  0  0  0  0
   -0.4428    1.9819   -1.9547 H   0  0  0  0  0  0  0  0  0  0  0  0
    3.2602   -2.4440   -0.7344 N   0  0  0  0  0  0  0  0  0  0  0  0
    4.5025   -3.1771   -0.7841 C   0  0  2  0  0  0  0  0  0  0  0  0
    4.3784   -4.2396   -1.8682 C   0  0  0  0  0  0  0  0  0  0  0  0
    3.2975   -4.6693   -2.2658 O   0  0  0  0  0  0  0  0  0  0  0  0
    4.8267   -3.8083    0.5609 C   0  0  0  0  0  0  0  0  0  0  0  0
    3.2889   -1.4397   -0.8838 H   0  0  0  0  0  0  0  0  0  0  0  0
    5.2821   -2.4598   -1.0625 H   0  0  0  0  0  0  0  0  0  0  0  0
    4.0566   -4.5301    0.8566 H   0  0  0  0  0  0  0  0  0  0  0  0
    5.7834   -4.3401    0.5293 H   0  0  0  0  0  0  0  0  0  0  0  0
    4.8862   -3.0458    1.3450 H   0  0  0  0  0  0  0  0  0  0  0  0
    5.6176   -4.6826   -2.3090 N   0  0  0  0  0  0  0  0  0  0  0  0
    5.7663   -5.6979   -3.3254 C   0  0  0  0  0  0  0  0  0  0  0  0
    6.4616   -4.2569   -1.9374 H   0  0  0  0  0  0  0  0  0  0  0  0
    5.8482   -6.6857   -2.8484 H   0  0  0  0  0  0  0  0  0  0  0  0
    4.8893   -5.6831   -3.9893 H   0  0  0  0  0  0  0  0  0  0  0  0
    6.6744   -5.4981   -3.9130 H   0  0  0  0  0  0  0  0  0  0  0  0
  1  3  1  0  0  0  0
  1  7  1  0  0  0  0
  1  2  2  0  0  0  0
 21 22  1  0  0  0  0
 22 24  1  0  0  0  0
 22 23  2  0  0  0  0
 32 33  1  0  0  0  0
 33 41  1  0  0  0  0
 33 34  2  0  0  0  0
  8  9  1  0  0  0  0
  9 17  1  0  0  0  0
  9 10  2  0  0  0  0
 18 19  1  0  0  0  0
 19 31  1  0  0  0  0
 19 20  2  0  0  0  0
 32 35  1  0  0  0  0
  8 11  1  0  0  0  0
 41 42  1  0  0  0  0
 18 21  1  0  0  0  0
 31 32  1  0  0  0  0
  7  8  1  0  0  0  0
 17 18  1  0  0  0  0
  3  4  1  0  0  0  0
  3  5  1  0  0  0  0
  3  6  1  0  0  0  0
 35 38  1  0  0  0  0
 35 39  1  0  0  0  0
 35 40  1  0  0  0  0
 11 14  1  0  0  0  0
 11 15  1  0  0  0  0
 11 16  1  0  0  0  0
 42 44  1  0  0  0  0
 42 45  1  0  0  0  0
 42 46  1  0  0  0  0
 21 27  1  0  0  0  0
 21 28  1  0  0  0  0
 32 37  1  0  0  0  0
  8 13  1  0  0  0  0
 18 26  1  0  0  0  0
 24 29  1  0  0  0  0
 24 30  1  0  0  0  0
 41 43  1  0  0  0  0
  7 12  1  0  0  0  0
 31 36  1  0  0  0  0
 17 25  1  0  0  0  0
M  END
$$$$

  -OEChem-05262214473D

 46 45  0     1  0  0  0  0  0999 V2000
   -0.0543    1.9736    3.8406 C   0  0  0  0  0  0  0  0  0  0  0  0
    0.6744    1.6099    4.7562 O   0  0  0  0  0  0  0  0  0  0  0  0
   -0.5599    3.3779    3.8160 C   0  0  0  0  0  0  0  0  0  0  0  0
   -1.5202    3.4885    4.3450 H   0  0  0  0  0  0  0  0  0  0  0  0
    0.1282    4.0814    4.3116 H   0  0  0  0  0  0  0  0  0  0  0  0
   -0.7317    3.7994    2.8126 H   0  0  0  0  0  0  0  0  0  0  0  0
   -0.4812    1.1968    2.7762 N   0  0  0  0  0  0  0  0  0  0  0  0
   -0.1106   -0.1834    2.6051 C   0  0  2  0  0  0  0  0  0  0  0  0
   -0.0696   -0.4775    1.1113 C   0  0  0  0  0  0  0  0  0  0  0  0
   -0.6805    0.1900    0.2792 O   0  0  0  0  0  0  0  0  0  0  0  0
   -1.0852   -1.1101    3.3150 C   0  0  0  0  0  0  0  0  0  0  0  0
   -1.0883    1.6241    2.0791 H   0  0  0  0  0  0  0  0  0  0  0  0
    0.8937   -0.2959    3.0277 H   0  0  0  0  0  0  0  0  0  0  0  0
   -2.0970   -1.0114    2.9051 H   0  0  0  0  0  0  0  0  0  0  0  0
   -0.7860   -2.1580    3.2078 H   0  0  0  0  0  0  0  0  0  0  0  0
   -1.1357   -0.8775    4.3842 H   0  0  0  0  0  0  0  0  0  0  0  0
    0.6950   -1.6003    0.8178 N   0  0  0  0  0  0  0  0  0  0  0  0
    0.8777   -2.0908   -0.5246 C   0  0  2  0  0  0  0  0  0  0  0  0
    2.0441   -3.0706   -0.5010 C   0  0  0  0  0  0  0  0  0  0  0  0
    1.9015   -4.2872   -0.6059 O   0  0  0  0  0  0  0  0  0  0  0  0
    1.1471   -0.9566   -1.5136 C   0  0  0  0  0  0  0  0  0  0  0  0
   -0.0676   -0.0799   -1.7625 C   0  0  0  0  0  0  0  0  0  0  0  0
   -1.2076   -0.5100   -1.9109 O   0  0  0  0  0  0  0  0  0  0  0  0
    0.2538    1.2605   -1.7979 N   0  0  0  0  0  0  0  0  0  0  0  0
    1.1810   -2.0803    1.5718 H   0  0  0  0  0  0  0  0  0  0  0  0
   -0.0381   -2.6338   -0.7861 H   0  0  0  0  0  0  0  0  0  0  0  0
    1.9434   -0.3035   -1.1348 H   0  0  0  0  0  0  0  0  0  0  0  0
    1.4894   -1.3583   -2.4760 H   0  0  0  0  0  0  0  0  0  0  0  0
    1.2107    1.5711   -1.6664 H   0  0  0  0  0  0  0  0  0  0  0  0
   -0.4428    1.9819   -1.9547 H   0  0  0  0  0  0  0  0  0  0  0  0
    3.2688   -2.4258   -0.3996 N   0  0  0  0  0  0  0  0  0  0  0  0
    4.5170   -3.1502   -0.3854 C   0  0  2  0  0  0  0  0  0  0  0  0
    4.5968   -3.9747   -1.6634 C   0  0  0  0  0  0  0  0  0  0  0  0
    3.6060   -4.3031   -2.3128 O   0  0  0  0  0  0  0  0  0  0  0  0
    4.6265   -4.0399    0.8431 C   0  0  0  0  0  0  0  0  0  0  0  0
    3.3010   -1.4122   -0.3404 H   0  0  0  0  0  0  0  0  0  0  0  0
    5.3170   -2.4019   -0.3823 H   0  0  0  0  0  0  0  0  0  0  0  0
    3.8331   -4.7961    0.8574 H   0  0  0  0  0  0  0  0  0  0  0  0
    5.5859   -4.5671    0.8670 H   0  0  0  0  0  0  0  0  0  0  0  0
    4.5390   -3.4491    1.7613 H   0  0  0  0  0  0  0  0  0  0  0  0
    5.9009   -4.3372   -1.9701 N   0  0  0  0  0  0  0  0  0  0  0  0
    6.2373   -5.1324   -3.1279 C   0  0  0  0  0  0  0  0  0  0  0  0
    6.6625   -4.0045   -1.3860 H   0  0  0  0  0  0  0  0  0  0  0  0
    6.2595   -6.1962   -2.8489 H   0  0  0  0  0  0  0  0  0  0  0  0
    5.4827   -4.9749   -3.9126 H   0  0  0  0  0  0  0  0  0  0  0  0
    7.2261   -4.8316   -3.5044 H   0  0  0  0  0  0  0  0  0  0  0  0
  1  3  1  0  0  0  0
  1  7  1  0  0  0  0
  1  2  2  0  0  0  0
 21 22  1  0  0  0  0
 22 24  1  0  0  0  0
 22 23  2  0  0  0  0
 32 33  1  0  0  0  0
 33 41  1  0  0  0  0
 33 34  2  0  0  0  0
  8  9  1  0  0  0  0
  9 17  1  0  0  0  0
  9 10  2  0  0  0  0
 18 19  1  0  0  0  0
 19 31  1  0  0  0  0
 19 20  2  0  0  0  0
 32 35  1  0  0  0  0
  8 11  1  0  0  0  0
 41 42  1  0  0  0  0
 18 21  1  0  0  0  0
 31 32  1  0  0  0  0
  7  8  1  0  0  0  0
 17 18  1  0  0  0  0
  3  4  1  0  0  0  0
  3  5  1  0  0  0  0
  3  6  1  0  0  0  0
 35 38  1  0  0  0  0
 35 39  1  0  0  0  0
 35 40  1  0  0  0  0
 11 14  1  0  0  0  0
 11 15  1  0  0  0  0
 11 16  1  0  0  0  0
 42 44  1  0  0  0  0
 42 45  1  0  0  0  0
 42 46  1  0  0  0  0
 21 27  1  0  0  0  0
 21 28  1  0  0  0  0
 32 37  1  0  0  0  0
  8 13  1  0  0  0  0
 18 26  1  0  0  0  0
 24 29  1  0  0  0  0
 24 30  1  0  0  0  0
 41 43  1  0  0  0  0
  7 12  1  0  0  0  0
 31 36  1  0  0  0  0
 17 25  1  0  0  0  0
M  END
$$$$

  -OEChem-05262214473D

 46 45  0     1  0  0  0  0  0999 V2000
   -0.0543    1.9736    3.8406 C   0  0  0  0  0  0  0  0  0  0  0  0
    0.6744    1.6099    4.7562 O   0  0  0  0  0  0  0  0  0  0  0  0
   -0.5599    3.3779    3.8160 C   0  0  0  0  0  0  0  0  0  0  0  0
   -1.5202    3.4885    4.3450 H   0  0  0  0  0  0  0  0  0  0  0  0
    0.1282    4.0814    4.3116 H   0  0  0  0  0  0  0  0  0  0  0  0
   -0.7317    3.7994    2.8126 H   0  0  0  0  0  0  0  0  0  0  0  0
   -0.4812    1.1968    2.7762 N   0  0  0  0  0  0  0  0  0  0  0  0
   -0.1106   -0.1834    2.6051 C   0  0  2  0  0  0  0  0  0  0  0  0
   -0.0696   -0.4775    1.1113 C   0  0  0  0  0  0  0  0  0  0  0  0
   -0.6805    0.1900    0.2792 O   0  0  0  0  0  0  0  0  0  0  0  0
   -1.0852   -1.1101    3.3150 C   0  0  0  0  0  0  0  0  0  0  0  0
   -1.0883    1.6241    2.0791 H   0  0  0  0  0  0  0  0  0  0  0  0
    0.8937   -0.2959    3.0277 H   0  0  0  0  0  0  0  0  0  0  0  0
   -2.0970   -1.0114    2.9051 H   0  0  0  0  0  0  0  0  0  0  0  0
   -0.7860   -2.1580    3.2078 H   0  0  0  0  0  0  0  0  0  0  0  0
   -1.1357   -0.8775    4.3842 H   0  0  0  0  0  0  0  0  0  0  0  0
    0.6950   -1.6003    0.8178 N   0  0  0  0  0  0  0  0  0  0  0  0
    0.8777   -2.0908   -0.5246 C   0  0  2  0  0  0  0  0  0  0  0  0
    2.0441   -3.0706   -0.5010 C   0  0  0  0  0  0  0  0  0  0  0  0
    1.9462   -4.2403   -0.8668 O   0  0  0  0  0  0  0  0  0  0  0  0
    1.1471   -0.9566   -1.5136 C   0  0  0  0  0  0  0  0  0  0  0  0
   -0.0676   -0.0799   -1.7625 C   0  0  0  0  0  0  0  0  0  0  0  0
   -1.2076   -0.5100   -1.9109 O   0  0  0  0  0  0  0  0  0  0  0  0
    0.2538    1.2605   -1.7979 N   0  0  0  0  0  0  0  0  0  0  0  0
    1.1810   -2.0803    1.5718 H   0  0  0  0  0  0  0  0  0  0  0  0
   -0.0381   -2.6338   -0.7861 H   0  0  0  0  0  0  0  0  0  0  0  0
    1.9434   -0.3035   -1.1348 H   0  0  0  0  0  0  0  0  0  0  0  0
    1.4894   -1.3583   -2.4760 H   0  0  0  0  0  0  0  0  0  0  0  0
    1.2107    1.5711   -1.6664 H   0  0  0  0  0  0  0  0  0  0  0  0
   -0.4428    1.9819   -1.9547 H   0  0  0  0  0  0  0  0  0  0  0  0
    3.2213   -2.4745   -0.0711 N   0  0  0  0  0  0  0  0  0  0  0  0
    4.4646   -3.2032    0.0075 C   0  0  2  0  0  0  0  0  0  0  0  0
    4.7726   -3.7585   -1.3768 C   0  0  0  0  0  0  0  0  0  0  0  0
    3.9104   -3.9388   -2.2343 O   0  0  0  0  0  0  0  0  0  0  0  0
    4.3870   -4.3204    1.0364 C   0  0  0  0  0  0  0  0  0  0  0  0
    3.2221   -1.4933    0.1919 H   0  0  0  0  0  0  0  0  0  0  0  0
    5.2372   -2.4807    0.2920 H   0  0  0  0  0  0  0  0  0  0  0  0
    3.6181   -5.0542    0.7683 H   0  0  0  0  0  0  0  0  0  0  0  0
    5.3399   -4.8540    1.1153 H   0  0  0  0  0  0  0  0  0  0  0  0
    4.1361   -3.9224    2.0256 H   0  0  0  0  0  0  0  0  0  0  0  0
    6.1168   -4.0696   -1.5271 N   0  0  0  0  0  0  0  0  0  0  0  0
    6.6572   -4.6234   -2.7466 C   0  0  0  0  0  0  0  0  0  0  0  0
    6.7637   -3.8692   -0.7701 H   0  0  0  0  0  0  0  0  0  0  0  0
    6.6548   -5.7216   -2.6838 H   0  0  0  0  0  0  0  0  0  0  0  0
    6.0402   -4.3036   -3.5993 H   0  0  0  0  0  0  0  0  0  0  0  0
    7.6883   -4.2664   -2.8858 H   0  0  0  0  0  0  0  0  0  0  0  0
  1  3  1  0  0  0  0
  1  7  1  0  0  0  0
  1  2  2  0  0  0  0
 21 22  1  0  0  0  0
 22 24  1  0  0  0  0
 22 23  2  0  0  0  0
 32 33  1  0  0  0  0
 33 41  1  0  0  0  0
 33 34  2  0  0  0  0
  8  9  1  0  0  0  0
  9 17  1  0  0  0  0
  9 10  2  0  0  0  0
 18 19  1  0  0  0  0
 19 31  1  0  0  0  0
 19 20  2  0  0  0  0
 32 35  1  0  0  0  0
  8 11  1  0  0  0  0
 41 42  1  0  0  0  0
 18 21  1  0  0  0  0
 31 32  1  0  0  0  0
  7  8  1  0  0  0  0
 17 18  1  0  0  0  0
  3  4  1  0  0  0  0
  3  5  1  0  0  0  0
  3  6  1  0  0  0  0
 35 38  1  0  0  0  0
 35 39  1  0  0  0  0
 35 40  1  0  0  0  0
 11 14  1  0  0  0  0
 11 15  1  0  0  0  0
 11 16  1  0  0  0  0
 42 44  1  0  0  0  0
 42 45  1  0  0  0  0
 42 46  1  0  0  0  0
 21 27  1  0  0  0  0
 21 28  1  0  0  0  0
 32 37  1  0  0  0  0
  8 13  1  0  0  0  0
 18 26  1  0  0  0  0
 24 29  1  0  0  0  0
 24 30  1  0  0  0  0
 41 43  1  0  0  0  0
  7 12  1  0  0  0  0
 31 36  1  0  0  0  0
 17 25  1  0  0  0  0
M  END
$$$$

  -OEChem-05262214473D

 46 45  0     1  0  0  0  0  0999 V2000
   -0.0543    1.9736    3.8406 C   0  0  0  0  0  0  0  0  0  0  0  0
    0.6744    1.6099    4.7562 O   0  0  0  0  0  0  0  0  0  0  0  0
   -0.5599    3.3779    3.8160 C   0  0  0  0  0  0  0  0  0  0  0  0
   -1.5202    3.4885    4.3450 H   0  0  0  0  0  0  0  0  0  0  0  0
    0.1282    4.0814    4.3116 H   0  0  0  0  0  0  0  0  0  0  0  0
   -0.7317    3.7994    2.8126 H   0  0  0  0  0  0  0  0  0  0  0  0
   -0.4812    1.1968    2.7762 N   0  0  0  0  0  0  0  0  0  0  0  0
   -0.1106   -0.1834    2.6051 C   0  0  2  0  0  0  0  0  0  0  0  0
   -0.0696   -0.4775    1.1113 C   0  0  0  0  0  0  0  0  0  0  0  0
   -0.6805    0.1900    0.2792 O   0  0  0  0  0  0  0  0  0  0  0  0
   -1.0852   -1.1101    3.3150 C   0  0  0  0  0  0  0  0  0  0  0  0
   -1.0883    1.6241    2.0791 H   0  0  0  0  0  0  0  0  0  0  0  0
    0.8937   -0.2959    3.0277 H   0  0  0  0  0  0  0  0  0  0  0  0
   -2.0970   -1.0114    2.9051 H   0  0  0  0  0  0  0  0  0  0  0  0
   -0.7860   -2.1580    3.2078 H   0  0  0  0  0  0  0  0  0  0  0  0
   -1.1357   -0.8775    4.3842 H   0  0  0  0  0  0  0  0  0  0  0  0
    0.6950   -1.6003    0.8178 N   0  0  0  0  0  0  0  0  0  0  0  0
    0.8777   -2.0908   -0.5246 C   0  0  2  0  0  0  0  0  0  0  0  0
    2.0441   -3.0706   -0.5010 C   0  0  0  0  0  0  0  0  0  0  0  0
    2.0326   -4.1431   -1.1020 O   0  0  0  0  0  0  0  0  0  0  0  0
    1.1471   -0.9566   -1.5136 C   0  0  0  0  0  0  0  0  0  0  0  0
   -0.0676   -0.0799   -1.7625 C   0  0  0  0  0  0  0  0  0  0  0  0
   -1.2076   -0.5100   -1.9109 O   0  0  0  0  0  0  0  0  0  0  0  0
    0.2538    1.2605   -1.7979 N   0  0  0  0  0  0  0  0  0  0  0  0
    1.1810   -2.0803    1.5718 H   0  0  0  0  0  0  0  0  0  0  0  0
   -0.0381   -2.6338   -0.7861 H   0  0  0  0  0  0  0  0  0  0  0  0
    1.9434   -0.3035   -1.1348 H   0  0  0  0  0  0  0  0  0  0  0  0
    1.4894   -1.3583   -2.4760 H   0  0  0  0  0  0  0  0  0  0  0  0
    1.2107    1.5711   -1.6664 H   0  0  0  0  0  0  0  0  0  0  0  0
   -0.4428    1.9819   -1.9547 H   0  0  0  0  0  0  0  0  0  0  0  0
    3.1209   -2.5867    0.2286 N   0  0  0  0  0  0  0  0  0  0  0  0
    4.3488   -3.3325    0.3678 C   0  0  2  0  0  0  0  0  0  0  0  0
    4.8938   -3.6058   -1.0278 C   0  0  0  0  0  0  0  0  0  0  0  0
    4.1900   -3.6013   -2.0356 O   0  0  0  0  0  0  0  0  0  0  0  0
    4.1246   -4.6305    1.1278 C   0  0  0  0  0  0  0  0  0  0  0  0
    3.0577   -1.6774    0.6769 H   0  0  0  0  0  0  0  0  0  0  0  0
    5.0483   -2.6907    0.9145 H   0  0  0  0  0  0  0  0  0  0  0  0
    3.4264   -5.2866    0.5953 H   0  0  0  0  0  0  0  0  0  0  0  0
    5.0621   -5.1813    1.2574 H   0  0  0  0  0  0  0  0  0  0  0  0
    3.7047   -4.4337    2.1201 H   0  0  0  0  0  0  0  0  0  0  0  0
    6.2505   -3.8980   -1.0102 N   0  0  0  0  0  0  0  0  0  0  0  0
    6.9973   -4.2056   -2.2076 C   0  0  0  0  0  0  0  0  0  0  0  0
    6.7584   -3.8602   -0.1314 H   0  0  0  0  0  0  0  0  0  0  0  0
    7.0073   -5.2943   -2.3646 H   0  0  0  0  0  0  0  0  0  0  0  0
    6.5239   -3.7151   -3.0709 H   0  0  0  0  0  0  0  0  0  0  0  0
    8.0296   -3.8413   -2.0994 H   0  0  0  0  0  0  0  0  0  0  0  0
  1  3  1  0  0  0  0
  1  7  1  0  0  0  0
  1  2  2  0  0  0  0
 21 22  1  0  0  0  0
 22 24  1  0  0  0  0
 22 23  2  0  0  0  0
 32 33  1  0  0  0  0
 33 41  1  0  0  0  0
 33 34  2  0  0  0  0
  8  9  1  0  0  0  0
  9 17  1  0  0  0  0
  9 10  2  0  0  0  0
 18 19  1  0  0  0  0
 19 31  1  0  0  0  0
 19 20  2  0  0  0  0
 32 35  1  0  0  0  0
  8 11  1  0  0  0  0
 41 42  1  0  0  0  0
 18 21  1  0  0  0  0
 31 32  1  0  0  0  0
  7  8  1  0  0  0  0
 17 18  1  0  0  0  0
  3  4  1  0  0  0  0
  3  5  1  0  0  0  0
  3  6  1  0  0  0  0
 35 38  1  0  0  0  0
 35 39  1  0  0  0  0
 35 40  1  0  0  0  0
 11 14  1  0  0  0  0
 11 15  1  0  0  0  0
 11 16  1  0  0  0  0
 42 44  1  0  0  0  0
 42 45  1  0  0  0  0
 42 46  1  0  0  0  0
 21 27  1  0  0  0  0
 21 28  1  0  0  0  0
 32 37  1  0  0  0  0
  8 13  1  0  0  0  0
 18 26  1  0  0  0  0
 24 29  1  0  0  0  0
 24 30  1  0  0  0  0
 41 43  1  0  0  0  0
  7 12  1  0  0  0  0
 31 36  1  0  0  0  0
 17 25  1  0  0  0  0
M  END
$$$$

  -OEChem-05262214473D

 46 45  0     1  0  0  0  0  0999 V2000
   -0.0543    1.9736    3.8406 C   0  0  0  0  0  0  0  0  0  0  0  0
    0.6744    1.6099    4.7562 O   0  0  0  0  0  0  0  0  0  0  0  0
   -0.5599    3.3779    3.8160 C   0  0  0  0  0  0  0  0  0  0  0  0
   -1.5202    3.4885    4.3450 H   0  0  0  0  0  0  0  0  0  0  0  0
    0.1282    4.0814    4.3116 H   0  0  0  0  0  0  0  0  0  0  0  0
   -0.7317    3.7994    2.8126 H   0  0  0  0  0  0  0  0  0  0  0  0
   -0.4812    1.1968    2.7762 N   0  0  0  0  0  0  0  0  0  0  0  0
   -0.1106   -0.1834    2.6051 C   0  0  2  0  0  0  0  0  0  0  0  0
   -0.0696   -0.4775    1.1113 C   0  0  0  0  0  0  0  0  0  0  0  0
   -0.6805    0.1900    0.2792 O   0  0  0  0  0  0  0  0  0  0  0  0
   -1.0852   -1.1101    3.3150 C   0  0  0  0  0  0  0  0  0  0  0  0
   -1.0883    1.6241    2.0791 H   0  0  0  0  0  0  0  0  0  0  0  0
    0.8937   -0.2959    3.0277 H   0  0  0  0  0  0  0  0  0  0  0  0
   -2.0970   -1.0114    2.9051 H   0  0  0  0  0  0  0  0  0  0  0  0
   -0.7860   -2.1580    3.2078 H   0  0  0  0  0  0  0  0  0  0  0  0
   -1.1357   -0.8775    4.3842 H   0  0  0  0  0  0  0  0  0  0  0  0
    0.6950   -1.6003    0.8178 N   0  0  0  0  0  0  0  0  0  0  0  0
    0.8777   -2.0908   -0.5246 C   0  0  2  0  0  0  0  0  0  0  0  0
    2.0441   -3.0706   -0.5010 C   0  0  0  0  0  0  0  0  0  0  0  0
    2.1549   -4.0022   -1.2956 O   0  0  0  0  0  0  0  0  0  0  0  0
    1.1471   -0.9566   -1.5136 C   0  0  0  0  0  0  0  0  0  0  0  0
   -0.0676   -0.0799   -1.7625 C   0  0  0  0  0  0  0  0  0  0  0  0
   -1.2076   -0.5100   -1.9109 O   0  0  0  0  0  0  0  0  0  0  0  0
    0.2538    1.2605   -1.7979 N   0  0  0  0  0  0  0  0  0  0  0  0
    1.1810   -2.0803    1.5718 H   0  0  0  0  0  0  0  0  0  0  0  0
   -0.0381   -2.6338   -0.7861 H   0  0  0  0  0  0  0  0  0  0  0  0
    1.9434   -0.3035   -1.1348 H   0  0  0  0  0  0  0  0  0  0  0  0
    1.4894   -1.3583   -2.4760 H   0  0  0  0  0  0  0  0  0  0  0  0
    1.2107    1.5711   -1.6664 H   0  0  0  0  0  0  0  0  0  0  0  0
   -0.4428    1.9819   -1.9547 H   0  0  0  0  0  0  0  0  0  0  0  0
    2.9745   -2.7550    0.4791 N   0  0  0  0  0  0  0  0  0  0  0  0
    4.1774   -3.5291    0.6710 C   0  0  2  0  0  0  0  0  0  0  0  0
    4.9522   -3.5270   -0.6402 C   0  0  0  0  0  0  0  0  0  0  0  0
    4.4255   -3.3135   -1.7302 O   0  0  0  0  0  0  0  0  0  0  0  0
    3.8573   -4.9493    1.1108 C   0  0  0  0  0  0  0  0  0  0  0  0
    2.8189   -1.9520    1.0814 H   0  0  0  0  0  0  0  0  0  0  0  0
    4.7630   -3.0176    1.4427 H   0  0  0  0  0  0  0  0  0  0  0  0
    3.2709   -5.4776    0.3502 H   0  0  0  0  0  0  0  0  0  0  0  0
    4.7714   -5.5268    1.2835 H   0  0  0  0  0  0  0  0  0  0  0  0
    3.2744   -4.9480    2.0382 H   0  0  0  0  0  0  0  0  0  0  0  0
    6.2929   -3.8342   -0.4547 N   0  0  0  0  0  0  0  0  0  0  0  0
    7.2344   -3.9075   -1.5475 C   0  0  0  0  0  0  0  0  0  0  0  0
    6.6470   -3.9780    0.4864 H   0  0  0  0  0  0  0  0  0  0  0  0
    7.2929   -4.9434   -1.9128 H   0  0  0  0  0  0  0  0  0  0  0  0
    6.9009   -3.2493   -2.3634 H   0  0  0  0  0  0  0  0  0  0  0  0
    8.2266   -3.5851   -1.1987 H   0  0  0  0  0  0  0  0  0  0  0  0
  1  3  1  0  0  0  0
  1  7  1  0  0  0  0
  1  2  2  0  0  0  0
 21 22  1  0  0  0  0
 22 24  1  0  0  0  0
 22 23  2  0  0  0  0
 32 33  1  0  0  0  0
 33 41  1  0  0  0  0
 33 34  2  0  0  0  0
  8  9  1  0  0  0  0
  9 17  1  0  0  0  0
  9 10  2  0  0  0  0
 18 19  1  0  0  0  0
 19 31  1  0  0  0  0
 19 20  2  0  0  0  0
 32 35  1  0  0  0  0
  8 11  1  0  0  0  0
 41 42  1  0  0  0  0
 18 21  1  0  0  0  0
 31 32  1  0  0  0  0
  7  8  1  0  0  0  0
 17 18  1  0  0  0  0
  3  4  1  0  0  0  0
  3  5  1  0  0  0  0
  3  6  1  0  0  0  0
 35 38  1  0  0  0  0
 35 39  1  0  0  0  0
 35 40  1  0  0  0  0
 11 14  1  0  0  0  0
 11 15  1  0  0  0  0
 11 16  1  0  0  0  0
 42 44  1  0  0  0  0
 42 45  1  0  0  0  0
 42 46  1  0  0  0  0
 21 27  1  0  0  0  0
 21 28  1  0  0  0  0
 32 37  1  0  0  0  0
  8 13  1  0  0  0  0
 18 26  1  0  0  0  0
 24 29  1  0  0  0  0
 24 30  1  0  0  0  0
 41 43  1  0  0  0  0
  7 12  1  0  0  0  0
 31 36  1  0  0  0  0
 17 25  1  0  0  0  0
M  END
$$$$

  -OEChem-05262214473D

 46 45  0     1  0  0  0  0  0999 V2000
   -0.0543    1.9736    3.8406 C   0  0  0  0  0  0  0  0  0  0  0  0
    0.6744    1.6099    4.7562 O   0  0  0  0  0  0  0  0  0  0  0  0
   -0.5599    3.3779    3.8160 C   0  0  0  0  0  0  0  0  0  0  0  0
   -1.5202    3.4885    4.3450 H   0  0  0  0  0  0  0  0  0  0  0  0
    0.1282    4.0814    4.3116 H   0  0  0  0  0  0  0  0  0  0  0  0
   -0.7317    3.7994    2.8126 H   0  0  0  0  0  0  0  0  0  0  0  0
   -0.4812    1.1968    2.7762 N   0  0  0  0  0  0  0  0  0  0  0  0
   -0.1106   -0.1834    2.6051 C   0  0  2  0  0  0  0  0  0  0  0  0
   -0.0696   -0.4775    1.1113 C   0  0  0  0  0  0  0  0  0  0  0  0
   -0.6805    0.1900    0.2792 O   0  0  0  0  0  0  0  0  0  0  0  0
   -1.0852   -1.1101    3.3150 C   0  0  0  0  0  0  0  0  0  0  0  0
   -1.0883    1.6241    2.0791 H   0  0  0  0  0  0  0  0  0  0  0  0
    0.8937   -0.2959    3.0277 H   0  0  0  0  0  0  0  0  0  0  0  0
   -2.0970   -1.0114    2.9051 H   0  0  0  0  0  0  0  0  0  0  0  0
   -0.7860   -2.1580    3.2078 H   0  0  0  0  0  0  0  0  0  0  0  0
   -1.1357   -0.8775    4.3842 H   0  0  0  0  0  0  0  0  0  0  0  0
    0.6950   -1.6003    0.8178 N   0  0  0  0  0  0  0  0  0  0  0  0
    0.8777   -2.0908   -0.5246 C   0  0  2  0  0  0  0  0  0  0  0  0
    2.0441   -3.0706   -0.5010 C   0  0  0  0  0  0  0  0  0  0  0  0
    2.3046   -3.8273   -1.4344 O   0  0  0  0  0  0  0  0  0  0  0  0
    1.1471   -0.9566   -1.5136 C   0  0  0  0  0  0  0  0  0  0  0  0
   -0.0676   -0.0799   -1.7625 C   0  0  0  0  0  0  0  0  0  0  0  0
   -1.2076   -0.5100   -1.9109 O   0  0  0  0  0  0  0  0  0  0  0  0
    0.2538    1.2605   -1.7979 N   0  0  0  0  0  0  0  0  0  0  0  0
    1.1810   -2.0803    1.5718 H   0  0  0  0  0  0  0  0  0  0  0  0
   -0.0381   -2.6338   -0.7861 H   0  0  0  0  0  0  0  0  0  0  0  0
    1.9434   -0.3035   -1.1348 H   0  0  0  0  0  0  0  0  0  0  0  0
    1.4894   -1.3583   -2.4760 H   0  0  0  0  0  0  0  0  0  0  0  0
    1.2107    1.5711   -1.6664 H   0  0  0  0  0  0  0  0  0  0  0  0
   -0.4428    1.9819   -1.9547 H   0  0  0  0  0  0  0  0  0  0  0  0
    2.7921   -2.9678    0.6634 N   0  0  0  0  0  0  0  0  0  0  0  0
    3.9623   -3.7799    0.8963 C   0  0  2  0  0  0  0  0  0  0  0  0
    4.9438   -3.5274   -0.2405 C   0  0  0  0  0  0  0  0  0  0  0  0
    4.6011   -3.0951   -1.3391 O   0  0  0  0  0  0  0  0  0  0  0  0
    3.6031   -5.2548    0.9868 C   0  0  0  0  0  0  0  0  0  0  0  0
    2.5220   -2.2984    1.3781 H   0  0  0  0  0  0  0  0  0  0  0  0
    4.4008   -3.4393    1.8406 H   0  0  0  0  0  0  0  0  0  0  0  0
    3.1622   -5.6142    0.0498 H   0  0  0  0  0  0  0  0  0  0  0  0
    4.4877   -5.8668    1.1919 H   0  0  0  0  0  0  0  0  0  0  0  0
    2.8744   -5.4302    1.7856 H   0  0  0  0  0  0  0  0  0  0  0  0
    6.2411   -3.8824    0.1016 N   0  0  0  0  0  0  0  0  0  0  0  0
    7.3523   -3.7494   -0.8114 C   0  0  0  0  0  0  0  0  0  0  0  0
    6.4369   -4.2147    1.0412 H   0  0  0  0  0  0  0  0  0  0  0  0
    7.4923   -4.6928   -1.3594 H   0  0  0  0  0  0  0  0  0  0  0  0
    7.1453   -2.9382   -1.5249 H   0  0  0  0  0  0  0  0  0  0  0  0
    8.2659   -3.5154   -0.2452 H   0  0  0  0  0  0  0  0  0  0  0  0
  1  3  1  0  0  0  0
  1  7  1  0  0  0  0
  1  2  2  0  0  0  0
 21 22  1  0  0  0  0
 22 24  1  0  0  0  0
 22 23  2  0  0  0  0
 32 33  1  0  0  0  0
 33 41  1  0  0  0  0
 33 34  2  0  0  0  0
  8  9  1  0  0  0  0
  9 17  1  0  0  0  0
  9 10  2  0  0  0  0
 18 19  1  0  0  0  0
 19 31  1  0  0  0  0
 19 20  2  0  0  0  0
 32 35  1  0  0  0  0
  8 11  1  0  0  0  0
 41 42  1  0  0  0  0
 18 21  1  0  0  0  0
 31 32  1  0  0  0  0
  7  8  1  0  0  0  0
 17 18  1  0  0  0  0
  3  4  1  0  0  0  0
  3  5  1  0  0  0  0
  3  6  1  0  0  0  0
 35 38  1  0  0  0  0
 35 39  1  0  0  0  0
 35 40  1  0  0  0  0
 11 14  1  0  0  0  0
 11 15  1  0  0  0  0
 11 16  1  0  0  0  0
 42 44  1  0  0  0  0
 42 45  1  0  0  0  0
 42 46  1  0  0  0  0
 21 27  1  0  0  0  0
 21 28  1  0  0  0  0
 32 37  1  0  0  0  0
  8 13  1  0  0  0  0
 18 26  1  0  0  0  0
 24 29  1  0  0  0  0
 24 30  1  0  0  0  0
 41 43  1  0  0  0  0
  7 12  1  0  0  0  0
 31 36  1  0  0  0  0
 17 25  1  0  0  0  0
M  END
$$$$

  -OEChem-05262214473D

 46 45  0     1  0  0  0  0  0999 V2000
   -0.0543    1.9736    3.8406 C   0  0  0  0  0  0  0  0  0  0  0  0
    0.6744    1.6099    4.7562 O   0  0  0  0  0  0  0  0  0  0  0  0
   -0.5599    3.3779    3.8160 C   0  0  0  0  0  0  0  0  0  0  0  0
   -1.5202    3.4885    4.3450 H   0  0  0  0  0  0  0  0  0  0  0  0
    0.1282    4.0814    4.3116 H   0  0  0  0  0  0  0  0  0  0  0  0
   -0.7317    3.7994    2.8126 H   0  0  0  0  0  0  0  0  0  0  0  0
   -0.4812    1.1968    2.7762 N   0  0  0  0  0  0  0  0  0  0  0  0
   -0.1106   -0.1834    2.6051 C   0  0  2  0  0  0  0  0  0  0  0  0
   -0.0696   -0.4775    1.1113 C   0  0  0  0  0  0  0  0  0  0  0  0
   -0.6805    0.1900    0.2792 O   0  0  0  0  0  0  0  0  0  0  0  0
   -1.0852   -1.1101    3.3150 C   0  0  0  0  0  0  0  0  0  0  0  0
   -1.0883    1.6241    2.0791 H   0  0  0  0  0  0  0  0  0  0  0  0
    0.8937   -0.2959    3.0277 H   0  0  0  0  0  0  0  0  0  0  0  0
   -2.0970   -1.0114    2.9051 H   0  0  0  0  0  0  0  0  0  0  0  0
   -0.7860   -2.1580    3.2078 H   0  0  0  0  0  0  0  0  0  0  0  0
   -1.1357   -0.8775    4.3842 H   0  0  0  0  0  0  0  0  0  0  0  0
    0.6950   -1.6003    0.8178 N   0  0  0  0  0  0  0  0  0  0  0  0
    0.8777   -2.0908   -0.5246 C   0  0  2  0  0  0  0  0  0  0  0  0
    2.0441   -3.0706   -0.5010 C   0  0  0  0  0  0  0  0  0  0  0  0
    2.4716   -3.6302   -1.5088 O   0  0  0  0  0  0  0  0  0  0  0  0
    1.1471   -0.9566   -1.5136 C   0  0  0  0  0  0  0  0  0  0  0  0
   -0.0676   -0.0799   -1.7625 C   0  0  0  0  0  0  0  0  0  0  0  0
   -1.2076   -0.5100   -1.9109 O   0  0  0  0  0  0  0  0  0  0  0  0
    0.2538    1.2605   -1.7979 N   0  0  0  0  0  0  0  0  0  0  0  0
    1.1810   -2.0803    1.5718 H   0  0  0  0  0  0  0  0  0  0  0  0
   -0.0381   -2.6338   -0.7861 H   0  0  0  0  0  0  0  0  0  0  0  0
    1.9434   -0.3035   -1.1348 H   0  0  0  0  0  0  0  0  0  0  0  0
    1.4894   -1.3583   -2.4760 H   0  0  0  0  0  0  0  0  0  0  0  0
    1.2107    1.5711   -1.6664 H   0  0  0  0  0  0  0  0  0  0  0  0
   -0.4428    1.9819   -1.9547 H   0  0  0  0  0  0  0  0  0  0  0  0
    2.5861   -3.2105    0.7689 N   0  0  0  0  0  0  0  0  0  0  0  0
    3.7179   -4.0676    1.0284 C   0  0  2  0  0  0  0  0  0  0  0  0
    4.8691   -3.6071    0.1440 C   0  0  0  0  0  0  0  0  0  0  0  0
    4.7047   -2.9610   -0.8887 O   0  0  0  0  0  0  0  0  0  0  0  0
    3.3794   -5.5265    0.7642 C   0  0  0  0  0  0  0  0  0  0  0  0
    2.1872   -2.6929    1.5466 H   0  0  0  0  0  0  0  0  0  0  0  0
    3.9864   -3.9268    2.0811 H   0  0  0  0  0  0  0  0  0  0  0  0
    3.1078   -5.6870   -0.2856 H   0  0  0  0  0  0  0  0  0  0  0  0
    4.2302   -6.1782    0.9888 H   0  0  0  0  0  0  0  0  0  0  0  0
    2.5320   -5.8476    1.3795 H   0  0  0  0  0  0  0  0  0  0  0  0
    6.0988   -4.0394    0.6207 N   0  0  0  0  0  0  0  0  0  0  0  0
    7.3431   -3.7420   -0.0494 C   0  0  0  0  0  0  0  0  0  0  0  0
    6.1427   -4.5542    1.4953 H   0  0  0  0  0  0  0  0  0  0  0  0
    7.5917   -4.5596   -0.7421 H   0  0  0  0  0  0  0  0  0  0  0  0
    7.2407   -2.8028   -0.6127 H   0  0  0  0  0  0  0  0  0  0  0  0
    8.1450   -3.6368    0.6962 H   0  0  0  0  0  0  0  0  0  0  0  0
  1  3  1  0  0  0  0
  1  7  1  0  0  0  0
  1  2  2  0  0  0  0
 21 22  1  0  0  0  0
 22 24  1  0  0  0  0
 22 23  2  0  0  0  0
 32 33  1  0  0  0  0
 33 41  1  0  0  0  0
 33 34  2  0  0  0  0
  8  9  1  0  0  0  0
  9 17  1  0  0  0  0
  9 10  2  0  0  0  0
 18 19  1  0  0  0  0
 19 31  1  0  0  0  0
 19 20  2  0  0  0  0
 32 35  1  0  0  0  0
  8 11  1  0  0  0  0
 41 42  1  0  0  0  0
 18 21  1  0  0  0  0
 31 32  1  0  0  0  0
  7  8  1  0  0  0  0
 17 18  1  0  0  0  0
  3  4  1  0  0  0  0
  3  5  1  0  0  0  0
  3  6  1  0  0  0  0
 35 38  1  0  0  0  0
 35 39  1  0  0  0  0
 35 40  1  0  0  0  0
 11 14  1  0  0  0  0
 11 15  1  0  0  0  0
 11 16  1  0  0  0  0
 42 44  1  0  0  0  0
 42 45  1  0  0  0  0
 42 46  1  0  0  0  0
 21 27  1  0  0  0  0
 21 28  1  0  0  0  0
 32 37  1  0  0  0  0
  8 13  1  0  0  0  0
 18 26  1  0  0  0  0
 24 29  1  0  0  0  0
 24 30  1  0  0  0  0
 41 43  1  0  0  0  0
  7 12  1  0  0  0  0
 31 36  1  0  0  0  0
 17 25  1  0  0  0  0
M  END
$$$$

  -OEChem-05262214473D

 46 45  0     1  0  0  0  0  0999 V2000
   -0.0543    1.9736    3.8406 C   0  0  0  0  0  0  0  0  0  0  0  0
    0.6744    1.6099    4.7562 O   0  0  0  0  0  0  0  0  0  0  0  0
   -0.5599    3.3779    3.8160 C   0  0  0  0  0  0  0  0  0  0  0  0
   -1.5202    3.4885    4.3450 H   0  0  0  0  0  0  0  0  0  0  0  0
    0.1282    4.0814    4.3116 H   0  0  0  0  0  0  0  0  0  0  0  0
   -0.7317    3.7994    2.8126 H   0  0  0  0  0  0  0  0  0  0  0  0
   -0.4812    1.1968    2.7762 N   0  0  0  0  0  0  0  0  0  0  0  0
   -0.1106   -0.1834    2.6051 C   0  0  2  0  0  0  0  0  0  0  0  0
   -0.0696   -0.4775    1.1113 C   0  0  0  0  0  0  0  0  0  0  0  0
   -0.6805    0.1900    0.2792 O   0  0  0  0  0  0  0  0  0  0  0  0
   -1.0852   -1.1101    3.3150 C   0  0  0  0  0  0  0  0  0  0  0  0
   -1.0883    1.6241    2.0791 H   0  0  0  0  0  0  0  0  0  0  0  0
    0.8937   -0.2959    3.0277 H   0  0  0  0  0  0  0  0  0  0  0  0
   -2.0970   -1.0114    2.9051 H   0  0  0  0  0  0  0  0  0  0  0  0
   -0.7860   -2.1580    3.2078 H   0  0  0  0  0  0  0  0  0  0  0  0
   -1.1357   -0.8775    4.3842 H   0  0  0  0  0  0  0  0  0  0  0  0
    0.6950   -1.6003    0.8178 N   0  0  0  0  0  0  0  0  0  0  0  0
    0.8777   -2.0908   -0.5246 C   0  0  2  0  0  0  0  0  0  0  0  0
    2.0441   -3.0706   -0.5010 C   0  0  0  0  0  0  0  0  0  0  0  0
    2.6446   -3.4245   -1.5138 O   0  0  0  0  0  0  0  0  0  0  0  0
    1.1471   -0.9566   -1.5136 C   0  0  0  0  0  0  0  0  0  0  0  0
   -0.0676   -0.0799   -1.7625 C   0  0  0  0  0  0  0  0  0  0  0  0
   -1.2076   -0.5100   -1.9109 O   0  0  0  0  0  0  0  0  0  0  0  0
    0.2538    1.2605   -1.7979 N   0  0  0  0  0  0  0  0  0  0  0  0
    1.1810   -2.0803    1.5718 H   0  0  0  0  0  0  0  0  0  0  0  0
   -0.0381   -2.6338   -0.7861 H   0  0  0  0  0  0  0  0  0  0  0  0
    1.9434   -0.3035   -1.1348 H   0  0  0  0  0  0  0  0  0  0  0  0
    1.4894   -1.3583   -2.4760 H   0  0  0  0  0  0  0  0  0  0  0  0
    1.2107    1.5711   -1.6664 H   0  0  0  0  0  0  0  0  0  0  0  0
   -0.4428    1.9819   -1.9547 H   0  0  0  0  0  0  0  0  0  0  0  0
    2.3705   -3.4667    0.7884 N   0  0  0  0  0  0  0  0  0  0  0  0
    3.4611   -4.3727    1.0584 C   0  0  2  0  0  0  0  0  0  0  0  0
    4.7333   -3.7605    0.4873 C   0  0  0  0  0  0  0  0  0  0  0  0
    4.7293   -2.9202   -0.4099 O   0  0  0  0  0  0  0  0  0  0  0  0
    3.2015   -5.7456    0.4581 C   0  0  0  0  0  0  0  0  0  0  0  0
    1.8373   -3.1088    1.5754 H   0  0  0  0  0  0  0  0  0  0  0  0
    3.5480   -4.4471    2.1478 H   0  0  0  0  0  0  0  0  0  0  0  0
    3.1114   -5.6911   -0.6330 H   0  0  0  0  0  0  0  0  0  0  0  0
    4.0165   -6.4397    0.6881 H   0  0  0  0  0  0  0  0  0  0  0  0
    2.2706   -6.1716    0.8475 H   0  0  0  0  0  0  0  0  0  0  0  0
    5.8754   -4.2946    1.0674 N   0  0  0  0  0  0  0  0  0  0  0  0
    7.2073   -3.8860    0.6865 C   0  0  0  0  0  0  0  0  0  0  0  0
    5.7842   -4.9732    1.8177 H   0  0  0  0  0  0  0  0  0  0  0  0
    7.5844   -4.5529   -0.1028 H   0  0  0  0  0  0  0  0  0  0  0  0
    7.1804   -2.8524    0.3111 H   0  0  0  0  0  0  0  0  0  0  0  0
    7.8719   -3.9411    1.5614 H   0  0  0  0  0  0  0  0  0  0  0  0
  1  3  1  0  0  0  0
  1  7  1  0  0  0  0
  1  2  2  0  0  0  0
 21 22  1  0  0  0  0
 22 24  1  0  0  0  0
 22 23  2  0  0  0  0
 32 33  1  0  0  0  0
 33 41  1  0  0  0  0
 33 34  2  0  0  0  0
  8  9  1  0  0  0  0
  9 17  1  0  0  0  0
  9 10  2  0  0  0  0
 18 19  1  0  0  0  0
 19 31  1  0  0  0  0
 19 20  2  0  0  0  0
 32 35  1  0  0  0  0
  8 11  1  0  0  0  0
 41 42  1  0  0  0  0
 18 21  1  0  0  0  0
 31 32  1  0  0  0  0
  7  8  1  0  0  0  0
 17 18  1  0  0  0  0
  3  4  1  0  0  0  0
  3  5  1  0  0  0  0
  3  6  1  0  0  0  0
 35 38  1  0  0  0  0
 35 39  1  0  0  0  0
 35 40  1  0  0  0  0
 11 14  1  0  0  0  0
 11 15  1  0  0  0  0
 11 16  1  0  0  0  0
 42 44  1  0  0  0  0
 42 45  1  0  0  0  0
 42 46  1  0  0  0  0
 21 27  1  0  0  0  0
 21 28  1  0  0  0  0
 32 37  1  0  0  0  0
  8 13  1  0  0  0  0
 18 26  1  0  0  0  0
 24 29  1  0  0  0  0
 24 30  1  0  0  0  0
 41 43  1  0  0  0  0
  7 12  1  0  0  0  0
 31 36  1  0  0  0  0
 17 25  1  0  0  0  0
M  END
$$$$

  -OEChem-05262214473D

 46 45  0     1  0  0  0  0  0999 V2000
   -0.0543    1.9736    3.8406 C   0  0  0  0  0  0  0  0  0  0  0  0
    0.6744    1.6099    4.7562 O   0  0  0  0  0  0  0  0  0  0  0  0
   -0.5599    3.3779    3.8160 C   0  0  0  0  0  0  0  0  0  0  0  0
   -1.5202    3.4885    4.3450 H   0  0  0  0  0  0  0  0  0  0  0  0
    0.1282    4.0814    4.3116 H   0  0  0  0  0  0  0  0  0  0  0  0
   -0.7317    3.7994    2.8126 H   0  0  0  0  0  0  0  0  0  0  0  0
   -0.4812    1.1968    2.7762 N   0  0  0  0  0  0  0  0  0  0  0  0
   -0.1106   -0.1834    2.6051 C   0  0  2  0  0  0  0  0  0  0  0  0
   -0.0696   -0.4775    1.1113 C   0  0  0  0  0  0  0  0  0  0  0  0
   -0.6805    0.1900    0.2792 O   0  0  0  0  0  0  0  0  0  0  0  0
   -1.0852   -1.1101    3.3150 C   0  0  0  0  0  0  0  0  0  0  0  0
   -1.0883    1.6241    2.0791 H   0  0  0  0  0  0  0  0  0  0  0  0
    0.8937   -0.2959    3.0277 H   0  0  0  0  0  0  0  0  0  0  0  0
   -2.0970   -1.0114    2.9051 H   0  0  0  0  0  0  0  0  0  0  0  0
   -0.7860   -2.1580    3.2078 H   0  0  0  0  0  0  0  0  0  0  0  0
   -1.1357   -0.8775    4.3842 H   0  0  0  0  0  0  0  0  0  0  0  0
    0.6950   -1.6003    0.8178 N   0  0  0  0  0  0  0  0  0  0  0  0
    0.8777   -2.0908   -0.5246 C   0  0  2  0  0  0  0  0  0  0  0  0
    2.0441   -3.0706   -0.5010 C   0  0  0  0  0  0  0  0  0  0  0  0
    2.8116   -3.2241   -1.4491 O   0  0  0  0  0  0  0  0  0  0  0  0
    1.1471   -0.9566   -1.5136 C   0  0  0  0  0  0  0  0  0  0  0  0
   -0.0676   -0.0799   -1.7625 C   0  0  0  0  0  0  0  0  0  0  0  0
   -1.2076   -0.5100   -1.9109 O   0  0  0  0  0  0  0  0  0  0  0  0
    0.2538    1.2605   -1.7979 N   0  0  0  0  0  0  0  0  0  0  0  0
    1.1810   -2.0803    1.5718 H   0  0  0  0  0  0  0  0  0  0  0  0
   -0.0381   -2.6338   -0.7861 H   0  0  0  0  0  0  0  0  0  0  0  0
    1.9434   -0.3035   -1.1348 H   0  0  0  0  0  0  0  0  0  0  0  0
    1.4894   -1.3583   -2.4760 H   0  0  0  0  0  0  0  0  0  0  0  0
    1.2107    1.5711   -1.6664 H   0  0  0  0  0  0  0  0  0  0  0  0
   -0.4428    1.9819   -1.9547 H   0  0  0  0  0  0  0  0  0  0  0  0
    2.1600   -3.7189    0.7205 N   0  0  0  0  0  0  0  0  0  0  0  0
    3.2092   -4.6743    0.9841 C   0  0  2  0  0  0  0  0  0  0  0  0
    4.5456   -3.9773    0.7659 C   0  0  0  0  0  0  0  0  0  0  0  0
    4.6731   -2.9756    0.0648 O   0  0  0  0  0  0  0  0  0  0  0  0
    3.0815   -5.8973    0.0893 C   0  0  0  0  0  0  0  0  0  0  0  0
    1.4962   -3.5175    1.4626 H   0  0  0  0  0  0  0  0  0  0  0  0
    3.1156   -4.9646    2.0362 H   0  0  0  0  0  0  0  0  0  0  0  0
    3.1727   -5.6262   -0.9688 H   0  0  0  0  0  0  0  0  0  0  0  0
    3.8613   -6.6337    0.3102 H   0  0  0  0  0  0  0  0  0  0  0  0
    2.1079   -6.3802    0.2259 H   0  0  0  0  0  0  0  0  0  0  0  0
    5.5864   -4.6304    1.4111 N   0  0  0  0  0  0  0  0  0  0  0  0
    6.9543   -4.1714    1.3463 C   0  0  0  0  0  0  0  0  0  0  0  0
    5.3860   -5.4432    1.9864 H   0  0  0  0  0  0  0  0  0  0  0  0
    7.4709   -4.6732    0.5148 H   0  0  0  0  0  0  0  0  0  0  0  0
    6.9686   -3.0836    1.1836 H   0  0  0  0  0  0  0  0  0  0  0  0
    7.4653   -4.4076    2.2913 H   0  0  0  0  0  0  0  0  0  0  0  0
  1  3  1  0  0  0  0
  1  7  1  0  0  0  0
  1  2  2  0  0  0  0
 21 22  1  0  0  0  0
 22 24  1  0  0  0  0
 22 23  2  0  0  0  0
 32 33  1  0  0  0  0
 33 41  1  0  0  0  0
 33 34  2  0  0  0  0
  8  9  1  0  0  0  0
  9 17  1  0  0  0  0
  9 10  2  0  0  0  0
 18 19  1  0  0  0  0
 19 31  1  0  0  0  0
 19 20  2  0  0  0  0
 32 35  1  0  0  0  0
  8 11  1  0  0  0  0
 41 42  1  0  0  0  0
 18 21  1  0  0  0  0
 31 32  1  0  0  0  0
  7  8  1  0  0  0  0
 17 18  1  0  0  0  0
  3  4  1  0  0  0  0
  3  5  1  0  0  0  0
  3  6  1  0  0  0  0
 35 38  1  0  0  0  0
 35 39  1  0  0  0  0
 35 40  1  0  0  0  0
 11 14  1  0  0  0  0
 11 15  1  0  0  0  0
 11 16  1  0  0  0  0
 42 44  1  0  0  0  0
 42 45  1  0  0  0  0
 42 46  1  0  0  0  0
 21 27  1  0  0  0  0
 21 28  1  0  0  0  0
 32 37  1  0  0  0  0
  8 13  1  0  0  0  0
 18 26  1  0  0  0  0
 24 29  1  0  0  0  0
 24 30  1  0  0  0  0
 41 43  1  0  0  0  0
  7 12  1  0  0  0  0
 31 36  1  0  0  0  0
 17 25  1  0  0  0  0
M  END
$$$$

  -OEChem-05262214473D

 46 45  0     1  0  0  0  0  0999 V2000
   -0.0543    1.9736    3.8406 C   0  0  0  0  0  0  0  0  0  0  0  0
    0.6744    1.6099    4.7562 O   0  0  0  0  0  0  0  0  0  0  0  0
   -0.5599    3.3779    3.8160 C   0  0  0  0  0  0  0  0  0  0  0  0
   -1.5202    3.4885    4.3450 H   0  0  0  0  0  0  0  0  0  0  0  0
    0.1282    4.0814    4.3116 H   0  0  0  0  0  0  0  0  0  0  0  0
   -0.7317    3.7994    2.8126 H   0  0  0  0  0  0  0  0  0  0  0  0
   -0.4812    1.1968    2.7762 N   0  0  0  0  0  0  0  0  0  0  0  0
   -0.1106   -0.1834    2.6051 C   0  0  2  0  0  0  0  0  0  0  0  0
   -0.0696   -0.4775    1.1113 C   0  0  0  0  0  0  0  0  0  0  0  0
   -0.6805    0.1900    0.2792 O   0  0  0  0  0  0  0  0  0  0  0  0
   -1.0852   -1.1101    3.3150 C   0  0  0  0  0  0  0  0  0  0  0  0
   -1.0883    1.6241    2.0791 H   0  0  0  0  0  0  0  0  0  0  0  0
    0.8937   -0.2959    3.0277 H   0  0  0  0  0  0  0  0  0  0  0  0
   -2.0970   -1.0114    2.9051 H   0  0  0  0  0  0  0  0  0  0  0  0
   -0.7860   -2.1580    3.2078 H   0  0  0  0  0  0  0  0  0  0  0  0
   -1.1357   -0.8775    4.3842 H   0  0  0  0  0  0  0  0  0  0  0  0
    0.6950   -1.6003    0.8178 N   0  0  0  0  0  0  0  0  0  0  0  0
    0.8777   -2.0908   -0.5246 C   0  0  2  0  0  0  0  0  0  0  0  0
    2.0441   -3.0706   -0.5010 C   0  0  0  0  0  0  0  0  0  0  0  0
    2.9614   -3.0426   -1.3191 O   0  0  0  0  0  0  0  0  0  0  0  0
    1.1471   -0.9566   -1.5136 C   0  0  0  0  0  0  0  0  0  0  0  0
   -0.0676   -0.0799   -1.7625 C   0  0  0  0  0  0  0  0  0  0  0  0
   -1.2076   -0.5100   -1.9109 O   0  0  0  0  0  0  0  0  0  0  0  0
    0.2538    1.2605   -1.7979 N   0  0  0  0  0  0  0  0  0  0  0  0
    1.1810   -2.0803    1.5718 H   0  0  0  0  0  0  0  0  0  0  0  0
   -0.0381   -2.6338   -0.7861 H   0  0  0  0  0  0  0  0  0  0  0  0
    1.9434   -0.3035   -1.1348 H   0  0  0  0  0  0  0  0  0  0  0  0
    1.4894   -1.3583   -2.4760 H   0  0  0  0  0  0  0  0  0  0  0  0
    1.2107    1.5711   -1.6664 H   0  0  0  0  0  0  0  0  0  0  0  0
   -0.4428    1.9819   -1.9547 H   0  0  0  0  0  0  0  0  0  0  0  0
    1.9690   -3.9499    0.5700 N   0  0  0  0  0  0  0  0  0  0  0  0
    2.9795   -4.9519    0.8107 C   0  0  2  0  0  0  0  0  0  0  0  0
    4.3188   -4.2426    0.9607 C   0  0  0  0  0  0  0  0  0  0  0  0
    4.5401   -3.1234    0.5030 O   0  0  0  0  0  0  0  0  0  0  0  0
    3.0276   -5.9713   -0.3169 C   0  0  0  0  0  0  0  0  0  0  0  0
    1.1872   -3.8914    1.2159 H   0  0  0  0  0  0  0  0  0  0  0  0
    2.7185   -5.4441    1.7539 H   0  0  0  0  0  0  0  0  0  0  0  0
    3.2876   -5.4967   -1.2701 H   0  0  0  0  0  0  0  0  0  0  0  0
    3.7750   -6.7467   -0.1191 H   0  0  0  0  0  0  0  0  0  0  0  0
    2.0550   -6.4592   -0.4429 H   0  0  0  0  0  0  0  0  0  0  0  0
    5.2513   -5.0241    1.6285 N   0  0  0  0  0  0  0  0  0  0  0  0
    6.6012   -4.5789    1.8849 C   0  0  0  0  0  0  0  0  0  0  0  0
    4.9751   -5.9323    1.9899 H   0  0  0  0  0  0  0  0  0  0  0  0
    7.2590   -4.9121    1.0687 H   0  0  0  0  0  0  0  0  0  0  0  0
    6.6197   -3.4807    1.9453 H   0  0  0  0  0  0  0  0  0  0  0  0
    6.9530   -5.0044    2.8362 H   0  0  0  0  0  0  0  0  0  0  0  0
  1  3  1  0  0  0  0
  1  7  1  0  0  0  0
  1  2  2  0  0  0  0
 21 22  1  0  0  0  0
 22 24  1  0  0  0  0
 22 23  2  0  0  0  0
 32 33  1  0  0  0  0
 33 41  1  0  0  0  0
 33 34  2  0  0  0  0
  8  9  1  0  0  0  0
  9 17  1  0  0  0  0
  9 10  2  0  0  0  0
 18 19  1  0  0  0  0
 19 31  1  0  0  0  0
 19 20  2  0  0  0  0
 32 35  1  0  0  0  0
  8 11  1  0  0  0  0
 41 42  1  0  0  0  0
 18 21  1  0  0  0  0
 31 32  1  0  0  0  0
  7  8  1  0  0  0  0
 17 18  1  0  0  0  0
  3  4  1  0  0  0  0
  3  5  1  0  0  0  0
  3  6  1  0  0  0  0
 35 38  1  0  0  0  0
 35 39  1  0  0  0  0
 35 40  1  0  0  0  0
 11 14  1  0  0  0  0
 11 15  1  0  0  0  0
 11 16  1  0  0  0  0
 42 44  1  0  0  0  0
 42 45  1  0  0  0  0
 42 46  1  0  0  0  0
 21 27  1  0  0  0  0
 21 28  1  0  0  0  0
 32 37  1  0  0  0  0
  8 13  1  0  0  0  0
 18 26  1  0  0  0  0
 24 29  1  0  0  0  0
 24 30  1  0  0  0  0
 41 43  1  0  0  0  0
  7 12  1  0  0  0  0
 31 36  1  0  0  0  0
 17 25  1  0  0  0  0
M  END
$$$$

  -OEChem-05262214473D

 46 45  0     1  0  0  0  0  0999 V2000
   -0.0543    1.9736    3.8406 C   0  0  0  0  0  0  0  0  0  0  0  0
    0.6744    1.6099    4.7562 O   0  0  0  0  0  0  0  0  0  0  0  0
   -0.5599    3.3779    3.8160 C   0  0  0  0  0  0  0  0  0  0  0  0
   -1.5202    3.4885    4.3450 H   0  0  0  0  0  0  0  0  0  0  0  0
    0.1282    4.0814    4.3116 H   0  0  0  0  0  0  0  0  0  0  0  0
   -0.7317    3.7994    2.8126 H   0  0  0  0  0  0  0  0  0  0  0  0
   -0.4812    1.1968    2.7762 N   0  0  0  0  0  0  0  0  0  0  0  0
   -0.1106   -0.1834    2.6051 C   0  0  2  0  0  0  0  0  0  0  0  0
   -0.0696   -0.4775    1.1113 C   0  0  0  0  0  0  0  0  0  0  0  0
   -0.6805    0.1900    0.2792 O   0  0  0  0  0  0  0  0  0  0  0  0
   -1.0852   -1.1101    3.3150 C   0  0  0  0  0  0  0  0  0  0  0  0
   -1.0883    1.6241    2.0791 H   0  0  0  0  0  0  0  0  0  0  0  0
    0.8937   -0.2959    3.0277 H   0  0  0  0  0  0  0  0  0  0  0  0
   -2.0970   -1.0114    2.9051 H   0  0  0  0  0  0  0  0  0  0  0  0
   -0.7860   -2.1580    3.2078 H   0  0  0  0  0  0  0  0  0  0  0  0
   -1.1357   -0.8775    4.3842 H   0  0  0  0  0  0  0  0  0  0  0  0
    0.6950   -1.6003    0.8178 N   0  0  0  0  0  0  0  0  0  0  0  0
    0.8777   -2.0908   -0.5246 C   0  0  2  0  0  0  0  0  0  0  0  0
    2.0441   -3.0706   -0.5010 C   0  0  0  0  0  0  0  0  0  0  0  0
    3.0837   -2.8925   -1.1327 O   0  0  0  0  0  0  0  0  0  0  0  0
    1.1471   -0.9566   -1.5136 C   0  0  0  0  0  0  0  0  0  0  0  0
   -0.0676   -0.0799   -1.7625 C   0  0  0  0  0  0  0  0  0  0  0  0
   -1.2076   -0.5100   -1.9109 O   0  0  0  0  0  0  0  0  0  0  0  0
    0.2538    1.2605   -1.7979 N   0  0  0  0  0  0  0  0  0  0  0  0
    1.1810   -2.0803    1.5718 H   0  0  0  0  0  0  0  0  0  0  0  0
   -0.0381   -2.6338   -0.7861 H   0  0  0  0  0  0  0  0  0  0  0  0
    1.9434   -0.3035   -1.1348 H   0  0  0  0  0  0  0  0  0  0  0  0
    1.4894   -1.3583   -2.4760 H   0  0  0  0  0  0  0  0  0  0  0  0
    1.2107    1.5711   -1.6664 H   0  0  0  0  0  0  0  0  0  0  0  0
   -0.4428    1.9819   -1.9547 H   0  0  0  0  0  0  0  0  0  0  0  0
    1.8105   -4.1440    0.3470 N   0  0  0  0  0  0  0  0  0  0  0  0
    2.7876   -5.1867    0.5499 C   0  0  2  0  0  0  0  0  0  0  0  0
    4.0684   -4.5384    1.0586 C   0  0  0  0  0  0  0  0  0  0  0  0
    4.3393   -3.3536    0.8748 O   0  0  0  0  0  0  0  0  0  0  0  0
    3.0434   -5.9624   -0.7328 C   0  0  0  0  0  0  0  0  0  0  0  0
    0.9312   -4.2048    0.8521 H   0  0  0  0  0  0  0  0  0  0  0  0
    2.3839   -5.8529    1.3201 H   0  0  0  0  0  0  0  0  0  0  0  0
    3.4481   -5.3114   -1.5163 H   0  0  0  0  0  0  0  0  0  0  0  0
    3.7635   -6.7712   -0.5705 H   0  0  0  0  0  0  0  0  0  0  0  0
    2.1156   -6.4032   -1.1134 H   0  0  0  0  0  0  0  0  0  0  0  0
    4.8931   -5.4487    1.7046 N   0  0  0  0  0  0  0  0  0  0  0  0
    6.1721   -5.0806    2.2656 C   0  0  0  0  0  0  0  0  0  0  0  0
    4.5796   -6.4070    1.8280 H   0  0  0  0  0  0  0  0  0  0  0  0
    6.9631   -5.2536    1.5210 H   0  0  0  0  0  0  0  0  0  0  0  0
    6.1575   -4.0166    2.5443 H   0  0  0  0  0  0  0  0  0  0  0  0
    6.3698   -5.6910    3.1591 H   0  0  0  0  0  0  0  0  0  0  0  0
  1  3  1  0  0  0  0
  1  7  1  0  0  0  0
  1  2  2  0  0  0  0
 21 22  1  0  0  0  0
 22 24  1  0  0  0  0
 22 23  2  0  0  0  0
 32 33  1  0  0  0  0
 33 41  1  0  0  0  0
 33 34  2  0  0  0  0
  8  9  1  0  0  0  0
  9 17  1  0  0  0  0
  9 10  2  0  0  0  0
 18 19  1  0  0  0  0
 19 31  1  0  0  0  0
 19 20  2  0  0  0  0
 32 35  1  0  0  0  0
  8 11  1  0  0  0  0
 41 42  1  0  0  0  0
 18 21  1  0  0  0  0
 31 32  1  0  0  0  0
  7  8  1  0  0  0  0
 17 18  1  0  0  0  0
  3  4  1  0  0  0  0
  3  5  1  0  0  0  0
  3  6  1  0  0  0  0
 35 38  1  0  0  0  0
 35 39  1  0  0  0  0
 35 40  1  0  0  0  0
 11 14  1  0  0  0  0
 11 15  1  0  0  0  0
 11 16  1  0  0  0  0
 42 44  1  0  0  0  0
 42 45  1  0  0  0  0
 42 46  1  0  0  0  0
 21 27  1  0  0  0  0
 21 28  1  0  0  0  0
 32 37  1  0  0  0  0
  8 13  1  0  0  0  0
 18 26  1  0  0  0  0
 24 29  1  0  0  0  0
 24 30  1  0  0  0  0
 41 43  1  0  0  0  0
  7 12  1  0  0  0  0
 31 36  1  0  0  0  0
 17 25  1  0  0  0  0
M  END
$$$$

  -OEChem-05262214473D

 46 45  0     1  0  0  0  0  0999 V2000
   -0.0543    1.9736    3.8406 C   0  0  0  0  0  0  0  0  0  0  0  0
    0.6744    1.6099    4.7562 O   0  0  0  0  0  0  0  0  0  0  0  0
   -0.5599    3.3779    3.8160 C   0  0  0  0  0  0  0  0  0  0  0  0
   -1.5202    3.4885    4.3450 H   0  0  0  0  0  0  0  0  0  0  0  0
    0.1282    4.0814    4.3116 H   0  0  0  0  0  0  0  0  0  0  0  0
   -0.7317    3.7994    2.8126 H   0  0  0  0  0  0  0  0  0  0  0  0
   -0.4812    1.1968    2.7762 N   0  0  0  0  0  0  0  0  0  0  0  0
   -0.1106   -0.1834    2.6051 C   0  0  2  0  0  0  0  0  0  0  0  0
   -0.0696   -0.4775    1.1113 C   0  0  0  0  0  0  0  0  0  0  0  0
   -0.6805    0.1900    0.2792 O   0  0  0  0  0  0  0  0  0  0  0  0
   -1.0852   -1.1101    3.3150 C   0  0  0  0  0  0  0  0  0  0  0  0
   -1.0883    1.6241    2.0791 H   0  0  0  0  0  0  0  0  0  0  0  0
    0.8937   -0.2959    3.0277 H   0  0  0  0  0  0  0  0  0  0  0  0
   -2.0970   -1.0114    2.9051 H   0  0  0  0  0  0  0  0  0  0  0  0
   -0.7860   -2.1580    3.2078 H   0  0  0  0  0  0  0  0  0  0  0  0
   -1.1357   -0.8775    4.3842 H   0  0  0  0  0  0  0  0  0  0  0  0
    0.6950   -1.6003    0.8178 N   0  0  0  0  0  0  0  0  0  0  0  0
    0.8777   -2.0908   -0.5246 C   0  0  2  0  0  0  0  0  0  0  0  0
    2.0441   -3.0706   -0.5010 C   0  0  0  0  0  0  0  0  0  0  0  0
    3.1702   -2.7840   -0.9025 O   0  0  0  0  0  0  0  0  0  0  0  0
    1.1471   -0.9566   -1.5136 C   0  0  0  0  0  0  0  0  0  0  0  0
   -0.0676   -0.0799   -1.7625 C   0  0  0  0  0  0  0  0  0  0  0  0
   -1.2076   -0.5100   -1.9109 O   0  0  0  0  0  0  0  0  0  0  0  0
    0.2538    1.2605   -1.7979 N   0  0  0  0  0  0  0  0  0  0  0  0
    1.1810   -2.0803    1.5718 H   0  0  0  0  0  0  0  0  0  0  0  0
   -0.0381   -2.6338   -0.7861 H   0  0  0  0  0  0  0  0  0  0  0  0
    1.9434   -0.3035   -1.1348 H   0  0  0  0  0  0  0  0  0  0  0  0
    1.4894   -1.3583   -2.4760 H   0  0  0  0  0  0  0  0  0  0  0  0
    1.2107    1.5711   -1.6664 H   0  0  0  0  0  0  0  0  0  0  0  0
   -0.4428    1.9819   -1.9547 H   0  0  0  0  0  0  0  0  0  0  0  0
    1.6952   -4.2879    0.0668 N   0  0  0  0  0  0  0  0  0  0  0  0
    2.6465   -5.3625    0.2196 C   0  0  2  0  0  0  0  0  0  0  0  0
    3.8113   -4.8445    1.0529 C   0  0  0  0  0  0  0  0  0  0  0  0
    4.0844   -3.6503    1.1549 O   0  0  0  0  0  0  0  0  0  0  0  0
    3.1279   -5.8714   -1.1303 C   0  0  0  0  0  0  0  0  0  0  0  0
    0.7458   -4.4365    0.3959 H   0  0  0  0  0  0  0  0  0  0  0  0
    2.1345   -6.1631    0.7644 H   0  0  0  0  0  0  0  0  0  0  0  0
    3.6435   -5.0831   -1.6908 H   0  0  0  0  0  0  0  0  0  0  0  0
    3.8277   -6.7055   -1.0133 H   0  0  0  0  0  0  0  0  0  0  0  0
    2.2855   -6.2160   -1.7398 H   0  0  0  0  0  0  0  0  0  0  0  0
    4.5361   -5.8754    1.6344 N   0  0  0  0  0  0  0  0  0  0  0  0
    5.6962   -5.6423    2.4625 C   0  0  0  0  0  0  0  0  0  0  0  0
    4.2265   -6.8350    1.5117 H   0  0  0  0  0  0  0  0  0  0  0  0
    6.6033   -5.6742    1.8411 H   0  0  0  0  0  0  0  0  0  0  0  0
    5.6134   -4.6547    2.9398 H   0  0  0  0  0  0  0  0  0  0  0  0
    5.7555   -6.4204    3.2378 H   0  0  0  0  0  0  0  0  0  0  0  0
  1  3  1  0  0  0  0
  1  7  1  0  0  0  0
  1  2  2  0  0  0  0
 21 22  1  0  0  0  0
 22 24  1  0  0  0  0
 22 23  2  0  0  0  0
 32 33  1  0  0  0  0
 33 41  1  0  0  0  0
 33 34  2  0  0  0  0
  8  9  1  0  0  0  0
  9 17  1  0  0  0  0
  9 10  2  0  0  0  0
 18 19  1  0  0  0  0
 19 31  1  0  0  0  0
 19 20  2  0  0  0  0
 32 35  1  0  0  0  0
  8 11  1  0  0  0  0
 41 42  1  0  0  0  0
 18 21  1  0  0  0  0
 31 32  1  0  0  0  0
  7  8  1  0  0  0  0
 17 18  1  0  0  0  0
  3  4  1  0  0  0  0
  3  5  1  0  0  0  0
  3  6  1  0  0  0  0
 35 38  1  0  0  0  0
 35 39  1  0  0  0  0
 35 40  1  0  0  0  0
 11 14  1  0  0  0  0
 11 15  1  0  0  0  0
 11 16  1  0  0  0  0
 42 44  1  0  0  0  0
 42 45  1  0  0  0  0
 42 46  1  0  0  0  0
 21 27  1  0  0  0  0
 21 28  1  0  0  0  0
 32 37  1  0  0  0  0
  8 13  1  0  0  0  0
 18 26  1  0  0  0  0
 24 29  1  0  0  0  0
 24 30  1  0  0  0  0
 41 43  1  0  0  0  0
  7 12  1  0  0  0  0
 31 36  1  0  0  0  0
 17 25  1  0  0  0  0
M  END
$$$$

  -OEChem-05262214473D

 46 45  0     1  0  0  0  0  0999 V2000
   -0.0543    1.9736    3.8406 C   0  0  0  0  0  0  0  0  0  0  0  0
    0.6744    1.6099    4.7562 O   0  0  0  0  0  0  0  0  0  0  0  0
   -0.5599    3.3779    3.8160 C   0  0  0  0  0  0  0  0  0  0  0  0
   -1.5202    3.4885    4.3450 H   0  0  0  0  0  0  0  0  0  0  0  0
    0.1282    4.0814    4.3116 H   0  0  0  0  0  0  0  0  0  0  0  0
   -0.7317    3.7994    2.8126 H   0  0  0  0  0  0  0  0  0  0  0  0
   -0.4812    1.1968    2.7762 N   0  0  0  0  0  0  0  0  0  0  0  0
   -0.1106   -0.1834    2.6051 C   0  0  2  0  0  0  0  0  0  0  0  0
   -0.0696   -0.4775    1.1113 C   0  0  0  0  0  0  0  0  0  0  0  0
   -0.6805    0.1900    0.2792 O   0  0  0  0  0  0  0  0  0  0  0  0
   -1.0852   -1.1101    3.3150 C   0  0  0  0  0  0  0  0  0  0  0  0
   -1.0883    1.6241    2.0791 H   0  0  0  0  0  0  0  0  0  0  0  0
    0.8937   -0.2959    3.0277 H   0  0  0  0  0  0  0  0  0  0  0  0
   -2.0970   -1.0114    2.9051 H   0  0  0  0  0  0  0  0  0  0  0  0
   -0.7860   -2.1580    3.2078 H   0  0  0  0  0  0  0  0  0  0  0  0
   -1.1357   -0.8775    4.3842 H   0  0  0  0  0  0  0  0  0  0  0  0
    0.6950   -1.6003    0.8178 N   0  0  0  0  0  0  0  0  0  0  0  0
    0.8777   -2.0908   -0.5246 C   0  0  2  0  0  0  0  0  0  0  0  0
    2.0441   -3.0706   -0.5010 C   0  0  0  0  0  0  0  0  0  0  0  0
    3.2151   -2.7244   -0.6442 O   0  0  0  0  0  0  0  0  0  0  0  0
    1.1471   -0.9566   -1.5136 C   0  0  0  0  0  0  0  0  0  0  0  0
   -0.0676   -0.0799   -1.7625 C   0  0  0  0  0  0  0  0  0  0  0  0
   -1.2076   -0.5100   -1.9109 O   0  0  0  0  0  0  0  0  0  0  0  0
    0.2538    1.2605   -1.7979 N   0  0  0  0  0  0  0  0  0  0  0  0
    1.1810   -2.0803    1.5718 H   0  0  0  0  0  0  0  0  0  0  0  0
   -0.0381   -2.6338   -0.7861 H   0  0  0  0  0  0  0  0  0  0  0  0
    1.9434   -0.3035   -1.1348 H   0  0  0  0  0  0  0  0  0  0  0  0
    1.4894   -1.3583   -2.4760 H   0  0  0  0  0  0  0  0  0  0  0  0
    1.2107    1.5711   -1.6664 H   0  0  0  0  0  0  0  0  0  0  0  0
   -0.4428    1.9819   -1.9547 H   0  0  0  0  0  0  0  0  0  0  0  0
    1.6311   -4.3718   -0.2515 N   0  0  0  0  0  0  0  0  0  0  0  0
    2.5660   -5.4674   -0.1578 C   0  0  2  0  0  0  0  0  0  0  0  0
    3.5653   -5.1401    0.9439 C   0  0  0  0  0  0  0  0  0  0  0  0
    3.7927   -3.9935    1.3242 O   0  0  0  0  0  0  0  0  0  0  0  0
    3.2752   -5.7044   -1.4821 C   0  0  0  0  0  0  0  0  0  0  0  0
    0.6436   -4.5707   -0.1215 H   0  0  0  0  0  0  0  0  0  0  0  0
    1.9874   -6.3537    0.1246 H   0  0  0  0  0  0  0  0  0  0  0  0
    3.8603   -4.8272   -1.7815 H   0  0  0  0  0  0  0  0  0  0  0  0
    3.9631   -6.5539   -1.4173 H   0  0  0  0  0  0  0  0  0  0  0  0
    2.5531   -5.9103   -2.2795 H   0  0  0  0  0  0  0  0  0  0  0  0
    4.2046   -6.2751    1.4226 N   0  0  0  0  0  0  0  0  0  0  0  0
    5.2061   -6.2258    2.4622 C   0  0  0  0  0  0  0  0  0  0  0  0
    3.9397   -7.1872    1.0626 H   0  0  0  0  0  0  0  0  0  0  0  0
    6.2042   -6.1454    2.0070 H   0  0  0  0  0  0  0  0  0  0  0  0
    5.0247   -5.3517    3.1047 H   0  0  0  0  0  0  0  0  0  0  0  0
    5.1520   -7.1430    3.0670 H   0  0  0  0  0  0  0  0  0  0  0  0
  1  3  1  0  0  0  0
  1  7  1  0  0  0  0
  1  2  2  0  0  0  0
 21 22  1  0  0  0  0
 22 24  1  0  0  0  0
 22 23  2  0  0  0  0
 32 33  1  0  0  0  0
 33 41  1  0  0  0  0
 33 34  2  0  0  0  0
  8  9  1  0  0  0  0
  9 17  1  0  0  0  0
  9 10  2  0  0  0  0
 18 19  1  0  0  0  0
 19 31  1  0  0  0  0
 19 20  2  0  0  0  0
 32 35  1  0  0  0  0
  8 11  1  0  0  0  0
 41 42  1  0  0  0  0
 18 21  1  0  0  0  0
 31 32  1  0  0  0  0
  7  8  1  0  0  0  0
 17 18  1  0  0  0  0
  3  4  1  0  0  0  0
  3  5  1  0  0  0  0
  3  6  1  0  0  0  0
 35 38  1  0  0  0  0
 35 39  1  0  0  0  0
 35 40  1  0  0  0  0
 11 14  1  0  0  0  0
 11 15  1  0  0  0  0
 11 16  1  0  0  0  0
 42 44  1  0  0  0  0
 42 45  1  0  0  0  0
 42 46  1  0  0  0  0
 21 27  1  0  0  0  0
 21 28  1  0  0  0  0
 32 37  1  0  0  0  0
  8 13  1  0  0  0  0
 18 26  1  0  0  0  0
 24 29  1  0  0  0  0
 24 30  1  0  0  0  0
 41 43  1  0  0  0  0
  7 12  1  0  0  0  0
 31 36  1  0  0  0  0
 17 25  1  0  0  0  0
M  END
$$$$

  -OEChem-05262214473D

 46 45  0     1  0  0  0  0  0999 V2000
   -0.0543    1.9736    3.8406 C   0  0  0  0  0  0  0  0  0  0  0  0
    0.6744    1.6099    4.7562 O   0  0  0  0  0  0  0  0  0  0  0  0
   -0.5599    3.3779    3.8160 C   0  0  0  0  0  0  0  0  0  0  0  0
   -1.5202    3.4885    4.3450 H   0  0  0  0  0  0  0  0  0  0  0  0
    0.1282    4.0814    4.3116 H   0  0  0  0  0  0  0  0  0  0  0  0
   -0.7317    3.7994    2.8126 H   0  0  0  0  0  0  0  0  0  0  0  0
   -0.4812    1.1968    2.7762 N   0  0  0  0  0  0  0  0  0  0  0  0
   -0.1106   -0.1834    2.6051 C   0  0  2  0  0  0  0  0  0  0  0  0
   -0.0696   -0.4775    1.1113 C   0  0  0  0  0  0  0  0  0  0  0  0
   -0.6805    0.1900    0.2792 O   0  0  0  0  0  0  0  0  0  0  0  0
   -1.0852   -1.1101    3.3150 C   0  0  0  0  0  0  0  0  0  0  0  0
   -1.0883    1.6241    2.0791 H   0  0  0  0  0  0  0  0  0  0  0  0
    0.8937   -0.2959    3.0277 H   0  0  0  0  0  0  0  0  0  0  0  0
   -2.0970   -1.0114    2.9051 H   0  0  0  0  0  0  0  0  0  0  0  0
   -0.7860   -2.1580    3.2078 H   0  0  0  0  0  0  0  0  0  0  0  0
   -1.1357   -0.8775    4.3842 H   0  0  0  0  0  0  0  0  0  0  0  0
    0.6950   -1.6003    0.8178 N   0  0  0  0  0  0  0  0  0  0  0  0
    0.8777   -2.0908   -0.5246 C   0  0  2  0  0  0  0  0  0  0  0  0
    2.0441   -3.0706   -0.5010 C   0  0  0  0  0  0  0  0  0  0  0  0
    3.2151   -2.7179   -0.3754 O   0  0  0  0  0  0  0  0  0  0  0  0
    1.1471   -0.9566   -1.5136 C   0  0  0  0  0  0  0  0  0  0  0  0
   -0.0676   -0.0799   -1.7625 C   0  0  0  0  0  0  0  0  0  0  0  0
   -1.2076   -0.5100   -1.9109 O   0  0  0  0  0  0  0  0  0  0  0  0
    0.2538    1.2605   -1.7979 N   0  0  0  0  0  0  0  0  0  0  0  0
    1.1810   -2.0803    1.5718 H   0  0  0  0  0  0  0  0  0  0  0  0
   -0.0381   -2.6338   -0.7861 H   0  0  0  0  0  0  0  0  0  0  0  0
    1.9434   -0.3035   -1.1348 H   0  0  0  0  0  0  0  0  0  0  0  0
    1.4894   -1.3583   -2.4760 H   0  0  0  0  0  0  0  0  0  0  0  0
    1.2107    1.5711   -1.6664 H   0  0  0  0  0  0  0  0  0  0  0  0
   -0.4428    1.9819   -1.9547 H   0  0  0  0  0  0  0  0  0  0  0  0
    1.6226   -4.3901   -0.5863 N   0  0  0  0  0  0  0  0  0  0  0  0
    2.5515   -5.4943   -0.5566 C   0  0  2  0  0  0  0  0  0  0  0  0
    3.3469   -5.4050    0.7391 C   0  0  0  0  0  0  0  0  0  0  0  0
    3.4841   -4.3597    1.3712 O   0  0  0  0  0  0  0  0  0  0  0  0
    3.4755   -5.4728   -1.7642 C   0  0  0  0  0  0  0  0  0  0  0  0
    0.6314   -4.5981   -0.6648 H   0  0  0  0  0  0  0  0  0  0  0  0
    1.9525   -6.4115   -0.5556 H   0  0  0  0  0  0  0  0  0  0  0  0
    4.0837   -4.5611   -1.7823 H   0  0  0  0  0  0  0  0  0  0  0  0
    4.1605   -6.3270   -1.7550 H   0  0  0  0  0  0  0  0  0  0  0  0
    2.9003   -5.5070   -2.6958 H   0  0  0  0  0  0  0  0  0  0  0  0
    3.9213   -6.6205    1.0837 N   0  0  0  0  0  0  0  0  0  0  0  0
    4.7350   -6.7914    2.2646 C   0  0  0  0  0  0  0  0  0  0  0  0
    3.7388   -7.4396    0.5113 H   0  0  0  0  0  0  0  0  0  0  0  0
    5.7930   -6.6349    2.0074 H   0  0  0  0  0  0  0  0  0  0  0  0
    4.4313   -6.0599    3.0280 H   0  0  0  0  0  0  0  0  0  0  0  0
    4.6003   -7.8096    2.6584 H   0  0  0  0  0  0  0  0  0  0  0  0
  1  3  1  0  0  0  0
  1  7  1  0  0  0  0
  1  2  2  0  0  0  0
 21 22  1  0  0  0  0
 22 24  1  0  0  0  0
 22 23  2  0  0  0  0
 32 33  1  0  0  0  0
 33 41  1  0  0  0  0
 33 34  2  0  0  0  0
  8  9  1  0  0  0  0
  9 17  1  0  0  0  0
  9 10  2  0  0  0  0
 18 19  1  0  0  0  0
 19 31  1  0  0  0  0
 19 20  2  0  0  0  0
 32 35  1  0  0  0  0
  8 11  1  0  0  0  0
 41 42  1  0  0  0  0
 18 21  1  0  0  0  0
 31 32  1  0  0  0  0
  7  8  1  0  0  0  0
 17 18  1  0  0  0  0
  3  4  1  0  0  0  0
  3  5  1  0  0  0  0
  3  6  1  0  0  0  0
 35 38  1  0  0  0  0
 35 39  1  0  0  0  0
 35 40  1  0  0  0  0
 11 14  1  0  0  0  0
 11 15  1  0  0  0  0
 11 16  1  0  0  0  0
 42 44  1  0  0  0  0
 42 45  1  0  0  0  0
 42 46  1  0  0  0  0
 21 27  1  0  0  0  0
 21 28  1  0  0  0  0
 32 37  1  0  0  0  0
  8 13  1  0  0  0  0
 18 26  1  0  0  0  0
 24 29  1  0  0  0  0
 24 30  1  0  0  0  0
 41 43  1  0  0  0  0
  7 12  1  0  0  0  0
 31 36  1  0  0  0  0
 17 25  1  0  0  0  0
M  END
$$$$

  -OEChem-05262214473D

 46 45  0     1  0  0  0  0  0999 V2000
   -0.0543    1.9736    3.8406 C   0  0  0  0  0  0  0  0  0  0  0  0
    0.6744    1.6099    4.7562 O   0  0  0  0  0  0  0  0  0  0  0  0
   -0.5599    3.3779    3.8160 C   0  0  0  0  0  0  0  0  0  0  0  0
   -1.5202    3.4885    4.3450 H   0  0  0  0  0  0  0  0  0  0  0  0
    0.1282    4.0814    4.3116 H   0  0  0  0  0  0  0  0  0  0  0  0
   -0.7317    3.7994    2.8126 H   0  0  0  0  0  0  0  0  0  0  0  0
   -0.4812    1.1968    2.7762 N   0  0  0  0  0  0  0  0  0  0  0  0
   -0.1106   -0.1834    2.6051 C   0  0  2  0  0  0  0  0  0  0  0  0
   -0.0696   -0.4775    1.1113 C   0  0  0  0  0  0  0  0  0  0  0  0
   -0.6805    0.1900    0.2792 O   0  0  0  0  0  0  0  0  0  0  0  0
   -1.0852   -1.1101    3.3150 C   0  0  0  0  0  0  0  0  0  0  0  0
   -1.0883    1.6241    2.0791 H   0  0  0  0  0  0  0  0  0  0  0  0
    0.8937   -0.2959    3.0277 H   0  0  0  0  0  0  0  0  0  0  0  0
   -2.0970   -1.0114    2.9051 H   0  0  0  0  0  0  0  0  0  0  0  0
   -0.7860   -2.1580    3.2078 H   0  0  0  0  0  0  0  0  0  0  0  0
   -1.1357   -0.8775    4.3842 H   0  0  0  0  0  0  0  0  0  0  0  0
    0.6950   -1.6003    0.8178 N   0  0  0  0  0  0  0  0  0  0  0  0
    0.8777   -2.0908   -0.5246 C   0  0  2  0  0  0  0  0  0  0  0  0
    2.0441   -3.0706   -0.5010 C   0  0  0  0  0  0  0  0  0  0  0  0
    3.1704   -2.7648   -0.1146 O   0  0  0  0  0  0  0  0  0  0  0  0
    1.1471   -0.9566   -1.5136 C   0  0  0  0  0  0  0  0  0  0  0  0
   -0.0676   -0.0799   -1.7625 C   0  0  0  0  0  0  0  0  0  0  0  0
   -1.2076   -0.5100   -1.9109 O   0  0  0  0  0  0  0  0  0  0  0  0
    0.2538    1.2605   -1.7979 N   0  0  0  0  0  0  0  0  0  0  0  0
    1.1810   -2.0803    1.5718 H   0  0  0  0  0  0  0  0  0  0  0  0
   -0.0381   -2.6338   -0.7861 H   0  0  0  0  0  0  0  0  0  0  0  0
    1.9434   -0.3035   -1.1348 H   0  0  0  0  0  0  0  0  0  0  0  0
    1.4894   -1.3583   -2.4760 H   0  0  0  0  0  0  0  0  0  0  0  0
    1.2107    1.5711   -1.6664 H   0  0  0  0  0  0  0  0  0  0  0  0
   -0.4428    1.9819   -1.9547 H   0  0  0  0  0  0  0  0  0  0  0  0
    1.6701   -4.3414   -0.9148 N   0  0  0  0  0  0  0  0  0  0  0  0
    2.6039   -5.4414   -0.9495 C   0  0  2  0  0  0  0  0  0  0  0  0
    3.1711   -5.6212    0.4524 C   0  0  0  0  0  0  0  0  0  0  0  0
    3.1797   -4.7240    1.2927 O   0  0  0  0  0  0  0  0  0  0  0  0
    3.7150   -5.1923   -1.9576 C   0  0  0  0  0  0  0  0  0  0  0  0
    0.7103   -4.5170   -1.1971 H   0  0  0  0  0  0  0  0  0  0  0  0
    2.0322   -6.3328   -1.2299 H   0  0  0  0  0  0  0  0  0  0  0  0
    4.2987   -4.3031   -1.6932 H   0  0  0  0  0  0  0  0  0  0  0  0
    4.4065   -6.0401   -2.0033 H   0  0  0  0  0  0  0  0  0  0  0  0
    3.3032   -5.0337   -2.9601 H   0  0  0  0  0  0  0  0  0  0  0  0
    3.7055   -6.8881    0.6407 N   0  0  0  0  0  0  0  0  0  0  0  0
    4.3151   -7.3004    1.8834 C   0  0  0  0  0  0  0  0  0  0  0  0
    3.6376   -7.5749   -0.1047 H   0  0  0  0  0  0  0  0  0  0  0  0
    5.3977   -7.1095    1.8424 H   0  0  0  0  0  0  0  0  0  0  0  0
    3.8738   -6.7312    2.7147 H   0  0  0  0  0  0  0  0  0  0  0  0
    4.1381   -8.3747    2.0398 H   0  0  0  0  0  0  0  0  0  0  0  0
  1  3  1  0  0  0  0
  1  7  1  0  0  0  0
  1  2  2  0  0  0  0
 21 22  1  0  0  0  0
 22 24  1  0  0  0  0
 22 23  2  0  0  0  0
 32 33  1  0  0  0  0
 33 41  1  0  0  0  0
 33 34  2  0  0  0  0
  8  9  1  0  0  0  0
  9 17  1  0  0  0  0
  9 10  2  0  0  0  0
 18 19  1  0  0  0  0
 19 31  1  0  0  0  0
 19 20  2  0  0  0  0
 32 35  1  0  0  0  0
  8 11  1  0  0  0  0
 41 42  1  0  0  0  0
 18 21  1  0  0  0  0
 31 32  1  0  0  0  0
  7  8  1  0  0  0  0
 17 18  1  0  0  0  0
  3  4  1  0  0  0  0
  3  5  1  0  0  0  0
  3  6  1  0  0  0  0
 35 38  1  0  0  0  0
 35 39  1  0  0  0  0
 35 40  1  0  0  0  0
 11 14  1  0  0  0  0
 11 15  1  0  0  0  0
 11 16  1  0  0  0  0
 42 44  1  0  0  0  0
 42 45  1  0  0  0  0
 42 46  1  0  0  0  0
 21 27  1  0  0  0  0
 21 28  1  0  0  0  0
 32 37  1  0  0  0  0
  8 13  1  0  0  0  0
 18 26  1  0  0  0  0
 24 29  1  0  0  0  0
 24 30  1  0  0  0  0
 41 43  1  0  0  0  0
  7 12  1  0  0  0  0
 31 36  1  0  0  0  0
 17 25  1  0  0  0  0
M  END
$$$$

  -OEChem-05262214473D

 46 45  0     1  0  0  0  0  0999 V2000
   -0.0543    1.9736    3.8406 C   0  0  0  0  0  0  0  0  0  0  0  0
    0.6744    1.6099    4.7562 O   0  0  0  0  0  0  0  0  0  0  0  0
   -0.5599    3.3779    3.8160 C   0  0  0  0  0  0  0  0  0  0  0  0
   -1.5202    3.4885    4.3450 H   0  0  0  0  0  0  0  0  0  0  0  0
    0.1282    4.0814    4.3116 H   0  0  0  0  0  0  0  0  0  0  0  0
   -0.7317    3.7994    2.8126 H   0  0  0  0  0  0  0  0  0  0  0  0
   -0.4812    1.1968    2.7762 N   0  0  0  0  0  0  0  0  0  0  0  0
   -0.1106   -0.1834    2.6051 C   0  0  2  0  0  0  0  0  0  0  0  0
   -0.0696   -0.4775    1.1113 C   0  0  0  0  0  0  0  0  0  0  0  0
   -0.6805    0.1900    0.2792 O   0  0  0  0  0  0  0  0  0  0  0  0
   -1.0852   -1.1101    3.3150 C   0  0  0  0  0  0  0  0  0  0  0  0
   -1.0883    1.6241    2.0791 H   0  0  0  0  0  0  0  0  0  0  0  0
    0.8937   -0.2959    3.0277 H   0  0  0  0  0  0  0  0  0  0  0  0
   -2.0970   -1.0114    2.9051 H   0  0  0  0  0  0  0  0  0  0  0  0
   -0.7860   -2.1580    3.2078 H   0  0  0  0  0  0  0  0  0  0  0  0
   -1.1357   -0.8775    4.3842 H   0  0  0  0  0  0  0  0  0  0  0  0
    0.6950   -1.6003    0.8178 N   0  0  0  0  0  0  0  0  0  0  0  0
    0.8777   -2.0908   -0.5246 C   0  0  2  0  0  0  0  0  0  0  0  0
    2.0441   -3.0706   -0.5010 C   0  0  0  0  0  0  0  0  0  0  0  0
    3.0840   -2.8620    0.1207 O   0  0  0  0  0  0  0  0  0  0  0  0
    1.1471   -0.9566   -1.5136 C   0  0  0  0  0  0  0  0  0  0  0  0
   -0.0676   -0.0799   -1.7625 C   0  0  0  0  0  0  0  0  0  0  0  0
   -1.2076   -0.5100   -1.9109 O   0  0  0  0  0  0  0  0  0  0  0  0
    0.2538    1.2605   -1.7979 N   0  0  0  0  0  0  0  0  0  0  0  0
    1.1810   -2.0803    1.5718 H   0  0  0  0  0  0  0  0  0  0  0  0
   -0.0381   -2.6338   -0.7861 H   0  0  0  0  0  0  0  0  0  0  0  0
    1.9434   -0.3035   -1.1348 H   0  0  0  0  0  0  0  0  0  0  0  0
    1.4894   -1.3583   -2.4760 H   0  0  0  0  0  0  0  0  0  0  0  0
    1.2107    1.5711   -1.6664 H   0  0  0  0  0  0  0  0  0  0  0  0
   -0.4428    1.9819   -1.9547 H   0  0  0  0  0  0  0  0  0  0  0  0
    1.7705   -4.2291   -1.2145 N   0  0  0  0  0  0  0  0  0  0  0  0
    2.7197   -5.3121   -1.3098 C   0  0  2  0  0  0  0  0  0  0  0  0
    3.0498   -5.7739    0.1034 C   0  0  0  0  0  0  0  0  0  0  0  0
    2.9002   -5.0616    1.0940 O   0  0  0  0  0  0  0  0  0  0  0  0
    3.9773   -4.8822   -2.0489 C   0  0  0  0  0  0  0  0  0  0  0  0
    0.8747   -4.3329   -1.6821 H   0  0  0  0  0  0  0  0  0  0  0  0
    2.2212   -6.1228   -1.8524 H   0  0  0  0  0  0  0  0  0  0  0  0
    4.4905   -4.0706   -1.5202 H   0  0  0  0  0  0  0  0  0  0  0  0
    4.6844   -5.7127   -2.1454 H   0  0  0  0  0  0  0  0  0  0  0  0
    3.7346   -4.5224   -3.0546 H   0  0  0  0  0  0  0  0  0  0  0  0
    3.5718   -7.0597    0.1238 N   0  0  0  0  0  0  0  0  0  0  0  0
    3.9751   -7.7182    1.3443 C   0  0  0  0  0  0  0  0  0  0  0  0
    3.6429   -7.5839   -0.7433 H   0  0  0  0  0  0  0  0  0  0  0  0
    5.0452   -7.5368    1.5231 H   0  0  0  0  0  0  0  0  0  0  0  0
    3.3901   -7.3197    2.1863 H   0  0  0  0  0  0  0  0  0  0  0  0
    3.7968   -8.7999    1.2534 H   0  0  0  0  0  0  0  0  0  0  0  0
  1  3  1  0  0  0  0
  1  7  1  0  0  0  0
  1  2  2  0  0  0  0
 21 22  1  0  0  0  0
 22 24  1  0  0  0  0
 22 23  2  0  0  0  0
 32 33  1  0  0  0  0
 33 41  1  0  0  0  0
 33 34  2  0  0  0  0
  8  9  1  0  0  0  0
  9 17  1  0  0  0  0
  9 10  2  0  0  0  0
 18 19  1  0  0  0  0
 19 31  1  0  0  0  0
 19 20  2  0  0  0  0
 32 35  1  0  0  0  0
  8 11  1  0  0  0  0
 41 42  1  0  0  0  0
 18 21  1  0  0  0  0
 31 32  1  0  0  0  0
  7  8  1  0  0  0  0
 17 18  1  0  0  0  0
  3  4  1  0  0  0  0
  3  5  1  0  0  0  0
  3  6  1  0  0  0  0
 35 38  1  0  0  0  0
 35 39  1  0  0  0  0
 35 40  1  0  0  0  0
 11 14  1  0  0  0  0
 11 15  1  0  0  0  0
 11 16  1  0  0  0  0
 42 44  1  0  0  0  0
 42 45  1  0  0  0  0
 42 46  1  0  0  0  0
 21 27  1  0  0  0  0
 21 28  1  0  0  0  0
 32 37  1  0  0  0  0
  8 13  1  0  0  0  0
 18 26  1  0  0  0  0
 24 29  1  0  0  0  0
 24 30  1  0  0  0  0
 41 43  1  0  0  0  0
  7 12  1  0  0  0  0
 31 36  1  0  0  0  0
 17 25  1  0  0  0  0
M  END
$$$$

  -OEChem-05262214473D

 46 45  0     1  0  0  0  0  0999 V2000
   -0.0543    1.9736    3.8406 C   0  0  0  0  0  0  0  0  0  0  0  0
    0.6744    1.6099    4.7562 O   0  0  0  0  0  0  0  0  0  0  0  0
   -0.5599    3.3779    3.8160 C   0  0  0  0  0  0  0  0  0  0  0  0
   -1.5202    3.4885    4.3450 H   0  0  0  0  0  0  0  0  0  0  0  0
    0.1282    4.0814    4.3116 H   0  0  0  0  0  0  0  0  0  0  0  0
   -0.7317    3.7994    2.8126 H   0  0  0  0  0  0  0  0  0  0  0  0
   -0.4812    1.1968    2.7762 N   0  0  0  0  0  0  0  0  0  0  0  0
   -0.1106   -0.1834    2.6051 C   0  0  2  0  0  0  0  0  0  0  0  0
   -0.0696   -0.4775    1.1113 C   0  0  0  0  0  0  0  0  0  0  0  0
   -0.6805    0.1900    0.2792 O   0  0  0  0  0  0  0  0  0  0  0  0
   -1.0852   -1.1101    3.3150 C   0  0  0  0  0  0  0  0  0  0  0  0
   -1.0883    1.6241    2.0791 H   0  0  0  0  0  0  0  0  0  0  0  0
    0.8937   -0.2959    3.0277 H   0  0  0  0  0  0  0  0  0  0  0  0
   -2.0970   -1.0114    2.9051 H   0  0  0  0  0  0  0  0  0  0  0  0
   -0.7860   -2.1580    3.2078 H   0  0  0  0  0  0  0  0  0  0  0  0
   -1.1357   -0.8775    4.3842 H   0  0  0  0  0  0  0  0  0  0  0  0
    0.6950   -1.6003    0.8178 N   0  0  0  0  0  0  0  0  0  0  0  0
    0.8777   -2.0908   -0.5246 C   0  0  2  0  0  0  0  0  0  0  0  0
    2.0441   -3.0706   -0.5010 C   0  0  0  0  0  0  0  0  0  0  0  0
    2.9618   -3.0029    0.3143 O   0  0  0  0  0  0  0  0  0  0  0  0
    1.1471   -0.9566   -1.5136 C   0  0  0  0  0  0  0  0  0  0  0  0
   -0.0676   -0.0799   -1.7625 C   0  0  0  0  0  0  0  0  0  0  0  0
   -1.2076   -0.5100   -1.9109 O   0  0  0  0  0  0  0  0  0  0  0  0
    0.2538    1.2605   -1.7979 N   0  0  0  0  0  0  0  0  0  0  0  0
    1.1810   -2.0803    1.5718 H   0  0  0  0  0  0  0  0  0  0  0  0
   -0.0381   -2.6338   -0.7861 H   0  0  0  0  0  0  0  0  0  0  0  0
    1.9434   -0.3035   -1.1348 H   0  0  0  0  0  0  0  0  0  0  0  0
    1.4894   -1.3583   -2.4760 H   0  0  0  0  0  0  0  0  0  0  0  0
    1.2107    1.5711   -1.6664 H   0  0  0  0  0  0  0  0  0  0  0  0
   -0.4428    1.9819   -1.9547 H   0  0  0  0  0  0  0  0  0  0  0  0
    1.9168   -4.0608   -1.4650 N   0  0  0  0  0  0  0  0  0  0  0  0
    2.8910   -5.1154   -1.6130 C   0  0  2  0  0  0  0  0  0  0  0  0
    2.9915   -5.8527   -0.2841 C   0  0  0  0  0  0  0  0  0  0  0  0
    2.6647   -5.3493    0.7887 O   0  0  0  0  0  0  0  0  0  0  0  0
    4.2447   -4.5635   -2.0320 C   0  0  0  0  0  0  0  0  0  0  0  0
    1.1135   -4.0583   -2.0867 H   0  0  0  0  0  0  0  0  0  0  0  0
    2.5065   -5.7958   -2.3806 H   0  0  0  0  0  0  0  0  0  0  0  0
    4.6460   -3.8796   -1.2751 H   0  0  0  0  0  0  0  0  0  0  0  0
    4.9750   -5.3673   -2.1715 H   0  0  0  0  0  0  0  0  0  0  0  0
    4.1649   -4.0081   -2.9727 H   0  0  0  0  0  0  0  0  0  0  0  0
    3.5294   -7.1236   -0.4317 N   0  0  0  0  0  0  0  0  0  0  0  0
    3.7380   -8.0163    0.6843 C   0  0  0  0  0  0  0  0  0  0  0  0
    3.7543   -7.4661   -1.3612 H   0  0  0  0  0  0  0  0  0  0  0  0
    4.7595   -7.8877    1.0714 H   0  0  0  0  0  0  0  0  0  0  0  0
    3.0131   -7.7855    1.4788 H   0  0  0  0  0  0  0  0  0  0  0  0
    3.5998   -9.0560    0.3527 H   0  0  0  0  0  0  0  0  0  0  0  0
  1  3  1  0  0  0  0
  1  7  1  0  0  0  0
  1  2  2  0  0  0  0
 21 22  1  0  0  0  0
 22 24  1  0  0  0  0
 22 23  2  0  0  0  0
 32 33  1  0  0  0  0
 33 41  1  0  0  0  0
 33 34  2  0  0  0  0
  8  9  1  0  0  0  0
  9 17  1  0  0  0  0
  9 10  2  0  0  0  0
 18 19  1  0  0  0  0
 19 31  1  0  0  0  0
 19 20  2  0  0  0  0
 32 35  1  0  0  0  0
  8 11  1  0  0  0  0
 41 42  1  0  0  0  0
 18 21  1  0  0  0  0
 31 32  1  0  0  0  0
  7  8  1  0  0  0  0
 17 18  1  0  0  0  0
  3  4  1  0  0  0  0
  3  5  1  0  0  0  0
  3  6  1  0  0  0  0
 35 38  1  0  0  0  0
 35 39  1  0  0  0  0
 35 40  1  0  0  0  0
 11 14  1  0  0  0  0
 11 15  1  0  0  0  0
 11 16  1  0  0  0  0
 42 44  1  0  0  0  0
 42 45  1  0  0  0  0
 42 46  1  0  0  0  0
 21 27  1  0  0  0  0
 21 28  1  0  0  0  0
 32 37  1  0  0  0  0
  8 13  1  0  0  0  0
 18 26  1  0  0  0  0
 24 29  1  0  0  0  0
 24 30  1  0  0  0  0
 41 43  1  0  0  0  0
  7 12  1  0  0  0  0
 31 36  1  0  0  0  0
 17 25  1  0  0  0  0
M  END
$$$$

  -OEChem-05262214473D

 46 45  0     1  0  0  0  0  0999 V2000
   -0.0543    1.9736    3.8406 C   0  0  0  0  0  0  0  0  0  0  0  0
    0.6744    1.6099    4.7562 O   0  0  0  0  0  0  0  0  0  0  0  0
   -0.5599    3.3779    3.8160 C   0  0  0  0  0  0  0  0  0  0  0  0
   -1.5202    3.4885    4.3450 H   0  0  0  0  0  0  0  0  0  0  0  0
    0.1282    4.0814    4.3116 H   0  0  0  0  0  0  0  0  0  0  0  0
   -0.7317    3.7994    2.8126 H   0  0  0  0  0  0  0  0  0  0  0  0
   -0.4812    1.1968    2.7762 N   0  0  0  0  0  0  0  0  0  0  0  0
   -0.1106   -0.1834    2.6051 C   0  0  2  0  0  0  0  0  0  0  0  0
   -0.0696   -0.4775    1.1113 C   0  0  0  0  0  0  0  0  0  0  0  0
   -0.6805    0.1900    0.2792 O   0  0  0  0  0  0  0  0  0  0  0  0
   -1.0852   -1.1101    3.3150 C   0  0  0  0  0  0  0  0  0  0  0  0
   -1.0883    1.6241    2.0791 H   0  0  0  0  0  0  0  0  0  0  0  0
    0.8937   -0.2959    3.0277 H   0  0  0  0  0  0  0  0  0  0  0  0
   -2.0970   -1.0114    2.9051 H   0  0  0  0  0  0  0  0  0  0  0  0
   -0.7860   -2.1580    3.2078 H   0  0  0  0  0  0  0  0  0  0  0  0
   -1.1357   -0.8775    4.3842 H   0  0  0  0  0  0  0  0  0  0  0  0
    0.6950   -1.6003    0.8178 N   0  0  0  0  0  0  0  0  0  0  0  0
    0.8777   -2.0908   -0.5246 C   0  0  2  0  0  0  0  0  0  0  0  0
    2.0441   -3.0706   -0.5010 C   0  0  0  0  0  0  0  0  0  0  0  0
    2.8121   -3.1778    0.4530 O   0  0  0  0  0  0  0  0  0  0  0  0
    1.1471   -0.9566   -1.5136 C   0  0  0  0  0  0  0  0  0  0  0  0
   -0.0676   -0.0799   -1.7625 C   0  0  0  0  0  0  0  0  0  0  0  0
   -1.2076   -0.5100   -1.9109 O   0  0  0  0  0  0  0  0  0  0  0  0
    0.2538    1.2605   -1.7979 N   0  0  0  0  0  0  0  0  0  0  0  0
    1.1810   -2.0803    1.5718 H   0  0  0  0  0  0  0  0  0  0  0  0
   -0.0381   -2.6338   -0.7861 H   0  0  0  0  0  0  0  0  0  0  0  0
    1.9434   -0.3035   -1.1348 H   0  0  0  0  0  0  0  0  0  0  0  0
    1.4894   -1.3583   -2.4760 H   0  0  0  0  0  0  0  0  0  0  0  0
    1.2107    1.5711   -1.6664 H   0  0  0  0  0  0  0  0  0  0  0  0
   -0.4428    1.9819   -1.9547 H   0  0  0  0  0  0  0  0  0  0  0  0
    2.0993   -3.8481   -1.6493 N   0  0  0  0  0  0  0  0  0  0  0  0
    3.1062   -4.8647   -1.8383 C   0  0  2  0  0  0  0  0  0  0  0  0
    2.9999   -5.8523   -0.6838 C   0  0  0  0  0  0  0  0  0  0  0  0
    2.4891   -5.5677    0.3975 O   0  0  0  0  0  0  0  0  0  0  0  0
    4.4989   -4.2579   -1.9079 C   0  0  0  0  0  0  0  0  0  0  0  0
    1.4105   -3.7120   -2.3833 H   0  0  0  0  0  0  0  0  0  0  0  0
    2.8687   -5.3742   -2.7785 H   0  0  0  0  0  0  0  0  0  0  0  0
    4.7546   -3.7430   -0.9747 H   0  0  0  0  0  0  0  0  0  0  0  0
    5.2588   -5.0273   -2.0799 H   0  0  0  0  0  0  0  0  0  0  0  0
    4.5649   -3.5259   -2.7201 H   0  0  0  0  0  0  0  0  0  0  0  0
    3.5811   -7.0753   -0.9880 N   0  0  0  0  0  0  0  0  0  0  0  0
    3.6200   -8.1744   -0.0518 C   0  0  0  0  0  0  0  0  0  0  0  0
    3.9643   -7.2294   -1.9160 H   0  0  0  0  0  0  0  0  0  0  0  0
    4.5602   -8.1383    0.5180 H   0  0  0  0  0  0  0  0  0  0  0  0
    2.7687   -8.0966    0.6404 H   0  0  0  0  0  0  0  0  0  0  0  0
    3.5605   -9.1258   -0.6008 H   0  0  0  0  0  0  0  0  0  0  0  0
  1  3  1  0  0  0  0
  1  7  1  0  0  0  0
  1  2  2  0  0  0  0
 21 22  1  0  0  0  0
 22 24  1  0  0  0  0
 22 23  2  0  0  0  0
 32 33  1  0  0  0  0
 33 41  1  0  0  0  0
 33 34  2  0  0  0  0
  8  9  1  0  0  0  0
  9 17  1  0  0  0  0
  9 10  2  0  0  0  0
 18 19  1  0  0  0  0
 19 31  1  0  0  0  0
 19 20  2  0  0  0  0
 32 35  1  0  0  0  0
  8 11  1  0  0  0  0
 41 42  1  0  0  0  0
 18 21  1  0  0  0  0
 31 32  1  0  0  0  0
  7  8  1  0  0  0  0
 17 18  1  0  0  0  0
  3  4  1  0  0  0  0
  3  5  1  0  0  0  0
  3  6  1  0  0  0  0
 35 38  1  0  0  0  0
 35 39  1  0  0  0  0
 35 40  1  0  0  0  0
 11 14  1  0  0  0  0
 11 15  1  0  0  0  0
 11 16  1  0  0  0  0
 42 44  1  0  0  0  0
 42 45  1  0  0  0  0
 42 46  1  0  0  0  0
 21 27  1  0  0  0  0
 21 28  1  0  0  0  0
 32 37  1  0  0  0  0
  8 13  1  0  0  0  0
 18 26  1  0  0  0  0
 24 29  1  0  0  0  0
 24 30  1  0  0  0  0
 41 43  1  0  0  0  0
  7 12  1  0  0  0  0
 31 36  1  0  0  0  0
 17 25  1  0  0  0  0
M  END
$$$$
