@<TRIPOS>MOLECULE
default_name
   18    17     1     0     0
SMALL
No Charge or Current Charge


@<TRIPOS>ATOM
      1 N           27.3850    25.5120    24.0570 N.4        1 NAL       0.000000
      2 H1          27.7690    24.9520    23.3070 H          1 NAL       0.000000
      3 H2          26.3800    25.5640    23.9750 H          1 NAL       0.000000
      4 H3          27.6400    25.0640    24.9280 H          1 NAL       0.000000
      5 CA          27.9880    26.8650    24.0200 C.3        1 NAL       0.000000
      6 HA          27.7680    27.3250    23.0560 H          1 NAL       0.000000
      7 CB          27.4010    27.7490    25.1300 C.3        1 NAL       0.000000
      8 HB1         27.6330    27.3280    26.1100 H          1 NAL       0.000000
      9 HB2         27.8220    28.7540    25.0680 H          1 NAL       0.000000
     10 HB3         26.3190    27.8190    25.0160 H          1 NAL       0.000000
     11 C           29.5080    26.7370    24.1410 C.2        1 NAL       0.000000
     12 O           29.9660    25.6360    24.4240 O.2        1 NAL       0.000000
     13 N           30.2700    27.8140    23.9160 N.am       2 NME      -0.415700
     14 H           29.8340    28.6970    23.6910 H          2 NME       0.271900
     15 CH3         31.7320    27.8010    24.0000 C.3        2 NME      -0.149000
     16 HH31        32.1380    26.9780    23.4070 H          2 NME       0.097600
     17 HH32        32.1430    28.7410    23.6240 H          2 NME       0.097600
     18 HH33        32.0470    27.6690    25.0370 H          2 NME       0.097600
@<TRIPOS>BOND
     1    11    12 2   
     2    11    13 am  
     3     7     8 1   
     4     7     9 1   
     5     7    10 1   
     6     5     6 1   
     7     5     7 1   
     8     5    11 1   
     9     1     2 1   
    10     1     3 1   
    11     1     4 1   
    12     1     5 1   
    13    15    16 1   
    14    15    17 1   
    15    15    18 1   
    16    13    14 1   
    17    13    15 1   
@<TRIPOS>SUBSTRUCTURE
     1 NAL         1 TEMP              0 ****  ****    0 ROOT
