@<TRIPOS>MOLECULE
default_name
   28    28     1     0     0
SMALL
No Charge or Current Charge


@<TRIPOS>ATOM
      1 N           27.4390    25.5900    23.8150 N.4        1 NPH       0.000000
      2 H1          27.9380    25.0030    23.1600 H          1 NPH       0.000000
      3 H2          26.4880    25.7280    23.5070 H          1 NPH       0.000000
      4 H3          27.4490    25.1180    24.7100 H          1 NPH       0.000000
      5 CA          28.1410    26.8870    23.9550 C.3        1 NPH       0.000000
      6 HA          28.1980    27.3670    22.9790 H          1 NPH       0.000000
      7 CB          27.3710    27.8180    24.9050 C.3        1 NPH       0.000000
      8 HB2         26.3560    27.9420    24.5260 H          1 NPH       0.000000
      9 HB3         27.3000    27.3460    25.8870 H          1 NPH       0.000000
     10 CG          27.9920    29.1920    25.0520 C.ar       1 NPH       0.000000
     11 CD1         28.7040    29.5290    26.2210 C.ar       1 NPH       0.000000
     12 HD1         28.7790    28.8300    27.0430 H          1 NPH       0.000000
     13 CE1         29.3300    30.7820    26.3270 C.ar       1 NPH       0.000000
     14 HE1         29.8730    31.0450    27.2260 H          1 NPH       0.000000
     15 CZ          29.2460    31.7030    25.2690 C.ar       1 NPH       0.000000
     16 HZ          29.7220    32.6710    25.3560 H          1 NPH       0.000000
     17 CE2         28.5300    31.3740    24.1060 C.ar       1 NPH       0.000000
     18 HE2         28.4560    32.0930    23.3010 H          1 NPH       0.000000
     19 CD2         27.9020    30.1210    23.9970 C.ar       1 NPH       0.000000
     20 HD2         27.3450    29.8880    23.1000 H          1 NPH       0.000000
     21 C           29.5730    26.6210    24.4220 C.2        1 NPH       0.000000
     22 O           29.8330    25.4960    24.8340 O.2        1 NPH       0.000000
     23 N           30.4850    27.5970    24.3280 N.am       2 NME      -0.415700
     24 H           30.1920    28.5200    24.0340 H          2 NME       0.271900
     25 CH3         31.8850    27.4470    24.7290 C.3        2 NME      -0.149000
     26 HH31        32.2580    26.4570    24.4580 H          2 NME       0.097600
     27 HH32        32.5020    28.2010    24.2360 H          2 NME       0.097600
     28 HH33        31.9790    27.5700    25.8110 H          2 NME       0.097600
@<TRIPOS>BOND
     1    21    22 2   
     2    21    23 am  
     3    19    20 1   
     4    17    18 1   
     5    17    19 ar  
     6    15    16 1   
     7    15    17 ar  
     8    13    14 1   
     9    13    15 ar  
    10    11    12 1   
    11    11    13 ar  
    12    10    11 ar  
    13    10    19 ar  
    14     7     8 1   
    15     7     9 1   
    16     7    10 1   
    17     5     6 1   
    18     5     7 1   
    19     5    21 1   
    20     1     2 1   
    21     1     3 1   
    22     1     4 1   
    23     1     5 1   
    24    25    26 1   
    25    25    27 1   
    26    25    28 1   
    27    23    24 1   
    28    23    25 1   
@<TRIPOS>SUBSTRUCTURE
     1 NPH         1 TEMP              0 ****  ****    0 ROOT
