@<TRIPOS>MOLECULE
default_name
   29    28     1     0     0
SMALL
No Charge or Current Charge


@<TRIPOS>ATOM
      1 H1          26.0150    25.2610    24.6920 H          1 ACE       0.112300
      2 CH3         26.0540    26.2100    24.1590 C.3        1 ACE      -0.366200
      3 H2          25.3160    26.8940    24.5740 H          1 ACE       0.112300
      4 H3          25.8530    26.0430    23.1020 H          1 ACE       0.112300
      5 C           27.4330    26.8040    24.3160 C.2        1 ACE       0.597200
      6 O           28.2860    26.2180    24.9710 O.2        1 ACE      -0.567900
      7 N           27.6500    27.9760    23.7240 N.am       2 GLN      -0.415700
      8 H           26.8910    28.4130    23.2210 H          2 GLN       0.271900
      9 CA          28.9300    28.6890    23.7380 C.3        2 GLN      -0.003100
     10 HA          29.4750    28.4090    24.6410 H          2 GLN       0.085000
     11 CB          29.7590    28.2450    22.5170 C.3        2 GLN      -0.003600
     12 HB2         29.8830    27.1610    22.5620 H          2 GLN       0.017100
     13 HB3         29.2100    28.4880    21.6060 H          2 GLN       0.017100
     14 CG          31.1540    28.8900    22.4440 C.3        2 GLN      -0.064500
     15 HG2         31.0540    29.9660    22.3030 H          2 GLN       0.035200
     16 HG3         31.6770    28.7090    23.3830 H          2 GLN       0.035200
     17 CD          32.0110    28.3420    21.3030 C.2        2 GLN       0.695100
     18 OE1         31.5840    27.5900    20.4470 O.2        2 GLN      -0.608600
     19 NE2         33.2730    28.7070    21.2370 N.am       2 GLN      -0.940700
     20 HE21        33.7890    28.3180    20.4670 H          2 GLN       0.425100
     21 HE22        33.6740    29.3250    21.9130 H          2 GLN       0.425100
     22 C           28.7010    30.2080    23.7710 C.2        2 GLN       0.597300
     23 O           27.7830    30.7100    23.1250 O.2        2 GLN      -0.567900
     24 N           29.5410    30.9400    24.5140 N.am       3 NME      -0.415700
     25 H           30.2540    30.4560    25.0360 H          3 NME       0.271900
     26 CH3         29.4640    32.3950    24.6380 C.3        3 NME      -0.149000
     27 HH31        28.4730    32.6810    24.9990 H          3 NME       0.097600
     28 HH32        30.2190    32.7580    25.3370 H          3 NME       0.097600
     29 HH33        29.6220    32.8570    23.6620 H          3 NME       0.097600
@<TRIPOS>BOND
     1     5     6 2   
     2     5     7 am  
     3     2     3 1   
     4     2     4 1   
     5     2     5 1   
     6     1     2 1   
     7    22    23 2   
     8    22    24 am  
     9    19    20 1   
    10    19    21 1   
    11    17    18 2   
    12    17    19 am  
    13    14    15 1   
    14    14    16 1   
    15    14    17 1   
    16    11    12 1   
    17    11    13 1   
    18    11    14 1   
    19     9    10 1   
    20     9    11 1   
    21     9    22 1   
    22     7     8 1   
    23     7     9 1   
    24    26    27 1   
    25    26    28 1   
    26    26    29 1   
    27    24    25 1   
    28    24    26 1   
@<TRIPOS>SUBSTRUCTURE
     1 ACE         1 TEMP              0 ****  ****    0 ROOT
